#------------------------------------------------------------------------------
#$Date: 2020-11-28 07:19:17 +0200 (Sat, 28 Nov 2020) $
#$Revision: 259272 $
#$URL: file:///home/coder/svn-repositories/cod/cif/2/24/36/2243691.cif $
#------------------------------------------------------------------------------
#
# This file is available in the Crystallography Open Database (COD),
# http://www.crystallography.net/. The original data for this entry
# were provided by IUCr Journals, http://journals.iucr.org/.
#
# The file may be used within the scientific community so long as
# proper attribution is given to the journal article from which the
# data were obtained.
#
data_2243691
loop_
_publ_author_name
'Chong, Saehwa'
'Perry, Samuel'
'Riley, Brian J.'
'Nelson, Zayne J.'
_publ_section_title
;
 Crystal structures and comparisons of potassium rare-earth molybdates
 K<i>RE</i>(MoO~4~)~2~ (<i>RE</i> = Tb, Dy, Ho, Er, Yb, and Lu)
;
_journal_coeditor_code           RU2071
_journal_issue                   12
_journal_name_full               'Acta Crystallographica Section E'
_journal_page_first              1871
_journal_page_last               1875
_journal_paper_doi               10.1107/S205698902001542X
_journal_volume                  76
_journal_year                    2020
_chemical_formula_iupac          'K Lu (Mo O4)2'
_chemical_formula_moiety         'K Lu Mo2 O8'
_chemical_formula_sum            'K Lu Mo2 O8'
_chemical_formula_weight         533.95
_chemical_name_systematic
;
Potassium lutetium bis(molybdate)
;
_space_group_IT_number           60
_space_group_name_Hall           '-P 2n 2ab'
_space_group_name_H-M_alt        'P b c n'
_symmetry_cell_setting           orthorhombic
_symmetry_space_group_name_Hall  '-P 2n 2ab'
_symmetry_space_group_name_H-M   'P b c n'
_atom_sites_solution_primary     dual
_cell_angle_alpha                90
_cell_angle_beta                 90
_cell_angle_gamma                90
_cell_formula_units_Z            4
_cell_length_a                   5.0292(2)
_cell_length_b                   18.2519(10)
_cell_length_c                   7.8174(4)
_cell_measurement_reflns_used    6634
_cell_measurement_temperature    100
_cell_measurement_theta_max      30.4480
_cell_measurement_theta_min      3.4090
_cell_volume                     717.58(6)
_computing_cell_refinement
;
CrysAlis Pro (Rigaku OD, 2019)
;
_computing_data_collection
;
CrysAlis Pro (Rigaku OD, 2019)
;
_computing_data_reduction
;
CrysAlis Pro (Rigaku OD, 2019)
;
_computing_molecular_graphics
;
<i>OLEX2</i> (Dolomanov <i>et al.</i>,  2009)
;
_computing_publication_material
;
publCIF (Westrip, 2010)
;
_computing_structure_refinement
;
SHELXL (Sheldrick, 2015b)
;
_computing_structure_solution
;
SHELXT (Sheldrick, 2015a)
;
_diffrn_ambient_temperature      100
_diffrn_detector_area_resol_mean 10.0000
_diffrn_measured_fraction_theta_full 1.000
_diffrn_measured_fraction_theta_max 1.000
_diffrn_measurement_device_type  'Rigaku XtaLAB Synergy-S, HyPix'
_diffrn_measurement_method       '\w scans'
_diffrn_radiation_monochromator  mirror
_diffrn_radiation_source         'micro-focus sealed X-ray tube'
_diffrn_radiation_type           'Mo K\a'
_diffrn_radiation_wavelength     0.71073
_diffrn_reflns_av_R_equivalents  0.0873
_diffrn_reflns_av_unetI/netI     0.0311
_diffrn_reflns_limit_h_max       7
_diffrn_reflns_limit_h_min       -7
_diffrn_reflns_limit_k_max       26
_diffrn_reflns_limit_k_min       -26
_diffrn_reflns_limit_l_max       11
_diffrn_reflns_limit_l_min       -11
_diffrn_reflns_number            19857
_diffrn_reflns_theta_full        25.242
_diffrn_reflns_theta_max         30.505
_diffrn_reflns_theta_min         2.232
_exptl_absorpt_coefficient_mu    17.676
_exptl_absorpt_correction_T_max  1.00000
_exptl_absorpt_correction_T_min  0.23991
_exptl_absorpt_correction_type   multi-scan
_exptl_absorpt_process_details
;
(CrysAlisPro; Rigaku OD, 2019)
;
_exptl_crystal_colour            white
_exptl_crystal_density_diffrn    4.942
_exptl_crystal_description       plate
_exptl_crystal_F_000             952
_exptl_crystal_size_max          0.436
_exptl_crystal_size_mid          0.145
_exptl_crystal_size_min          0.036
_refine_diff_density_max         2.053
_refine_diff_density_min         -3.031
_refine_ls_extinction_method     none
_refine_ls_goodness_of_fit_all   1.170
_refine_ls_goodness_of_fit_ref   1.170
_refine_ls_hydrogen_treatment    undef
_refine_ls_matrix_type           full
_refine_ls_number_constraints    0
_refine_ls_number_parameters     57
_refine_ls_number_reflns         1105
_refine_ls_number_restraints     0
_refine_ls_R_factor_all          0.0333
_refine_ls_R_factor_gt           0.0273
_refine_ls_shift/su_max          0.001
_refine_ls_shift/su_mean         0.000
_refine_ls_structure_factor_coef Fsqd
_refine_ls_weighting_details
'w=1/[\s^2^(Fo^2^)+(0.0305P)^2^+4.6788P] where P=(Fo^2^+2Fc^2^)/3'
_refine_ls_weighting_scheme      calc
_refine_ls_wR_factor_all         0.0733
_refine_ls_wR_factor_ref         0.0769
_reflns_number_gt                1004
_reflns_number_total             1105
_reflns_threshold_expression     'I > 2\s(I)'
_iucr_refine_instructions_details
;
TITL klumo2o8_5_a.res in Pbcn
 klumo2o8_5.res created by SHELXL-2016/4 at 23:08:06 on 22-Sep-2020
REM Old TITL KLuMo2O8_5 in Pbcn
REM SHELXT solution in Pbcn
REM R1 0.056, Rweak 0.000, Alpha 0.034, Orientation a'=-a, b'=c, c'=b
REM Formula found by SHELXT: O8 K Mo2 Lu
CELL 0.71073 5.0292 18.2519 7.8174 90 90 90
ZERR 4 0.0002 0.001 0.0004 0 0 0
LATT 1
SYMM 0.5-X,0.5-Y,0.5+Z
SYMM -X,+Y,0.5-Z
SYMM 0.5+X,0.5-Y,-Z
SFAC K Lu Mo O
UNIT 4 4 8 32
L.S. 10
PLAN  20
list 4
fmap 2 53
ACTA
REM <olex2.extras>
REM <HklSrc "%.\\KLuMo2O8_5.hkl">
REM </olex2.extras>
WGHT    0.030500    4.678800
EXTI    0.000823
FVAR       0.19667
LU1   2    1.000000    0.504625    0.750000    10.50000    0.00628    0.01004 =
         0.00389    0.00000    0.00006    0.00000
MO1   3    0.521034    0.399751    0.513289    11.00000    0.00674    0.00908 =
         0.00514   -0.00031   -0.00024    0.00028
K1    1    0.500000    0.226900    0.250000    10.50000    0.01417    0.01324 =
         0.00726    0.00000   -0.00058    0.00000
O4    4    0.393484    0.312787    0.520042    11.00000    0.01277    0.01409 =
         0.00875   -0.00182    0.00064   -0.00109
O2    4    0.247592    0.466668    0.494997    11.00000    0.00788    0.01677 =
         0.00460    0.00039   -0.00511    0.00057
O1    4    0.742930    0.407184    0.691984    11.00000    0.01001    0.01298 =
         0.00742    0.00094   -0.00284   -0.00110
O3    4    0.734675    0.401524    0.334268    11.00000    0.01176    0.01263 =
         0.00505   -0.00008    0.00018    0.00081
HKLF 4
REM  klumo2o8_5_a.res in Pbcn
REM R1 =  0.0273 for    1004 Fo > 4sig(Fo)  and  0.0333 for all    1105 data
REM     57 parameters refined using      0 restraints
END
WGHT      0.0305      4.6786
REM Highest difference peak  2.053,  deepest hole -3.031,  1-sigma level  0.367
Q1    1   0.8968  0.5037  0.8258  11.00000  0.05    2.05
Q2    1   0.8896  0.5027  0.6785  11.00000  0.05    1.92
Q3    1   0.4255  0.4008  0.4460  11.00000  0.05    1.44
Q4    1   0.4397  0.4001  0.5869  11.00000  0.05    1.38
Q5    1   0.6421  0.3992  0.4218  11.00000  0.05    1.11
Q6    1   0.6374  0.4025  0.6015  11.00000  0.05    1.01
Q7    1   0.5891  0.3153  0.5010  11.00000  0.05    0.93
Q8    1   0.6139  0.2464  0.4544  11.00000  0.05    0.90
Q9    1   0.3806  0.2263  0.3183  11.00000  0.05    0.89
Q10   1   0.7050  0.2234  0.2315  11.00000  0.05    0.84
Q11   1   0.7425  0.2985  0.4337  11.00000  0.05    0.77
Q12   1   0.7478  0.1821  0.1772  11.00000  0.05    0.76
Q13   1   0.2845  0.2841  0.1001  11.00000  0.05    0.74
Q14   1   0.9013  0.3596  0.2363  11.00000  0.05    0.74
Q15   1   0.3785  0.3044  0.4580  11.00000  0.05    0.71
Q16   1   0.3774  0.2284  0.1722  11.00000  0.05    0.70
Q17   1   0.5960  0.2736  0.1799  11.00000  0.05    0.68
Q18   1   0.5986  0.2410  0.6011  11.00000  0.05    0.68
Q19   1   0.7545  0.1838  0.2988  11.00000  0.05    0.68
Q20   1   0.1720  0.4990  0.5810  11.00000  0.05    0.68
  REM The information below was added by Olex2.
  REM
  REM R1 = 0.0273 for 1004 Fo > 4sig(Fo) and 0.0333 for all 22032 data
  REM n/a parameters refined using n/a restraints
  REM Highest difference peak 2.05, deepest hole -3.03
  REM Mean Shift 0, Max Shift 0.001.
  REM +++ Tabular Listing of Refinement Information +++
  REM R1_all = 0.0333
  REM R1_gt = 0.0273
  REM wR_ref = 0.0769
  REM GOOF = 1.170
  REM Shift_max = 0.001
  REM Shift_mean = 0
  REM Reflections_all = 22032
  REM Reflections_gt = 1004
  REM Parameters = n/a
  REM Hole = -3.03
  REM Peak = 2.05
  REM Flack = n/a
;
_cod_data_source_file            ru2071sup1.cif
_cod_data_source_block           Lu_Molybdate
_cod_database_code               2243691
_shelx_res_checksum              2933
loop_
_space_group_symop_operation_xyz
'x, y, z'
'-x+1/2, -y+1/2, z+1/2'
'-x, y, -z+1/2'
'x+1/2, -y+1/2, -z'
'-x, -y, -z'
'x-1/2, y-1/2, -z-1/2'
'x, -y, z-1/2'
'-x-1/2, y-1/2, z'
loop_
_atom_site_type_symbol
_atom_site_label
_atom_site_fract_x
_atom_site_fract_y
_atom_site_fract_z
_atom_site_U_iso_or_equiv
_atom_site_adp_type
_atom_site_calc_flag
_atom_site_occupancy
_atom_site_disorder_assembly
_atom_site_disorder_group
Lu Lu1 1.000000 0.50463(2) 0.750000 0.00674(13) Uani d 1 . .
Mo Mo1 0.52103(8) 0.39975(3) 0.51329(5) 0.00699(13) Uani d 1 . .
K K1 0.500000 0.22690(9) 0.250000 0.0116(3) Uani d 1 . .
O O4 0.3935(7) 0.31279(19) 0.5200(4) 0.0119(7) Uani d 1 . .
O O2 0.2476(7) 0.4667(2) 0.4950(4) 0.0098(7) Uani d 1 . .
O O1 0.7429(6) 0.40718(19) 0.6920(4) 0.0101(6) Uani d 1 . .
O O3 0.7347(6) 0.40152(19) 0.3343(4) 0.0098(6) Uani d 1 . .
loop_
_atom_site_aniso_label
_atom_site_aniso_U_11
_atom_site_aniso_U_22
_atom_site_aniso_U_33
_atom_site_aniso_U_12
_atom_site_aniso_U_13
_atom_site_aniso_U_23
Lu1 0.00628(18) 0.0100(2) 0.00389(17) 0.000 0.00006(8) 0.000
Mo1 0.0067(2) 0.0091(2) 0.0051(2) 0.00028(12) -0.00024(11) -0.00031(13)
K1 0.0142(7) 0.0132(8) 0.0073(6) 0.000 -0.0006(4) 0.000
O4 0.0128(17) 0.0141(17) 0.0087(14) -0.0011(13) 0.0006(12) -0.0018(12)
O2 0.0079(15) 0.0168(18) 0.0046(14) 0.0006(13) -0.0051(11) 0.0004(11)
O1 0.0100(14) 0.0130(16) 0.0074(14) -0.0011(13) -0.0028(12) 0.0009(12)
O3 0.0118(15) 0.0126(16) 0.0051(13) 0.0008(13) 0.0002(11) -0.0001(11)
loop_
_atom_type_symbol
_atom_type_description
_atom_type_scat_dispersion_real
_atom_type_scat_dispersion_imag
_atom_type_scat_source
O O 0.0106 0.0060 'International Tables Vol C Tables 4.2.6.8 and 6.1.1.4'
K K 0.2009 0.2494 'International Tables Vol C Tables 4.2.6.8 and 6.1.1.4'
Mo Mo -1.6832 0.6857 'International Tables Vol C Tables 4.2.6.8 and 6.1.1.4'
Lu Lu -0.4720 5.8584 'International Tables Vol C Tables 4.2.6.8 and 6.1.1.4'
loop_
_diffrn_standard_refln_index_h
_diffrn_standard_refln_index_k
_diffrn_standard_refln_index_l
? ? ?
loop_
_geom_angle_atom_site_label_1
_geom_angle_atom_site_label_2
_geom_angle_atom_site_label_3
_geom_angle_site_symmetry_1
_geom_angle_site_symmetry_3
_geom_angle
_geom_angle_publ_flag
Lu1 Lu1 Lu1 5_766 5_767 175.051(17) ?
Lu1 Lu1 K1 5_766 2_655 87.526(9) ?
Lu1 Lu1 K1 5_767 2_655 87.526(9) ?
O2 Lu1 Lu1 1_655 5_766 34.41(8) ?
O2 Lu1 Lu1 1_655 5_767 143.18(8) ?
O2 Lu1 Lu1 5_666 5_766 36.22(8) ?
O2 Lu1 Lu1 7_666 5_766 145.70(8) ?
O2 Lu1 Lu1 3_656 5_767 34.41(8) ?
O2 Lu1 Lu1 7_666 5_767 36.22(8) ?
O2 Lu1 Lu1 5_666 5_767 145.70(8) ?
O2 Lu1 Lu1 3_656 5_766 143.18(8) ?
O2 Lu1 K1 1_655 2_655 73.58(8) ?
O2 Lu1 K1 5_666 2_655 102.92(9) ?
O2 Lu1 K1 7_666 2_655 102.92(9) ?
O2 Lu1 K1 3_656 2_655 73.58(8) ?
O2 Lu1 O2 5_666 3_656 117.26(15) ?
O2 Lu1 O2 7_666 1_655 117.26(15) ?
O2 Lu1 O2 7_666 5_666 154.16(18) ?
O2 Lu1 O2 7_666 3_656 70.63(14) ?
O2 Lu1 O2 1_655 3_656 147.15(17) ?
O2 Lu1 O2 5_666 1_655 70.63(14) ?
O1 Lu1 Lu1 . 5_767 99.65(8) ?
O1 Lu1 Lu1 . 5_766 76.35(8) ?
O1 Lu1 Lu1 3_756 5_767 76.35(8) ?
O1 Lu1 Lu1 3_756 5_766 99.65(8) ?
O1 Lu1 K1 3_756 2_655 37.61(8) ?
O1 Lu1 K1 . 2_655 37.61(8) ?
O1 Lu1 O2 3_756 5_666 130.40(12) ?
O1 Lu1 O2 . 3_656 69.37(11) ?
O1 Lu1 O2 3_756 1_655 69.37(11) ?
O1 Lu1 O2 . 5_666 72.91(12) ?
O1 Lu1 O2 3_756 7_666 72.91(12) ?
O1 Lu1 O2 . 1_655 84.51(12) ?
O1 Lu1 O2 . 7_666 130.40(12) ?
O1 Lu1 O2 3_756 3_656 84.51(12) ?
O1 Lu1 O1 3_756 . 75.22(17) ?
O1 Lu1 O3 . 7_566 108.54(13) ?
O1 Lu1 O3 3_756 7_566 151.41(12) ?
O1 Lu1 O3 3_756 5_766 108.54(13) ?
O1 Lu1 O3 . 5_766 151.41(12) ?
O3 Lu1 Lu1 5_766 5_766 75.08(8) ?
O3 Lu1 Lu1 7_566 5_766 108.82(8) ?
O3 Lu1 Lu1 5_766 5_767 108.82(8) ?
O3 Lu1 Lu1 7_566 5_767 75.08(8) ?
O3 Lu1 K1 5_766 2_655 139.02(8) ?
O3 Lu1 K1 7_566 2_655 139.02(8) ?
O3 Lu1 O2 5_766 1_655 71.24(12) ?
O3 Lu1 O2 5_766 5_666 84.63(12) ?
O3 Lu1 O2 7_566 7_666 84.63(12) ?
O3 Lu1 O2 5_766 7_666 75.88(11) ?
O3 Lu1 O2 7_566 1_655 138.46(11) ?
O3 Lu1 O2 5_766 3_656 138.46(11) ?
O3 Lu1 O2 7_566 3_656 71.24(12) ?
O3 Lu1 O2 7_566 5_666 75.88(11) ?
O3 Lu1 O3 5_766 7_566 81.96(17) ?
K1 Mo1 K1 . 2 75.379(13) ?
K1 Mo1 K1 . 2_655 77.027(12) ?
K1 Mo1 K1 2_655 2 80.64(3) ?
O4 Mo1 K1 . . 39.69(11) ?
O4 Mo1 K1 . 2 36.45(11) ?
O4 Mo1 K1 . 2_655 70.14(12) ?
O4 Mo1 O2 . . 109.68(17) ?
O4 Mo1 O1 . . 106.21(16) ?
O4 Mo1 O3 . . 105.63(16) ?
O2 Mo1 K1 . 2_655 155.36(9) ?
O2 Mo1 K1 . . 119.41(10) ?
O2 Mo1 K1 . 2 85.95(11) ?
O1 Mo1 K1 . 2_655 43.56(11) ?
O1 Mo1 K1 . 2 95.28(11) ?
O1 Mo1 K1 . . 120.42(11) ?
O1 Mo1 O2 . . 118.31(14) ?
O3 Mo1 K1 . 2 141.76(12) ?
O3 Mo1 K1 . 2_655 90.65(11) ?
O3 Mo1 K1 . . 66.38(11) ?
O3 Mo1 O2 . . 112.35(14) ?
O3 Mo1 O1 . . 103.74(16) ?
Mo1 K1 Mo1 2_654 2_554 80.64(3) ?
Mo1 K1 Mo1 . 2_554 139.788(18) ?
Mo1 K1 Mo1 4_456 2_654 105.46(4) ?
Mo1 K1 Mo1 3_655 4_556 139.788(18) ?
Mo1 K1 Mo1 3_655 . 66.31(3) ?
Mo1 K1 Mo1 4_456 4_556 80.64(3) ?
Mo1 K1 Mo1 3_655 2_554 102.429(13) ?
Mo1 K1 Mo1 . 4_456 105.066(13) ?
Mo1 K1 Mo1 4_456 2_554 56.95(2) ?
Mo1 K1 Mo1 3_655 2_654 105.066(14) ?
Mo1 K1 Mo1 . 2_654 138.944(16) ?
Mo1 K1 Mo1 . 4_556 102.429(13) ?
Mo1 K1 Mo1 2_654 4_556 56.95(2) ?
Mo1 K1 Mo1 3_655 4_456 138.944(16) ?
Mo1 K1 Mo1 2_554 4_556 108.45(4) ?
O4 K1 Mo1 3_655 2_654 81.17(8) ?
O4 K1 Mo1 2_554 4_556 128.63(9) ?
O4 K1 Mo1 2_554 3_655 81.05(7) ?
O4 K1 Mo1 2_554 2_654 88.73(8) ?
O4 K1 Mo1 . . 24.06(8) ?
O4 K1 Mo1 4_556 2_654 72.87(7) ?
O4 K1 Mo1 . 4_556 96.06(8) ?
O4 K1 Mo1 3_655 . 86.27(8) ?
O4 K1 Mo1 4_556 4_456 88.73(8) ?
O4 K1 Mo1 2_554 . 126.40(8) ?
O4 K1 Mo1 3_655 3_655 24.06(8) ?
O4 K1 Mo1 4_556 . 81.05(7) ?
O4 K1 Mo1 2_554 4_456 72.87(7) ?
O4 K1 Mo1 . 2_554 125.27(8) ?
O4 K1 Mo1 3_655 4_556 125.27(8) ?
O4 K1 Mo1 3_655 2_554 96.06(8) ?
O4 K1 Mo1 4_556 4_556 21.55(7) ?
O4 K1 Mo1 2_554 2_554 21.55(7) ?
O4 K1 Mo1 4_556 3_655 126.40(8) ?
O4 K1 Mo1 4_556 2_554 128.63(9) ?
O4 K1 Mo1 . 2_654 149.44(8) ?
O4 K1 Mo1 . 3_655 86.27(8) ?
O4 K1 Mo1 3_655 4_456 149.44(8) ?
O4 K1 Mo1 . 4_456 81.17(8) ?
O4 K1 O4 . 2_554 121.38(5) ?
O4 K1 O4 . 3_655 108.51(16) ?
O4 K1 O4 3_655 4_556 121.38(5) ?
O4 K1 O4 3_655 2_554 77.57(9) ?
O4 K1 O4 . 4_556 77.57(9) ?
O4 K1 O4 2_554 4_556 149.68(16) ?
O4 K1 O1 4_556 2_654 63.09(10) ?
O4 K1 O1 4_556 4_456 89.78(11) ?
O4 K1 O1 . 2_654 136.80(10) ?
O4 K1 O1 2_554 4_456 63.09(10) ?
O4 K1 O1 2_554 2_654 89.78(11) ?
O4 K1 O1 . 4_456 106.89(10) ?
O4 K1 O1 3_655 4_456 136.80(10) ?
O4 K1 O1 3_655 2_654 106.89(10) ?
O1 K1 Mo1 2_654 2_654 26.14(7) ?
O1 K1 Mo1 2_654 4_456 80.84(7) ?
O1 K1 Mo1 4_456 4_556 73.72(7) ?
O1 K1 Mo1 4_456 2_654 80.84(7) ?
O1 K1 Mo1 4_456 . 130.93(6) ?
O1 K1 Mo1 4_456 3_655 143.70(7) ?
O1 K1 Mo1 2_654 4_556 42.27(7) ?
O1 K1 Mo1 2_654 3_655 130.93(6) ?
O1 K1 Mo1 2_654 2_554 73.72(7) ?
O1 K1 Mo1 4_456 2_554 42.27(7) ?
O1 K1 Mo1 2_654 . 143.70(7) ?
O1 K1 Mo1 4_456 4_456 26.14(7) ?
O1 K1 O1 4_456 2_654 58.48(14) ?
Mo1 O4 K1 . . 116.25(16) ?
Mo1 O4 K1 . 2 122.00(16) ?
K1 O4 K1 . 2 120.03(13) ?
Lu1 O2 Lu1 5_666 1_455 109.37(14) ?
Mo1 O2 Lu1 . 5_666 127.40(15) ?
Mo1 O2 Lu1 . 1_455 120.19(14) ?
Lu1 O1 K1 . 2_655 113.15(12) ?
Mo1 O1 Lu1 . . 125.15(17) ?
Mo1 O1 K1 . 2_655 110.29(15) ?
Mo1 O3 Lu1 . 5_766 127.02(17) ?
loop_
_geom_bond_atom_site_label_1
_geom_bond_atom_site_label_2
_geom_bond_site_symmetry_2
_geom_bond_distance
_geom_bond_publ_flag
Lu1 Lu1 5_767 3.9123(2) ?
Lu1 Lu1 5_766 3.9123(2) ?
Lu1 K1 2_655 4.2257(17) ?
Lu1 O2 5_666 2.344(3) ?
Lu1 O2 7_666 2.344(3) ?
Lu1 O2 3_656 2.450(3) ?
Lu1 O2 1_655 2.450(3) ?
Lu1 O1 . 2.245(3) ?
Lu1 O1 3_756 2.245(3) ?
Lu1 O3 7_566 2.269(3) ?
Lu1 O3 5_766 2.269(3) ?
Mo1 K1 . 3.7684(14) ?
Mo1 K1 2 3.9540(11) ?
Mo1 K1 2_655 3.8171(11) ?
Mo1 O4 . 1.713(4) ?
Mo1 O2 . 1.845(4) ?
Mo1 O1 . 1.793(3) ?
Mo1 O3 . 1.765(3) ?
K1 Mo1 4_556 3.9540(11) ?
K1 Mo1 3_655 3.7684(14) ?
K1 Mo1 4_456 3.8171(11) ?
K1 Mo1 2_654 3.8171(11) ?
K1 Mo1 2_554 3.9540(11) ?
K1 O4 . 2.683(3) ?
K1 O4 3_655 2.683(3) ?
K1 O4 2_554 2.770(3) ?
K1 O4 4_556 2.770(3) ?
K1 O1 4_456 2.805(4) ?
K1 O1 2_654 2.805(4) ?
O4 K1 2 2.770(3) ?
O2 Lu1 5_666 2.344(3) ?
O2 Lu1 1_455 2.450(3) ?
O1 K1 2_655 2.805(4) ?
O3 Lu1 5_766 2.269(3) ?
loop_
_refln_index_h
_refln_index_k
_refln_index_l
_refln_F_squared_meas
_refln_F_squared_sigma
0 2 0 -0.28 0.33
0 2 0 3612.55 31.6
0 3 0 0.28 0.81
0 -3 0 1.25 1.12
0 -3 0 0.56 0.82
0 3 0 0.41 1.3
0 -3 0 -0.28 0.88
0 3 0 0.54 0.98
0 4 0 63.07 8.27
0 -4 0 74.42 7.61
0 4 0 55.51 6.82
0 5 0 -1.35 1.32
0 -5 0 0.45 1.33
0 5 0 1.99 2.24
0 -5 0 -0.46 1.1
0 6 0 101.67 10.48
0 -6 0 94.17 10.31
0 6 0 105.78 12.44
0 -6 0 93.27 10.29
0 7 0 2.4 2.14
0 7 0 -0.6 1.77
0 7 0 -0.6 1.25
0 7 0 0.9 1.86
0 -7 0 0.63 1.07
0 8 0 3220.27 180.81
0 8 0 3207.3 184.23
0 8 0 3226.64 180.41
0 8 0 3354.25 185.47
0 -8 0 2828.91 180.09
0 9 0 20.7 6.61
0 9 0 9.53 4.7
0 9 0 12.13 5.8
0 9 0 14.61 5.37
0 -9 0 18.16 5.8
0 10 0 9999 521.25
0 10 0 9648.44 516.55
0 10 0 9345.84 515.98
0 10 0 9771.41 522.4
0 -10 0 8578.29 521.76
0 -10 0 8507.39 516.05
0 11 0 5 3.6
0 11 0 8.1 5.53
0 11 0 8.98 5.53
0 11 0 0.84 4.13
0 -11 0 4.02 4.81
0 -11 0 2.81 3.71
0 12 0 2605.75 155.16
0 12 0 2667.85 156.3
0 12 0 2585.72 149.74
0 -12 0 2553.62 156.61
0 -12 0 2320.07 150.2
0 13 0 -1.31 3.13
0 13 0 1.44 3.45
0 13 0 -0.92 2.46
0 -13 0 1.53 3.17
0 -13 0 -1.06 1.8
0 14 0 47.39 10.3
0 14 0 77.94 13.32
0 14 0 52.94 11.68
0 14 0 55.88 9.62
0 -14 0 50.43 9.75
0 15 0 -1.25 2.11
0 15 0 -1.44 3.44
0 15 0 -1.58 3.28
0 15 0 -1 2.06
0 -15 0 -1.17 2.81
0 16 0 90.23 15.81
0 16 0 99.97 13.48
0 -16 0 61.34 11.63
0 17 0 1.05 2.52
0 -17 0 -2.55 3.4
0 18 0 1182.88 77.19
0 -18 0 1143.18 79.33
0 19 0 1.09 4.11
0 -19 0 -1.36 4.61
0 20 0 1983.63 126.8
0 -20 0 2193.8 131.73
0 21 0 -1.11 4.95
0 -21 0 2.87 4.85
0 22 0 1082.62 74.43
0 -22 0 1163.13 79.54
0 23 0 -1.1 3.22
0 -23 0 -1.5 4.39
0 24 0 55.97 10.72
0 -24 0 74.87 14.21
0 25 0 1.09 2.61
0 -25 0 1.55 3.2
0 26 0 4.31 3.87
0 -26 0 6.26 4.59
0 0 1 0.53 0.34
0 0 1 0.88 0.51
0 0 -1 0.45 0.45
0 1 -1 0.12 0.25
0 -1 1 1 0.47
0 -1 -1 0.81 0.46
0 1 -1 0.74 0.44
0 1 1 0.46 0.29
0 1 1 0.58 0.42
0 -1 1 0.59 0.4
0 -1 -1 0.63 0.43
0 1 -1 1.36 0.63
0 1 1 0.36 0.41
0 2 1 49.72 4.38
0 -2 1 45.97 4.16
0 2 -1 56.56 4.56
0 2 1 49.58 4.26
0 -2 1 55.23 4.49
0 2 -1 56.73 4.56
0 -2 1 45.18 3.78
0 -3 1 0.16 0.53
0 3 -1 0.21 0.65
0 -3 1 0.2 0.58
0 3 1 0.25 0.66
0 3 -1 2.34 1.01
0 -3 1 -0.17 0.56
0 4 -1 110.51 8.93
0 -4 1 110.63 8.94
0 4 1 117.25 9.81
0 4 1 104 8.85
0 -4 1 102.45 8.06
0 -4 1 89.14 8.16
0 5 -1 1.5 1.35
0 5 1 2.38 1.51
0 -5 1 1.18 1.05
0 5 1 0.42 0.87
0 5 -1 1.42 1.9
0 -5 1 0.28 0.76
0 -5 1 0.69 1.17
0 -5 -1 0.45 1.07
0 6 1 2.95 1.86
0 6 -1 -0.48 1.29
0 6 -1 2.56 2.5
0 6 1 0.54 1.45
0 -6 1 2.14 1.48
0 -6 -1 1.19 1.42
0 -6 1 1.77 1.4
0 -6 -1 1.09 1.13
0 7 -1 0.59 1
0 7 1 4.22 2.38
0 -7 1 -0.48 0.81
0 7 1 1.33 1.59
0 -7 1 0.88 1.06
0 7 -1 1.96 2.35
0 -7 -1 0.74 1.24
0 -7 -1 1.9 1.86
0 7 -1 0.53 1.55
0 -7 1 2.15 1.43
0 -8 1 519.71 36.75
0 8 1 552 38.89
0 8 -1 603.48 39.99
0 8 1 602.09 40.88
0 8 1 585.73 39.98
0 8 -1 555.2 37.09
0 8 -1 583.85 43.64
0 -8 1 560.13 37.18
0 -8 -1 607.51 41.34
0 -8 -1 524.47 38.51
0 8 -1 501.39 37.42
0 -8 1 563.88 38.07
0 -9 1 -0.61 1.26
0 9 1 1.3 1.1
0 -9 -1 0.42 0.71
0 9 1 0.91 1.53
0 -9 -1 1.01 2.09
0 9 -1 3.16 2
0 9 -1 3.63 2.9
0 9 -1 0.4 1.18
0 9 1 0.67 1.8
0 -9 1 1.21 1.45
0 9 -1 0.79 1.34
0 -9 -1 1.94 0.9
0 9 -1 0.73 0.62
0 -9 1 2.84 2.08
0 9 -1 -0.68 1.63
0 -9 -1 0.81 0.97
0 -10 1 35.56 6.55
0 10 1 43.69 8.49
0 10 -1 50.87 10.31
0 10 1 40.51 7.01
0 -10 -1 45.51 8.94
0 10 -1 43.71 7.25
0 -10 1 23.91 5.48
0 10 -1 34.41 7.37
0 10 1 44.54 8.72
0 10 1 36.68 6.76
0 -10 -1 35.94 3.62
0 10 -1 38.94 7.45
0 -10 1 45 7.71
0 -10 -1 41.74 7.85
0 11 1 1.1 1.86
0 11 1 -0.79 2.31
0 -11 1 2.14 2.09
0 11 -1 0.96 1.15
0 -11 1 -1.51 2.39
0 11 1 1.12 2.68
0 11 -1 2.32 2.26
0 -11 -1 -1.21 2.51
0 11 -1 -1.39 2.88
0 11 1 2.37 2.31
0 -11 1 0.87 1.79
0 11 -1 4.06 2.74
0 -11 -1 2.9 2.83
0 12 1 316.53 26.36
0 12 -1 349.23 31.06
0 12 -1 280.11 27.33
0 12 1 353.75 30.48
0 -12 1 251.54 24.01
0 12 -1 316.43 26.06
0 -12 1 279.06 25.23
0 12 -1 341.92 32.77
0 -12 -1 323.03 30.41
0 12 1 304.49 25.99
0 12 1 364.59 30.7
0 -12 1 293.02 26.3
0 12 -1 333.15 26.71
0 -12 -1 289.94 27.34
0 13 1 0.9 2.14
0 13 -1 2.63 3.15
0 13 1 1.28 1.53
0 -13 1 1.61 1.67
0 13 -1 2.19 2.93
0 13 -1 6.15 4.5
0 -13 1 0.87 2.33
0 13 -1 0.89 1.5
0 13 1 11.67 4.29
0 -13 -1 -1.39 2.36
0 13 1 1.3 2.7
0 -13 -1 -1.11 1.87
0 -13 1 -1 1.7
0 13 -1 3.68 2.46
0 14 -1 19.27 7.16
0 14 1 33.52 7.3
0 14 -1 24.1 7.17
0 14 1 48.44 10.3
0 14 1 23.56 6.37
0 14 -1 35.33 7.29
0 14 1 22.33 7.25
0 14 -1 28.82 8.91
0 -14 1 38.53 7.76
0 -14 -1 22.06 7.82
0 -14 1 38.26 8.09
0 -14 -1 26.77 7.13
0 15 -1 1.2 2.49
0 15 1 -1.43 2.42
0 15 1 2.89 2.57
0 15 -1 2.88 3.45
0 15 1 -0.98 2.62
0 15 -1 1.66 2.8
0 15 1 -1.47 3.51
0 -15 -1 -1.56 3.22
0 15 -1 0.97 2.6
0 -15 1 2.24 2.32
0 -15 -1 4.88 3.86
0 16 1 357.07 29.84
0 16 -1 346.02 29.78
0 16 1 414.73 36.05
0 16 1 351.15 30.13
0 -16 -1 316.29 34.2
0 -16 -1 306.78 30.7
0 -16 1 333.91 30.92
0 17 1 -1.01 2.95
0 17 1 -1.04 1.75
0 17 1 -1.61 2.72
0 17 -1 1.03 2.46
0 -17 -1 6.63 4.48
0 -17 1 4.9 3.88
0 18 1 210.12 21.08
0 18 -1 201.64 20.84
0 -18 1 168.51 20.9
0 -18 -1 158.85 21.28
0 19 -1 -1.08 3.4
0 19 1 1.07 2.22
0 -19 1 2.64 3.15
0 -19 -1 1.41 3.37
0 20 1 247.28 25.28
0 20 -1 242.48 25.28
0 -20 1 310.91 29.41
0 -20 -1 289.28 29.28
0 21 1 1.11 3.26
0 21 -1 -1.1 3.95
0 -21 -1 2.97 3.97
0 -21 1 1.4 3.34
0 22 1 163.06 19.47
0 22 -1 167.87 19.58
0 -22 1 182.13 22.48
0 -22 -1 166.95 22.06
0 23 1 1.12 2.67
0 23 -1 1.12 3
0 -23 1 1.46 2.47
0 -23 -1 4.63 4.12
0 24 -1 80.55 13.78
0 24 1 93.33 14.39
0 -24 -1 95.66 16.89
0 -24 1 106.13 16.85
0 25 1 -1.1 3.23
0 25 -1 -1.12 2.98
0 -25 1 -1.51 3.61
0 -25 -1 -1.59 5.37
0 0 -2 15.56 2.45
0 0 -2 19.95 2.79
0 0 -2 19.59 2.76
0 0 2 20.67 1.96
0 0 2 15.63 1.86
0 -1 -2 0.22 0.65
0 1 -2 -0.21 0.44
0 1 2 -0.08 0.24
0 1 -2 -0.23 0.55
0 -1 -2 0.2 0.2
0 -1 2 0.22 0.46
0 -1 -2 -0.24 0.57
0 1 -2 0.27 0.33
0 1 2 0.3 0.48
0 2 -2 564.76 34.12
0 2 -2 626.78 34.33
0 -2 -2 539.79 33.26
0 -2 -2 607.3 34.11
0 -2 -2 519.76 31.79
0 -2 -2 627.69 34.57
0 -2 2 641.7 34.27
0 2 -2 586.23 34.19
0 2 -2 557.02 32.62
0 -3 -2 0.25 0.59
0 3 -2 -0.27 0.65
0 3 2 0.23 0.55
0 -3 2 0.26 0.54
0 3 -2 0.28 0.48
0 -3 2 -0.16 0.47
0 3 -2 1.37 0.75
0 -4 2 6160.17 348.37
0 4 -2 6852.79 349.9
0 -4 -2 6308.05 349.53
0 4 2 6488.97 349.32
0 -4 2 7032.36 349.95
0 4 -2 6967.87 349.94
0 -4 2 5943.32 347.69
0 4 -2 5843.76 347.47
0 -5 -2 1.33 1.26
0 5 -2 2.2 3.04
0 -5 2 2.12 1.42
0 5 -2 0.73 1.16
0 -5 -2 3.02 1.93
0 5 2 2.36 1.63
0 5 -2 2 1.44
0 -5 2 1.06 1.15
0 5 -2 1.02 0.97
0 -6 -2 2970.21 178.83
0 -6 2 3045 177.6
0 6 -2 3837.88 187.35
0 6 2 3351.27 180.55
0 -6 -2 3208.45 181.2
0 6 -2 3274.93 179.57
0 6 -2 3800.11 181.63
0 6 -2 2933.93 178
0 -6 2 3056.67 178.04
0 -7 -2 0.54 1.58
0 -7 2 0.36 1.14
0 7 -2 0.97 2.33
0 -7 -2 3.99 2.39
0 7 2 0.6 1.6
0 7 -2 1.99 1.68
0 7 -2 0.59 1.42
0 -7 -2 1.89 1.85
0 7 -2 0.85 1.6
0 -7 2 2.52 1.59
0 -8 2 1456.79 91.55
0 -8 -2 1513.29 94.52
0 8 -2 1836.66 103.13
0 8 -2 1616.44 93.11
0 8 2 1678.63 96.06
0 8 -2 1652.74 94.37
0 8 -2 1886.25 97.49
0 -8 2 1579.43 93.13
0 8 -2 1518.35 92.98
0 -8 -2 1422.61 95.04
0 9 2 -0.81 1.37
0 9 -2 -0.68 1.4
0 -9 2 1.9 1.51
0 9 2 3.42 2.17
0 -9 -2 0.8 1.36
0 9 -2 1.23 2.94
0 9 -2 -0.56 1.35
0 -9 -2 1.62 1.68
0 9 -2 1.19 1.74
0 -9 2 1.78 1.58
0 -10 2 20.3 4.52
0 10 -2 21.69 5.3
0 10 2 16.62 5.2
0 10 -2 20.2 4.81
0 10 2 19.99 5.2
0 -10 2 21.72 4.66
0 -10 -2 24.38 6.06
0 10 -2 52.41 10.48
0 -10 2 32.82 5.96
0 10 -2 44.28 7.32
0 -10 -2 12.56 4.71
0 11 -2 -0.7 1.19
0 -11 2 1.23 1.8
0 -11 -2 1.07 1.81
0 11 -2 -1.45 2.45
0 11 2 -0.91 2.44
0 11 -2 1.82 1.88
0 11 2 1.03 1.74
0 -11 2 0.66 1.38
0 11 -2 0.85 1.76
0 11 -2 -0.4 0.95
0 -11 -2 -0.98 1.17
0 -11 2 2.29 2.24
0 11 -2 0.74 1.98
0 -12 2 823.14 52.41
0 12 2 909.09 57.07
0 -12 -2 745.71 53.2
0 12 -2 723.23 52.76
0 12 -2 738.72 52.74
0 12 -2 1002.85 64.88
0 -12 -2 772.74 57.06
0 -12 2 771.8 52.11
0 12 -2 879.58 56.11
0 12 2 851.39 54.43
0 12 2 973.06 59.62
0 12 -2 736.91 48.12
0 -12 -2 747.52 48.47
0 -12 2 908.13 55.23
0 -12 -2 787.29 56.46
0 -13 -2 4.73 2.91
0 13 -2 1.3 1.56
0 13 2 1.68 2.66
0 13 -2 6.44 4.72
0 -13 2 4.5 3.59
0 13 2 1.13 3.81
0 13 -2 1.67 3.45
0 -13 -2 -1.28 4.05
0 -13 2 5.23 3.22
0 13 2 3.43 3.25
0 13 2 3.66 3.86
0 13 -2 2.05 3.24
0 -13 -2 0.32 1.43
0 13 -2 0.6 1.25
0 13 -2 1.72 3.09
0 -13 -2 1.13 3.03
0 -13 2 2.77 3.49
0 -14 -2 3597.84 212.78
0 14 -2 3615.04 199.64
0 -14 2 3698.24 205.37
0 -14 -2 3488.68 200.8
0 14 2 3658.54 206.11
0 14 -2 3561.05 206.09
0 14 2 4305.53 213.05
0 14 -2 4863.13 223.2
0 -14 2 3170.36 203.37
0 14 2 3975.62 207.31
0 14 -2 3545.7 208.77
0 14 2 4368.46 214.9
0 -14 -2 3700.38 197.33
0 14 -2 3208.01 196.37
0 14 2 3150.73 197.32
0 -14 2 4047.71 208.67
0 14 -2 4269.67 208.36
0 -14 -2 3805.96 211.21
0 15 2 0.94 2.98
0 -15 2 1.61 2.36
0 15 2 8.32 5.74
0 15 2 -1.31 4.15
0 15 2 0.95 2.55
0 -15 2 4.35 3.29
0 15 -2 1.89 2.53
0 -15 -2 1.45 3.47
0 -15 -2 2.53 4.28
0 -15 2 2.12 3.11
0 15 -2 -1.92 3.63
0 -16 2 1301.28 97.23
0 16 2 1823.6 102.68
0 16 2 1525.74 100.6
0 16 -2 1496.35 100.62
0 -16 2 1656.99 100.56
0 -16 -2 1632.54 107.92
0 16 2 1934.63 108.69
0 -16 -2 1819.22 107.08
0 -16 2 1808.5 104.22
0 -17 2 -0.85 2.28
0 17 2 1.02 2.44
0 -17 -2 1.59 2.68
0 -17 2 1.92 2.3
0 17 2 -2.08 2.78
0 17 -2 -1.04 3.04
0 17 2 -1.47 3.04
0 -17 2 -1.19 3.18
0 -17 -2 1.38 3.29
0 18 2 546.96 41.34
0 18 2 613.68 47.23
0 18 2 471.9 39.76
0 18 -2 474.37 40.21
0 -18 -2 486.7 45.56
0 -18 2 556.57 43.08
0 -18 -2 558.47 44.98
0 19 2 -1.06 1.8
0 19 2 2.18 2.6
0 19 -2 -1.1 2.63
0 -19 -2 -1.47 3.04
0 -19 2 -1.28 2.66
0 20 2 23.2 7.01
0 20 -2 21.5 7.04
0 -20 2 35.17 8.82
0 -20 -2 28.6 8.93
0 21 2 1.12 2.67
0 21 -2 -1.15 2.38
0 -21 2 -1.39 2.35
0 -21 -2 1.54 4.51
0 22 2 279.81 26.89
0 22 -2 252.31 26.81
0 22 -2 210.42 30.1
0 -22 -2 289.7 30.39
0 -22 2 317.98 30.7
0 23 2 1.13 3.31
0 23 -2 -2.36 5.28
0 23 -2 1.87 5
0 -23 -2 1.6 4.28
0 -23 2 4.39 4.63
0 24 2 781.37 58.62
0 24 -2 779.19 59.85
0 24 -2 705.62 65.93
0 -24 -2 894.21 65.51
0 25 2 -1.13 3.57
0 25 -2 -1.91 7.22
0 -25 2 3.04 5.46
0 -25 -2 -3.28 5.55
0 0 -3 -0.34 0.99
0 0 -3 0.63 0.84
0 0 -3 1.05 1.11
0 0 3 0.4 0.43
0 0 3 0.78 0.59
0 -1 -3 0.66 0.78
0 1 -3 -0.31 0.65
0 1 3 -0.32 0.66
0 -1 -3 0.36 0.74
0 1 3 0.13 0.37
0 1 -3 -0.35 0.42
0 1 3 0.19 0.39
0 1 -3 1.2 0.54
0 -2 -3 69.89 6.66
0 2 -3 69.01 7.24
0 -2 -3 82.5 7.75
0 2 3 80.81 7.64
0 2 3 78.25 5.76
0 2 -3 67.89 7.37
0 -2 -3 90.75 8.36
0 -2 -3 82.4 5.41
0 2 3 92.25 7.3
0 2 -3 81.27 6.44
0 2 -3 69.85 5.7
0 -3 -3 0.58 0.84
0 3 -3 0.37 0.77
0 3 -3 1.43 1.04
0 3 3 0.37 0.62
0 -3 -3 1.36 1.22
0 -3 -3 0.28 0.34
0 -3 -3 -0.38 0.65
0 3 -3 0.39 0.93
0 3 -3 0.78 0.62
0 4 3 114.68 9.77
0 4 -3 116.66 10.53
0 4 3 139.18 10.96
0 4 -3 135.73 11.15
0 -4 -3 113.51 9.93
0 4 -3 119.15 10.8
0 -4 3 122.07 10.53
0 -4 -3 108.33 7.99
0 4 3 122.94 10.52
0 4 -3 119.3 8.9
0 -5 3 0.33 0.79
0 5 3 1.88 1.42
0 -5 -3 2.09 1.32
0 5 3 0.4 0.84
0 5 -3 0.43 0.89
0 5 3 -0.41 0.86
0 5 -3 0.47 0.56
0 -5 3 0.41 0.7
0 5 -3 1.21 0.77
0 -5 3 0.79 0.71
0 -6 3 17.42 3.28
0 -6 -3 14.59 3.09
0 -6 -3 15.67 3.67
0 6 3 16.33 3.48
0 6 -3 23.09 4.19
0 6 3 15.65 3.48
0 6 3 10 2.89
0 6 -3 18.81 3.99
0 -6 3 11.22 2.55
0 6 -3 15.97 2.87
0 -7 3 0.75 1.1
0 -7 -3 -0.47 1.12
0 7 3 0.55 1.13
0 -7 -3 4.29 2.2
0 7 -3 3.4 1.79
0 7 3 0.48 0.99
0 7 3 -0.49 0.83
0 7 -3 4.17 2.14
0 -7 3 0.37 1
0 7 -3 0.36 0.86
0 -8 -3 91.07 10.25
0 -8 3 93.9 9.22
0 8 3 95.1 10.93
0 -8 -3 82.73 10.81
0 8 -3 97.69 10.89
0 8 3 102.91 10.32
0 8 3 93.31 10.31
0 8 -3 103.03 11.49
0 8 -3 88.19 9.25
0 -8 3 88.19 9.2
0 -9 3 -0.46 0.96
0 -9 -3 -0.66 1.59
0 9 -3 1.26 2.13
0 9 3 -0.74 1.26
0 9 -3 0.68 1.14
0 -9 -3 1.7 1.76
0 9 -3 1.54 1.6
0 -9 3 -0.53 1.09
0 9 -3 0.52 1.07
0 -10 -3 7.82 3.28
0 -10 3 8.22 2.73
0 10 -3 10.96 5.46
0 10 3 10.12 3.8
0 10 -3 11.94 3.82
0 10 -3 7.88 3.35
0 10 -3 8.38 2.99
0 -10 3 10.93 3.2
0 -11 -3 0.91 1.54
0 -11 3 1.13 1.51
0 11 -3 5.92 3.95
0 11 -3 0.82 1.7
0 11 3 1.88 2.25
0 11 -3 1.97 2.04
0 11 -3 -0.67 1.8
0 -11 3 -0.69 2.19
0 -12 3 642.16 44.22
0 12 -3 785.9 56.61
0 -12 -3 615.47 48.17
0 12 3 783.95 50.7
0 12 -3 684.93 47.95
0 12 -3 648.33 49.27
0 12 -3 648.72 45.74
0 -12 3 675.74 46.38
0 13 -3 1.31 2.21
0 13 -3 1.67 4.47
0 -13 -3 1.16 2.78
0 -13 3 2.02 2.13
0 -13 3 3.06 2.24
0 13 3 1.15 2.39
0 13 -3 -0.98 2.35
0 -13 -3 0.59 1.21
0 13 -3 -0.57 1.37
0 13 -3 0.8 1.92
0 -13 -3 2.33 2.79
0 -13 3 -0.87 1.46
0 -14 -3 64.94 12.02
0 -14 3 77.19 10.28
0 14 -3 69.69 12.25
0 -14 -3 65.55 12.47
0 -14 3 74.93 10.47
0 14 3 103.7 12.81
0 14 3 74.2 12.61
0 -14 -3 75.89 9.11
0 14 -3 72.98 8.96
0 14 -3 74.91 10.84
0 -14 -3 78.13 13.07
0 -14 3 77.96 11.37
0 15 -3 1.01 2.09
0 -15 -3 1.35 2.28
0 -15 -3 2.06 2.75
0 15 3 0.94 2.25
0 15 3 1.93 3.05
0 15 3 6.65 4.21
0 -15 3 -0.82 1.39
0 15 -3 0.46 1.11
0 -15 -3 0.48 1.29
0 -15 -3 3.93 3.13
0 15 -3 0.91 1.54
0 -15 3 -1.03 1.74
0 16 3 131.72 15.95
0 16 -3 139.14 15.06
0 -16 -3 135.38 19.15
0 -16 -3 137.59 15.47
0 -16 3 115.02 14.46
0 16 3 141.06 16.69
0 -16 3 109.62 14.14
0 16 -3 140.89 11.7
0 -16 -3 150.94 12.29
0 -16 -3 163.58 20.13
0 16 -3 158.78 17.88
0 -16 3 153.63 17.8
0 17 -3 1.35 1.62
0 -17 -3 -0.6 1.24
0 17 3 1.04 2.49
0 17 3 1.74 1.01
0 -17 -3 1.48 2.5
0 17 3 1.03 2.13
0 -17 3 -0.85 1.76
0 17 -3 1.71 0.92
0 -17 -3 0.59 0.86
0 -17 -3 -2.87 3.43
0 -17 3 1.17 1.4
0 17 3 0.27 0.78
0 17 3 0.75 0.85
0 -17 3 0.93 0.88
0 18 3 32.06 7.92
0 -18 3 32.44 7.05
0 18 3 31.43 7.7
0 -18 -3 29.16 9.56
0 -18 3 58.07 10.73
0 -18 -3 53.22 11.49
0 -19 3 0.86 2.05
0 19 3 1.12 2.32
0 -19 -3 -1.6 3.31
0 -19 3 1.29 3.09
0 -19 -3 1.52 3.16
0 20 3 198.14 21.76
0 20 -3 175.6 26.25
0 -20 3 203.66 23.86
0 -20 -3 216.87 25.71
0 21 3 1.16 2.39
0 21 -3 1.86 4.45
0 -21 3 -1.38 3.7
0 -21 -3 1.61 3.33
0 22 3 350.15 32.15
0 22 -3 279.62 36.24
0 -22 3 421.81 36.15
0 -22 -3 377.61 36.76
0 23 3 1.16 3.41
0 23 -3 -1.93 3.99
0 -23 3 -1.46 3.03
0 -23 -3 1.66 4.44
0 24 3 142.68 19.15
0 24 -3 101.42 22.45
0 -24 -3 195.01 24.82
0 -24 3 221.31 24.55
0 25 3 -1.15 3.38
0 25 -3 -1.96 5.25
0 -25 3 1.52 3.64
0 -25 -3 3.4 5.38
0 0 -4 9505.32 505.48
0 0 4 9681.09 505.36
0 0 -4 9404.31 505.93
0 0 4 8489.79 501.63
0 0 4 9466.68 502.01
0 -1 4 11.65 3.55
0 1 4 7.67 2.86
0 -1 -4 9.99 2.92
0 1 -4 11.7 3.48
0 -1 4 16.41 3.88
0 -1 4 7.88 1.99
0 1 4 7.68 3.17
0 1 4 3.53 1.42
0 1 -4 14.64 3.5
0 -1 -4 5.33 2.55
0 1 4 3.5 1.74
0 -2 -4 2048.46 119.8
0 -2 4 2193.92 122.52
0 2 -4 2051.49 121.14
0 -2 -4 2270.99 121.89
0 2 4 2136.81 121.5
0 2 -4 2137.38 121.99
0 -2 -4 2287.95 122.81
0 2 4 2177.93 121.6
0 2 4 2108.92 117.95
0 2 4 2144.21 119.54
0 2 -4 2050.17 117.59
0 3 4 -0.45 1.07
0 -3 -4 1.72 1.23
0 -3 4 0.52 1.08
0 -3 -4 0.89 1.06
0 3 -4 -0.44 1.19
0 -3 -4 0.53 1.09
0 3 -4 -0.5 1.03
0 3 4 1.33 1.19
0 3 -4 -0.5 0.9
0 3 -4 0.52 0.65
0 3 4 -0.36 0.85
0 -4 -4 499.11 32.85
0 4 -4 526.49 34.2
0 4 4 629.57 35.5
0 -4 4 564.05 35.48
0 -4 -4 542.14 34.02
0 4 4 549.88 34.29
0 -4 -4 476.27 29.53
0 -4 -4 508.48 34.53
0 4 -4 543.77 34.89
0 4 -4 519.08 31.06
0 4 -4 521.36 31.45
0 -5 -4 -0.87 1.17
0 5 -4 0.52 1.39
0 5 -4 0.52 0.88
0 5 4 1.04 1.07
0 -5 4 -0.52 1.08
0 -5 -4 -0.14 0.4
0 5 -4 0.57 1.18
0 5 4 0.97 1.3
0 5 -4 0.27 0.64
0 6 4 131.81 11.87
0 -6 4 140.43 11.93
0 -6 -4 134.96 12.56
0 6 4 168.23 13.76
0 -6 4 118.77 12.34
0 6 -4 152.99 13.88
0 6 -4 137.78 13.04
0 6 -4 138.77 13.59
0 6 4 161.26 13.38
0 -6 -4 122.14 9.37
0 6 -4 122.46 10.42
0 7 -4 -1.13 2.7
0 -7 4 0.88 1.49
0 -7 -4 0.47 0.98
0 7 -4 0.65 1.74
0 7 -4 0.6 1.44
0 -7 -4 -0.6 1.02
0 7 4 1.03 1.37
0 -7 4 0.57 1.18
0 7 4 0.57 1.17
0 7 -4 0.69 1.42
0 7 4 -0.56 1.34
0 -7 -4 0.49 0.88
0 7 -4 0.34 0.99
0 -7 4 0.37 0.76
0 8 4 2017.83 113.64
0 -8 4 2000.48 111.95
0 -8 -4 1776.9 112.15
0 8 4 2122.91 114.18
0 -8 -4 1949.36 115
0 -8 4 1899.78 113.44
0 8 -4 2040.74 114.67
0 8 -4 2091.15 116.22
0 8 4 2062.92 114.28
0 8 -4 1774.59 110.72
0 -8 4 1828.1 110.91
0 -9 4 4.46 2.58
0 -9 -4 0.61 1.93
0 -9 4 3.3 3.05
0 -9 -4 4.89 3.51
0 9 -4 3.69 2.93
0 9 4 -0.69 2.47
0 9 4 1.31 2.35
0 9 -4 2.47 2.61
0 9 4 4.81 2.96
0 9 -4 0.93 1.85
0 -9 4 0.98 2.03
0 -10 -4 3734.41 224.3
0 -10 4 3952.35 222.89
0 10 4 4304.03 225.95
0 -10 4 3567.12 224.46
0 10 4 4291.6 226.76
0 10 -4 4473.45 227.73
0 -10 -4 3742.34 227.67
0 10 -4 4304.39 229.1
0 10 4 4187.82 226.29
0 10 -4 3688.68 222.83
0 -10 4 3908.83 222.9
0 -10 -4 3663.79 228.13
0 -11 -4 3.21 2.54
0 -11 4 2.32 2.6
0 11 -4 0.91 2.88
0 11 4 3.76 3.12
0 11 4 0.89 2.59
0 -11 4 1.6 2.34
0 11 -4 1 2.39
0 11 4 5.47 3.74
0 11 -4 0.62 2.1
0 -11 4 1.9 2.84
0 -12 -4 1013.97 74.17
0 -12 4 1110.02 71.86
0 12 -4 1357.55 78.64
0 12 4 1358.1 75.78
0 12 4 1286.77 77.36
0 -12 4 1081.18 74.52
0 12 4 1191.69 75.44
0 12 -4 1201.86 79.22
0 12 -4 1119.57 72.81
0 -12 4 1168.5 73.18
0 -13 4 0.67 1.79
0 -13 -4 -1.04 2.77
0 13 4 0.85 1.77
0 13 4 1.1 1.86
0 13 -4 -1.19 2.47
0 13 4 -0.92 1.91
0 13 -4 -0.76 2.02
0 -13 4 1.6 1.92
0 -14 -4 15.02 5.78
0 -14 4 17.17 4.71
0 14 -4 10.65 6.08
0 14 4 25.34 7.14
0 14 4 21.87 5.95
0 14 4 19.99 6.05
0 -14 -4 18.13 5.25
0 14 -4 20.78 7.01
0 14 -4 14.05 4.48
0 14 -4 19.56 5.16
0 -14 4 20.28 5.46
0 -15 -4 -1.26 3
0 -15 -4 1.63 2.76
0 15 -4 3.21 4.29
0 -15 4 2.66 2.37
0 15 4 1.3 3.1
0 15 4 0.96 2
0 -15 -4 0.73 1.74
0 15 -4 0.72 1.72
0 15 -4 -0.87 2.08
0 -15 4 1.94 2.01
0 16 -4 5.75 4.58
0 -16 -4 13.22 5.58
0 -16 -4 6.64 4.52
0 16 4 14.27 5.05
0 -16 4 8.13 3.62
0 -16 -4 10.87 3.67
0 16 -4 8.55 3.28
0 16 -4 11.9 5.04
0 -16 4 14.56 5.16
0 -17 -4 1.3 3.11
0 17 -4 1.25 2.12
0 -17 -4 1.4 3.34
0 -17 4 0.91 2.18
0 17 4 1.07 2.56
0 -17 -4 0.61 2.18
0 17 -4 -0.58 1.21
0 -17 4 -1.12 2.99
0 -18 -4 758.34 54.45
0 18 -4 752.98 53.27
0 18 4 737.78 53.99
0 -18 -4 670.78 56.87
0 -18 4 629.28 50.58
0 18 4 819.56 55.63
0 18 -4 748.35 46.99
0 -18 -4 774.49 47.77
0 -18 4 899.76 57.45
0 19 4 -1.17 3.12
0 -19 -4 0.8 0.95
0 -19 -4 2.97 5.01
0 19 4 1.16 2.77
0 -19 4 1.81 2.41
0 19 -4 1.22 1.21
0 19 4 -2.01 1.2
0 -19 4 -2.51 4.75
0 20 4 942.92 65.82
0 -20 -4 921.61 70.39
0 -20 4 813.19 61.42
0 20 4 1162.52 69.18
0 -20 4 840.62 56.41
0 -20 4 1197.84 70.85
0 -20 -4 1223.62 76.07
0 21 4 -2.44 3.86
0 -21 4 -1.75 2.96
0 21 4 1.22 3.57
0 21 -4 3.79 4.53
0 -21 4 -1.36 3.99
0 -21 -4 -1.67 3.46
0 22 4 591.87 49.82
0 22 4 688.7 51.83
0 22 -4 521.45 55.1
0 -22 4 800.53 55.15
0 -22 -4 761.38 57.66
0 23 4 1.23 2.55
0 23 4 -1.24 3.33
0 23 -4 -1.99 4.76
0 -23 -4 -1.72 3.56
0 -23 4 1.46 3.02
0 24 4 18.48 6.82
0 24 4 14.94 6.03
0 24 -4 20.2 8.42
0 -24 4 22.24 7.59
0 -24 -4 17.39 7.27
0 0 -5 1.65 1.74
0 0 5 0.54 1.3
0 0 5 1.17 0.79
0 0 -5 0.6 1.24
0 0 5 0.53 1.1
0 1 -5 -0.57 1.17
0 1 5 2.14 1.69
0 -1 5 1.12 1.34
0 -1 5 2.54 1.69
0 -1 -5 0.54 1.58
0 -1 -5 0.61 1.46
0 1 -5 1.8 1.76
0 -1 5 0.78 0.83
0 -1 5 3.21 1.81
0 1 5 0.45 0.66
0 1 5 1.59 1.42
0 1 5 -0.27 0.78
0 -2 -5 368.1 25.69
0 2 -5 376.81 27.39
0 -2 -5 397.49 27.92
0 2 -5 421.31 28.72
0 2 5 403.66 27.88
0 -2 5 421.29 29.08
0 2 5 358.22 23.68
0 2 -5 371.21 28.05
0 -2 5 411.92 25.18
0 -2 5 416.11 27.97
0 -2 -5 385.76 28.56
0 2 5 418.33 27.88
0 2 5 378.54 25.07
0 -3 -5 0.8 0.96
0 -3 -5 1.65 1.31
0 3 5 1.09 1.31
0 -3 5 2.58 1.89
0 3 -5 0.54 1.57
0 -3 5 1.43 1.21
0 3 -5 1.23 1.48
0 -3 -5 0.66 1.57
0 3 5 1.07 1.44
0 3 -5 0.8 0.61
0 3 5 1.13 1
0 3 -5 0.92 0.97
0 4 5 1.14 1.19
0 -4 -5 2.18 1.61
0 -4 -5 4.76 1.94
0 4 -5 2.81 1.65
0 -4 5 4.73 2.29
0 4 -5 5.12 2.3
0 4 5 4.99 2.1
0 -4 -5 2.55 2.03
0 4 -5 3.23 1.1
0 4 -5 3.29 1.3
0 4 5 2.69 1.52
0 -5 5 -0.65 1.34
0 -5 -5 0.47 1.13
0 5 -5 0.6 1.43
0 5 -5 1.36 1.41
0 5 5 1.15 1.37
0 5 -5 1.22 1.03
0 5 5 1.63 1.59
0 5 -5 -0.24 0.51
0 -6 -5 104.3 10.65
0 6 -5 94.53 11.11
0 -6 5 106.01 11.42
0 6 5 128.75 12.52
0 6 5 113.1 11.33
0 -6 -5 84.3 6.61
0 6 -5 97.19 11.6
0 6 -5 96.34 8.44
0 6 -5 94.97 8.56
0 -7 5 1.55 1.64
0 7 -5 0.7 1.67
0 -7 -5 -0.62 1.48
0 7 -5 1.38 2.02
0 -7 5 1.34 1.8
0 7 5 0.69 2.01
0 7 -5 -0.79 1.63
0 -7 -5 0.77 0.61
0 7 5 1.27 1.69
0 7 -5 2.42 1.55
0 -8 5 946.09 55.41
0 -8 -5 844.08 54.83
0 -8 5 897.68 57.07
0 8 -5 957.68 57.87
0 8 -5 933.67 58.49
0 8 5 1013.35 58.11
0 -8 -5 940.52 57.53
0 8 -5 922.66 59.01
0 -8 -5 765.99 50.42
0 8 5 967.92 57.51
0 8 -5 873.22 53.04
0 -9 5 0.56 1.49
0 -9 -5 -0.62 1.04
0 9 -5 -1.43 1.71
0 -9 -5 -0.81 1.94
0 9 5 1.49 1.54
0 9 -5 0.84 1.74
0 9 5 0.65 1.73
0 9 -5 1.58 1.88
0 -9 5 0.74 1.52
0 9 5 2.17 1.93
0 -9 -5 0.28 0.74
0 9 -5 -0.92 1.91
0 9 -5 0.45 1.19
0 -10 5 25.28 5.11
0 -10 -5 31.68 5.92
0 10 -5 21.47 7.69
0 -10 -5 23.97 6.29
0 10 -5 36.12 7.64
0 -10 5 27.43 5.94
0 10 5 22.74 5.3
0 10 -5 24.66 5.92
0 10 5 25.65 5.97
0 10 -5 29.24 6.96
0 -10 -5 21.64 3.68
0 10 5 20.98 5.44
0 -10 -5 31.03 7.24
0 10 -5 28.17 5.05
0 -11 -5 1.51 1.57
0 -11 5 1.88 1.98
0 -11 5 0.85 2.02
0 11 5 -0.83 1.4
0 11 5 1.63 1.69
0 11 5 0.84 2.01
0 -11 -5 -0.41 1.49
0 11 -5 1.1 2.29
0 11 -5 0.58 1.56
0 -11 5 0.6 1.01
0 -11 -5 -1.12 1.34
0 -12 -5 2.53 2.02
0 -12 5 1.84 2.46
0 12 5 3.69 2.92
0 12 5 3.46 2.53
0 12 -5 1.18 2.44
0 12 5 2.74 2.68
0 12 -5 -0.65 2.07
0 -12 5 6.07 2.79
0 -12 -5 2.4 3.21
0 -13 -5 0.95 1.96
0 -13 5 -2.01 2.69
0 13 5 -1.02 2.44
0 13 5 0.91 1.08
0 13 -5 1.28 1.53
0 -13 5 -0.75 1.55
0 13 -5 0.72 1.92
0 -13 -5 3.84 3.42
0 -14 -5 2.11 2.82
0 14 5 2.89 2.58
0 -14 5 3.29 2.94
0 14 5 5.61 3.8
0 14 -5 6.88 4.36
0 -14 -5 -1.35 4.58
0 14 -5 7.01 3.61
0 -14 5 4.14 2.63
0 -15 -5 -1.16 2.77
0 15 -5 2.19 2.62
0 15 5 -1.01 2.09
0 -15 -5 -0.98 1.65
0 15 -5 -0.96 2
0 15 -5 2.96 3.96
0 -15 5 -0.9 2.41
0 15 -5 -0.83 1.99
0 -15 -5 1.43 1.7
0 -16 -5 497.38 46.68
0 16 -5 487.42 46.13
0 -16 -5 362.31 36.37
0 16 5 474.84 37.05
0 16 -5 446.27 35.2
0 -16 -5 498.23 36.25
0 16 -5 437.97 41.76
0 -16 -5 441.44 40.25
0 -16 5 484.46 36.68
0 16 -5 412.81 34.65
0 -17 -5 1.3 3.12
0 17 -5 -1.81 2.17
0 -17 -5 3.71 3.84
0 -17 5 1.01 2.41
0 17 5 -1.11 3.26
0 17 -5 -0.83 2.22
0 17 -5 -1.67 3.99
0 -17 -5 -0.86 1.77
0 -17 5 -1.06 2.53
0 -17 -5 -3.11 5.26
0 -18 -5 374.61 35.72
0 18 -5 307.64 33.21
0 -18 -5 238.65 29.45
0 18 5 382.08 31.37
0 -18 5 287.72 27.41
0 18 -5 299.26 25.45
0 -18 -5 339.48 26.65
0 -18 5 388.79 31.4
0 -19 -5 1.36 3.99
0 -19 -5 -1.46 3.03
0 19 5 -1.24 3.62
0 19 5 1.18 3.16
0 -19 5 1 2.67
0 19 -5 -0.65 1.55
0 -19 5 -1.21 2.04
0 -20 5 134.79 16.84
0 20 5 173.03 20.06
0 20 5 152.82 19.56
0 -20 -5 126.81 19.61
0 -20 -5 155.52 18.98
0 -20 5 190.96 20.98
0 21 5 -1.23 2.54
0 -21 5 -0.95 2.27
0 21 5 1.3 2.68
0 -21 5 1.32 2.73
0 22 5 12.37 5.37
0 22 5 7.89 5.01
0 -22 5 15.16 6.41
0 23 5 3.97 3.88
0 23 5 -1.24 2.56
0 23 -5 -2.11 5.04
0 -23 5 -2.83 4.48
0 0 6 25.46 5.55
0 0 6 29.78 5.71
0 0 -6 29.99 5.68
0 0 6 24.99 3.62
0 0 -6 21.97 5.07
0 0 6 22.74 4.97
0 -1 -6 0.64 1.09
0 1 6 -0.65 1.09
0 -1 -6 -0.44 0.9
0 -1 6 0.76 1.29
0 1 -6 -0.67 1.39
0 -1 -6 2.22 1.98
0 1 -6 2.19 2.14
0 1 6 0.63 1.51
0 -1 6 0.61 1.04
0 1 6 0.27 0.84
0 -1 6 0.64 1.32
0 1 6 0.27 0.84
0 2 -6 265.53 21.02
0 2 6 244.27 20.13
0 -2 -6 221.54 17.5
0 -2 6 252.41 21.37
0 -2 -6 218.44 19.51
0 -2 6 244.95 17.02
0 2 6 244.76 19.94
0 2 6 222.9 15.46
0 -2 -6 258.51 21.55
0 2 -6 214.1 19.98
0 -2 6 270.52 20.48
0 2 6 224.28 16.66
0 2 -6 224.76 16.9
0 -3 6 2.35 2.3
0 -3 -6 -0.65 2.33
0 -3 -6 0.45 1.8
0 3 -6 1.45 2.88
0 3 -6 0.64 2.96
0 3 6 1.3 2.8
0 3 -6 2.25 2.84
0 -3 6 2.55 2.95
0 -3 -6 0.79 2.12
0 -3 6 0.38 1.52
0 3 6 5.08 3.22
0 3 -6 2.48 1.9
0 3 6 0.39 1.69
0 4 -6 4372.56 239.2
0 -4 -6 4039.59 236.52
0 -4 -6 3966.28 234.03
0 4 -6 3914.93 236.25
0 -4 6 4745.79 240.14
0 4 6 4172.69 236.89
0 -4 -6 4530.02 239.32
0 -4 6 4713.28 237.81
0 -4 6 4091.69 233.94
0 4 -6 3833.48 237.38
0 4 6 4377.6 237.04
0 4 6 4255.96 234.22
0 4 -6 4016.4 232.39
0 5 6 4.79 3.83
0 5 -6 1.37 3.56
0 -5 6 -0.8 3.17
0 -5 -6 0.51 2.6
0 -5 -6 4.64 3.7
0 5 -6 0.8 3.16
0 -5 6 1.56 2.49
0 -5 6 4.69 3.4
0 5 6 1.99 3.17
0 5 -6 3.1 2.26
0 5 -6 1.99 1.3
0 5 6 -0.54 2.4
0 -6 -6 2698.06 154.24
0 6 6 2721.76 156.38
0 6 -6 2694.36 156.27
0 -6 6 3002.23 157.98
0 -6 6 3255.23 158.24
0 6 -6 2808.15 157.88
0 6 6 2975.49 156.46
0 6 -6 2604.24 151.1
0 6 6 2777.84 155.11
0 6 -6 2374.07 149.37
0 7 6 0.74 2.35
0 -7 -6 1.28 2.17
0 7 -6 -0.77 2.06
0 -7 6 -0.79 2.11
0 7 6 3.58 2.84
0 7 -6 0.9 2.14
0 7 -6 0.31 1.1
0 7 6 1.47 2.16
0 7 -6 0.74 1.4
0 -8 6 693.75 48.73
0 -8 -6 724.18 48.36
0 8 6 749.4 48.78
0 8 -6 736.12 50.84
0 8 -6 647.52 43.83
0 8 -6 664.04 43.45
0 8 6 827.62 50.87
0 -9 -6 0.64 1.08
0 -9 6 0.84 1.42
0 -9 -6 0.82 2.2
0 9 6 0.87 1.79
0 9 6 1.57 1.88
0 9 -6 1.03 1.23
0 -9 -6 -0.28 0.6
0 9 -6 0.46 0.96
0 9 6 -0.98 1.66
0 9 -6 0.44 1.06
0 -10 -6 21.17 4.83
0 -10 6 20 5.57
0 10 6 18.84 5.32
0 -10 -6 9.29 4.66
0 -10 -6 12.43 2.15
0 10 -6 14.42 5.37
0 10 -6 21.05 4.24
0 -10 -6 25.75 6.75
0 -11 -6 -0.74 1.25
0 -11 6 0.93 2.22
0 11 6 -0.93 2.72
0 11 -6 -1.19 2.02
0 -11 -6 -0.25 0.88
0 -11 -6 -1.2 2.03
0 11 -6 0.56 2.03
0 -12 -6 272.23 24.93
0 -12 6 296.44 27.67
0 12 6 370.27 28.71
0 12 -6 335.48 31.09
0 -12 -6 295.77 20.65
0 -12 -6 358.38 31.41
0 12 -6 312.4 24.35
0 -13 -6 -0.89 2.81
0 13 6 0.95 3.01
0 -13 6 1.05 3.08
0 13 6 4.98 3.95
0 13 -6 4.16 3.71
0 -13 -6 1.98 1.71
0 -13 -6 1.36 3.25
0 13 -6 -3.48 2.76
0 -14 -6 2064.71 140.61
0 14 6 2642.06 144.34
0 -14 6 2045.87 142.7
0 14 6 2690.73 144.31
0 -14 -6 2328 135.19
0 14 -6 2636.27 151.06
0 -14 -6 2488.49 148.87
0 -15 -6 1.07 3.13
0 15 6 6.43 4.25
0 -15 6 4.94 4.43
0 -15 -6 1.22 3.57
0 15 -6 -1.6 3.82
0 15 -6 -1.21 2.91
0 -15 -6 0.55 1.85
0 15 -6 0.8 2.55
0 -15 -6 1.5 4.01
0 -16 -6 1252.23 104.46
0 -16 -6 1179.44 88.44
0 16 -6 1157.95 102.57
0 16 6 1618.88 91.57
0 -16 -6 1336.63 83.45
0 16 -6 1397.66 90.34
0 -16 -6 1515.14 92.51
0 16 -6 1519.17 99.18
0 -16 -6 1528.38 96.62
0 -17 -6 -1.19 3.5
0 17 -6 -2.33 2.79
0 -17 -6 -2.39 2.85
0 17 6 -1.14 2.72
0 -17 -6 2.15 2.87
0 17 -6 1.82 3.76
0 17 -6 1.06 2.2
0 -17 -6 -1.62 3.88
0 -17 6 -1.98 3.35
0 -18 -6 306.42 37.46
0 -18 -6 265.3 30.02
0 18 6 342.24 30.95
0 -18 6 307.23 29.55
0 18 -6 351.52 29.41
0 18 -6 306.75 35.92
0 -18 -6 413.96 37.69
0 -18 6 391.78 31.31
0 -19 -6 -1.99 2.38
0 -19 -6 1.25 3.35
0 19 6 1.19 2
0 -19 6 1.11 1.88
0 19 -6 0.9 1.51
0 19 -6 4.03 4.81
0 -19 6 1.14 2.36
0 -19 -6 3.45 4.12
0 -20 6 27.19 7.6
0 20 6 46.74 9.91
0 -20 -6 21.58 7.83
0 -20 -6 58.19 12.8
0 -20 6 48.13 10.25
0 -21 6 -1.05 2.81
0 21 6 -1.2 2.49
0 21 6 2.78 3.72
0 -21 -6 -1.79 4.27
0 0 7 -0.9 1.86
0 0 -7 -0.87 2.08
0 0 7 -0.32 1.03
0 1 7 0.77 1.83
0 -1 7 0.9 1.85
0 1 7 0.91 2.43
0 -1 -7 1.46 1.42
0 -1 7 1.07 1.12
0 -1 -7 0.88 1.82
0 1 -7 0.87 1.04
0 1 7 -0.87 1.3
0 -2 -7 297.59 22.18
0 2 7 346.7 25.98
0 -2 7 342.11 27.26
0 2 -7 288.35 25.64
0 -2 7 285.35 21.02
0 -2 -7 325.12 26.69
0 2 -7 315.66 21.71
0 2 7 294.06 20.33
0 -3 -7 0.49 1.02
0 3 7 2.27 2.21
0 -3 7 -1.84 2.46
0 3 -7 1.78 2.38
0 -3 -7 1.82 1.88
0 -3 7 -0.42 1.33
0 3 -7 -0.39 1.41
0 3 7 -0.39 1.04
0 -4 -7 161.7 14.78
0 4 -7 185.72 17.45
0 -4 7 239.38 20.91
0 -4 -7 181.65 17.28
0 4 7 173.13 17.15
0 -4 -7 196.71 18.89
0 -4 7 173.81 14.81
0 4 -7 203.4 19.26
0 4 7 159.89 14.34
0 4 -7 166.12 13.73
0 5 7 0.78 1.62
0 -5 7 1.86 2.95
0 -5 -7 1.64 1.85
0 5 -7 -0.94 1.58
0 -5 7 0.53 1.54
0 -5 -7 -0.9 1.52
0 5 -7 0.75 1.19
0 5 7 0.53 1.43
0 -6 7 60.45 9.73
0 -6 -7 50.55 7.38
0 6 7 48.83 8.23
0 -6 7 46.98 7.28
0 6 -7 59.1 9.72
0 6 -7 47.51 6.04
0 6 7 45.54 7.15
0 -7 -7 0.68 1.4
0 7 7 0.83 1.72
0 -7 7 0.91 1.53
0 7 -7 3.04 2.43
0 -7 7 -0.68 1.15
0 7 -7 -0.17 0.69
0 7 -7 -0.39 1.32
0 7 7 2.12 1.89
0 8 7 15.86 2.04
0 -8 -7 20.51 5.28
0 8 7 13.98 4.74
0 -8 7 15.7 5
0 8 -7 13.91 4.85
0 8 -7 15.26 3.44
0 8 -7 11.83 2.37
0 8 7 16.94 4.89
0 -9 -7 0.67 1.6
0 -9 -7 -0.85 2.27
0 9 7 3.66 2.68
0 -9 7 2.9 3.06
0 9 -7 1.14 1.93
0 9 -7 0.45 1.21
0 9 7 -0.92 1.91
0 9 -7 1 1.06
0 -10 -7 2.8 2.06
0 -10 -7 8.56 4.1
0 10 -7 1.22 2.07
0 10 -7 7.51 2.54
0 10 -7 0.42 1.13
0 -10 -7 9.78 4.85
0 10 7 1.05 2.17
0 -11 -7 -0.73 1.51
0 -11 7 -1.02 2.11
0 11 -7 2.62 3.13
0 11 -7 0.51 1.37
0 11 7 1.18 1.99
0 -11 -7 5.2 4.11
0 11 -7 0.56 1.34
0 -12 -7 685.75 48.59
0 -12 7 711.86 52.12
0 12 -7 795.12 56.97
0 12 7 842.22 57.15
0 -12 -7 775.75 56.11
0 12 -7 664.17 46.74
0 12 -7 696.6 46.64
0 -13 -7 0.84 1.74
0 13 7 2.22 2.66
0 -13 7 1.14 3.05
0 -13 -7 -0.34 0.65
0 13 -7 4.5 4.01
0 -13 -7 1.45 2.45
0 13 7 -1.46 3.02
0 13 -7 0.68 1.82
0 -14 -7 124.03 14.63
0 14 7 151.28 17.28
0 -14 7 117.59 16.04
0 -14 -7 73.79 7.29
0 14 -7 174.3 21.61
0 14 -7 104.07 12.76
0 14 7 172.85 21.88
0 -14 -7 159.32 19.93
0 -15 -7 -0.99 1.67
0 15 7 3.48 3.93
0 -15 7 -1.3 2.7
0 15 -7 -1.7 4.55
0 15 -7 1.47 3.03
0 -15 -7 -1.46 3.02
0 15 7 -1.74 3.61
0 -15 -7 -1.58 3.27
0 -16 -7 43.61 14.58
0 -16 -7 21.99 7.5
0 16 -7 76.93 19.58
0 16 7 46.16 9.52
0 16 -7 38.44 9.8
0 16 -7 25.33 9.67
0 -16 -7 53.25 11.16
0 -16 -7 49.21 11.8
0 16 7 54.49 13.08
0 -17 -7 1.08 2.58
0 -17 -7 2.89 5.98
0 17 -7 -2.84 4.8
0 17 7 1.21 2.89
0 -17 -7 -1.3 2.69
0 17 -7 -1.91 4.57
0 17 -7 1.28 2.65
0 -17 -7 -1.69 3.51
0 -18 -7 -2.67 4.52
0 18 7 1.22 2.93
0 18 -7 4.02 4.17
0 18 -7 1.2 2.88
0 -18 -7 6.97 4.66
0 -19 -7 -2.46 5.09
0 -19 7 -1.24 2.96
0 19 7 3.69 2.94
0 19 -7 2.11 4.36
0 19 -7 2.22 2.66
0 -19 -7 3.57 3.69
0 -20 7 87.19 14.33
0 20 7 79.9 14.29
0 20 -7 92.2 20.1
0 -20 -7 123.48 19.57
0 0 -8 2857.93 165.39
0 0 8 3170.84 172.94
0 0 8 2815.2 162.9
0 0 -8 3054.53 172.24
0 -1 8 18.44 6.73
0 1 8 21.68 6.89
0 -1 -8 12.96 4.15
0 1 -8 13.13 5.82
0 -1 -8 19.4 6.93
0 -1 8 5.02 2.24
0 1 -8 13.61 3.55
0 2 8 989.69 60.56
0 -2 -8 902.67 55.06
0 -2 8 963.37 61.97
0 2 8 895.37 61.23
0 -2 -8 970.58 62.25
0 -2 8 788.54 53.28
0 2 -8 883.91 60.6
0 2 -8 880.85 53.99
0 3 8 4.38 3.92
0 -3 -8 5.72 2.49
0 -3 8 4.24 3.59
0 -3 8 2.3 1.66
0 3 -8 7.16 4.06
0 -3 -8 3.12 3.05
0 3 -8 0.85 1.62
0 3 8 2.26 1.5
0 -4 8 482.14 35.92
0 4 8 431.5 32.37
0 -4 -8 423.78 28.79
0 -4 -8 428.35 33.91
0 4 -8 363.18 32.46
0 -4 8 363.73 27.72
0 4 8 389.67 27.05
0 4 -8 416.7 27.2
0 -5 -8 2.3 2.38
0 5 8 -0.88 2.36
0 -5 8 -1.02 2.12
0 -5 -8 2.06 2.46
0 -5 8 -0.56 1.65
0 5 -8 -1.08 3.16
0 5 -8 0.41 1.19
0 5 8 0.51 1.21
0 -6 -8 172.01 16.16
0 -6 8 189.21 19.53
0 6 8 181.4 18.3
0 6 -8 169.51 19.39
0 -6 8 163.23 15.61
0 6 8 156.7 15.07
0 6 -8 181.53 14.04
0 -7 -8 0.71 2.4
0 -7 8 2.05 2.75
0 7 8 0.92 1.91
0 7 -8 -1.16 2.77
0 -7 8 -0.69 2.18
0 7 -8 0.4 1.74
0 7 8 -0.68 2.14
0 8 8 948.09 56.65
0 -8 8 1068.88 68.07
0 8 8 1077.63 66.98
0 -8 -8 983.27 64.88
0 8 -8 1048.81 69.84
0 -8 8 1068.55 64.83
0 8 8 1001.66 63.99
0 8 -8 996.82 59.89
0 -9 -8 0.7 2.36
0 -9 -8 -0.88 3.78
0 9 8 0.98 2.35
0 -9 8 -1.08 2.58
0 -9 8 -0.85 3.05
0 9 -8 -1.27 4.29
0 9 -8 0.46 2.14
0 9 8 -0.88 2.56
0 -9 -8 -1.27 4.01
0 -10 -8 1388.2 70.51
0 -10 8 1509.5 77.22
0 10 8 1492.85 76.46
0 10 -8 1477.23 80.44
0 -10 8 1629.81 76.72
0 -10 -8 1574.21 81.87
0 10 8 1478.3 75.4
0 10 -8 1286.53 66.93
0 -11 -8 1.44 2.73
0 11 8 -1.08 2.89
0 -11 8 1.13 3.03
0 11 -8 1.42 2.93
0 -11 8 1.03 3.02
0 -11 -8 2.83 3.78
0 11 8 -1.1 2.27
0 -12 -8 458.15 37.32
0 -12 8 496.95 42.04
0 12 8 575.04 43.03
0 -12 8 657.44 44.67
0 12 -8 516.28 45.44
0 12 8 575.61 43.76
0 -12 -8 532.58 45.5
0 -13 -8 -0.79 1.89
0 13 8 -1.2 3.2
0 -13 8 -1.24 3.64
0 13 -8 -1.6 2.71
0 -13 -8 -1.55 3.71
0 13 8 1.36 3.25
0 -14 -8 35.36 7.59
0 -14 8 32.79 10.02
0 14 -8 64.94 13.81
0 -14 -8 79.02 14.54
0 14 8 88.13 14.53
0 15 -8 -3.87 6.54
0 -15 8 1.39 3.33
0 15 -8 -1.81 3.06
0 -15 -8 -1.69 4.53
0 15 -8 -1.71 4.58
0 15 8 1.63 3.38
0 -15 -8 1.67 3.46
0 -16 -8 25.23 13.01
0 16 -8 17.91 11.42
0 -16 8 23.61 8.76
0 16 -8 26.92 9.59
0 -16 -8 36.7 10.2
0 16 -8 17.61 7.79
0 16 8 28.28 9.56
0 -16 -8 46.43 11.54
0 -17 -8 3.35 4.01
0 17 -8 1.5 2.53
0 17 -8 -2.03 5.41
0 -17 -8 -1.76 4.22
0 17 8 -1.9 4.54
0 -18 -8 460.84 55.8
0 18 -8 505.2 43.85
0 18 -8 503.6 51.62
0 18 8 569.42 52.38
0 -18 -8 571.29 49.18
0 0 -9 -1.09 1.46
0 0 9 1.15 2.75
0 0 -9 1.16 1.96
0 0 -9 6.23 2.56
0 -1 -9 0.53 1.28
0 1 9 3.47 3.09
0 1 -9 -0.57 1.79
0 -1 9 1.16 2.77
0 1 -9 1.15 1.94
0 -1 -9 -1.16 1.39
0 -1 9 0.39 1.03
0 1 -9 0.5 1.33
0 2 -9 217.59 18.17
0 -2 -9 212.44 17.49
0 2 9 213.81 22.55
0 -2 9 252.5 24.23
0 -2 9 201.09 16.52
0 -2 -9 223.67 23.01
0 2 -9 233.91 23.28
0 2 -9 209.96 16.83
0 -3 -9 2.11 1.78
0 3 9 1.19 3.49
0 -3 9 1.2 2.04
0 3 9 -1 2.38
0 -3 -9 2.3 2.38
0 3 -9 3.53 3.44
0 -3 9 0.99 1.56
0 3 -9 -0.45 1.6
0 -4 9 -1.17 3.43
0 4 9 2.97 2.37
0 -4 -9 0.56 1.5
0 -4 9 0.54 1.29
0 -4 -9 -1.14 2.36
0 4 -9 -1.18 2.45
0 4 -9 0.86 1.54
0 5 9 -0.99 2.06
0 -5 9 -1.15 2.75
0 -5 -9 0.6 1.44
0 5 -9 4.87 3.26
0 -5 9 0.59 1.01
0 6 9 95.62 12.85
0 -6 9 76.76 12.37
0 -6 -9 89.01 10.55
0 -6 9 91.74 10.59
0 6 -9 71.85 12.76
0 -7 9 1.15 3.89
0 -7 -9 1.45 2.75
0 7 9 1.01 2.09
0 7 -9 -1.31 2.21
0 -7 9 0.71 1.89
0 -8 -9 577.48 36.97
0 -8 9 546.9 39.85
0 8 9 559.06 38.47
0 8 -9 526.57 41.14
0 -8 9 502.34 34.99
0 -8 -9 565.46 42.1
0 -9 -9 -0.71 2.4
0 9 9 -1.06 1.8
0 -9 9 1.2 3.2
0 -9 9 0.86 1.77
0 9 -9 4.25 4.15
0 -9 -9 1.41 4.12
0 -10 -9 14.02 4.07
0 -10 9 5.98 4.34
0 10 9 9.88 4.59
0 -10 9 11.16 4.35
0 10 -9 17.81 7.12
0 -10 -9 14.75 6.39
0 -11 -9 0.7 1.44
0 11 9 1.14 2.35
0 -11 9 2.48 2.57
0 11 -9 3.12 3.23
0 -11 9 -1.01 2.09
0 -11 -9 -1.54 3.68
0 -12 9 7.68 4.06
0 12 9 2.36 2.46
0 12 -9 13.1 6.5
0 -12 9 12.13 4.94
0 -12 -9 4.81 4.29
0 -13 9 4.03 3.59
0 13 9 -1.24 3.91
0 13 -9 3.45 3.57
0 -13 9 1.18 3.16
0 -13 -9 -1.66 1.98
0 14 -9 9.43 7.97
0 14 9 2.57 3.44
0 -14 9 2.81 4.12
0 -14 -9 4.05 4.2
0 14 -9 4.16 5.57
0 14 -9 1.82 3.77
0 -14 9 3.82 3.4
0 -14 -9 1.71 4.09
0 15 -9 13.09 10.44
0 -15 -9 4.35 7.35
0 -15 9 1.48 3.96
0 15 9 1.35 2.79
0 -15 -9 -1.9 4.54
0 15 -9 -3.87 5.67
0 -15 9 4.03 3.59
0 15 -9 1.91 3.97
0 -15 -9 1.76 4.2
0 0 -10 94.77 14.7
0 0 10 98.48 14.99
0 0 -10 106.23 10.74
0 -1 -10 1.29 3.09
0 1 -10 3.89 4.11
0 1 -10 0.55 1.61
0 -1 -10 -0.51 1.62
0 -1 10 1.29 1.55
0 1 10 6.39 4.32
0 2 -10 151.79 14.78
0 -2 10 225.7 23.08
0 2 10 171.41 20.42
0 2 -10 169.36 20.42
0 -2 -10 166.3 20.06
0 3 -10 3.09 2.79
0 3 10 7.83 4.43
0 -3 10 9.5 6.08
0 -3 -10 5 4.49
0 3 -10 10.56 6.12
0 -4 10 1518.75 95.22
0 4 10 1385.3 94.5
0 -4 -10 1519.12 95.25
0 4 -10 1378.94 94.64
0 -5 10 -1.24 4.46
0 5 -10 6.81 5.41
0 6 10 1100.08 69.73
0 -6 10 949.63 69.45
0 6 -10 997.9 71.71
0 -7 10 4.97 4.7
0 7 10 2.22 3.75
0 7 -10 -1.44 3.86
0 -7 -10 2.87 7.07
0 -8 10 387.18 36.8
0 8 10 490.37 36.88
0 8 -10 431.77 39.35
0 -8 -10 398.29 38.54
0 -9 10 2.56 3.74
0 9 10 -1.14 3.33
0 9 -10 1.56 2.65
0 -10 10 46.91 10.52
0 10 10 37.02 9.42
0 10 -10 52.14 11.96
0 -10 -10 56.63 12.79
0 -11 10 1.34 2.27
0 11 10 -1.19 2.84
0 11 -10 -1.7 4.98
0 -11 -10 5.02 4.9
0 0 11 2.82 3.38
0 0 -11 4.26 4.49
0 -1 11 2.86 4.19
0 1 11 1.41 3.77
0 -1 -11 -1.39 3.32
0 1 -11 8.79 5.54
0 2 11 387.4 35.2
0 -2 11 409.98 36.45
0 2 -11 378.08 35.44
0 -2 -11 358.77 34.21
0 -3 11 1.34 3.2
0 3 -11 1.47 4.29
0 -3 -11 6.8 4.6
0 -4 11 176.22 21.5
0 4 11 185.06 22.75
0 4 -11 179.37 22.74
0 -4 -11 237.88 25.4
-1 0 0 -0.27 0.84
-1 0 0 0.68 0.61
1 0 0 0.25 0.51
-1 0 0 -0.44 0.74
1 0 0 0.21 0.43
-1 0 0 -0.09 0.34
-1 0 0 -0.19 0.46
1 0 0 1.18 2
-1 0 0 -0.14 0.38
-1 0 0 0.47 0.62
1 0 0 1.7 1.51
1 0 0 0.48 0.57
-1 0 0 1.13 3.03
-1 0 0 -0.54 1.82
-1 1 0 28.98 4.34
-1 -1 0 26.2 3.36
-1 -1 0 29.29 3.07
1 -1 0 21.29 3.14
-1 1 0 23.44 3.17
-1 -1 0 25.42 3.54
1 1 0 28.36 4.76
-1 1 0 26.19 4.05
-1 -1 0 26.39 2.74
-1 -1 0 31 2.64
-1 -1 0 28.41 2.27
-1 1 0 28.9 3.13
1 -1 0 26.67 3.16
-1 -1 0 26.68 3.39
-1 -1 0 26.32 4.91
-1 -1 0 26.66 3.47
-1 -1 0 25.04 7.1
1 1 0 27.54 3.5
1 1 0 28.14 5.12
1 -1 0 24.83 4.86
-1 1 0 26.93 7
-1 1 0 36.73 5.68
-1 1 0 29.24 3.1
1 -1 0 15.46 5.88
1 1 0 24.55 6.73
-1 1 0 30.65 3.72
-1 2 0 0.21 0.51
-1 -2 0 0.33 0.78
-1 2 0 0.46 1.46
1 -2 0 0.25 0.61
-1 -2 0 0.26 0.38
1 2 0 -0.58 1.7
-1 -2 0 -0.27 0.55
-1 -2 0 0.09 0.31
-1 -2 0 0.61 1.47
-1 -2 0 -0.29 0.6
-1 -2 0 0.3 0.27
-1 2 0 0.15 0.31
-1 2 0 0.38 0.6
1 -2 0 0.56 1.17
-1 -2 0 -0.53 1.1
1 2 0 1.15 2.75
-1 2 0 1.1 2.29
1 -2 0 0.41 0.6
1 2 0 -0.26 0.53
-1 -2 0 0.24 0.58
-1 3 0 4869.19 259.12
-1 3 0 4566.19 249.24
1 -3 0 3896.99 245.19
-1 -3 0 3910.9 247.12
1 -3 0 4243.16 248.54
1 3 0 4283.87 245.93
-1 -3 0 4536.63 251.19
1 3 0 4583.11 251.12
-1 -3 0 5196.17 245.55
1 3 0 4311.69 242.95
-1 -3 0 4543.89 246.2
-1 3 0 4629.76 256.64
1 3 0 4548.63 257.04
-1 -3 0 4422.94 248.7
1 -3 0 4558.68 245.41
1 3 0 4482.83 246.05
-1 3 0 4587.16 245.04
1 -3 0 4651.2 249.51
-1 -4 0 2.28 3.34
-1 4 0 2.33 2.78
1 4 0 2.52 1.81
-1 4 0 -0.64 2.53
1 -4 0 -1.23 2.95
-1 -4 0 0.52 1.53
1 -4 0 2.91 1.68
-1 -4 0 -0.78 2.07
1 4 0 2.4 1.92
-1 -4 0 1.93 1.31
1 4 0 0.78 2.94
-1 -4 0 1.63 1.95
-1 4 0 4.53 2.71
-1 4 0 2.09 3.54
1 -4 0 2.18 2.06
-1 4 0 2.93 2.1
-1 -4 0 -1.09 2.61
1 -4 0 0.67 1.06
-1 4 0 3.33 1.54
-1 -4 0 3.02 2
1 4 0 1.08 2.58
-1 5 0 9767.93 500.31
1 5 0 9295.77 492.48
-1 5 0 8935.08 493.66
-1 -5 0 8814.32 492.26
1 5 0 8748.27 485.41
-1 -5 0 8763.89 498.22
1 -5 0 8758.26 493.14
-1 -5 0 8256.35 489.67
1 5 0 8353.04 495.08
1 5 0 9426.58 490.82
-1 -5 0 8421.43 497.47
-1 5 0 8849.58 491.04
1 -5 0 8987.08 499.24
-1 -5 0 9185.24 490.94
-1 5 0 9010.22 497.72
1 5 0 9198.39 498.09
1 5 0 9253.82 490.91
-1 -5 0 8724.42 490.17
-1 5 0 9354.27 490.43
-1 5 0 8904.55 488.99
1 -5 0 9072.01 490.99
1 -5 0 8339.25 489.19
-1 -6 0 0.76 2.03
-1 -6 0 1.03 2.47
-1 6 0 1.07 1.81
-1 6 0 2.38 2.84
1 6 0 2.99 2.53
1 6 0 0.42 1.01
1 6 0 0.94 3.38
1 6 0 1.77 1.87
-1 -6 0 2.88 2.18
-1 6 0 2.87 2.56
-1 6 0 2.11 1.99
-1 -6 0 2 2.92
-1 -6 0 0.98 1.75
1 6 0 1.94 1.54
1 -6 0 3.01 1.99
1 6 0 1.94 2.01
-1 6 0 0.44 1.65
-1 6 0 1.86 1.67
1 -6 0 2.06 1.63
-1 -6 0 1.81 1.53
1 -6 0 1.1 2.28
-1 7 0 3013.64 160.8
-1 -7 0 2516.84 157.52
-1 7 0 2807.65 157.33
1 7 0 2355.92 149.06
1 7 0 2764.62 157.37
-1 -7 0 2544.79 156.49
-1 7 0 2929.67 148.51
-1 -7 0 2562.24 154.33
1 7 0 2897.67 155.81
1 7 0 2684.94 159.33
-1 -7 0 2688.4 151.71
1 -7 0 2717.53 159.79
-1 -7 0 2573.66 157.39
-1 7 0 2724.69 152.37
1 7 0 2617.92 157.97
1 -7 0 2552.85 153.11
-1 7 0 3332.8 152.75
1 7 0 2707.06 151.96
-1 7 0 2683.06 153.15
-1 -7 0 2137.63 150.11
1 -7 0 2739.78 152.38
-1 8 0 0.94 1.95
1 8 0 1.86 1.54
1 8 0 0.99 2.64
-1 8 0 2.84 2.4
-1 -8 0 1.78 2.61
-1 8 0 1.05 1.13
1 8 0 1.07 1.81
1 8 0 1.62 2.37
-1 -8 0 2.37 2.31
-1 8 0 -0.46 0.96
-1 -8 0 0.41 1.21
1 -8 0 0.99 1.67
1 -8 0 -0.69 1.66
-1 8 0 -0.63 1.69
1 9 0 279.75 25.91
-1 -9 0 240.48 22.55
-1 9 0 299.3 24.23
-1 9 0 252.44 23.49
1 9 0 301.46 20.25
1 9 0 258.8 23.9
-1 -9 0 270.13 25.64
-1 9 0 293.15 18.83
-1 -9 0 251.15 23.53
1 9 0 280.53 26.24
-1 -9 0 240.21 18.58
-1 9 0 252.74 19.23
-1 9 0 285.54 22.93
1 -9 0 250.22 22.4
-1 -9 0 234.72 20.68
-1 10 0 0.73 0.87
-1 10 0 0.98 1.17
-1 -10 0 -1.41 2.07
1 10 0 0.51 1.05
1 10 0 -1.22 2.06
1 10 0 1.02 1.73
-1 -10 0 1.13 1.36
1 10 0 -1.17 2.79
-1 10 0 -0.36 0.86
-1 -10 0 1.26 1
-1 -10 0 -0.7 1.18
1 -10 0 -0.87 1.8
-1 10 0 -0.79 1.88
-1 -11 0 55.79 7.92
-1 11 0 53.26 7.8
-1 11 0 79.93 12.04
1 11 0 66.53 8.28
1 11 0 42.46 9.87
1 11 0 56.44 10.47
-1 -11 0 72.07 11.96
-1 -11 0 48.64 5.4
-1 -11 0 53.25 8.87
1 -11 0 74.4 10.95
1 12 0 1.23 2.94
1 12 0 1.43 3.41
-1 12 0 1.12 3.27
1 12 0 -0.62 2.47
-1 12 0 -1.21 2.05
-1 -12 0 0.86 2.07
1 -12 0 2.06 3.26
1 13 0 2815.32 173.2
-1 13 0 3375.86 173.93
1 13 0 2791.77 165.02
1 13 0 3170.64 177.73
-1 13 0 3234.67 175.15
1 -13 0 2763.1 170.49
-1 -13 0 2404.78 167.53
1 14 0 1.4 4.44
-1 14 0 4.73 4.9
1 14 0 1.6 4.69
-1 -14 0 -1.71 4.58
1 14 0 0.71 3.2
-1 14 0 1.38 3.68
1 -14 0 1.17 4.43
-1 -14 0 1.01 2.97
1 15 0 3066.25 178.7
-1 -15 0 2656.61 189.19
-1 15 0 3473.5 186.39
-1 15 0 3293.89 188.67
1 15 0 3343.78 191.8
1 -15 0 3062.67 184.55
-1 -15 0 2883.33 182.03
1 16 0 -0.79 3.52
-1 -16 0 -1.86 4.44
-1 16 0 1.24 3.92
-1 16 0 4.51 4.4
-1 -16 0 2.29 3.35
1 -16 0 -2.6 4.4
1 17 0 1356.51 87.74
-1 17 0 1658.41 99.48
-1 17 0 1407.09 93.33
1 -17 0 1381.55 94.14
-1 -17 0 1423.54 92.65
1 18 0 2.51 2.65
-1 18 0 -2.57 4.34
-1 -18 0 1.97 3.33
1 -18 0 -1.4 2.9
-1 -18 0 2.49 2.58
-1 -19 0 8.15 6.45
1 19 0 5.96 3.39
-1 19 0 11.66 6.01
-1 -19 0 3.87 3.46
1 -19 0 1.45 3.02
1 20 0 -0.87 2.32
-1 -20 0 -2.1 3.55
-1 20 0 3.91 4.12
1 -20 0 -1.49 3.57
-1 -20 0 -1.33 2.76
-1 21 0 3.92 4.44
1 21 0 6.15 3.8
1 -21 0 10.68 5.49
-1 -21 0 6.83 4.34
-1 22 0 -1.31 3.13
1 22 0 2.66 3
-1 -22 0 2.79 2.36
1 -22 0 -1.57 2.66
-1 23 0 642.63 50.3
1 23 0 597.89 45.69
-1 -23 0 739.43 53.17
1 -23 0 604.93 52.66
-1 24 0 -2.59 6.2
1 24 0 -2.67 4.26
1 -24 0 -4.95 6.84
-1 -24 0 -1.45 4.92
-1 25 0 993.7 74.12
-1 -25 0 1102.57 76.55
1 -25 0 1113.72 79.14
-1 0 1 0.24 0.58
-1 0 -1 3.36 0.89
-1 0 1 3.95 4.16
1 0 -1 -1.37 2.84
-1 0 1 0.13 0.38
-1 0 1 0.45 0.54
1 0 -1 0.65 1.35
-1 0 -1 0.87 0.43
-1 0 -1 0.4 0.68
-1 0 1 0.18 0.47
-1 0 1 0.19 0.5
1 0 1 0.7 0.62
-1 0 1 -0.62 1.47
-1 0 -1 0.28 0.47
-1 0 1 0.93 0.5
1 0 1 -0.29 0.7
-1 0 1 0.38 0.56
-1 -1 1 63.56 6.59
-1 -1 -1 66.78 5.59
1 1 -1 53.77 10.88
-1 1 -1 64.41 5.42
1 -1 -1 63.88 11.68
-1 1 1 59.3 11.35
1 -1 1 71.88 6.26
-1 -1 1 57.23 11.11
-1 -1 1 59.21 5.41
-1 -1 1 56.99 4.94
-1 -1 1 55.49 5.2
-1 -1 1 56.84 5.57
1 -1 1 49.21 5.11
-1 1 -1 56.29 5.07
-1 -1 -1 55.5 5.42
-1 1 1 57.44 4.71
-1 -1 1 57.86 4.99
1 -1 -1 60.11 8.22
-1 1 1 64.08 8.33
1 1 -1 56.82 8.07
-1 1 1 60.11 5.33
1 1 1 46.76 5.27
-1 -1 1 64.6 8.34
-1 -1 -1 51.82 5.6
1 -1 1 57.38 5.91
1 1 1 50.12 5.67
-1 1 1 69.26 5.18
-1 1 -1 56.76 5.84
-1 -1 1 58.33 5.07
-1 1 -1 53.77 5.13
-1 -1 1 52.42 3.96
1 2 -1 47.02 10.06
-1 -2 1 51.15 6.54
-1 -2 -1 40.78 5.04
-1 -2 -1 39.48 4.3
-1 2 1 47.08 10.28
-1 2 -1 44.97 4.94
-1 -2 1 41.68 4.57
-1 -2 1 43.92 4.57
-1 2 -1 46.24 3.82
1 2 1 47.94 7.53
-1 -2 1 45.07 4.4
-1 -2 1 48.35 7.15
-1 2 1 39.56 3.52
-1 2 -1 48.94 4.43
-1 -2 1 44.99 4.23
1 -2 1 36.75 4.24
-1 2 1 44.66 4.58
1 -2 -1 49.35 7.32
-1 2 -1 38.21 4.24
-1 2 1 43.2 4.7
-1 -2 -1 40.85 4.89
1 2 1 41.16 4.98
1 -2 1 40.53 4.49
-1 -2 1 41.98 4.27
-1 -3 -1 359.19 21.79
1 -3 -1 351.49 22.19
1 3 1 326.79 22.81
-1 -3 1 401.88 26.97
1 -3 1 359.39 23.38
1 3 -1 345.08 32.73
-1 3 -1 336.86 23.13
-1 3 1 368 32.77
-1 -3 1 333.88 21.75
-1 -3 -1 318.61 22.89
-1 -3 1 386.97 23.37
-1 3 -1 429.88 22.62
1 3 1 422.7 28.68
-1 -3 1 332.42 25.26
1 -3 -1 294.37 20.37
1 -3 -1 346.21 25.99
-1 -3 1 352.52 21.24
-1 3 -1 336.58 21.76
1 -3 1 320.05 21.96
-1 3 1 351.7 23.11
1 3 1 344.05 23.17
-1 4 1 55.22 5.54
-1 -4 -1 69.28 6.37
-1 4 1 64.82 12.23
-1 4 -1 77.12 8.22
1 -4 -1 62.27 6.38
-1 -4 1 56.05 10.76
1 -4 1 73.14 7.99
-1 -4 1 84.06 10.61
-1 -4 -1 68.23 7.67
1 4 -1 78.17 13.25
-1 -4 1 71.08 7.87
-1 -4 -1 57.64 7.06
-1 -4 1 71.79 6.81
1 4 1 63.21 9.78
1 4 1 69.8 7.63
-1 4 -1 66.6 7.27
-1 4 1 80.51 9.23
1 -4 -1 71.53 5.73
-1 -4 1 73.69 8.91
1 -4 1 79.38 7.01
-1 -4 1 73.86 6.28
1 -4 -1 69.61 9.13
-1 4 1 71.81 11.94
-1 -4 1 71.92 9.07
-1 4 1 82.68 8.33
-1 4 -1 71.32 6.64
1 -4 1 63.14 6.69
-1 4 1 68.94 8.64
1 4 1 73.14 7.9
1 -5 1 6.79 2.58
-1 5 1 6.82 2.17
1 5 -1 -0.81 1.7
-1 -5 1 3.42 2.74
1 -5 1 3.49 2.09
-1 -5 1 3.07 0.91
-1 -5 1 6.32 3.06
1 -5 -1 2.31 1.1
-1 5 -1 3.38 1.92
1 5 1 3.66 2.07
1 -5 -1 7.61 4.02
-1 5 1 10.82 4.77
1 5 -1 12.15 5.11
1 5 1 2.89 1.74
-1 -5 1 2.83 1.8
1 5 1 5.19 3.11
-1 -5 -1 6.1 2.18
-1 5 -1 3.01 1.9
-1 -5 1 5.81 1.83
-1 5 1 1.12 1.35
-1 -5 1 5.16 2.14
1 -5 -1 4.96 2.23
1 5 1 1.29 3.09
1 5 -1 5.16 2.45
1 -5 1 4.64 1.8
-1 5 1 5.67 2.45
-1 -5 1 3.65 2.07
-1 -5 1 3.72 3.32
-1 5 -1 4.78 1.71
-1 5 1 7.97 2.62
-1 5 1 3.39 2.71
-1 -6 1 309.55 29.89
1 -6 -1 250.02 22.33
-1 6 1 328.08 31.64
1 6 -1 369.04 30.14
1 -6 1 396.46 27.39
-1 -6 1 355.88 21.79
-1 6 -1 392.4 27.62
1 6 -1 445.4 35.34
-1 6 1 445.78 26.45
-1 -6 1 342.44 30.19
1 -6 -1 362.92 32.3
-1 -6 -1 340.46 25.54
-1 -6 1 289.5 23.65
1 6 1 405.52 30.85
1 6 1 383.28 26.55
-1 -6 1 381.86 27.98
-1 6 1 406.63 32.34
1 -6 -1 412.79 27.2
1 6 1 406.51 33.44
1 6 -1 357.74 24.07
-1 -6 1 368.53 32.52
-1 -6 1 340.05 25.53
1 -6 1 392.9 33.62
1 6 -1 360.2 26.81
1 -6 1 336.06 25.65
-1 6 1 342.62 25.6
-1 -6 1 367.16 26.54
1 6 1 425.07 27.49
-1 6 1 336.3 26.36
1 -6 1 366.54 24.92
1 -7 1 141.87 14.21
-1 -7 1 110.37 15.29
1 -7 -1 165.2 11.95
-1 7 1 113.66 13.4
-1 -7 1 132.2 10.34
-1 7 -1 128.06 14.16
1 -7 -1 129.76 17.13
1 7 -1 103.56 15.12
-1 7 1 128.42 16.89
-1 -7 1 136.36 17.36
1 7 -1 151.81 18.52
-1 7 1 134.5 13.6
1 7 1 166.66 17.37
-1 -7 -1 138.88 13.77
-1 -7 1 135.7 12.69
1 7 1 132.33 13.63
1 -7 -1 158.74 13.83
1 7 -1 163.96 13.08
-1 -7 1 112.41 11.85
-1 7 1 113.81 12.05
1 -7 1 111.04 16
-1 7 1 155.23 17.63
1 7 1 145.87 17.65
-1 -7 1 128.77 16.91
1 7 -1 153.18 13.94
1 -7 1 162.03 13.51
-1 7 1 130.64 14.06
-1 -7 1 130.73 12.21
1 -7 1 119.78 12.35
-1 7 1 137.82 12.8
1 7 1 149.48 13.37
-1 -7 1 133.14 13.02
1 8 1 396.79 30.4
-1 8 1 404.74 30.04
-1 -8 1 375.19 25.24
1 -8 1 376.13 29.65
1 8 -1 375.6 24.58
1 -8 -1 432.55 26.54
-1 -8 1 381.2 34.29
1 8 -1 404.79 34.46
1 -8 -1 353.64 32.49
1 8 -1 445.68 35.48
-1 -8 -1 316.81 28
-1 8 -1 466.16 32.34
1 8 1 420.17 33.12
1 8 1 394.78 29.84
-1 -8 1 322.33 29.77
-1 8 1 371.09 31.53
-1 -8 1 400.31 33.61
-1 -8 1 317.76 25.57
1 8 -1 425.08 28.3
1 8 1 388.24 32.48
1 -8 1 373.08 32.98
1 8 -1 452.22 28.76
1 -8 -1 411.74 27.89
1 -8 -1 377.57 30.05
-1 8 1 366.12 26.57
-1 8 1 369.03 29.48
1 8 1 366.26 26.85
-1 -8 1 354.02 27.07
1 -8 1 358.56 27.77
1 -8 1 431.88 27.44
-1 -8 1 416.79 27.8
-1 -9 -1 30.7 6.75
1 9 1 46.17 8.18
-1 9 -1 30.98 7.08
1 9 1 42.45 8.87
-1 -9 1 37.76 7.95
-1 9 1 42.41 7.88
1 9 1 32.19 5.13
1 9 -1 36.16 8.7
1 9 -1 39.45 5.06
-1 -9 1 40.61 5.69
-1 -9 1 43.61 9.73
1 -9 1 27.1 6.32
1 9 1 41.78 7.88
-1 9 -1 41.16 7.92
1 -9 -1 41.78 5.81
-1 9 1 43.98 8.09
1 -9 -1 31.14 7.03
-1 -9 1 39.41 8.31
1 -9 1 37.94 5.58
1 -9 1 36.57 8.07
-1 9 1 37.94 5.63
1 -9 1 39.75 7.04
1 9 1 39.42 5.82
-1 -9 1 32.06 6.14
-1 -9 1 37.83 5.82
-1 9 1 48.25 8.22
1 9 1 40.68 7.93
-1 -10 1 14.25 5.08
-1 -10 -1 16.76 5.04
1 10 1 14.3 4.63
1 10 1 16.99 5.8
-1 10 -1 25.85 6.62
-1 10 -1 19.86 5.93
-1 10 1 17.41 5.6
1 10 -1 12.3 2.96
1 10 1 14.76 3.6
-1 -10 1 18.33 4.08
-1 -10 -1 14.96 5.17
1 10 1 15.64 5.35
1 -10 1 14.13 4.67
-1 -10 1 16.55 6.53
1 -10 -1 14.59 3.66
1 10 -1 13.92 5.82
1 -10 1 11.12 3.88
-1 10 1 12.98 3.05
-1 -10 1 11.56 3.85
-1 10 1 15.7 4.7
1 10 1 13.24 4.27
1 -10 1 13.55 3.14
-1 -10 1 18.29 5.69
1 -10 1 10.6 4.07
1 10 1 12.82 3.04
-1 -10 1 14.37 3.3
-1 10 1 16.99 5.29
1 -10 -1 13.59 4.56
1 -11 1 189.5 19.14
-1 -11 1 194.18 23.83
-1 11 1 218.42 21.3
1 11 1 188.96 16.22
-1 -11 1 184.2 16.49
1 11 -1 143.29 14.28
1 11 1 184.7 20.47
1 11 -1 197.61 23.28
-1 -11 -1 151.08 19.3
-1 11 -1 182.64 20.1
-1 11 -1 174.57 17.81
-1 11 1 173.06 15.35
1 11 1 176.48 19.69
-1 -11 1 158.62 18.87
1 11 1 212.7 21.82
-1 11 -1 200.17 20.83
-1 11 1 208.59 18.14
1 -11 1 167.16 17.97
1 11 1 211.43 18.07
-1 -11 1 147.59 17.09
1 -11 1 175.28 18.38
1 11 1 181.02 14.27
-1 11 1 216.91 20.38
-1 -11 1 221.79 19.02
1 -11 -1 204.16 20.57
-1 -11 -1 155.77 16.94
1 -11 1 173.55 14.13
-1 11 1 186.23 14.07
-1 -11 1 183.04 14.23
-1 12 1 6.87 4.11
-1 12 -1 5.93 3.76
1 12 1 8.84 4.28
-1 12 -1 2.1 1.69
1 12 -1 9.42 4.97
-1 -12 -1 5 2.42
1 -12 1 2.97 3.35
1 12 -1 3.25 1.95
-1 -12 1 3.97 2.51
-1 12 -1 2.19 2.62
-1 12 1 3.22 3.15
1 12 1 5.85 2.59
-1 -12 -1 6.63 3.89
1 12 1 9.65 5
-1 12 -1 5.38 3.86
-1 12 1 2.65 1.8
1 12 1 5.84 3.7
-1 -12 1 2.19 2.28
-1 -12 1 4.24 2.4
-1 12 -1 3.89 1.54
-1 12 1 4.27 2.2
-1 -12 -1 6.57 1.89
1 -12 1 5.83 3.29
-1 -12 1 0.87 2.1
1 -12 1 1.59 1.36
-1 12 1 5.02 3.6
1 12 1 3.6 1.43
1 12 1 1.76 1.58
-1 -12 -1 2.59 2.53
-1 12 -1 2.47 2.61
-1 12 1 3.17 1.35
1 -12 -1 10.06 4.23
1 -12 1 6.09 1.91
-1 -12 1 5.83 1.85
1 -13 1 348.2 28.15
1 13 -1 232.44 21.39
-1 13 1 341.67 28.56
-1 13 -1 344.34 28.82
1 13 1 345.34 30.82
-1 13 1 408.8 31.58
1 13 1 332.26 24.25
-1 -13 -1 222.21 27.24
-1 13 -1 240.56 21.02
1 13 -1 343.83 33.17
-1 13 -1 370.53 31.25
-1 -13 -1 215.78 20.78
-1 13 -1 386.42 30.29
1 13 1 373.73 30.86
-1 13 1 312.93 23.15
-1 13 1 356.25 30.71
1 13 1 306.41 28.57
-1 -13 1 236.89 25.54
1 -13 1 287.15 23.04
-1 -13 -1 240.12 18.26
1 -13 -1 343.58 29.28
-1 13 -1 287.15 25.14
-1 -13 1 309.65 26.18
-1 13 1 362.82 28.77
1 -13 1 268.77 25.81
-1 -13 -1 254.83 24.69
1 14 1 33.61 8.98
-1 14 1 39.72 6.55
1 14 1 36.73 9.38
-1 14 -1 45.12 9.65
-1 -14 1 31.09 7.87
1 14 1 52.88 10.69
-1 14 1 34.97 8.94
-1 14 1 43.9 9.56
1 14 -1 44.67 11.01
1 14 -1 23.05 5.58
1 14 1 45.04 7.55
-1 14 -1 56.62 10.42
-1 14 -1 45.19 10.42
-1 14 1 38.29 8.51
1 14 1 49.66 10.91
-1 -14 -1 17.7 3.65
-1 -14 -1 33.07 9.4
1 -14 1 30.98 7.87
-1 -14 -1 26.58 6.93
-1 14 1 39.4 8.57
1 -14 1 36.61 8.26
1 -14 -1 37.39 8.74
-1 -14 1 38.89 8.11
-1 14 -1 40.6 8.18
-1 15 1 100.13 15.97
1 15 1 84.22 14.57
-1 -15 1 82.68 13.6
1 15 1 113.83 16.02
-1 15 1 102.64 11.52
-1 15 -1 89.35 14.56
-1 15 -1 91.37 15.57
1 15 1 122.41 17.67
-1 15 -1 122.46 15.95
-1 15 1 100.28 14.8
1 15 -1 66.01 10.19
1 15 1 101.25 12.37
-1 15 1 125.23 16.94
-1 -15 -1 77.25 15.26
-1 15 -1 104.62 13.75
1 -15 1 99.13 14.44
-1 -15 -1 93.24 13.69
1 -15 -1 127.5 16.78
-1 -15 1 92.71 13.46
1 16 1 12.9 5.57
-1 16 1 5.51 2.87
-1 -16 1 12.09 5.02
1 16 -1 4.53 3.14
1 16 1 9.61 3.72
-1 -16 -1 6.98 5.53
-1 16 1 14.26 5.92
-1 16 -1 2.48 2.59
-1 16 -1 3.12 4.58
-1 16 1 7.34 4.15
1 -16 1 7.62 4.57
1 -16 -1 6.77 4.29
-1 -16 -1 2.33 3.13
-1 -16 1 4.42 3.51
1 17 1 276.53 27.11
-1 17 1 229.22 24.98
-1 -17 1 249.5 31.5
-1 17 -1 304.69 27.7
-1 -17 -1 187.15 26.85
1 17 -1 173.25 19.89
-1 17 1 290.03 29.04
1 17 1 242.09 22.07
-1 -17 -1 250.29 25.57
1 -17 -1 265.08 27.54
1 -17 1 259.43 26.6
-1 -17 1 290.38 26.23
1 18 1 22.34 6.06
-1 -18 -1 15.04 7.91
-1 18 1 33.63 9.06
-1 18 1 31.58 8.38
1 18 -1 19.95 5.52
-1 -18 1 21.1 9.54
-1 18 -1 33.35 8.51
-1 -18 1 24 7.16
1 -18 1 30.47 8.55
-1 -18 -1 25.85 7.53
1 -18 -1 28.97 8.59
-1 19 1 62.52 11.82
1 -19 -1 81.23 11.08
-1 19 -1 54.19 11.54
1 19 1 64.79 10.35
-1 -19 -1 44.5 12.92
1 19 -1 50.71 9.53
1 -19 -1 77.41 13.98
-1 -19 -1 58.88 12.14
1 -19 1 64.58 12.49
-1 -19 1 76.87 12.87
1 -20 -1 4.36 3.31
-1 20 1 6.44 4.37
1 20 1 7.09 3.68
-1 20 -1 10.4 5.16
-1 -20 -1 1.98 4.74
1 20 -1 7.12 3.84
-1 -20 1 1.28 3.43
1 -20 1 14.98 6.46
1 -20 -1 3.06 3.67
-1 -20 -1 5.54 4.39
1 21 1 365.45 30.09
-1 21 -1 337.75 32.82
-1 21 1 360.08 33.39
-1 -21 -1 263.1 36.78
1 -21 -1 405.03 30.66
1 21 -1 289.5 34.83
1 -21 -1 400.65 36.82
-1 -21 -1 357.76 34.56
1 -21 1 410.36 36.91
-1 -21 1 415.69 35.11
-1 22 1 18.46 7.66
-1 22 -1 20.85 7.57
1 22 1 22.45 6.56
1 22 -1 18.59 6.31
1 -22 -1 39.27 7.53
-1 -22 -1 10.46 7.18
1 22 -1 25.86 8.83
1 -22 -1 32.03 9.27
-1 -22 1 18.79 7.28
-1 -22 -1 20.44 7.9
1 -22 1 32.98 9.47
-1 23 1 112.08 16.65
1 23 -1 109.97 14.72
1 23 1 99.89 13.99
-1 23 -1 114.5 17.11
1 23 -1 118.92 20.32
1 -23 -1 151.2 20.74
1 -23 1 116.72 18.99
-1 -23 1 139.59 18.61
-1 -23 -1 130.03 18.65
-1 24 1 14.44 6.37
-1 24 -1 22.03 7.82
1 24 1 15.88 5.38
1 24 -1 16.01 8.03
-1 -24 1 25.11 7.89
1 -24 -1 21.49 8.45
1 -24 1 32.88 9.69
-1 -24 -1 19.75 7.56
-1 25 -1 201.32 24.91
1 25 1 195.47 21.19
-1 25 1 187.81 24.28
1 25 -1 189.71 27.91
-1 -25 1 268.12 27.48
-1 -25 -1 253.85 27.84
1 -25 1 304.5 30.99
1 -25 -1 212.19 27.09
1 0 -2 8.9 6.03
1 0 -2 4.77 2.44
-1 0 2 7.76 2.85
-1 0 -2 8.94 1.4
-1 0 2 6.02 2.06
-1 0 2 6.17 1.9
1 0 -2 6.41 2.13
1 0 -2 2.45 2.79
1 0 2 9.74 1.77
1 0 -2 5.04 1.84
-1 0 2 5.23 1.84
-1 0 -2 6.08 1.45
1 0 2 7.05 2.01
1 0 2 6.6 2.34
-1 0 2 7.13 1.43
1 0 -2 7.41 1.35
1 -1 -2 4673.62 429.68
1 1 -2 5561.56 432.64
-1 -1 2 7425.29 422.34
1 -1 -2 7576.96 417.75
1 1 -2 7319.61 421.79
-1 -1 2 8037.09 420.2
1 -1 2 7660.13 417.29
-1 -1 2 8392.7 420.47
-1 1 2 7865.98 420.2
1 1 -2 7748.5 417.09
-1 -1 2 8421.24 419.96
-1 1 2 8211.08 419.66
-1 -1 -2 7407.2 417.54
1 1 -2 6310.22 424.39
-1 -1 2 8299.53 419.49
-1 1 -2 7705.26 417.92
1 1 2 8051.55 417.52
1 -1 2 8882.11 418.57
1 -1 -2 5758.35 423.47
1 -1 -2 7960.63 419.94
-1 1 2 7988.87 417.01
1 1 2 7238.22 419.11
1 -1 2 7360.05 418.74
1 1 2 7582.73 420.07
-1 -1 2 6904.44 416.94
1 -1 2 7709.94 420.23
1 -1 -2 6956.21 417.93
-1 -2 2 4.15 2.34
1 2 2 3.28 1.16
1 2 -2 3.55 4.24
1 2 -2 3.25 2.2
1 2 -2 3.67 1.6
1 -2 2 3.24 1.09
-1 2 -2 2.36 0.93
-1 -2 2 1.39 0.94
-1 2 2 3.75 1.62
-1 -2 2 2.1 1.27
1 2 -2 2.4 1.12
1 2 2 1.87 1.13
-1 2 2 3.33 0.69
-1 -2 -2 3.39 1.07
-1 -2 2 2.59 1.3
1 -2 -2 3.21 2.36
1 2 2 3.25 0.93
-1 2 2 2.23 1.21
-1 2 -2 1.42 1.07
1 -2 2 3.18 1.23
1 -2 -2 1.69 1
1 2 2 1.85 1.26
1 2 -2 2.46 0.84
-1 2 2 1.31 1.25
1 -2 -2 3.35 1.56
-1 -3 2 411.21 32.24
1 3 -2 377.89 31.35
1 -3 2 438.19 27
1 3 2 354.59 25.3
1 3 -2 433.01 40.81
-1 -3 -2 434.43 24.89
1 3 -2 388.71 26.91
1 3 -2 417.36 27.31
-1 -3 2 483.72 28.02
-1 -3 2 443.57 27.83
-1 3 -2 442.26 25.83
1 3 -2 525.97 28.52
1 -3 2 458.11 25.93
-1 -3 2 442.94 26.79
1 -3 2 411.53 26.58
-1 3 2 467.41 27.85
1 -3 -2 388.86 24.16
1 -3 -2 468.04 32.83
-1 3 -2 513.61 27.61
1 3 2 419.31 25.06
-1 -3 -2 366.42 26.4
1 3 2 407.34 27.94
1 3 -2 387.62 25.07
-1 3 2 407.56 27.92
1 -3 -2 401.63 28.09
1 -4 2 3.27 1.51
1 4 -2 1.74 2.08
-1 -4 -2 2.28 0.91
1 4 2 2.19 1.05
-1 4 2 2.1 0.97
-1 4 -2 3.55 1.77
-1 -4 2 0.97 1.65
1 -4 2 1.82 1.03
-1 4 -2 2.61 1.17
1 4 -2 2.99 1.55
-1 -4 2 2.65 1.44
1 4 -2 1.99 1.46
1 4 2 1.3 1.05
-1 -4 -2 3.35 0.94
1 4 -2 2.97 1.41
-1 -4 -2 1.35 1.07
-1 -4 2 0.89 1.01
1 -4 -2 2.45 0.72
1 -4 -2 6.23 3.09
1 -4 2 2.02 1.28
-1 4 2 1.52 1.12
1 4 2 1.59 0.9
-1 4 -2 4.06 1.75
-1 -4 2 1.65 0.73
1 4 -2 2.91 1.15
1 -4 2 2.46 1.4
-1 4 2 1.02 1.5
1 4 2 2.85 1.61
1 -4 -2 2.2 1.74
1 5 -2 169.14 22.87
-1 5 -2 165.59 14.16
-1 -5 2 168 19
1 -5 2 158.99 13.71
-1 -5 -2 174.32 11.89
1 5 2 153.67 14.15
1 -5 -2 164.31 22.14
-1 5 2 199.32 12.07
1 -5 2 191.23 14.51
1 5 -2 176.54 15.92
-1 -5 2 166.46 13.64
-1 5 -2 183.21 13.28
1 5 -2 169.16 13.96
1 -5 -2 180.74 17.09
-1 -5 2 150.87 12.99
1 5 -2 139.8 16.26
1 5 2 169.96 12.09
1 -5 -2 168.52 11.2
-1 5 2 158.05 15.18
-1 -5 2 164.67 12.16
1 5 2 171.68 15.14
1 -5 2 155.33 13.22
1 -6 2 0.48 0.81
-1 6 2 0.25 0.73
-1 6 -2 0.54 1.28
-1 -6 -2 -0.22 0.65
-1 -6 2 0.44 0.58
-1 6 2 0.75 0.59
-1 -6 2 -1.23 2.08
1 -6 -2 1.6 3.31
1 6 -2 3.35 3.47
1 6 -2 1.48 1.18
-1 -6 2 0.87 1.04
1 6 2 0.96 0.66
1 6 2 3.37 1.9
-1 6 2 0.6 1.43
1 6 -2 3.01 2.21
-1 6 -2 0.42 0.87
1 -6 -2 -0.75 1.27
1 6 -2 0.78 1.32
-1 6 2 0.67 1.61
1 -6 2 0.45 0.54
-1 -6 2 1.39 1.1
-1 -7 -2 469.95 25.12
-1 7 -2 423.34 29.2
1 -7 2 375.03 27.74
-1 -7 2 349.5 24.45
-1 -7 -2 326.66 28.14
-1 -7 2 479.17 37.57
-1 7 2 402.63 26.33
1 -7 -2 393.62 37.29
1 7 -2 379.6 37.98
1 7 2 411.72 24.17
1 7 -2 415.54 28.45
1 7 -2 385.15 31.28
-1 -7 2 379.39 27.24
1 7 2 398.01 29.17
-1 7 -2 406.98 28.04
-1 7 2 502.83 31.72
1 7 -2 366.65 29.79
1 -7 -2 367.21 29.54
1 -7 2 365.59 27.37
-1 -7 2 387.28 26.87
-1 7 2 442.48 31.14
-1 7 -2 374.78 26.41
-1 -8 -2 -0.75 1.56
-1 -8 2 1.45 4.25
1 -8 -2 -1.49 3.1
-1 -8 -2 2.39 1.46
-1 -8 2 2.93 1.76
1 -8 2 4.16 2.66
1 -8 -2 1.66 1.59
1 8 -2 3.18 3.8
-1 8 2 5.58 2.58
1 8 2 7 4.31
1 8 2 2.27 1.46
-1 8 2 5.59 3.45
-1 8 -2 3.01 2.27
1 8 -2 1.77 2.34
1 8 -2 0.98 2.63
1 8 2 4.4 2.77
-1 -8 2 2.76 2.19
1 -8 -2 1.42 2.55
1 8 -2 1.48 2.51
-1 8 -2 0.46 1.46
-1 -8 2 1.57 2.73
-1 8 2 1.64 2.94
1 -8 2 1.17 1.86
1 9 -2 5728.52 325.22
-1 -9 -2 5266.38 308.15
1 9 -2 6011.65 325.53
1 -9 -2 5176.73 308.7
-1 -9 2 6275.75 327.73
-1 9 2 5906.08 313.15
-1 -9 2 5369.53 308.86
1 -9 -2 5060.56 322.07
1 -9 2 5282.3 313.07
-1 -9 -2 5057.23 314.35
1 9 -2 5967.14 313.98
1 9 -2 5765.96 319.34
-1 9 2 7130.19 319.93
1 9 2 6530.5 320.36
1 9 2 6080.21 316.39
-1 -9 2 5171.5 312.66
-1 9 -2 5939.91 314.31
1 9 -2 6254.27 314.34
1 9 -2 5379.85 313.72
1 -9 -2 5604.11 313.52
-1 -9 2 5885.4 312.84
1 -9 2 5442.52 313.03
-1 9 -2 5224.75 311.3
1 -10 -2 4.1 4.33
1 10 -2 1.55 5.26
1 -10 -2 7.22 2.63
-1 10 -2 2.97 3.36
-1 -10 2 4.92 5.2
-1 -10 -2 4.74 3.41
-1 10 2 8.18 4.18
1 -10 2 9.44 4.17
-1 -10 2 6.91 2.76
1 10 -2 5.83 3.91
1 10 -2 10.63 5.48
1 10 -2 2.28 3.29
-1 10 2 5.92 4.42
1 10 2 6.45 4.98
1 -10 2 5.34 2.11
-1 -10 2 6.59 3.4
-1 10 -2 7.09 4.12
1 10 2 3.71 3.52
-1 -10 2 7.65 3.8
1 10 -2 3.78 3.27
1 10 -2 7.54 3.39
1 -10 -2 13.15 4.39
-1 -10 2 6.81 3.83
1 -10 2 2.26 3.13
-1 10 -2 4.18 2.87
-1 10 2 2.33 3.42
-1 -11 2 3903.43 211.27
-1 -11 -2 3167.9 198.61
-1 -11 2 3043.61 191.69
1 11 -2 4254.93 211.89
1 11 -2 3598.95 204.57
1 -11 -2 3124.83 201.41
1 -11 -2 4257.54 192.67
-1 11 2 3766.33 198.55
-1 11 -2 4393.18 204.15
1 -11 2 3254.88 196.12
1 11 2 3628.39 201.44
1 -11 2 2916.41 189.79
-1 11 2 4475.63 204.33
1 11 2 3731.58 200.76
-1 11 -2 3519.27 197.69
1 11 -2 3871.16 204.83
-1 -11 2 3082.88 197.9
1 11 -2 3642.1 197.72
1 11 -2 3859.81 198.65
-1 -11 2 3448.3 203.25
1 11 -2 3439.84 194.61
-1 11 2 3429.82 200.53
1 11 2 3320.41 201.13
1 -11 -2 3374.17 194.28
-1 -11 2 3716.48 196.82
-1 11 2 3139.92 192.91
1 11 2 3206.41 193.67
1 -11 2 2912.68 192.37
-1 11 -2 2909.95 194.36
-1 -11 2 3463.69 194.19
1 -11 2 3271.46 196.56
-1 12 -2 4.78 3.5
1 -12 -2 0.45 1.77
-1 12 2 2.85 3.21
-1 12 -2 -3.01 3.18
-1 -12 2 -0.55 2.18
1 12 -2 1.24 1.49
-1 -12 -2 2.34 2.43
-1 -12 2 1.82 3.78
1 12 -2 -1.7 2.88
-1 12 2 0.99 2.91
1 -12 2 5.97 3.53
1 -12 -2 5.93 3.75
1 12 2 2.31 3.39
-1 12 -2 -0.95 2.99
1 12 2 2.25 2.7
1 12 -2 1.36 2.81
-1 -12 2 1.05 2.18
1 12 -2 0.92 2.46
-1 12 2 2.31 3.09
1 -12 2 0.39 1.6
1 12 2 3.09 2.47
1 -12 -2 1.74 1.55
1 12 -2 4.11 2.1
1 12 -2 2.91 3.07
1 -12 2 2.32 3.11
-1 -12 2 2.46 3.26
-1 -12 -2 -0.88 2.36
-1 -12 2 4.8 3.21
-1 -12 2 0.55 1.48
1 -12 2 3.89 2.17
-1 12 2 4.07 2.02
1 12 2 2.07 1.75
-1 12 -2 0.74 1.78
-1 12 2 2 3.17
1 -12 2 0.93 1.57
1 13 -2 629.41 50.77
1 -13 2 537.37 40.62
-1 13 2 704.73 44.79
1 13 -2 597.58 43.61
1 -13 -2 490.72 41.5
1 13 2 525.85 37.68
-1 13 -2 660.97 46.67
-1 13 -2 558.64 42.36
-1 13 2 574.73 42.49
-1 -13 2 546.27 37.66
1 -13 -2 646.19 37.05
-1 -13 -2 449.45 42.22
-1 -13 2 672.43 53.82
1 13 -2 523.28 41.4
1 13 2 591.71 44.51
-1 13 2 736.12 47.59
1 -13 2 466.71 34.5
1 13 2 600.39 44.93
1 13 -2 706.62 49.28
-1 -13 2 464.18 41.02
-1 13 -2 531.08 41.62
1 13 -2 562.54 42.98
-1 13 2 559.55 40.64
1 -13 2 512.67 41.53
1 13 2 559.98 40.46
1 -13 -2 531.52 36.36
-1 -13 2 570.49 42.81
1 13 2 480.24 35.15
1 -13 2 503.14 35.05
-1 -13 2 608.02 41.76
-1 13 2 533.37 35.44
-1 -13 -2 514.99 40.97
1 -13 2 585.31 42.34
-1 13 -2 537.09 40.11
-1 -13 2 573.16 36.22
1 14 2 2.15 2.1
1 14 -2 1.83 2.19
1 -14 -2 -0.51 1.38
-1 -14 -2 1.42 1.7
1 -14 2 4.79 2.81
-1 14 2 3.33 2.97
-1 14 -2 -1.42 2.41
-1 14 2 1.13 2.71
-1 14 -2 -1.12 2.68
-1 -14 2 -0.69 2.18
-1 -14 2 1.99 4.12
1 14 -2 2.2 2.27
1 14 2 -1.22 2.92
-1 14 -2 1.08 1.83
1 14 2 6.57 3.85
-1 14 2 1.3 3.48
-1 14 2 1.96 1.75
1 14 -2 1.51 3.61
-1 -14 2 3.34 2.67
1 14 -2 1.19 2.02
-1 14 2 1.9 1.29
1 14 2 0.71 1.21
-1 -14 -2 -1.05 2.17
1 -14 2 2.26 1.42
-1 14 -2 3.5 2.56
-1 -14 2 4.61 2.92
1 -14 -2 1.32 2.73
-1 14 2 0.73 1.95
1 -14 2 1.09 2.26
-1 -14 2 3.79 3
1 -14 2 -0.91 1.88
1 14 2 0.39 0.81
-1 -14 2 2.38 1.43
-1 -15 -2 39.96 10.07
1 -15 2 45.25 8.71
1 -15 -2 24.25 4.98
-1 -15 2 32.07 6.81
-1 15 -2 30.17 6.02
-1 15 2 51.1 10.04
-1 15 -2 30.34 7.74
-1 15 2 33.66 8.19
1 15 2 62.11 8.94
-1 15 2 45.28 10.29
1 15 2 57.39 10.82
-1 15 2 34.62 6.47
-1 -15 2 34.29 8.41
-1 15 2 39.19 6.01
1 15 -2 32.36 8.82
1 15 2 28.86 5.26
-1 -15 2 46.22 8.94
1 -15 2 27.39 6.12
-1 -15 2 37.69 4.6
-1 15 2 31.46 4.23
-1 -15 -2 66.33 10.91
1 -15 -2 41.26 9.91
1 -15 2 36.61 4.57
1 15 2 29.37 4.28
-1 15 -2 41.03 8.25
-1 -15 2 25.79 5.73
1 -15 2 30.48 8.03
-1 -16 -2 1.33 1.3
-1 16 -2 1.16 0.92
-1 16 2 1.21 2.04
-1 16 2 1.29 3.76
-1 -16 2 -0.8 1.65
1 16 2 1.61 2.36
1 -16 -2 1.16 1.39
-1 16 -2 -1.21 3.54
-1 -16 -2 1.65 2.79
1 16 2 3.82 4.31
-1 -16 2 2.31 2.76
-1 16 2 0.73 1.95
-1 -16 2 0.93 1.12
1 16 -2 1.39 2.88
-1 -16 -2 0.37 0.67
-1 16 -2 0.18 0.56
-1 -16 2 1.06 2.19
1 -16 -2 -1.42 3.4
1 16 2 -0.19 0.55
1 -16 2 1.69 1.51
1 -16 2 -1.25 2.98
-1 -16 -2 1.2 2.03
1 17 2 387.88 31.37
-1 -17 2 398.34 32.18
-1 -17 -2 329.02 37.16
1 -17 -2 365.82 28.54
-1 17 2 500.64 38.96
-1 17 2 430.08 35.99
-1 17 -2 508.41 37.99
-1 17 2 445.65 31.7
-1 -17 2 272.02 31.51
1 17 2 501.51 38.55
1 17 -2 270.49 33.65
1 -17 2 414.8 36.21
1 -17 -2 471.33 39.27
-1 -17 -2 410.84 35.62
-1 -17 2 515.72 36.83
-1 18 -2 -1.27 4.55
-1 18 2 6.36 4.56
1 18 2 0.86 2.31
1 -18 -2 1.24 2.97
-1 -18 -2 1.8 3.74
-1 18 2 1.41 2.92
-1 18 2 0.79 1.89
-1 -18 2 4.73 4
1 18 -2 -1.56 3.73
1 -18 2 8.28 4.95
-1 -18 2 -1.15 3.07
-1 -18 -2 -1.33 4.79
1 -18 -2 1.51 4.04
1 -19 -2 1529.52 86.04
-1 -19 -2 1011.31 94.84
-1 19 2 1790.26 99.68
1 19 2 1346.81 87.9
-1 19 2 1280.36 91.94
-1 19 -2 1583.11 95.23
-1 -19 2 1136.24 89.5
1 19 -2 1108.65 93.84
1 -19 -2 1620.32 98.75
-1 -19 2 1714.53 94.91
1 -19 2 1556.27 96.4
-1 -19 -2 1517.31 95.46
-1 20 -2 -5.23 6.63
-1 -20 -2 3.84 5.13
-1 20 2 -1.31 3.82
1 -20 -2 -2.55 3.73
1 20 2 0.89 3.54
1 20 -2 8.45 6.39
-1 -20 2 -1.23 4.65
1 -20 2 1.49 3.98
1 -20 -2 4.75 5.01
-1 -20 -2 -2.9 5.75
-1 21 2 1441.14 95.83
1 21 2 1398.13 90.89
-1 -21 -2 1132.81 99.65
-1 21 -2 1601.19 98.05
1 21 -2 1133.4 97.36
1 -21 -2 1668.3 102.29
1 -21 2 1639.03 100.86
-1 -21 -2 1498.38 98.95
-1 -21 2 1717.66 98.05
-1 -22 -2 -1.99 4.76
-1 22 -2 -1.33 4.5
1 22 2 -0.92 3.64
-1 22 2 1.32 4.18
1 22 -2 1.78 5.2
1 -22 -2 3.28 4.39
1 -22 2 -1.59 3.8
-1 -22 -2 3.06 4.48
-1 -22 2 -1.3 2.68
-1 23 -2 80.15 14.66
-1 23 2 80.83 14.29
1 23 2 89.01 12.91
-1 -23 -2 77.3 18.2
1 23 -2 68.74 16.19
-1 -23 -2 101.55 16.58
-1 -23 2 107.3 15.79
1 -23 -2 91.96 16.83
1 -23 2 110.1 17.45
1 24 2 0.91 1.88
-1 24 -2 1.33 2.76
-1 24 2 1.33 3.56
1 24 -2 1.83 4.39
-1 -24 -2 1.59 3.8
-1 -24 2 1.36 2.29
1 -24 2 1.67 3.45
1 -24 -2 3.38 4.52
-1 25 -2 38.72 10.95
1 25 2 37.69 8.21
-1 25 2 38.71 10.83
1 25 -2 16.68 9.42
1 -25 -2 75.34 14.8
-1 -25 -2 61.15 12.68
1 -25 2 50.52 12.13
-1 -25 2 54.7 11.21
1 0 -3 4.32 2.33
-1 0 3 0.44 0.91
-1 0 -3 0.61 0.64
-1 0 3 -0.46 0.96
1 0 -3 0.43 1.16
1 0 -3 2.24 2.67
1 0 -3 0.44 0.74
-1 0 -3 1.42 0.85
1 0 3 0.95 0.93
-1 0 -3 0.28 0.82
1 0 3 0.26 0.77
-1 0 3 -0.39 0.81
1 0 -3 2.53 1.21
-1 0 3 0.1 0.34
-1 0 -3 1.38 1.09
1 0 3 0.8 1.08
1 1 -3 242.94 34.48
1 -1 -3 254.64 35.04
1 -1 -3 283.91 21.54
1 1 -3 285.01 24.28
1 1 -3 323.18 18.68
-1 -1 3 301.29 21.55
1 -1 3 322.94 19.75
-1 1 -3 304.38 19.11
1 -1 -3 301.82 21.45
-1 -1 3 308.28 21.94
-1 -1 3 336.97 21.86
-1 1 3 327.7 21.9
1 1 -3 304.68 21.54
1 -1 3 334.14 20.11
1 1 -3 325.92 21.64
-1 1 -3 341.28 19.78
-1 1 -3 294.16 19.89
1 -1 -3 320.16 21.9
1 -1 -3 271.94 26.63
1 1 3 321.63 19.68
-1 -1 -3 295.13 19.7
1 -1 3 268.01 19.79
-1 -1 3 310.19 21.12
-1 -1 -3 293.2 19.18
1 1 -3 242.61 25.83
-1 1 3 309.31 21.19
1 1 3 289.07 20.32
1 -1 3 313.98 21.18
1 -1 -3 245.31 19.93
1 1 3 281.87 21.04
1 1 -3 255.19 17.84
-1 1 -3 272.92 20.22
-1 -1 -3 299.81 20.57
1 -2 -3 227.81 16.93
1 2 -3 217.85 21.82
1 2 -3 189.83 30
1 -2 3 265.78 17
-1 -2 3 238.03 18.6
1 2 3 261.41 15.66
1 2 -3 225.38 17.99
-1 2 3 255.59 18.77
-1 -2 3 293.44 19.37
1 2 -3 295.51 17.98
-1 -2 -3 208.15 16.07
1 2 -3 256.59 18.38
1 -2 3 303.02 17.98
-1 -2 3 274.46 18.36
1 -2 -3 242.8 23.98
-1 2 3 238.04 18.06
1 -2 -3 268.38 19.14
-1 2 -3 244.84 17.18
1 2 3 240.55 16.39
1 2 3 227.39 17.27
-1 -2 -3 258.11 16.93
1 -2 3 221.8 16.85
1 2 3 218.44 17.85
-1 2 -3 244.72 17.23
1 -2 -3 197.78 17.77
-1 2 -3 210.01 17.09
-1 -2 -3 248.17 17.95
1 3 -3 14.92 7.3
1 -3 3 10.07 2.6
-1 3 3 10.59 1.36
1 3 -3 10.25 4.28
1 3 3 13.25 2.39
1 3 -3 7.96 2.54
1 3 3 7.98 1.67
1 -3 3 10.87 2.25
1 3 -3 14.28 3.27
-1 -3 -3 12.3 2.35
-1 3 -3 11.18 2.4
-1 -3 -3 10.97 3.03
-1 -3 3 16.73 3.62
-1 -3 3 11.86 3.05
-1 -3 -3 8.68 2.12
-1 3 3 7.74 2.53
-1 -3 -3 10.67 2.28
1 3 3 9.43 2.08
-1 3 -3 9.81 2.44
1 -3 3 10.68 2.5
-1 -3 3 7.6 2.41
1 -3 -3 9.43 2.7
1 -3 -3 10.75 4.3
1 -3 -3 23.95 4.65
1 3 -3 8.53 1.32
1 3 3 13.09 3.11
-1 3 -3 7.45 2.1
-1 3 -3 10.2 2.59
1 4 3 49.99 5.17
1 4 -3 63.33 10.92
1 -4 3 57.95 6.55
1 4 -3 63.02 15.37
-1 -4 3 68.75 8.01
-1 4 -3 61.6 6.33
-1 -4 -3 52.8 7.13
1 4 -3 53.08 7.78
-1 -4 -3 57.69 5.64
-1 4 3 57.19 5.1
1 -4 3 56.85 6.08
1 4 -3 56.05 7.07
1 4 -3 61.37 7.32
-1 4 -3 57.69 6.75
1 -4 -3 62.69 10.45
1 4 3 58.68 5.86
1 -4 3 54.31 6.42
-1 4 3 60.76 7.2
-1 -4 3 67.68 7.31
-1 -4 -3 48.83 5.86
1 -4 -3 48.36 7.55
-1 4 -3 54.27 6.13
1 4 3 68.33 7.92
-1 4 -3 50.21 6.48
1 4 -3 52.76 4.84
1 5 -3 1.26 3.38
1 5 3 1.3 0.82
1 5 -3 -2.35 2.81
1 -5 -3 4.61 3.9
1 -5 3 0.84 1.23
-1 5 3 0.78 0.69
-1 -5 3 1.54 1.37
-1 -5 -3 1.15 1.37
1 -5 3 1.08 1.06
1 5 -3 1.48 1.32
1 5 -3 1.49 1.33
-1 -5 -3 2.23 1.07
-1 5 -3 1.52 1.11
1 5 -3 0.74 1.77
-1 5 3 2.4 1.14
-1 5 3 0.5 0.85
1 5 3 1.23 1.04
-1 5 -3 1.92 1.28
1 -5 3 3.55 1.68
-1 -5 3 0.82 1.21
1 5 -3 -1.05 1.25
1 -5 -3 2.04 1.73
1 -5 -3 1.27 0.47
-1 -5 -3 0.37 0.77
1 -5 -3 1.5 2
-1 5 -3 0.73 1.23
1 5 3 0.59 1.23
-1 -5 3 0.99 0.51
-1 6 3 39.62 4.31
1 6 3 37.99 6.3
1 6 -3 30.13 8.86
1 -6 3 43.31 6.03
1 -6 -3 28.81 10.55
1 6 -3 29.52 10.45
1 6 -3 43.3 6.42
1 -6 3 51.87 6.48
1 6 -3 48.9 8.63
-1 6 -3 53.63 6.6
-1 -6 -3 55.15 7.55
1 6 -3 45.59 6.79
-1 6 3 52.32 6.25
-1 -6 3 40.87 6.18
-1 -6 3 48.49 6.32
1 6 3 48.57 5.61
1 -6 -3 48.77 9
-1 6 -3 50.62 7.1
1 6 -3 41.88 8.55
-1 6 3 53.77 7.22
-1 -6 -3 40.96 5.76
1 -6 3 48.06 6.32
1 -6 -3 46.96 8.21
-1 6 -3 40.67 5.56
1 6 3 54.95 8
1 -7 3 422.09 29.14
1 7 -3 407.17 38.11
-1 -7 3 408.84 26.78
-1 7 3 417.02 25.13
-1 -7 -3 361.36 29.63
1 7 3 408.81 30.23
1 -7 -3 469.34 45.07
1 7 -3 413.04 43.92
-1 7 3 474.13 30.09
1 7 3 489.43 27.23
1 7 -3 394.02 33.27
1 -7 3 421.1 29.33
1 7 -3 412.72 29.9
-1 -7 3 373.84 28.97
-1 7 -3 470.92 29.68
-1 -7 -3 371.39 29.9
1 7 -3 418.41 30.21
1 7 3 416.93 27.84
1 7 -3 393.51 33.42
-1 -7 3 445.81 29.9
-1 7 -3 466.88 31.68
1 -7 -3 451.43 34.39
1 -7 3 393.29 28.84
-1 7 -3 379.85 27.74
1 -7 -3 429.46 34.36
1 7 3 466.05 32.81
-1 -7 3 415.41 26.27
-1 -8 -3 -0.74 1.53
-1 -8 3 0.33 0.98
1 -8 3 0.56 1.63
1 -8 -3 -2.03 2.43
1 8 -3 2.1 2.51
1 -8 3 0.64 1.08
1 8 3 1.22 1.1
1 8 -3 3.38 2.14
1 8 3 2.16 2.11
-1 8 3 -0.66 1.75
-1 8 -3 -0.56 1.34
-1 -8 3 0.59 0.71
-1 -8 -3 2.2 2.15
1 8 -3 1.08 2.23
1 8 -3 -0.66 1.77
1 8 -3 0.96 1.63
-1 8 -3 -0.78 0.93
1 -8 -3 0.94 1.94
1 8 3 1.76 1.29
-1 8 -3 2.69 1.52
1 -8 3 0.58 1.39
1 -8 -3 1.01 2.95
-1 -8 3 0.36 1.04
1 9 -3 228.04 29.12
1 -9 3 201.39 17.81
1 -9 -3 159.15 24.61
-1 -9 -3 186.61 18.99
-1 -9 3 193.48 15.49
1 9 -3 238.94 23.73
1 9 -3 251.73 20.55
-1 -9 3 207.83 18.43
1 9 3 235.5 20.33
1 9 3 207.68 15.34
-1 9 3 259.28 20.85
-1 9 -3 234.11 18.92
-1 -9 -3 175.54 18.75
1 -9 -3 239.47 21.44
1 9 3 210.96 17.36
1 9 -3 173.38 19.56
-1 9 -3 227.02 20.95
1 -9 -3 229.5 22.86
1 -9 3 230.97 18.86
-1 9 -3 197.34 16.88
-1 -9 3 211.17 16.6
-1 -10 3 0.41 1.09
-1 -10 -3 1.8 2.15
1 -10 3 0.65 1.56
1 -10 -3 1.85 3.14
1 10 -3 1.93 2.31
-1 -10 3 0.71 1.71
1 10 3 -0.89 1.85
-1 -10 -3 2.66 2.12
1 10 3 1.1 0.98
-1 10 3 0.88 1.83
-1 10 -3 0.72 1.92
1 10 -3 1.26 1.5
1 10 -3 -0.85 1.76
-1 10 -3 1.01 1.7
1 -10 -3 0.87 1.04
1 10 -3 0.9 1.07
-1 -10 3 -0.53 1.42
1 -10 3 0.73 1.74
-1 10 -3 -0.56 1.49
1 -10 -3 1.15 3.08
-1 -11 -3 23.67 6.21
1 11 -3 18.41 7.78
1 -11 -3 28.18 9.07
1 -11 3 22.6 5.23
-1 11 -3 35.76 8.53
-1 -11 3 23.27 4.4
1 11 -3 41.77 9.66
1 11 3 33.68 7.28
1 11 3 29.17 7.63
1 11 3 28.2 4.49
1 11 -3 30.16 6.72
-1 11 -3 36.75 6.93
-1 -11 -3 19.69 5.74
-1 11 3 40.39 7.88
-1 -11 3 27.55 6.08
1 -11 -3 36.58 7.06
1 11 -3 38.93 7.49
1 11 -3 23.18 5.92
-1 11 -3 25.84 7.28
-1 11 -3 33.5 5.86
-1 -11 3 31.66 5.86
1 -11 3 32.31 6.59
-1 12 -3 53.76 9.49
-1 -12 -3 59.69 10.28
1 -12 3 43.64 7.86
1 -12 -3 46.57 11.77
-1 -12 3 58.17 7.31
1 12 -3 38.37 10.81
-1 12 -3 72.12 12.14
1 12 -3 38.24 9.7
-1 -12 -3 45.1 9.25
-1 -12 3 51.21 8.85
1 12 -3 50 9.07
1 12 3 50.28 9.67
1 12 3 54.05 10.32
1 12 3 54.13 6.82
-1 12 3 59.45 10.41
-1 12 -3 58.79 9.47
1 12 -3 48.83 8.57
1 -12 -3 60.23 9.09
1 12 -3 56.15 9.63
1 -12 3 51.58 8.91
-1 -12 3 53.83 8.22
-1 12 -3 49.35 7.82
-1 13 -3 40.85 8.53
-1 -13 -3 30.96 7.9
1 13 -3 49.25 12.55
-1 -13 3 38.56 6.21
1 -13 -3 24.93 8.34
1 13 -3 35.75 10.09
-1 13 -3 33.62 9.01
1 -13 3 34.47 7.07
-1 -13 -3 32.9 8.3
-1 -13 3 33.83 7.95
1 13 3 27.45 7.39
1 13 -3 47.84 11.04
1 13 3 48.46 6.42
1 13 -3 42.32 8.59
1 -13 3 33.82 5.32
-1 13 3 30.39 8.02
1 13 3 40.02 9.32
-1 13 -3 28.97 7.1
1 13 -3 28.2 6.14
1 13 -3 40.9 8.36
1 -13 -3 32.15 6.49
1 -13 3 27.46 6.91
-1 -13 -3 40.19 8.11
-1 -13 3 41.2 7.34
-1 13 -3 39.21 7.19
-1 14 -3 12.23 5.16
-1 -14 -3 1.31 2.23
-1 -14 3 4.35 2.79
1 14 -3 10.41 5.34
1 -14 -3 -1.44 2.45
1 14 3 6.01 2.46
-1 14 -3 10.47 4.53
1 14 3 12.98 5.38
-1 -14 -3 2.57 3.78
-1 -14 3 10.15 4.68
-1 14 3 11.24 4.96
1 14 -3 6.2 4.55
1 -14 3 8.13 2.58
1 14 3 8.44 4.34
1 14 -3 5.64 2.55
1 -14 -3 6.97 3.02
1 14 -3 9.45 4.48
-1 -14 -3 6.51 3.68
-1 -14 3 6.6 2.75
-1 14 3 6.79 2.78
-1 14 -3 9.06 3.7
-1 14 3 11.87 4.93
-1 -14 3 5.1 3.23
1 -14 3 8.46 3.59
-1 -15 3 109.23 12.02
1 15 -3 97.22 15.25
-1 15 3 84.96 13.64
1 -15 -3 78.92 13.98
-1 15 -3 105.34 15.02
1 15 3 106.9 12.36
-1 -15 -3 86.69 14.97
1 -15 3 72.26 9.18
1 15 3 97.33 14.94
1 15 3 95.47 10.97
-1 -15 3 83.09 13.28
-1 15 3 113.73 16.37
-1 -15 3 123.1 16.43
1 -15 3 94.47 14.91
1 15 -3 112.4 11.7
1 15 3 111.93 14.72
-1 15 3 96.41 13.49
1 15 -3 89.71 14.77
1 -15 -3 107.73 11.58
-1 15 3 103.38 10.75
1 -15 3 85.73 10.13
1 15 3 86.74 10.03
-1 -15 3 106.09 11.13
-1 -15 3 105.39 13.34
1 -15 3 113.3 15.1
-1 -15 -3 110.6 15.02
-1 16 3 1.2 3.2
1 16 -3 1.11 2.65
-1 16 -3 2.44 3.27
-1 -16 -3 1.53 2.59
1 -16 -3 2.25 1.91
-1 -16 3 0.74 2.35
1 16 3 2.43 2.74
1 -16 3 1.47 1.55
-1 -16 3 -1.17 3.14
-1 16 3 0.8 1.9
1 16 3 -0.64 1.53
1 16 -3 1.38 2.34
1 16 -3 1.56 1.39
1 -16 3 -1.08 2.24
1 -16 -3 0.55 1.32
-1 -16 3 1.46 1.43
1 -16 3 0.44 1.28
-1 16 3 0.47 1.12
1 -16 3 1.23 2.54
-1 -16 3 -0.99 2.64
-1 16 3 2.68 2.39
-1 -16 3 -1.12 1.34
-1 -16 -3 1.24 2.97
1 16 3 -0.47 1.12
1 16 3 0.88 2.1
-1 17 3 386.42 35.57
1 17 3 462.97 33.48
-1 -17 -3 366.69 38.23
-1 17 -3 486.39 38.53
-1 -17 3 422.81 32.57
-1 17 3 448.44 32.92
-1 -17 3 374.41 35.13
-1 17 3 440.86 31.13
1 -17 3 401.69 32.85
-1 -17 3 449.08 33.73
1 17 -3 314.78 36
1 17 3 406.59 30.2
1 -17 3 368.86 26.85
-1 17 3 420.48 27.44
1 17 3 415.45 27.5
-1 -17 -3 432.7 37.27
1 -17 3 552.09 40.06
-1 -17 3 589.81 38.08
-1 -17 3 408.98 27.38
-1 -18 -3 1.8 2.27
-1 -18 -3 5.21 4.64
-1 18 -3 2.41 1.52
1 18 3 6.23 3.37
-1 18 -3 1.3 3.12
-1 18 3 5.15 3.77
-1 -18 3 2.53 3.03
-1 18 3 2.55 2.27
-1 -18 3 7.18 4.29
-1 18 -3 3.58 1.29
-1 18 -3 5.32 4.74
-1 -18 -3 2.11 1.45
1 18 -3 1.57 2.65
-1 18 -3 1 1.03
-1 -18 3 8.73 4.33
1 -18 3 1.36 2.82
1 -18 3 1.93 1.13
1 -18 3 6.03 2.54
-1 -18 -3 6.92 4.97
-1 -18 3 1.84 1.81
1 18 3 2.2 1.21
-1 18 3 3.25 1.28
1 19 3 139.86 15.79
-1 -19 -3 97.66 18.65
-1 19 3 104.51 16.7
-1 19 -3 149.81 19.69
-1 -19 3 105.72 15.95
1 19 -3 84.01 16.86
-1 19 -3 124.47 21.57
-1 -19 -3 121.59 18.21
1 -19 3 141.27 18.93
-1 -19 3 163.5 18.33
-1 -20 -3 12.87 6.7
-1 20 3 18.78 6.53
-1 20 -3 24.7 7.96
1 20 3 29.87 6.89
-1 -20 3 21.56 7.4
1 20 -3 22.34 9.04
-1 20 -3 13.15 8.49
-1 -20 -3 18.09 7.31
-1 -20 3 35.98 8.45
1 -20 3 29.69 8.78
-1 21 -3 188.94 22.5
-1 -21 -3 94.13 20.98
-1 21 3 148.15 20.08
1 21 3 148.71 17.42
1 21 3 152.94 16.52
-1 -21 3 115.12 17.46
-1 21 -3 159.27 25.38
1 21 -3 103.28 20.37
-1 -21 3 226.14 22.53
1 -21 -3 211.24 25.24
-1 -21 -3 171.54 22.16
1 -21 3 218.54 24.48
-1 22 -3 4.21 5.57
-1 -22 -3 5.74 5.12
1 22 3 -0.95 2.53
-1 22 3 -1.37 4.02
1 22 3 -1.65 2.61
1 22 -3 3.66 3.79
-1 -22 3 2.56 3.06
1 -22 3 3.18 5.04
1 -22 -3 1.7 4.97
-1 -22 -3 7.98 5.39
-1 -23 -3 3.87 5.7
-1 23 3 12.38 5.73
1 23 3 8.46 4.82
-1 23 -3 22.53 8.1
1 23 3 6.64 4.14
1 23 -3 15.03 8.13
-1 -23 3 13.19 5.73
-1 -23 -3 14.68 6.79
1 -23 3 29.31 9.15
1 -23 -3 34.39 9.67
-1 24 3 -1.37 3.67
-1 -24 -3 1.96 4.07
1 24 3 -1.88 3.73
1 24 -3 3.82 4.57
-1 -24 3 1.34 3.92
-1 -24 -3 -1.67 4.45
1 -24 3 -3.31 5.24
1 -24 -3 -1.74 3.6
1 0 -4 0.79 2.11
1 0 -4 -0.54 1.3
-1 0 -4 0.3 0.73
-1 0 -4 0.28 0.58
-1 0 -4 0.4 0.96
1 0 4 -0.37 0.62
-1 0 4 -0.49 1.01
1 0 4 0.36 0.87
1 0 -4 0.56 0.95
-1 0 -4 -0.38 0.9
1 0 4 -0.45 0.93
1 1 -4 131.32 14.78
1 -1 -4 109.76 12.01
1 -1 -4 109.42 11.14
-1 1 4 116.63 11.55
1 1 -4 103.97 10.9
1 -1 4 96.95 9.46
-1 -1 4 125.91 12.17
-1 1 -4 100.33 9.02
1 -1 4 102.27 9.59
1 -1 -4 116.36 11.57
-1 1 -4 101.42 9.84
1 -1 4 116.18 10.05
-1 -1 -4 116.61 10.21
1 1 4 106.93 9.87
1 1 4 108.15 9.64
1 1 -4 113.97 11.29
-1 -1 4 113.01 10.93
-1 1 4 108.71 10.66
-1 -1 -4 104.53 8.65
-1 -1 -4 111.18 10.05
1 1 4 105.56 10.42
-1 1 -4 79.6 8.9
1 -1 -4 104.75 10.18
1 -1 4 111.77 10.41
1 -2 -4 1.58 2.82
1 2 -4 2.12 2.84
-1 -2 4 3.07 2.09
1 2 4 4.52 1.67
1 -2 4 7.49 2.22
1 2 -4 6.41 2.4
-1 -2 -4 3.3 1.77
1 2 -4 3.79 2.34
-1 2 -4 3.07 1.54
1 -2 -4 3.2 2.03
1 -2 4 3.75 1.63
1 2 4 4.35 1.72
1 2 4 5.42 1.94
-1 2 -4 3.87 1.94
-1 -2 4 7.46 2.46
1 -2 4 6.36 2.24
1 -2 -4 7.17 2.68
-1 -2 -4 3.45 1.44
-1 -2 -4 6.49 2.18
-1 2 4 2.53 1.73
1 2 -4 5.53 2.3
-1 2 -4 3.5 1.63
1 2 4 3.47 1.89
1 2 -4 3.98 0.85
1 -2 -4 3.73 2.56
-1 2 -4 5.13 1.9
-1 -3 -4 2574.18 154.92
1 3 -4 3027.7 165.35
-1 3 -4 2676.05 152.83
-1 -3 -4 2810.82 152.76
1 3 4 2767.27 151.69
1 -3 4 2966.25 153.58
-1 -3 4 3009.36 156.83
1 3 -4 2604 154.77
1 3 4 2873.74 152.98
1 -3 4 2669.16 153.01
-1 -3 4 3131.21 155.61
-1 -3 -4 2972.6 154.08
-1 -3 -4 2450.62 151.14
1 -3 -4 2927.88 156.45
1 3 -4 2731.77 155.14
1 -3 4 3276.61 154.94
-1 3 4 2759.89 154.82
-1 3 -4 2725.79 154
-1 3 -4 2741.21 153.11
1 3 4 2613.1 154.33
1 3 -4 2524.56 148.67
-1 3 -4 2606.02 153.11
1 -3 -4 2680.22 156.13
1 4 -4 2.64 4.18
1 4 4 1.42 1.49
1 -4 4 2.25 2.15
-1 4 -4 2.64 2.04
-1 -4 -4 3.58 1.87
1 4 -4 3.35 2.11
1 -4 4 2.41 1.98
1 4 4 0.29 1.31
-1 -4 4 1.94 1.9
-1 -4 -4 4.17 2.47
-1 4 -4 2.53 2.34
1 4 4 1.5 1.79
1 4 -4 3.43 2.37
1 -4 4 1.3 1.64
1 -4 -4 1.22 1.93
-1 -4 4 1.51 2.17
-1 -4 -4 3.04 1.55
-1 -4 -4 2.44 1.88
1 -4 -4 2.18 3.26
1 4 4 2.85 2.72
1 4 -4 -0.48 1.34
-1 4 -4 2.39 2.13
-1 4 -4 0.44 1.84
1 -5 -4 5420.37 298.96
-1 5 4 5508.29 300.2
1 -5 4 5800.98 304.02
1 5 4 4834.21 300.21
1 5 -4 5715.76 317.75
-1 5 -4 5796.27 303.67
-1 -5 4 6146.04 306.95
1 5 -4 5548.87 305.45
-1 -5 -4 5745.28 302.47
-1 -5 -4 5267.16 305.47
1 -5 4 5565.62 303.2
1 -5 -4 6742.66 319.58
1 5 4 5809.71 302.99
-1 5 -4 5961.83 305.67
-1 -5 4 6206.09 305.16
1 5 -4 4909.06 314.68
-1 -5 -4 4982.65 301.56
1 -5 4 5785.28 304.44
1 5 -4 5660.33 305.48
1 5 -4 4909.26 299.18
1 5 4 5698.69 306.08
-1 5 -4 5518.46 302.83
1 -5 -4 5338.23 308.37
-1 5 -4 5539.57 303.95
1 -6 4 3.48 2.45
1 6 -4 3.08 5.21
1 6 -4 6.15 4.87
1 6 4 1.78 1.1
1 -6 -4 0.18 1.28
-1 6 4 1.4 1.16
1 6 -4 2.5 2.48
-1 6 4 2.46 1.43
-1 6 4 3.6 2.44
-1 -6 4 2.57 2.43
-1 6 -4 2.45 2.03
-1 -6 -4 2.67 2.52
1 -6 4 0.47 1.58
1 6 -4 -0.62 1.83
-1 -6 -4 0.78 1.4
1 -6 -4 1.33 3.55
1 -6 4 3.31 2.19
1 6 4 3.75 1.8
-1 -6 4 1.06 1.79
-1 6 -4 0.61 1.64
1 6 -4 1.36 2.82
-1 6 -4 4.23 2.21
1 6 4 1.42 2.4
1 6 -4 0.84 1.68
1 -6 -4 1.83 3.28
1 7 -4 1644.65 124.33
1 7 -4 1884.7 110.06
1 -7 -4 1538.54 89.8
1 -7 -4 1691.57 122.4
1 -7 4 1767.39 93.66
-1 7 -4 1788.41 93.86
1 7 -4 1978.51 103.15
1 7 -4 1710.71 95.76
-1 7 4 1852.85 92.1
-1 7 4 1954.05 98.03
1 7 -4 1776.99 95.42
1 -7 4 1677.41 93.37
-1 -7 4 1738.66 95.35
-1 -7 -4 1586.24 94.95
-1 -7 4 1968.7 95.57
1 -7 -4 2043.73 106.22
-1 7 -4 1911.62 96.82
-1 -7 -4 1576.31 91.66
1 7 4 1766.13 92.69
1 7 -4 1559.55 102.27
1 7 4 1859.21 98.15
1 -7 -4 1924.41 101.38
-1 7 -4 1664.75 92.11
-1 -8 4 11.98 2.92
1 8 -4 5.17 5.07
-1 -8 -4 8.38 3.56
1 -8 -4 16.46 8.69
-1 8 4 8.32 1.58
1 -8 -4 11.17 2.83
1 -8 4 14.25 3.71
1 8 -4 8.38 6.7
-1 -8 4 4.11 2.64
-1 8 -4 11.72 3.5
1 8 -4 8.77 3.42
1 -8 4 9.55 3.46
-1 -8 -4 4.58 3.2
1 8 -4 12.83 5.24
1 8 -4 9.97 3.65
-1 8 4 8.19 3.57
-1 8 4 7.25 2.68
1 8 4 15.9 4.44
1 8 4 7.44 2.64
-1 -8 4 13.19 3.96
1 -8 -4 9.32 1.57
1 8 -4 13.69 5.39
-1 8 -4 10.77 3.83
-1 -8 -4 7.76 2.64
1 -8 -4 12.16 5.06
1 8 -4 11.95 3.13
1 -8 -4 11.94 5.21
-1 8 -4 10.25 3.14
-1 -8 4 10.15 2.14
1 -8 4 9.56 3.16
1 8 4 11.92 4.13
1 9 -4 254.44 34.84
1 -9 4 255.32 20.52
1 -9 -4 216.42 18.71
-1 -9 4 239.43 18.4
1 9 -4 256.82 29.52
-1 -9 -4 224.57 21.41
1 -9 -4 220.97 33.13
1 9 4 270.38 22.4
-1 9 -4 267.52 21.4
-1 9 4 268.34 23.12
1 9 -4 247.04 22.38
-1 9 4 270.84 20.79
-1 -9 4 252.94 21.31
1 9 -4 251.23 21.68
1 9 -4 305.85 27.68
1 9 4 293.66 19.45
-1 -9 -4 235.22 21.84
1 -9 4 215.04 20.49
1 9 -4 228.1 24.66
1 9 4 272.35 20.33
-1 9 -4 280.95 23.81
1 -9 -4 248.76 25.22
-1 -9 -4 203.74 18.8
1 9 4 280.66 25.11
-1 9 -4 222.11 18.75
1 -9 -4 243.64 25.11
-1 -9 4 229.71 17.18
1 -9 4 248.67 20.75
1 -10 -4 0.59 1.58
1 -10 -4 2.46 2.94
1 -10 4 0.66 1.93
1 10 -4 2.51 5.21
-1 -10 -4 -0.9 2.15
1 10 -4 -3.72 4.45
-1 -10 4 -0.45 1.08
-1 10 4 -0.93 1.58
-1 -10 -4 2.74 2.18
1 10 -4 1.69 1.75
-1 -10 4 0.76 0.91
1 10 -4 1.33 2.76
1 10 -4 0.88 1.49
-1 10 -4 -0.79 2.3
1 -10 4 0.79 1.63
1 10 4 0.46 1.23
-1 10 4 -0.73 1.95
1 10 4 -0.88 2.11
1 10 4 1.87 1.83
-1 10 -4 -0.96 1.62
1 -10 -4 1.12 1.34
-1 10 4 -0.83 1.4
1 10 -4 3.43 2.37
-1 10 -4 0.54 1.13
-1 -10 4 0.41 1.19
1 -10 -4 -1.24 1.48
1 -10 4 -0.73 1.23
-1 -11 -4 20.37 5.87
-1 -11 4 17.11 3.76
1 -11 -4 13.98 7.43
1 11 -4 19.08 9.5
1 11 -4 21.13 8.01
1 -11 4 12.68 4.31
-1 11 4 16.03 5.02
-1 -11 4 9.11 4.06
1 11 -4 18.39 5.51
-1 11 -4 10.7 4.09
1 11 4 15.87 3.66
1 11 -4 19.53 5.63
1 11 4 20.3 5.73
-1 -11 -4 17.79 5.49
-1 11 4 12.69 4.27
1 11 -4 17.01 6.63
-1 11 4 15.97 5.06
1 11 -4 18.71 5.95
1 11 4 17.52 4.65
1 -11 -4 16.1 5.52
-1 11 -4 20.29 6.57
-1 -11 4 17.61 3.85
1 -11 4 18.43 5.06
1 -11 -4 18.34 6.33
-1 11 -4 42.52 6.43
-1 -12 4 2.66 1.8
-1 -12 -4 6.31 3.98
1 -12 4 0.74 2.18
1 12 -4 2.27 3.83
1 -12 -4 2.2 3.73
-1 12 4 0.95 2.53
1 12 4 3.56 1.93
-1 -12 -4 4.3 3.63
-1 12 -4 3.72 2.73
1 12 4 1.06 2.2
1 12 -4 11.85 5.31
-1 -12 4 -0.9 2.63
1 12 4 1.46 1.75
-1 12 -4 -1.18 3.15
1 12 -4 2.09 2.17
-1 12 4 1.91 2.8
1 -12 -4 7.19 3.89
1 -12 4 0.87 1.81
1 -12 -4 4.13 3.3
-1 12 -4 3.29 2.08
-1 -12 4 3.47 1.83
-1 -13 -4 1846.14 122.33
-1 -13 4 1864.06 115.8
1 -13 -4 1895.7 133.94
1 13 -4 1822.44 133.63
-1 13 -4 2028.6 121.59
1 13 4 2092.65 116.07
-1 -13 4 1837.17 121.05
1 13 -4 2325.79 132.36
1 13 4 2204.81 124.94
-1 13 4 2074.71 122.78
-1 -13 -4 1720.65 121.84
1 13 -4 2174.64 125.04
1 13 -4 1800.67 120.59
-1 13 -4 2091.26 126.64
1 -13 -4 1990.26 121.3
1 13 4 2114.22 119.97
1 -13 -4 2227.78 128.72
-1 13 -4 1980.15 118.16
1 -13 4 2039.48 121.25
-1 -13 4 1980.28 117.26
1 14 -4 2 3.39
-1 -14 -4 8.64 4.67
1 -14 -4 7.81 6.18
-1 -14 4 1.24 2.57
-1 14 4 2.31 3.66
-1 -14 4 1.07 2.87
-1 -14 -4 2.54 3.04
1 14 4 1.14 1.81
1 14 -4 2.52 3.37
-1 14 -4 5.59 4.73
1 14 -4 3.75 2.75
1 14 4 3.45 3.09
1 -14 -4 1.85 2.71
-1 -14 -4 5.69 3.61
-1 14 -4 3.13 2.96
-1 -14 4 3.01 2.85
1 -14 -4 11.85 6.14
1 -14 4 8.33 4.32
-1 -15 -4 1771.66 123.02
-1 -15 4 2001.8 116.51
1 -15 -4 1781.5 128.74
1 15 -4 2048.72 131.8
1 15 4 2099.14 116.07
-1 15 4 2059.09 124.32
1 -15 4 1705.04 114.26
-1 -15 4 1773.04 121.67
1 -15 -4 1990.11 119.09
-1 15 -4 1958.47 127.24
1 15 -4 1918.13 125.58
1 15 4 2194.72 121.26
1 15 -4 1992.17 119.09
-1 -15 -4 1969.4 123.32
1 -15 4 2142.4 123.06
-1 -15 4 2071.74 118.99
1 -15 -4 2343.45 130.42
1 16 -4 -1.68 3.49
-1 -16 4 0.72 2.44
-1 -16 -4 1.45 4.24
1 -16 -4 -1.67 3.99
-1 -16 4 1.23 2.55
-1 16 4 1.34 2.77
1 -16 4 1.15 1.94
1 16 4 3.24 2.33
1 -16 -4 -0.8 2.35
1 16 -4 2.91 4.26
-1 16 -4 3.2 4.28
1 16 -4 1.59 2.13
-1 -16 -4 1.3 3.1
1 -16 -4 -1.58 4.22
-1 -16 4 2.71 2.86
1 -16 4 2.41 2.88
-1 16 4 6.74 3.95
1 17 -4 928.51 64.95
-1 17 4 863.03 61.4
-1 -17 -4 732.25 62.25
1 -17 -4 825.09 63.54
-1 -17 4 792.06 60.3
1 -17 4 716.14 52.18
1 17 4 878.78 54.77
-1 -17 4 945.87 64.57
1 17 -4 821.98 64.26
1 17 4 862.12 61.31
-1 17 -4 756.64 64.59
1 -17 -4 894.2 55.83
1 17 -4 917.98 55.71
1 -17 4 943.46 62.62
1 -17 -4 1143.94 70.18
-1 17 4 827.96 54.01
1 17 4 689.58 52.67
-1 -17 -4 875.11 62.78
-1 -17 4 1009.72 59.95
1 18 -4 7.42 4.19
-1 -18 -4 8.25 4.84
-1 18 4 2.66 3.56
1 -18 -4 1.29 2.67
1 18 4 5.62 3.55
-1 -18 4 1.26 2.14
1 -18 4 3.78 2.15
1 18 4 2.83 2.55
1 18 -4 5.23 2.41
1 18 4 7.88 3.54
1 -18 -4 6.92 3.02
-1 18 -4 1.77 4.24
1 18 -4 1.65 2.8
1 -18 4 3.65 3.57
1 -18 4 2.71 2.81
1 18 4 4.73 2.27
-1 -18 4 1.04 2.16
-1 18 4 4.28 2.03
1 -18 4 2.44 2.03
-1 -18 4 3.76 3.01
1 -18 -4 4.96 4.84
-1 -18 -4 7.21 4.56
-1 19 4 6.82 4.9
-1 -19 -4 12.1 6.55
1 19 4 8.7 3.85
-1 -19 -4 11 4.8
1 19 4 8.18 3.46
-1 -19 4 12.6 5.44
1 -19 4 4.67 2.59
-1 19 -4 6.36 2.36
-1 19 -4 9.21 5.4
1 -19 4 5.99 3.4
1 19 -4 1.74 2.96
-1 19 4 13.66 2.99
1 19 4 4.17 1.9
-1 -19 4 6.58 4.16
1 -19 4 8.55 5.12
-1 -19 -4 4.52 4.04
1 20 4 0.99 2.37
-1 -20 -4 0.63 1.31
-1 -20 -4 1.77 3.66
-1 20 4 1.4 2.36
-1 -20 4 -1.25 2.11
1 20 4 3.05 2.04
-1 20 -4 -1.9 3.94
1 20 -4 5.46 4.35
1 20 4 0.49 1.1
-1 -20 -4 6.26 4.19
1 -20 4 0.7 1.46
-1 -20 4 1.16 3.11
1 -20 4 1.49 2.52
-1 21 4 9.98 5.66
-1 -21 -4 1.81 4.33
1 21 4 7.04 4.35
1 21 4 10.67 4.19
-1 -21 4 7.4 4.43
-1 21 -4 7.82 5.23
1 21 -4 3.78 5.07
-1 -21 -4 1.62 3.37
-1 -21 4 10.85 5
1 -21 4 4.63 4.53
1 22 4 2.01 2.95
-1 -22 -4 5.51 6.59
-1 22 4 -2.89 4.23
-1 -22 4 3.66 3.26
1 22 4 0.76 2.59
-1 22 -4 2 5.84
1 22 -4 1.95 3.3
-1 -22 -4 5 4.46
-1 -22 4 -1.24 4.92
1 -22 4 4.77 3.8
-1 23 4 421.13 39.26
1 23 4 414.61 35.38
-1 -23 -4 305.19 39.13
-1 -23 4 303.41 34.27
1 23 -4 317.97 40.3
-1 -23 4 598.25 41.77
-1 -23 -4 539.75 44.17
1 -23 4 596.26 45.52
-1 -24 -4 5.56 5.43
1 24 4 0.99 3.75
-1 24 4 -1.44 5.18
1 24 -4 -2.04 6.45
-1 -24 -4 3.45 5.06
1 -24 4 -1.66 4.43
1 0 -5 1.97 2.04
1 0 -5 0.65 1.74
1 0 5 -0.52 1.24
1 0 -5 0.71 0.61
-1 0 5 -0.68 1.63
-1 0 -5 1.06 1.41
-1 0 5 -0.59 1.58
1 0 -5 0.69 0.83
1 0 5 -0.43 1.14
1 0 5 1.87 1.25
-1 0 -5 0.42 0.71
1 0 5 0.49 0.82
1 -1 -5 34.52 6.97
1 1 -5 36.82 8.11
-1 -1 -5 30.79 5.02
-1 1 -5 22.45 4.07
-1 1 5 32.83 6.15
1 1 -5 30.94 5.76
1 -1 5 26.03 4.72
1 -1 -5 31.26 5.66
1 1 5 22.85 4.15
1 -1 -5 33.81 6.16
-1 1 -5 23.46 4.74
1 -1 5 22.56 4.3
1 -1 5 28.87 4.63
-1 -1 -5 30.1 5.22
1 1 5 33.08 5.03
-1 1 5 19.42 2.02
1 1 -5 23.68 5.16
-1 -1 5 19.72 4.54
-1 1 -5 24.66 4.08
1 1 5 27.81 4.87
1 2 -5 47.35 10.19
-1 -2 -5 50.03 7.51
-1 -2 -5 56.59 7.04
1 -2 -5 59.01 8.19
1 2 -5 49.42 7.69
1 -2 5 63.9 7.75
-1 2 -5 46.31 6.27
1 2 5 59.86 6.75
-1 2 5 51.39 8.05
-1 -2 -5 44.87 6.77
1 2 5 55.3 6.74
-1 2 -5 54.39 7.29
-1 -2 -5 58.94 5.86
1 2 -5 44.34 7.36
1 2 5 57.08 7.06
1 -2 5 49.2 6.46
-1 -2 5 52.13 7.55
1 -2 -5 54.55 8.48
1 -2 5 68.2 7.63
-1 2 -5 55.32 6.54
1 2 5 63.17 7.88
-1 2 -5 54.16 6.78
1 2 -5 44.85 4.28
1 -2 -5 60.01 8.11
1 3 -5 628.49 46.49
-1 -3 -5 510.8 36.97
-1 -3 -5 568.8 35.6
1 3 -5 525.64 37.15
1 3 -5 580.93 38.32
1 3 5 555.81 34.6
1 -3 5 576.36 36.75
-1 3 5 520.03 37.92
-1 3 -5 531.1 35.22
1 -3 5 497.37 35.03
-1 -3 5 621.04 38.03
1 -3 5 669.81 37.47
1 3 5 599.46 36.03
-1 -3 -5 548.37 33.31
-1 3 -5 532.6 36.44
1 -3 -5 571 38.99
1 3 -5 545.38 37.99
-1 -3 -5 561.18 36.71
-1 3 -5 505.52 34.59
-1 3 -5 536.14 35.27
1 3 5 521.42 36.48
1 3 -5 499.9 31.1
1 -3 -5 593.33 39.01
1 4 -5 78.23 13.49
1 -4 5 44.65 6.45
1 -4 5 39.17 5.92
-1 4 5 28.44 6.03
1 4 -5 34.19 6.25
1 4 5 42.82 5.43
-1 -4 -5 43.35 5.95
-1 4 -5 35.14 5.66
-1 -4 -5 23.78 5.36
-1 4 -5 36.58 6.15
1 4 5 45.38 6.25
-1 -4 -5 32.14 4.33
1 -4 5 58.05 7.58
-1 -4 5 51.81 7.22
1 4 -5 43.59 7.14
1 -4 -5 51.37 7.88
1 -4 5 32.43 5.5
-1 -4 -5 35.08 5.86
1 4 5 37.54 6.29
-1 4 -5 40.27 5.67
-1 4 -5 31.38 5.18
1 -4 -5 53.64 8.62
1 4 -5 39.63 3.49
1 -5 5 1.64 1.6
1 5 -5 1.6 3.82
1 5 5 0.92 1.04
-1 5 5 1.56 1.87
-1 5 -5 4.4 2.18
1 5 5 0.4 1.27
-1 -5 -5 0.69 1.65
-1 -5 -5 1.87 1.37
1 -5 5 2.11 1.55
1 5 -5 5.46 2.58
1 5 5 1.45 1.29
1 5 -5 0.72 1.23
1 -5 5 1.6 1.56
-1 -5 -5 4.08 1.59
-1 -5 5 3.04 1.93
-1 5 -5 4.59 2.22
-1 5 -5 0.97 1.16
1 5 -5 1.77 0.93
1 5 5 1.35 1.4
1 -5 -5 4.54 3.07
-1 5 -5 3.65 1.97
1 6 5 121.7 9.22
1 6 -5 148.52 20.9
1 -6 -5 117.24 8.51
1 -6 5 126.19 12.09
-1 -6 -5 133.98 11.42
-1 -6 -5 117.72 12.9
-1 6 -5 123.64 12.54
-1 6 5 136.46 14.37
1 6 -5 122.61 13
1 -6 5 118.47 11.79
1 6 5 111.49 10.66
1 -6 5 126.15 12.34
1 6 -5 123.54 13.47
-1 6 -5 139.93 13.64
-1 -6 5 139.46 13.01
-1 -6 -5 105.67 9.65
1 6 5 145.54 12.26
1 6 5 118.32 13.03
-1 6 -5 119.55 11.6
1 -6 -5 138.98 15.8
1 6 -5 78.23 7.02
1 6 -5 118.17 9.2
-1 6 -5 126.47 11.16
1 7 5 1.77 0.93
1 -7 5 2.34 2.11
1 7 -5 3.62 4.33
1 -7 -5 3.22 1.35
-1 7 5 3.75 1.43
1 -7 5 1.17 1.41
1 7 -5 4.54 2.56
1 7 -5 4.09 2.59
-1 7 5 3.4 2.69
-1 7 -5 3.11 2.24
-1 -7 -5 1.51 1.57
-1 7 -5 3.43 2.33
-1 -7 5 3.91 2.7
1 -7 5 3.93 2.35
-1 -7 -5 1.88 1.2
1 7 -5 3.22 2.16
1 7 5 4.79 2.39
1 7 -5 1.68 2.84
-1 7 -5 1.56 1.86
-1 7 5 5.79 2.74
1 -7 -5 3.27 3.91
1 7 -5 2.97 1.63
-1 7 -5 0.48 1.28
1 -7 -5 4.35 3.45
1 7 -5 3.72 1.36
-1 7 -5 1.74 1.84
1 7 5 3.29 2.21
-1 -8 5 218.78 16.43
-1 8 5 148.86 12.15
1 -8 5 218.26 17.55
1 8 -5 220.45 27.15
-1 8 5 201.39 15.11
1 -8 -5 221.11 36.09
1 8 -5 122.7 28.13
1 -8 -5 165.18 13.56
1 -8 5 183.2 16.8
-1 8 -5 211.26 17.73
-1 -8 -5 163.95 17.48
1 8 -5 193.1 18.41
1 8 -5 230.17 23.56
-1 8 5 221.27 20
1 8 -5 196.65 18.44
-1 -8 5 222.47 18.82
1 -8 -5 203.96 24.25
1 8 5 174.06 16.27
1 -8 5 205.75 18.27
-1 -8 -5 163.91 14.47
-1 8 5 214.02 18.84
1 8 -5 201.25 24.47
-1 8 -5 195.49 18.98
1 8 5 202.71 19.57
1 -8 -5 201.74 21.51
-1 8 -5 187.73 15.56
-1 8 -5 195.65 17.15
1 -9 5 6.53 3.04
-1 -9 -5 6.91 3.28
1 9 -5 5.89 5.26
1 -9 -5 7.73 2.42
1 9 -5 3.4 4.08
-1 -9 5 7.13 2.88
1 -9 -5 6.73 6.98
-1 9 5 9.57 3.98
1 9 -5 3.39 2.29
-1 9 -5 7.99 3.38
-1 -9 -5 5.14 3.09
-1 9 5 11.81 3.32
1 -9 5 7.04 3.17
1 9 -5 2.6 2.56
1 9 -5 9.4 4.83
-1 9 5 9.06 3.83
1 -9 -5 13.39 5.63
1 9 -5 16.73 6.31
-1 -9 -5 2.42 1.86
-1 9 -5 7.41 3.34
1 9 5 8.46 3.17
1 9 -5 4.8 2.52
1 9 5 6.2 3.51
1 -9 -5 3.76 3.01
-1 9 -5 5.14 2.32
-1 -10 5 10.54 3.38
1 -10 -5 10.7 3.29
1 -10 -5 15.86 9.3
1 10 -5 10.1 6.86
1 10 -5 12.83 8.59
-1 -10 -5 18.5 5.33
1 10 -5 17.02 6.8
-1 10 -5 16.62 4.67
1 -10 5 6.99 3.4
-1 10 5 11.7 3.42
-1 10 5 12.3 4.78
-1 -10 -5 9.3 4.34
1 10 5 11.12 3.63
1 -10 -5 8.74 1.41
-1 -10 -5 12 3.37
1 10 -5 10.14 4.93
-1 10 -5 11.11 4.55
1 -10 -5 14.04 5.6
1 -10 -5 8.86 1.45
-1 10 -5 14.34 3.65
1 10 5 12.65 5.17
1 -10 -5 19.92 6.57
-1 -11 -5 269.14 26.12
-1 -11 5 345.62 23.94
1 -11 -5 253.2 22.57
1 -11 -5 349.52 43.76
1 11 -5 347.52 44.04
1 11 -5 362.9 33.75
-1 11 5 314.26 25.04
-1 -11 -5 320.73 27.85
-1 11 5 350.16 29.49
1 -11 5 269.55 25.45
-1 11 -5 353.28 27.26
1 -11 -5 293.03 30.31
1 11 5 337.39 25.33
-1 -11 -5 280.6 23.21
1 11 -5 290.85 30.34
-1 11 -5 326.35 28.89
1 11 5 365.07 31.47
1 -11 5 293.24 25.24
1 -11 -5 363.64 32.68
-1 -11 5 309.8 21.66
-1 11 -5 288.49 23.26
-1 -12 5 11.7 3.67
-1 -12 -5 16.83 5.5
1 12 -5 11.39 8.36
1 -12 -5 -2.81 4.78
-1 12 5 13.37 4.38
1 12 5 10.33 4.31
-1 -12 -5 8.72 4.15
-1 12 -5 18.99 5.7
1 12 -5 18.55 7.64
-1 12 5 9.23 4.39
1 -12 -5 11.65 5.16
-1 12 -5 16.85 6.46
1 12 -5 3.93 4.18
-1 -12 -5 7.36 3.14
1 12 5 7.67 3.59
1 -12 5 13.91 4.56
-1 12 -5 12.29 3.66
1 -12 -5 7.32 4.98
1 12 5 8.49 4.81
-1 -12 5 9.86 2.85
-1 -13 -5 457.11 40.5
-1 -13 5 560.56 37.53
1 13 -5 459.5 52.45
1 -13 -5 461.4 52.84
-1 13 5 633.29 45.21
1 13 5 575.68 37.47
-1 -13 -5 424.65 40.5
-1 13 5 619.32 41.72
1 -13 -5 595.44 44.53
1 13 -5 498.32 42.57
1 13 5 594.11 40.25
-1 13 -5 572.6 44.83
-1 -13 -5 505.02 37.83
1 13 5 589.94 47.81
1 -13 5 508.92 39.82
-1 13 -5 508.85 37.47
1 -13 -5 687.24 49.48
-1 -13 5 499.08 35.61
1 14 -5 55.67 14.95
1 -14 -5 47.45 14.14
-1 -14 -5 42.03 9.18
-1 -14 -5 30.35 8.78
-1 14 5 37.08 8.87
-1 14 5 33.79 7.93
1 14 5 32.7 6.23
1 14 5 38.24 7.72
-1 14 -5 32.41 9.28
1 14 -5 32.98 8.09
1 -14 -5 34.91 8.35
-1 -14 5 35.6 6.2
1 14 5 37.28 10.52
1 -14 -5 43.91 10.79
1 -14 5 38.12 8.22
1 15 -5 52.12 14.4
1 -15 -5 42.24 12.82
-1 -15 -5 45.04 10.08
-1 15 5 51.27 10.29
1 15 5 55.1 8.18
-1 -15 -5 30.07 9.33
-1 15 5 44.3 10.24
1 15 -5 54.16 10.23
1 -15 -5 46.42 9.61
-1 15 -5 37.44 10.46
1 15 -5 40 10.36
1 -15 5 48.67 9.53
-1 -15 5 61.99 8.62
1 -15 -5 64.77 13.11
-1 -16 -5 2.76 2.34
1 -16 -5 4.38 3.7
1 16 -5 2.2 3.73
-1 16 5 5.62 3.76
-1 -16 5 2.63 3.14
1 16 5 2.77 2.19
-1 16 5 3.81 3.72
1 -16 -5 2.08 2.49
1 16 -5 4.78 4.26
1 16 -5 4.13 3.03
-1 16 -5 1.6 3.32
1 -16 -5 1.66 2.81
1 -16 5 1.19 2.02
-1 -16 5 4.74 2.67
1 17 -5 46.37 12.54
1 -17 -5 46.44 12.55
-1 -17 -5 44.3 10.88
-1 -17 5 48.07 10.75
1 17 5 38.93 7.1
-1 17 5 61.38 12.1
1 -17 5 47.41 7.43
1 -17 -5 46.39 8.84
-1 17 -5 33.95 10.64
1 17 -5 47.55 12.09
1 17 -5 38.93 8.16
1 -17 -5 50.85 12.41
-1 -17 5 44.92 8.31
1 -17 5 55.61 10.97
1 -18 -5 23.83 8.59
1 18 -5 18.07 7.89
-1 -18 -5 15.68 7.37
-1 18 5 22.63 8.74
1 -18 5 17.59 4.72
1 18 5 27.46 5.68
-1 -18 5 26.95 7.83
1 -18 -5 31 6.9
1 18 -5 30.98 6.47
1 18 -5 19.81 8.16
-1 18 -5 16.08 7.51
-1 -18 5 27.24 6.86
1 -18 -5 31.2 9.58
1 -18 5 24.18 7.47
-1 19 5 4.3 3.86
-1 -19 -5 9.9 5.6
1 -19 -5 1.61 3.36
1 19 5 10.41 4.5
1 19 5 7.21 2.96
-1 -19 5 5.39 3.97
1 -19 5 7.36 2.96
-1 19 5 13.97 6.7
1 19 5 10.24 3.73
1 19 -5 1.9 3.23
1 -19 5 12.1 6.01
-1 19 -5 5.18 2.48
1 19 -5 7.37 2.95
-1 19 -5 9.34 5.48
1 -19 -5 17.57 7.59
-1 -19 5 13.11 4.84
-1 -19 -5 12.54 5.64
1 -19 5 11.34 5.37
1 20 5 -2.13 3.12
-1 -20 -5 2.62 3.14
-1 -20 -5 1.7 3.51
1 -20 -5 2.71 3.24
-1 20 5 10.28 5.55
-1 -20 5 4.01 3.92
1 20 5 0.73 2.15
-1 20 5 4.76 5.02
1 20 -5 1.99 4.11
1 -20 5 3.83 3.05
-1 20 -5 -1.94 2.32
-1 -20 5 -1.07 2.56
-1 -20 -5 3.25 3.37
1 -20 5 1.48 2.51
1 -20 -5 1.78 3.01
-1 21 5 309.2 32.74
1 21 5 329.97 29.86
-1 -21 -5 254.52 33.5
-1 -21 5 306.08 31.21
-1 21 5 402.17 37.03
1 21 -5 260.27 35.37
-1 21 -5 225.89 34.69
1 -21 5 427.53 36.43
1 -21 -5 408.95 39.14
-1 -21 -5 381.55 36.24
-1 22 5 13.7 6.38
1 22 5 13.08 5.91
-1 -22 -5 17.29 8.58
-1 -22 5 11.56 5.83
-1 22 5 21.26 7.88
1 22 -5 17.07 9.25
-1 22 -5 18.45 9.22
-1 -22 -5 22.46 8.57
1 -22 -5 23.58 8.99
1 -22 5 38.26 10.13
1 23 5 196.25 22.74
-1 -23 -5 128.47 24.64
-1 23 5 200.21 25.96
-1 23 5 224.71 28.02
-1 -23 5 153.54 22.08
-1 23 -5 171.23 28.97
1 23 -5 166.35 27.32
1 23 5 266.89 36.63
1 -23 -5 303.27 31.83
1 -23 5 300.89 29.87
1 0 -6 49.01 13.84
1 0 -6 28.24 3.21
1 0 -6 41.63 8.06
1 0 6 28.89 6.58
-1 0 -6 41.7 7.08
-1 0 6 27.69 7.51
1 0 6 30.71 5.5
-1 0 -6 41.8 7.3
1 0 6 47.92 7
1 0 -6 29.73 7.17
-1 0 6 25.05 2.96
1 -1 -6 3870.91 211.69
1 1 -6 4024.73 215.54
-1 -1 -6 3573 203.38
1 1 6 3786.41 204.75
-1 -1 6 3664.55 206.47
1 -1 -6 3470.92 205.31
-1 1 -6 3584.83 204.26
1 -1 6 3733.41 204.39
1 1 -6 3542.22 205.71
-1 1 6 3501.39 206.12
-1 1 -6 3406.9 204.02
1 1 -6 3465.07 206.05
1 -1 -6 3515.21 206.67
1 1 6 4055.77 204.18
1 -1 6 3347.64 201.82
-1 -1 -6 3644.63 204.47
1 -1 6 4011.72 204.09
1 1 6 3433.82 201.88
-1 -1 6 3374.72 198.33
1 1 6 3449.39 202.75
-1 1 -6 3814.49 201.81
1 2 -6 46.74 13.89
1 -2 6 19.44 5.11
1 -2 -6 18.35 5.56
-1 2 6 19.22 5.74
-1 -2 6 22.06 5.85
1 2 -6 24.4 5.98
-1 2 -6 29.03 5.17
-1 -2 -6 20.1 5.19
-1 -2 -6 25.05 4.95
1 -2 6 30.85 5.56
-1 -2 -6 22.59 5.29
1 2 6 25.44 5.14
-1 2 -6 22.21 5.11
1 -2 6 17.65 4.15
1 -2 -6 29.22 6.8
1 2 -6 28.4 6.36
1 2 6 17.64 3.93
-1 2 -6 21.77 4.17
1 2 6 13.35 3.79
1 -2 -6 19.74 6.83
-1 2 6 9.48 1.7
-1 2 -6 22.57 4.44
1 2 -6 17.08 2.6
-1 -3 -6 376.36 29.22
1 3 -6 504.8 41.35
1 -3 6 432.32 30.01
-1 -3 -6 394.65 28.24
1 3 -6 409.34 30.87
-1 3 6 369.06 30.24
1 3 6 428.19 27.97
-1 3 -6 392.93 27.96
1 -3 -6 378.7 29.78
-1 -3 6 456.57 30.6
1 -3 6 370.87 27.44
1 3 -6 374.43 30.37
-1 -3 -6 445.29 30.22
-1 3 -6 361.4 28.98
1 -3 -6 392.87 31.58
1 3 6 436.31 28.81
1 -3 6 442.06 29.6
-1 3 6 378.69 24.52
1 3 6 406.94 28.97
-1 3 -6 370.31 26.33
1 -3 -6 401.4 31.32
1 3 -6 367.46 23.45
1 4 -6 10.19 7.07
1 -4 6 11.75 3.83
-1 4 6 16.81 4.78
-1 4 6 13.4 4.42
1 4 -6 12.18 4.39
1 4 6 13.63 3.61
-1 4 -6 10.93 3.51
1 -4 6 18.43 4.48
-1 -4 -6 7.92 3.29
-1 -4 -6 10.26 3.47
1 4 -6 14.34 4.19
1 -4 -6 13.86 4.8
-1 -4 6 14.74 4.08
-1 4 -6 9.34 3.7
1 4 6 13.19 3.56
1 -4 6 24.54 5.05
-1 -4 -6 14.49 2.84
-1 4 6 13.68 4.18
-1 -4 -6 12.02 3.81
1 -4 6 11.56 3.29
1 4 -6 19.34 5.27
1 4 -6 10.21 1.81
1 4 6 14.09 3.99
-1 4 -6 9.12 2.68
-1 4 6 15.18 3.13
-1 4 -6 10.57 3.08
1 -4 -6 16.63 5.34
1 5 6 118.21 10.59
1 5 -6 141.4 21.03
-1 5 6 107.81 13.62
-1 -5 -6 113.52 12.01
1 -5 6 135.35 13.22
1 5 6 134.8 12.09
-1 5 -6 110.81 12.1
-1 5 6 149.45 15.72
1 5 -6 117.1 13.5
-1 -5 -6 110.76 12.89
1 5 6 124.39 12.33
-1 5 6 109.14 12.85
1 5 -6 106.93 13.58
-1 -5 -6 138.21 13.6
-1 5 -6 117.81 13.29
-1 -5 -6 120.99 9.98
1 -5 6 115.72 12.17
1 -5 6 166.41 14.94
1 5 -6 113.6 8.61
1 5 6 109.07 12.79
-1 5 -6 122.46 11.42
1 -5 -6 133.25 16.14
-1 5 -6 117.26 11.39
1 6 6 30.78 4.21
1 6 -6 39.77 11.19
-1 6 6 33.72 7.23
1 6 6 31.51 5.22
-1 6 -6 29.26 5.76
-1 -6 -6 28.09 5.28
-1 -6 -6 29.28 6.15
-1 6 6 25.86 6.12
1 -6 6 24.36 5.54
1 -6 6 30.81 5.78
-1 -6 -6 21.74 3.52
1 6 -6 32.21 6.84
-1 6 -6 35.14 6.86
1 6 6 27.22 5.26
-1 6 -6 25.47 4.79
-1 6 -6 26.11 4.69
1 6 6 29.47 6.26
1 -6 -6 31.04 7.64
1 6 -6 21.71 3.27
1 7 6 236.64 18.28
1 -7 -6 276.79 18.55
1 7 -6 406.45 38.28
-1 7 -6 281.71 23.46
-1 7 6 340.4 27.1
-1 -7 -6 262.58 23.66
1 7 6 311.4 22.24
1 -7 6 269.09 23.04
-1 -7 -6 261.58 19.23
1 7 -6 300.61 25.87
1 7 6 300.61 22.78
-1 7 -6 328.41 25.96
1 -7 6 275.55 23.25
1 7 -6 282.25 34.79
1 -7 -6 322.95 29.42
-1 7 -6 294.6 22.13
-1 7 -6 334.79 22.22
1 7 6 321.62 25.49
1 8 -6 -4.5 10.75
1 8 6 2.58 1.19
1 -8 -6 4 1.75
1 8 -6 10.39 7.03
-1 8 6 3.22 1.48
-1 8 -6 0.8 2.52
1 8 6 5.13 2.73
-1 -8 -6 5.85 3.32
-1 8 6 3.02 3.19
1 -8 6 2.84 2.25
-1 8 -6 4.73 3
1 -8 6 2.29 2.23
1 8 6 7.74 3.27
-1 -8 -6 2.91 1.69
1 8 -6 3.97 4.75
1 8 -6 2.94 2.88
1 -8 -6 7.71 5.65
1 8 -6 1.1 1.92
-1 8 -6 4.32 2.22
1 8 6 -0.94 2.52
-1 8 -6 2.61 2.26
1 8 -6 1.72 0.79
1 8 -6 2.11 0.85
1 -8 -6 -1.28 4.05
1 9 -6 2740.36 203.85
1 -9 -6 2823.75 204.57
-1 9 6 2886.64 154.8
1 -9 -6 2404.13 156.63
1 -9 6 2813.17 163.16
-1 9 6 3235.48 169.02
1 9 -6 3538.74 176.44
-1 -9 -6 2716.96 164.43
1 9 -6 2996.2 167.99
-1 9 -6 3112.75 168.18
-1 -9 -6 2603.4 158
1 -9 6 3000.24 165.18
1 -9 -6 3417.64 180.99
1 9 6 3174.72 163.13
1 9 -6 2978.25 179.13
1 -9 -6 3491.65 174.61
-1 9 -6 2887.97 160.41
-1 9 -6 2982.7 162.76
1 9 -6 2391.97 156.37
1 9 6 3083.17 167.83
1 10 -6 3.97 8.23
1 -10 -6 3.94 6.67
1 -10 -6 4.74 2.78
-1 -10 -6 10.6 4.63
1 -10 6 7.48 4
-1 10 6 8.82 4.78
-1 -10 -6 5.75 3.83
-1 10 -6 12.12 4.88
1 10 -6 6.01 6.24
1 10 -6 7.86 5.04
1 -10 6 4.63 3.35
1 -10 -6 12.17 7.21
-1 10 -6 12.19 5.48
1 10 -6 7.11 5.64
-1 -10 -6 12 3.04
1 10 6 12.94 4.49
1 10 -6 5 3.14
-1 10 -6 11.34 3.74
1 -10 -6 10.02 6.42
-1 10 -6 11.24 4.13
1 10 6 21.65 6.69
-1 -11 -6 1620.92 110.74
1 -11 -6 1852.67 142.81
1 11 -6 1792.44 142.69
1 -11 6 1547.68 109.37
1 11 -6 2155.61 122.66
-1 -11 -6 1683.38 111.48
-1 11 6 2123.34 116.2
1 11 6 2025.97 109.88
1 -11 6 1828.04 112.79
1 -11 -6 2006.35 122.06
1 11 -6 1703.47 119.69
-1 11 -6 1882.33 115.36
-1 -11 -6 1642.6 104.93
1 -11 -6 2192.07 121.37
-1 11 -6 1879.62 110.45
-1 11 -6 1750.05 106.76
1 11 6 2013.27 116.87
-1 -12 -6 5.34 3.38
1 -12 -6 3.48 5.88
1 12 -6 3.49 4.18
1 -12 6 0.99 3.56
1 12 -6 1.62 3.36
-1 12 6 4.23 2.67
-1 -12 -6 1.11 3.24
-1 12 6 2.42 3.23
1 12 6 3.25 2.92
-1 12 -6 3.92 3.13
1 -12 6 1.11 3.75
1 12 -6 6.39 5.73
1 -12 -6 1.58 2.67
-1 -12 -6 0.56 1.65
1 -12 -6 7.81 5.6
1 12 6 1.39 3.72
-1 12 -6 3.24 2.46
-1 13 6 422.94 32.91
1 13 -6 367.54 49.59
1 -13 -6 463.72 54.12
-1 -13 -6 387.56 34.87
-1 13 6 474.01 38.51
-1 -13 -6 369.61 35.08
-1 13 -6 485 40.42
-1 -13 -6 412.44 30.84
1 -13 -6 467.02 40.34
1 13 -6 404.12 38.73
1 -13 -6 533.23 43.44
1 13 6 497.4 41.85
1 -14 -6 3.07 6.36
-1 -14 -6 1.19 2.01
1 14 -6 3.09 3.69
-1 14 6 -1.33 3.55
-1 -14 -6 8.89 4.8
-1 -14 -6 2.09 2.21
-1 14 -6 1.49 3.09
1 -14 -6 1.26 0.87
1 -14 -6 1.4 0.86
1 14 -6 2.85 3.41
1 -14 -6 7.1 4.16
1 -14 -6 1.67 3.46
1 14 6 4.97 3.97
1 15 -6 11.59 8.51
-1 -15 -6 21.39 6.75
1 -15 -6 14.44 8.48
-1 15 6 6.98 4.46
-1 -15 -6 13.66 5.92
1 -15 -6 9.78 2.24
-1 15 -6 8 6.07
1 -15 -6 10.75 5.12
1 -15 -6 9.09 2.27
1 15 -6 9.4 4.85
-1 -15 -6 14.51 4.32
1 -15 -6 17.06 6.79
-1 -15 -6 17.6 6.08
1 15 6 10.71 6.07
1 16 -6 24.38 10.78
1 -16 -6 13.56 8
-1 -16 -6 10.65 5.36
-1 16 6 23.19 7.41
1 -16 -6 16.57 6.16
-1 16 -6 15.35 6.82
1 -16 -6 12.07 2.95
-1 -16 -6 18.29 5.24
1 16 -6 18.99 6.48
1 -16 -6 29.62 9.36
1 16 6 24.99 8.95
-1 -16 6 21.11 4.95
-1 -16 -6 24.26 7.87
1 -17 -6 285.87 37.24
1 17 -6 309.41 38.74
-1 -17 -6 250.33 28.67
-1 17 6 305.62 31.36
1 17 -6 278.55 32.98
1 17 -6 285.74 27.95
-1 17 -6 279.5 32.76
1 -17 -6 289.31 28.15
1 17 6 345.14 37.52
1 -17 6 326.8 29.53
-1 -17 -6 301.2 30.95
1 -17 -6 338.12 35.01
-1 -17 6 299.09 24.67
1 -18 -6 -2.34 4.85
-1 -18 -6 1.49 3.09
-1 -18 6 -1.45 4.9
-1 18 6 1.54 3.69
1 -18 6 3.14 2.82
1 18 -6 4.35 2.91
-1 18 -6 1.89 3.19
1 -18 -6 -0.96 1.72
1 -18 -6 9.02 6.82
1 18 6 -2.18 3.69
1 -18 6 -1.3 2.7
-1 -19 -6 652.52 60.08
1 -19 -6 814.16 68
-1 19 6 850.52 64.01
-1 -19 6 749.92 60.54
1 -19 6 692.03 52.48
1 19 -6 819.9 67.3
1 19 -6 853.03 56.54
-1 19 -6 710.02 64.97
1 -19 6 960.33 62.86
1 19 6 1039.36 75.05
1 -19 -6 1085.26 70.84
-1 20 6 6.23 5.59
-1 -20 -6 4.84 4.32
-1 -20 6 2.88 3.86
-1 20 6 8.15 6.17
1 20 -6 4.18 5.01
-1 20 -6 2.06 4.92
1 20 6 2.4 4.07
1 -20 -6 5.54 6.25
1 -20 6 4.32 4.23
-1 21 6 748.2 60.71
1 21 6 780.78 56.85
-1 -21 -6 597.24 59.02
-1 21 6 800.63 62.82
-1 -21 6 690.59 58.13
1 21 -6 664.72 64.1
-1 21 -6 663.22 64.83
1 21 6 1005.17 76.14
1 -21 -6 1041.14 69.51
1 -21 6 939.57 63.18
1 0 -7 6.01 5.96
-1 0 7 2.75 2.68
-1 0 7 1.01 1.71
1 0 -7 0.16 0.62
-1 0 -7 2.8 2.05
1 0 7 0.77 2.05
1 0 -7 0.96 1.63
1 0 7 1.09 1.31
1 0 7 1.98 2.36
-1 0 7 0.44 0.61
-1 0 -7 2.37 2.68
1 1 -7 303.16 30.96
1 1 -7 229.77 16.53
-1 -1 -7 263.37 22.27
1 -1 -7 309.9 29.06
-1 -1 7 276.43 24.86
1 1 7 241.95 21.94
1 -1 7 274.49 22.78
-1 1 7 280.91 25.13
-1 -1 -7 257.98 21.55
-1 -1 7 300.23 25.06
-1 1 7 272.69 24.04
1 1 -7 231.95 23.21
1 1 7 257.38 20.14
1 -1 -7 257.51 23.99
-1 1 -7 270.98 22.84
1 1 7 304.07 22.48
1 -1 7 250.21 20.17
-1 -1 7 242.81 16.68
-1 -1 -7 275.61 22.94
1 -1 7 313.24 22.55
1 1 7 267.06 20.54
1 1 -7 249.41 17.21
1 -2 -7 3.81 3.72
1 2 -7 1.75 4.19
-1 -2 -7 0.76 1.57
1 -2 7 2.33 2.08
-1 -2 7 1.02 2.1
-1 -2 -7 0.67 1.38
-1 -2 7 1.89 2.26
-1 2 7 1.83 1.55
1 2 7 0.5 1.2
-1 -2 7 1.36 1.13
-1 2 -7 0.81 2.16
-1 -2 -7 0.8 1.91
1 -2 7 3.4 2.44
1 2 7 1.34 2.12
1 2 -7 0.95 1.61
1 -2 7 1.13 1.79
1 -2 -7 3.04 3.21
1 2 7 2.36 1.58
1 2 -7 2.04 1.02
-1 2 -7 1.69 1.65
1 -2 -7 0.87 2.56
1 -3 -7 50.33 9.94
1 3 -7 68.34 14.83
-1 3 7 30.4 7
-1 -3 -7 61.98 8.37
-1 3 -7 44.32 6.95
-1 -3 -7 44.04 7.51
1 -3 7 57.77 8.73
-1 -3 7 64 10.21
-1 3 -7 64.33 9.38
1 3 7 56.06 7.79
-1 -3 -7 51.88 8.5
1 -3 7 32.46 5.97
1 3 -7 49.8 8.95
1 -3 -7 45.5 8.59
-1 -3 7 46.45 5.6
1 3 7 37.81 6.55
-1 3 -7 45.77 6.02
1 3 -7 40.72 4.19
-1 3 7 32.41 3.43
-1 3 -7 46.37 6.67
1 -3 -7 51.3 9.33
1 4 -7 1.96 4.05
1 4 7 1.2 1.61
-1 4 7 -0.94 1.59
1 -4 7 3.02 2.21
-1 4 -7 -0.67 1.79
-1 -4 -7 -0.77 1.31
-1 -4 7 2.13 2.84
-1 -4 -7 -0.68 1.62
1 -4 -7 0.99 2.05
-1 4 -7 2.55 2.49
-1 -4 -7 2.39 1.9
1 -4 7 0.62 1.28
1 4 7 -0.67 1.97
1 4 -7 1.96 2.03
-1 4 -7 1.71 1.45
-1 4 7 1.38 0.99
-1 4 -7 -0.54 1.46
1 4 -7 0.89 0.77
1 -4 -7 -2.13 4.4
1 4 7 0.69 1.66
1 5 -7 4.13 4.28
-1 5 -7 0.7 1.67
-1 -5 7 1.12 1.89
1 -5 7 3.75 2.84
1 5 7 3.57 2.02
-1 -5 -7 2 1.95
-1 5 7 0.96 2.3
-1 -5 -7 6.4 3.17
-1 -5 -7 3.15 2.49
-1 5 -7 4.41 3.16
1 5 7 2.73 2
1 -5 7 1.97 1.57
1 5 -7 5.02 2.94
1 5 -7 1.68 1.03
1 5 7 1.5 1.8
1 -5 -7 -1.16 2.76
-1 5 -7 1.09 1.46
-1 5 -7 1.77 1.4
-1 5 7 2.73 1.4
1 6 -7 53.37 14.12
1 6 7 37.95 5.14
1 -6 7 36.58 6.99
-1 6 7 33.88 7.71
-1 -6 7 46.62 8.81
1 6 7 48.96 6.99
-1 6 -7 34.08 6.75
-1 -6 -7 44.47 7.87
-1 -6 -7 36.91 6.47
1 6 -7 39.39 8.09
-1 6 -7 28.67 6.75
1 6 7 42.17 7.06
1 -6 7 31.98 6.26
1 -6 -7 39.79 9.14
1 6 -7 30.47 3.9
1 6 7 34.09 6.95
-1 6 -7 37.87 5.64
-1 6 7 39.48 5.93
-1 6 -7 37.83 5.98
1 7 7 334.12 26.29
1 -7 -7 426.97 26.73
1 -7 7 462.16 32.97
-1 -7 7 550.11 37.51
-1 7 7 573.49 38.41
-1 7 7 469.36 35.71
1 7 7 492.36 31.37
-1 -7 -7 447.98 32.99
1 7 -7 462.08 49.22
1 -7 7 450.89 32.68
1 7 -7 491.93 36.35
-1 7 -7 454.88 34.7
-1 -7 -7 442.58 27.33
1 7 7 488.42 32.35
1 -7 -7 576.29 52.03
1 -7 -7 523.07 40.02
-1 7 -7 478.16 30.35
1 7 -7 311.59 25.74
1 7 7 404.76 32.66
-1 7 7 445.21 31.39
-1 7 -7 423.64 29.25
1 -8 -7 32.4 4.01
1 8 7 28.72 3.61
1 8 -7 32.58 18.43
-1 8 7 32.12 4.3
1 8 -7 45.73 10.78
1 8 7 31.2 5.96
-1 8 7 25.07 7.38
-1 -8 -7 36.88 7.44
1 -8 7 25.84 6.23
-1 8 7 26.85 6.97
-1 -8 7 28.32 7.26
-1 8 -7 41.01 8.48
1 8 -7 43.22 12.93
1 -8 -7 69.6 16.01
1 -8 7 26.93 6.29
-1 -8 -7 29.17 4.22
1 8 -7 31.48 7.65
1 8 7 31.9 6.44
-1 8 -7 33.32 5.66
1 -8 -7 32.37 8.88
1 8 7 39.08 7.97
1 8 -7 14.52 3.48
-1 8 -7 24.2 4.95
1 -9 -7 178.25 14.31
1 9 -7 326.11 52.31
-1 9 7 206.16 13.83
1 -9 -7 191.52 40.34
-1 -9 -7 240.25 21.81
-1 9 7 321.74 26.92
1 9 7 253.77 19.99
1 -9 7 227.22 21.23
1 9 -7 241.58 27.41
-1 -9 7 254.59 23.57
-1 9 -7 254.97 24.1
1 -9 -7 339.9 35.58
1 9 -7 237.64 31.2
-1 -9 -7 212.22 15.78
1 9 -7 270.9 25.15
1 -9 7 258.36 22.24
1 -9 -7 339.25 29.97
1 9 7 257.85 23.46
-1 9 -7 248.75 19.36
-1 9 -7 257.01 18.93
1 9 -7 142.22 15.11
1 -10 -7 -4.73 0.06
1 10 -7 4.77 8.07
-1 -10 -7 1.01 2.09
1 -10 7 1.82 2.17
-1 -10 7 3.33 2.3
1 10 7 1.42 1.9
-1 10 7 1.23 2.54
-1 -10 -7 4.96 3.14
1 10 -7 3.16 3.27
-1 10 -7 -1.21 1.45
1 10 -7 1.24 2.97
1 10 -7 -2.14 0.06
1 -10 -7 2.08 3.52
-1 -10 -7 1.07 1.2
1 -10 7 2.86 2.55
1 -10 -7 6.21 4.54
-1 10 -7 0.58 1.56
-1 10 -7 0.69 1.65
1 10 7 1.14 2.37
1 11 -7 4.46 9.25
1 -11 -7 8.87 7.5
-1 -11 -7 6.3 3.55
1 11 7 2.27 2.22
-1 -11 -7 5.25 3.55
1 -11 7 0.97 2.59
-1 -11 7 1.12 2.32
-1 11 7 8.87 4.55
1 11 -7 6.57 4.39
-1 11 -7 5.2 3.81
1 11 -7 2.02 3.42
1 -11 7 -1.03 2.46
-1 -11 -7 3.46 1.6
1 -11 -7 7.82 5.23
1 11 -7 5.27 3.86
1 -11 -7 6.46 5.46
-1 11 -7 4.58 2.42
1 11 -7 1.62 1.11
1 11 7 6.25 3.66
1 11 -7 1.15 1.07
-1 11 -7 4.93 2.76
1 12 -7 -4.18 7.06
-1 -12 -7 4.37 3.2
-1 -12 7 2.34 3.12
1 -12 7 -1.04 2.16
-1 12 7 -1.31 2.72
-1 -12 -7 -1.13 2.7
1 12 7 -0.81 2.37
-1 12 -7 1.39 1.67
1 12 -7 -1.41 3.37
1 -12 7 3.36 2.99
1 12 -7 3.78 4.52
-1 -12 -7 0.42 1.24
1 -12 -7 1.67 3.46
1 12 7 1.37 2.84
1 12 -7 0.81 1.36
-1 12 -7 -0.84 1.73
1 -13 -7 11.69 8.08
-1 -13 -7 8.96 4.45
1 13 -7 23.46 12.37
1 -13 7 5.67 3.85
-1 -13 7 2.43 2.93
-1 13 7 6.8 4.32
-1 -13 -7 1.2 3.22
1 -13 7 4.78 3.8
1 13 -7 7.15 4.79
-1 13 -7 14.92 5.93
1 -13 -7 5.3 4.74
-1 -13 -7 5.21 2.29
-1 13 -7 14.68 4.67
1 13 7 4.46 3.57
1 13 -7 6.88 2.59
1 -13 -7 12.08 6.2
-1 -14 -7 1.17 2.43
1 14 -7 14.66 8.76
1 -14 -7 3.66 6.19
-1 -14 7 1.29 2.17
-1 -14 -7 1.28 2.65
-1 14 7 -1.42 3.79
-1 14 -7 4.79 4.27
1 -14 -7 1.68 3.48
1 14 -7 -1.69 4.04
1 -14 7 5.13 3.43
-1 -14 -7 2.72 3.25
1 -14 -7 -1.77 3.66
1 14 7 1.61 3.85
-1 14 -7 2 1.7
1 15 -7 103.03 24
-1 -15 -7 73.71 12.9
1 -15 -7 106.56 24.37
-1 15 7 99.4 15.97
-1 -15 7 56.61 12.23
1 -15 -7 98.42 16.16
1 15 -7 79.93 14.98
1 -15 7 76.5 13.9
-1 15 -7 80.15 15.49
-1 -15 -7 64.37 12.88
1 15 7 94.12 16.74
1 -15 -7 131.21 19.96
1 -16 -7 3.24 5.47
1 16 -7 -3.22 3.85
-1 -16 -7 2.57 2.67
-1 -16 7 2.88 3.45
-1 16 7 1.5 3.6
1 -16 7 5.76 4.22
-1 16 -7 5.44 5.31
1 16 -7 4.5 4.02
1 -16 -7 1.51 2.56
-1 -16 -7 1.5 3.11
1 -16 -7 5.5 5.37
1 16 7 3.75 3.88
1 17 -7 515.43 56.37
-1 -17 -7 395.56 40.54
1 -17 -7 505.12 56.2
-1 17 7 509.85 45.03
-1 -17 7 371.9 42.5
1 17 -7 503.52 43.11
1 -17 7 627.65 48.11
1 -17 -7 545.68 44.2
-1 17 -7 467.73 47.28
-1 -17 -7 539 45.42
1 -17 -7 698.24 52.59
1 17 7 619.71 52.7
1 -18 -7 -2.82 6.73
-1 -18 -7 1.42 3.38
-1 18 7 -1.58 4.22
1 18 -7 1.3 1.56
-1 18 -7 -2.02 5.39
1 -18 7 1.58 4.22
1 18 7 4.26 5.09
1 -18 -7 1.87 3.88
-1 -18 -7 6.52 4.77
-1 -19 -7 149.9 21.76
1 -19 -7 135.42 25.44
-1 -19 7 145.66 21.55
-1 19 7 157.02 22.22
1 19 -7 157.37 25.13
-1 19 -7 135.24 17.8
-1 19 -7 168.89 25.72
1 19 -7 172.53 19.89
1 -19 -7 235.66 28.32
-1 -19 -7 165.22 22.85
1 19 7 182.23 27.35
1 0 -8 -1.85 6.27
1 0 8 6.22 3.36
-1 0 8 8.02 4.33
-1 0 8 3.12 2.49
-1 0 -8 0.81 1.94
1 0 -8 5.54 3.75
-1 0 -8 1.85 2.47
1 0 8 0.58 1.39
1 0 -8 6.7 4.01
1 1 -8 135.34 21.93
-1 -1 -8 140.54 15.08
1 -1 -8 145.42 21.82
1 -1 8 157.8 16.47
1 1 8 133.71 15.44
-1 1 8 141.48 17.42
1 1 -8 126.79 9.7
-1 1 8 175.57 18.14
-1 -1 8 144.1 17.45
-1 -1 8 169.69 18.49
1 1 -8 138.1 16.96
-1 1 -8 159.39 16.73
-1 -1 -8 152.43 16.5
-1 -1 8 122.65 9.74
1 -1 -8 147.85 17.57
1 1 8 138.74 13.09
1 -1 8 146.74 13.91
-1 1 -8 139.14 13.66
1 -1 -8 182.85 18.14
1 1 -8 143.54 10.92
1 -2 -8 1.58 8.25
1 2 -8 2.09 7.48
-1 -2 -8 0.8 1.92
-1 -2 8 3.45 3.9
1 2 -8 2.84 1.49
1 2 8 10.01 4.62
1 -2 8 7.28 4.22
-1 2 8 5.83 4.18
-1 2 8 2.05 3.01
1 -2 -8 5.64 4.05
1 2 -8 6.59 3.95
1 -2 8 1.87 1.68
-1 -2 -8 3.75 3.37
-1 -2 8 3.03 1.45
-1 2 -8 9.36 4.48
1 -2 -8 2.07 4.8
1 2 -8 3.44 1.65
-1 2 -8 5.49 2.64
1 -3 -8 1107.37 77.72
1 3 -8 1373.16 90
1 -3 8 1243.33 72.63
1 3 8 1184.04 71.84
-1 -3 -8 981.92 68.66
-1 -3 8 1275.79 76.05
-1 3 8 1159.15 72.92
1 3 -8 1065.4 72.7
-1 -3 -8 1276 72.77
1 -3 -8 1139.91 73.87
-1 -3 8 979.94 63.39
-1 3 -8 1080.12 71.14
1 -3 8 1040.44 67.3
1 -3 -8 1254.79 75.63
1 3 8 1111.13 67.48
1 3 -8 1033.73 62.01
-1 3 -8 1064.12 66.76
1 4 -8 -6.85 10.92
1 -4 -8 -6.36 10.42
-1 -4 -8 2.46 3.67
1 -4 8 7.02 4.07
-1 -4 8 3.64 5.03
-1 4 8 4.19 4.34
1 4 -8 4.46 5.17
1 -4 -8 7.81 5.34
-1 -4 -8 8.21 4.63
-1 -4 8 -0.81 2.32
-1 4 -8 10.86 5.28
1 -4 8 -0.67 3.23
1 -4 -8 -6.14 9.63
-1 4 -8 13.34 4.28
1 4 8 2.07 2.85
1 4 -8 3.02 2.03
1 -5 -8 2663.93 142.93
1 -5 8 2520.81 138.01
-1 -5 8 2791.98 145.04
-1 5 8 2422.44 139.99
-1 -5 -8 2349.74 136.5
1 5 8 2792.94 136.59
-1 5 -8 2345.68 138.92
1 5 -8 2388.47 140.71
-1 -5 8 2434.88 132.4
1 -5 8 2365.26 135.21
1 5 8 2468.61 135.89
1 5 -8 2154.16 127.75
-1 5 -8 2428.49 133.37
1 -5 -8 2736.54 145.82
-1 5 8 1952.42 128.58
-1 5 -8 2155.95 130.86
1 6 8 1.74 2.38
1 -6 -8 -4.61 8.75
1 6 8 2.1 3.24
-1 6 8 3.28 4.33
1 -6 8 0.87 3.13
-1 -6 8 1.17 3.42
-1 -6 -8 0.84 3.33
1 6 -8 1.26 5.43
1 6 -8 -3.18 10.07
-1 -6 8 3.51 3.05
-1 6 -8 -2.12 3.59
1 -6 8 -0.76 2.22
1 -6 -8 12.23 14.62
1 6 -8 -3.55 4.48
-1 6 -8 3.44 3
-1 6 8 1.61 1.93
1 6 -8 -1.34 2.3
1 6 8 1.63 3.09
-1 6 -8 3.41 2.64
1 -6 -8 -2.8 9.77
1 -7 -8 1168.85 48.38
1 -7 -8 734.54 36.95
1 7 8 818.36 38.41
-1 -7 8 850.2 50.52
1 7 -8 665.1 50.52
1 7 8 931.35 44.82
-1 -7 -8 782.54 45.4
-1 7 8 828.68 49.56
1 -7 8 788.21 46.07
-1 7 -8 743.73 47.75
1 -7 -8 1000.81 73.51
1 7 -8 757.32 68.42
1 7 -8 811.54 50.25
1 -7 8 801.98 44.85
1 7 8 845.86 46.47
1 -7 -8 968.61 57.11
1 7 -8 270.38 33.22
-1 7 8 650.99 39.22
-1 7 -8 742.89 39.15
-1 7 -8 788.44 41.29
1 -8 -8 -6.28 10.62
1 8 -8 -6.37 7.62
-1 8 8 1.42 1.65
1 8 8 2.13 1.31
1 -8 -8 1.34 2.67
1 -8 -8 1.43 1.28
1 8 8 2.85 2.41
-1 8 8 2.33 2.79
1 -8 8 4.64 2.94
-1 -8 -8 8.17 4.06
-1 -8 8 1.17 2.81
1 8 -8 -1.47 3.93
1 8 -8 1.27 2.64
1 8 -8 2.84 4.8
-1 8 -8 3.49 2.79
1 -8 -8 -2.73 5.65
1 -8 8 2.59 2.92
1 8 8 3.87 3.06
1 -8 -8 1.56 6.17
-1 8 8 3.88 2.68
-1 8 -8 0.48 1.63
-1 8 -8 2.31 2.07
1 -9 -8 182.61 43.02
1 9 -8 298.2 53.48
-1 9 8 167.02 12.75
1 -9 8 215.68 20.8
-1 -9 -8 175.83 19.43
1 9 -8 174.35 24.28
1 9 8 242.35 19.54
-1 9 8 189.56 21.91
-1 -9 8 250.18 23.83
1 9 -8 215.08 31.97
-1 9 -8 220.41 22.91
1 9 -8 218.02 23.61
1 -9 -8 273.86 34.52
1 -9 8 210.46 20.31
1 -9 -8 264.55 28.09
1 9 8 226.68 21.8
-1 9 8 218.79 19.66
-1 9 -8 181.54 16.27
1 -10 -8 11.03 11.42
1 10 -8 -5.58 6.67
-1 -10 -8 -1.05 2.51
1 10 8 4.57 2.74
1 10 -8 3.26 3.37
-1 10 8 6.35 3.72
1 -10 8 5.02 3.18
-1 -10 8 4.91 3.6
-1 -10 -8 2.02 2.96
1 10 -8 8.36 4.71
1 10 -8 -2.5 5.99
1 -10 8 2.98 2.91
1 -10 -8 -2.43 2.9
-1 10 -8 1.31 2.22
1 -10 -8 6.74 4.93
-1 10 8 3.68 3.12
-1 10 -8 2.34 2.1
1 10 8 4.55 3.6
1 -11 -8 36.13 17.49
1 11 -8 10.41 10.84
-1 -11 -8 24.73 6.65
-1 -11 8 27.78 7.78
1 11 8 25.5 5.82
1 -11 8 14.82 6.3
-1 11 8 13.28 5.61
-1 -11 -8 25.63 6.85
1 -11 8 25.94 6.81
1 11 -8 7.09 7.01
-1 11 -8 23.89 7.6
1 -11 -8 34.52 11.4
1 11 -8 14.61 6.15
1 11 8 22.31 6.72
-1 11 8 21.25 6.81
1 -11 -8 20.9 7.59
-1 -12 -8 1.1 2.64
1 -12 -8 4.83 5.78
1 12 -8 -4.86 5.81
-1 12 8 2.78 2.88
-1 12 8 4.31 3.43
1 -12 8 5.63 4.04
1 12 8 2.51 2.64
-1 -12 -8 -1.14 3.06
-1 -12 8 5.11 3.74
1 -12 -8 2.16 3.65
-1 12 -8 4.49 3.58
1 -12 8 1.15 3.36
1 12 -8 2.2 3.73
1 12 -8 3.09 3.69
-1 12 8 3.64 3.24
1 12 8 1.35 3.62
1 -12 -8 7.16 5.66
1 -13 -8 954.24 98.06
-1 -13 -8 881.22 65.9
1 13 -8 949.43 97.92
-1 13 8 1110.45 72.77
1 13 8 942.3 64.23
-1 -13 8 891.71 68.52
-1 -13 -8 908.48 67.48
1 -13 8 805.15 67.1
-1 13 -8 975.76 72.59
1 13 -8 942.09 77.21
1 -13 8 1061.38 69.65
1 -13 -8 1111.73 79.69
1 13 -8 1015.62 73.46
1 13 8 1113.74 73.02
-1 13 8 1020.23 71.14
1 -13 -8 1238.04 79.79
1 14 -8 -4.25 7.18
1 -14 -8 4.24 5.07
-1 -14 -8 5.78 3.91
-1 -14 -8 -1.29 3.78
1 -14 8 -1.29 3.45
-1 -14 8 1.39 4.06
1 14 8 0.94 2.97
-1 14 8 1.51 3.62
1 14 -8 -1.72 4.12
-1 14 -8 -1.7 5.38
1 -14 8 1.3 3.11
1 14 -8 -1.96 4.06
1 -14 -8 1.94 3.28
-1 -14 -8 4.34 4.58
1 -14 -8 9.35 7.07
1 14 8 -1.58 4.63
1 15 -8 969.03 95.32
-1 -15 -8 846.9 68.31
1 -15 -8 1021.65 96.91
-1 15 8 1043.16 74.29
1 15 8 1006.13 67.84
1 15 -8 971.49 76.07
1 -15 8 1070.4 73.45
-1 15 -8 970.01 76.53
1 -15 -8 1061.08 77.71
-1 -15 -8 970.31 72.82
1 15 8 1127.31 77.55
1 -15 -8 1272.31 82.45
1 16 -8 3.71 7.69
1 -16 -8 3.73 4.46
-1 -16 -8 2.47 3.61
-1 -16 8 3.06 3.17
1 16 8 1.05 2.81
-1 16 8 3.18 3.29
-1 16 -8 -1.91 4.58
1 -16 -8 1.73 5.07
1 16 -8 3.45 4.13
1 -16 8 2.89 4.57
1 -16 -8 -1.91 6.84
1 16 8 5.49 5.36
-1 -16 -8 -1.58 3.77
1 -17 -8 548.85 62.15
-1 -17 -8 430.96 41.86
-1 -17 8 459.59 46.53
1 17 8 441.33 40.51
-1 17 8 549.45 47.86
-1 17 -8 496.04 49.97
1 -17 8 610.25 48.12
1 17 -8 563.36 47.41
-1 -17 -8 560.54 47.61
1 17 8 631.81 52.58
1 -17 -8 736.55 55.32
1 0 -9 2.18 3.68
-1 0 9 2.55 2.64
1 0 9 1.01 2.1
-1 0 -9 1.7 2.27
-1 0 -9 1.06 1.27
1 0 9 0.58 1.38
1 0 -9 -1.26 3
1 0 -9 2.95 2.63
1 0 -9 0.34 1.21
1 1 -9 57.42 15.11
1 -1 -9 42.82 12.81
-1 1 -9 62.33 9.6
-1 -1 -9 57.67 9.08
1 -1 9 63.82 10.47
-1 -1 9 76.59 12.5
1 1 9 61.95 10.27
-1 1 9 49.86 10.19
-1 1 9 55.08 10.95
1 -1 -9 60.17 11.36
-1 1 -9 66.38 10.78
1 -1 9 51.42 7.65
-1 -1 -9 70.65 11.07
1 1 -9 62.42 11.3
1 1 -9 62.14 10.06
1 -1 -9 50.53 10.63
1 1 -9 49.94 5.67
1 2 -9 2.43 6.51
1 -2 -9 1.88 5.51
1 2 9 9.25 4.26
-1 2 9 4.59 3.89
1 -2 9 12.78 5.7
-1 2 9 5.17 3.79
-1 -2 -9 4.99 2.99
1 2 -9 1.29 0.94
1 2 -9 4.64 2.07
-1 -2 9 15.63 5.83
1 2 -9 6.21 4.46
-1 -2 -9 9.58 4.59
1 -2 -9 8.67 4.69
-1 2 -9 6.48 3.88
1 -2 9 0.67 1.8
1 -2 -9 2.41 4.78
1 2 -9 4.2 1.52
1 2 -9 3.66 3.28
1 3 -9 352.36 26.55
-1 -3 -9 450.08 33.59
1 -3 9 546.94 37.45
-1 -3 9 516.47 39.63
1 3 9 474.4 36.03
-1 3 9 458.95 38.28
-1 3 9 492.32 37.56
1 -3 -9 522.89 39.18
-1 3 -9 468.75 36.37
1 -3 9 461.87 32.33
-1 -3 -9 502.21 36.63
1 3 -9 456.43 37.61
1 3 -9 371.84 30.11
1 -3 -9 537.26 41.57
1 -4 9 2.92 2.61
-1 -4 9 6.88 4.66
-1 -4 -9 5.07 3.2
-1 4 9 4.62 3.65
1 4 9 2.15 3.86
1 -4 -9 11.63 11.35
-1 -4 -9 3.08 3.01
1 -4 -9 1.24 2.57
1 4 -9 4.02 6.8
-1 4 -9 1.12 2.32
1 -4 9 1.45 1.95
1 4 -9 2.55 3.05
1 4 9 2.53 2.28
1 -4 -9 -1.4 6.49
1 4 -9 3.38 2.9
1 5 9 2.26 1.91
1 -5 9 2.9 2.83
-1 -5 9 1.32 1.58
-1 5 9 -1.17 1.98
-1 -5 -9 0.85 1.77
1 5 -9 3.89 3.1
-1 -5 9 1.38 1.24
1 -5 -9 3.69 6.24
-1 5 -9 2.32 2.4
1 -5 9 0.78 1.86
1 5 -9 3.85 4.6
1 5 9 2.82 2.07
1 -5 -9 -1.49 3.98
1 6 9 2.86 1.92
1 6 -9 8.25 9.87
-1 -6 9 6.5 3.82
-1 -6 -9 10.26 3.84
1 -6 9 8.88 3.93
-1 6 9 11.94 4.96
1 -6 -9 3.49 5.91
-1 6 -9 14.4 5.38
1 6 -9 9.27 4.76
1 6 -9 18.36 10.76
-1 -6 9 7.48 2.73
1 -6 9 6.56 3.12
1 6 9 4.7 2.67
1 -6 -9 3.14 4.61
1 -7 -9 68.64 28.91
1 7 -9 54.42 26.37
1 7 9 28.79 4.72
1 -7 -9 31.42 4.31
1 -7 9 38.26 8.33
-1 7 9 32.94 8.38
-1 -7 -9 44.22 8.03
-1 -7 9 40.85 9.38
1 7 9 37.01 7.23
1 -7 9 35.23 7.26
-1 -7 9 49.8 7.43
-1 7 -9 43.7 9.43
1 7 -9 52.01 10.8
1 7 -9 58.83 18.15
1 -7 -9 42.97 15.44
1 -7 -9 50.9 11.79
1 7 9 48.97 8.28
1 -8 -9 7.16 8.56
1 8 -9 -7.29 12.33
-1 8 9 3.76 3
1 -8 9 1.04 2.77
-1 -8 -9 6.46 3.32
1 8 9 3.21 3.04
-1 -8 9 1.3 2.7
1 -8 -9 9.32 7.43
1 8 -9 2.85 2.96
1 8 -9 12.99 8.68
-1 -8 9 3.58 2.27
-1 8 -9 2.61 3.83
1 -8 9 4.6 2.7
1 -8 -9 6.84 5.41
1 8 9 3.77 3.19
1 9 -9 13.63 14.18
1 -9 -9 6.7 13.93
1 -9 9 28.36 7.22
1 9 9 29.24 6.2
-1 -9 9 22.25 7.28
-1 9 9 31.02 8.13
-1 -9 -9 16.74 6.03
1 9 -9 18.41 10.45
-1 9 -9 24.64 7.78
1 9 -9 23.68 7.82
-1 -9 9 28.46 6.65
1 -9 9 19.7 5.79
1 -9 -9 26.46 11.73
1 -9 -9 28.29 9.3
1 9 9 21.67 6.18
1 10 -9 6.36 7.61
1 -10 -9 6.27 7.49
-1 -10 -9 1.07 2.56
-1 -10 9 1.35 2.28
1 -10 9 1.1 2.94
1 10 9 0.82 2.2
-1 -10 -9 3.09 2.75
-1 10 9 -1.34 2.77
-1 10 -9 5.74 3.84
-1 -10 9 0.92 2.45
1 10 -9 14.3 9.05
1 -10 9 3.16 2.81
1 -10 -9 2.75 4.66
1 10 -9 3.09 3.69
1 10 9 -1.13 2.7
1 -10 -9 1.82 4.36
1 11 -9 302.37 54.91
1 -11 -9 275.21 52.9
-1 -11 -9 209.63 23.67
-1 -11 -9 252.85 25.61
-1 11 9 249.94 27.19
-1 -11 9 301.22 28.98
1 11 9 275.09 23.56
1 -11 9 210.46 24.92
1 -11 9 267.13 25.69
1 11 -9 300.9 30.87
1 -11 -9 362.51 40.5
1 11 -9 220.99 34.31
-1 11 -9 223.78 27.15
1 11 9 276.11 26.54
1 -11 -9 384.5 36.83
1 -12 -9 5.47 11.33
-1 -12 -9 1.09 3.45
1 12 -9 5.52 9.34
1 -12 9 8.5 5.62
-1 -12 -9 1.15 3.9
1 12 9 3.48 2.55
-1 12 9 4.38 4.28
-1 -12 9 -1.39 5.25
1 12 -9 3.39 4.54
1 -12 -9 14.81 7.81
1 12 -9 2.54 5.26
1 -12 9 4.83 3.54
-1 12 -9 8 5.41
1 -12 -9 9.52 6.83
1 12 9 5.24 3.51
-1 -13 -9 437.73 38.44
1 -13 -9 557.22 72.29
1 13 -9 453.11 66.19
-1 -13 9 510.73 43.09
1 13 9 471.67 36.86
1 -13 9 399.14 39.84
-1 13 9 501.03 43.3
1 -13 9 486.34 40.74
1 13 -9 496.8 51.04
-1 13 -9 446.23 43.7
1 13 -9 535.58 46.94
1 -13 -9 556.56 51.99
1 13 9 553.63 43.4
-1 -13 -9 473.19 41.97
1 -13 -9 631.43 52.02
1 -14 -9 -4.78 8.08
1 14 -9 -4.8 0.03
-1 14 9 1.59 2.69
-1 -14 9 1.49 3.57
1 -14 9 1.37 3.27
-1 14 -9 1.8 3.72
1 -14 -9 2.19 4.53
1 -14 9 1.36 3.25
1 14 -9 -1.87 3.87
1 14 -9 2.22 5.31
1 14 9 -1.53 2.58
1 -14 -9 1.95 5.21
-1 -14 -9 1.53 3.18
1 -15 -9 -4.47 7.6
1 15 -9 31.37 16.09
-1 -15 9 21.81 7.72
-1 15 9 28.21 9.12
1 15 -9 27.04 9.66
-1 15 -9 26.5 9.63
1 15 -9 13.7 7.44
-1 0 -10 25.87 6.79
-1 0 10 21.01 7.77
1 0 10 25.23 8.43
1 0 -10 28.32 9.94
-1 0 -10 14.47 6.87
1 0 -10 14.51 19.21
1 1 -10 949.91 147.95
-1 1 -10 1200.86 81.95
1 -1 10 1525.72 88.18
-1 -1 10 1334.89 89.23
1 1 10 1358.19 86.17
-1 1 10 1341.4 89.01
-1 -1 -10 1213.94 81.72
1 -1 -10 1381.5 123.45
-1 1 -10 1283.88 86.19
1 1 -10 1363.41 89.29
-1 -1 -10 1396.53 87.54
1 -1 -10 1373.82 89.05
1 -1 -10 1292.76 86.97
1 2 -10 10.88 22.54
1 -2 10 16.83 6.34
-1 -2 10 14.37 6.92
-1 2 -10 6.35 4.28
1 2 10 26.18 7.5
-1 2 10 28.32 8.5
-1 -2 -10 14.36 5.5
1 -2 -10 9.34 18.54
1 2 -10 15.36 6.51
-1 -2 -10 27.98 8.4
1 -2 -10 21.6 7.61
-1 2 -10 9.73 5.5
1 -2 -10 3.93 9.81
1 3 -10 328.23 74.44
1 3 10 268.92 26.74
-1 3 10 285.58 28.22
-1 -3 -10 282.37 24.69
-1 3 10 283.79 29.33
1 -3 10 305.41 27.31
-1 -3 10 312.16 30.61
1 -3 -10 276.36 28.48
1 3 -10 276.43 29.04
-1 3 -10 267.05 27.44
-1 -3 -10 289.83 27.27
1 -3 -10 440.42 57.85
1 -3 -10 372.8 33.53
1 4 -10 -10.2 17.25
1 -4 -10 10.02 11.98
1 4 10 4.87 3.13
-1 4 10 6.36 4.03
-1 4 10 16.1 6.78
1 -4 10 8.54 4.05
-1 -4 10 2.85 3.82
1 4 10 9.41 5.08
-1 -4 -10 6.66 3.74
-1 4 -10 1.26 3.39
1 4 -10 9.97 5.39
1 -4 -10 13.05 12.75
1 4 -10 4.53 7.66
1 -4 -10 7.67 6.87
1 5 -10 204.53 56.43
1 -5 -10 171.71 50.37
1 5 10 144.85 14.16
-1 -5 10 178.07 20.88
-1 -5 -10 145.02 15.88
-1 5 10 143.82 18.53
-1 5 10 138.78 19.42
1 -5 10 143.83 17.44
1 5 10 154.04 18.68
1 -5 -10 169.7 34.52
-1 5 -10 138.62 18.34
1 5 -10 108.22 29.02
1 5 -10 137.61 19.11
1 -5 -10 187.29 23.7
1 6 -10 9.22 15.6
1 -6 -10 27.05 18.68
-1 -6 10 12.5 6
-1 6 10 19.37 6.57
1 -6 10 7.6 4.33
-1 -6 -10 6.91 3.46
1 6 10 11.19 5.38
1 -6 -10 3.91 9.37
-1 6 -10 7.99 4.8
1 6 -10 4.11 8.52
1 6 -10 4.45 4.71
1 -6 -10 6.84 6.79
1 7 -10 199.74 56.29
1 -7 -10 212.19 54.13
-1 -7 10 215.54 24.49
1 -7 10 241.29 23.74
-1 7 10 245.04 25.21
-1 -7 -10 217.5 21.34
1 7 -10 192.95 24.33
1 7 -10 191.63 38.51
1 -7 -10 278.89 41.84
-1 7 -10 215.98 24.59
1 -7 -10 267.14 30.19
1 8 -10 -8.14 21.77
1 -8 -10 7.96 13.47
-1 -8 10 9.74 5.77
1 -8 10 1.11 4
-1 8 10 12.06 5.32
-1 -8 -10 2.8 3.53
1 8 -10 1.56 4.18
1 8 -10 7.33 9.8
1 -8 -10 3.49 9.33
-1 8 -10 4.32 4.87
1 -8 -10 7.36 7.94
1 -9 -10 1428.45 146.05
1 9 -10 1353.11 145.16
-1 -9 -10 1073.68 80.61
-1 9 10 1347.96 86.52
-1 -9 10 1364.22 87.43
-1 -9 -10 1159.89 81.06
1 -9 10 1194.74 83.31
-1 9 -10 1261.61 87.47
1 -9 -10 1532.5 112.07
1 9 -10 1184.23 105.8
1 9 -10 1241.63 88.23
1 -9 -10 1730.19 100.04
1 -10 -10 -6.95 14.38
1 10 -10 7.08 11.97
1 -10 10 -1.19 4.26
-1 -10 10 8.56 5.4
-1 10 10 4.24 4.78
1 10 -10 3.22 8.62
1 -10 -10 3.09 10.44
-1 10 -10 11.01 5.95
1 -10 10 2.19 3.47
1 10 -10 5.07 5.71
1 -10 -10 -3.87 11.09
1 11 -10 757.85 97.89
1 -11 -10 816.2 99.55
-1 11 -10 712.14 57.74
1 11 -10 645.95 67.93
1 11 -10 797.81 60.67
1 -11 10 648.29 53.06
-1 -11 10 742.09 56.73
-1 11 10 713.39 55.81
1 0 -11 12.08 20.43
1 0 -11 5.31 6.35
1 0 -11 4.46 4.35
-1 0 -11 1.32 2.74
-1 0 11 3.08 3.68
1 0 11 1.29 4.63
1 1 -11 144.6 53.17
1 -1 -11 191.65 63.45
-1 1 -11 210.58 23.88
1 -1 -11 214.91 43.1
1 1 -11 223.6 25.27
-1 -1 -11 201.51 22.76
1 -1 -11 184.56 23.24
1 1 11 213.72 23.1
-1 1 11 212.34 24.76
1 -1 11 241.69 23.97
-1 -1 11 196.66 24.33
-1 -2 11 11.01 6.26
1 2 11 11.32 5.02
-1 2 11 18.37 7.79
1 -2 11 5.92 4.05
1 2 -11 14.12 6.79
1 -2 -11 7.27 4.95
-1 2 -11 16.2 6.28
1 -2 -11 20.69 16.37
-1 -2 -11 7.51 4.99
-2 0 0 5258.93 302.56
-2 0 0 4068.89 320.57
-2 0 0 7410.12 304.21
-2 0 0 5639.07 298.71
-2 0 0 5396.25 308.84
2 0 0 4059.91 319.88
-2 0 0 5786.08 301.48
-2 0 0 4428.51 320.74
-2 0 0 4261.05 308.51
-2 0 0 5679.02 298.66
2 0 0 4266.21 308.45
-2 0 0 4218.53 307.46
-2 0 0 5194.21 299.91
-2 0 0 5775.29 302.69
-2 1 0 4.78 5.72
2 -1 0 4.15 2.06
-2 -1 0 2.8 1.85
-2 1 0 1.21 2.17
-2 -1 0 4.33 2.07
-2 1 0 2.11 1.67
-2 -1 0 -2.39 4.04
-2 -1 0 6.13 4.05
-2 1 0 2.53 3.03
-2 -1 0 1.71 0.82
-2 1 0 1.15 4.36
-2 -1 0 2.41 1.44
-2 -1 0 0.29 0.47
-2 1 0 1.68 1.34
-2 -1 0 -1.15 3.36
-2 1 0 3.13 3.3
-2 1 0 2.8 1.77
2 1 0 1.16 2.41
-2 1 0 4.43 5.93
-2 -1 0 0.9 1.08
-2 1 0 1.71 1.18
2 1 0 -2.41 4.07
-2 -1 0 1.05 2.82
2 -1 0 -2.44 5.84
-2 -1 0 2.26 6.6
2 -1 0 4.66 3.94
-2 2 0 1059.24 86.76
-2 -2 0 1104.15 67.02
-2 2 0 1132.97 69.91
-2 -2 0 1188.46 63.95
-2 -2 0 1050.56 66.37
-2 2 0 986.9 65.37
2 -2 0 1249.32 68.15
-2 -2 0 1107.3 63.99
-2 2 0 1270.74 71.4
2 2 0 1059.55 63.25
-2 -2 0 1187.55 74.97
-2 -2 0 1165.97 63.42
-2 -2 0 1100.48 62.39
-2 2 0 1158.2 87.02
2 2 0 1114.62 62.57
-2 -2 0 1115.76 66.33
-2 2 0 1124.66 64.73
-2 -2 0 1094.19 74.59
2 2 0 1094.64 86.52
2 -2 0 1161.62 75.23
-2 -2 0 1176.74 74.43
-2 2 0 1069.23 64.58
-2 -2 0 1149.82 67.01
-2 2 0 1042.83 66.65
-2 -3 0 0.43 0.5
-2 3 0 2.32 4.81
-2 3 0 -0.81 1.37
-2 -3 0 1.2 1.61
2 -3 0 -0.54 0.91
-2 -3 0 2.09 1.53
-2 -3 0 -1.18 1.41
-2 -3 0 0.98 0.74
-2 3 0 1.96 1.91
-2 -3 0 -0.25 0.66
-2 -3 0 0.24 0.5
-2 -3 0 -0.5 0.84
2 3 0 -0.23 0.63
-2 -3 0 0.71 0.45
-2 3 0 1.17 0.92
-2 -3 0 0.47 0.96
-2 -3 0 1.11 2.3
2 3 0 0.14 0.38
-2 3 0 0.51 1.06
-2 -3 0 -1.03 2.13
2 -3 0 1.13 1.92
-2 3 0 -2.12 4.4
-2 3 0 0.67 0.9
-2 -3 0 -0.46 1.09
2 3 0 -2.3 3.9
-2 -4 0 436.63 35.2
-2 4 0 572.87 39.47
-2 -4 0 448.94 48.81
-2 4 0 568.74 52.43
2 -4 0 672.75 36.63
-2 -4 0 581.54 32.72
-2 -4 0 477.56 34.32
-2 -4 0 490.83 30.18
-2 4 0 574.22 35.49
2 4 0 548.11 32.19
2 4 0 463.95 31.34
-2 -4 0 519.18 42.6
2 4 0 617.13 53.63
-2 4 0 582.27 51.23
2 4 0 475.02 30
-2 -4 0 545.87 51.09
-2 4 0 508.71 32.06
-2 4 0 544.65 41
-2 -4 0 593.3 41.73
2 -4 0 560.42 41.26
-2 4 0 597.47 40.97
-2 -4 0 517.97 39.84
-2 4 0 506.54 32.85
-2 -4 0 518.14 34.25
-2 -5 0 -2.17 2.59
-2 5 0 -2.18 3.69
-2 -5 0 -0.78 1.31
-2 5 0 0.98 2.03
2 -5 0 -0.6 1.02
-2 -5 0 -1.31 3.13
-2 5 0 -0.44 1.19
2 5 0 0.59 0.7
-2 -5 0 0.43 0.88
2 5 0 0.34 0.7
-2 -5 0 -0.59 1.4
2 5 0 0.19 0.45
-2 5 0 2.12 2.19
-2 -5 0 -2.12 3.59
-2 5 0 1.98 2.37
-2 -5 0 -1.03 1.23
2 -5 0 -1.07 1.81
-2 5 0 0.92 2.2
-2 5 0 0.41 1.1
2 5 0 2.14 3.61
2 -5 0 -2.3 3.88
2 5 0 -1.06 2.52
-2 -5 0 -0.96 0.01
2 -6 0 199.73 17.89
-2 6 0 190.98 27.22
-2 -6 0 186.4 19.17
-2 6 0 204.02 21.73
-2 -6 0 188.29 27.13
2 6 0 213.96 16.21
-2 -6 0 228.12 18.64
-2 6 0 253.17 15.99
-2 -6 0 215.92 24.17
2 6 0 205.16 15.32
2 -6 0 194.1 16.01
2 6 0 186.76 14.08
-2 -6 0 224.76 28.99
2 6 0 177.69 26.51
-2 6 0 242.98 22.58
-2 -6 0 221.84 21.4
-2 6 0 235.98 29.06
2 -6 0 206.66 28.91
2 -6 0 223.44 21.85
2 6 0 219.51 21.64
-2 6 0 219.84 20.73
-2 -6 0 208.59 20.88
-2 6 0 210.93 16.65
-2 7 0 -2.01 3.4
-2 -7 0 1.97 3.33
2 -7 0 2.08 1.43
-2 7 0 -1.12 2.32
-2 -7 0 0.97 1.63
-2 7 0 0.36 0.81
2 7 0 -0.39 0.94
2 7 0 2 1.79
-2 -7 0 -1.42 2.41
-2 -7 0 -0.71 1.71
2 7 0 1.19 1.07
-2 -7 0 0.94 2.24
-2 7 0 -0.98 1.66
-2 7 0 1.82 3.07
2 -7 0 -0.47 1.13
-2 -7 0 -1.95 4.67
-2 -7 0 -0.88 1.82
2 -7 0 -2.14 3.62
-2 7 0 0.53 1.41
-2 7 0 0.83 2.23
2 7 0 1.95 2.33
2 -7 0 1.01 2.4
2 7 0 1.94 2.32
-2 -8 0 2349.69 158.01
-2 8 0 3091.65 163.38
2 -8 0 3208.43 157.7
-2 -8 0 2412.71 167.9
-2 8 0 2920.75 173.16
2 8 0 2807.27 152.47
-2 -8 0 2666.95 156.17
2 8 0 2537.24 148.21
2 8 0 2788.75 154.14
2 -8 0 2754.79 173.11
2 8 0 2620.59 151.01
-2 -8 0 2691.98 170.24
-2 8 0 2690.7 158.5
-2 8 0 2753.32 169.81
2 -8 0 2800.04 153.18
2 8 0 2801.24 170.7
-2 -8 0 2690.96 157.75
2 8 0 2759.44 158.57
-2 -8 0 2536.98 156.46
-2 8 0 2350.39 155.83
-2 8 0 2684.75 153.86
2 -8 0 2751.7 158.85
-2 -9 0 3.86 3.33
-2 -9 0 5.27 5.15
-2 9 0 1.49 3.08
2 -9 0 4.09 3.53
-2 9 0 1.82 3.08
-2 -9 0 1.19 2.85
-2 9 0 4.93 5.1
2 9 0 3.29 1.56
2 9 0 0.7 3.15
-2 -9 0 6.16 3.65
-2 9 0 0.89 3.38
-2 -9 0 2.5 2.83
2 9 0 4.78 2.5
2 -9 0 4.72 2.55
-2 -9 0 -1.73 5.47
2 -9 0 4.84 3.35
-2 9 0 4.67 3.48
2 -9 0 1.96 3.31
2 -9 0 5.54 4.13
2 9 0 4.4 3.16
2 9 0 6.85 5.42
-2 10 0 4480.82 229.67
-2 -10 0 3714.19 225.79
-2 -10 0 3629.35 230.31
2 10 0 4154.51 226.39
-2 10 0 4336.66 234.77
2 10 0 3620.1 219.65
2 10 0 3730.89 212.56
-2 -10 0 3521.62 221.31
2 10 0 3875.84 217.39
2 -10 0 4198.69 235.69
-2 -10 0 4043.12 220.21
2 -10 0 4093.81 218.79
-2 10 0 3890.08 220.84
2 -10 0 3860.45 221.28
2 -10 0 3501.17 220.49
2 10 0 3772.71 220.48
-2 -11 0 -1.54 1.84
2 11 0 2.65 3.17
-2 11 0 8.06 5.1
2 -11 0 0.94 3.19
-2 11 0 1.32 4.17
-2 -11 0 1.43 2.96
-2 11 0 0.84 2.46
-2 -11 0 1.56 4.58
2 11 0 -0.9 3.4
-2 -11 0 2.14 2.86
-2 11 0 0.78 2.09
2 -11 0 1.5 2.2
2 11 0 -0.7 2.22
-2 -11 0 0.71 2.26
-2 11 0 4.87 3.5
2 -11 0 1.99 2.91
2 11 0 3.72 4.19
-2 -12 0 1303.35 93.59
2 12 0 1555.72 96.21
-2 12 0 1722.69 91.78
2 -12 0 1317.84 89.08
-2 12 0 1581.52 97.61
2 12 0 1288.82 88.4
-2 -12 0 1222.43 89.95
-2 -12 0 1365.72 96.17
2 12 0 1358.68 87.04
-2 -12 0 1324.73 84.9
-2 12 0 1458.43 86.58
2 -12 0 1318.14 87.5
2 -12 0 1413.07 90.46
2 12 0 1688.12 97.44
-2 12 0 1580.83 89.97
-2 -13 0 1.29 2.68
2 -13 0 -1.08 2.24
2 13 0 -1.54 3.18
-2 13 0 3.17 2.82
-2 13 0 1.35 2.28
-2 -13 0 -1.28 2.66
2 13 0 2.13 3.11
-2 -13 0 -1.62 2.74
2 13 0 -0.92 1.91
-2 13 0 0.65 1.75
-2 -13 0 2.34 1.85
-2 13 0 1.9 2.54
2 -13 0 2.32 2.77
-2 -13 0 -0.82 2.42
2 -14 0 148.86 18.43
-2 -14 0 154.45 18.88
-2 14 0 151.32 18.9
2 14 0 111.97 16.9
-2 -14 0 178.41 23.2
2 14 0 129.36 16.88
-2 14 0 168.62 14.84
-2 -14 0 148.44 13.73
-2 -14 0 161.59 17.6
2 -14 0 162.04 19.6
2 15 0 0.82 1.1
2 -15 0 -1.17 1.39
-2 -15 0 1.02 2.43
-2 15 0 1.29 1.54
-2 15 0 -1.02 2.12
2 15 0 -1.13 1.9
-2 15 0 0.48 1.15
-2 -15 0 -0.44 1.5
-2 -15 0 -0.98 2.03
2 -15 0 1.33 1.59
-2 16 0 105.42 15.31
2 16 0 42.23 6.81
-2 16 0 126.16 17.6
2 -16 0 92.47 13.61
2 16 0 42.53 10.55
-2 -16 0 79.78 12.08
2 -16 0 95.34 14.83
-2 17 0 1.43 3.83
2 17 0 -0.5 1.89
-2 -17 0 -2.1 2.51
-2 17 0 -2.95 4.31
2 17 0 -1.3 4.65
2 -17 0 -2.94 4.65
-2 -17 0 2.23 3.27
2 -18 0 1120.79 82.05
-2 -18 0 1113.92 90.87
-2 18 0 1620.43 90.81
2 18 0 958.97 81.49
-2 -18 0 1374.81 83.58
2 -18 0 1446.32 88.82
-2 -19 0 2.22 4.59
2 -19 0 6.31 5.23
-2 19 0 1.5 5.08
2 19 0 1.43 2.42
2 -19 0 1.59 4.25
-2 -19 0 -1.23 4.18
2 -20 0 1641.46 87.8
-2 20 0 1367.02 87.61
-2 -20 0 938.2 88.85
2 20 0 955.6 82.95
-2 -20 0 1266.48 83.42
2 -20 0 1289.36 87.96
-2 21 0 1.51 4.76
-2 -21 0 -2.3 6.75
2 -21 0 2.52 4.27
2 21 0 1.54 4.11
2 -21 0 -3.42 5.41
-2 -21 0 -1.32 3.15
2 -22 0 626.55 45.47
-2 22 0 599.9 48
-2 -22 0 422.56 50.74
2 22 0 402.72 44.12
2 -22 0 609.77 50.24
-2 -22 0 567.23 45.48
-2 23 0 -4.49 5.07
-2 -23 0 4.76 5.69
2 -23 0 -2.44 3.58
2 23 0 1.61 3.33
2 -23 0 -1.78 3.68
-2 -23 0 2.76 2.86
-2 24 0 13.41 7.4
-2 -24 0 4.84 7.15
2 24 0 14.63 8.74
2 -24 0 32.41 10.14
-2 -24 0 29.46 8.27
-2 25 0 1.47 3.04
2 -25 0 3.23 3.35
2 25 0 1.63 3.37
2 -25 0 -1.84 3.81
2 25 0 2.82 5.85
2 0 -1 2.67 3.19
-2 0 -1 0.55 0.57
-2 0 1 -2.47 4.17
2 0 1 0.48 1
-2 0 -1 -0.42 0.86
-2 0 1 0.49 1.02
2 0 1 4.48 3.03
2 0 1 2.33 1.36
-2 0 1 0.36 0.74
-2 0 -1 -0.37 0.63
-2 0 1 -1.17 2.8
2 0 -1 -1.28 1.53
-2 0 1 0.53 0.78
-2 0 1 -2.3 2.75
2 0 1 2.41 2.03
2 0 1 0.54 1.45
-2 0 1 -1.11 1.87
-2 0 -1 0.5 0.6
-2 0 1 0.45 0.6
2 0 1 2.6 3.11
-2 0 1 0.41 0.7
2 -1 1 3.37 1.9
-2 1 -1 0.37 0.76
-2 -1 1 4.89 5.06
-2 -1 -1 0.4 0.68
2 -1 1 0.51 0.86
2 -1 -1 -2.64 0.04
2 1 -1 -2.68 0.04
-2 -1 1 0.51 1.05
2 1 1 1.63 1.38
-2 1 -1 1.68 1.12
-2 1 1 2.47 2.95
-2 -1 -1 2.15 1.36
2 -1 1 0.77 1.85
-2 -1 1 0.34 0.81
-2 -1 1 1.13 1.11
-2 -1 1 2.79 1.23
2 1 1 1.01 1.71
-2 -1 1 0.72 0.96
2 1 1 0.96 0.99
-2 1 1 1.16 0.92
2 1 -1 1.29 1.54
2 -1 -1 0.38 0.64
2 -1 -1 1.27 2.15
-2 1 1 -1.17 1.4
-2 -1 1 1.16 1.96
2 -1 1 0.88 0.92
2 1 -1 0.28 0.59
-2 -1 1 0.5 0.52
-2 1 -1 2.8 1.39
-2 1 1 1.26 0.84
-2 -1 -1 0.4 1.08
-2 -1 1 -0.39 0.8
2 1 1 2.58 4.37
2 1 -1 0.43 0.88
-2 1 1 -2.26 3.83
-2 1 1 1.7 1.14
2 -1 -1 2.42 1.16
-2 1 1 -1.1 1.86
2 1 1 0.55 1.13
-2 1 -1 0.51 0.86
2 1 1 2.41 2.49
-2 1 1 0.77 0.75
-2 -1 1 0.81 0.97
-2 -1 -1 0.49 1.01
2 -1 1 3.57 2.85
2 -1 1 2.59 3.1
-2 -1 1 0.63 0.67
-2 -1 1 2.32 4.8
2 -1 1 2.18 1.73
-2 1 -1 1.02 1
-2 -1 1 -1.11 2.31
2 2 1 17.51 3.12
-2 2 1 26.92 10.58
-2 2 -1 15.57 3.46
2 -2 1 17.85 4.44
2 2 -1 21.4 9.62
2 -2 1 7.96 2.79
-2 -2 1 12.62 3.6
-2 -2 -1 14.13 3.25
-2 -2 1 14.29 2.76
2 -2 1 16.03 4.19
2 2 1 15.38 1.85
-2 -2 1 9.51 2.43
-2 -2 1 12.34 2.83
-2 -2 1 14.38 2.78
-2 -2 -1 16.67 3.77
-2 -2 -1 13.43 1.82
-2 -2 -1 17.8 5.69
-2 -2 1 15.88 5.3
-2 -2 1 15.18 2.52
-2 2 1 13.33 2.68
-2 2 -1 12.17 2.56
2 -2 1 12.83 2.99
2 -2 -1 15.02 5.45
2 2 -1 16.75 2.69
-2 -2 -1 13.28 3.08
-2 2 1 17.85 2.87
2 -2 -1 14.65 2.93
-2 2 -1 9.91 2.95
2 2 -1 10.39 2.74
-2 -2 1 14.46 5.03
2 2 1 12.2 3.33
-2 2 1 10.65 2.8
-2 2 1 11.19 2.5
2 2 1 12.66 6.81
-2 -2 1 16.47 3.3
-2 2 -1 13.28 2.84
2 -2 -1 10.29 2.38
-2 -2 -1 12.83 3.26
-2 2 1 17.77 8
2 -2 1 25.87 6.93
-2 -3 -1 243.08 19.06
-2 -3 -1 145.17 16.04
2 3 -1 236.58 17.45
2 -3 1 241.34 20.82
-2 -3 1 252.4 20.42
-2 3 -1 248.06 19.36
2 3 -1 265.08 34.68
2 -3 1 212.92 18.31
2 3 1 221.02 15.61
-2 3 1 274.57 33.96
2 3 1 237.53 14.82
-2 -3 1 234.66 16.51
-2 -3 1 242.59 16.19
2 3 -1 215.55 16.25
-2 -3 1 238.36 16.87
-2 -3 1 248.02 17.95
-2 -3 -1 227.1 24.21
2 -3 1 247.73 18.62
-2 -3 1 236.69 15.56
-2 -3 -1 219.73 17.7
-2 3 1 239.8 15.88
2 3 -1 235.16 15.87
2 3 1 229.28 31.91
2 -3 1 237.35 17.59
-2 3 1 223.67 16.77
-2 -3 1 253.79 24.07
-2 3 1 219.18 29.41
-2 3 -1 251.54 16.66
2 -3 -1 225.45 16.62
-2 3 -1 222.35 18.43
2 -3 1 227.23 17.34
-2 -3 1 224.08 23.04
-2 -3 1 240.99 17.54
2 -3 1 235.97 23.69
-2 3 -1 219.41 16.68
2 3 1 244 19.16
2 3 -1 216.97 17.39
2 -3 -1 228.97 16.72
-2 -3 -1 243.37 18.44
-2 3 1 245.06 16.98
-2 4 1 126.62 9.86
-2 4 1 113.12 20.88
-2 4 1 95.82 11.92
-2 -4 1 85.88 11.36
2 -4 1 117.02 11.43
2 -4 -1 90.69 10.07
2 4 1 86.11 6.95
-2 4 -1 88.89 10.82
-2 -4 -1 97.56 9.83
2 4 -1 112.32 22.17
-2 -4 1 104.38 20.15
2 4 -1 81.8 9.07
2 4 1 87.85 7.64
-2 -4 1 92.14 8.42
-2 -4 1 79.21 9.1
2 4 -1 81.77 8.17
-2 -4 1 89.21 7.76
-2 -4 1 92.63 8.65
-2 -4 1 90.38 13.2
-2 -4 -1 89.1 10.23
2 -4 1 85.14 8.45
-2 -4 -1 98.94 14.91
2 4 -1 86.52 8.55
-2 4 -1 97.62 8.41
2 -4 -1 86.43 8.25
2 4 -1 88.54 7.75
-2 4 1 118.27 14.92
-2 -4 1 87.38 12.95
-2 4 1 92.67 7.64
2 -4 1 70.61 8.39
-2 -4 -1 84.8 9.45
-2 4 1 109.37 19.43
-2 -4 1 90.14 7.44
2 -4 1 77.39 8.83
-2 -4 1 96.02 19.16
-2 4 1 108.16 13.94
-2 -4 1 86.59 12.93
2 -4 1 90.87 13.26
2 4 1 89.57 10.21
2 4 -1 89.3 9.25
2 -4 -1 74.12 8.34
-2 -4 -1 86.5 9.7
2 4 1 83.03 17.69
-2 -4 1 76.68 8.71
-2 4 1 80.48 8.65
-2 4 -1 85.92 8.6
-2 -5 -1 11.34 3.12
-2 -5 1 8.73 5.24
-2 5 1 11.46 7.76
-2 -5 1 7.34 3.33
2 5 1 9.53 1.5
-2 -5 -1 6.53 2.79
2 -5 -1 13.09 3.52
-2 5 1 8.95 3.58
-2 5 1 7.29 2.11
2 -5 1 6.8 2.97
-2 5 -1 9.66 3.64
2 5 1 9.12 1.76
2 5 -1 11.64 2.43
-2 -5 1 10.55 4.46
2 5 1 11.05 2.68
-2 -5 1 9.86 2.55
2 5 -1 11.43 2.75
-2 -5 1 9.12 2.94
2 5 -1 5.43 2.4
2 5 1 10.18 3.32
-2 -5 -1 14.07 5.6
2 5 -1 7.29 2.22
2 5 1 10.85 5.15
-2 -5 -1 11.78 3.54
2 5 1 8 1.24
-2 5 1 5.46 3.24
-2 -5 1 11.34 2.29
2 -5 -1 8.58 2.32
2 5 -1 11 2.33
-2 -5 1 18.36 5.61
-2 5 1 10.14 5.45
2 5 1 4.55 4.74
-2 5 1 13.83 4.6
-2 5 1 11.54 3.09
-2 -5 1 13.44 7.59
2 -5 1 9.6 4.06
2 5 1 12.13 4.78
2 -5 -1 7.33 2.46
-2 -5 1 10.6 4.23
-2 5 -1 9.55 2.58
2 5 1 9.8 3.26
2 -5 1 12.9 3.25
2 -5 1 23.45 8.88
2 5 -1 10.99 3.17
-2 6 1 6.11 2.11
-2 -6 1 10.44 6.63
-2 6 1 2.2 5.3
-2 6 1 13.6 4.53
-2 -6 -1 8.87 3.52
-2 -6 1 7.25 3.54
-2 -6 1 8.36 1.25
2 -6 -1 16.07 4.08
2 -6 1 5.27 2.6
-2 -6 -1 13.19 3.52
-2 6 -1 11.81 4.24
2 6 1 12.72 5.63
2 6 -1 11.73 2.52
-2 -6 1 13.58 5.35
2 6 1 14.69 3.35
2 6 1 9.79 2.03
2 6 -1 13.28 3.04
2 6 -1 9.97 3.05
-2 -6 1 14.76 3.25
2 6 1 12.55 3.75
-2 -6 -1 11.78 3.65
2 6 -1 10.7 3.33
-2 -6 1 11.71 3.52
-2 6 1 10.52 4.21
-2 -6 1 13.62 4.54
2 -6 -1 10.17 2.53
2 6 -1 12.17 2.61
2 6 1 9.79 1.81
-2 -6 1 14.34 4.93
-2 6 1 9.74 5.73
2 -6 1 7.16 3.71
2 6 1 12.68 5.08
-2 6 1 15.07 3.81
2 -6 1 11.24 6.6
-2 6 -1 13.53 3.28
2 -6 1 11.38 3.31
-2 6 1 6.63 3.62
-2 -6 1 19.59 8.25
2 6 -1 10.03 3.12
2 6 1 5.75 2.9
2 6 1 4.32 4.51
-2 7 1 326.4 35.78
2 7 1 266.29 22.49
-2 -7 1 295.54 33.72
-2 7 1 262.42 25.02
-2 -7 -1 252.92 23.39
-2 -7 1 264.97 16.34
-2 7 -1 317.19 26.25
2 -7 -1 206.16 20.28
-2 -7 -1 253.34 21.04
2 -7 1 312.36 24.71
-2 -7 1 277.31 26.27
2 7 1 266.05 21.4
-2 -7 1 274.37 20.82
-2 -7 -1 237.46 21.9
2 7 -1 262.44 20.15
2 7 -1 251.55 22.27
2 7 -1 268.02 18.64
2 7 1 317.44 30.61
-2 -7 1 243.31 22.01
2 7 -1 284.09 21.07
2 -7 -1 271.63 19.61
-2 7 1 326.7 26.68
-2 -7 1 276.28 24.46
2 7 1 308.09 34.16
-2 7 1 312.77 33.19
-2 -7 1 306.24 34.58
2 -7 1 294.63 34.55
2 7 -1 257.36 19.22
-2 7 1 292.16 22.32
-2 7 1 274.3 24.45
-2 -7 1 274.22 25.16
2 -7 1 239.11 23.83
-2 7 -1 265.53 20.37
2 7 1 286.47 25.66
2 7 1 296.19 23.97
2 7 -1 286.6 22.43
2 -7 1 271.02 21.68
2 -8 1 335.5 29.88
-2 8 1 330.39 29.85
-2 -8 1 350.65 21.16
2 8 1 340.47 20.69
-2 -8 -1 323.11 28.45
-2 8 -1 356.2 30.43
2 -8 -1 209.15 23.44
-2 -8 1 381.39 32.68
2 -8 1 318.34 27.98
-2 -8 1 324.72 35.86
-2 8 1 396.33 40.28
-2 -8 1 367.86 26.21
2 8 1 385.74 35.73
-2 -8 1 334.91 27.56
2 8 -1 312.46 24.99
2 8 -1 346.09 22.78
2 8 -1 349.74 27.81
2 8 -1 363.64 25.32
-2 -8 -1 328.83 27.23
2 8 1 304.5 25.95
2 8 1 344.61 27.58
2 8 -1 351.49 24.12
-2 -8 1 373.17 28.88
-2 8 1 348.4 29.4
-2 8 1 351.15 36.26
2 -8 1 352.03 38.04
-2 -8 1 314.91 36.45
2 8 1 385.66 38.22
2 -8 -1 363.63 24.19
-2 -8 1 329.22 28.47
2 8 1 360.92 29.36
2 -8 1 341.88 28.69
-2 8 1 296.95 27.06
-2 8 -1 318.95 24.74
-2 8 1 389.64 27.65
2 8 -1 359.42 27.6
2 8 1 364.6 28.79
2 -8 1 331.3 26.3
-2 -9 1 3.53 2.99
-2 9 1 1.89 3.2
2 9 1 1.73 1.04
-2 9 1 -1.17 1.98
-2 -9 1 1.41 2.39
-2 9 1 1.82 2.3
2 -9 -1 0.71 1.2
-2 9 -1 5.83 4.18
-2 -9 1 4.86 1.68
2 -9 1 20.36 6.41
-2 -9 1 3.59 2.27
2 9 1 6.32 3.24
2 9 -1 3.73 2.73
2 9 -1 1.22 1.46
2 9 1 1.65 1.97
-2 -9 1 3.75 2.51
2 9 -1 2.69 2.27
2 9 1 6.14 4.5
-2 -9 -1 0.88 1.82
2 9 -1 2.98 1.61
-2 -9 1 4.04 2.56
2 9 -1 2.58 1.75
2 -9 -1 3.62 1.96
-2 9 1 1.8 1.87
-2 9 1 0.79 2.12
-2 9 1 1.69 2.85
-2 9 1 2.43 1.68
2 -9 1 5.85 4.67
-2 -9 1 -0.88 1.82
-2 9 -1 2.38 2.02
2 -9 1 2.66 2.12
2 9 1 3.63 3.76
2 -9 1 2.37 1.89
2 9 1 4.51 2.64
-2 -9 1 9.51 5.57
2 9 1 4.05 3.42
2 9 -1 0.9 1.08
-2 10 1 9.41 3.78
-2 -10 1 3.31 2.81
-2 10 1 5.3 4.23
2 10 -1 12.33 5.19
-2 -10 1 3.08 2.61
2 10 1 4.02 1.59
2 -10 1 4.47 3.78
-2 10 1 7.35 3.88
2 -10 -1 3.8 2.24
-2 10 -1 6.15 4.17
2 10 -1 2.09 1.88
2 10 1 1.56 3.73
2 10 1 5.56 3.33
-2 -10 -1 3.83 2.57
2 10 -1 7.55 3.39
2 10 1 6.98 3.59
2 10 -1 5.34 2.1
2 10 -1 3.1 2.77
-2 -10 1 4.17 2.8
-2 -10 1 6.76 2.99
2 10 -1 6.6 2.7
2 -10 -1 5.84 2.43
-2 10 1 4.18 2.65
-2 -10 1 3.5 2.11
-2 10 1 6.1 3.61
2 10 1 3.42 2.3
-2 10 -1 7.25 2.96
-2 -10 1 4.94 2.79
2 -10 1 2.62 2.35
-2 10 1 3.81 2.59
-2 10 1 3.2 3.32
-2 -10 1 1.79 2.15
2 10 1 11.94 6.12
2 -10 1 1.86 3.85
2 -10 1 7.64 3.37
2 10 -1 7.25 3.72
-2 -11 -1 11.63 6.03
-2 11 -1 16.43 6.87
-2 -11 1 23.3 8.01
-2 11 1 22.09 5.64
-2 -11 1 15.45 6.47
-2 11 1 45.84 9.55
2 -11 1 21.87 6.52
2 -11 -1 12.86 4.4
2 11 1 18.6 3.32
-2 11 1 13.16 6.88
2 11 -1 23.72 7.58
-2 11 -1 18.04 6.23
-2 -11 -1 14.71 5.11
2 11 -1 13.8 5.58
-2 -11 1 13.22 5.9
2 11 1 25.31 8.51
2 11 1 17.31 5.52
-2 -11 1 24.28 6.84
2 11 -1 15.99 4.7
2 11 1 21.92 6.22
-2 11 1 8.99 4.83
-2 11 1 21.68 5.15
2 11 -1 22.05 4.96
2 -11 -1 14.66 3.93
-2 11 -1 17.61 4.87
-2 -11 1 14.59 4.09
-2 -11 -1 15.75 4.8
-2 -11 1 19.25 4.72
-2 11 1 17.79 5.45
2 11 1 19.23 5.06
2 -11 1 12.46 4.68
2 -11 1 17.7 4.9
-2 -11 1 21.75 7.54
-2 -11 1 12.13 4.06
2 11 1 14.25 5.76
-2 11 1 19.08 4.87
2 -11 1 17.66 7.37
2 11 -1 17.8 5.92
-2 12 1 214.54 20.83
2 -12 1 206.2 22.43
2 12 -1 173.31 23.03
-2 12 -1 223.02 25.39
2 12 1 180.23 14.61
-2 -12 1 171.44 23.84
2 -12 -1 155.94 17.75
-2 -12 -1 192.98 23.81
-2 -12 1 198.12 23.45
-2 12 1 206.08 24.85
2 12 1 147.07 19.18
2 12 -1 184.76 19.24
2 12 -1 246.5 24
2 12 1 233.28 25.95
-2 12 1 201.92 13.94
-2 -12 1 156.12 21.85
2 12 1 202.44 21.65
-2 -12 -1 174.97 20.17
2 12 -1 213.91 19.2
-2 12 1 207.08 23.5
-2 -12 1 221.61 25.22
-2 12 1 202.98 18.14
2 -12 1 191.75 19.36
-2 12 -1 197.25 18.18
-2 -12 -1 204.49 18.29
-2 -12 1 160.44 16.39
2 -12 1 205.75 25.36
2 -12 -1 207.17 18.9
2 12 1 218.52 24.49
2 -12 1 208.66 18.63
2 -12 1 168.47 19.61
-2 -12 1 198.62 17.83
-2 12 1 183.13 17.12
2 12 1 180.57 17.67
-2 -12 1 148.96 17.13
-2 12 1 214.32 21.05
2 13 -1 67.54 13.73
-2 13 -1 57.74 10.32
-2 13 1 52.04 9.79
-2 13 1 29.76 6.11
-2 -13 1 41.24 9.42
2 13 1 38.24 5.63
-2 -13 1 35.89 10.6
-2 13 -1 36.74 9.38
-2 -13 -1 42.16 9.92
2 -13 -1 27.06 6.6
-2 -13 1 31.61 9.46
2 13 1 56.2 12.2
2 13 -1 34.69 7.95
2 13 1 41.72 9.5
2 13 -1 55.4 11.08
-2 13 1 50.37 5.35
2 13 1 32.63 8.44
-2 -13 -1 41.96 9.38
-2 -13 1 45.85 10.23
-2 13 1 38.53 6.72
2 -13 -1 34.25 7.24
2 13 -1 41.25 8.34
-2 13 -1 50.2 7.62
-2 -13 -1 54.09 7.74
-2 -13 1 38.77 6.4
-2 13 1 52.37 10.72
-2 13 1 36.84 8.37
-2 -13 1 37.69 6.55
2 -13 1 52.11 9.75
2 13 1 40.07 7.14
2 13 1 43.82 9.8
-2 -13 1 56.78 8.98
2 -13 1 38.87 10.27
2 -13 1 53.26 7.98
-2 14 -1 33.52 8.62
-2 14 -1 64.45 11.01
-2 -14 1 39.56 11.34
-2 -14 -1 44.06 10.94
2 14 1 44.13 6.31
-2 -14 -1 43.23 9.66
2 -14 -1 39.03 7.89
-2 14 1 60.59 11.13
2 14 1 53.05 12.08
-2 14 -1 47.77 10.31
2 14 -1 31.14 7.87
2 14 1 34.26 9.08
-2 14 1 52.85 5.58
-2 -14 1 32.06 9.94
-2 -14 -1 33.3 9.17
-2 -14 1 28.37 8.01
-2 -14 -1 37.64 6.34
-2 14 -1 44.93 7.13
2 14 -1 52.15 9.58
-2 -14 -1 37.18 8.04
-2 -14 1 49.31 8.62
2 -14 1 63.59 11.09
2 -14 1 41.07 6.93
2 -14 1 32.69 8.97
2 14 1 48.47 7.28
-2 15 1 13.58 5.73
-2 -15 -1 6.8 3.85
-2 15 -1 10.26 4.54
-2 15 -1 10.29 4.88
2 -15 -1 7.78 3.7
-2 -15 1 6.16 4.93
-2 -15 -1 14.02 6.3
2 15 1 7.85 2.9
-2 15 -1 1.2 3.52
-2 -15 -1 15.85 5.98
-2 -15 1 6.16 4.53
-2 15 -1 6.77 2.64
-2 -15 -1 6.71 2.58
2 15 -1 4.42 3.26
-2 -15 1 6.76 3.49
2 -15 1 11.64 5.14
-2 -15 -1 9.05 4.35
2 -15 -1 6.74 4.58
2 -16 -1 281.26 27.01
-2 -16 -1 296.75 34.07
2 16 1 327.67 23.58
-2 16 1 425.83 35.12
-2 16 1 436.65 33.96
-2 -16 -1 266.78 26.3
-2 16 -1 307.92 27.25
-2 16 -1 408.97 34.62
-2 -16 1 280.3 31.24
-2 16 -1 306.61 22.63
-2 -16 -1 275.87 21.75
2 16 -1 240.72 27.41
2 -16 -1 399.22 34.02
2 -16 1 343.24 31.85
-2 -16 -1 301.61 28.5
-2 -16 1 363.02 29.37
2 17 1 81.83 9.16
-2 17 1 111.09 16.59
-2 17 1 107.81 15.76
2 -17 -1 77.61 11.55
-2 17 -1 53.44 8.55
-2 17 -1 84.24 14.99
-2 -17 -1 44.93 8.31
-2 -17 -1 73.44 16.04
-2 -17 1 72.39 14.29
-2 -17 -1 42 5.77
2 17 -1 45.33 10.61
-2 17 -1 33.07 5.59
2 -17 -1 94.94 15.49
2 -17 1 86.84 14.39
-2 -17 1 110.1 14.07
-2 -17 -1 83.03 12.71
-2 -18 -1 126.7 22.54
-2 18 1 162.06 20.97
-2 18 1 169.56 21.35
2 18 1 131.95 13.4
2 -18 -1 131.47 16.48
-2 18 -1 150.59 20.5
2 18 -1 73.12 15.24
2 -18 -1 174.98 22.07
-2 -18 -1 135.6 17.78
-2 -18 1 189.74 19.57
2 -18 1 204.56 23.04
-2 19 -1 6 5.08
-2 19 1 13.33 6.63
-2 -19 -1 2.15 3.66
2 19 1 3.48 2.7
2 -19 -1 10.86 4.51
2 19 -1 2.91 3.49
-2 -19 -1 2.57 3.09
-2 -19 1 9.45 4.7
2 -19 -1 17.73 6.95
2 -19 1 17.34 7.06
-2 -20 -1 112.88 22.98
-2 20 1 151.96 20.74
-2 -20 1 114.26 24.55
-2 20 -1 176.18 21.84
2 20 1 119.56 13.43
2 -20 -1 153.99 18.15
2 20 -1 86.66 17.03
-2 -20 -1 175.98 20.55
-2 -20 1 180.56 20.09
2 -20 -1 168.79 22.38
2 -20 1 174.99 22.6
-2 21 -1 10.49 6.51
2 21 1 9.01 3.81
-2 -21 1 14.31 9.05
2 -21 -1 17.16 5.64
-2 -21 -1 13.57 8.58
-2 21 1 10.53 6.53
2 -21 1 17.49 7.01
2 21 -1 11.06 6.31
-2 -21 1 32.57 8.24
-2 -21 -1 19.53 6.92
2 -21 -1 27.42 8.97
2 -21 1 11.89 6.14
-2 -22 -1 57.48 16.99
-2 22 -1 110.26 17.33
2 22 1 79.18 10.73
-2 22 1 113.65 17.88
2 -22 1 89.7 16.09
-2 -22 1 80.35 20.14
2 22 -1 58.5 14.98
2 -22 -1 96.02 17.29
2 -22 1 123.58 19.26
-2 -22 -1 104.27 16.14
-2 -22 1 119.09 16.37
-2 23 -1 5.94 5.03
2 -23 1 15.46 6.74
-2 23 1 1.51 4.45
-2 -23 -1 4.65 6.23
2 23 -1 9.97 6.6
-2 -23 -1 13.17 6.32
-2 -23 1 10.42 4.69
2 -23 1 5.32 5.63
2 -23 -1 17.71 7.64
-2 24 -1 126.83 19.36
-2 24 1 93.4 16.81
-2 -24 -1 56.16 17.61
2 -24 1 85.82 15.89
2 -24 -1 221.14 24.52
2 24 1 74.57 17.17
2 24 -1 79.21 17.44
-2 -24 1 158.96 19.36
2 -24 -1 119.83 19.97
2 -24 1 152.99 21.71
2 24 1 126.41 24.5
-2 -24 -1 141.62 19.31
-2 0 2 51.58 14.92
-2 0 2 84.55 9.28
2 0 -2 53.47 15.49
2 0 2 79.74 7.77
-2 0 2 66.85 7.93
-2 0 2 65.7 6.23
-2 0 2 75.08 8.04
2 0 2 61.32 11.12
-2 0 -2 64.29 5.23
-2 0 2 69.33 7.2
-2 0 2 74.95 12.12
2 0 -2 67.02 7.43
2 0 -2 74.57 12.88
2 0 2 68.68 8.14
-2 0 2 58.33 6.6
2 0 2 69.03 8.61
-2 0 2 75.63 12.22
-2 0 2 75.07 6.25
-2 0 2 62.77 15.44
-2 0 2 53.6 6.59
2 1 2 1 1.06
-2 -1 2 -2.55 4.31
-2 1 2 1.82 1.33
-2 -1 2 -0.69 1.66
-2 1 2 -2.59 4.37
2 -1 -2 5.58 6.67
2 -1 2 -0.44 0.91
-2 -1 2 0.44 1.06
-2 1 2 -0.49 1.01
-2 -1 2 -0.49 0.82
2 1 2 1.18 2.83
-2 -1 2 0.43 0.73
2 -1 2 -1.04 2.77
-2 -1 2 0.3 0.8
2 -1 -2 -0.42 0.99
2 -1 -2 2.69 2.27
2 1 -2 -1.36 2.3
-2 1 -2 -0.2 0.54
-2 1 2 0.75 0.9
2 1 -2 0.4 0.95
-2 1 2 1.2 2.02
-2 -1 2 1.17 1.4
-2 -1 -2 -0.1 0.37
-2 -1 2 -0.35 1.03
2 -1 2 0.49 0.82
-2 1 2 0.59 0.86
-2 -1 2 -0.37 0.63
2 1 2 -0.52 0.62
-2 1 2 -1.19 2.01
-2 1 2 -0.38 0.8
-2 1 2 0.3 0.72
-2 -1 2 -0.17 0.59
-2 -1 2 0.7 0.84
-2 -1 2 -1.21 2.88
2 -1 -2 0.9 0.72
-2 1 2 -2.39 4.03
-2 1 -2 0.8 1.17
2 1 2 0.61 1.26
-2 -1 2 -2.43 4.11
2 -1 2 -0.6 1.01
2 2 2 641.62 42.99
-2 2 2 726.83 42.05
2 -2 2 698.59 43.76
-2 -2 2 735.57 47.78
2 2 -2 648.42 43.62
-2 2 -2 676.09 42.44
-2 -2 -2 755.94 43.38
2 2 2 751.76 41.35
-2 2 2 642.42 43.12
2 2 -2 641.71 63.72
-2 2 2 748.48 65.79
-2 -2 2 690.55 41.82
-2 -2 2 721.9 43.2
-2 -2 2 688.68 42.47
-2 -2 2 720.53 43.62
2 -2 2 591.98 47.29
-2 2 2 643.75 60.56
2 2 -2 691.6 42.27
-2 -2 2 696.67 51.03
-2 2 2 721.14 42.7
2 -2 -2 688.55 52.4
-2 -2 2 723.04 42.02
-2 2 -2 684.89 41.77
2 -2 2 636.38 42.91
-2 2 2 682.34 40.72
2 2 2 672.71 43.81
-2 2 -2 649.07 42.17
2 2 2 668.82 44.78
2 2 -2 672.96 41.9
-2 -2 2 654.22 39.06
2 -2 -2 650.4 40.8
-2 2 2 757.08 42.67
-2 -2 2 580.69 49.37
-2 -2 2 672.26 41.7
-2 2 2 674.33 42.36
2 -3 2 9.61 5.45
-2 -3 -2 2.66 2.06
2 3 -2 2.8 5.8
-2 3 2 4.63 2.08
2 3 2 4.9 1.83
2 3 -2 2.56 2.54
-2 3 -2 5.59 2.62
-2 -3 2 2.86 2.79
-2 3 2 3.44 1.53
2 3 2 1.87 2.02
2 -3 2 5.31 2.97
-2 3 2 2.54 6.08
2 -3 2 3.33 2.66
2 3 -2 3.81 1.76
-2 3 -2 2.79 1.23
-2 -3 2 4.7 2.03
2 3 -2 2.19 1.32
-2 -3 2 2.39 1.51
-2 -3 2 4.8 1.99
-2 -3 -2 3.88 2.19
2 -3 2 5.92 3.65
-2 -3 2 1.72 1.46
-2 3 2 3.92 2.02
-2 3 2 2.26 1.16
2 -3 2 2.37 1.61
-2 -3 2 5.23 1.92
2 -3 -2 3.92 3.83
-2 3 -2 3.14 1.62
-2 -3 2 -1.12 3.55
2 3 -2 3.11 1.68
2 -3 -2 4.81 1.72
-2 -3 2 -1.2 2.5
-2 3 2 -2.3 4.77
-2 3 2 6.11 2.58
-2 -3 2 2.03 0.88
2 3 2 1.27 1.71
2 -3 -2 2.42 1.55
-2 3 -2 1.23 1.48
-2 -3 2 3.22 1.82
2 3 -2 1.54 1.39
2 4 -2 8287.33 456.21
2 4 2 7901.58 448.65
-2 4 -2 8320.17 452.91
-2 -4 2 8497.16 460.34
-2 4 2 8064.03 451.14
-2 4 2 8509.83 479.6
-2 -4 -2 6976.98 450.53
-2 -4 2 7945.38 476.14
2 4 -2 8003.29 481.21
-2 -4 2 8660.67 452.27
2 4 -2 8052.69 451.38
2 4 -2 8288.58 451.36
-2 -4 2 8891.38 452.66
-2 -4 2 8551.81 452.76
-2 -4 -2 7951.03 454.24
2 -4 2 7680.4 454.67
-2 4 -2 8353.33 448.36
2 4 -2 8398.63 451.45
2 4 -2 7953.21 451.67
-2 -4 2 8983.2 450.55
-2 4 2 8075.66 475.45
-2 -4 2 7125.22 473.83
2 4 -2 8248.22 450.8
-2 -4 2 8027.27 459.83
-2 4 2 7827.24 460.36
-2 4 2 8463.83 452.21
2 -4 -2 7875.9 461.94
2 -4 2 8026.16 451.83
2 -4 -2 7630.36 449.32
2 4 2 7622.11 482.53
2 4 2 8162.6 454.24
-2 -4 2 7238.98 459.59
-2 4 -2 8279.01 451.12
2 -4 2 8215.56 462.9
-2 4 2 7266.91 458.91
2 4 -2 7762.49 450.71
-2 4 2 8708.82 453.43
2 -4 -2 8097.38 451.14
2 5 -2 8.16 4.62
2 -5 -2 2.58 8.16
-2 -5 2 9.16 7.75
-2 5 2 9.7 8.21
2 -5 2 13.61 6.79
-2 -5 2 7.32 4.63
2 5 2 1.32 3.88
2 5 -2 16.41 8.66
-2 5 2 3.99 2.18
-2 5 -2 10.18 3.75
-2 -5 -2 8.73 3.18
2 5 -2 7.51 2.97
2 5 -2 7.59 2.69
2 5 -2 9.52 3.31
-2 5 -2 10.48 2.79
-2 -5 2 5.77 2.47
2 -5 2 6.67 4.43
-2 -5 -2 7.17 3.45
2 5 2 11.1 7.96
-2 -5 2 15.64 4.38
2 5 -2 7.87 2.91
-2 -5 -2 5.51 3.05
2 -5 -2 9.68 2.48
2 5 2 7 1.25
-2 5 2 8.12 3.06
2 5 2 19.75 10.13
2 -5 2 9.61 3.23
2 -5 -2 12.49 5.61
2 5 -2 7.86 4.45
2 -5 2 14.26 10.23
-2 -5 2 9.05 2.53
2 5 -2 7.44 2.51
-2 5 2 10.02 5.5
-2 -5 2 8.33 4.68
-2 5 2 4.52 3.11
-2 5 2 12.06 5.42
2 -5 -2 8.76 3.29
-2 5 -2 8.07 2.92
2 5 2 4.99 2.98
2 5 -2 8.12 2.57
2 -5 2 11.04 3.64
-2 -5 2 7.2 7.6
-2 5 2 2.19 5.26
-2 -5 2 12.88 5.95
-2 6 2 7693.77 290.03
-2 -6 -2 4405.97 288.05
-2 -6 2 5405.2 301.18
-2 6 -2 5408.17 292.66
2 6 -2 5370.07 296.94
2 6 -2 5551.36 319.4
2 -6 -2 5036.39 314.27
-2 -6 2 5090.32 311.39
-2 6 2 5464.63 315.92
-2 6 -2 5560.94 288.33
-2 -6 2 5345.7 289.48
2 6 -2 5508.36 291.49
-2 -6 -2 4680.92 291.73
2 6 -2 4969.59 289.2
2 6 2 4868.98 284.22
-2 -6 2 5084.47 292.1
2 6 -2 5299.51 288.69
2 -6 2 5739.27 289.4
2 6 -2 4982.09 289.21
2 6 2 6005.18 304.43
2 6 2 5659.49 320.51
-2 6 2 5505.87 312.32
-2 -6 -2 4806.21 290.05
-2 -6 2 5007.2 312.28
2 -6 -2 4845.82 286.58
2 -6 2 5455.63 318.91
-2 6 2 5419.12 297.7
-2 -6 2 5267.2 295.91
2 6 2 5057.84 284.56
2 -6 -2 5271.95 299
2 6 -2 5232.91 299.64
2 6 -2 5057.79 288.32
2 -6 2 5088.88 289.91
-2 -6 2 5621.13 288
2 -6 -2 4849.46 290.33
2 -6 2 4912.58 290.09
2 6 2 5888.21 301.51
2 -6 2 5164.1 297.87
-2 -6 2 4971.6 297.2
-2 6 2 5504.91 293.03
2 6 -2 4662.66 288.63
-2 6 2 5093.8 296.48
2 7 -2 1.17 2.41
2 7 -2 -2.61 4.42
2 -7 -2 2.43 2.9
-2 7 -2 3.31 2.97
-2 -7 2 1.13 0.93
2 -7 2 2.22 3.51
-2 -7 2 -2.11 2.52
-2 7 2 2.26 4.68
2 7 2 -1.19 2.84
-2 -7 2 1.48 3.06
-2 7 2 0.74 1.18
-2 7 2 2.19 1.45
-2 -7 -2 1.94 1.74
2 7 2 1.45 3.47
-2 7 -2 -0.51 1.62
-2 -7 2 0.84 1.74
-2 -7 2 1.62 1.58
2 7 2 0.75 2.01
2 7 -2 -0.58 1.69
2 7 -2 1.47 2.33
-2 -7 -2 3.21 2.35
2 7 -2 1.39 1.47
2 7 -2 1.13 1.66
2 -7 2 2.2 1.72
2 -7 -2 1.18 1.99
2 7 2 -2.49 4.21
-2 -7 2 1.24 1.39
2 -7 -2 0.71 1.04
2 7 -2 3.75 3.34
2 7 -2 0.49 1.18
2 -7 2 0.59 1.22
-2 7 2 -1.03 3.01
-2 -7 2 0.93 1.94
2 -7 2 -2.54 3.04
-2 -7 2 0.35 1.12
-2 7 2 -2.06 2.46
2 7 -2 0.6 1.43
2 -7 -2 2.13 2.25
-2 -7 2 1.1 2.95
-2 7 2 2.03 3.21
2 -7 2 2.63 2.08
2 7 2 0.85 1.77
-2 -7 2 2.31 4.79
-2 7 2 2.42 2.73
-2 8 -2 911.36 56.51
-2 -8 -2 721.81 50.15
2 8 2 868.07 54.86
-2 -8 2 684.28 46.5
-2 8 2 981.58 51.73
2 -8 -2 714.42 51.52
2 8 -2 759.32 58.51
2 -8 2 753.58 54.85
-2 -8 2 791.25 62.19
2 -8 -2 834.95 69.82
2 8 -2 998.84 76.03
-2 -8 2 626.15 62.59
-2 8 2 952.65 71.64
-2 -8 2 793.31 51.66
2 8 -2 906.85 55.5
2 8 -2 877.83 53.05
2 8 -2 834.26 50.66
2 8 -2 809.12 52.06
-2 -8 -2 714.04 53.64
2 8 2 989.46 64.58
-2 8 -2 906.86 52.82
2 -8 2 872.26 71.6
-2 8 2 903.99 68.3
2 8 -2 779.55 50.94
-2 8 2 803.7 55.92
-2 -8 2 792.49 55.08
2 -8 -2 793.79 49.26
2 8 2 876.84 71.18
2 -8 -2 931.99 59.47
2 8 -2 859.19 59.23
2 -8 2 837.45 52.61
-2 -8 2 803.09 68.5
-2 -8 2 894.1 58.04
-2 8 2 846.44 55.56
2 -8 2 778.67 52.96
2 -8 -2 778.72 53.96
2 8 2 855.48 58.32
2 -8 2 973.81 58.97
-2 8 2 810.65 55.88
-2 -8 2 728.71 49.68
2 8 -2 865.91 53.38
2 8 2 914.47 56.67
2 9 -2 2.44 5.06
-2 9 2 3.71 2.34
-2 -9 2 3.43 3.55
-2 -9 2 3.84 3.98
2 -9 -2 -2.25 3.8
2 -9 2 2.74 2.19
2 -9 -2 2.07 1.65
-2 9 -2 6.06 3.62
-2 -9 -2 1.09 1.13
-2 -9 2 0.74 0.94
2 9 2 4.55 3.63
2 9 2 5.43 3.06
2 9 -2 0.53 1.09
-2 -9 2 0.66 1.13
-2 9 -2 5.71 2.83
2 9 -2 0.74 1.25
2 9 -2 0.68 1.63
-2 -9 -2 0.9 1.87
2 9 -2 5.75 3.44
2 9 -2 3.08 2.08
2 -9 -2 1.76 1.49
2 9 2 2.16 4.47
2 -9 -2 1.09 2.26
2 9 -2 -1.16 1.96
2 -9 2 2.15 1.71
2 -9 2 2.24 4.64
-2 9 2 0.93 1.92
-2 -9 2 -0.83 1.41
-2 9 2 3.78 3.19
-2 9 2 0.92 1.57
-2 -9 2 1.01 1.72
-2 -9 2 1.05 1.53
-2 9 2 1.89 2.52
-2 -9 2 -2.17 2.6
2 9 2 1.05 1.77
2 -9 -2 2.75 2.19
2 -9 2 3.96 2.51
2 9 2 -1.04 1.25
2 9 -2 2.45 1.96
2 -9 2 1.95 2.02
2 -10 -2 99.12 18.82
-2 10 2 106.88 14.49
2 10 -2 114.26 21
-2 10 2 123.05 12.88
2 -10 2 83.27 12.61
-2 -10 2 97.68 8.57
-2 10 -2 106.06 14.38
-2 -10 -2 99.88 10.76
2 -10 -2 104.59 12.04
-2 -10 2 132.17 19.86
-2 -10 2 80.84 11.25
-2 10 -2 101.47 12.71
2 10 -2 112.14 13.24
-2 -10 2 67.83 13.28
2 10 -2 103.39 10.97
2 10 -2 104.33 12.32
2 10 2 96.62 13.18
2 10 2 121.61 17.8
2 10 -2 85.49 12.96
2 10 -2 91.04 11.4
-2 -10 2 114.12 19.49
2 -10 2 107.81 12.94
2 10 -2 118.86 15.11
2 -10 -2 114.9 14.6
2 -10 -2 89.94 10.14
2 -10 2 100.77 18.72
-2 10 2 102.49 17.89
2 10 2 77.92 16.74
-2 10 2 89.24 12.14
-2 -10 2 117.43 14.14
2 10 2 100.04 13.48
2 -10 2 103.37 13.14
2 -10 -2 86.12 12.87
-2 -10 2 101.71 11.18
-2 10 2 99.39 13.75
2 10 2 101.81 14.6
2 10 -2 96.23 13.11
2 -10 2 88.84 12.13
-2 11 -2 -1.17 1.98
-2 -11 -2 0.61 1.26
2 -11 2 -1.02 2.11
-2 -11 2 3.84 3.97
-2 -11 -2 1.21 1.44
-2 11 2 1.19 1.42
-2 11 2 1.61 1.93
2 -11 -2 -2.04 3.46
-2 -11 2 -0.37 0.87
2 -11 -2 1.48 1.25
-2 -11 2 -1.4 2.37
-2 -11 2 -0.84 1.42
2 11 2 -1.18 2
2 11 2 4.68 4.17
-2 11 -2 0.89 2.12
2 11 -2 -0.84 1.74
2 11 -2 -0.89 1.84
2 11 -2 0.61 1.46
2 11 -2 1.19 2.01
2 11 2 -1.08 2.58
2 11 -2 2.3 2.05
2 -11 -2 0.57 1.18
-2 -11 2 -1.97 3.33
-2 11 2 1.69 2.02
2 -11 -2 1.11 1.87
2 -11 2 -1.96 2.34
-2 -11 2 0.68 1.16
-2 -11 2 -0.91 2.18
-2 11 2 -0.83 1.41
2 -11 2 1.73 2.07
2 11 2 -0.92 1.1
2 11 -2 -1.1 2.64
2 -11 2 -0.95 1.61
2 11 2 -1.84 0.01
-2 11 2 -1.06 3.1
2 11 2 -1.3 2.19
-2 -12 -2 221.39 19.08
-2 -12 2 213.47 28.52
2 12 2 234.19 17.38
2 -12 2 212.51 22.38
-2 -12 2 237.25 17.47
-2 -12 -2 192.88 23.1
-2 12 2 304.68 23.55
2 -12 -2 206.87 20
2 12 2 223.87 24.36
-2 12 -2 194.16 20.99
2 12 -2 207.75 21.2
2 12 2 240.97 23.96
2 12 -2 250.9 22.43
2 12 2 264.59 28.14
-2 -12 2 198.67 24.27
2 12 -2 200.98 23.54
2 12 -2 236.55 21.43
2 -12 -2 201.22 18.81
2 12 2 200.53 25.98
-2 12 2 204.19 25.19
-2 -12 2 212.69 27.26
2 -12 2 224.24 28
2 12 -2 255.17 25.21
-2 12 2 218.95 20.21
2 -12 2 217.44 20.45
-2 -12 2 228.61 20.86
2 -12 -2 199.7 22.66
-2 -12 2 232.91 20.63
2 12 2 259.72 26.47
-2 12 -2 229.05 20.1
-2 12 2 241.8 23.49
2 -12 2 218.21 22.13
2 12 2 197.62 20.11
-2 -13 -2 -1.41 3.78
2 13 2 -0.49 2.1
-2 13 2 2.89 3.45
-2 -13 -2 0.67 1.97
-2 -13 2 0.5 1.9
2 -13 -2 4.04 3.34
-2 -13 2 4.12 5.51
2 13 -2 2.06 2.75
-2 -13 2 2.95 3.95
2 13 2 -2.56 5.31
2 13 2 1.58 3.78
-2 13 -2 1.03 2.74
2 13 -2 2.08 3.05
2 13 -2 1.41 3.38
2 13 -2 -1.89 3.19
2 -13 -2 -0.74 1.77
-2 13 2 1.47 3.51
2 -13 2 3.38 3.5
-2 -13 2 -3.31 3.43
2 -13 2 6.69 3.53
2 13 2 1.55 1.85
2 -13 2 2.26 2.38
-2 13 2 3.46 3.65
2 13 2 0.78 2.29
-2 -13 2 3.38 4.52
2 13 2 1.58 2.67
-2 13 2 -0.72 1.48
-2 -13 2 1.55 2.26
-2 -14 2 2547.89 148.74
2 14 2 2727.52 148.26
-2 -14 2 2621.77 167.94
-2 14 2 3448.73 158.66
2 -14 -2 2242.7 150.31
-2 -14 -2 2320.5 158.67
-2 -14 -2 2713.21 150.69
-2 14 -2 2640.61 157.2
-2 14 -2 2714.51 156.14
-2 -14 2 2292.75 158.31
2 14 -2 3014.94 158.11
2 14 2 2622.6 159.34
2 14 -2 2597.92 154.83
-2 14 2 2674.99 159.31
-2 -14 2 2553.29 160.41
2 -14 2 2528.5 160.77
2 -14 -2 2059.88 150.07
2 14 2 3407.99 169.8
2 -14 2 2474.57 149.69
2 14 2 2394.52 149.79
-2 14 2 2499.94 149.26
2 -14 2 2644.14 156.89
-2 -14 2 2527.21 149.93
-2 -14 2 2952.19 154.31
2 15 2 1.13 2.34
-2 -15 2 0.6 2.39
-2 -15 -2 5.84 3.38
-2 15 2 4.41 4.17
-2 -15 2 4.41 5.27
-2 -15 -2 -1.37 2.32
-2 15 -2 -1.32 2.23
2 -15 -2 2.58 2.72
-2 -15 -2 1.64 4.38
-2 -15 2 9.08 5.12
-2 15 2 2.41 2
2 15 2 0.12 0.72
-2 15 2 1.31 4.15
-2 15 -2 1.3 2.06
-2 15 2 3.66 3.27
2 15 -2 1.14 3.86
2 -15 -2 3.72 2.94
-2 -15 -2 1.29 1.55
-2 -15 -2 4.2 3.08
2 15 2 2.52 2.61
2 -15 2 1.95 2.19
2 15 2 1.97 2.08
-2 15 2 -0.58 1.85
-2 -15 2 1.89 2.98
2 -15 2 -1.3 4.65
2 -15 2 1.46 3.02
-2 -15 2 2.77 3.31
2 15 2 7.47 6.31
-2 -15 2 0.62 2.22
-2 16 -2 1499.24 92.83
-2 -16 -2 1417.82 87.1
-2 16 2 1696.44 97.94
-2 -16 2 1643.54 108
2 16 2 1762.12 86.78
-2 16 2 2229.34 99.32
2 -16 -2 1494.12 89.07
-2 -16 -2 1446.51 99.24
-2 -16 -2 1371.33 92.12
-2 16 -2 1966.35 101.12
2 16 2 952.88 78.88
-2 -16 2 1449.63 96.87
-2 16 2 1655.67 85
2 16 2 1612.35 92.91
-2 -16 2 1489.88 93.34
2 16 -2 1454 93.41
-2 16 2 1483.19 91.97
-2 16 -2 1428.03 84.89
2 -16 -2 1338.01 90.43
2 -16 2 1611.47 95.81
-2 -16 -2 1427.15 84.67
-2 -16 2 1465.83 84.51
-2 16 2 1479.54 84.07
-2 -16 -2 1514.29 93.34
-2 -16 2 1979.37 94.37
2 -16 2 1675.17 97.14
2 16 2 2008.27 110.45
2 -16 2 1518.49 85.41
2 16 2 1479.69 85.13
-2 17 -2 -1.45 5.2
-2 -17 -2 1.03 2.76
-2 17 2 -1.46 3.9
-2 17 2 -1.21 3.24
-2 -17 -2 0.77 2.25
-2 -17 2 -2.29 5.48
-2 17 -2 1.99 2.38
2 -17 -2 0.9 2.42
-2 -17 -2 5.6 4.99
2 17 2 2.44 2.52
-2 -17 2 1.53 3.67
-2 17 2 -2.06 2.13
2 17 2 0.46 1.07
-2 17 -2 2.02 1.91
-2 -17 -2 0.48 1.71
2 17 -2 5.3 3.54
-2 -17 2 1 2.67
-2 -17 -2 1.2 2.49
2 -17 2 -1.44 2.44
-2 -17 2 1.04 2.78
2 -17 2 0.5 1.7
2 17 2 4.29 4.45
2 17 2 1 1.69
2 -17 2 -1.16 2.77
-2 18 2 244.21 26.78
-2 18 2 366.16 29
2 18 2 315.16 21.01
2 -18 -2 322.43 24.08
-2 -18 -2 221.64 29.18
-2 18 -2 301.52 28.93
-2 -18 2 251.59 33.51
-2 -18 -2 197.51 19.65
2 18 2 150.03 14.09
-2 -18 2 188.57 24.74
2 18 -2 174.13 23.4
-2 18 -2 184.88 15.69
2 18 2 291.63 34.58
-2 -18 -2 238.07 24.7
-2 -18 2 362.03 27.22
2 -18 2 248.67 26.95
-2 19 -2 5.95 5.03
-2 -19 -2 2.08 4.32
-2 -19 -2 0.47 1.27
-2 19 2 4.5 4.01
2 -19 -2 2.76 2.46
2 19 2 1.93 1.89
2 19 2 0.58 0.99
-2 -19 2 -1.54 2.61
2 19 -2 -1.5 3.11
-2 19 -2 -0.14 0.58
-2 -19 -2 2.68 2.78
-2 -19 2 -1.12 2.67
2 -19 2 1.58 2.68
2 19 2 2.4 4.06
-2 20 -2 92.8 16.27
-2 -20 -2 73.63 17.11
2 20 2 112.09 11.72
2 -20 -2 94.79 12.33
-2 20 2 95.16 15.9
2 20 2 53.56 6.91
-2 -20 2 89.81 15.52
2 20 -2 45.67 12.78
-2 -20 -2 80 14.28
-2 -20 2 121.08 15.56
2 20 2 110.39 22.04
2 -20 2 142.96 19.61
-2 21 2 3.03 4.44
-2 21 -2 -3 5.38
2 21 2 1.3 2.32
-2 -21 -2 -2.2 2.63
2 -21 -2 -1.34 2.27
2 21 -2 1.64 1.96
-2 -21 -2 1.46 3.49
2 -21 2 1.7 3.51
-2 -21 2 1.18 2.45
-2 22 -2 164.07 22.07
-2 22 2 142.73 20.93
2 22 2 149.67 15.13
-2 -22 -2 91.84 21.29
2 22 -2 97.81 19.42
-2 -22 -2 182.9 22.58
-2 -22 2 191.9 20.89
2 -22 -2 164.28 22.99
2 -22 2 179.2 23.55
-2 23 -2 -1.5 6.22
-2 23 2 1.52 4.06
-2 -23 -2 -2.27 5.43
2 23 -2 1.76 3.65
2 -23 -2 -4.19 6.02
-2 -23 -2 1.55 4.16
2 -23 -2 -1.8 5.28
2 -23 2 1.78 6.01
-2 -23 2 1.23 3.88
-2 -24 -2 439.43 58.54
-2 24 2 649.4 56.88
-2 24 -2 685.71 57.69
2 24 -2 407.42 54.69
2 -24 2 1045.53 66.82
2 -24 -2 1141.18 63.79
-2 -24 2 803.15 55.97
-2 -24 -2 802.87 59.41
2 -24 -2 822.4 62.61
2 -24 2 789.73 62.03
2 0 3 0.81 1.08
2 0 -3 -3.23 0.04
2 0 3 -0.57 0.97
-2 0 3 4.43 2.34
-2 0 3 1.82 1.62
-2 0 -3 0.96 0.52
2 0 3 0.82 0.59
-2 0 3 0.55 0.66
-2 0 3 1.68 0.79
-2 0 -3 0.23 0.55
2 0 -3 -1.52 1.82
-2 0 3 1.84 1.23
-2 0 3 0.94 0.84
-2 0 -3 1.56 1.04
2 0 3 2.22 1.49
2 0 3 1.97 1.36
-2 0 3 0.29 1.13
-2 0 -3 0.56 1.34
2 0 -3 0.44 0.43
-2 0 3 0.31 0.75
2 1 3 0.52 1.25
2 -1 3 1.74 1.38
2 -1 -3 3.21 3.83
2 1 3 -0.38 1.11
-2 -1 3 0.92 1.55
-2 1 3 2.21 1.75
2 1 -3 -3.24 5.47
2 1 -3 0.5 1.04
-2 1 3 0.59 1.23
2 -1 3 2.4 0.81
-2 -1 3 1.79 1.43
-2 -1 3 0.54 0.91
-2 1 3 0.69 0.55
-2 -1 3 1.16 1.39
-2 -1 3 0.93 0.91
-2 1 3 -0.61 0.73
2 1 -3 3.05 2.58
2 -1 -3 1.51 1.81
-2 1 3 0.47 0.97
2 1 -3 1.57 1.4
2 1 3 1.14 1.36
2 -1 3 1.07 0.9
-2 -1 3 0.9 0.94
-2 1 -3 0.27 0.71
-2 1 -3 2.26 1.35
-2 -1 -3 1.2 0.96
-2 -1 -3 1.26 0.83
-2 1 3 0.55 0.73
2 -1 3 -0.65 1.56
-2 -1 3 0.53 0.66
-2 1 3 0.34 0.81
2 1 3 -0.67 1.13
-2 1 3 0.78 1.04
-2 1 -3 1.16 1.55
2 -1 -3 0.61 0.65
-2 -1 3 0.58 0.6
-2 -1 -3 1.12 1.34
2 2 -3 154.91 29.05
2 2 3 183.14 13.54
2 2 -3 168.15 15.81
2 -2 3 179.65 14.64
2 2 3 161.27 14.23
-2 -2 3 169.09 19.09
-2 2 3 157.49 10.67
-2 -2 3 176.22 14.9
-2 2 3 174.62 15.77
-2 -2 3 171.94 15.37
-2 -2 3 186.73 14.26
2 -2 3 194.76 12.01
2 2 -3 179.97 15.18
-2 -2 3 179.19 15.44
-2 2 3 173.42 11.93
2 2 3 198.82 12.17
-2 2 -3 172.11 12.83
-2 -2 -3 149.95 13.46
-2 2 3 171.13 14.46
2 2 -3 165.61 14.49
2 -2 -3 173.05 21.67
2 -2 3 146.09 14.08
-2 -2 -3 158.93 11.43
2 2 3 171.81 15.32
-2 -2 3 168.93 14.19
2 2 3 162.38 15.84
-2 2 3 155.69 14.11
-2 2 -3 151.37 14.91
2 -2 -3 170.83 12.51
-2 -2 3 154.25 12.32
-2 -2 -3 155.91 14.79
-2 2 3 162.41 13.22
2 3 -3 105.52 12.66
2 3 -3 99.26 9.11
2 -3 3 121 11.37
2 3 3 84.59 9.69
-2 -3 3 108.33 15.39
2 3 -3 128.2 25.5
-2 -3 3 114.29 11.7
-2 -3 3 116.62 11.38
-2 -3 3 110.75 11.46
2 3 -3 119 11.49
-2 3 3 117.78 12.33
2 -3 3 95.27 10.48
2 3 3 127.84 8.2
-2 3 -3 101.36 9.54
-2 -3 3 104.92 10.32
2 3 -3 113.68 11.05
-2 3 3 105.06 10.81
2 -3 -3 116.05 17.02
-2 -3 -3 97.56 10.15
-2 3 3 115.28 8.09
-2 3 -3 90.52 10.89
2 3 -3 93.91 8.83
-2 3 3 100.6 11.11
2 3 3 96.16 11.78
-2 -3 -3 92.48 10.97
2 -3 -3 108.42 9.68
2 4 -3 253.36 37.86
-2 4 3 273.72 20.68
2 4 -3 258.96 24.44
2 4 3 242.12 20.02
-2 -4 3 286.23 28.6
-2 -4 3 314.8 22.9
-2 4 -3 261.7 18.06
-2 4 3 276.63 22.9
-2 -4 3 290.6 22.2
2 4 -3 284.12 21.77
2 4 -3 252.2 19.77
-2 4 3 315.31 17.66
-2 4 -3 299.32 20.76
2 -4 -3 314.48 30.17
-2 -4 3 299.1 21.01
2 4 3 276.84 17.38
2 4 -3 278.12 21.11
-2 4 3 283.86 21.48
2 -4 3 253.67 21.06
-2 -4 -3 255.24 20.49
-2 4 -3 259.47 22.01
2 -4 -3 274.29 20.53
2 4 -3 268.83 19.08
-2 4 3 283.4 22.77
2 4 3 280.24 23.13
-2 -4 -3 287.14 22.46
2 5 3 2.74 1.65
2 5 -3 9.32 6.44
2 -5 -3 5.95 6.16
-2 -5 3 16.15 6.09
-2 5 3 3.58 1.79
2 5 -3 -1.08 2.58
-2 -5 3 5.43 2.4
-2 -5 -3 5.67 1.3
-2 5 -3 3.1 1.45
2 5 -3 5.03 2.32
2 5 -3 4.7 2.26
2 5 3 3.83 1.15
2 -5 3 3.44 1.95
-2 5 3 5.89 2.55
2 -5 -3 1.41 2.93
2 5 -3 5.87 3.93
-2 -5 3 5.46 2.38
-2 5 -3 7.09 2.62
2 5 -3 3.78 1.94
-2 -5 -3 1.65 1.33
2 -5 -3 7 1.8
-2 5 -3 4.7 2.55
-2 5 3 2.98 2.52
2 -5 -3 4.03 2.18
2 5 -3 2.67 1.38
2 5 3 4.64 2.62
2 6 -3 27.4 12.14
2 -6 -3 20.25 9.87
2 6 -3 17.09 6.16
-2 6 -3 26.3 5.39
-2 6 3 14.75 3.36
-2 -6 3 22.31 7.73
2 6 -3 31.7 5.53
-2 -6 3 19.64 4.59
-2 6 -3 16.74 3.61
2 6 -3 21.44 4.88
2 6 3 37.6 9.71
2 -6 -3 20.62 7.09
2 6 3 27.86 3.27
-2 6 -3 26.84 5.46
2 6 -3 30.21 8.17
-2 -6 3 27.35 4.88
2 6 -3 26.5 4.94
2 -6 3 26.04 5.13
-2 6 3 20.07 4.82
2 -6 -3 21.71 3.33
-2 -6 -3 25.29 4.94
-2 6 3 28.75 6.34
2 6 -3 26.16 4.33
2 -6 -3 23.58 5.21
2 6 3 25.84 5.95
-2 -6 3 26.91 3
-2 6 -3 25.81 5.64
2 -7 -3 145.55 26.45
2 7 -3 152.19 19.31
-2 7 -3 150.67 15.54
-2 -7 -3 132.38 12.67
-2 7 3 187.09 12.94
-2 -7 3 160.92 22.01
2 7 -3 154.13 27.88
-2 -7 3 141 14.16
-2 7 -3 141.72 12.4
2 7 -3 152.76 15.45
2 7 -3 169.25 14.78
2 7 3 195.05 22.25
2 7 -3 142.76 14.36
-2 7 -3 177.92 16.4
2 7 -3 144.74 14.06
-2 -7 3 139.2 13.39
2 7 3 137.14 10.68
2 -7 -3 126.48 10.8
2 -7 -3 142.81 18.82
2 7 -3 144.47 19.18
-2 7 3 146.65 14.82
2 -7 3 154.53 14.69
-2 -7 -3 135.54 13.92
2 -7 3 133.74 14.19
2 7 3 144.54 16.11
-2 7 -3 136.39 13.15
-2 7 3 150.98 16.4
-2 -7 3 145.52 11.04
2 -7 -3 118.47 14.46
2 7 -3 126.62 12.62
-2 -8 -3 27.97 6.63
2 8 -3 31.61 11.96
2 -8 -3 21.59 10.28
-2 8 -3 29.03 6.33
2 8 -3 38.66 9.81
-2 -8 3 18.07 3.15
-2 -8 -3 18.96 3.94
-2 8 3 22.46 3.81
-2 -8 3 30.6 9.21
2 -8 3 21.2 5.42
2 8 -3 20.5 4.93
-2 -8 3 18.01 4.53
-2 8 -3 20.11 4.4
2 8 3 36.97 9.6
2 8 -3 26.04 5.29
2 8 -3 21.04 5.58
-2 -8 -3 15.76 4.42
-2 8 3 21.29 5.33
2 8 -3 25.08 5.37
2 -8 -3 32.29 8.4
2 8 3 21.62 3.43
-2 -8 3 26.32 4.9
2 8 -3 16.38 6.23
2 -8 3 31.51 5.98
2 -8 -3 26.54 3.82
-2 8 3 16.33 5.75
2 -8 3 19.51 5.06
2 -8 -3 21.95 5.81
-2 8 -3 23.38 4.72
2 8 -3 19.55 4.42
2 8 3 16.83 5.3
-2 8 3 17.83 8.51
-2 -8 3 29.12 4.26
2 -9 3 -0.81 2.37
-2 -9 3 1.9 2.28
-2 -9 -3 0.92 1.23
2 9 -3 -2.78 4.69
2 -9 -3 2.6 4.39
-2 -9 3 0.3 0.87
-2 9 -3 -0.93 1.58
2 9 -3 1.6 2.71
-2 -9 -3 -1.04 1.24
-2 -9 3 0.71 1.46
-2 9 -3 1.81 1.61
2 9 -3 2 2.39
2 9 3 0.91 1.54
2 9 -3 -0.67 1.39
-2 9 3 13.81 4.38
2 9 -3 1.53 1.83
2 9 3 -1.49 3.09
2 -9 3 -0.77 1.29
2 9 3 0.36 0.75
-2 9 3 0.8 1.35
2 -9 -3 2.5 2.99
2 9 -3 1.33 2.25
2 -9 -3 0.36 0.74
-2 -9 -3 2.22 1.98
2 9 -3 1.44 1.49
2 9 3 2.17 2.25
-2 -9 3 -1.18 1.99
-2 9 3 -1.02 2.12
2 -9 -3 1.02 2.44
-2 -9 3 2.27 1.8
2 -9 3 0.81 1.68
-2 9 3 -2.15 4.45
2 9 -3 0.71 1.2
-2 -9 3 -2.43 4.1
-2 9 3 -2.17 1.84
-2 9 -3 -0.58 1.38
2 10 -3 7.98 5.53
-2 -10 -3 11.55 2.97
2 -10 3 6.69 4.25
-2 -10 3 17.78 7.85
-2 10 -3 9.17 4.08
2 10 -3 29.11 8.94
-2 -10 -3 11.25 4.69
2 10 3 9.69 4.83
2 -10 3 6.9 3.3
-2 -10 3 9.45 2.37
2 -10 -3 19.87 9.41
2 10 -3 11.29 4.51
-2 -10 3 6.86 3.07
-2 10 -3 7.58 3.24
2 10 -3 10.85 4.15
2 10 -3 8.61 3.37
2 10 -3 9.12 3.61
2 10 3 9.89 4.3
2 10 3 42.32 10.24
-2 10 3 10.43 4.42
2 10 3 9.99 2.73
2 -10 -3 9.87 2.66
2 -10 -3 13.28 5.03
2 10 -3 7.64 4.34
2 -10 3 9.23 3.66
2 10 -3 8.68 3.44
2 10 3 10.13 7.44
-2 10 3 17.28 5.8
-2 -10 3 9.05 2.97
2 -10 -3 12.32 4.86
-2 10 -3 9.87 3.26
2 -10 3 6.19 3.38
-2 -10 3 16.92 5.59
-2 10 3 7.32 3.58
-2 10 3 12.36 6.99
-2 -10 3 18.79 8.9
2 10 -3 10.09 3.8
2 10 3 11.96 4.98
-2 -11 3 8.1 2.39
-2 -11 -3 5.56 2.41
2 11 -3 17.79 8.61
2 -11 -3 9.5 6.37
2 -11 3 13.7 4.91
-2 11 -3 5.51 3.52
-2 -11 3 18.61 7.84
2 11 -3 5.42 3.78
2 11 3 8.93 4.04
2 -11 3 9.27 4.47
-2 11 3 11 2.84
-2 -11 -3 7.2 4.09
2 11 -3 10.16 4.17
-2 -11 3 8.25 4.38
-2 -11 3 9.21 3.78
2 11 3 10.74 4.48
-2 11 -3 6.99 3.26
2 11 -3 7.25 3.29
2 11 -3 17.31 5.94
-2 11 3 16.45 5.66
2 11 -3 14.53 4.42
2 11 3 19.85 7.09
2 -11 3 9.27 3.71
2 11 -3 6.95 3.16
2 -11 -3 13.83 4.99
2 11 -3 13.35 5.45
2 -11 3 4.8 5
2 11 3 14.47 3.45
2 11 3 13.91 7.86
2 -11 -3 9.89 2.92
2 11 -3 13.79 4.74
-2 -11 3 15.19 4.08
-2 11 -3 12.59 3.83
2 -11 3 4.77 2.84
-2 -11 3 9.03 6.06
-2 11 3 11.83 7.09
2 11 3 15.83 5.92
-2 11 3 13.81 4.89
-2 -11 3 12.87 4.83
2 -11 -3 10.91 4.83
-2 -12 -3 553.85 40.04
-2 12 3 638.33 41.01
-2 -12 -3 597.37 48.44
-2 -12 3 572.43 39.54
2 12 -3 682.37 61.15
2 -12 -3 562.75 56.6
-2 -12 3 818.17 62.04
-2 -12 3 567.35 44.89
-2 12 -3 650.66 45.29
2 12 -3 683.32 45.41
2 12 -3 689.46 47.36
-2 12 3 817.82 51.03
-2 -12 3 528.61 48.45
2 12 -3 607.27 49.35
2 -12 3 664.98 59.4
-2 -12 3 617.54 57
2 12 3 584.8 56.63
2 12 -3 651.1 46.5
2 -12 -3 630.66 47.48
2 12 -3 630.65 48.03
2 -12 -3 605.55 41.14
-2 12 3 686.57 56.05
2 -12 3 606.03 46.41
-2 -12 3 745.64 44.43
2 12 3 670.72 47.79
2 -12 3 560.65 45
2 -12 -3 671.28 50.04
-2 -12 3 642.63 46.72
-2 12 -3 670.7 43.89
2 12 3 779.17 53.82
-2 12 3 643.37 45.78
2 -12 3 647.9 46.94
2 12 -3 736.4 50.19
2 13 -3 40.99 12.55
2 -13 -3 34.21 11.23
-2 -13 -3 24.68 7.81
-2 -13 3 33.07 11.87
-2 -13 3 18.52 4.08
-2 -13 -3 24.17 4.76
-2 13 3 25.5 5.42
-2 -13 3 20.45 6.91
-2 -13 3 27.16 6.84
-2 13 -3 23.58 6.33
2 13 -3 26.25 8.11
-2 -13 -3 16.12 6.44
-2 13 3 29.41 7.95
2 13 -3 25.91 6.97
2 -13 -3 26.01 6.61
2 13 -3 27.45 7.05
2 13 3 27.17 9.09
2 -13 -3 28.12 5.45
2 -13 3 10.26 6.17
2 -13 3 33.99 7.88
-2 -13 3 37.68 7.6
-2 13 3 26.97 6.31
2 -13 -3 32.94 8.79
-2 -13 3 37.16 6.74
2 13 -3 24.86 7.47
2 -13 3 30.23 7.7
-2 13 3 37 10.2
-2 -13 3 36.71 11.26
2 13 3 41.31 10.15
2 13 3 17.13 5.52
2 -13 3 25.61 6.13
-2 -14 -3 88.14 11.06
-2 14 3 156.4 14.92
-2 -14 3 143.1 12.95
-2 -14 -3 126.81 18.65
-2 -14 3 195.5 27.86
2 14 -3 135.57 22.82
2 -14 -3 147.21 23.13
-2 14 -3 121.65 16.08
-2 -14 3 97.08 16.79
-2 14 3 198.82 21.11
-2 -14 -3 125.21 17.62
2 -14 -3 102.77 12.89
-2 14 3 158.19 21.63
2 14 -3 142.36 17.79
2 -14 3 140.19 21.87
2 14 3 130.33 19.96
2 -14 -3 128.12 15.7
-2 -14 3 148.75 22.46
2 -14 3 156.65 18.61
-2 14 3 143.76 15.35
-2 -14 3 152.13 16.03
2 14 3 154.86 21.42
2 -14 -3 159.93 20.28
2 -14 3 139.53 15.21
2 14 3 129.08 14.98
-2 -14 3 183.75 16.61
2 -14 3 115.04 16.43
-2 -15 -3 5.34 2.34
-2 -15 -3 1.57 2.66
2 15 3 5.93 2.67
-2 -15 3 6.98 2.71
-2 -15 3 7.03 6.86
-2 15 3 2.37 2.33
-2 -15 3 4.57 4.47
-2 15 3 5.28 3.88
-2 -15 -3 5.63 4.13
2 -15 3 3.83 3.42
2 15 -3 7.42 3.92
2 -15 -3 6.28 2.83
2 -15 3 3.02 2.23
-2 -15 3 9.44 3.85
2 15 3 9.48 4.64
2 -15 -3 10.56 5.11
2 15 3 3.22 2.17
-2 15 3 7.54 4.42
-2 15 3 5.26 2.56
2 -15 3 10.3 4.63
-2 -15 3 8.77 5.15
2 -15 3 10.43 5.5
2 15 3 1.86 3.87
-2 -15 3 3.99 2.72
-2 -16 3 153.72 25.54
-2 -16 -3 112.11 18.28
-2 -16 -3 105.33 11.21
-2 16 3 153.05 15.8
-2 16 3 118.19 17.15
2 16 3 113.67 12.58
-2 -16 3 117.2 12.73
-2 16 -3 152.58 19.68
-2 -16 -3 102.2 17.52
-2 -16 3 107.68 17.59
2 16 -3 117.93 17.28
-2 16 3 136.36 18.07
2 16 3 119.76 17.57
-2 -16 3 132.63 19.05
2 -16 3 121.2 18.23
2 -16 -3 66.52 11.93
-2 16 3 136.15 13.57
-2 -16 3 125.96 13.48
2 -16 3 110.96 12.76
2 16 3 120 13.26
2 16 3 115.98 20.05
-2 -16 -3 97.07 15.04
-2 -16 3 188.44 17.4
2 -16 -3 156.47 20.49
2 -16 3 149.94 18.85
-2 17 3 41.01 10.29
-2 17 -3 59.71 12.62
2 17 3 56.29 8.28
-2 -17 -3 39.32 11.65
-2 -17 -3 38.52 11.04
-2 -17 3 55.96 12.64
2 17 -3 61.39 12.27
2 -17 -3 30.28 7.76
2 17 3 59.3 11.01
2 17 3 57.72 8.17
2 -17 -3 69.38 13.38
2 -17 3 52.15 7.61
-2 -17 3 78.46 11.09
-2 17 3 44.67 7.1
2 -17 3 54.92 11.54
-2 -17 3 58.38 11.61
-2 -17 -3 50.35 10.36
2 -17 3 41.4 10.33
2 17 3 66.21 15.36
-2 18 -3 11.9 6.44
-2 -18 -3 7.13 4.3
2 18 3 8.86 3.6
-2 18 3 7.51 5.71
-2 -18 -3 11.37 6.82
-2 -18 3 7.83 5.33
2 18 -3 15.25 6.35
-2 18 -3 12.05 3.27
2 -18 -3 11.23 4.77
2 -18 3 6.48 2.65
2 18 3 16.23 3.83
-2 -18 -3 14.66 5.78
2 -18 3 12.73 5.31
-2 -18 3 19.04 5.78
2 -18 -3 14.91 6.6
2 18 3 13.59 7.69
2 -18 3 19.81 7.31
-2 18 3 14.29 3.44
-2 -18 3 5.95 3.81
2 18 3 15.3 5.21
-2 19 3 4.07 1.72
-2 -19 -3 -2 4.14
-2 19 -3 4.53 4.78
2 19 3 4.15 2.62
-2 19 3 4.59 4.48
-2 -19 3 6.21 4.91
2 -19 -3 1.09 2.26
2 19 -3 3.24 3.87
-2 -19 -3 1.4 2.91
-2 -19 3 1.04 2.8
2 -19 3 7.97 5.05
2 -19 3 3.2 2.56
2 19 3 4.03 1.94
2 19 3 7.16 5.71
2 -19 -3 11.92 5.76
-2 -20 -3 113.18 21.79
2 20 3 154.74 15.35
-2 20 3 148.77 20.68
-2 20 -3 132.97 20.27
-2 -20 3 110.29 18.43
2 20 -3 76.56 17.09
2 -20 -3 175.03 19.5
-2 -20 -3 186.72 22.13
-2 -20 3 186.38 19.42
2 -20 3 152.61 21.57
2 20 3 172.46 27.99
2 21 3 23.01 5.7
-2 21 -3 15.53 7.23
-2 -21 -3 13 8.23
-2 21 3 17.2 7.28
-2 -21 3 7.72 5.27
2 -21 -3 15.47 5.91
2 21 -3 10.66 6.75
-2 -21 -3 18.35 7.79
-2 -21 3 14.43 5.68
2 -21 3 8.58 5.48
2 21 3 7.8 6.99
-2 22 3 278.29 30.39
-2 -22 -3 190.88 30.81
2 22 3 254.73 22.54
-2 -22 3 191.15 27.07
2 22 -3 136.08 26.19
2 -22 -3 371.27 30.08
-2 -22 -3 274.01 29.97
2 22 3 381.93 43.22
-2 -22 3 363.45 29.33
2 -22 3 336.94 33.52
-2 23 -3 7.77 5.89
-2 -23 -3 13.31 7.97
-2 23 3 3.15 3.78
-2 23 -3 4.07 5.46
2 23 -3 1.89 5.07
2 -23 3 17.42 7.8
2 -23 -3 10 5.19
-2 -23 -3 3.26 5.53
-2 -23 3 9.28 5.39
2 -23 3 10.82 6.83
2 23 3 13.82 8.75
-2 24 3 191.13 25.16
-2 24 -3 183.14 24.73
-2 -24 -3 120.77 24.72
-2 24 -3 171.93 28.02
2 24 -3 102.31 21.42
2 -24 -3 302.15 26.45
2 -24 3 251.21 29.09
2 24 -3 195.85 30.06
2 24 3 181.23 31.47
2 0 -4 4759.24 354.01
2 0 -4 5762.64 318.97
2 0 4 6190.64 319.54
2 0 4 6527.76 322.5
2 0 4 5964.17 316.04
-2 0 4 6345.02 322.49
-2 0 -4 5545.04 315.04
-2 0 4 6027.48 322.4
-2 0 4 6125.56 320.32
-2 0 -4 5898.85 317.15
2 0 -4 4714.16 332.08
-2 0 -4 5889.02 317.82
2 0 4 5772.79 320.71
-2 0 4 5721.87 315.54
2 0 4 5838.76 322.32
-2 0 -4 5646.37 320.29
2 0 -4 5325.57 313.89
2 -1 -4 6.25 2.25
2 1 -4 3.2 3.01
2 1 -4 3.9 4.69
2 -1 -4 19.37 11.36
2 1 4 22.09 4.53
2 -1 4 17.23 4.19
2 1 4 17.86 4.36
2 -1 4 12.52 2.71
-2 1 -4 14.77 2.64
2 1 4 8.38 2.43
-2 -1 4 14.42 4.32
-2 -1 4 12.07 3.92
-2 1 4 8.01 3.83
-2 -1 4 7.15 3.66
-2 1 4 5.51 3.01
2 -1 4 15.37 4.39
-2 1 4 7.9 3.06
-2 1 -4 22.07 3.8
2 1 4 12.37 3.18
-2 -1 4 9.95 3.71
-2 1 -4 11.51 3.22
-2 -1 -4 10.69 2.91
2 1 4 11.84 3.61
-2 -1 -4 14.03 3.04
-2 1 4 7.78 1.92
2 -1 -4 3.61 5.31
2 1 -4 1.82 4.89
2 1 4 10.92 4.71
-2 1 4 7.93 2.12
2 -1 -4 6.6 1.91
-2 -1 4 5.57 1.71
-2 1 -4 9.52 4.3
-2 -1 -4 9.42 3.82
2 -1 4 7.04 3.61
2 2 -4 1371.75 82.82
2 2 4 1427.39 79.73
2 -2 4 1367.05 78.96
2 2 -4 1019.52 105.27
-2 2 4 1232.19 80.93
-2 -2 4 1398.84 81.77
-2 2 4 1340.5 81.22
-2 -2 4 1386.32 81.69
-2 2 -4 1299.38 75.85
2 -2 4 1359.78 75.55
2 2 4 1469 76.42
-2 2 -4 1271.98 77.09
-2 -2 4 1380.76 79.82
-2 2 4 1288.83 79.5
-2 -2 -4 1326.75 76.28
2 -2 -4 1325.5 93.06
-2 2 -4 1432.53 77.82
2 -2 4 1248.39 79.3
-2 2 4 1330.18 74.18
-2 -2 -4 1214.31 77.08
2 2 4 1268.91 79.88
2 -2 -4 1283.16 76.05
-2 2 4 1245.1 76.02
2 2 4 1255.45 81.12
-2 2 -4 1333.85 78.87
-2 2 -4 1303.99 79.9
-2 -2 -4 1241.68 79.37
2 -3 4 1.63 1.72
2 3 -4 7.66 7.93
2 3 -4 0.98 2.04
2 3 4 2.5 1.89
-2 3 4 -0.76 1.57
-2 -3 4 -1.45 2.12
2 -3 4 1.79 1.33
2 3 -4 1.41 1.07
-2 -3 4 -0.71 0.86
2 3 -4 0.66 1.12
-2 -3 -4 0.81 1.37
-2 -3 -4 2.14 1.27
2 3 4 1.67 1.06
-2 3 4 1.18 1.42
-2 3 -4 2.21 1.5
-2 -3 4 2.24 1.64
-2 3 4 1.74 0.67
2 -3 4 0.59 1.22
-2 -3 -4 0.44 1.06
2 -3 -4 1.75 3.62
-2 3 -4 1.27 1.86
2 -3 -4 0.42 1.34
2 3 4 1.53 1.59
-2 3 -4 1.6 1.56
-2 -3 -4 0.63 1.5
2 4 -4 143.14 29.25
-2 -4 -4 102.73 13.19
2 -4 4 120.11 12.27
2 4 -4 124.27 16.12
2 4 4 130.98 11.69
2 -4 4 142.92 11.16
2 4 -4 125.51 13.32
-2 -4 4 137.22 14.01
-2 -4 -4 124.06 10.09
-2 -4 4 121.78 13.48
-2 4 4 130.32 14.16
2 4 -4 123.38 13.16
2 4 -4 122.8 10.91
2 -4 4 118.51 12.39
-2 -4 -4 112.77 11.26
-2 4 -4 134.1 12.08
-2 -4 4 127.83 12.49
2 4 -4 104.45 12.33
-2 4 4 120.48 12.6
2 -4 -4 111.7 18.55
2 4 4 135.42 10.1
2 4 -4 119.08 9.36
2 -4 -4 101.65 11.41
-2 4 -4 109.56 12.53
2 4 4 125.69 14.05
-2 4 -4 113.04 11.61
2 5 -4 22.1 12.55
2 -5 -4 25.04 12.19
2 5 -4 45.85 9.9
-2 5 4 20.23 4.24
2 5 4 29.59 4.87
2 -5 4 37.01 5.37
-2 5 4 29.96 6.65
-2 -5 -4 26.79 6.21
-2 -5 -4 31.44 4.03
2 5 -4 26.97 4.91
-2 -5 4 21.59 5.45
-2 5 4 25.05 2.75
2 5 -4 28.81 5.88
-2 5 4 28.04 5.66
2 -5 4 28.24 5.52
2 5 4 31.53 4.1
-2 5 -4 33.18 5.62
-2 -5 4 29.78 5.33
2 5 -4 30.78 5.96
-2 -5 -4 20.55 4.47
2 -5 -4 16.73 7.37
2 5 -4 22.44 8.13
-2 5 -4 30.79 5.99
2 5 -4 25.31 3.63
2 -5 -4 32.55 5.98
2 5 4 32.52 6.63
-2 5 -4 35.73 5.62
2 6 -4 32.3 13.6
2 -6 -4 20.79 11
2 6 4 14.54 3.44
2 6 -4 34.98 8.93
-2 6 4 21.5 4.18
-2 -6 -4 16.16 4.77
-2 -6 4 22.64 5.27
-2 -6 -4 20.92 3.12
2 6 -4 22.64 5.16
2 6 -4 19.28 4.58
-2 6 4 18.03 3.08
-2 6 -4 19.06 3.66
2 6 -4 21.92 7.6
-2 6 4 11.07 3.63
2 6 -4 12.45 3.82
2 6 4 20.6 3.31
-2 -6 4 27.5 5.06
-2 6 -4 18.3 4.62
2 -6 4 16.14 4.28
-2 -6 -4 17.76 4.09
2 -6 -4 19.53 7.6
-2 6 -4 16.22 4.51
2 -6 -4 12.08 4.19
2 6 -4 11.4 2.61
-2 6 -4 14.45 3.7
2 6 4 22.23 5.7
2 7 -4 6.96 7.21
2 -7 -4 -3.35 5.66
2 7 -4 1.59 3.81
-2 7 4 0.83 1.21
2 7 -4 0.73 1.52
-2 7 -4 1.89 1.79
-2 -7 4 -0.75 2.19
2 7 4 0.44 0.49
-2 -7 -4 0.94 1.58
2 7 -4 0.77 1.84
-2 7 4 1.24 1.31
2 -7 -4 -1.57 3.76
2 7 -4 1.63 1.95
-2 7 4 1.49 1.55
2 -7 4 0.71 1.46
2 7 -4 0.73 0.87
-2 -7 4 -0.58 1.71
-2 7 -4 0.71 1.71
-2 -7 -4 0.61 1.63
2 7 4 1.3 1.35
-2 7 -4 -0.78 1.62
2 -7 -4 1.85 2.22
-2 7 -4 0.57 1.79
2 7 -4 0.4 1.16
2 7 4 0.96 1.62
2 8 -4 2112.52 135.77
-2 8 4 2502.08 120.04
2 8 -4 2131.39 155.78
2 -8 -4 2076.7 152.13
-2 -8 4 2155.64 124.54
2 8 -4 2221.31 126.86
-2 8 -4 2119.21 121.41
-2 -8 -4 2020.34 126.3
2 8 -4 2364.74 125.54
-2 8 4 2104.9 121.45
-2 -8 4 2244.95 123.92
-2 8 -4 2258.67 125.94
2 8 -4 2174.33 124.67
2 8 4 2076.76 118.93
-2 8 4 2074.63 124.89
2 -8 -4 2167.31 134.12
2 8 -4 1960.71 133.35
2 -8 -4 1958.12 117.02
-2 -8 -4 1992.78 122.47
2 -8 4 1916 123.73
-2 8 -4 2069.45 125.6
-2 8 -4 2047.33 121.72
2 8 4 2115.74 127.68
2 -8 -4 1929.64 126.77
2 8 -4 1877.23 119.88
2 9 -4 25.99 12.3
2 -9 -4 12.4 9.1
2 9 -4 10.94 7.25
-2 -9 4 13.97 3.46
-2 -9 -4 18.24 6.18
-2 9 4 8.56 2.66
2 -9 4 15.67 5.17
-2 -9 4 13.15 4.65
-2 9 -4 13.4 4.29
2 9 -4 13.83 5.09
-2 -9 -4 12.13 5.16
2 9 -4 8.39 4.56
2 9 4 21.4 8.4
-2 9 4 14.68 4.27
-2 9 4 13.26 5
2 -9 -4 11.74 6.11
2 -9 -4 8.26 2.2
-2 -9 4 7.78 3.77
-2 9 -4 14.84 5.9
2 9 -4 14.21 5.04
2 9 -4 13.75 6.86
2 -9 4 13.17 4.66
2 9 4 18.39 3.72
-2 -9 -4 12.87 4.32
2 -9 -4 9.2 5.7
2 9 -4 6.34 2.91
-2 9 -4 12.81 4.11
-2 -9 4 10.53 2.09
2 9 4 11.25 5.07
-2 -10 -4 3294.33 221.69
2 10 -4 4173.15 235.73
2 10 -4 3812.27 248.47
-2 -10 4 3653.94 214.23
2 -10 -4 4033.88 248.36
2 10 -4 4164.91 221.45
-2 -10 4 3832.29 220.09
-2 10 -4 4328.94 219.89
-2 -10 -4 3590.8 222.1
-2 10 4 4246.55 220.52
2 10 -4 3880.86 224.7
2 -10 -4 3601.78 212.77
-2 10 -4 4071.09 223.77
2 10 -4 4025.02 221.66
2 -10 -4 3894.16 228.22
2 10 -4 3696.76 227.68
2 -10 4 3776.07 220.74
2 10 4 3996.29 215.12
-2 -10 -4 3727.61 218.82
2 -10 4 3740.67 220.47
-2 10 -4 3809.1 217.28
2 -10 -4 4055.27 225.98
2 10 4 3993.57 225.74
2 10 -4 3894.82 218.37
-2 -10 4 3723.4 212.35
-2 -11 -4 1.23 2.54
-2 -11 4 1.68 2.07
2 11 -4 -2.98 3.56
2 -11 -4 2.83 8.29
-2 -11 4 3.58 3.21
2 11 -4 6.42 4.1
-2 11 -4 3.15 2.83
-2 -11 -4 3.35 3.28
2 11 -4 1.3 3.47
-2 11 4 2.68 2.82
-2 -11 -4 5.81 3.44
2 11 4 3.54 2.18
2 -11 -4 1.41 1.69
2 11 -4 2.82 4.12
2 -11 4 0.98 2.34
2 -11 -4 -1.35 4.28
-2 11 -4 3.5 3.94
2 11 -4 4.92 3.72
2 -11 -4 8.01 5.3
-2 11 -4 3.35 2.66
-2 -11 4 1.13 1.8
2 11 -4 -0.83 2.81
2 -11 4 6.86 4.06
2 11 4 1.33 2.77
2 12 -4 1540.58 112.59
-2 -12 -4 1246.46 91.95
-2 -12 4 1372.08 83.42
2 -12 -4 1205.93 105.17
-2 12 -4 1495.59 89.04
-2 -12 4 1375.12 89.71
2 12 -4 1658.42 92.18
2 12 -4 1302.41 93.87
-2 -12 -4 1269.01 90.98
-2 12 4 1553.94 91.24
-2 12 -4 1316.19 93.03
2 12 -4 1532.08 92.24
-2 12 4 1507.13 104.62
2 12 4 1583.28 85.99
2 12 -4 1371.08 94.09
2 -12 -4 1421.96 83.18
2 -12 -4 1466.85 94.41
2 -12 4 1312.76 91.09
-2 -12 -4 1402.24 89.06
2 -12 4 1442.18 91.29
-2 -12 4 1329.28 92.06
-2 -12 4 1354.31 83.53
-2 12 4 1405.88 91.54
2 -12 -4 1613.15 97.21
2 12 4 1523.87 97.39
2 12 -4 1552.25 91.51
2 13 -4 2.68 4.53
2 -13 -4 -2.56 4.33
2 -13 4 1.09 1.84
2 13 4 -1.18 2.83
-2 -13 4 1.49 1.57
-2 -13 -4 2.73 2.82
2 13 -4 1.52 3.14
-2 -13 4 1.03 2.47
-2 13 -4 1.87 2.5
2 13 -4 1.03 2.75
-2 13 4 1.08 2.89
-2 -13 -4 -1.27 3.03
2 13 4 -0.65 1.75
2 -13 -4 1.25 2.11
2 13 -4 1.15 3.38
-2 13 -4 -2.8 4.42
2 13 -4 1.28 1.53
2 13 4 -2.46 4.15
2 -13 4 -1.13 1.91
2 -13 -4 0.48 1.14
-2 13 4 1.06 2.19
2 -13 -4 -1.48 1.77
-2 -13 4 0.55 1.32
2 13 -4 1.14 2.72
2 13 4 1.59 2.69
2 -13 4 3.4 3.03
-2 13 4 -2.08 2.48
-2 -13 4 1.13 1.91
-2 -13 4 -2.36 3.99
2 -14 -4 94.09 19.17
-2 -14 -4 69.67 13.33
-2 -14 4 77.55 9.23
2 14 -4 98.42 20.24
2 -14 4 69.45 6.49
-2 -14 4 65.54 13.32
-2 -14 4 58.1 11.89
2 14 -4 89.46 13.28
-2 14 4 84.94 13.44
-2 -14 -4 84.29 13.95
2 14 -4 78.84 13.48
2 -14 -4 68.73 8.97
2 14 4 73.06 10.36
-2 14 -4 57.09 13.4
2 -14 -4 70.32 12.32
2 -14 4 77.37 17.58
2 14 -4 85.42 13.17
2 14 4 95.81 18.56
2 -14 4 68.21 12.4
-2 -14 4 103.1 19.24
2 14 4 89.68 13.17
2 -14 4 77.96 12.11
2 14 4 119.07 18.48
2 -14 4 78.25 12.95
2 14 -4 76.79 13.87
-2 14 4 90.62 17.19
2 -14 -4 112.94 16.88
-2 14 4 82.21 12.07
-2 -14 4 110.8 14.18
-2 -14 4 92.52 10.49
2 -15 -4 4.53 5.44
2 15 -4 2.35 4.89
-2 -15 -4 13.93 6.15
-2 -15 4 8.09 3.04
-2 -15 4 7.8 4.59
-2 -15 4 12.09 5.23
-2 15 4 3.75 3.37
-2 -15 -4 7.13 4.2
2 -15 4 4.3 4.47
2 -15 -4 14.35 5.13
2 15 4 8.45 3.81
-2 15 -4 4.81 4.31
2 15 -4 9.47 4.87
2 -15 4 18.26 6.45
2 -15 -4 7.48 2.82
2 15 4 14.18 7.28
2 15 -4 12.33 5.03
2 -15 -4 19.24 7.19
-2 -15 4 4.23 4.4
2 15 4 6.92 3.76
-2 -15 4 11.99 3.8
-2 -15 4 9.75 3.89
2 -15 4 9.17 4.13
2 -15 4 20.81 6.61
2 15 4 7.45 5.47
-2 15 4 3.69 3.85
2 15 -4 14.68 6.1
-2 15 4 4.63 3.16
2 16 -4 21.79 9.09
-2 -16 4 22.1 5
2 -16 -4 25.35 9.17
-2 -16 -4 14.68 6.25
-2 16 4 15.89 6.77
-2 -16 4 17.4 6.9
-2 16 4 23.73 7.3
-2 -16 -4 18 7.02
2 16 4 21.9 8.23
2 16 4 33.19 6.88
2 -16 -4 20.14 4.95
-2 16 -4 18.67 8.67
2 -16 4 25.61 9.18
2 -16 -4 19.56 5.87
2 -16 4 22.21 7.12
2 16 -4 20.64 6.01
2 16 -4 18.95 7.05
2 -16 -4 29.77 9.54
-2 -16 4 17.05 4.75
-2 -16 4 15.73 7.51
2 -16 4 18.04 6.92
2 -16 4 21.82 5.59
2 16 4 18.08 5.06
-2 16 4 12.78 4.67
2 16 4 16 8
2 16 -4 9.76 6.24
-2 17 4 1.49 3.08
2 17 4 0.71 1.71
-2 -17 -4 -1.73 3.58
2 -17 -4 -1.95 4.66
-2 -17 4 1.6 3.84
-2 -17 -4 1.6 3.31
2 17 -4 1.56 3.23
2 -17 4 4.39 3.91
-2 17 -4 -1.78 4.76
2 -17 -4 -0.78 2.27
2 17 4 0.9 3.23
-2 -17 -4 2.65 3.54
2 -17 -4 3.4 4.54
2 17 4 2.48 1.98
-2 -17 4 4.24 3.21
2 -17 4 7.25 4.25
2 17 4 -1.62 3.86
2 -17 4 -0.77 2.06
2 -17 4 -1.79 2.15
2 17 4 2.13 5.1
-2 17 4 3.13 2.29
-2 -17 4 1.8 3.73
2 17 -4 1.78 3.69
-2 -18 -4 860.36 72.29
-2 18 4 850.19 68.84
2 18 4 894.56 61.18
-2 -18 4 904.54 70.88
-2 18 -4 820.06 73.23
2 18 -4 973.15 72.49
2 -18 4 937.83 71.22
2 18 4 970.2 69.28
2 -18 4 1309.85 77.01
2 -18 4 1058.27 72.11
2 18 -4 893.71 74.24
2 -18 4 836.7 60.15
-2 18 4 949.34 61.45
2 18 4 906.43 61.26
-2 -18 4 1261.83 66.75
-2 -18 -4 948.75 69.58
2 -18 -4 1255.47 78.22
2 18 4 1250.61 85.33
-2 19 4 7.84 4.97
2 19 4 11.37 4.16
-2 -19 -4 5.79 6.11
-2 -19 4 9.7 5.8
-2 19 -4 1.92 5.62
2 -19 4 3.19 4.68
2 -19 -4 5.43 3.43
2 19 -4 5.28 5.16
-2 -19 -4 14.69 6.09
2 -19 -4 1.77 6
-2 -19 4 4.76 4.11
2 -19 4 -1.6 4.7
2 19 4 3.81 2.53
2 -19 4 4.24 3.79
2 19 4 7.12 6.35
2 19 -4 4.1 4.91
-2 20 4 1073.97 78.85
2 20 4 1097.61 69.75
-2 -20 -4 910.39 81.08
-2 -20 4 989.44 77.74
-2 20 -4 999.46 82.6
2 20 -4 919.89 79.46
2 -20 4 1487.64 86.13
2 -20 4 1069.27 74.3
2 -20 -4 1001.29 70.91
2 20 4 1048.55 66.29
2 20 -4 813.76 79.59
-2 -20 4 1402.49 75.34
-2 -20 -4 1071.14 78.29
2 -20 -4 1380.16 86.35
2 20 4 1223.85 91.76
2 -20 4 1344.86 83.52
-2 -21 -4 -2.11 5.04
-2 21 4 1.62 3.88
2 21 4 -0.76 2.74
-2 -21 4 -1.59 3.81
-2 21 -4 2.02 5.93
2 21 -4 1.94 6.55
2 -21 4 1.7 4.54
2 -21 -4 -1.01 2.71
-2 -21 -4 1.6 4.27
2 -21 -4 1.83 5.79
2 -21 4 3.46 5.06
2 21 -4 4.5 5.38
2 21 4 2.59 4.38
-2 22 4 493.62 46.3
-2 -22 -4 371.95 47.52
-2 -22 4 369.67 43.21
-2 22 -4 516.33 51.51
2 22 -4 331.3 44.87
2 -22 -4 673.62 43.99
2 22 -4 521.05 53.16
2 -22 -4 760.14 55.12
2 22 4 667.57 62.18
2 -22 4 667.43 51.73
-2 -22 -4 650.02 49.61
-2 -23 -4 2.17 2.59
-2 23 4 -1.64 3.39
-2 -23 4 3.11 2.63
-2 23 -4 2.08 6.1
2 -23 -4 2.16 2.58
2 23 -4 4.13 4.28
-2 -23 -4 1.7 4.55
2 -23 -4 -1.86 4.98
2 -23 4 -1.82 5.33
2 23 4 -2.78 8.13
2 23 -4 -2.39 6.38
2 0 5 3.93 2.12
2 0 -5 0.65 1.1
2 0 -5 4.79 8.09
-2 0 5 0.83 1.4
2 0 5 0.75 0.9
-2 0 5 0.85 1.44
-2 0 5 0.79 1.64
-2 0 5 0.26 0.63
-2 0 -5 0.92 1.35
2 0 5 2.27 1.54
-2 0 5 1.95 2.06
-2 0 -5 1.27 1.13
2 0 -5 2.21 2.64
2 0 5 0.67 1.13
2 0 5 1.51 2.02
-2 0 5 1.53 0.64
2 0 -5 2.35 0.72
-2 0 -5 0.61 1.04
2 -1 5 7.4 2.9
2 -1 -5 5.01 2.19
2 -1 -5 4.76 5.69
2 1 -5 6.77 3.51
2 1 -5 4.78 5.72
2 1 5 6.11 2.7
2 -1 5 3.92 1.64
-2 1 5 7.28 3.22
-2 1 -5 2.87 1.34
-2 -1 5 2.47 2.22
-2 -1 5 5.92 2.87
2 1 5 5.03 1.92
2 1 5 7.92 2.45
-2 -1 5 7.22 2.84
-2 1 5 3.47 1.14
2 1 -5 -2.21 0.23
-2 1 -5 4.28 1.9
-2 1 -5 5.28 2.12
-2 -1 -5 5.44 1.95
-2 1 5 8.49 3.03
2 -1 -5 8.78 5.87
2 -1 5 2.63 1.78
-2 -1 -5 7.18 2.35
2 1 5 2.03 1.99
2 1 5 8.52 3.35
-2 1 5 2.9 1.13
2 -1 -5 6.27 1.59
-2 1 -5 1.85 1.49
-2 -1 -5 3.72 2.24
2 2 -5 118.51 30.1
2 -2 -5 103.59 9.2
2 -2 5 136.83 12.6
2 2 -5 132.84 15.79
2 2 5 126.6 12.6
2 -2 5 122.84 10.35
-2 -2 5 136.27 14.69
-2 2 -5 110.15 9.86
-2 2 5 139.57 14.7
-2 -2 5 132.73 14.34
2 2 5 132.62 10.84
-2 2 5 123.31 12.66
-2 -2 -5 128.14 10.99
-2 2 -5 123.79 11.46
-2 -2 -5 133.29 11.34
2 -2 -5 142.84 22.52
-2 -2 5 147.51 13.7
-2 2 5 99.88 7.13
2 -2 5 111.94 12.24
2 2 5 107.91 12.23
-2 -2 -5 112.85 12.27
-2 2 -5 101.58 11.32
2 2 5 100.68 12.68
-2 2 -5 117.4 12.22
-2 2 5 96.79 8.75
2 -2 -5 121.63 10.32
2 3 -5 70.15 23.63
2 3 -5 91.96 14.26
2 3 5 92.37 10.29
2 -3 5 108.04 11.26
-2 -3 -5 85.21 11.87
2 3 -5 76.5 7.32
-2 -3 5 111.98 13.17
-2 -3 -5 98.21 9.45
-2 3 5 118.77 13.52
-2 -3 5 104.95 12.62
-2 3 -5 106.29 9.54
2 -3 5 97.91 9.17
-2 -3 -5 86.02 9.22
2 3 5 110.17 9.66
-2 -3 5 109.08 11.74
-2 3 -5 90.11 10.08
-2 3 5 103.06 11.59
-2 -3 -5 108.5 10.06
2 -3 -5 100.26 12.23
2 -3 5 84.55 10.64
2 -3 -5 97.59 19.02
2 -3 -5 85.67 9.71
2 3 5 108.25 12.84
-2 3 -5 89.88 10.81
-2 3 -5 103.4 10.82
2 -4 5 4.4 2.49
2 4 -5 1.4 1.68
2 4 -5 9.15 9.47
2 4 5 3.14 1.66
2 4 -5 8.85 3.47
-2 -4 5 6 3.08
-2 4 -5 3.68 1.83
2 -4 5 3.68 1.7
-2 -4 5 4.45 2.61
-2 -4 -5 3.99 1.73
2 4 -5 2.15 1.43
-2 4 5 0.9 1.86
-2 -4 -5 3.65 2.44
2 4 5 3.11 1.62
-2 -4 5 3.35 2.27
-2 -4 -5 0.41 1.11
-2 4 -5 3.51 1.98
2 -4 5 4.72 2.28
-2 -4 -5 0.46 1.45
2 4 -5 4.26 4.41
2 -4 -5 -2.08 3.52
-2 4 5 5.64 2.8
2 -4 -5 9.18 3.33
2 4 5 1.72 2.31
-2 4 -5 0.68 1.63
-2 4 -5 2.95 1.87
2 -5 -5 4.36 7.38
2 5 -5 4.67 3.23
2 5 5 0.49 1.02
2 5 -5 4.45 7.53
-2 -5 -5 4.68 2.74
2 5 -5 2.36 2.11
2 -5 5 1.4 1.12
-2 -5 5 3.7 2.48
2 5 -5 1 1.2
-2 -5 -5 1.55 1.14
2 5 -5 3.24 2.57
2 -5 5 0.71 1.2
-2 5 5 0.73 1.51
2 5 5 4.3 1.81
-2 5 -5 5.13 2.42
-2 -5 5 4.64 2.38
2 5 -5 4.14 3.51
2 -5 -5 8.07 4.83
-2 -5 -5 4.84 2.09
2 -5 -5 3.2 2.53
-2 5 -5 2.14 1.91
2 5 5 1.8 2.16
-2 5 -5 2.97 1.75
-2 6 5 43.71 6.28
2 6 -5 43.2 17.28
2 -6 -5 42.2 16.88
2 6 5 41.24 5.93
2 6 -5 35.71 10.2
-2 -6 5 51.32 8.77
2 6 -5 40.91 7.79
2 6 -5 44.14 7.71
-2 -6 -5 38.23 5.28
2 6 -5 44.86 7.21
2 -6 5 41.79 6.54
-2 -6 -5 41.62 8.08
-2 -6 5 50.01 7.51
-2 6 -5 47.45 7.62
2 6 5 47.25 5.82
-2 -6 -5 38.45 5.99
-2 6 5 40.47 7.24
2 -6 5 34.63 6.61
2 6 -5 34.02 7.16
2 -6 -5 46.76 12.08
2 6 -5 38.39 11.03
-2 6 -5 39.04 7.19
2 -6 -5 39.3 7.99
2 6 5 36.11 7.78
2 6 -5 36.08 3.9
-2 6 -5 49.15 7.04
-2 7 5 113.08 10.74
2 7 -5 108.31 27.49
2 -7 -5 121.71 28.09
2 7 -5 104.21 17.97
2 7 5 98.73 10.22
2 -7 5 114.94 12.58
2 7 -5 130.99 14.03
2 7 -5 143.95 15.02
-2 -7 -5 118.7 14.68
-2 -7 5 109.12 13.65
-2 -7 5 116.9 12.75
-2 -7 -5 105.81 11.24
2 7 5 121.29 10.61
2 7 -5 108.9 13.32
2 -7 -5 149.15 21.55
-2 7 -5 125.2 13.69
2 -7 5 112.61 13.08
2 7 -5 95.42 17.99
2 -7 -5 96.62 14.05
-2 7 -5 109.56 13.07
2 7 -5 96.7 8.61
2 7 5 119.81 14.85
-2 7 -5 104.7 11.57
-2 8 5 371.36 26.83
2 8 -5 448.13 43.39
-2 8 5 351.2 27.96
2 -8 -5 470.8 58.86
2 8 -5 444.56 58.57
2 8 -5 452.53 34.65
-2 -8 5 477.9 34.9
-2 8 -5 493 31.6
2 8 -5 508.93 35.59
-2 8 5 496.66 37.75
-2 -8 -5 459.53 35.71
-2 8 -5 501.23 34.85
2 8 -5 461.19 34.58
2 8 5 481.44 29.65
2 8 -5 401.9 41.7
2 -8 -5 502.2 44.06
2 -8 5 445.18 33.83
-2 -8 -5 447.64 31.22
-2 8 -5 469.18 34.2
2 8 -5 392.4 27.61
2 -8 -5 471.19 37.67
2 8 5 499.23 37.25
-2 8 -5 459.66 31.64
2 9 -5 3.84 4.6
2 -9 -5 3.72 6.3
-2 -9 5 4.79 2.23
2 9 -5 6.11 5.45
-2 9 5 4.92 1.8
-2 -9 5 5.58 2.95
-2 9 5 4.78 3.2
2 9 5 5.39 1.71
-2 -9 -5 2.12 2.84
-2 9 -5 2.6 1.92
-2 9 5 3.29 1.92
2 9 -5 10.52 4.13
2 9 -5 4.33 3.43
2 9 -5 2.87 2.3
-2 9 -5 2.81 2.76
2 -9 5 2.7 2.42
2 9 5 4.22 2.11
-2 -9 -5 4.66 2.4
2 9 -5 9.02 4.83
2 -9 -5 5.23 4.18
-2 9 -5 3.63 2.67
-2 9 -5 6.44 2.79
2 -9 -5 7.7 4.34
2 9 -5 4.63 1.9
2 9 5 3.51 2.81
2 10 -5 7.34 7.61
2 -10 -5 3.56 4.27
-2 -10 5 10.7 3.11
-2 -10 -5 8.33 4.05
-2 -10 -5 9.91 4.19
-2 10 5 8.86 4.56
-2 10 -5 9.33 3.35
-2 -10 5 12.42 4.59
-2 10 5 12.88 3.54
2 10 -5 11.04 4.66
2 -10 -5 5.02 4.02
2 10 -5 1.72 2.95
-2 10 -5 9.3 4.48
2 10 5 9.12 2.88
2 10 -5 16.39 5.21
2 -10 5 7.7 4.01
-2 -10 -5 10.11 3.48
-2 10 -5 4.87 3.11
2 -10 -5 13.77 5.72
2 10 -5 7.88 2.77
2 10 5 3.79 3.4
-2 -11 5 15.41 3.53
2 11 -5 17.53 11.11
2 -11 -5 6.78 7.05
-2 -11 -5 22.64 6.92
-2 11 5 9.34 5.34
-2 -11 5 7.99 4.19
-2 11 -5 11.91 4.08
-2 11 5 9.88 3.5
-2 -11 -5 5.84 3.48
2 11 -5 17.68 6.12
2 -11 -5 19.23 6.94
2 11 -5 8.25 5.26
2 -11 -5 13.38 2.04
-2 11 -5 15.97 5.66
2 11 -5 15.43 5.63
2 -11 5 14.37 5.25
2 11 5 15.84 3.87
-2 -11 -5 11.81 4.05
2 -11 -5 18.99 6.57
2 11 -5 12.84 3.82
-2 11 -5 7.34 4.39
2 11 5 8.2 4.67
-2 -12 -5 30.49 8.23
-2 -12 5 33.3 5.47
2 12 -5 29.97 12.69
2 -12 -5 48.44 15.52
-2 12 5 28.14 8.04
-2 -12 5 42.72 8.68
-2 12 -5 33.41 6.99
-2 12 5 33.22 6.72
2 12 -5 29.61 8.63
-2 -12 -5 33.13 8.32
2 -12 -5 33.66 8.91
2 12 -5 28.27 8.54
2 12 -5 33.28 8.07
-2 12 -5 27.2 7.7
2 -12 -5 28.23 3.62
2 -12 5 25.19 6.86
2 12 5 31.63 5.79
-2 -12 -5 31.31 6.74
2 -12 -5 36.87 9.67
2 12 -5 30.16 6.6
-2 -12 5 20.76 3.38
2 12 5 22.28 7.7
-2 -13 5 33.31 5.79
2 13 -5 34.73 13.71
2 -13 -5 42.88 14.28
-2 -13 -5 22.32 7.64
-2 13 5 28.21 8.85
-2 -13 5 31.94 8.18
-2 13 5 31.21 7.02
-2 -13 -5 34.78 8.6
2 -13 -5 46.69 10.45
2 13 -5 32.86 8.9
-2 13 -5 33.71 8.98
2 -13 -5 30.39 4.12
2 13 -5 44.65 9.79
2 -13 5 22.49 7.13
2 13 5 24.12 5.43
-2 -13 -5 30.92 6.99
2 13 5 36.76 9.69
2 13 -5 31.21 7.13
2 -13 -5 36.86 10.09
-2 -13 5 25.57 4.11
-2 -14 5 5.89 2.64
2 -14 -5 2.89 4.89
-2 -14 -5 4.37 4.61
2 14 -5 2.98 3.57
-2 14 5 3.13 4.18
-2 -14 5 5.88 3.72
-2 14 5 3.95 3.13
-2 -14 -5 4.1 3.27
2 14 5 7.15 3.09
2 -14 -5 6.95 4.4
2 14 -5 7.08 4.15
-2 14 -5 5.82 4.92
2 14 -5 8.25 4.35
2 -14 5 3.77 3.01
2 -14 -5 2.18 1.32
2 -14 -5 1.66 2.81
-2 -14 5 2.07 1.8
2 -14 5 7.35 4.4
2 14 5 -1.72 5.04
2 14 -5 3.22 3.15
-2 14 5 2.3 3.89
2 15 -5 8.38 6.68
2 -15 -5 2.73 0.14
-2 -15 -5 -1.54 4.5
-2 -15 5 3.77 2.81
-2 15 5 3.27 3.38
-2 -15 5 5.04 4.26
-2 -15 5 6.47 5.12
-2 -15 -5 2.87 2.98
2 -15 -5 1.28 1.78
2 15 5 2.53 4.28
2 15 5 5.45 2.95
2 -15 -5 1.33 1.59
2 15 -5 2.68 2.78
-2 15 -5 1.56 3.24
2 15 -5 1.48 2.5
2 -15 5 1.34 3.21
2 -15 5 5.23 3.84
2 15 5 1.85 3.14
2 -15 -5 10.26 5.41
-2 -15 5 4.52 1.99
-2 -15 5 4.89 5.85
2 15 -5 3.7 3.3
-2 15 5 5.57 3.26
-2 -16 -5 279.33 31.83
2 16 -5 386.06 43.15
2 -16 -5 341.87 40.79
-2 -16 5 296.09 31.13
-2 16 5 356.08 35.61
-2 -16 -5 251.8 30.66
2 -16 5 292.06 21.13
-2 -16 5 282.22 32.27
2 16 5 347.66 39.23
-2 16 -5 317.3 33.96
2 16 -5 334.34 34.14
-2 -16 5 357.69 39.99
2 16 5 359.8 28.4
2 -16 -5 344.82 31.03
2 16 -5 356.84 31.29
2 -16 -5 302.1 23.23
2 -16 5 378.79 33.85
2 -16 5 291.83 38.14
2 -16 5 350.01 32.49
-2 16 5 335.56 29.05
-2 -16 5 311.49 24.29
2 16 5 302.1 28.96
2 -16 5 329.11 29.22
2 -16 -5 421.92 38.52
2 16 5 361.71 37.65
2 16 -5 344.82 32.67
2 17 -5 40.94 13.37
-2 -17 -5 39.02 10.57
-2 17 5 49.22 11.24
2 -17 -5 40.44 12.9
-2 -17 5 45.19 11.35
-2 17 5 45.98 11.97
2 -17 5 29.03 3.7
-2 -17 -5 52.74 12.57
2 17 5 37.16 12.03
-2 17 -5 35.1 10.91
2 -17 -5 42.85 9.23
2 17 -5 38.66 11.04
2 17 -5 48.12 9.63
2 -17 5 60.05 13
2 -17 5 44.37 13.17
2 -17 -5 42.6 6.52
2 -17 -5 66.11 14.17
2 -17 5 50.87 9.27
2 17 5 72 15.96
2 17 5 46.55 9.23
-2 -17 -5 47.31 10.99
2 -17 5 44.15 10.18
2 17 -5 38.42 10.46
2 -18 -5 225.52 30.75
-2 -18 -5 232.55 28.45
-2 18 5 228.49 26.82
-2 18 5 257.5 30.14
-2 -18 -5 145.48 24.42
-2 -18 5 222.82 27.37
-2 18 -5 185.8 27.83
2 -18 5 201.9 28.34
2 18 -5 261.65 30.19
2 -18 -5 247.59 23.82
2 -18 -5 168.76 17.78
2 18 -5 269.73 24.24
2 -18 5 292.46 29.79
2 -18 5 229.2 26.38
2 18 5 278.64 33.76
2 18 5 253.39 22.71
-2 -18 -5 237.21 26.56
2 -18 -5 338.28 33.68
2 18 -5 221.87 27.06
-2 -19 -5 11.25 6.73
-2 19 5 8.14 5.51
2 -19 -5 3.97 4.76
2 19 5 4.18 3.33
-2 -19 5 6.78 4.97
-2 19 5 -1.87 4.49
2 -19 -5 9.79 3.45
-2 19 -5 5.74 6.06
2 -19 5 12.95 6.12
2 19 -5 -1.88 5.95
-2 -19 -5 3.07 3.68
2 -19 -5 1.84 4.93
2 19 5 4.74 4.91
2 19 5 8.28 3.71
2 -19 5 6.49 4.76
2 -19 5 9.08 5.75
2 19 -5 9.06 5.31
-2 20 5 138.24 20.29
2 20 5 114.33 14.73
-2 -20 -5 134.99 22.38
-2 -20 5 115.06 19.02
-2 20 5 145.4 22.29
-2 20 -5 110.86 21.61
2 -20 -5 96.59 12.65
2 20 -5 139.92 22.89
2 -20 5 189.4 23.09
2 20 5 156.46 26.44
-2 -20 -5 160.09 21.29
2 20 -5 88.59 17.66
2 -20 -5 208.58 25.82
2 21 5 7.63 3.95
-2 -21 -5 8.12 6.43
-2 21 5 3.38 4.98
-2 -21 5 15.06 6.95
-2 21 5 7.76 5.2
-2 21 -5 16.27 7.7
2 -21 5 17.22 7.43
2 21 -5 14.38 6.96
-2 -21 -5 9.98 5.98
2 -21 -5 11.3 6.38
2 21 5 10.35 6.93
2 21 -5 -2.02 4.22
2 -21 5 10.51 6.3
-2 -22 -5 6.24 6.68
-2 22 5 10.28 6.25
-2 -22 5 14.9 8
-2 22 5 29.32 10.52
-2 22 -5 10.37 7.53
2 22 -5 25.51 9.91
2 -22 5 70.38 14.47
-2 -22 -5 41.23 11.31
2 -22 -5 51.08 12.65
2 -22 5 39.61 11.25
2 22 -5 21.03 9.14
2 22 5 40.18 13.64
2 0 -6 472.97 34.05
2 0 -6 376.7 62.92
2 0 6 456.82 29.76
-2 0 6 495.44 35.61
2 0 6 560.4 31.75
-2 0 -6 429.32 30.26
2 0 -6 408.7 46.86
2 0 -6 402.21 33.37
2 0 6 400.93 31.4
-2 0 6 423.43 25.94
2 0 6 436.85 32.67
2 0 -6 395.85 24.68
-2 0 -6 451.22 31.24
2 -1 -6 6.17 2.78
2 -1 6 13.87 4.27
2 1 -6 5.87 9.93
2 -1 -6 5.85 9.9
2 1 -6 5.32 3.62
2 -1 6 8.65 2.94
-2 -1 6 4.92 3.54
2 1 6 8.57 2.97
2 -1 -6 8.69 3.84
-2 1 6 4.26 0.83
-2 1 -6 7.77 2.97
2 -1 6 14.05 4.04
2 1 6 11.85 3.39
-2 -1 -6 13.25 3.2
2 -1 -6 2.69 5.57
2 1 -6 -2.7 5.61
2 -1 6 10.19 3.91
2 1 6 7.28 3.15
-2 -1 -6 9.16 3.3
2 1 6 8.91 3.64
-2 1 -6 6.33 2.95
2 -1 -6 6.87 1.9
-2 -1 -6 5.96 2.98
-2 -2 -6 585.79 41.57
2 -2 -6 579.37 35.21
2 2 -6 651.47 46.38
2 2 6 725.97 40.8
2 2 -6 528.76 74.68
2 -2 6 628.31 36.78
-2 -2 6 626.51 42.66
2 2 6 601.97 37.15
-2 2 6 726.57 43.83
-2 -2 -6 595.46 37.29
-2 2 -6 567.02 35.48
2 2 6 729.45 37.9
-2 2 -6 591.59 38.03
2 -2 -6 608.25 57.58
2 -2 -6 571.79 41.35
-2 -2 -6 611.94 36.05
2 -2 6 514.01 38.27
2 2 6 500.82 37.93
-2 -2 -6 623.2 37.91
-2 2 -6 579.58 38.15
2 2 6 606.88 40.68
-2 2 6 398.95 31.18
2 -2 -6 570.43 35.55
-2 2 -6 584.57 38.08
2 3 -6 -5.71 11.83
2 3 6 5.66 3.19
2 3 -6 1.48 3.54
-2 -3 -6 4.59 2.36
2 -3 6 2.89 2.7
-2 -3 6 -3.01 3.8
-2 3 -6 7.5 3.17
-2 -3 -6 8.67 4.16
2 3 -6 1.47 0.83
-2 -3 -6 2.3 2.28
2 -3 -6 4.71 3.38
2 3 6 6.8 3.24
-2 3 -6 2.57 3.17
-2 -3 -6 5.33 2.61
2 -3 -6 2.59 6.19
2 -3 6 5.2 2.95
-2 3 6 2.2 1.32
2 3 6 4.37 3.77
-2 3 -6 5.22 3.02
-2 3 -6 5.18 3.29
2 -3 -6 0.6 3.11
2 4 -6 2532.91 217.06
2 4 -6 2974.81 180.79
2 4 6 2981.3 166.95
2 -4 -6 2924.34 223.27
2 -4 6 3170.81 166.38
-2 4 6 2795.08 171.96
-2 -4 6 3339.22 174.71
-2 -4 -6 3010.17 166.11
-2 4 -6 2836.32 165.72
2 4 -6 2414.01 162.36
-2 -4 -6 2927.6 172.06
2 4 6 3553.95 167.2
-2 4 -6 2880.12 168.1
2 -4 -6 3423.36 195.64
2 4 -6 2560.46 188.01
-2 -4 -6 3076.82 166.85
-2 -4 -6 2971.21 165.35
2 -4 6 2928.21 169.24
2 4 6 2924.87 171.3
-2 4 -6 2858.64 167.98
2 -4 -6 2686.48 168.57
-2 4 -6 3195.22 168.33
2 5 -6 29.16 10.42
2 5 -6 53.89 22.41
2 -5 -6 53.09 22.98
2 5 6 33.27 5.85
-2 5 -6 34.9 6.28
-2 5 6 26.82 7.37
2 -5 6 30.45 6.16
-2 -5 -6 40.87 6.3
-2 -5 6 54.52 9.94
-2 -5 -6 51.02 9.26
2 5 -6 37.16 5.76
-2 -5 -6 38.37 5.96
2 -5 6 28.74 6.75
-2 5 -6 39.87 7.71
2 5 6 57.41 7.43
2 5 -6 15.01 10.13
2 -5 -6 39.04 13.52
2 -5 -6 34.79 8
2 5 6 39.19 8.33
-2 5 -6 39.07 7.24
-2 5 -6 42.57 7.31
2 6 -6 1776.83 122.62
-2 6 6 1727.76 105.65
2 -6 -6 1817.2 154.81
2 6 -6 1788.71 155.05
2 6 6 1591.47 104.37
2 -6 6 1868.06 106.67
-2 6 -6 1812.2 106.77
-2 -6 -6 1932.54 105.43
2 6 -6 1866.92 106.89
-2 -6 -6 1698.65 110.96
-2 -6 6 2135.77 114.05
2 6 6 2039.75 106
-2 6 -6 1778.62 108.88
2 -6 -6 2120.84 131.51
2 6 -6 1576.45 124.86
-2 -6 -6 1716.29 104.78
2 -6 6 1740.59 109
-2 6 -6 1871.6 107.2
2 -6 -6 1644.18 111.3
-2 6 -6 1772.68 108.21
2 6 6 1895.12 112.07
2 7 -6 9.97 10.33
2 -7 -6 4.9 5.85
2 7 -6 2.08 4.32
-2 7 6 1.04 1.52
2 7 6 -0.47 1.49
-2 -7 -6 1.06 3.34
2 -7 6 0.65 2.92
-2 7 -6 2.1 2.52
-2 -7 6 1.02 1.73
-2 7 6 1.15 3.36
2 7 -6 -0.78 2.09
2 -7 6 -0.85 1.76
-2 7 -6 0.86 2.53
2 7 6 1.54 2.03
-2 -7 -6 0.52 1.52
2 7 -6 2.33 6.22
2 -7 -6 -2.26 5.41
2 -7 -6 1.19 3.19
-2 7 -6 1.59 3
2 7 6 1.06 3.11
-2 7 -6 -0.66 1.76
-2 8 6 668.07 38.17
2 8 -6 570.98 54.52
2 8 -6 697.33 78.29
2 -8 -6 649.57 75.65
2 -8 6 568.49 40.71
-2 -8 6 563.33 43.47
-2 8 -6 581.83 41.49
2 8 6 562.47 35.39
-2 8 6 586.27 45.52
2 8 -6 577.61 42.86
-2 -8 -6 506.61 43.14
-2 8 -6 591.31 43.24
2 8 6 629.06 38.78
2 8 -6 551.34 43.44
2 -8 -6 730.6 58.43
2 8 -6 602.09 55.4
2 -8 6 585.02 42.77
-2 -8 -6 543.98 38.31
-2 8 -6 576.17 41.85
2 8 6 581.64 44.69
2 -8 -6 542.04 45.88
2 9 -6 13.65 9.45
2 -9 -6 8.92 9.26
-2 9 6 11.91 2.9
2 -9 6 14.06 4.89
-2 -9 6 12.67 4.94
2 9 6 13.54 2.72
-2 -9 -6 14.38 5.17
2 9 -6 10.96 5.29
-2 9 6 16.48 6.29
2 -9 6 13.43 4.64
2 -9 -6 16.59 8.25
-2 9 -6 16.42 5.53
2 9 6 18.52 4.18
2 9 -6 15.43 5.48
-2 -9 -6 10.84 3.37
2 9 -6 27.7 9.89
2 9 -6 11.69 2.03
-2 9 -6 13.57 4.51
2 -9 -6 8.51 5.13
2 9 6 7.25 4.14
2 10 -6 34.65 16.54
2 -10 -6 38.18 18.44
-2 10 6 44.4 5.19
-2 -10 -6 37.43 8.89
-2 10 -6 49.95 8.1
2 10 6 36.57 5.07
-2 -10 6 44.54 9.21
-2 -10 -6 34.29 8.2
2 10 -6 46.26 9.97
-2 10 6 44.35 9.92
2 10 6 59.73 7.61
-2 10 -6 40.46 9.22
-2 -10 -6 42.48 6.94
2 10 -6 59.07 10.72
2 -10 6 44.86 8.85
2 -10 -6 59.49 14.02
2 10 -6 44.71 12.38
2 -10 -6 54.36 11.8
2 10 6 51.91 10.56
2 10 -6 34.64 4.74
-2 10 -6 59.86 9.81
2 11 -6 4.11 4.92
2 -11 -6 4.03 4.81
-2 -11 -6 6.53 4.42
-2 -11 6 3.37 2.69
-2 11 -6 2.54 2.26
-2 11 6 0.84 1.51
-2 11 6 1.41 3.77
2 11 -6 1.39 2.35
-2 -11 -6 1.2 2.04
2 11 6 1.21 1.36
2 11 -6 3.87 4.63
-2 11 -6 2.45 2.93
2 11 -6 1.23 3.28
2 -11 6 -1.08 3.16
2 11 6 3.67 2.07
-2 -11 -6 0.7 1.88
2 -11 -6 3.77 3.91
-2 11 -6 2.06 2.75
2 -11 -6 -1.59 4.66
2 11 -6 1.25 1.11
2 11 6 1.4 2.36
-2 -12 -6 261.57 29.05
2 12 -6 323.61 46.95
2 -12 -6 309.39 46.35
2 12 6 282.46 22.15
-2 -12 6 345.72 29.98
2 12 -6 258.05 30.24
-2 12 6 375.18 34.17
-2 -12 -6 330.74 30.74
-2 12 -6 352.78 32.08
2 12 -6 353.62 31.82
2 12 6 327.19 24.92
2 -12 -6 321.61 34.45
2 12 -6 347.37 35.73
2 -12 6 322.17 29.67
-2 -12 -6 312.89 25.63
2 12 6 377.81 34.01
2 12 -6 274.58 22.74
2 -12 -6 395.89 36.11
-2 -13 -6 -1.43 2.42
2 13 -6 3.7 7.65
2 -13 -6 -3.62 4.33
-2 -13 6 -1.21 3.23
-2 -13 -6 3.94 3.14
-2 13 6 3.14 3.76
2 -13 -6 3.42 3.54
2 13 -6 -1.74 2.94
2 13 6 3.49 2.5
-2 13 -6 -1.4 3.35
2 13 -6 2.79 3.74
2 -13 6 1.23 2.94
-2 -13 -6 4.09 2.19
2 -13 -6 1.72 5.03
2 13 -6 0.66 1.58
2 13 6 -1.62 2.74
-2 -14 -6 1244.12 89.49
2 14 -6 1299.16 110.66
2 -14 -6 1296.06 110.04
-2 -14 6 1187.75 87.07
-2 14 6 1405.32 93.76
-2 -14 -6 1241.68 88.59
-2 14 -6 1294.15 90.39
2 14 -6 1477.86 92.61
2 14 6 1366.54 82.17
2 -14 -6 1334.39 92.51
2 14 -6 1331.13 92.43
2 -14 6 1250.6 88.19
2 -14 -6 1675.07 98.94
2 14 -6 1215.1 81.67
2 14 6 1579.71 97.13
2 15 -6 16.39 9.61
2 -15 -6 9.68 6.7
-2 -15 -6 16.94 6.66
-2 15 6 12.15 6.58
-2 -15 6 10.74 5.35
-2 -15 -6 2.89 4.6
2 -15 -6 13.87 6.13
2 15 -6 4.79 4.7
2 15 -6 7.75 5.26
-2 15 -6 6.48 6.15
2 -15 6 5.51 4.68
2 15 6 13.06 7.07
2 -15 -6 18.14 8.95
2 15 -6 10.25 4.48
2 -16 -6 607.17 65.56
-2 -16 -6 618.41 54.35
2 16 -6 720.39 69.08
-2 -16 6 605.13 52.7
-2 16 6 609.18 56.42
-2 -16 -6 572.74 52.98
2 16 -6 728.57 57.63
2 -16 -6 678.81 54.12
2 16 -6 737.45 55.3
2 -16 6 780.04 56.4
-2 16 -6 666.06 57.09
2 16 -6 666.61 50.27
2 -16 -6 1006.18 66.02
2 16 6 862.87 63.32
2 17 -6 2.85 5.9
2 -17 -6 2.83 5.86
2 17 6 3.67 3.58
-2 -17 -6 1.67 2.83
2 -17 6 -1.14 3.35
-2 17 6 1.86 3.15
-2 -17 6 1.76 3.64
-2 -17 6 1.52 3.63
-2 -17 -6 -1.6 4.69
2 -17 -6 1.38 3.69
2 17 -6 1.36 2.3
2 17 6 2.53 3.02
-2 17 -6 3.62 3.74
2 17 -6 1.81 3.75
2 -17 6 1.53 1.84
2 -17 -6 -3.75 5.01
2 17 -6 2.44 3.58
2 17 6 4.21 4.36
-2 -18 -6 158.8 23.73
2 -18 -6 210.47 31.11
-2 -18 -6 128.09 22.88
-2 18 6 197.5 26.49
-2 -18 6 187.06 25.24
2 18 -6 212.31 27.97
2 18 -6 191.57 21.87
-2 18 -6 140.63 25.08
2 -18 6 244.19 27.32
2 -18 6 196.77 29
2 18 6 163.27 19.93
2 18 6 227.86 30.17
2 -18 -6 237.23 28.69
2 18 -6 150.94 20.55
2 -19 -6 2.42 4.11
-2 -19 -6 9.11 5.78
-2 19 6 1.71 3.55
-2 19 6 9.81 6.22
-2 -19 6 5.35 5.24
2 19 -6 11.36 4.91
2 -19 6 -2.23 4.64
-2 19 -6 3.97 5.32
2 19 -6 6.03 5.9
2 -19 6 20.04 7.74
-2 -19 -6 14.38 6.63
2 19 6 16.48 8.45
2 -19 -6 15.33 7.25
2 19 6 12.11 4.37
2 19 -6 19.37 7.14
2 20 6 10.33 4.36
-2 20 6 1.75 4.19
-2 -20 -6 1.89 4.53
-2 20 6 13.97 7.55
-2 -20 6 5.36 4.78
-2 20 -6 -2.06 4.93
2 20 -6 8.44 5.65
2 -20 6 12.07 6.53
-2 -20 -6 4.98 4.88
2 -20 -6 7.71 6.1
2 20 6 12.33 7.23
2 20 -6 12.86 6.38
2 0 -7 2.05 2.12
-2 0 -7 1.35 2.13
-2 0 7 -1.05 2.18
2 0 7 -0.62 1.66
-2 0 7 -1.12 2.99
2 0 -7 1.07 1.82
-2 0 -7 0.71 1.7
2 0 7 1.3 1.9
2 0 -7 -3.25 3.89
-2 0 7 0.79 0.47
-2 0 7 0.57 0.36
2 0 7 0.78 1.62
2 0 -7 0.64 0.53
2 0 -7 0.63 0.44
-2 0 -7 1.37 2.01
2 1 -7 14.26 12.05
2 -1 -7 -7.11 12.02
2 1 -7 6.37 4.31
2 -1 -7 1.54 2.07
2 -1 7 9.01 3.27
-2 -1 7 6.36 4.21
2 1 7 3.72 2.23
-2 1 7 9.55 4.21
-2 1 7 6.77 3.82
-2 -1 -7 3.88 2.33
-2 -1 7 3.36 3
-2 -1 -7 7 3.14
2 1 -7 -1.06 2.55
2 -1 -7 2.16 1.84
2 -1 7 6.14 2.83
2 1 7 11.12 3.47
2 -1 -7 12.89 7.71
2 1 -7 3.25 3.89
-2 1 -7 6.48 3.11
2 -1 7 9.53 3.68
2 1 7 7.7 3.06
2 1 7 1.66 2.23
2 -1 -7 4.48 1.58
-2 1 -7 3.34 2.41
2 2 -7 204.23 49.42
2 -2 -7 218.06 18.55
2 2 -7 254.87 27.43
2 2 7 275.77 22.23
-2 -2 -7 204.07 22.15
2 -2 7 237.69 19.7
-2 -2 7 254.48 24.81
2 2 7 251.11 20.41
-2 -2 -7 246.89 20.22
-2 2 7 228.5 23.42
-2 2 -7 230.9 20.73
2 -2 7 238.02 21.48
2 -2 -7 250.06 37.71
2 2 -7 237.25 23.45
-2 -2 -7 235.56 20.52
2 -2 -7 250.26 24.03
2 2 7 222.64 20.81
2 2 7 298.5 21
2 2 7 227.95 21.75
2 -2 -7 254.94 18.79
-2 2 -7 243.49 20.34
2 3 -7 6.89 18.61
2 -3 -7 33.9 4.5
2 3 -7 46.46 11.37
2 3 7 37.64 6.83
-2 -3 7 58.28 10.71
2 -3 7 57.08 7.65
2 3 7 57.02 8.09
-2 -3 -7 46 7.14
-2 3 7 53.14 9.69
-2 -3 -7 43.4 9.01
-2 3 -7 47.51 6.82
2 3 7 60.41 7.87
2 -3 -7 52.45 9.57
-2 3 -7 46.82 7.77
-2 -3 -7 46.9 7.89
2 -3 7 49.96 8.34
2 -3 -7 71.9 19.23
2 3 7 55.12 9.26
2 -3 -7 50.53 7.58
-2 3 -7 50.86 7.71
2 -4 -7 298.09 55.73
2 4 7 190.55 16.72
2 4 -7 200.88 47.01
2 4 -7 124.79 11.21
2 4 -7 222.23 27.31
-2 4 7 197.73 20.74
2 -4 7 226.12 17.55
-2 -4 -7 212.58 20.79
-2 -4 7 249.66 23.14
-2 4 -7 210.48 16.69
-2 -4 -7 219.52 17.12
2 4 7 254.46 17.92
-2 4 -7 206.7 18.62
2 -4 -7 214.96 33.43
2 4 -7 195.19 32.07
-2 -4 -7 235.92 18.23
-2 -4 -7 239.08 16.32
2 -4 7 193.17 18.41
2 -4 -7 171.89 17.79
2 4 7 216.92 20.18
-2 4 -7 217.33 17.74
-2 4 7 148.03 11.87
2 5 -7 12.93 10.93
2 -5 -7 -6.38 0.05
2 5 -7 4.16 4.31
2 5 7 1.15 1.82
-2 -5 -7 3.02 2.17
-2 5 7 1.14 1.92
-2 5 -7 2.51 1.98
2 -5 7 1.89 1.99
-2 -5 7 3.64 2.9
-2 -5 -7 5.29 3.58
2 5 -7 0.72 1.14
2 5 7 1.81 2.28
2 -5 7 2.58 1.78
2 -5 -7 5.83 4.93
-2 -5 -7 0.47 0.97
-2 5 -7 -0.84 2.01
2 5 -7 2.99 3.58
2 -5 -7 1.01 2.42
-2 5 -7 0.69 1.44
2 5 7 -0.99 2.06
2 -6 -7 91.78 30.29
2 6 7 48.68 6.89
2 6 -7 55.47 14.07
2 6 -7 31.01 18.38
2 -6 7 58.21 8.43
-2 -6 7 60.8 10.84
-2 -6 -7 50.91 7.37
-2 6 7 60.17 11.05
-2 6 -7 52.99 8.08
2 6 -7 47.45 6.96
-2 -6 -7 53.07 9.66
-2 6 7 43.62 9.56
2 6 7 59.58 8.05
-2 -6 -7 52.53 6.86
2 -6 7 37.96 7.97
-2 6 -7 54.55 9.13
2 6 -7 34.63 13.21
2 -6 -7 75.82 18.3
2 -6 -7 52.5 10.35
2 6 7 51.29 9.53
-2 6 -7 53.04 8.17
2 7 -7 59.17 23.64
2 -7 -7 52.52 22.25
-2 7 7 65.93 8.06
2 7 7 49.15 6.86
2 -7 7 53.55 8.51
-2 7 7 62.19 11.56
-2 -7 -7 64.53 11.1
-2 -7 7 62.15 10.95
-2 7 7 53.45 10.71
-2 7 -7 47.92 8.16
2 7 -7 47.33 8.06
2 7 7 67 8.45
-2 7 -7 51.83 9.41
-2 -7 -7 46.68 6.65
2 7 -7 41.31 13.48
2 -7 7 50.15 9.07
2 -7 -7 50.88 15.95
2 -7 -7 44.41 10.05
2 7 7 48.99 9.75
-2 7 -7 50.2 8.19
2 8 -7 5.64 9.53
2 -8 -7 -5.56 0.23
2 8 7 5.78 2.21
-2 8 7 5.29 2.24
2 -8 7 4.67 2.8
-2 8 7 5.28 3.54
-2 -8 7 4.68 3.43
-2 8 7 7.59 4.01
2 8 -7 2.68 2.15
-2 -8 -7 3.39 2.71
-2 8 -7 4.14 3.04
2 8 7 5.62 2.6
-2 -8 -7 8.28 2.85
2 -8 7 4.9 2.88
2 8 -7 13.17 7.72
2 -8 -7 10.25 8.11
2 -8 -7 2.86 3.83
-2 8 -7 1.65 1.98
2 8 7 1.18 2.45
2 9 -7 5.36 6.41
2 -9 -7 5.27 8.91
-2 9 7 3.93 1.7
2 9 7 4.12 1.91
2 -9 7 2.56 3.07
-2 -9 7 3.53 3.15
-2 9 7 1.37 1.65
-2 -9 -7 6.91 3.65
2 9 -7 2.13 2.21
-2 9 -7 4.46 2.99
2 -9 7 2.07 2.49
2 9 -7 2.5 4.22
2 9 7 4.49 2.55
-2 -9 -7 2.15 1.83
2 -9 -7 7.3 5.04
2 -9 -7 1.54 3.19
-2 9 -7 2.62 2.77
2 9 7 3.75 3.34
2 10 -7 10.14 10.53
2 -10 -7 -5 10.38
-2 10 7 13.65 2.78
-2 -10 -7 22.5 6.68
2 -10 7 8.55 4.6
-2 10 7 20.12 7.12
2 10 7 15.46 3.22
-2 -10 7 18.29 6.06
2 10 -7 10.93 5.08
2 10 7 12.48 3.84
-2 10 -7 9.61 4.82
-2 -10 -7 11.53 3.59
2 10 -7 19.68 6.88
2 -10 -7 11.61 7.38
2 10 -7 9.51 6.4
2 -10 7 15.37 5.77
2 -10 -7 19.54 7.32
-2 10 -7 16.82 5.17
2 10 7 31.93 8.45
2 11 -7 9.58 9.94
2 -11 -7 4.73 8.01
-2 -11 -7 9.49 4.89
2 11 7 9.47 2.66
-2 11 7 9 5.1
-2 -11 7 9.91 5.16
2 11 -7 10.94 5.69
-2 -11 -7 11.01 5.3
2 -11 7 4.63 3.95
-2 11 -7 11.63 5.38
2 11 7 12.94 3.68
2 11 -7 13.8 5.74
-2 -11 -7 12.81 3.69
2 -11 -7 24.28 9.89
2 11 -7 6.76 4.69
2 -11 -7 5.12 5.43
2 11 7 7.11 4.53
-2 -12 -7 604.05 43.65
2 12 -7 678.14 74.01
2 -12 -7 576.03 68.37
-2 -12 7 705.74 44.85
2 12 -7 467.73 41.98
-2 12 7 759.65 48.74
2 12 7 594.01 31.7
-2 -12 -7 593.4 42.11
-2 12 -7 663.19 44.81
2 12 7 707.85 37.11
2 12 -7 742.9 47.44
2 -12 -7 758.43 55.01
2 12 -7 650.07 52.29
2 -12 7 683.21 43.69
-2 -12 -7 634.58 35.52
2 12 -7 286.2 25.67
2 -12 -7 872.71 55.09
2 12 7 680.76 46.51
-2 -13 -7 14.56 7.01
2 13 -7 34.1 15.31
2 -13 -7 33.75 15.15
2 13 7 12.73 3.45
-2 -13 7 15.76 6.52
-2 13 7 11.4 6.21
-2 -13 -7 16.04 6.44
-2 13 -7 10.49 5.99
2 -13 7 13.06 5.68
2 13 -7 18.05 7.62
2 13 -7 19.94 7.15
2 -13 -7 25.77 9.51
2 -13 -7 23.73 8.76
2 13 -7 11.14 2.73
2 13 7 24.53 8.1
2 14 -7 116.59 28.31
2 -14 -7 87.62 25.51
-2 -14 -7 112.05 17.33
-2 14 7 145.37 21.24
-2 -14 -7 106.65 16.93
-2 -14 7 114.35 18.29
2 14 7 97.9 11.16
-2 14 -7 134.91 19.72
2 14 -7 143.01 20.31
2 -14 7 126.78 17.75
2 -14 -7 146.6 21.4
2 14 -7 119.31 19.94
2 14 -7 95.39 10.38
2 -14 -7 187.02 24.37
2 14 7 140.33 20.64
2 -15 -7 3.76 4.49
-2 -15 -7 -1.54 2.6
2 15 -7 -3.77 4.51
-2 -15 7 5.75 3.85
2 15 7 2.39 2.26
-2 15 7 7 5.13
-2 -15 -7 1.46 4.27
2 -15 -7 1.78 3.01
2 15 -7 10.7 5.64
2 -15 7 1.45 1.73
2 15 -7 5.16 4.6
-2 15 -7 3.43 4.59
2 -15 -7 3.81 4.56
2 15 7 -1.87 4.48
2 16 -7 31.79 12.72
2 -16 -7 21.12 11.95
-2 -16 -7 27.17 8.62
-2 -16 7 24.18 8.35
-2 16 7 20.03 7.93
-2 -16 -7 4.58 4.95
2 -16 -7 20.16 7.6
2 16 -7 20.06 7.82
-2 16 -7 21.86 8.78
2 16 -7 27.31 9.04
2 -16 7 30.59 9.21
2 -16 -7 38.72 11.63
2 16 7 27.96 10.19
2 -17 -7 29.7 12.55
-2 -17 -7 29.68 9.35
-2 -17 7 36.98 10.96
-2 17 7 31.81 9.85
-2 -17 -7 30.28 9.63
-2 17 -7 25.12 10.17
2 -17 -7 23.78 8.16
2 17 -7 28.18 8.69
2 17 -7 9.66 8.12
2 -17 7 31.46 9.13
-2 -17 -7 12.21 6.21
2 -17 -7 43.04 12.01
2 17 7 46.39 12.93
2 -18 -7 6.15 6.38
-2 -18 -7 1.7 4.55
2 18 7 7.88 4.16
-2 -18 -7 13.37 6
-2 -18 7 5.62 5.02
-2 18 7 1.91 3.98
2 18 -7 5.83 4.28
-2 18 -7 6.09 5.95
2 18 -7 8.12 5.96
2 -18 7 3.28 3.42
2 -18 -7 13.77 7.81
2 18 7 8.93 5.98
2 0 -8 3019.14 172.38
2 0 -8 2053.23 226.4
2 0 8 3025.94 166.28
-2 0 8 2875.05 171.44
2 0 -8 2314.14 195.1
-2 0 -8 2840.23 166.76
2 0 -8 2933.73 172.43
2 0 8 2792.25 166.34
2 1 -8 16.98 17.6
2 -1 -8 -8.46 22.64
2 -1 -8 15.58 5.91
2 1 -8 14.25 8.38
-2 -1 -8 21.61 7.12
2 1 8 29.54 7.16
-2 -1 8 17.77 7.13
2 -1 8 21.57 6.02
-2 1 8 14.09 5.84
2 1 8 13.56 5.02
-2 -1 -8 32.46 6.94
2 1 -8 25.5 7.86
2 -1 -8 26.76 8.39
2 -1 -8 3.84 9.21
2 1 -8 -3.86 9.28
2 -1 8 9.32 4.49
-2 1 -8 16.19 5.45
2 -1 -8 11.26 2.64
2 -2 -8 748.31 46.02
2 2 -8 800.99 59.43
2 2 8 800.35 49.7
-2 -2 -8 659.15 50.24
2 2 -8 561.04 94.2
2 -2 8 822.86 48.28
2 2 8 753.29 47.98
-2 2 8 738.78 52.61
-2 -2 8 790.99 53.83
-2 2 -8 696.48 48.4
2 -2 -8 746.22 76.16
2 2 -8 773.3 53.35
-2 -2 -8 804.22 49.63
2 -2 -8 757.66 53.1
-2 -2 8 558.88 40.33
2 -2 8 656.83 48.09
2 -2 -8 748.25 44.2
-2 2 -8 801.37 47.83
2 3 -8 -8.19 16.96
2 3 -8 1.92 3.97
2 3 8 3.82 2.74
2 -3 -8 1.97 1.48
-2 3 8 4.79 4.05
2 -3 8 3.46 2.87
-2 -3 -8 7.58 4.49
2 3 8 1.54 2.76
2 3 -8 -1.21 2.89
-2 -3 -8 6.39 3.45
2 -3 -8 1.2 2.87
2 -3 -8 7.42 9.92
-2 3 -8 6.27 3.87
2 -3 8 0.88 2.35
2 3 8 2.71 3.25
2 -3 -8 1.31 2.36
-2 3 -8 4.06 2.69
2 4 -8 87.27 34.76
2 -4 -8 117.74 39.19
2 4 -8 76.44 17.78
2 4 8 118.06 12.73
2 -4 8 101.41 12.28
2 4 8 138.19 14.31
-2 4 8 125.44 16.43
-2 -4 -8 122.3 15.55
2 -4 8 117.32 14.12
-2 4 -8 101.95 13.47
2 4 -8 128.12 16.9
-2 -4 -8 130.41 14.02
2 -4 -8 179.2 32.67
2 4 -8 88.17 24.46
2 4 8 139.16 15.54
2 -4 -8 81.69 12.24
-2 4 -8 125.52 12.95
2 5 -8 22.87 20.41
2 -5 -8 30.13 20.16
2 5 -8 20.76 9.61
2 5 8 31.41 5.61
-2 -5 -8 25.45 6.95
2 -5 8 28.16 6.03
-2 5 8 26.08 7.19
2 5 -8 11.33 2.02
2 -5 8 18.72 5.46
2 -5 -8 37.81 14.85
2 5 -8 10.6 8.51
-2 5 -8 34.8 7.38
2 5 -8 41 8.97
-2 5 -8 29.27 5.73
2 -5 -8 30.42 7.49
2 5 8 31.33 7.32
2 6 -8 21.89 17.49
2 -6 -8 14.4 14.96
2 6 8 29.7 5.38
2 -6 8 25.79 6.07
-2 -6 -8 25.76 6.93
-2 6 8 24.2 7.08
2 6 -8 16.9 3.57
-2 6 -8 25.34 6.64
2 6 -8 13.59 10.02
2 -6 -8 29.51 12.46
2 -6 8 18.29 5.65
2 6 8 20.26 6.23
2 -6 -8 23.25 7.12
-2 6 -8 23.89 5.32
2 7 -8 6.94 11.73
2 -7 -8 6.84 8.18
-2 7 8 0.59 1.57
2 7 8 1.04 1.53
-2 7 8 -1.32 3.52
2 -7 8 -1.6 2.86
2 7 -8 -0.57 2.27
-2 7 8 1.41 3.37
-2 -7 -8 2.28 2.73
2 -7 -8 6.27 7.49
2 -7 8 -1.01 2.95
-2 -7 -8 0.5 1.68
2 7 -8 -3.23 7.72
-2 7 -8 1.06 2.84
2 -7 -8 -4.13 4.03
2 7 8 -1.13 2.34
-2 7 -8 -0.73 2.14
2 8 8 931.75 60.19
2 8 -8 1196.02 122.79
2 -8 -8 1269.28 126.2
2 -8 8 971.41 65.33
-2 8 8 1198.97 74.68
-2 -8 -8 1020.38 68.91
-2 8 8 951.76 70.52
-2 8 -8 1004.16 68.49
2 -8 -8 1389.44 96.25
2 8 -8 996.83 87.57
-2 -8 -8 960.72 60.98
2 -8 8 1021.69 67.85
2 8 8 1124.23 70.53
2 -8 -8 1064.49 73.72
-2 8 -8 922.64 63.65
2 9 -8 24.81 18.18
2 -9 -8 6.13 10.38
-2 9 8 12.82 6.17
2 -9 8 6.47 4.85
-2 9 8 6 6.5
-2 -9 -8 18.79 6.91
-2 9 -8 6.03 4.82
2 -9 8 17.81 6.13
2 -9 -8 8.47 9.57
2 9 -8 14.51 9.83
2 -9 -8 14.62 8.26
2 9 8 12.81 6.16
2 10 -8 2261.14 180.08
2 -10 -8 2072.81 174.4
2 -10 8 1781.05 120.96
-2 10 8 1986.24 127.51
-2 10 8 2273.7 130.43
-2 -10 -8 1702.68 121.66
-2 10 -8 1836.01 123.8
2 -10 -8 2252.34 144.5
2 10 -8 1947.66 141.41
2 -10 8 1981.31 123.1
2 10 8 2149.72 126.85
2 -10 -8 2386.13 134.05
2 11 -8 -5.51 6.59
2 -11 -8 -5.45 9.22
-2 -11 -8 1.4 4.1
2 -11 8 1.09 4.12
-2 11 8 1.61 4.31
-2 -11 -8 2.51 3.97
-2 11 8 -1.55 4.14
-2 11 -8 -1.39 4.07
2 -11 -8 5.06 7.42
2 -11 8 -1.23 4.41
2 11 -8 2.59 6.18
2 -11 -8 -3.6 8.87
2 11 8 4.36 4.26
-2 -12 -8 770.26 62.51
2 12 -8 963.69 100.26
2 -12 -8 908.13 97.4
-2 12 8 981.48 68.26
-2 -12 -8 679.97 59.72
-2 12 -8 820.18 63.89
2 -12 -8 929.4 74.98
2 12 -8 823.79 72.64
2 12 -8 930.8 67.02
2 -12 8 839.02 62.06
2 12 8 918.31 65.71
2 -12 -8 1083.92 72.83
-2 -13 -8 2.95 3.52
2 13 -8 -4.86 8.22
2 -13 -8 -4.83 8.17
-2 13 8 1.73 3.58
-2 -13 -8 -1.34 3.58
2 -13 -8 4.53 5.41
2 13 -8 2.29 5.48
2 -13 8 -1.38 2.86
-2 13 -8 3.18 3.29
2 13 -8 3.39 4.05
2 -13 -8 -1.91 6.86
2 13 8 -1.64 3.4
-2 -14 -8 71.87 14.16
2 14 -8 68.42 24.21
2 -14 -8 72.67 24.11
-2 14 8 74.92 15.62
-2 -14 -8 78.49 14.37
2 -14 -8 98.41 19.01
2 14 -8 94.8 18.61
2 -14 8 83.28 14.38
-2 14 -8 86.27 16.58
2 14 -8 87.35 16.6
2 -14 -8 115.11 19.92
2 14 8 90.72 16.14
2 15 -8 8.56 7.27
2 -15 -8 12.81 10.24
-2 -15 -8 13.78 6.38
-2 15 8 5.5 3.86
-2 -15 -8 7.32 5.58
2 -15 -8 26.22 9.05
2 15 -8 10.1 6.43
2 -15 8 15.21 6.07
2 15 -8 24.41 8.72
-2 15 -8 30.53 9.86
2 -15 -8 31.7 10.62
2 15 8 22.26 8.33
2 -16 -8 4 6.83
-2 -16 -8 17.28 6.84
2 16 -8 15.98 10.72
-2 16 8 15.04 7.84
-2 -16 -8 22.65 8.13
2 -16 -8 15.21 6.89
2 16 -8 13.23 6.85
2 16 -8 15.73 8.2
-2 16 -8 22.8 8.85
2 -16 8 20.83 7.48
2 -16 -8 52.03 13.36
2 16 8 31.59 10.06
2 0 9 0.83 2.22
-2 0 -9 0.97 2.01
2 0 -9 -1.35 3.95
2 0 -9 9.12 9.45
-2 0 9 5.23 3.83
2 0 9 4.43 3
-2 0 -9 2.27 2.36
2 1 -9 9.89 16.73
2 -1 -9 -9.86 16.67
2 1 9 1.99 2.67
-2 -1 9 6.58 4.17
-2 1 9 2.61 3.12
2 -1 9 9.27 4.16
2 1 9 6.04 3.43
-2 1 -9 6.93 4.15
-2 -1 -9 2.26 2.71
-2 1 -9 7.84 3.71
-2 -1 -9 3.84 3.04
2 1 -9 6.9 4.67
2 -1 -9 -1.33 2.76
2 -1 -9 -4.52 10.81
2 1 -9 18.23 10.9
2 -1 9 7.82 3.45
2 2 -9 312.03 69.98
2 2 9 288.56 25.89
2 -2 9 328.3 25.94
2 2 9 333.43 26.56
-2 2 9 328.66 30.25
-2 -2 -9 280.49 27.2
-2 2 -9 305.23 27.06
2 -2 -9 350.08 51.59
2 2 -9 295.42 29.65
-2 -2 -9 345.35 27.6
2 -2 -9 359.65 31.59
2 -2 9 274.85 25.56
2 -2 -9 282.15 20.57
2 3 -9 28.55 22.78
2 3 9 13 4.5
2 -3 9 26.39 6.01
2 3 9 30.47 6.69
-2 3 9 26.12 7.74
-2 -3 -9 21.31 6.26
2 3 -9 24.35 7.5
-2 -3 -9 25.37 6.24
2 -3 -9 27.79 8
2 -3 -9 25.83 14.61
-2 3 -9 19.44 5.98
2 -3 9 23.46 6.26
2 -3 -9 18.06 4.38
2 4 9 29.9 6.15
2 4 -9 27.6 19.13
2 -4 -9 36.38 26.69
2 -4 9 32.38 6.57
2 4 9 28.66 6.55
-2 -4 -9 41.84 8.61
-2 4 9 34.43 8.69
2 4 -9 39.68 9.26
2 4 -9 21.32 12.6
2 -4 -9 20.74 12.27
-2 4 -9 33.64 7.83
2 -4 9 38.91 7.81
2 4 9 22.27 6.11
2 -4 -9 28.34 6.4
2 5 9 2.66 2.51
2 5 -9 -8.83 0.06
2 -5 -9 -8.72 0.06
-2 -5 -9 2.29 2.37
2 -5 9 1.65 2.2
2 5 9 -0.92 1.92
-2 5 9 1.35 2.28
2 5 -9 1.39 3.32
2 -5 -9 7.94 6.71
2 5 -9 -4.09 6.92
-2 5 -9 1.1 2.27
2 5 9 0.98 2.35
2 -5 -9 1 2.07
2 6 -9 75.72 32.13
2 -6 -9 99.52 36.04
2 6 9 78.94 9.65
2 -6 9 98.19 12.28
2 6 9 84.86 12.12
-2 -6 -9 70.83 12.06
-2 6 9 90.91 14.69
2 6 -9 70.61 21.97
-2 6 -9 76.53 12.74
2 -6 9 98.06 13.39
2 -6 -9 159.35 31.1
2 6 -9 68.19 13.06
2 -6 -9 70.35 12.76
2 6 9 95.58 13.23
2 7 -9 23.9 16.53
2 -7 -9 39.26 21.02
2 7 9 16.55 4.13
-2 7 9 21.18 7.05
2 -7 9 31.06 7.04
-2 -7 -9 18.28 5.9
2 -7 9 26.85 6.88
2 -7 -9 25.16 12.94
-2 7 -9 16.69 6.31
2 7 -9 18.59 11.81
2 7 -9 26.2 8.05
2 7 9 14.56 6.09
2 -7 -9 16.39 7.01
2 8 -9 586.99 91.68
2 -8 9 650.76 45.69
-2 -8 -9 580.77 46.23
-2 8 9 617.88 50
-2 8 -9 536.09 46.46
2 -8 -9 732.29 70.34
2 8 -9 627.35 67.01
2 -8 9 665.68 47.4
2 8 9 619.83 47.06
2 -8 -9 557.98 49.44
2 9 -9 7.07 16.92
2 -9 -9 -6.98 11.81
2 -9 9 1 3.16
-2 9 9 1.5 2.54
-2 -9 -9 1.19 2.47
-2 9 -9 3.95 4.16
2 -9 9 1.18 2.45
2 -9 -9 -3.21 3.84
2 9 -9 13.26 9.71
2 -9 -9 1.64 3.93
2 9 9 5.08 4.29
2 10 -9 26.61 15.92
2 -10 -9 6.57 13.62
-2 10 9 4.69 4.21
2 -10 9 7.52 4.66
-2 -10 -9 13.38 5.47
2 -10 9 11.15 4.94
-2 10 -9 18.07 6.46
2 -10 -9 15.11 8.86
2 10 -9 3.13 5.32
2 -10 -9 10.5 6.96
2 10 9 12.18 5.14
2 11 -9 -6.23 10.53
2 -11 -9 6.17 12.77
-2 -11 -9 5.7 3.82
2 -11 9 9.24 4.58
-2 -11 9 11.77 5.57
-2 -11 -9 6.27 4.5
-2 11 9 1.63 3.38
-2 11 -9 7.36 4.66
2 -11 9 1.3 2.2
2 -11 -9 2.86 3.42
2 11 -9 -2.93 6.07
2 -11 -9 12.84 6.58
2 11 9 2.89 3.46
2 12 -9 17.5 12.11
2 -12 -9 5.78 9.81
-2 -12 -9 13.07 6.32
-2 -12 9 15.02 6.77
-2 -12 -9 19.5 7
-2 12 9 11.86 6.46
2 -12 9 11.07 5.04
-2 12 -9 17.17 7.04
2 -12 -9 21.54 9.7
2 12 -9 19.23 9.89
2 -12 -9 20.92 9.14
2 12 9 32.42 9.08
-2 -13 -9 19.14 6.83
2 13 -9 5.45 6.53
2 -13 -9 16.26 12.96
-2 13 9 19.47 7.64
-2 -13 9 9.28 5.24
-2 13 9 9.19 5.82
-2 -13 -9 6.68 4.53
-2 13 -9 6.65 5.98
2 -13 9 7.2 4.57
2 -13 -9 10.11 6.77
2 13 -9 14.79 7.34
2 13 -9 -2.57 4.37
2 -13 -9 27.36 9.64
2 13 9 1.65 2.81
-2 0 -10 237.28 25.07
2 0 -10 248.42 67.71
2 0 10 276.62 26.72
-2 0 -10 274.31 25.81
2 0 -10 280.81 28.77
2 0 -10 171.3 40.92
2 0 10 308.4 25.38
-2 0 10 254.22 28.45
2 1 -10 -11.25 19.04
2 -1 -10 -11.21 18.96
2 1 10 14.56 5.32
-2 1 -10 16.61 5.81
2 1 -10 8.91 5.37
-2 -1 -10 7.5 4.3
2 -1 -10 14.39 6.48
2 -1 -10 10.27 13.75
-2 1 10 16.66 7.05
-2 1 10 14.28 6.43
-2 -1 -10 9.22 4.82
2 -1 10 18.77 5.49
2 1 10 19.95 6.12
-2 1 -10 11.86 5.16
-2 -1 10 15.36 6.4
2 2 -10 210.87 64.38
-2 2 -10 274.35 27.71
2 2 10 297.49 26.7
2 -2 -10 387.31 57.21
-2 2 -10 292.5 27.69
2 2 -10 318.01 31.88
-2 -2 -10 291.41 26.88
2 -2 -10 319.96 31.07
2 -2 10 334.37 26.79
2 2 10 350.63 28.02
-2 -2 10 296.34 31.08
-2 2 10 298.17 30.81
-2 2 10 292.67 29.95
-2 -2 -10 266.69 26.91
2 3 -10 -10.82 25.87
2 3 10 5.95 3.83
-2 3 -10 16.08 6.45
2 3 -10 10.62 7.26
-2 -3 -10 6.03 4.35
2 -3 -10 -4.88 10.11
2 3 -10 10 10.36
-2 3 10 1.43 5.15
2 -3 10 8.89 4.53
-2 -3 10 11.07 7.33
2 3 10 5.85 4.38
-2 3 10 6.19 6.15
-2 -3 -10 15.99 6.12
2 4 10 1328.07 86.68
2 4 -10 1388.66 169.11
2 -4 -10 1379.89 167.28
-2 4 -10 1357.44 91.69
2 -4 -10 1820.34 138.32
2 4 -10 1059.69 118.64
2 4 -10 1388.04 95.81
2 -4 10 1501.09 89.65
2 4 10 1550.09 90.93
-2 4 10 1441.31 96.89
-2 4 10 1496.42 95.97
-2 -4 -10 1291.8 90.73
-2 -4 10 1627.24 99.79
2 5 -10 79.94 37.84
2 -5 -10 78.69 39.06
2 5 -10 30.88 10
2 -5 -10 71.96 24.74
2 5 -10 23.29 16.84
-2 5 -10 30.21 8.81
2 -5 10 47.13 9.1
-2 -5 10 25.45 8.85
-2 5 10 42.08 10.77
2 5 10 57.81 10.65
-2 -5 -10 44.49 9.88
-2 5 10 41.83 11.09
2 6 -10 873.09 125.19
2 -6 -10 1073.25 133.14
-2 6 -10 880.07 63.88
2 6 -10 930.87 68.02
2 -6 -10 1087.72 97.8
2 6 -10 894.4 92.32
2 -6 10 881.81 61.88
2 -6 10 974.21 61.81
-2 -6 10 942.83 67.32
2 6 10 858.64 61.25
-2 6 10 908.63 68.21
-2 6 10 844.11 65.67
-2 -6 -10 855.3 62.3
2 7 -10 -8.97 15.17
2 -7 -10 8.82 18.27
2 7 -10 -3.22 4.72
2 -7 -10 -4.03 10.76
-2 7 -10 2.63 4.72
2 -7 10 1.14 3.85
2 7 -10 -4.18 10.01
2 -7 10 5.88 4.83
-2 -7 10 1.5 3.58
2 7 10 7.62 5.21
-2 -7 -10 4.54 4.9
-2 7 10 1.51 4.04
2 8 -10 438.69 78.01
2 -8 -10 356.69 71.45
-2 8 -10 299.88 30.32
2 8 -10 302.94 32.53
2 -8 -10 484.07 55.77
2 8 -10 304.76 47.27
2 -8 10 314.3 29.18
2 -8 10 290.61 28.3
2 8 10 305.56 28.49
-2 -8 10 357.84 33.43
-2 -8 -10 262.87 27.6
-2 8 10 327.36 32.71
2 9 -10 7.92 13.42
2 -9 -10 23.33 16.12
-2 9 10 20.61 7.14
2 -9 10 11.91 5.55
-2 -9 10 9.11 5.8
-2 -9 -10 16.52 6.04
-2 9 -10 20.16 7.35
2 9 -10 22.24 10.89
2 9 -10 15.33 6.8
-3 0 0 -3.52 0.02
-3 0 0 0.63 1.07
-3 0 0 1.25 1.49
-3 0 0 2.89 2.44
-3 0 0 0.76 0.68
-3 0 0 -3.32 3.97
-3 0 0 -1.69 2.86
-3 0 0 -0.51 1.07
-3 0 0 1.71 0.93
3 0 0 3.59 3.72
3 0 0 -3.74 6.33
-3 0 0 -0.67 1.14
-3 0 0 -1.53 1.83
-3 0 0 -0.4 1.08
-3 -1 0 197.07 17.34
-3 1 0 226.15 19.2
-3 -1 0 219.88 16.5
-3 -1 0 168.78 16.57
-3 1 0 126.73 15.32
-3 -1 0 185.79 33.33
-3 1 0 188.99 33.54
-3 -1 0 201.41 15.15
-3 -1 0 192.39 13.51
-3 1 0 200.7 13.75
-3 1 0 208.44 23.03
-3 -1 0 217.36 24.67
-3 1 0 176.9 31.85
-3 -1 0 200.24 34.06
-3 -1 0 186.33 12.99
-3 1 0 190.71 13.95
-3 1 0 209.17 25.26
-3 -1 0 202.19 25.16
-3 1 0 225.25 16.63
-3 -1 0 193.09 16.42
3 -1 0 202.38 35.41
3 1 0 226.1 36.96
-3 -1 0 181.97 15.01
3 1 0 214.6 26.27
-3 -1 0 174.66 23.22
-3 1 0 187.63 23.34
-3 1 0 191.64 17.39
3 -1 0 174.93 23.96
-3 -1 0 199.82 17.54
-3 1 0 190.91 15.17
-3 2 0 3.45 5.84
3 -2 0 0.83 1
-3 2 0 0.6 1.24
-3 2 0 0.88 1.5
-3 -2 0 0.7 1.67
-3 -2 0 0.35 0.84
-3 -2 0 1.63 3.9
-3 -2 0 0.27 0.73
-3 -2 0 -0.38 0.91
-3 -2 0 -0.68 1.41
-3 -2 0 0.55 0.58
-3 2 0 -0.32 0.95
-3 2 0 3.21 3.84
-3 -2 0 -1.66 3.44
-3 2 0 1.39 1.35
-3 -2 0 0.59 1.58
3 -2 0 -1.76 2.11
-3 -2 0 -1.52 2.58
-3 2 0 0.7 1.18
-3 2 0 0.85 1.14
-3 -2 0 1.31 1.36
-3 3 0 1950.74 114.06
-3 -3 0 1704.16 103.31
3 -3 0 1663.87 110.45
-3 3 0 1920.05 141.6
-3 -3 0 1856.78 110.19
-3 -3 0 1992.39 104.95
-3 -3 0 1687.72 104.46
-3 -3 0 1806.95 109.47
-3 3 0 2110.81 116.39
-3 -3 0 1863.11 105.33
-3 -3 0 1809.21 121.38
-3 -3 0 1809.35 102.55
-3 3 0 1960.48 140.08
-3 -3 0 2023.23 109.51
-3 -3 0 1912.5 121.46
-3 3 0 2003.88 106.73
3 -3 0 1750.69 108.38
3 3 0 1976.33 143.15
3 -3 0 1907.13 122.58
-3 3 0 1860.43 109.79
-3 -3 0 1830.9 119.66
-3 3 0 1851.98 106.43
-3 -3 0 2012.25 110.02
-3 -4 0 -3.31 6.85
-3 4 0 -3.29 6.81
-3 -4 0 2.59 0.99
-3 4 0 3.33 4.2
-3 -4 0 1.54 3.05
3 -4 0 5.32 3.82
-3 -4 0 0.91 2.89
-3 -4 0 1.49 1.39
-3 -4 0 3.56 5.63
-3 4 0 3.87 3.47
-3 -4 0 6.05 2.22
-3 -4 0 5.3 2.08
3 4 0 0.66 1.26
-3 -4 0 2.99 3.1
-3 -4 0 3.25 6.72
3 4 0 3.98 1.37
-3 4 0 3.04 5.14
-3 -4 0 4.54 1.4
-3 4 0 6.36 5.38
-3 -4 0 3.16 5
-3 4 0 2.11 1.76
3 -4 0 -0.64 1.53
-3 -4 0 4.7 2.66
-3 4 0 3.73 2.53
3 -4 0 5.77 3.09
-3 4 0 9.01 3.16
3 4 0 3.44 5.81
-3 -4 0 2.01 2.66
-3 -4 0 -1.47 3.94
-3 4 0 2.81 4.76
3 -4 0 -1.69 4.95
3 -5 0 5167.98 314.85
-3 -5 0 5150.46 315.5
-3 5 0 5534.45 319.61
-3 -5 0 6125.34 315.13
-3 -5 0 5056.96 341.41
-3 5 0 6045.53 348.51
-3 -5 0 5996.82 310.29
-3 -5 0 5509.15 313.75
3 5 0 5193.15 307.98
-3 5 0 6174 315.81
-3 -5 0 5144.64 306.47
-3 -5 0 5790.54 328.4
-3 5 0 6052.33 346.08
-3 -5 0 5504 344.62
3 5 0 5633.88 306.01
-3 5 0 5545.39 323.75
-3 -5 0 5724.16 324.38
-3 5 0 6417.67 310.17
-3 -5 0 5500.14 312.74
3 -5 0 6014.18 351.09
3 5 0 6136.05 350.96
3 -5 0 5453.83 311.59
3 5 0 5606.77 325.08
-3 -5 0 5157.94 321.27
-3 5 0 5780.13 322.48
-3 5 0 5594.98 313.95
-3 5 0 5600.65 310.09
3 -5 0 5320.42 311.41
3 5 0 5403.77 313.84
-3 -5 0 5605.68 312.77
3 -5 0 5680.06 325.76
-3 -6 0 -3.06 7.32
-3 6 0 -3.06 3.66
-3 -6 0 2.16 2.24
-3 6 0 -1.29 3.77
-3 -6 0 0.84 2.25
3 -6 0 4.84 4.17
-3 6 0 1.99 2.64
-3 -6 0 1.89 3.91
3 6 0 1.28 1.84
-3 -6 0 2.3 2.18
-3 -6 0 4.97 2.97
-3 -6 0 1.53 2.24
-3 6 0 2.81 5.82
-3 -6 0 1.46 3.91
-3 -6 0 3.06 5.18
-3 6 0 1.49 4.7
-3 6 0 0.87 1.27
3 -6 0 1.31 1.75
3 6 0 1.53 1.01
3 -6 0 -3.39 7.01
-3 6 0 -0.54 1.7
3 6 0 3.47 2.54
3 6 0 3.17 3.79
3 -6 0 2.73 2.45
-3 -6 0 1.38 2.85
-3 6 0 1.3 2.69
3 -6 0 1.59 2.68
3 6 0 1.58 4.23
-3 -6 0 0.73 2.15
3 7 0 1344.42 84.76
-3 -7 0 1145.54 86.74
-3 7 0 1407.12 91.96
-3 -7 0 1346.73 85.78
3 -7 0 1882.72 91.61
-3 -7 0 1283.97 106.32
-3 7 0 1511.06 110.57
3 7 0 1397.07 80.52
3 7 0 1345.23 80.96
-3 7 0 1358.56 81.73
-3 -7 0 1369.93 85.66
-3 -7 0 1286 96.97
-3 -7 0 1436.1 109.4
3 7 0 1454.12 110.7
3 7 0 1291.2 77.65
-3 7 0 1505.87 93.79
-3 -7 0 1451.66 92.89
3 -7 0 1380.47 83.4
-3 7 0 1618.82 111.34
3 -7 0 1489.8 113.42
-3 7 0 1328.61 81.94
-3 -7 0 1140.62 88.65
-3 7 0 1442.05 91.05
3 7 0 1315.83 85.91
3 -7 0 1456.36 94.59
3 7 0 1546.52 95.48
-3 -8 0 -2.78 4.7
-3 8 0 2.79 6.68
-3 -8 0 -1.25 2.99
-3 8 0 -1.17 1.98
3 -8 0 1.05 2.18
-3 -8 0 1.25 2.58
-3 8 0 1.42 2.39
-3 8 0 0.64 0.86
3 8 0 0.95 1.27
3 8 0 1.81 2.16
3 8 0 0.89 1.51
-3 -8 0 1.87 1.94
-3 -8 0 1.96 4.06
-3 8 0 1.36 2.82
-3 -8 0 1.32 2.24
-3 8 0 2.57 3.07
3 8 0 0.29 0.92
-3 -8 0 -2.81 3.35
3 -8 0 1.41 1.68
-3 8 0 0.64 1.32
3 -8 0 -1.46 3.03
3 8 0 1.99 2.37
3 -8 0 -3.11 5.25
3 8 0 -2.85 4.82
3 8 0 1.44 2.99
3 9 0 211.34 20.86
-3 9 0 229.42 25.14
-3 -9 0 190.61 22.67
3 -9 0 188.18 21.27
-3 9 0 236.59 32.93
-3 -9 0 258.2 34.59
3 9 0 221.04 18.68
-3 -9 0 164.18 19.49
-3 -9 0 256.49 30.17
3 9 0 217 17.22
3 -9 0 200.94 18.94
3 -9 0 210.07 32.8
3 9 0 195.49 15.13
3 9 0 282.44 35.97
-3 9 0 226.3 23.92
-3 -9 0 209.66 22.93
-3 -9 0 239.63 33.28
-3 -9 0 176.36 21.43
-3 9 0 180.02 21
-3 9 0 201.22 18.46
3 9 0 198.7 21.17
3 -9 0 207.34 24.07
3 9 0 219.97 24.5
-3 -10 0 2.5 4.22
-3 10 0 2.53 3.03
-3 -10 0 -1.46 1.75
3 -10 0 -1.17 1.98
-3 10 0 -1.52 3.14
3 10 0 1.72 1.37
3 10 0 0.73 1.52
3 10 0 -1.07 1.8
-3 -10 0 1.08 1.82
-3 10 0 -1.24 2.1
-3 -10 0 1.19 1.42
3 10 0 0.42 1.12
3 -10 0 0.81 1.37
3 10 0 -1.3 2.2
-3 10 0 -0.76 2.21
3 -10 0 -2.81 3.36
3 10 0 1.18 1.41
3 -10 0 -1.33 2.25
-3 -11 0 21.17 9.45
-3 11 0 43.14 12.9
3 -11 0 29.87 8.01
-3 -11 0 31.33 9.1
-3 11 0 34.11 9.39
3 11 0 27.83 7.36
3 11 0 26.19 6.21
3 11 0 36.5 6.3
-3 -11 0 25.56 7.1
-3 11 0 15.14 5.93
-3 -11 0 29.85 7.39
3 11 0 28.23 5
3 -11 0 23.97 5.89
3 11 0 40.06 9.13
3 -11 0 13.29 8.54
-3 -12 0 4.42 4.58
-3 12 0 -2.27 3.83
-3 -12 0 1.67 2
3 -12 0 -1.29 3.09
-3 12 0 1.58 3.28
3 12 0 2.71 2.86
3 12 0 1.42 1.9
-3 -12 0 -1.24 2.96
-3 12 0 3.29 2.93
-3 -12 0 2.06 3.02
3 -12 0 -0.94 2.25
3 12 0 -0.58 2.1
3 12 0 -1.41 2.39
3 -13 0 1680.23 103.75
-3 13 0 1803.27 107.96
-3 -13 0 1338.44 104.45
-3 -13 0 1449.21 108.95
-3 13 0 1529.37 110.79
3 13 0 1418.69 97.21
3 13 0 1742.22 96.72
-3 -13 0 1331.93 99.77
3 13 0 1570.75 94.11
-3 13 0 1640.93 99
-3 -13 0 1482.44 97
3 -13 0 1593.45 98.72
3 13 0 1846.63 107.69
-3 14 0 1.02 2.44
-3 -14 0 1.93 4
-3 14 0 1.99 3.36
3 -14 0 1.42 4.16
-3 -14 0 3.82 4.57
-3 14 0 1.63 5.17
3 14 0 5.3 3.17
-3 -14 0 -4.12 8.54
-3 -14 0 1.41 2.93
-3 14 0 0.96 2.8
3 -14 0 -1.08 2.9
3 14 0 1.69 4.03
-3 -15 0 1624.11 120.38
-3 15 0 2464.52 124.83
3 -15 0 1907.16 116.47
-3 -15 0 1592.71 117.68
-3 15 0 1659.2 119.1
3 15 0 2090.82 111.86
-3 -15 0 1549.19 114.14
3 15 0 1694.22 107.71
-3 15 0 1828.51 108.83
-3 -15 0 1615.98 106.85
3 -15 0 1720.32 111.97
-3 -15 0 1741.42 109.31
3 15 0 2105.15 123.98
3 -16 0 -1.51 4.78
-3 -16 0 -1.64 3.93
-3 16 0 -1.67 3.46
-3 16 0 -1.67 5.66
-3 16 0 1.21 2.9
3 16 0 2.12 2.84
-3 16 0 0.8 2.33
3 16 0 0.94 2.98
3 -16 0 -1.25 2.11
-3 -16 0 2.22 2.34
-3 -16 0 1 2.4
3 -16 0 1.52 4.45
3 16 0 3.96 5.3
3 -17 0 934.53 62.65
-3 -17 0 655.24 57.55
3 -17 0 686.33 56.77
3 17 0 689.88 53.41
-3 17 0 654.26 49.82
-3 -17 0 906.41 56.78
3 -17 0 954.61 63.73
3 17 0 1069.9 73.21
-3 -18 0 3.98 3.17
3 -18 0 -1.56 4.56
3 18 0 -1.13 1.9
-3 18 0 0.6 1.44
3 -18 0 1.42 1.7
-3 -18 0 -1.13 2.35
3 18 0 -2.27 6.08
3 -18 0 -1.66 4.86
3 -19 0 20.31 7.25
3 19 0 6.04 3.85
3 -19 0 5.88 3.96
-3 -19 0 10.73 4.75
3 -19 0 12.11 5.87
3 19 0 7.23 5.79
3 -20 0 1.55 3.22
-3 20 0 -3.41 4.07
3 20 0 -1.28 2.66
3 -20 0 1.54 2.61
-3 -20 0 3.74 2.98
3 -20 0 5.42 4.32
3 20 0 2.54 3.04
-3 21 0 13.56 7.88
-3 -21 0 20.43 9.68
3 -21 0 19.96 7.37
3 21 0 4.04 4
3 -21 0 12.79 6.38
-3 -21 0 20.66 6.94
3 -21 0 22.34 8.93
3 21 0 18.57 9
-3 22 0 5.06 5.34
-3 -22 0 7.76 6.19
3 -22 0 4.59 4.49
3 22 0 2.8 3.35
3 -22 0 9.88 5.58
-3 -22 0 5.32 4.78
3 -22 0 1.91 4.56
3 22 0 2.75 4.66
-3 -23 0 284.46 42.09
-3 23 0 455.76 40.37
3 23 0 184.52 30.07
-3 -23 0 530.26 38.65
3 -23 0 502.56 43.5
3 23 0 399.82 46.63
-3 0 -1 1.62 1.28
-3 0 1 3.56 4.25
-3 0 1 0.84 1.43
3 0 1 4.79 3.02
-3 0 1 1.39 1.85
-3 0 -1 1.22 1.45
-3 0 1 2.76 2.86
3 0 1 -1.1 1.86
-3 0 1 -0.39 0.82
-3 0 1 1.1 1.13
-3 0 -1 1.07 0.52
-3 0 -1 1.32 2.23
3 0 1 -0.7 1.19
-3 0 -1 0.18 0.47
-3 0 1 3.39 3.51
-3 0 1 -0.5 1.04
-3 0 -1 -0.52 1.66
-3 0 1 0.34 0.69
-3 0 1 3.28 3.92
3 0 1 0.8 1.35
-3 0 1 1.26 1.06
-3 0 -1 0.71 1.2
-3 0 1 1.06 1.19
-3 0 -1 0.46 0.78
3 0 -1 -3.77 4.51
3 0 1 1.83 2.18
-3 0 1 -1.57 1.87
3 0 1 3.86 4.61
-3 -1 -1 21.88 4.66
-3 1 -1 16.43 3.78
-3 -1 1 38.87 14.67
-3 1 1 53.25 17.01
-3 1 1 17.75 5.34
-3 1 -1 15.18 4.05
3 -1 1 18.58 4.94
-3 -1 -1 20.37 3.39
3 -1 1 20.58 5.65
-3 -1 1 16.52 4.42
3 1 1 19.32 4.99
-3 -1 1 21.72 5.17
-3 -1 1 16.33 4.56
-3 -1 1 21.16 4.36
-3 1 -1 17.32 1.89
-3 -1 1 22.98 3.9
-3 -1 1 27.66 8.04
3 1 1 19.96 6.41
-3 1 1 22.18 6.7
-3 -1 1 19.41 4.23
-3 -1 -1 19 7.07
-3 -1 -1 17.35 2.01
-3 1 1 22.39 3.63
-3 1 1 30.54 8.9
-3 -1 1 18.5 7.33
-3 1 1 28.99 4.66
-3 -1 1 18.66 3.22
-3 1 -1 18.06 3.98
-3 -1 -1 21.83 4.46
-3 -1 1 18.65 4.07
3 -1 1 21.52 5.02
3 1 -1 24.1 5.17
3 -1 -1 30.33 13.64
3 1 1 26.79 12.99
3 1 1 24.83 5.52
-3 -1 -1 15.09 3.57
-3 1 1 15.33 4.03
-3 1 -1 16.6 4.52
-3 -1 1 20.92 4.59
-3 1 1 20.21 3.59
-3 -1 -1 18.21 4.7
-3 1 -1 16.29 3.63
-3 -1 1 13.23 8.91
-3 1 1 25.88 10.99
3 -1 1 30.78 13.84
-3 -1 1 21.24 3.51
3 -1 1 18.11 7.25
3 1 1 23.75 8.24
-3 1 1 13.95 6.23
-3 -1 1 22.03 7.6
-3 2 1 98.42 23.72
-3 -2 1 58.38 9.3
3 2 1 59.44 8.35
3 -2 1 61.67 10.4
-3 -2 1 82.34 9.96
-3 2 1 65.32 10.85
-3 -2 1 74.24 10.06
-3 2 -1 74.65 9.3
-3 -2 -1 67.1 9.57
-3 -2 -1 68.69 6.46
-3 2 -1 77.08 9.16
-3 -2 -1 67.33 9.13
3 -2 1 81.79 10.89
-3 -2 1 90.52 9.09
-3 -2 1 77.01 8.1
-3 -2 -1 70.54 6.49
-3 -2 1 82.68 9.43
-3 -2 1 99.35 15.67
3 2 1 77.71 13.63
-3 -2 1 70.3 7.93
-3 -2 -1 84.34 15.24
-3 -2 1 74.27 6.97
-3 -2 1 79.44 14.79
-3 2 1 76.99 7.94
-3 -2 -1 78.61 9.22
3 2 -1 77.34 7.45
-3 -2 1 81.01 9.35
-3 2 -1 71.73 8.24
3 -2 -1 53.67 8.05
-3 2 1 66.92 7.67
3 2 1 56.48 18.96
-3 2 1 69.6 9.2
3 2 1 70.86 10.16
-3 -2 1 67.06 8.76
-3 -2 1 61.91 6.93
3 2 -1 68.27 9.25
-3 2 1 85.62 21.13
-3 2 -1 77.32 10.24
3 -2 1 56.93 13.17
-3 -2 -1 73.43 9.59
-3 2 1 67.86 7.49
-3 -2 1 69.07 13.7
-3 2 -1 65.07 7.8
-3 -3 -1 179.59 17.61
3 -3 1 202.26 21.02
-3 -3 1 175.88 15.67
-3 -3 1 167.87 18.15
-3 3 1 225.83 22.01
-3 3 -1 182.29 17.59
3 -3 1 154.74 17.3
-3 -3 -1 245.81 18.74
-3 -3 1 198.67 18.56
-3 3 1 217.65 35.27
-3 -3 1 197.17 14.87
-3 -3 -1 181.04 12.78
-3 -3 1 184.14 14.72
-3 -3 1 165.89 16.1
3 3 1 157.63 21.88
-3 -3 1 171.88 15.1
-3 -3 -1 165.66 23.21
-3 -3 1 207.03 24.59
-3 3 1 201.06 15.03
-3 -3 1 187.57 13.53
3 -3 -1 177.59 16.18
-3 -3 -1 204.07 17.13
3 3 -1 204.85 14.37
-3 3 1 187.89 15.22
-3 3 1 179.34 31.23
-3 -3 1 174.51 23.1
-3 3 -1 184.5 15.17
-3 -3 1 177.81 16.4
-3 3 1 172.58 14.76
3 -3 -1 191.46 15.61
-3 -3 1 183.31 13.9
3 3 -1 157.33 16.24
3 -3 1 213.72 25.73
-3 -3 1 184.66 23.2
-3 3 1 179.07 16.81
3 3 1 180.27 33.56
3 3 1 175.93 17.96
-3 3 -1 181.3 17.65
-3 -3 1 189.08 16.66
-3 -3 -1 170.28 16.75
-3 3 -1 181.21 15.3
3 -4 1 106.32 16.34
3 -4 1 233.61 22.79
-3 -4 1 207.04 15.84
-3 4 1 189.89 21.7
-3 -4 1 211.03 20.94
-3 -4 -1 230.61 19.3
-3 4 1 205.21 17.45
-3 4 -1 246.71 21.15
-3 -4 1 260.87 38.23
-3 4 1 205.96 34.59
-3 -4 1 194.14 15.68
3 4 1 171.2 13.56
-3 -4 1 198.61 15.34
-3 -4 1 209.41 16.58
-3 -4 -1 219.2 27.04
-3 -4 1 204.07 18.11
-3 -4 -1 210.77 19.46
-3 -4 1 212.98 25.59
3 4 1 176.08 23.86
3 -4 -1 214 17.64
-3 -4 1 211.74 14.47
3 4 -1 219.94 15.27
-3 4 1 231.21 34.51
-3 4 1 197.42 16.39
-3 -4 1 162.72 31.13
-3 4 1 205.15 24.99
-3 -4 1 224.69 25.5
3 4 1 227.77 36.53
-3 -4 -1 214.1 18.39
-3 -4 1 203.36 18.17
-3 4 1 238.81 16.2
3 -4 -1 210.95 17.04
3 -4 1 223.76 26.3
-3 4 1 207.83 24.32
-3 -4 1 197.02 24.38
3 4 -1 206.52 18.46
-3 4 -1 191.57 18.62
-3 4 1 176.32 17.7
-3 4 1 207.56 16.4
-3 -4 -1 211.73 18.61
-3 -4 1 220.72 18.21
-3 4 -1 194.2 16.36
-3 -5 -1 0.73 1.52
-3 -5 1 -3.19 5.4
-3 5 1 6.54 5.53
-3 -5 1 5.41 2.89
3 -5 -1 0.92 1.1
3 -5 1 4.72 3.16
-3 -5 1 2.12 1.14
3 -5 1 0.94 1.6
-3 5 1 0.57 0.68
-3 5 1 1.24 2.1
-3 5 -1 0.99 1.68
-3 -5 1 1.47 1.31
-3 -5 1 1.71 2.05
-3 -5 1 0.93 1.12
3 5 -1 1.37 1.34
3 5 1 1.22 0.82
-3 -5 -1 1.73 2.06
-3 -5 1 1.8 1.14
-3 -5 1 0.72 1.73
-3 -5 -1 1.9 2.27
-3 -5 -1 0.83 0.56
-3 5 1 -1.57 2.65
-3 -5 1 -1.5 2.54
-3 -5 1 0.28 0.83
-3 5 -1 0.91 0.94
-3 5 1 1.16 0.92
3 -5 -1 0.59 1.01
3 5 -1 2.77 1.37
-3 -5 -1 -0.72 1.48
-3 5 1 0.76 1.28
-3 5 -1 0.82 1.38
-3 5 1 -1.4 2.36
-3 -5 1 -1.49 2.53
3 5 1 3.43 7.1
3 5 1 1.67 2
3 5 -1 1.5 1.79
-3 5 1 -0.53 1.78
-3 5 -1 1.57 1.25
3 -5 -1 1.17 1.4
3 -5 1 3.24 2.74
-3 5 1 -2.91 4.92
-3 -5 1 3.19 3.82
3 -5 1 -3.52 5.95
-3 -5 -1 -0.74 0.89
-3 -5 1 0.65 1.34
-3 -6 -1 26.06 5.7
-3 -6 1 9.18 8.27
-3 -6 1 18.99 6.13
-3 -6 -1 23.86 6.19
-3 6 1 44.26 14.68
3 -6 1 20.89 6.67
3 -6 -1 18.21 5.62
-3 6 1 24.82 7.58
3 -6 1 26.34 6.63
-3 6 1 18.19 4.23
-3 6 -1 28.74 7.09
-3 -6 1 23.41 5.49
3 6 1 29.12 4.4
-3 -6 1 19.4 7.98
-3 -6 1 16.36 3.95
-3 -6 -1 16.24 4.96
3 6 -1 21.81 4.39
3 6 -1 17.86 4.82
-3 -6 -1 31.57 10.08
-3 -6 1 23.91 3.75
-3 -6 -1 22.84 5.36
-3 6 1 24.24 7.77
-3 -6 1 24.45 7.58
-3 6 1 20.58 3.93
3 6 -1 18.47 3.45
3 -6 -1 19.91 4.6
-3 6 -1 19.84 5.48
-3 6 1 14 8.28
-3 6 1 22.86 7.11
-3 -6 1 20.31 7.04
-3 6 1 23.94 4.88
3 6 -1 28.76 6.23
-3 6 -1 21.93 4.55
3 6 1 39.28 14.16
3 -6 -1 18.76 4.53
3 -6 1 28.12 8.64
3 6 1 29.05 8.49
-3 -6 1 6.24 6.56
3 -6 1 27.13 11.53
-3 -6 -1 28.71 5.91
3 -7 1 64.99 11.77
-3 7 1 60.61 17.18
-3 -7 1 33.61 8.55
-3 7 1 75.29 13.02
-3 -7 -1 41.41 8.82
-3 -7 -1 65.2 9.32
3 7 -1 48.72 8.14
3 -7 1 75.37 11.43
3 -7 -1 39.91 8.47
-3 7 -1 57.94 10.6
-3 -7 1 52.68 15.85
3 7 -1 45.28 6.65
-3 -7 1 61.25 7.85
-3 -7 1 76.13 15.07
3 7 1 48.44 6.24
3 7 -1 45.44 6.76
-3 -7 -1 75.38 15.61
-3 -7 -1 57.28 9.39
-3 -7 1 39.81 7.58
-3 7 1 53.74 11.4
-3 -7 1 60.26 11.62
3 7 -1 42.26 5.68
3 7 1 32.89 3.29
3 -7 -1 51.63 7.34
3 7 -1 52.53 8.66
-3 -7 1 39.21 14.19
-3 7 -1 49.8 7.06
-3 7 1 73.48 12.39
-3 -7 1 68.54 12.31
3 -7 1 74.96 13.53
3 7 1 54.18 11.83
3 -7 1 64.9 18.37
3 7 1 62.41 17.68
-3 7 1 56.59 15.32
-3 7 1 60.98 8.29
3 -7 -1 57.97 8.46
3 -8 1 15.71 6.34
-3 -8 -1 14.42 5.47
-3 -8 1 19.52 9.48
-3 8 1 11.6 7.82
-3 8 -1 14.07 8.3
-3 -8 1 21 6.97
-3 8 1 26.96 7.84
3 -8 -1 26.94 6.63
-3 -8 -1 19.34 5.32
3 -8 1 17.17 5.57
-3 8 -1 23.36 7.01
-3 -8 -1 11.68 7.87
-3 -8 1 16.6 7.04
3 8 -1 21.67 4.59
3 8 1 23.07 8.96
3 8 1 15.56 3.21
-3 -8 1 23.27 5.13
3 8 1 19.16 4.19
3 8 -1 13.96 4.65
3 8 -1 20.92 4.53
-3 -8 -1 13.76 4.81
-3 -8 1 18.42 5.26
-3 8 1 13.88 5.59
-3 -8 1 18.17 6.47
3 8 1 15.48 2.23
3 -8 -1 26.6 5.18
3 8 -1 16.44 3.49
-3 -8 1 24.12 7.23
3 -8 1 24.84 11.78
-3 8 1 19.99 4.86
-3 8 -1 20.33 4.59
3 -8 1 35.66 9.08
3 8 1 20.56 7.31
3 8 -1 17.35 5.1
3 -8 -1 26.66 5.96
-3 8 1 20.93 6.49
-3 -8 1 14.55 9.26
-3 8 1 20.69 9.33
3 8 1 17.77 10.06
-3 -9 -1 30.45 11.58
-3 -9 -1 30.91 8.02
-3 -9 1 29.04 11.06
-3 9 1 49.66 15.21
3 -9 1 28.93 7.8
3 -9 1 37.48 9.2
-3 9 -1 32.1 12.08
3 -9 -1 44.21 8.61
-3 -9 -1 29.07 6.53
-3 -9 1 30.2 8.99
-3 9 1 29.43 8.6
-3 9 -1 38.6 9.61
-3 -9 1 22.5 9.12
3 9 1 41.06 11.57
-3 -9 1 29.2 6.31
3 9 1 33.5 6.13
3 9 -1 30.8 5.76
3 9 -1 27.25 5.96
3 9 -1 29.81 6.81
3 9 1 27.5 4.54
-3 -9 -1 25.91 6.53
-3 -9 1 41.96 8.27
-3 -9 -1 27.71 8.06
-3 9 1 44.91 9.62
-3 -9 1 35.54 8.45
3 9 1 27.69 3.62
3 9 -1 30.17 4.96
3 -9 1 28.54 6.15
3 -9 -1 27.18 5.57
-3 9 -1 26.05 7.49
-3 9 1 51.9 14.57
-3 9 1 24.32 5.86
3 -9 1 20.43 7.29
3 9 1 33.5 8.98
-3 9 -1 32.99 6.18
3 -9 -1 31.35 6.89
3 9 -1 25.03 6.54
3 9 1 33.53 13.04
3 -9 1 41.46 14.26
-3 -9 1 47.36 14.99
-3 9 1 32.82 7.97
-3 -9 1 29.21 7.92
-3 -10 -1 59.94 15.76
-3 10 -1 40.48 13.06
-3 -10 1 47.4 13.88
-3 10 1 54.89 14.85
-3 -10 -1 43.75 9.83
-3 -10 1 37.4 10.01
-3 10 1 57.39 11.95
-3 -10 -1 48.08 8.68
3 -10 -1 42.73 8.94
3 -10 1 36.27 8.82
-3 10 -1 46.32 10.93
3 10 -1 50.97 8.64
3 10 1 63.23 14.57
3 10 1 27.85 6.47
3 10 1 41.61 5.92
3 10 -1 54.08 7.83
3 10 -1 56 10
-3 -10 -1 41.12 8.94
-3 -10 1 38.84 8.7
-3 10 1 37.49 9.04
-3 -10 1 44.94 9.14
3 -10 -1 49.03 7.8
3 10 1 39.97 5.15
3 10 -1 41.73 6.43
-3 -10 -1 43.29 9.43
-3 10 -1 44.27 9.49
3 -10 1 41.98 7.98
-3 10 1 46.96 13.39
3 -10 1 49.06 10.17
3 10 1 47.36 10.23
-3 10 -1 41.73 7.28
3 -10 -1 30.54 7.18
-3 10 1 43.77 9.1
-3 -10 1 58.4 10.65
3 10 -1 49.58 9.25
3 -10 1 50.66 15.24
3 10 1 55.16 15.25
-3 -10 1 45.04 14.02
-3 10 1 57.17 9.1
3 -10 1 58.29 9.75
-3 -11 -1 124.52 22.96
-3 -11 1 101.52 18.05
-3 11 1 131.11 19.4
-3 -11 -1 142.64 19.27
-3 11 -1 134.05 19.26
-3 -11 -1 135.51 15.7
3 -11 -1 114.91 16
3 -11 1 89.42 15.45
-3 -11 1 124.56 22.36
-3 11 -1 126.33 22.82
-3 11 1 162.96 26.02
3 11 1 122.11 14.52
3 11 -1 151.16 16.06
3 11 1 126.87 12.36
-3 -11 -1 137.96 17.15
-3 -11 1 138.5 17.15
3 11 -1 142.28 14.66
-3 11 1 157.42 11.7
3 11 -1 143.94 17.38
-3 11 1 126.87 22.11
3 11 1 112.57 10.96
3 11 -1 118.82 12.76
-3 -11 1 164.76 25.78
-3 11 1 138.58 17.21
-3 -11 1 146.92 17.08
-3 11 -1 110.57 15.66
-3 -11 -1 136.88 17.37
3 -11 1 138.12 15.67
3 -11 -1 120.23 13.92
3 11 1 110.98 21.61
3 -11 1 118.93 16.79
3 11 1 134.43 17.5
3 11 -1 149.17 18.03
-3 11 1 104.28 14.95
-3 -11 1 136.6 17.03
3 -11 1 109.2 22.72
-3 11 1 142.62 15.87
3 -11 -1 134.71 16.3
3 -11 1 139.89 16.82
-3 -12 -1 68.62 16.02
-3 12 -1 53.98 14.07
-3 -12 1 48.66 14.1
-3 12 1 50.98 14.47
-3 -12 -1 47.19 11.41
-3 -12 -1 62.11 10.5
3 -12 1 81.99 14.01
3 -12 -1 52.29 10.45
-3 12 1 59.74 9.85
-3 12 1 63.22 12.92
-3 -12 1 44.87 12.03
-3 12 -1 65.31 13
3 12 -1 61.62 9.43
3 12 -1 75.06 11.36
3 12 1 61.55 10.11
3 12 1 59.41 8.12
3 12 -1 68.1 7.3
-3 -12 -1 62.44 11.32
-3 -12 1 62.91 11.59
-3 12 1 75.48 15.97
3 12 1 47.35 6.98
3 12 -1 56.72 8.48
3 -12 -1 54.91 8.97
-3 -12 -1 66.14 10.91
-3 12 -1 63.81 10.98
3 -12 1 72.43 11.71
-3 12 1 53.88 10.41
-3 -12 1 57.21 9.96
-3 -12 1 60.79 15.38
3 -12 1 75.57 17.32
3 -12 -1 34.26 8.93
-3 12 1 59.97 10.11
3 -12 1 59.23 10.77
3 12 -1 56.13 11.51
3 12 1 53.17 14.7
3 -12 1 47.78 10.06
3 12 1 52.68 10.29
-3 -12 1 49.15 9.55
-3 13 1 314.8 29.89
-3 13 -1 248.45 27.12
-3 -13 -1 200.4 21.15
-3 -13 1 178.75 26.17
3 -13 -1 193.25 22.21
3 -13 1 174.32 23.32
-3 13 1 262.07 22.59
-3 -13 -1 246.24 30.97
-3 13 -1 205.21 28.48
-3 -13 1 173.8 26.49
-3 13 1 236.43 30.44
3 13 1 173.44 20.45
3 13 1 237.18 19.41
3 13 -1 217.13 16.49
3 13 -1 228.42 20.97
-3 -13 -1 165.64 21.76
-3 -13 1 195.09 23.33
-3 -13 1 181.31 26.5
3 -13 1 247.62 32.16
-3 -13 1 216.63 29.4
3 13 1 161.54 16.65
3 13 -1 219.87 19.8
3 13 1 193.38 27.57
-3 13 1 211.14 21.45
-3 -13 1 216.94 21.07
-3 13 -1 211.54 21.45
-3 -13 -1 184.29 20.2
3 -13 1 193.72 21.47
3 -13 -1 241.64 21.68
-3 13 1 195.64 26.91
-3 -13 1 195.62 20.76
-3 13 1 188.97 19.94
-3 -13 1 187.12 18.81
3 -13 -1 224.08 23.66
3 13 -1 230.43 25.63
3 -13 1 231.65 22.8
3 13 1 202.29 21.77
3 -13 1 236.74 23.98
-3 -14 1 44.15 12.77
-3 -14 -1 45.9 12.14
-3 14 -1 33.87 10.89
-3 14 -1 61.74 13.22
-3 -14 1 29.01 10.07
-3 14 1 40.46 11.82
-3 14 1 30.35 7.2
3 -14 1 50.09 11.3
-3 -14 -1 39.76 9.18
-3 14 1 62.8 10.36
3 -14 -1 62.14 11.39
-3 14 1 47.38 11.45
-3 -14 1 44.66 8.57
3 14 1 44.89 7.79
3 14 1 29.5 8
3 14 -1 39.49 5.8
3 14 -1 40.24 8.27
-3 -14 -1 39.56 9.82
-3 -14 1 21.53 9.34
-3 14 -1 43.15 8.35
-3 -14 -1 41.52 8.13
-3 -14 1 42.04 11.94
3 14 1 34.22 6.92
3 14 -1 42.42 8.07
-3 14 1 45.15 8.64
-3 -14 1 40.44 7.89
3 -14 1 47.97 9.65
3 -14 -1 39.02 8.16
-3 -14 1 43.93 7.94
3 -14 1 36.22 9.21
3 -14 1 49.1 9.28
3 14 1 51.71 9.52
3 14 -1 46.78 11.3
3 -14 1 48.98 13.23
3 14 1 37.76 10.86
-3 -15 -1 66.98 14.69
-3 15 -1 70.72 14.86
-3 -15 1 62.01 15.4
-3 -15 1 66.76 14.11
-3 15 1 39.49 11.8
-3 15 1 79.26 12.58
-3 15 -1 92.42 16.78
-3 -15 -1 62 11.1
3 -15 1 76.17 14.56
-3 15 1 80.82 15.81
3 -15 -1 56.16 11.42
3 15 1 76.37 10.93
3 15 -1 81.77 8.48
-3 -15 1 70.5 15.59
-3 -15 -1 52.61 12.45
-3 -15 1 54.75 9.31
3 15 -1 68.63 11
-3 15 1 66.61 10.33
-3 15 -1 64.29 10.15
-3 -15 -1 72.01 10.37
3 15 1 60.63 9.53
3 -15 1 63.14 11.74
3 -15 -1 51.47 9.83
3 -15 1 63.87 12.52
3 -15 1 51.79 14.03
-3 -15 1 70.08 10.59
3 15 -1 86.56 16.21
-3 16 -1 43.37 11.38
-3 16 1 31.98 7.77
3 -16 -1 24.67 7.65
-3 -16 -1 27.47 8.83
-3 16 -1 22.35 8.1
-3 -16 1 25.35 10.04
-3 -16 1 25.13 8.63
3 -16 1 16.62 7.04
-3 -16 -1 20.43 6.94
-3 16 1 36.52 10.97
3 16 -1 26.84 4.93
3 16 1 28.8 7.04
-3 -16 1 21.59 8.9
-3 -16 -1 27.14 9.27
-3 -16 1 24.39 5.69
-3 16 -1 34.25 7.07
-3 -16 -1 24.49 5.93
3 16 1 20.39 5.7
-3 16 1 25.69 6
3 -16 1 33.29 8.55
3 -16 -1 24.48 6.98
3 16 -1 33.44 7.64
-3 -16 1 27.02 7.08
3 -16 1 39.24 9.66
3 16 1 62.72 13.97
3 16 -1 36.38 10.84
-3 -17 1 126.13 23.38
3 -17 1 207.81 24.32
3 -17 -1 165.98 20.28
-3 -17 -1 134.19 19.58
-3 -17 -1 93.36 18.58
3 17 1 124.72 16.37
3 17 -1 156.78 13.22
-3 -17 1 128 21.9
3 17 -1 114.38 16.36
-3 17 -1 121.85 14.12
3 17 1 74.34 13.46
3 -17 1 126.63 19.04
3 -17 -1 115.65 17.09
-3 -17 -1 153.36 18.44
-3 -17 1 180.57 18.44
3 17 1 190.8 26.42
3 17 -1 181.91 25.76
3 -17 1 172.06 21.84
-3 -18 -1 58.29 16.26
-3 -18 -1 63.92 12.73
-3 -18 1 53.62 16.36
3 -18 1 126.05 18.46
3 -18 -1 78.87 13.85
3 18 -1 60.53 7.87
-3 -18 1 70.79 16.18
-3 18 -1 65.52 9.09
3 -18 -1 57.83 11.9
3 18 1 38.22 9.25
3 18 -1 58.21 11.56
3 -18 1 88.52 15.09
-3 -18 -1 68.12 11.99
3 -18 1 90.33 15.78
3 18 1 87.81 18.68
3 18 -1 86.45 17.95
-3 -18 1 88.79 13.19
-3 -19 -1 32.96 11.83
3 -19 1 62.07 13.24
-3 -19 1 34.77 12.81
3 -19 -1 42.34 10.25
3 19 1 32.95 8.36
3 19 -1 26.29 8.19
3 -19 1 63.64 12.8
3 -19 -1 34.83 9.41
-3 -19 -1 50.35 10.47
-3 -19 1 54.44 10.41
3 -19 1 68.05 13.72
3 19 1 46.46 14.51
3 19 -1 44.74 14.27
-3 20 -1 6.75 4.94
-3 -20 -1 2.44 5.05
3 -20 -1 1.4 3.35
3 -20 1 3.42 5.01
-3 20 1 3.39 4.54
3 -20 1 4.86 3.88
3 20 1 1.2 2.87
3 20 -1 1.4 2.36
3 -20 -1 4.39 3.91
-3 -20 1 2.34 3.12
-3 -20 -1 -1.32 3.15
3 -20 1 1.81 3.75
3 20 -1 -2.48 4.2
3 20 1 -2.57 3.08
-3 -21 -1 172.51 29.83
3 -21 -1 273.51 26.77
-3 21 1 300.37 30.95
-3 21 -1 336.49 32.45
3 -21 1 210.83 26.53
3 21 1 108.96 19.36
3 -21 1 319.02 31.7
3 21 -1 89.47 19.64
3 -21 -1 286.49 28.42
-3 -21 1 316.45 26.87
-3 -21 -1 268.54 27.04
3 21 1 217.18 32.8
3 21 -1 213.22 32.23
3 -21 1 240.64 29.1
-3 22 -1 16.66 7.73
-3 -22 -1 7.63 8.06
3 -22 1 26.99 8.8
-3 22 1 5.11 5.78
3 22 1 6.48 5.16
3 22 -1 1.53 3.68
3 -22 1 6.91 5.07
3 -22 -1 7.86 5.33
-3 -22 -1 18.41 6.57
-3 -22 1 6.15 3.91
3 -22 1 3.83 5.13
3 22 1 16.69 8.81
3 22 -1 10.8 7.92
-3 23 -1 79.43 16.27
-3 23 1 135.58 20.1
-3 -23 -1 43.75 17.11
3 -23 1 111.58 18.06
3 23 1 61.17 12.93
3 -23 1 121.62 19.09
3 23 -1 17.36 10.35
3 -23 -1 122.3 18.24
-3 -23 -1 78.61 14.66
3 -23 -1 102.75 18.88
3 -23 1 97.57 17.97
3 23 1 134.73 24.61
3 23 -1 97.33 21.96
-3 -23 1 103.67 15.24
3 0 -2 -4.12 8.55
3 0 2 10.87 6.46
-3 0 2 12.32 4.36
-3 0 2 18.28 11.58
-3 0 2 8.3 3.47
3 0 2 7.22 9.16
-3 0 2 7.8 3.35
-3 0 2 11.25 3.62
-3 0 2 12.03 3.46
-3 0 -2 12.57 1.94
3 0 -2 15.78 8.53
-3 0 -2 17.53 4.06
-3 0 2 10.76 3.06
-3 0 2 12.77 3.58
-3 0 2 5.13 5.44
3 0 2 11.98 4.05
-3 0 -2 10.44 3.8
-3 0 2 3.39 7.04
3 0 2 17.6 12.9
3 0 2 19.82 5.77
-3 0 2 8.17 6.51
3 0 2 14.23 10.04
-3 0 2 9.86 3.72
-3 0 2 14.01 3.18
-3 0 -2 17.84 5.51
-3 1 2 4739.75 244.82
-3 1 2 4522.26 243.84
-3 -1 2 4541.36 246.35
3 -1 2 4474.47 246.24
-3 1 2 4262.31 240.19
3 1 2 4375.23 244.26
3 1 2 4310.83 244.29
-3 1 -2 4057.94 240.55
-3 -1 -2 3953.46 242.29
3 1 -2 4406.97 286.81
3 -1 -2 3806.49 279.11
-3 -1 2 3940.73 277.11
-3 1 2 4143.15 279.49
-3 -1 2 4409.68 241.63
-3 -1 2 4300.91 240.81
-3 -1 2 4483.76 242.28
-3 1 2 4336.14 242.8
3 -1 2 4190.42 250.87
3 1 2 3388.53 250.79
-3 -1 2 4595.92 243.2
-3 1 -2 4303.51 237.48
3 -1 2 3331.18 277
-3 -1 2 4496.27 240.15
3 1 2 3424.9 278.42
-3 1 2 4336.98 240.36
-3 1 -2 4503.08 241.43
-3 1 2 4061.67 255.62
-3 -1 2 4107.56 255.53
3 1 -2 4670.18 241.3
3 -1 -2 4164.3 258.97
3 1 -2 4273.8 259.93
-3 1 2 4409.99 240.42
3 -1 2 4250.62 244.17
-3 1 2 3906.3 273.58
-3 -1 2 3630.56 271.33
3 1 2 4226.93 244.33
-3 -1 2 4428.6 241.55
-3 1 -2 4334.02 241.28
-3 1 2 3661.42 252.4
-3 -1 2 3825.85 253.53
3 1 2 3149.22 253.8
3 -1 2 3415.53 255.27
3 1 2 4599.25 246.53
-3 1 2 4408.63 242.29
-3 -1 2 4342.63 241.87
-3 -1 -2 4355.65 244.22
-3 1 2 4443.34 239.46
-3 -1 2 4379.39 238.35
-3 1 -2 4136.81 244.05
3 2 -2 -4.13 6.99
-3 2 -2 10.4 3.78
-3 2 2 -3.63 6.15
-3 -2 2 1.94 2.84
-3 -2 -2 5.13 3.07
3 2 2 3.74 2.54
-3 2 2 7.5 3.46
3 -2 2 8.1 5.27
3 2 2 4.52 3.94
-3 2 2 3.58 2.37
3 2 2 5.05 7.8
3 -2 2 3.4 5.75
-3 -2 -2 2.73 0.92
-3 -2 2 3.08 2.09
-3 -2 -2 4.26 2.7
-3 -2 2 4.36 2.17
-3 -2 2 5.35 2.4
-3 -2 2 2.68 1.82
3 2 -2 2.91 1.93
-3 -2 2 3.28 1.77
-3 2 -2 7.81 2.92
3 -2 -2 5.77 4.61
-3 2 2 5.34 2.09
3 -2 2 2.95 2.93
-3 -2 2 4.98 4.44
-3 2 2 6.6 2.59
-3 -2 2 5.68 2.45
3 2 -2 3.04 2.06
3 2 2 -4.3 8.91
-3 -2 2 1.64 3.93
3 2 2 4.41 3.17
-3 2 2 0.61 2.21
3 -2 2 3.93 6.21
-3 2 2 2.14 1.93
-3 -2 2 2.48 1.49
-3 -2 2 3.34 2
-3 2 -2 5.32 2.85
-3 -2 -2 2.95 2.65
-3 2 2 6.57 5.56
3 -2 -2 1.59 1.51
-3 -3 -2 616.13 45.02
-3 3 2 634.19 41.5
3 -3 2 713 47.28
3 3 2 624.39 41.91
-3 -3 2 685.34 48.39
-3 3 -2 682.28 42.96
-3 3 2 700.68 43.59
3 -3 2 820.81 48.24
-3 -3 -2 565 42.2
3 3 -2 603.43 70.83
-3 3 2 834.25 75.99
-3 -3 2 643.46 42.06
-3 -3 2 723.31 42.73
-3 -3 2 642.44 41.24
-3 -3 2 648.13 42.51
3 -3 2 643.87 46.62
3 3 2 567.82 52.63
-3 -3 2 651.9 40.08
3 3 2 634.66 72.28
-3 3 2 584.01 40.77
3 3 -2 645.09 40.92
-3 -3 2 711.04 54.5
3 -3 -2 566.74 40.95
-3 3 -2 666.49 41.38
3 -3 -2 760.61 58.77
-3 3 2 669.3 40.07
3 -3 2 627.77 43.46
-3 3 2 602.76 64.77
-3 -3 2 635.92 42.45
3 -3 -2 612.41 40.3
-3 -3 2 616.3 52.56
3 -3 2 654.19 55.39
3 3 -2 598.03 42.12
-3 3 2 625.24 42.63
3 3 2 583.53 44.87
-3 3 2 692.46 41.55
-3 -3 -2 636.75 43.91
-3 -3 2 634.46 41.78
-3 3 -2 642.52 41.46
-3 -3 2 585.62 38.01
3 4 -2 4.05 8.41
-3 4 -2 9.87 3.51
-3 -4 2 20.27 9.91
-3 4 2 10.51 8.39
-3 -4 2 14.27 5.52
-3 4 2 15.29 3.9
3 -4 2 8.12 4.05
3 -4 2 14.46 4.91
-3 -4 -2 10.61 3.49
3 4 2 6.09 2.82
3 4 2 9.37 5.95
3 -4 2 12.83 4.52
-3 4 -2 7.12 1.45
-3 -4 2 6.63 2.6
3 4 2 9.01 1.75
-3 -4 2 10.95 3.44
-3 -4 2 6.26 2.63
-3 -4 2 8.81 2.59
-3 -4 -2 12.69 4.36
3 -4 -2 12.03 3.37
3 4 -2 13.74 3.24
-3 4 2 7.48 2.22
-3 4 2 4.97 2.43
-3 -4 2 9.24 2.58
-3 4 -2 10.51 2.95
3 -4 2 6.55 2.79
3 -4 -2 20.38 8
-3 4 2 8.24 5.23
-3 -4 2 12.5 5.93
-3 -4 2 8 2.69
-3 -4 -2 6.82 3.17
-3 4 2 8.78 3.16
-3 4 2 9.37 7.48
-3 -4 2 3.38 4.07
3 4 -2 6.42 2.81
-3 4 2 7.31 2.65
-3 4 2 9.13 5.17
3 4 2 14.83 4.73
-3 -4 2 9.67 5.47
-3 4 -2 10.93 3.1
3 -4 -2 7.95 2.49
-3 -4 2 7.67 1.93
3 4 2 16.11 9.64
3 -4 2 7.36 5.84
-3 -5 -2 36 6.48
-3 5 -2 28.21 6.4
-3 -5 2 52.15 17.1
-3 5 2 40.89 14.24
3 -5 2 36.13 8.27
3 5 2 35.02 5.33
-3 -5 2 42.98 9.54
3 -5 2 49.66 9.21
3 5 -2 39.73 15.87
-3 5 2 54.36 7.25
3 -5 -2 18.65 11.1
3 5 2 38.88 4.42
3 -5 2 34.42 6.35
-3 -5 -2 37.65 7.8
-3 -5 2 32.19 6.01
-3 -5 2 33.26 5.32
-3 -5 2 31.22 5.64
-3 5 -2 32.43 4.19
-3 -5 2 35.5 6.52
-3 -5 2 36.78 5.17
3 5 -2 35.84 5.5
-3 5 2 45.05 6.82
-3 5 2 43.23 5.22
3 -5 2 42.77 7.32
-3 5 -2 37.6 5.78
-3 5 2 30.49 9.21
-3 -5 2 34.6 9.38
3 -5 -2 26.04 5.16
3 -5 2 36.88 10.26
-3 5 2 26.6 8.51
3 5 2 31.9 7.47
-3 -5 2 25.33 8.26
3 -5 2 42.76 16.22
-3 5 -2 31.55 5.61
-3 5 2 39.25 13.64
3 5 -2 36.99 6.48
3 5 2 42.35 16.06
3 5 2 37.15 10.36
-3 -5 2 50.01 16.06
-3 -5 -2 28.95 6.64
-3 -5 2 33.48 5.95
-3 5 2 43.89 6.91
3 -5 -2 38.24 6.14
3 -6 2 11.03 4.4
-3 6 -2 6.38 3.3
-3 -6 2 3.13 5.31
-3 6 2 13.14 7.87
3 6 2 9.52 2.6
3 -6 2 5.56 3.55
-3 -6 -2 9.13 3.39
-3 6 2 8.34 4.06
-3 -6 2 9.95 4.52
-3 6 2 8.41 2.8
-3 -6 2 6.57 4.41
-3 6 -2 5.93 1.99
-3 -6 2 6.51 2.59
3 6 2 10.24 2.47
3 6 -2 7.01 2.74
3 6 -2 12.12 3.63
-3 -6 -2 14.76 4.73
-3 -6 2 12.46 3.98
-3 6 2 10.36 3.32
-3 -6 2 10.79 2.78
3 -6 2 9.25 3.6
3 6 -2 9.98 2.96
-3 6 2 7.71 4.54
-3 -6 2 15.76 6.19
3 -6 -2 7.85 2.64
-3 -6 2 -3.26 0.47
-3 6 2 10.67 3.74
3 6 -2 13.6 3.86
3 6 2 10.09 4.54
-3 6 2 9.94 4.83
-3 -6 2 12.3 5.83
-3 6 -2 8.77 3.08
3 -6 -2 5.74 2.68
3 -6 2 6.68 4.49
3 6 2 12.43 6.02
3 6 2 14.58 9.76
3 -6 2 7.42 6.29
-3 6 2 14.59 9.24
-3 -6 -2 8.19 3.42
-3 -7 -2 327.14 27.69
-3 -7 -2 328.62 30.83
-3 7 2 372.2 33.38
3 -7 2 415.64 33.88
3 7 -2 356.67 28.5
3 7 2 284.05 23.07
-3 -7 2 387.89 36.29
-3 7 2 417.22 27.41
3 -7 2 303.05 31
-3 -7 2 388.26 47.04
-3 7 2 489.68 53.04
-3 7 -2 414.55 32.43
-3 7 -2 382.89 26.09
3 7 -2 400.41 28.3
-3 -7 2 395.23 27.99
3 7 2 361.27 25.7
3 7 -2 384.01 27.64
-3 -7 -2 359.02 30.74
-3 -7 2 410.73 30.48
-3 -7 2 351.09 36.6
-3 -7 2 382.63 26.23
3 7 -2 374.8 26.4
3 -7 2 371.95 49.08
3 7 2 401.81 50.1
-3 7 2 419.16 37.04
-3 -7 2 410.5 35.78
-3 7 2 359.81 28.33
-3 7 2 375.47 45.3
-3 -7 2 412.47 49.31
3 -7 2 352.23 28.82
3 -7 -2 380.43 26.91
-3 -7 -2 366.34 28.94
3 -7 2 391.56 29.81
-3 7 2 368.56 34.24
-3 -7 2 393.37 36.14
3 -7 2 351.15 35.5
3 7 2 384.01 37.47
3 7 -2 362.16 28.56
-3 7 2 389.54 29.82
3 7 2 398.85 32.11
-3 7 -2 378 27.29
3 -7 -2 355.82 28.09
3 8 2 5.22 2.07
-3 8 -2 10.05 5.01
-3 -8 2 8.53 1.62
-3 -8 2 2.84 5.9
-3 8 2 3.02 6.26
3 -8 2 9.58 5.18
-3 8 2 2.65 3.56
-3 -8 -2 13.5 4.22
-3 -8 2 -1.67 4.47
3 -8 2 11.43 5.49
-3 8 2 7.54 2.97
-3 -8 -2 7.15 3.79
3 8 -2 7.65 3.54
3 8 2 8.1 6.86
-3 -8 2 3.48 4.67
-3 8 -2 8.3 3.49
-3 -8 2 4.01 2.79
3 8 2 5.21 2.96
3 8 -2 6.96 3.14
3 8 -2 3.38 2.58
-3 -8 -2 4.24 3.13
-3 -8 2 3.82 3.04
-3 -8 -2 10.29 3.99
-3 8 2 4.65 3.23
3 8 -2 6.66 2.84
-3 8 2 11.33 6.11
-3 -8 2 12.94 6
3 -8 -2 6.5 2.85
3 -8 2 5.98 4.74
3 8 2 14.33 6.61
-3 8 2 5.18 3.28
3 -8 2 6.17 3.52
-3 8 -2 6.33 3.32
3 8 -2 15.74 4.66
3 -8 -2 12.94 4.45
3 8 2 10.15 4.88
-3 8 2 10.47 4.96
3 8 2 9.7 7.74
-3 -8 2 15.31 8.97
-3 -8 2 5.73 4.86
-3 8 2 10.72 8.49
3 -8 2 6.62 6.87
3 9 -2 4047.47 202.72
-3 9 2 3679.71 201.68
3 -9 2 3876.87 200.66
-3 -9 2 3508.89 184.09
-3 9 -2 4244.08 201.87
-3 -9 2 3871.43 208.44
-3 -9 -2 4420.61 195.23
3 -9 2 2750.28 197.05
-3 -9 2 3421.97 217.13
-3 9 2 3929.16 224.57
-3 9 -2 3936.85 192.62
-3 -9 2 3620.72 192.79
3 9 2 3535.55 191.66
3 9 -2 3986.07 193.57
-3 -9 -2 3529.79 197.16
3 9 -2 4108.23 191.16
3 9 -2 4095.52 197.12
-3 -9 2 3777.91 197.54
3 9 2 3264.34 185.32
3 9 2 4928.8 219.5
3 9 -2 4021.08 193.66
3 9 2 2577.59 183.26
3 9 -2 3891.43 191.23
-3 9 2 4045.94 203.11
-3 -9 2 3950.06 201
3 9 2 2398.09 183.16
3 -9 2 4154.02 229.36
3 9 2 4097.82 228.16
-3 9 2 4145.56 223.35
-3 -9 2 3932.89 225.45
3 -9 -2 3890.49 191.37
-3 -9 -2 3759.32 195.64
3 -9 2 3897.5 196.48
-3 9 2 4025.41 201.58
-3 -9 2 4071.94 203.44
3 -9 2 3784.67 202.88
3 9 2 3944.42 204.89
-3 9 -2 3835.35 191.81
3 9 -2 3938.5 196.12
3 9 2 4084.62 201.26
3 -9 -2 3657.4 195.15
-3 10 -2 3.89 4.4
-3 -10 2 2.56 5.32
-3 10 2 -2.74 4.64
-3 10 2 4.52 3.04
-3 -10 2 7.62 6.45
3 -10 2 11.7 6.32
-3 -10 -2 2.41 3.2
-3 -10 2 10.75 2.02
-3 10 2 1.44 4.22
3 10 -2 13.15 6.06
3 10 -2 5.77 3.02
-3 -10 2 7.32 3.65
-3 10 -2 6.25 3.75
3 10 2 4.79 3.83
3 10 -2 2.37 3.15
3 10 -2 7.3 3.38
3 10 -2 9.51 4.74
-3 -10 -2 6.92 3.91
3 10 2 5.22 2.23
-3 -10 2 6.87 4.55
-3 -10 -2 8.78 4.22
3 10 2 4.78 1.9
3 10 -2 5.91 3.25
-3 10 2 6.32 4.29
-3 -10 2 6.89 5.14
3 -10 -2 6.56 3.16
3 -10 2 8.82 7.04
-3 10 2 5.02 4.5
3 -10 -2 7.09 3.84
3 10 -2 12.09 4.83
3 10 2 5.25 3.86
3 -10 2 6.14 3.69
-3 10 2 2.45 2.94
3 10 2 34.02 12.69
-3 -10 2 16.84 9.49
-3 10 2 10.66 5.31
3 -10 2 7.98 4.78
3 10 2 12.69 5.85
-3 -10 2 7.81 4.93
-3 -11 2 1752.89 129.76
-3 11 2 2375.21 117.48
-3 -11 2 2012.11 109.12
-3 11 2 1872.95 124.77
-3 11 -2 2180.9 126.03
-3 -11 -2 1767.47 116.69
3 -11 2 1563.17 123.17
-3 -11 2 1591.96 131.62
-3 11 2 2003.8 138.96
-3 -11 2 1929.95 118.27
-3 11 -2 1965.84 118.23
3 11 2 1530.4 116.12
3 11 -2 2240.48 119.82
3 11 2 1861.52 111.64
3 11 -2 2271.38 115.74
-3 -11 2 1778.97 121.46
3 11 -2 2142.2 123.19
-3 -11 -2 1878.46 122.07
3 11 -2 2248.14 119.34
3 11 2 1624.46 110.49
3 11 -2 2100.94 116.84
-3 11 2 2161.35 123.54
-3 -11 2 1769.52 119.43
-3 11 2 2125.92 137.49
-3 -11 2 2183.97 142.3
3 -11 2 2091.22 141.76
3 11 2 1982.6 139.8
3 -11 -2 1961.03 115.79
3 -11 2 1932.48 120.46
3 -11 2 1945.83 122.56
3 11 2 1955.12 123.46
-3 11 2 2034.96 121.54
-3 -11 2 2027.94 123.2
-3 11 2 2203.3 122.04
3 11 -2 2200.96 122.85
3 11 2 2173.32 126.44
3 -11 -2 1889.84 120.4
-3 -12 -2 0.87 2.07
-3 12 -2 1.44 4.23
-3 -12 2 -2.14 3.61
-3 12 2 0.78 2.09
-3 -12 2 -2.3 4.77
-3 12 2 2.46 5.1
3 -12 -2 1.16 3.09
3 -12 2 1.63 3.9
-3 12 2 1.53 3.17
3 12 -2 0.92 1.56
3 12 -2 1.26 1.99
-3 -12 2 1 2.39
-3 12 -2 0.93 2.49
3 12 2 -1.01 2.97
3 12 2 0.96 1.28
-3 -12 -2 1.29 2.18
-3 12 2 1.11 2.3
3 12 -2 -0.81 2.36
3 12 2 -0.47 1.93
-3 -12 2 -1.01 2.95
3 -12 -2 1.54 1.84
-3 12 2 -2.22 3.75
-3 -12 2 0.67 1.61
3 -12 2 2.62 5.43
3 12 -2 1.24 2.1
-3 12 2 1.06 2.84
-3 -12 2 3.48 2.78
3 -12 -2 -1.22 3.56
3 -12 2 1.19 2.46
3 12 2 1.24 2.1
3 -12 2 1.17 2.43
3 12 2 3.06 4.1
-3 -12 2 -2.53 4.27
3 12 2 -2.49 5.16
-3 13 2 726.39 42.5
-3 13 2 518.19 45.82
3 -13 2 545.01 48.36
-3 13 -2 615.86 47.44
3 -13 -2 545.7 42.83
-3 -13 2 476.69 50
-3 -13 -2 636.44 41.56
-3 13 -2 552.05 52.45
-3 -13 2 412.27 48.49
-3 13 -2 529.18 41.05
-3 -13 -2 556.71 44.72
3 13 2 267.64 36.74
-3 -13 2 451.55 46.75
3 13 2 545.78 36.37
3 13 -2 632.79 38.26
3 13 2 426.2 35.24
3 13 -2 563.75 40.31
-3 13 2 539.53 41.51
-3 13 2 579.42 52.26
-3 -13 2 456.5 39.06
-3 -13 2 549.16 53.62
3 -13 2 578.23 55.05
3 -13 -2 576.92 39.64
3 13 2 592.17 54.48
3 13 -2 631.97 46.73
3 -13 2 542.44 42.15
3 13 2 561.99 43.09
-3 13 2 565.65 41.68
-3 -13 2 538.95 42.06
-3 -13 2 564.54 38.58
3 13 2 661.36 50.24
3 -13 -2 540.49 43.82
3 -13 2 599.67 44.5
-3 -14 -2 2.18 3.68
-3 14 -2 -2.07 4.96
-3 14 -2 4.65 4.55
-3 -14 2 2.3 2.76
-3 -14 -2 1.73 2.93
-3 14 2 4.83 4.3
3 -14 -2 2.44 2.53
-3 -14 -2 5.54 3.13
3 -14 2 1.78 2.14
-3 14 2 2.81 2.51
-3 -14 2 1.91 2.29
3 14 2 1.32 1.59
-3 14 -2 1.06 2.83
3 14 2 2.37 3.48
-3 -14 -2 1.44 2.99
3 14 -2 3.33 2.26
3 14 2 2.06 1.85
3 14 -2 2.93 2.34
3 -14 -2 4.54 2.67
-3 14 -2 6.07 3.2
3 -14 2 7.44 3.93
-3 -14 -2 4.1 3.01
-3 14 2 1.98 4.09
3 14 2 8.62 5.77
3 -14 2 4.23 3.35
3 14 2 3.27 2.61
-3 -14 2 4.87 2.91
-3 14 2 1.86 2.23
-3 -14 2 4.03 2.69
3 -14 -2 7.02 4.75
3 -14 2 4.03 3.21
3 14 -2 4.57 3.65
-3 -14 2 11.13 5.95
3 -14 2 2.33 2.78
3 14 2 3.58 4.28
-3 -15 -2 36.16 11.38
-3 15 -2 25.07 9.36
-3 15 -2 31.81 9.64
-3 -15 2 11.83 8.63
-3 -15 -2 40.07 11.22
3 -15 -2 32.39 8.31
-3 15 2 49.6 8.86
-3 -15 -2 30.66 7.15
-3 15 2 26.15 8.67
3 -15 2 18.42 7.79
-3 -15 2 36.48 10.89
3 15 2 29.36 6.25
3 15 -2 40.9 6.87
-3 15 2 28.89 4.04
-3 -15 -2 21.22 8.06
-3 15 2 36.85 10.46
3 15 2 16.58 5.25
-3 15 -2 35.03 7.42
-3 -15 2 34.92 10.82
-3 -15 -2 28.45 6.9
3 15 -2 34.28 7.95
3 -15 2 32.64 8.56
3 -15 -2 27.47 6.83
3 -15 2 43.56 12.04
-3 -15 2 20.11 5.95
3 15 2 26 9.4
-3 15 2 34.25 7.55
-3 -15 2 20.18 6.12
3 -15 -2 46.4 10.4
3 -15 2 25.8 7.83
3 15 -2 44.93 10.83
3 -15 2 43.58 8.36
3 15 2 31.4 7.34
-3 -16 2 4.9 5.08
-3 -16 -2 3.71 3.84
-3 16 -2 1.62 3.88
-3 16 2 2.35 1.87
-3 -16 -2 1.93 2.31
3 -16 -2 2.53 3.39
-3 16 2 6.62 5.6
3 -16 2 3.76 3.9
-3 -16 2 3.84 3.98
3 16 -2 2.85 2.09
-3 -16 -2 -1.6 3.32
-3 -16 2 3.75 5.01
3 16 2 -0.88 2.36
-3 16 -2 4.42 2.59
3 -16 2 1.4 2.37
3 -16 -2 3.15 2.51
3 16 -2 3.51 2.8
-3 -16 2 5.59 3.7
3 16 2 1.82 2.18
3 -16 -2 6.33 4.23
3 -16 2 4.52 4.03
3 16 -2 5.46 4.36
3 -16 2 4.07 3.45
3 -16 2 1.86 2.23
3 16 2 4.68 2.75
-3 -17 -2 243.73 30.98
3 -17 -2 276.23 26.52
-3 -17 2 234.47 33.95
3 -17 2 401.9 36.52
-3 -17 -2 213.72 27.21
-3 -17 2 222.96 29.31
3 17 -2 278.39 21.73
-3 -17 -2 239.01 28.81
3 -17 2 265.65 30.53
3 17 -2 283.07 26.93
3 17 2 283.66 29.58
3 17 2 79.19 17.56
-3 17 -2 220.6 21.07
3 -17 2 254.53 27.48
-3 -17 2 198.72 26.91
3 -17 -2 226.86 23.81
-3 17 2 202.27 20.2
-3 -17 2 292.25 24.39
3 -17 2 246.58 22.31
3 17 2 279.55 23.24
3 -17 -2 272.04 29.27
3 17 -2 358.34 36.1
3 -17 2 264.22 28.62
3 -18 2 5.74 5.61
3 -18 -2 1.28 3.43
-3 -18 -2 4.33 4.48
-3 -18 2 10.13 7.42
-3 -18 -2 1.8 4.3
3 18 -2 3.78 3.26
-3 -18 2 7.68 6.5
3 18 2 1.04 3.05
3 18 -2 6.83 5.17
3 -18 2 7.68 5.51
3 -18 -2 1.23 2.94
-3 -18 -2 5.06 3.71
-3 -18 2 3.06 4.05
3 -18 -2 3.46 4.62
3 -18 2 11.71 6.63
3 18 -2 4.24 5.08
3 -18 2 1.69 3.51
-3 -19 -2 896.08 78.54
3 -19 2 2015.31 93.44
-3 -19 2 1019.81 84.98
-3 -19 2 947.61 76.53
3 19 2 534.38 62.79
3 -19 -2 734.21 67.18
3 19 -2 950.28 71.55
3 -19 2 1227.25 78.55
-3 -19 2 1388.33 71.73
3 -19 -2 1375.28 81.82
3 19 -2 1283.31 86.36
3 -19 2 1298.88 80
-3 -20 -2 2.37 6.95
-3 20 -2 1.68 7.24
-3 -20 2 -10.34 9.78
3 -20 -2 8.78 5.81
3 -20 2 13.45 7.26
-3 20 2 3.41 5.77
-3 -20 2 11.52 6.89
3 20 2 2.32 3.67
3 20 -2 1.55 5.23
3 -20 2 3.36 4.49
3 -20 -2 -2.7 5.35
3 20 -2 -7.18 6.4
-3 -20 -2 5.58 4.41
-3 -20 2 8.7 5.36
3 -20 -2 -1.84 5.82
3 -20 2 1.81 4.33
-3 -21 2 887.82 77.76
-3 21 2 1021.68 69.27
-3 -21 -2 656.79 69.26
3 -21 2 1404.66 78.42
-3 21 -2 1025.6 69.67
-3 -21 2 795.94 67.04
3 21 2 520.6 56.21
3 21 -2 508.38 59.59
3 -21 2 1011.28 71.26
3 -21 -2 805.12 62.06
-3 -21 -2 856.16 63.72
-3 -21 2 1135.47 63.41
3 -21 -2 1014.6 71.15
3 21 -2 813.83 72.6
3 -21 2 991.45 70.07
-3 22 -2 1.68 5.3
-3 -22 -2 2.54 6.06
-3 -22 2 -2.67 7.14
3 -22 2 1.85 4.93
-3 22 2 3.41 4.99
3 22 2 -1.23 4.16
3 22 -2 3.39 4.06
3 -22 2 1.78 3.7
3 -22 -2 -1.46 3.9
-3 -22 -2 1.5 4.4
3 22 -2 2.61 4.42
-3 -22 2 -1.13 3.02
3 -22 2 3.84 4.59
-3 23 -2 73.35 17.12
-3 -23 -2 64.52 18.26
3 -23 2 149.18 21.43
-3 23 2 84.97 16.95
3 23 2 37.62 12.41
3 -23 2 134.77 20.2
3 -23 -2 104.72 16.29
3 23 -2 52.44 13.92
-3 -23 -2 95.95 16.51
3 -23 2 90.19 17.14
3 23 -2 96.97 21.57
3 0 -3 -4.35 7.35
-3 0 3 3.81 4.56
3 0 3 2.39 4.04
-3 0 3 5.11 2.73
3 0 3 0.8 1.65
3 0 3 4.17 2.63
-3 0 3 2.02 1.97
-3 0 3 -0.75 1.55
-3 0 3 1.54 1.3
3 0 3 3.53 4.71
-3 0 3 2.76 2.19
3 0 -3 -0.62 1.47
3 0 -3 8.37 5.59
-3 0 -3 0.92 0.66
-3 0 3 6.93 4.63
3 0 3 5.28 6.31
-3 0 3 0.52 1.25
-3 0 3 -0.46 1.1
3 0 3 1.6 2.15
3 0 3 0.92 1.1
-3 0 3 2.89 1.56
-3 0 -3 1.17 1.4
-3 0 3 -3.58 4.28
-3 0 3 -0.52 1.52
-3 0 -3 2.31 1.59
-3 0 3 12.28 6.63
3 1 -3 104.68 27.64
3 -1 -3 103.44 26.34
-3 -1 3 128.45 28.38
-3 1 3 114.75 26.44
3 1 3 76.56 17.79
3 -1 3 109.57 12.4
3 1 3 127.77 12.47
-3 1 3 104.16 13.05
3 -1 3 96.39 19.43
-3 1 3 114.5 12.88
3 1 3 75.22 10.88
3 -1 3 101.94 12.73
-3 -1 3 105.09 14.98
-3 1 3 115.8 12.85
-3 -1 3 106.25 11.74
-3 1 3 105.47 9.23
-3 -1 3 85.77 10.79
-3 1 3 116.65 12.65
-3 -1 3 106.02 10.01
3 -1 3 90.89 16.25
-3 -1 3 113.3 12.49
3 1 3 78.15 16.2
-3 1 -3 91.79 8
-3 -1 3 109.74 10.68
-3 1 3 110.34 10.91
-3 -1 -3 91.46 6.83
-3 1 3 97.45 17.02
-3 -1 3 99.27 17.26
3 1 -3 119.33 11.97
3 -1 -3 132.83 21.33
3 1 -3 113.33 19.72
-3 -1 -3 104.94 10.92
-3 1 3 92.84 9.41
3 -1 3 110.89 12.79
-3 -1 3 99.38 10.35
3 1 3 103.36 12.6
3 -1 3 99.55 28.54
3 1 3 73.46 26.44
-3 1 -3 101.19 10.95
-3 1 3 90.42 10.2
-3 1 3 134.41 27.3
-3 -1 3 54.07 18.09
3 1 3 110.9 13.7
-3 1 3 81.68 15.81
-3 -1 3 75.74 15.58
-3 1 -3 86.96 11.75
-3 1 3 109.94 10.75
-3 -1 3 104.86 10.46
-3 -1 3 116.75 9.54
-3 2 3 394.26 30.33
3 2 3 361.37 30.19
3 -2 3 444.8 31.96
3 2 3 519.88 30.85
-3 2 3 445.84 31.54
-3 2 3 394.22 26.16
-3 -2 3 459.63 37.31
3 2 -3 357.07 53.82
-3 2 3 373.25 51.59
-3 -2 3 449.16 28.52
-3 2 3 385.04 30.66
-3 -2 3 454.21 30.72
-3 -2 3 452.71 30.27
-3 -2 3 419.56 30.66
3 -2 3 348.36 35.85
3 2 3 337.7 38.54
3 2 3 319.34 55.35
-3 2 3 399.94 51.27
-3 2 -3 360.72 25.43
-3 -2 3 407.1 28.25
-3 2 3 393.16 28.54
-3 -2 3 425.35 39.57
3 2 -3 409.4 29.54
3 -2 -3 403.55 41.69
-3 2 3 417.48 26.81
-3 -2 -3 400.27 29.01
3 -2 3 385.95 30.72
-3 -2 3 375.53 28.29
3 2 3 400.8 31.44
-3 2 -3 410.31 29.03
3 -2 -3 381.61 26.24
3 2 3 430.24 33.32
3 -2 3 398.05 43.14
-3 -2 3 423.46 28.2
-3 2 3 358.88 28.1
-3 2 -3 356.82 30.53
-3 2 3 480.46 30.1
-3 -2 3 405.55 25.55
-3 -2 3 365.81 38.23
3 3 3 2.21 2.47
3 3 -3 8.65 7.31
-3 3 3 -3.77 6.37
-3 3 3 3.78 2.39
3 -3 3 2.2 4.56
3 3 3 1.48 2.17
-3 3 3 1.4 1.87
-3 -3 3 1.42 2.4
3 -3 3 3.34 3.15
3 3 3 1.98 4.1
-3 3 3 -0.82 1.71
-3 -3 3 0.7 1.67
-3 -3 -3 5.8 3.47
-3 -3 3 2.47 2.09
-3 -3 3 2.91 2.13
-3 -3 3 5.74 2.66
3 -3 3 2.75 3.68
-3 -3 3 3.59 2.27
3 3 -3 1.22 1.63
3 3 3 5 8.45
-3 -3 3 5.12 2.21
-3 3 -3 1.15 1.38
3 -3 -3 -2.01 3.41
-3 -3 3 6.49 4.75
-3 3 3 0.33 1.06
-3 -3 -3 3.05 2.19
3 -3 3 -0.78 0.93
-3 3 3 0.58 1.39
3 3 -3 3.82 1.96
-3 3 3 1.19 1.75
-3 3 3 0.67 1.38
3 3 3 1.93 2.59
-3 3 -3 0.83 1.98
-3 -3 3 1.97 1.14
3 -3 -3 4.85 1.87
-3 3 -3 0.59 1.74
-3 -3 3 1.97 1.67
-3 3 3 3.41 4.08
-3 -3 3 5.24 4.18
3 -4 3 470.87 33.82
-3 4 3 416.4 28.85
3 4 3 503.18 29.89
3 4 3 360.63 30.17
-3 -4 -3 438.58 34.01
-3 -4 3 403.27 38.41
3 4 -3 457.25 59.45
-3 4 3 309.3 28.63
-3 -4 3 385.06 51.1
-3 4 3 499.55 58.17
3 4 3 325.7 24.41
-3 4 3 420.45 32.71
-3 -4 3 471.67 32.26
-3 -4 3 424.36 30
3 4 3 436.66 43.34
-3 -4 3 469.05 31.96
-3 -4 3 449.13 30.95
3 -4 3 436.87 36.13
-3 -4 3 422.02 52.84
-3 4 -3 402.75 28.3
3 4 3 360.21 56.36
-3 -4 3 477.34 29.62
-3 4 3 471.68 41.83
-3 -4 3 445.45 40.05
3 -4 3 401.42 31.34
3 4 -3 413.55 29.97
-3 4 3 421.56 30.07
3 -4 -3 447.27 43.32
3 4 -3 447.76 43.92
-3 4 3 442.91 26.98
-3 -4 -3 410.52 30.04
-3 4 3 422.69 51.88
3 -4 3 529.05 46.86
-3 4 3 480.4 32.66
3 4 -3 413.29 29.21
-3 4 3 425.48 30.29
-3 4 -3 411.27 32.36
3 4 3 431.26 33.83
-3 -4 3 423.4 25.03
-3 4 3 390.15 38.49
-3 -4 3 404.77 39.52
3 -4 -3 384.65 27.97
-3 4 -3 403.02 29.51
-3 -4 3 446.39 29.23
3 -5 3 0.93 2.49
-3 -5 3 3.35 3.46
3 5 -3 4.2 0.04
3 -5 -3 -3.98 0.04
3 5 3 1.85 1.56
-3 5 -3 0.76 1.57
-3 -5 3 3.42 5.78
-3 5 3 7.22 7.48
-3 5 3 1.17 1.32
-3 5 3 1.25 1.49
3 -5 3 3.39 2.7
-3 -5 -3 0.69 1.44
3 -5 3 1.03 2.47
3 5 3 6.15 5.48
-3 5 -3 0.4 0.71
-3 -5 3 2.24 1.79
3 5 3 0.95 1.07
-3 -5 3 2.1 2.05
-3 -5 -3 1.03 1.74
-3 -5 3 0.76 1.81
-3 5 3 0.66 1.11
3 -5 3 -4.57 7.72
3 5 3 -4.57 5.46
-3 5 -3 -0.6 1.01
-3 -5 3 1 1.2
3 -5 -3 1.92 2.3
3 5 -3 -2.02 2.41
-3 -5 3 -1.52 2.57
-3 5 3 1.78 1.06
3 5 -3 1.84 1.47
3 -5 3 2.41 1.66
-3 5 3 1.62 1.93
-3 -5 -3 2.77 2.03
3 5 3 6.46 4.46
-3 5 3 -0.83 1.98
3 5 -3 0.59 1.22
-3 5 -3 -0.89 1.84
3 5 3 -1.03 2.14
-3 -5 3 0.35 0.66
3 -5 -3 0.55 0.92
-3 5 -3 1.84 1.8
-3 -5 3 -3.53 0.04
3 -5 3 2.01 2.4
-3 5 3 1.59 2.69
-3 -5 3 1.69 2.85
-3 5 3 3.24 3.87
3 6 -3 135.54 29.46
3 -6 -3 73.32 21.21
-3 -6 3 68.16 14.58
3 6 -3 91.64 13.3
-3 -6 3 88.95 22.12
-3 6 3 73.68 21.13
-3 6 3 92.92 8.02
3 -6 3 97.1 13.24
-3 6 -3 110.79 13
-3 6 3 107.83 11.01
3 6 3 98.44 9.38
3 -6 3 95.46 14.79
-3 -6 -3 85.79 10.95
3 6 -3 80.73 10.06
3 6 3 72.5 8.89
-3 -6 3 84.57 10.74
-3 6 -3 90.69 8.03
-3 -6 -3 72.32 11.85
-3 -6 3 86.85 11.8
3 -6 3 91.91 12.17
-3 -6 3 88.8 9.68
-3 6 3 91.24 16.04
3 6 -3 79.43 10.09
-3 6 3 91.51 11.23
3 -6 3 103.69 27.28
3 -6 -3 121.15 19.15
3 -6 3 80.38 11.18
-3 -6 -3 97.51 11.55
-3 -6 3 81 14.57
3 6 -3 96.54 17.99
3 -6 -3 95.39 9.82
3 6 3 116.62 29.17
-3 -6 3 88.47 15.58
3 -6 3 73.7 15.76
3 6 3 116.36 19.83
3 6 -3 91.66 10.55
-3 6 -3 99.78 12.86
-3 -6 3 83.21 21.3
3 6 3 108.65 14.36
-3 6 3 96.46 12.92
-3 6 3 79.54 14.42
3 -6 -3 101.29 11.15
-3 6 3 84.27 21.02
-3 -6 3 86.36 6.91
3 7 -3 321.19 25.92
3 7 3 362.31 23.3
3 7 -3 310.45 29.99
3 -7 3 327.92 28.96
-3 -7 3 310.36 35.61
-3 7 3 340.73 24.79
3 7 -3 396.21 52.66
3 -7 -3 347.63 48.79
-3 7 -3 345.77 28.73
-3 -7 3 240.41 39.23
-3 7 3 342.48 46.52
3 -7 3 461.14 35.66
3 7 3 278.35 24.23
3 7 -3 346.67 26.88
-3 -7 3 361.54 26.78
-3 7 -3 325.96 22.51
-3 -7 -3 282.58 28.3
3 7 -3 346.42 26.21
-3 -7 3 357.91 29.07
3 -7 3 357.69 26.33
-3 -7 3 354.6 24.88
3 -7 3 338.13 49.58
3 7 3 320.03 49.58
3 7 -3 317.05 25.36
-3 7 3 317.82 33.05
-3 -7 3 291.48 30.75
-3 7 3 321.43 26.68
-3 -7 -3 329.19 26.82
3 -7 -3 330.24 35.15
3 7 -3 297.47 34.68
3 -7 3 336.46 27.54
3 -7 -3 302.06 23.59
-3 7 3 397.89 46.28
-3 -7 3 313.54 44.14
-3 7 3 352.27 33.31
-3 -7 3 316.16 33
3 7 3 386.63 38.37
3 -7 3 347.39 35.72
-3 7 -3 314.01 27.97
3 7 -3 321.03 25.46
3 7 3 337.77 30.03
3 -7 -3 308.59 25.68
3 8 -3 203.44 23.18
3 -8 3 229.39 22.36
3 8 3 219.71 15.83
-3 8 -3 243.33 22.64
-3 -8 3 234.01 29.33
-3 -8 -3 202.47 18.74
3 -8 3 115.08 19.76
-3 8 3 220.46 17.62
3 8 -3 241.27 39.72
3 -8 -3 259.61 39.94
-3 -8 3 203.29 32.98
-3 8 3 225.3 36.06
3 8 3 150.63 17.44
-3 -8 3 222.54 19.52
-3 8 -3 201.71 16.14
-3 -8 -3 191.34 21.43
3 8 -3 187.68 18.51
3 8 -3 197.33 18.44
3 8 -3 217.47 19.97
3 -8 3 208.11 16.85
3 8 -3 207.93 19.39
-3 -8 3 230.34 18.09
3 -8 3 221.63 37.98
3 8 -3 220.4 19.03
-3 8 3 219.34 25
-3 -8 3 218.34 23.82
-3 8 3 219.93 20.42
3 -8 -3 247.61 28.07
3 8 -3 202.57 26.92
3 -8 3 207.76 20.29
3 -8 -3 207.93 17.16
-3 -8 -3 192.36 19.25
-3 8 3 237.75 34.24
-3 -8 3 222.62 35.07
3 8 3 193.05 36.26
-3 8 3 243.88 25.61
-3 -8 3 216.94 25.19
3 8 3 258.22 29.08
3 -8 3 212.44 26.44
-3 8 -3 218.31 21.63
3 8 -3 222.05 19.35
3 8 3 208.02 22.52
3 -8 -3 162.78 18.31
3 9 -3 131.39 28.02
3 -9 -3 66.12 20.44
3 9 -3 119.96 17.01
-3 -9 3 91.04 7.51
-3 9 -3 146.41 16.47
3 9 3 112.42 9.02
-3 9 3 140.94 12.01
-3 -9 3 117.87 20.3
3 -9 3 72.02 14.05
3 9 3 80.29 11.46
-3 -9 3 124.89 13.22
-3 9 -3 100.44 10.22
3 9 -3 106.04 12.24
3 -9 3 88.31 7.87
3 9 -3 118.68 12.3
3 9 -3 117.59 13.61
3 9 -3 121.32 13.15
3 9 3 54.51 5.66
3 -9 3 93.02 22.66
3 9 3 49.87 5.27
3 9 -3 107.3 11.83
-3 9 3 91.63 15.31
-3 -9 3 112.53 15.66
3 -9 -3 141.05 19.55
3 9 -3 100.31 17.43
3 -9 3 101.16 12.91
3 -9 -3 97.77 10.06
-3 -9 -3 105.11 12.8
3 -9 3 100.4 13.11
-3 9 3 88.73 14.72
-3 -9 3 126.43 17.62
3 9 3 114.97 18.08
3 -9 3 114.14 17.5
3 9 3 130.59 27.05
-3 9 -3 96.2 13.48
-3 9 3 122.51 23.72
-3 -9 3 139.42 26.35
3 9 -3 134.83 13.55
3 9 3 113.41 15.49
3 -9 -3 98.33 12.6
3 10 -3 7.22 6.12
3 -10 -3 13.37 8.95
-3 -10 3 13.6 2.51
-3 10 -3 19.29 6.94
-3 10 3 13.84 2.41
3 10 3 11.21 2.65
-3 -10 3 13.24 7.48
-3 -10 -3 8.82 3.45
-3 10 3 9.59 4.66
3 -10 3 4.95 4.45
3 10 -3 18.82 4.79
3 10 3 5.06 1.42
3 10 3 9.74 4.07
-3 -10 3 10.18 4.09
-3 10 -3 18.14 4.4
3 10 -3 14.7 4.89
3 10 -3 9.82 3.89
3 10 -3 21.24 5.18
3 -10 3 14.18 4.87
3 -10 -3 12.95 5.83
3 10 3 8.03 1.79
3 10 -3 8.63 4.64
3 -10 -3 9.34 3.09
3 -10 3 4.42 3.98
3 10 3 11.2 6.07
-3 10 3 16.03 6.15
-3 -10 3 13.83 3.77
-3 10 3 5.23 4.18
3 10 3 13.09 8.77
-3 -10 3 18.58 6.64
3 -10 -3 14.75 4.91
3 10 -3 16.13 4.82
3 10 3 10.93 4.93
-3 -10 3 9.16 8.18
3 -10 3 15.85 5.24
-3 10 3 18.66 9.03
3 -10 3 10.04 8.02
-3 -11 -3 30.5 8.44
-3 11 -3 25.85 7.69
-3 11 3 26.55 3.88
-3 -11 3 23.85 3.61
-3 11 3 21.51 7.2
-3 -11 -3 32.42 6.38
-3 -11 3 36.36 11.61
3 -11 3 10.57 5.74
3 -11 -3 22.31 10.87
3 11 -3 31.49 6.46
3 11 3 13.9 5.59
-3 -11 3 20.07 6.13
-3 11 -3 22.21 5.39
3 11 3 23.48 3.38
3 11 -3 37.62 8.43
3 11 -3 29.03 6.36
3 -11 3 44.14 8.65
3 -11 -3 31.65 5.72
3 11 3 18.52 3.18
3 11 3 31.44 9.23
-3 11 3 26.24 7.59
-3 -11 3 31.24 8.23
3 -11 -3 24.13 6.73
3 11 -3 28.07 6.81
3 11 3 38.27 9.73
3 -11 3 30.44 8.22
3 -11 3 22.64 6.49
3 11 3 45.43 14.99
-3 -11 3 26.3 11.13
-3 11 3 22.85 10.16
3 -11 3 24.94 11.27
-3 -11 3 40.74 6.33
-3 12 3 177.25 22.39
-3 12 3 209.07 14.99
-3 -12 -3 156.57 21.89
-3 -12 3 209.56 14
-3 12 -3 214.23 23.29
3 -12 3 176.08 25.08
-3 -12 -3 189.64 18.1
-3 -12 3 188.59 27.88
-3 -12 3 151.35 18.69
-3 12 -3 180.85 18.38
3 12 3 97.74 17.3
3 12 3 134.05 12.86
3 12 -3 227.71 19.39
3 12 -3 209.15 22.58
-3 -12 3 166.65 24.19
3 12 -3 216.84 20.15
3 -12 3 237.91 33.79
3 12 3 207.26 31.5
3 12 3 174.43 13.63
-3 12 3 229.05 30.57
-3 -12 3 227.59 32.45
3 -12 3 192.72 20.69
3 -12 -3 191.05 17.07
3 -12 3 206.39 21.83
-3 12 3 168.18 20.24
-3 -12 3 168.39 20.75
3 -12 3 156.43 20.32
3 12 3 190.85 22.55
3 12 -3 174.72 19.95
3 12 3 202.73 24.44
3 -12 -3 163.77 20.2
-3 13 -3 34.69 8.98
-3 -13 -3 27.34 8.34
3 13 3 27.62 4.1
-3 13 3 40.87 5.88
-3 -13 3 34.31 4.88
-3 -13 -3 37.88 6.99
-3 -13 3 60.28 15.35
-3 13 3 38.49 10.06
3 -13 3 38.4 11.14
-3 -13 3 24.45 8.88
3 13 3 24.27 4.61
-3 -13 3 28.06 7.61
3 13 3 12.27 6.46
-3 13 -3 32.85 7.48
3 13 -3 40.83 7.52
3 13 3 29.86 4.83
3 13 -3 40.62 8.24
3 -13 -3 38.36 6.88
3 -13 3 22.93 6.84
3 13 3 27.18 7.78
3 -13 -3 38.23 9.39
3 13 3 28.88 9.25
3 -13 3 33.83 8.41
3 13 -3 45.18 9.65
-3 13 3 52.49 13.48
-3 -13 3 31.44 11.85
-3 13 3 24.39 7.1
3 -13 3 29.74 11.33
-3 -13 3 34.98 8.59
-3 -13 3 40.78 6.99
3 13 3 54.38 14.95
-3 14 3 118.95 18.92
-3 14 3 166.47 14.11
-3 -14 3 154.02 12.29
3 14 3 131.62 11.22
-3 -14 -3 124.61 19.62
-3 -14 -3 140.86 15.19
-3 14 -3 141.8 20.1
3 -14 3 123.41 21.8
-3 -14 3 122.86 23.77
-3 -14 3 123.3 17.45
-3 14 -3 122.89 16.07
3 14 3 113.66 12.36
3 14 3 110.21 17.6
3 14 -3 149.57 15.97
-3 -14 3 116.18 20.22
3 14 -3 136.04 17.14
3 14 3 123.84 12.29
-3 14 3 139.79 22.92
3 -14 3 148.59 25.04
-3 -14 3 171.72 26.48
3 14 3 141.66 24.49
3 -14 -3 145.27 15.13
3 -14 3 165.58 20.25
3 -14 3 127.59 16.9
3 14 3 137.29 17.52
-3 14 3 112.85 15.65
-3 -14 3 149.28 18.02
-3 -14 3 195.1 16.71
3 14 -3 160.09 19.99
3 14 3 153.72 22.17
3 -14 -3 144.96 19.6
-3 -15 3 52.38 16.14
-3 15 -3 62.48 13.38
-3 -15 -3 48.72 12.67
3 15 3 61.66 6.63
-3 15 3 52.02 12.15
3 -15 3 51.11 14.03
-3 -15 3 53.71 13.41
3 15 -3 65.36 10.33
-3 15 3 57.5 12.22
3 15 -3 68.38 12.14
3 15 3 59.97 8.13
3 -15 -3 79.14 10.94
-3 -15 3 52.52 10.08
3 15 3 61.78 10.95
-3 15 3 58.68 10.09
3 -15 -3 52.91 12.11
3 -15 3 78.69 13.59
3 -15 3 62.57 10.78
-3 15 3 66.78 14.91
3 -15 3 56.54 14.76
3 15 3 77.73 16.51
-3 -15 3 73.3 17
-3 -15 3 80.46 10.56
3 15 -3 92.16 15.08
3 15 3 56.71 13.66
-3 16 -3 36.96 10.81
-3 -16 3 38.38 14.24
3 16 3 44.1 5.51
-3 -16 -3 38.02 11.85
3 -16 3 72.76 15.52
-3 -16 3 63.73 14.45
3 16 -3 49.23 8.96
3 16 3 35.01 6.87
3 16 -3 46.69 10.24
3 -16 -3 38.39 7.99
-3 -16 3 29.86 11.39
-3 -16 3 59.37 9.35
3 -16 3 53.41 9.49
3 -16 -3 45.88 11.53
3 16 3 48.89 9.39
-3 16 3 47.36 8.86
3 -16 3 60.27 12.23
3 16 3 26.66 10.41
3 16 3 71.17 15.83
3 16 -3 63.78 13.09
3 -16 3 52.76 13.63
3 17 3 326.49 23.35
-3 -17 -3 375.69 39.46
-3 -17 3 382.15 45.01
-3 -17 -3 323.25 37.66
3 17 -3 365.36 30.41
-3 -17 3 319.96 37.52
3 17 -3 368.49 34.72
3 -17 -3 329.04 29.96
-3 -17 3 385.61 39.69
3 17 3 303.01 27.11
-3 17 -3 329 29.29
3 -17 3 338.2 38.47
3 17 3 363.97 38.11
3 -17 3 464.86 39.28
3 -17 3 352.9 29.98
3 17 3 303.27 28.97
-3 17 3 358.86 29.52
-3 -17 3 518.02 32.97
3 -17 -3 439.84 39.27
3 17 3 491.36 45.93
3 17 -3 443.73 40.51
3 18 3 124.44 11.83
-3 -18 3 197.27 31.46
3 -18 3 280.91 32.46
-3 -18 -3 179.12 26.74
-3 -18 3 145.44 23.63
3 18 -3 210.2 24.06
3 -18 -3 152.04 18.38
3 -18 3 197.64 25.34
3 -18 3 230.99 26.26
-3 -18 3 241.23 20.63
3 -18 -3 195.25 25.45
3 18 3 213.7 29.6
3 18 -3 196.56 26.67
3 -18 3 153.8 16.85
3 18 3 157.94 17.25
-3 -19 -3 86.33 18.89
-3 -19 3 115.13 24.87
3 -19 3 143.81 22.95
-3 -19 3 92.63 17.95
3 19 -3 110.98 17.84
3 -19 3 136.03 19.91
3 -19 -3 76.51 12.92
-3 -19 -3 95.79 15.82
3 -19 -3 117.13 19.35
3 -19 3 102.1 17.96
3 19 3 141.2 24.05
3 -19 3 102.49 17.72
-3 -19 3 168.75 16.82
3 19 -3 89.46 18.42
3 19 3 109.17 13.02
-3 -20 3 5.43 5.62
-3 20 -3 1.71 5.77
-3 20 3 1.75 4.68
3 -20 3 -4.17 4.99
-3 -20 -3 2.31 6.78
-3 -20 3 -1.92 4.6
3 20 -3 1.67 3.47
3 -20 3 -1.72 2.92
3 -20 -3 3.64 3.24
-3 -20 -3 1.47 4.32
3 -20 -3 -3.75 4.48
3 -20 3 5.49 5.36
3 20 3 2.6 5.38
3 20 -3 2.25 4.67
3 -20 3 1.49 3.56
-3 -21 -3 101.18 21.62
-3 21 -3 152.21 22.82
-3 21 3 114.06 20.13
3 -21 3 223 27.93
-3 -21 3 108.9 20.36
3 21 3 106.64 16.76
3 -21 3 179.9 23.59
3 -21 -3 89.11 14.84
3 21 -3 84.29 17.57
3 -21 3 192.56 24.59
3 21 3 127.38 25.14
3 21 -3 120.94 22.05
-3 -21 -3 110.58 18
3 -21 -3 173.97 24.13
-3 -22 -3 14.97 9.06
-3 22 -3 39.63 10.8
-3 22 3 36.8 10.36
3 -22 3 30.49 10.12
-3 -22 3 24.68 9.47
3 22 3 19.85 7.13
3 22 -3 10.96 6.34
3 -22 3 58.49 12.82
3 -22 -3 31.74 8.19
-3 -22 -3 20.68 7.97
3 22 3 47.75 14.71
3 -22 -3 41.49 12.13
3 -22 3 44.58 12.13
3 22 -3 17.31 10.34
3 0 4 10.94 3.76
3 0 -4 4.85 5.81
3 0 4 6.88 3.27
-3 0 4 6.94 3.76
-3 0 4 8.1 3.51
-3 0 4 5.53 2.85
-3 0 -4 3.94 0.97
3 0 4 18.41 8.48
-3 0 4 5.13 2.91
-3 0 4 4.98 1.97
3 0 -4 4.53 2.73
3 0 -4 13.9 7.33
-3 0 4 9.82 3.13
-3 0 -4 9.18 2.83
-3 0 -4 7.42 1.91
-3 0 4 7.79 2.45
3 0 4 4.31 2.54
3 0 4 5.89 3.53
-3 0 4 6.24 2.28
-3 0 -4 7.19 3.32
-3 0 4 11.65 6.15
-3 0 4 3.9 4.68
3 1 -4 102.06 28.85
3 -1 -4 139.64 32.92
3 1 4 129.04 14.67
3 -1 4 168.18 15.52
3 1 4 163.78 14.75
3 -1 4 158.94 16.69
-3 -1 4 127.35 17.6
-3 1 4 144.06 15.24
-3 -1 4 156.34 15.72
-3 1 -4 111.83 9.54
-3 -1 4 163.64 15.62
-3 1 4 148.27 15.6
-3 1 4 173.24 10.88
3 -1 4 138.53 22.32
3 1 4 171.27 24.59
-3 -1 4 149.43 15.71
-3 1 4 139.57 15.52
-3 1 -4 122.9 10.74
-3 -1 4 146.64 13.82
-3 1 4 139.16 13.81
-3 -1 -4 129.78 10.11
3 1 -4 161.93 15.76
3 -1 -4 164.77 15.72
3 -1 -4 142.45 23.7
3 1 -4 143.87 23.59
-3 1 -4 152.24 13.23
-3 -1 -4 146.1 13.35
-3 1 4 136.96 11.59
3 -1 4 135.03 15.22
-3 -1 4 137.88 12.48
3 1 4 126.56 14.92
-3 1 4 100.19 18.79
3 1 4 125.85 15.76
-3 1 4 127.34 28.68
-3 1 4 124.63 12.18
-3 1 4 132.35 12.28
-3 1 -4 120.05 14.24
-3 -1 4 114.83 19.93
-3 -1 4 125.97 11.7
-3 -1 -4 135.96 14.94
-3 -1 4 172.75 32.02
3 -2 4 12.97 4.49
3 2 4 17.74 4.47
3 2 -4 4.83 10.02
3 -2 4 5.83 3.88
3 2 4 10.75 4.13
-3 -2 4 2.76 3.72
-3 2 4 12.47 4.28
3 2 4 8.46 8.77
-3 -2 4 8.9 3.65
-3 -2 4 7.48 3.13
-3 2 4 8.89 1.76
3 -2 4 13.28 8.19
-3 2 4 3.46 2.58
-3 -2 4 10.16 3.95
-3 -2 4 9.53 2.94
3 2 4 11.39 4.21
3 2 -4 12.74 4.13
-3 -2 -4 8.47 1.78
3 -2 -4 18.15 8.15
-3 2 -4 11.03 2.71
-3 -2 4 10.44 3.4
-3 2 -4 11.45 3.21
-3 -2 -4 6.39 2.9
-3 2 4 6.17 1.92
-3 2 4 9.63 3.38
3 -2 4 7.62 3.39
-3 2 4 5.78 2.72
-3 -2 4 9.71 6.58
3 2 4 10.11 4.21
-3 2 4 6.13 2.33
-3 2 -4 7.43 3.59
3 -2 -4 8.36 2.18
-3 -2 -4 11.94 4.06
-3 2 4 3.8 6.44
-3 -2 4 8.69 2.56
3 -3 4 1771.39 94.01
3 3 4 1820.8 90.92
-3 3 4 1534.21 91.7
3 -3 4 1599.17 96.32
3 3 4 1474.14 91.38
3 3 -4 1427.27 130.94
-3 -3 4 1418.4 100.41
-3 -3 4 1585.94 93.02
-3 -3 4 1573.54 91.91
3 3 4 1958.47 113.59
-3 3 4 1568.9 94.13
-3 -3 4 1584.17 93.24
-3 3 4 1459.89 83.99
3 -3 4 1414.87 102.74
-3 3 -4 1402.63 87.06
-3 -3 4 1639.41 90.63
-3 3 4 1519.88 90.47
3 3 -4 1615.05 92.19
-3 3 4 1480.5 122.53
3 -3 -4 1444.38 107.64
-3 3 -4 1628.59 89.52
-3 3 4 1489.76 85.62
-3 -3 -4 1399.38 89.12
3 -3 4 1460.24 92.41
-3 3 4 1349.6 88.19
3 3 4 1511.98 95.19
-3 3 4 1432.43 90.51
-3 3 -4 1415.29 92.24
-3 -3 4 1295.39 102.33
-3 -3 -4 1435.29 92
3 -3 -4 1400.33 86.45
-3 -3 4 1488.92 87.67
3 4 -4 14.17 11.32
3 -4 -4 13.69 10.94
3 4 4 18.31 5.32
-3 4 4 7.91 3.63
3 4 4 13.96 4.71
-3 -4 4 11.89 7.36
3 4 -4 13.68 4.82
3 -4 4 17.76 6.36
-3 4 4 8.78 4.28
-3 -4 4 16.35 5.3
-3 -4 4 13.83 5.01
-3 4 4 10.82 2.14
3 -4 4 4.99 10.55
3 4 4 4.26 11.41
3 -4 -4 28.59 10.54
3 4 -4 15.92 8.63
-3 4 -4 15.1 4.23
-3 -4 4 15.41 4.3
-3 -4 -4 18.42 4.8
3 -4 4 13.74 5.09
-3 4 4 13.71 4.4
-3 4 4 18.25 3.01
3 4 -4 20.19 5.12
-3 4 4 15.43 4.02
-3 4 4 14.75 4.88
3 4 4 17 6.14
-3 4 -4 25.51 6.53
3 -4 -4 13.54 3.42
-3 4 4 21.94 8.78
-3 -4 4 5.7 6.86
-3 4 4 25.43 14.43
-3 -4 4 11.62 9.29
-3 -4 -4 19.14 5.68
3 5 -4 4203.36 249.76
3 -5 4 4576.72 248.57
3 5 4 4026.44 245.34
3 5 4 5143.82 244.57
-3 5 4 4915.26 246.21
-3 -5 4 4579.59 261.45
3 5 -4 4471.87 294.99
3 -5 -4 3952.1 286.67
-3 -5 4 4715.75 248.35
-3 -5 -4 3983.39 239.07
-3 -5 4 4667.08 249.16
-3 5 4 4191.15 249.63
3 -5 4 5644.98 262.03
3 5 4 5567.97 271.61
-3 5 -4 4020.02 243.02
-3 -5 4 4894.08 245.39
-3 5 4 4531.51 282.48
3 5 -4 4525.23 246.64
-3 -5 4 3527.13 275.44
-3 5 4 4284.42 245.94
3 -5 -4 4241.45 263.22
3 5 -4 3922.41 262.58
3 -5 4 4185.46 247.34
-3 -5 -4 4196.62 244.76
-3 -5 -4 4386.5 248.22
3 5 4 4319.49 269.75
-3 5 4 4172.63 244.44
3 5 -4 4283.94 242.61
-3 5 -4 4194.9 247.95
3 5 4 4219.11 250.25
-3 5 4 4062.44 258.17
-3 -5 4 3452.74 255.79
3 -5 -4 4219.73 243.13
3 6 -4 4.51 7.74
3 -6 -4 30.08 14.59
3 6 4 26.79 5.54
3 -6 4 26.93 11.46
3 6 4 21.94 11.37
-3 6 4 18.91 4.95
-3 -6 4 21.63 9.5
3 -6 4 26.57 7.23
3 6 -4 18.11 6.59
-3 6 4 28.38 7.27
3 6 -4 20.03 5.9
-3 -6 -4 23.53 3.14
-3 -6 4 23.29 5.87
3 6 -4 31.17 5.56
3 -6 4 42.83 11.39
-3 6 4 20.69 5.81
3 6 4 31.12 17.59
3 -6 -4 14.58 7.99
3 6 -4 19.53 9.45
-3 6 -4 30.51 6.06
-3 -6 4 34.58 6.13
3 -6 4 18.99 5.98
-3 -6 -4 21.94 5.45
3 6 -4 29.37 6.34
-3 6 4 39.7 8.34
3 6 -4 27.5 5.27
-3 6 -4 21.89 6.58
3 6 4 28.77 7.9
3 -6 -4 31.01 5.98
-3 6 4 36.27 10.21
-3 -6 4 29.17 9.84
-3 6 4 30.76 13.62
-3 -6 4 11.23 10.1
3 7 -4 1222.28 75.99
3 7 4 1383.68 66.09
-3 7 4 1076.7 65.27
3 -7 4 1051.47 75.42
3 7 -4 1064.34 66.16
-3 -7 4 1245.36 85.2
3 7 -4 1323.15 110.12
3 -7 -4 1130.21 102.82
-3 -7 4 1144.93 68.83
-3 7 -4 1053.4 62.22
3 -7 4 1721.3 79.85
3 7 -4 1309.92 70.21
-3 7 4 1225.92 73.7
3 7 4 784.05 58.54
-3 7 -4 1106.54 67.37
-3 -7 4 1299.12 67.59
-3 7 4 1291.84 98.91
-3 -7 4 1175.87 98.66
3 7 -4 1191.28 68.81
3 -7 -4 1197.74 83.69
3 7 -4 1072.02 82.14
-3 -7 -4 1122.49 67.64
3 -7 4 1277.28 113.99
3 -7 4 1101.45 69.54
3 7 4 1460.54 121.07
3 7 4 1380.92 89.96
3 -7 4 1364.64 88.43
-3 7 -4 1141.37 70.91
3 7 -4 1018.71 64.6
-3 7 4 1290.74 73.03
3 7 4 1156.99 73.45
-3 7 4 1141.72 78.57
-3 -7 4 1073.26 78.54
3 -7 -4 1100.29 67.47
-3 -8 4 6.58 5.25
3 8 -4 -4.24 5.07
3 -8 -4 4 6.77
3 8 4 6.36 5.07
3 -8 4 1.94 4.63
-3 8 4 5.07 2.43
3 -8 4 4.79 3.82
3 8 -4 1.51 2.55
3 8 -4 5.97 3.23
-3 8 4 7.43 4.69
-3 -8 4 6.06 2.93
-3 8 -4 2.63 1.75
3 8 -4 5.54 2.85
3 -8 4 5.63 3.73
3 -8 -4 5.32 2.13
3 -8 4 9.01 9.33
-3 -8 4 5.13 2.66
-3 8 -4 1.73 2.08
3 -8 -4 1.93 4.01
3 8 -4 8.14 5.96
3 8 4 1.24 0.92
3 8 4 22.46 13.16
3 -8 4 1.93 2.01
3 8 -4 3.35 2.46
-3 -8 -4 2.43 2.17
-3 8 4 5.44 3.68
3 8 -4 5.03 2.26
3 -8 -4 3.49 2.56
3 8 4 8.84 4.53
-3 8 4 11.22 5.42
-3 8 4 3.18 3.81
-3 -8 4 7.1 6.01
-3 -8 4 6.79 4.54
3 9 -4 175.91 34.71
3 -9 -4 153.97 32.15
-3 9 4 176.91 14.98
-3 -9 -4 149.79 19.55
3 9 -4 188.11 23.56
3 -9 4 141.63 21.54
-3 -9 4 160.74 26.24
-3 -9 4 168.04 17.85
-3 9 -4 157.01 14.47
3 9 -4 192.39 18.47
3 9 -4 176.16 18.11
-3 9 4 225.55 18.87
3 -9 4 229.54 18.38
3 9 4 253.67 41.67
-3 9 4 184 30.45
-3 -9 4 185.26 16.72
-3 9 -4 161.64 18.37
3 9 4 123.46 10.73
3 9 -4 183.31 18.17
3 -9 -4 165.55 23.87
3 9 -4 170.68 24.44
-3 -9 -4 198.3 18.59
3 -9 -4 172.31 14.2
3 -9 4 192.78 36.55
3 -9 4 175.78 18.88
3 9 4 176.57 25.47
3 -9 4 155.71 22.92
-3 -9 4 127.31 27.52
-3 9 4 212.5 21.87
3 9 -4 166.94 16.07
3 9 4 181.7 21.22
3 -9 -4 156.31 17.68
-3 9 4 148.31 20.85
-3 -9 4 172.25 22.78
3 10 -4 11.78 9.4
3 -10 -4 14.77 8.84
-3 -10 4 6.97 2.25
-3 -10 4 16.48 7.98
3 -10 4 6.75 4.53
-3 10 4 2.56 1.79
-3 -10 -4 11.29 5.08
3 10 -4 10.19 4.17
-3 -10 4 5.61 3.19
-3 10 -4 11.3 3.55
3 10 -4 18.75 5.45
-3 10 4 11.34 4.32
3 -10 4 11.41 3.25
3 -10 4 7.78 8.07
3 10 4 7.7 7.99
-3 10 -4 10.05 5.01
3 -10 -4 7.15 4.8
3 10 -4 9.42 5.54
3 10 4 9.28 1.9
3 10 -4 6.5 3.36
3 -10 4 10.73 4.47
3 -10 -4 13.92 3.34
3 10 4 12.94 7
-3 -10 4 7.27 1.56
3 -10 -4 6.57 3.49
3 10 -4 10.88 3.86
-3 -10 4 19.95 10.53
3 10 4 17.04 6.14
-3 10 4 8.83 7.05
-3 10 4 4.37 3.92
-3 -10 4 10.97 5.64
3 11 -4 26.36 12.78
3 -11 -4 17.66 10.4
-3 -11 4 20.05 3.64
-3 11 -4 29.47 8.03
-3 -11 4 24.06 10.02
-3 -11 -4 20.86 7.2
3 11 -4 36.21 7.55
3 11 4 16.19 7.07
-3 -11 4 13.7 5.47
-3 11 -4 30.97 6.26
3 -11 4 29.09 3.82
3 11 -4 17.61 6.21
-3 -11 -4 10.61 5.13
-3 11 4 33.48 7.49
3 11 4 24.94 12.1
-3 11 -4 23.49 7.89
3 -11 4 18.09 12.28
3 -11 -4 17.11 7.17
3 11 -4 14.4 6.89
3 11 -4 17.81 5.65
3 11 4 12.82 2.68
3 -11 4 31.76 7.75
3 -11 -4 14.94 3.76
3 -11 4 37.69 9.99
3 -11 -4 19.44 6.42
3 11 -4 22.45 5.66
3 11 4 21.24 7.11
-3 11 4 30.87 11.67
-3 -11 4 9.59 6.71
-3 -11 4 22.53 3.4
-3 11 4 17.99 6.9
-3 -11 4 25.36 7.85
3 11 4 12.03 6.26
3 12 -4 14.41 10.56
-3 -12 4 6.51 2.39
3 -12 -4 3.38 5.71
-3 -12 -4 9.39 4.96
-3 12 -4 5.47 4.33
-3 -12 4 4.96 6.64
-3 -12 4 7.39 5.42
3 12 4 5.19 4.39
-3 -12 4 8.37 3.96
-3 12 -4 3.16 2.51
3 12 4 1.44 0.92
3 12 -4 9.14 5.18
-3 -12 -4 1.39 3.73
-3 12 4 1.04 2.49
3 12 -4 12.92 4.76
3 -12 4 13.45 8.99
3 12 4 13.14 8.79
-3 12 -4 1.36 3.25
3 -12 -4 13.09 5.87
3 12 -4 1.72 4.11
3 12 -4 8.48 4.01
3 -12 4 3.66 3.58
3 12 4 4.58 1.81
3 -12 -4 6.22 2.63
-3 12 4 7.89 4.45
-3 -12 4 9.92 5.09
-3 -12 4 15.24 8.93
-3 -12 4 7.05 2.36
3 -12 -4 6.66 4.51
3 12 -4 4.85 3.08
3 12 4 9.76 5.51
-3 12 4 13.39 7.84
3 12 4 6.37 4.27
3 -12 4 13.14 6.53
-3 13 4 1114.19 80.7
-3 -13 -4 1159.14 82.58
-3 -13 4 1225.34 68.79
-3 13 -4 1422.78 84.35
-3 -13 4 1279.99 96.16
3 13 -4 1367.8 106.11
3 -13 -4 1254.3 101.33
3 13 4 1115.84 81.05
-3 -13 4 1140.74 77.35
-3 13 -4 1190.99 74.31
3 13 4 716.71 65.11
3 13 -4 1442.33 78.76
-3 -13 -4 1199.73 81.36
-3 13 4 1498.17 80.69
-3 -13 4 1258.24 86.8
-3 13 -4 1154.03 81.82
3 -13 4 1355.12 102.34
3 13 -4 1479.52 80.75
3 13 4 1286.64 100.04
3 13 4 1117.62 67.85
-3 13 4 1367.66 96.54
3 -13 -4 1260.37 83.72
3 13 -4 1287.75 84.6
3 -13 4 1237.39 79.94
3 -13 -4 1284.46 71.59
-3 -13 4 1276.29 98.13
3 -13 4 1306.59 80.94
-3 13 4 1271.88 80.09
-3 -13 4 1272.05 81.31
3 -13 4 1220.64 80.68
3 13 4 1352.23 84.01
3 13 -4 1369.67 78.77
-3 -13 4 1303.11 69.59
3 13 4 1346.14 86.82
3 -13 -4 1193.87 80.92
-3 -14 -4 1.71 3.54
-3 14 -4 -1.51 5.12
-3 14 4 1.58 3.79
-3 -14 4 -5.21 6.23
3 14 -4 -3.23 5.45
3 -14 -4 -3.06 3.66
3 14 4 0.74 1.53
-3 -14 4 -1.92 3.97
-3 -14 4 -1.19 2.85
-3 14 -4 1.88 3.18
-3 -14 -4 3.07 4.1
-3 14 -4 -1.58 4.23
3 14 -4 2.46 3.29
3 -14 4 1.38 2.33
3 -14 -4 -0.67 2.11
3 14 4 3.59 2.08
-3 14 4 4.76 3.18
-3 -14 4 1.05 2.51
-3 -14 4 6.39 4.04
3 -14 -4 1.52 3.63
3 14 -4 2.45 4.62
3 14 4 -1.87 5.47
3 -14 4 2.9 4.9
3 -14 4 1.4 3.75
3 14 4 -2.78 5.76
-3 14 4 -2.41 2.88
-3 -14 4 -2.75 5.69
3 14 4 1.38 2.86
3 -14 4 1.28 3.41
3 15 4 1478.95 89.8
-3 15 4 1445.47 102.82
-3 15 -4 1644.57 105
-3 -15 -4 1415.27 104.56
-3 -15 4 1939.65 122.47
-3 -15 4 1363.29 98.84
-3 -15 -4 1476.41 103.23
-3 -15 4 1466.94 107.18
-3 15 -4 1408.63 104.29
3 15 -4 1747.94 102.93
3 -15 4 1343.91 112.33
3 15 4 1378.72 90.04
3 15 4 1561.99 114.44
3 -15 4 1472.14 101.12
-3 -15 4 1548.19 114.66
3 -15 -4 1599.38 93.62
3 -15 4 1658.49 103.53
-3 15 4 1440.1 98.03
3 -15 4 1439 97.95
3 15 4 1448.81 99.2
-3 -15 4 1823.67 93.06
3 15 -4 1783.78 103.42
3 15 4 1898.96 112.72
3 -15 -4 1725.62 105.86
-3 16 -4 8.17 6.51
-3 -16 -4 17.07 7.55
3 16 4 8.06 3.12
-3 -16 4 7.86 6.25
-3 -16 -4 10 6.64
3 16 4 15.04 4.2
-3 16 -4 7.09 6.39
3 16 -4 12.9 6.44
3 -16 4 18.32 6.86
3 -16 -4 15.54 4.6
3 16 4 9.42 5.12
-3 16 4 11.43 5.16
3 -16 4 12.37 7.28
-3 -16 4 11.12 4.04
3 -16 -4 5.06 6.72
3 -16 4 20.44 7.78
3 16 4 27.54 9.83
-3 -16 4 12.06 7.66
3 16 -4 22.6 8.08
3 16 4 11.69 7.43
3 -16 4 12.06 5.44
3 17 4 674.25 46.48
-3 -17 -4 705.21 61.91
-3 -17 4 728.94 62.63
-3 -17 -4 685.65 59.38
-3 17 -4 668.49 60.45
3 17 -4 833.28 60.38
3 -17 4 683.47 63.8
3 17 4 791.36 64.86
3 -17 4 785.72 60.09
3 -17 -4 757.65 51.37
3 -17 4 805.19 60.87
3 -17 4 710.91 52.58
3 17 4 736.64 53.63
3 17 4 970.5 70.75
3 17 -4 874.07 62.38
3 -17 -4 869.75 63.47
-3 -18 -4 -2.07 4.3
3 18 4 2.8 2.09
-3 -18 4 1.98 3.34
-3 -18 -4 1.81 3.06
-3 18 -4 -1.92 3.98
3 18 -4 -1.64 3.91
3 -18 4 -1.66 3.96
3 -18 -4 0.91 1.54
3 -18 -4 3.67 5.37
3 18 4 0.99 2.06
3 -18 4 1.73 2.93
3 18 4 2.37 5.67
3 -18 4 -2.12 5.06
3 18 -4 1.8 2.15
-3 -19 -4 8.7 6.39
-3 -19 4 5.93 4.75
-3 -19 -4 9.53 5.6
-3 19 -4 3.95 5.81
3 19 -4 8.66 5.88
3 -19 -4 7.72 3.68
-3 -19 -4 7.44 4.73
3 19 4 9.05 3.78
3 19 -4 11.65 6.98
3 -19 -4 9.41 6.77
3 -19 4 16.27 6.85
3 19 4 9.99 7.33
3 -19 4 9.73 5.72
-3 20 4 9 5.7
-3 20 -4 1.77 4.24
-3 -20 -4 4.54 4.71
3 -20 4 9.05 7.16
-3 -20 4 5.91 4.71
-3 20 -4 12.14 6.41
3 20 -4 1.82 3.78
3 -20 -4 7.22 3.5
-3 -20 -4 -1.55 4.16
3 -20 -4 5.77 5.63
3 -20 4 7.51 5.5
3 20 4 2.62 5.43
3 20 -4 4.15 4.3
-3 21 4 16.28 7.54
3 -21 4 22.15 9.21
-3 -21 -4 9.44 6.96
-3 -21 4 11.7 6.23
-3 21 -4 6.18 6.57
3 21 -4 22.88 8.57
3 -21 -4 15.26 5.28
-3 -21 -4 12.92 6.46
3 21 4 24.54 11.33
3 -21 -4 17.56 8.12
3 -21 4 30.98 10.13
3 21 -4 17.55 8.34
3 0 5 0.72 1.22
3 0 -5 -5.58 9.43
3 0 5 -0.92 2.19
3 0 5 1.26 0.89
-3 0 5 0.97 2.01
-3 0 5 0.94 1.95
-3 0 5 -0.91 1.08
3 0 -5 -0.89 1.84
3 0 -5 -2.64 4.47
-3 0 5 0.71 1.47
-3 0 -5 2.72 1.46
-3 0 -5 0.38 1.12
-3 0 5 0.38 0.78
3 0 5 -0.92 1.56
3 0 5 1.03 1.75
-3 0 -5 -0.82 1.39
-3 0 5 0.35 0.84
3 -1 5 -0.75 1.79
3 1 5 1.39 1.66
3 1 -5 -5.58 0.09
3 -1 -5 -5.54 0.09
3 1 5 1.74 2.09
3 -1 5 1.98 2.36
-3 -1 5 4.83 2.83
3 -1 5 3.3 1.35
-3 1 -5 0.9 0.71
3 1 5 1.73 0.97
-3 -1 5 2.83 2.26
-3 1 5 3.81 3.01
-3 1 5 0.93 1.93
-3 -1 5 1.78 1.84
-3 1 5 0.98 2.03
3 1 5 3.69 2.92
3 1 -5 2.74 2.19
3 -1 -5 1.78 1.84
3 -1 -5 -2.62 4.44
3 1 -5 -2.65 4.48
-3 -1 5 3.56 2.25
-3 1 -5 2.71 1.84
-3 -1 -5 1.12 1.34
-3 1 -5 1.65 1.21
-3 1 5 0.93 0.98
3 -1 5 1.85 2.21
-3 -1 5 3.55 1.6
-3 -1 -5 1.4 1.18
3 1 5 2.09 2.17
-3 1 5 2.34 1.24
-3 1 -5 2.49 2.98
-3 -1 5 1.63 1.17
-3 -1 -5 1.64 2.19
3 -2 5 35.24 6.88
3 2 -5 38.86 18.84
3 2 5 43.06 7.33
3 2 5 26.1 6.07
3 -2 5 23.76 7.14
3 2 5 32.62 3.68
-3 2 -5 24.23 3.73
-3 2 5 23.05 6.44
-3 -2 5 29.64 6.63
-3 -2 -5 27.1 7.2
-3 -2 5 30.84 7.01
-3 2 5 34.79 7.4
-3 -2 5 26.52 6.61
-3 -2 5 27.07 4.88
3 2 5 38.01 7.53
3 2 -5 36.37 7.45
-3 2 -5 27.41 4.66
3 -2 -5 15.55 8.91
3 -2 -5 29.69 6.91
-3 -2 -5 31.9 4.38
-3 2 -5 38.7 5.95
-3 2 5 30.27 3.81
-3 -2 5 32.05 6.29
-3 -2 -5 29.47 5.32
3 -2 5 32.58 6.96
3 2 5 34.11 7.82
-3 2 5 26.58 4.56
-3 2 -5 39.62 7.38
-3 -2 -5 33.17 6.77
3 -2 -5 26.75 3.71
3 3 -5 315.59 27.33
3 -3 5 387.42 28.57
3 3 5 390.14 26.92
3 3 5 342.57 27.18
3 -3 5 333.24 30.66
-3 -3 -5 331.59 30.03
3 3 -5 296.15 53.56
-3 3 5 359.21 29.84
-3 -3 5 363.75 29.3
3 3 5 326.18 21.39
-3 3 -5 303.19 22.21
-3 3 5 354.56 29.46
-3 -3 5 339.89 28.95
-3 -3 5 405.56 27.78
-3 3 -5 354.55 24.51
3 3 -5 342.5 28.1
3 -3 -5 399.37 43.64
-3 3 5 343.05 20.87
-3 -3 -5 294.69 24.38
3 -3 5 310.81 27.54
-3 3 5 299.24 23.4
-3 3 -5 318.61 27.38
3 3 5 327.79 29.63
3 -3 -5 318.99 22.26
-3 -3 -5 349.18 28.03
3 4 -5 59.19 22.55
3 -4 -5 78.68 25.32
-3 4 5 61.6 9.12
3 4 5 88.54 9.97
3 -4 5 80.53 12.98
3 4 -5 52.09 9.77
3 4 5 60.58 9.17
-3 -4 5 66.79 10.69
-3 -4 -5 57.2 6.69
-3 -4 5 77.01 11.36
-3 4 5 76.96 11.65
-3 -4 -5 52.67 10.29
-3 4 5 46.22 9.61
-3 4 -5 71.66 8.51
3 -4 -5 77.09 17.68
3 4 -5 53.7 15.06
3 4 -5 56.77 9.7
-3 -4 -5 60.8 8.38
3 -4 5 62.8 10.17
-3 -4 -5 59.43 9.57
-3 4 5 61.66 7.9
3 4 5 78.71 12.36
-3 4 -5 60.68 9.87
3 -4 -5 64.94 7.42
3 5 -5 5.26 6.29
3 -5 -5 5.1 0.09
3 5 5 1.9 1.86
3 5 5 2.97 2.18
-3 5 5 5.79 2.74
3 -5 5 1.38 1.66
3 5 -5 11.89 4.93
-3 -5 5 -1.01 2.41
-3 -5 5 -1.05 2.18
-3 -5 -5 1.19 2.02
-3 -5 -5 3.03 1.51
-3 5 5 1.12 1.89
3 -5 -5 -2.42 4.09
3 5 -5 2.5 5.18
-3 5 -5 5.63 2.48
-3 -5 -5 0.64 1.54
3 -5 5 3.81 2.55
3 5 -5 0.9 1.52
-3 5 5 1.79 1.43
3 5 5 9.31 4.4
-3 5 -5 0.93 2.5
3 -5 -5 1.09 1.46
3 6 -5 10.87 4.89
3 6 -5 10.22 8.65
3 -6 -5 14.83 10.24
3 6 5 13.04 3.73
3 6 5 7.92 3.24
-3 6 5 9.52 3.27
-3 6 5 4.77 3.21
-3 -6 5 7.84 3.9
3 6 -5 4.05 2.13
-3 -6 -5 18.39 6.06
-3 -6 -5 5.86 1.92
3 -6 -5 2.35 3.98
3 6 -5 17.02 7.7
3 6 5 6.05 1.9
-3 6 -5 5.65 3.07
-3 -6 -5 3.44 2.5
3 -6 5 11.62 4.35
3 6 -5 10.05 4.25
-3 6 -5 8.74 3.87
3 6 5 13.31 5.23
3 -6 -5 6.55 2.85
3 7 -5 4.55 3.63
3 7 -5 -4.95 0.13
3 -7 -5 19.03 11.38
-3 7 5 1.9 1.7
-3 7 5 6.36 4.31
-3 -7 5 3.89 3.08
3 7 -5 2.48 1.82
-3 -7 -5 1.26 1.52
3 -7 -5 6.82 5.43
3 7 -5 9.45 6.92
3 7 5 4.36 1.48
-3 7 -5 0.77 1.6
3 -7 5 1.01 2.69
-3 -7 -5 2.88 2.44
3 7 -5 -0.95 2.26
3 7 -5 3.96 1.75
3 7 5 6.35 3.4
3 -7 -5 3.87 2.78
3 8 -5 1.68 3.48
3 8 -5 9.53 11.4
3 -8 -5 4.58 5.48
-3 8 5 13.59 3.88
-3 -8 5 7.02 3.98
3 8 -5 6.67 2.95
-3 8 5 3.24 1.34
-3 -8 -5 6.47 4.38
3 -8 -5 -2.19 5.24
3 8 -5 2.28 4.72
3 8 5 6.28 1.81
-3 8 -5 2.58 2.52
3 -8 5 4.2 3.08
3 8 -5 3.94 2.64
3 8 -5 4.9 2.12
3 -8 -5 8.99 3.88
3 8 5 9.29 4.49
3 9 -5 4.59 7.76
3 -9 -5 4.38 5.24
-3 9 5 1.09 1.3
-3 -9 5 2.05 2.45
3 9 -5 6.98 3.13
-3 -9 -5 1.31 2.72
-3 9 5 1.88 1.2
-3 9 -5 1.62 1.45
3 -9 -5 8.47 5.66
3 9 -5 4.41 4.57
-3 9 -5 2.86 2.28
3 9 5 2.81 1.39
3 -9 5 1.1 1.86
3 9 -5 1.03 2.46
3 9 -5 0.55 1.32
3 -9 -5 3.11 3.03
3 9 5 1.4 2.36
3 10 -5 21.89 13.93
3 -10 -5 25.1 13.31
-3 -10 5 32.9 5.09
3 10 5 47.38 12.7
3 -10 5 31.51 10.63
-3 -10 -5 23.47 7.58
-3 10 5 17.94 4.28
-3 -10 5 26.22 7.02
-3 10 -5 29.22 5.69
3 10 -5 37.41 7.97
-3 -10 -5 14.97 6.04
-3 10 5 29.54 5.24
3 10 5 26.8 3.99
3 10 5 27.17 14.4
3 -10 -5 44.68 12.47
3 10 -5 23.18 9.54
-3 10 -5 34.08 8.28
3 -10 5 25.31 7.03
3 10 -5 34.63 7.79
3 10 -5 26.15 5.31
3 -10 -5 24.27 7.06
3 10 5 25.07 8.21
3 11 -5 159.06 33.97
-3 -11 -5 161.58 22.02
-3 -11 5 194.59 15.43
3 -11 -5 223.92 38.68
-3 -11 5 200.49 21.14
-3 11 -5 177.87 17.18
3 11 -5 188.17 20.92
-3 -11 -5 174.46 21.93
3 -11 5 252.66 21.55
-3 11 -5 160.75 20.03
3 11 5 170.31 13.76
3 11 -5 198.93 21.25
3 -11 5 211.61 38.87
3 -11 -5 149.21 23.75
3 11 -5 200.59 26.9
3 -11 5 192.42 21.46
3 11 5 225.04 39.27
3 11 5 231.33 28.69
3 -11 5 162.88 24.37
3 11 -5 188.28 17.43
3 11 5 197.04 23.89
3 -11 -5 182.3 21.79
-3 -12 -5 27.48 8.57
3 12 -5 39.91 15.91
3 -12 -5 19.05 11.27
3 -12 5 42.08 10.95
3 12 5 47.74 11.73
-3 12 5 24.92 9.45
-3 -12 5 36.18 8.48
-3 12 -5 17.64 5.5
3 -12 5 45.46 6.68
3 12 -5 38.9 9.56
-3 -12 -5 21.57 7.85
3 12 5 15.34 11.34
-3 12 -5 39.56 9.29
3 -12 -5 31.33 9.98
3 12 -5 55.46 13.03
3 -12 5 35.21 15.6
3 -12 -5 25.72 4.23
3 12 5 23.86 4.19
3 12 -5 39.89 9.05
3 -12 5 28.52 7.76
3 -12 -5 29.48 8.54
3 12 -5 28.8 6.11
3 12 5 39.93 10.46
-3 -13 -5 290.52 33.21
3 13 -5 333.49 48.33
3 -13 -5 308.39 46.36
-3 -13 5 378.44 31.92
-3 13 5 346.89 35.65
-3 -13 -5 365.27 34.4
3 -13 5 345.58 21.91
3 -13 5 343.57 47.43
-3 13 -5 317.12 31.99
3 13 5 339.06 46.67
3 13 -5 411.32 33.57
3 13 5 296.6 22.68
3 -13 -5 330.3 35.3
3 13 -5 335.9 35.52
3 -13 5 285.69 30.84
3 -13 -5 336.88 23.25
3 13 5 381.06 36.46
3 -13 5 287.69 32.36
3 13 -5 316.96 27.56
3 13 5 368.23 36.26
3 -13 -5 301.31 32.17
3 14 -5 3.59 7.45
3 -14 -5 20.65 10.89
-3 -14 -5 19.23 7.54
-3 14 5 23.78 8.75
-3 -14 5 17.62 8.11
-3 -14 5 6.31 4.78
3 14 5 3.59 1.01
-3 -14 -5 15.64 6.49
3 14 5 2.83 1
3 14 5 16.26 9.53
-3 14 -5 12.02 6.23
3 -14 5 16.79 9.84
3 -14 -5 18.35 6.92
3 14 -5 13.74 6.5
3 14 -5 12.33 5.44
3 -14 5 9.93 5.37
3 14 5 13.78 3.31
3 -14 -5 20.71 4.08
3 -14 -5 9.49 5.36
3 14 -5 12.16 4.7
3 14 5 18.97 7.86
3 -14 5 15.95 6.49
3 14 5 18.91 7.54
3 15 -5 54.33 17.48
3 -15 -5 36.01 13.88
-3 -15 -5 41.9 11.7
-3 15 5 53.22 12.46
-3 -15 5 55.72 13.58
-3 15 5 65.03 14.41
-3 -15 5 53.51 11.48
-3 -15 -5 47.32 11.76
3 15 5 44.85 15.04
3 -15 5 46.61 16.04
-3 15 -5 32.22 10.79
3 -15 -5 56.5 7.38
3 15 -5 65.79 12.95
3 -15 -5 56.97 12.76
3 15 -5 56.59 12.29
3 -15 5 72.45 13.23
3 -15 -5 83.39 15.09
3 15 5 52.38 11.4
3 15 5 52.57 13.36
3 -15 5 61.8 12.07
3 15 -5 70.65 11.54
3 -16 -5 -3.09 5.34
-3 -16 -5 15.22 7.96
3 16 -5 22.27 11.46
-3 -16 5 20.14 8.42
-3 16 5 37.79 11.21
-3 -16 5 30.16 9.15
-3 -16 -5 25.3 8.63
-3 16 -5 22.24 8.5
3 16 -5 26.63 8.24
3 -16 5 20.77 7.48
3 -16 -5 22.53 7.49
3 -16 -5 19.53 4.48
3 -16 -5 31.97 10.02
3 16 -5 22.97 6.91
3 16 5 25.73 9.99
3 16 5 21.9 9.88
3 -16 5 22.67 7.15
3 16 5 25.85 7.53
3 -16 5 28.76 11.96
-3 -17 -5 27.87 9.37
3 17 5 27.45 5.66
-3 -17 5 34.54 10.44
-3 17 5 28.82 10.57
-3 -17 -5 33.51 10.46
-3 17 -5 19.82 8.78
3 17 -5 31.61 9.68
3 -17 5 37.88 9.98
3 -17 -5 29.67 5.64
3 -17 5 34.43 12.77
3 -17 5 29 7.53
3 -17 -5 25.76 9.22
3 17 5 42.51 9.6
3 17 -5 34.02 8.96
3 17 5 40.91 12.27
3 17 5 29.84 11.63
-3 -18 -5 35.02 10.92
-3 -18 5 34.71 11.09
-3 18 5 12.71 8.63
-3 -18 -5 27.54 9.77
-3 18 -5 35.76 11.86
3 18 -5 44.03 11.51
3 -18 5 53.49 12.19
3 18 5 44.59 9.38
3 -18 -5 37.83 11.26
3 18 -5 43.49 10.53
3 18 5 40.81 12.67
3 -18 5 46.98 11.75
3 -18 5 36.34 12.45
-3 -19 -5 4.29 5.18
-3 -19 5 22.43 9.15
-3 19 5 6.5 5.23
-3 -19 -5 15.26 7.93
-3 19 -5 13.66 7.41
3 19 -5 14.95 7.44
3 -19 5 10.78 6.48
-3 -19 -5 7.8 5.64
3 -19 -5 21.27 8.98
3 19 -5 18.59 7.59
3 19 5 22.57 9.51
3 -19 5 23.55 8.42
3 -19 5 15.5 7.97
3 19 5 13.54 5.47
-3 20 5 -1.86 4.44
-3 -20 -5 4.47 5.35
-3 -20 -5 3.98 4.13
-3 -20 5 -2.04 4.22
-3 20 5 2.2 2.64
-3 20 -5 2.01 6.36
3 20 -5 3.92 4.06
3 -20 5 1.86 3.86
-3 -20 -5 1.62 3.89
3 -20 -5 5.89 5.75
3 20 5 2.62 3.14
3 20 -5 1.82 3.77
3 -20 5 1.88 3.89
3 0 -6 -6.54 15.64
3 0 6 11.86 5.67
-3 0 6 14.11 5.95
3 0 6 24.37 3.96
-3 0 6 4.13 4.28
-3 0 6 9.73 5.49
3 0 -6 -3.08 9.75
3 0 -6 13.29 5.19
-3 0 6 0.31 1.34
-3 0 -6 16.74 4.04
3 0 6 10.81 4.85
3 -1 6 2603.73 136.77
3 1 6 2366.47 133.38
3 1 -6 1980.19 185.89
3 -1 -6 1905.12 183.04
3 -1 6 2720.64 125.51
3 1 6 2546.92 124.95
-3 -1 6 2365.01 135.53
-3 1 6 2314.88 135.25
-3 1 6 2368.34 135.11
-3 -1 6 2384.93 135.46
-3 1 6 2288.38 135.28
-3 1 -6 2212.49 127.26
-3 -1 -6 2256.97 126.7
3 1 -6 2441.02 135.81
3 -1 -6 2483.65 135.11
3 -1 -6 2184.45 156.66
3 1 -6 1869.33 152.71
-3 1 6 1946.91 122.87
-3 -1 6 2060.52 125.04
3 -1 6 2342.23 133.99
3 1 6 2227.18 133.16
3 1 6 2413.71 135.84
-3 1 6 1787.01 123
-3 1 -6 2133.54 131.06
3 2 -6 6.48 7.75
3 2 6 18.86 5.92
3 -2 6 2.35 4.87
3 2 6 5.24 3.91
3 2 -6 -0.77 2.63
3 -2 6 19.64 4.08
-3 2 6 2.18 3.45
3 2 6 7.61 2.6
-3 -2 6 2.18 3.45
-3 -2 6 4.33 3.66
-3 2 6 4.43 4.19
-3 -2 -6 9.71 4.82
-3 2 -6 7.37 2.27
3 2 6 1.95 2.61
3 2 -6 9.34 4.97
-3 -2 -6 9.92 3.1
3 -2 -6 6.04 8.07
3 -2 -6 5.14 3.89
-3 2 6 1.99 0.97
-3 2 -6 7.23 3.05
3 -2 6 4.97 3.57
-3 -2 6 5.05 2.58
3 2 6 7.78 5.48
-3 2 6 2.52 1.61
3 -2 -6 1.87 1.38
-3 2 -6 8.61 4.12
-3 -3 -6 436.57 37.05
3 3 -6 456.27 35.22
3 3 6 414.8 32.95
3 3 6 545.27 34.75
3 -3 6 390.49 36.6
3 3 -6 434.42 70.73
3 -3 6 559.93 30.92
-3 -3 6 484.39 37.28
3 3 6 455.64 28.46
-3 -3 -6 424.43 29.72
-3 3 6 462.22 36.96
-3 -3 6 499.26 37.42
-3 3 -6 381.25 28.15
-3 3 6 470.84 37.27
-3 3 -6 416.91 30.69
3 3 -6 523.99 37.07
-3 -3 -6 433.44 28.85
3 -3 -6 482.79 52.33
3 -3 6 435.15 35.15
-3 -3 6 395.67 29.71
3 3 6 464.02 37.03
-3 3 6 397.3 28.21
3 -3 -6 408.65 27.52
3 4 -6 9.11 4.11
3 4 -6 18.76 12.96
3 -4 -6 12.28 14.68
3 4 6 13.21 4.58
-3 4 6 7.34 3.41
3 4 6 5.56 2.89
3 -4 6 9.69 4.99
-3 -4 6 7.77 4.01
-3 -4 6 4.56 3.09
3 4 6 9.82 2.82
-3 4 -6 9.91 2.84
-3 -4 -6 12.5 4.98
-3 -4 -6 11.39 3.12
-3 4 6 12.84 5.06
-3 4 6 7.01 4.22
3 4 -6 11.38 4.49
3 -4 -6 8.66 6.92
3 4 -6 11.82 7.92
-3 4 -6 10.26 3.63
3 -4 6 11.06 4.83
-3 4 6 8.14 2.53
3 4 6 8.26 4.49
3 -4 -6 9.17 2.54
3 5 -6 121.8 34.61
3 -5 -6 83.36 29.02
3 5 -6 109.58 16.15
-3 5 6 93.69 12.06
3 5 6 103.86 12.35
3 5 6 105.92 12.72
3 -5 6 160.46 20.19
-3 -5 6 132.78 16.52
-3 -5 6 126.95 16.1
-3 5 6 123.86 16.16
-3 5 -6 85.45 9.99
-3 -5 -6 109.14 10.12
-3 -5 -6 85.19 14.07
3 5 6 145.3 11.39
3 -5 -6 84.04 20.32
3 5 -6 92.09 21.11
-3 5 -6 97.95 11.71
3 5 -6 88.78 13.17
3 -5 6 109.38 14.26
-3 5 6 79.66 9.75
3 5 6 115.7 15.67
3 -5 -6 94.76 10.45
3 6 -6 13.57 6
3 6 -6 23.52 18.61
3 -6 -6 5.73 9.7
-3 6 6 10.19 3.52
3 6 6 11.79 3.87
-3 -6 -6 11.63 2.81
-3 6 -6 8.4 3.08
-3 -6 -6 20.73 6.41
-3 -6 6 18.89 5.81
-3 6 6 11.43 5.5
3 -6 -6 2.7 4.6
3 6 -6 5.58 5.8
3 6 6 16.19 3.44
-3 6 -6 6.95 3.24
3 -6 6 6.28 3.79
3 6 -6 6.39 3.64
-3 6 6 6 2.73
3 6 6 8.87 4.82
3 -6 -6 7.36 3.04
-3 7 6 310.98 24.07
3 7 -6 266.44 51.99
3 -7 -6 308.69 54.02
3 7 -6 273.18 31.35
3 7 -6 254.26 21.83
-3 -7 6 356.58 29.62
-3 -7 -6 295.26 20.79
-3 -7 -6 274.62 28.76
3 7 6 380.55 22.12
-3 7 -6 288.17 25.23
3 7 -6 295.57 27.47
3 -7 -6 326.12 39.65
3 7 -6 255.61 36.81
3 -7 6 297.15 27.65
3 7 6 316.98 29.98
3 -7 -6 270.67 24.57
3 8 -6 10.87 9.2
3 -8 -6 5.28 10.93
-3 8 6 4.27 2.46
-3 -8 6 10.1 4.67
3 8 -6 12.49 4.4
-3 -8 -6 9.52 5.41
3 -8 -6 15.02 8.48
3 8 -6 5.17 6.2
3 8 6 9.69 2.99
3 -8 6 9.05 4.71
3 8 -6 11.33 4.9
-3 8 -6 11.16 4.99
3 8 6 11.12 5.28
3 -8 -6 5.65 3.59
-3 9 6 1903.13 123.78
3 9 -6 2474.49 182.63
3 -9 -6 2119.2 174.53
-3 -9 6 2478.77 134.06
-3 -9 -6 2171.44 134.79
3 9 -6 2046.46 127.14
3 9 6 2278.22 122.41
-3 9 -6 2134.32 130.31
3 9 -6 2226.78 133.03
3 -9 -6 2406.2 150.04
3 9 -6 2149.32 147.62
3 -9 6 2179.98 132.49
3 9 6 2257.58 136.59
3 -9 -6 1885.83 129.52
3 10 -6 -4.96 8.4
3 -10 -6 -4.81 11.49
-3 -10 6 8.2 3.4
-3 10 6 2.54 2.44
-3 -10 6 3.55 3.75
3 10 -6 0.94 3.4
-3 -10 -6 4.18 4.42
3 -10 -6 6.89 6.73
3 10 -6 9.47 7.49
-3 10 -6 4.51 4.48
3 10 6 3.98 2.44
3 -10 6 9.84 5.1
3 10 -6 6.19 4.92
3 10 -6 5.71 2.54
3 -10 -6 6.1 5.46
3 10 6 1.54 3.69
-3 -11 -6 1041.19 78.3
3 11 -6 1198.93 112.06
3 -11 -6 1215.31 110.46
-3 -11 6 1228.34 76.85
-3 11 6 1146.71 80.79
3 11 -6 1153.01 74.64
-3 -11 -6 1139.16 78.16
-3 11 -6 1075.85 74.92
3 11 6 1062.77 65.38
3 11 -6 1230.4 77.63
3 -11 -6 1157.07 86.57
3 11 -6 1101.72 86.62
3 -11 6 1134.85 76.48
3 11 -6 1045.2 66.12
3 11 6 1159.92 80.23
3 -11 -6 976.39 74.93
3 12 -6 4.47 7.56
3 -12 -6 4.35 7.35
3 12 6 2.11 4.38
3 -12 6 -1.95 3.29
-3 -12 -6 -3.34 4.46
-3 12 6 -1.77 4.74
-3 -12 6 4.96 3.63
3 12 -6 1.25 2.11
-3 -12 -6 1.48 4.33
3 12 6 -4.44 7.5
3 -12 -6 -2.1 4.35
3 12 -6 2.16 4.47
-3 12 -6 1.31 4.14
3 12 6 0.44 1.58
3 -12 6 -1.37 4.01
3 12 -6 1.37 2.84
3 12 -6 2.3 2.17
3 -12 -6 -1.45 4.26
3 12 6 1.71 3.54
-3 -13 -6 444.24 41.09
3 13 -6 554.77 64.21
3 -13 -6 399 56.08
-3 -13 6 427.65 37.22
-3 13 6 430.34 41.87
-3 -13 -6 429.65 39.28
-3 13 -6 356.34 36.51
3 13 -6 434.45 38.74
3 -13 -6 404.59 42.13
3 13 -6 395.49 42.19
3 -13 6 454.91 38.62
3 -13 6 364.27 54.91
3 13 6 419.78 56.91
3 13 6 430.14 43.39
3 13 -6 399.51 30.23
3 13 6 472.64 42.57
3 -13 -6 349.19 36.84
3 14 -6 -4.01 6.78
3 -14 -6 3.9 6.59
-3 -14 -6 1.79 3.03
3 14 6 3.59 4.3
3 -14 6 1.66 3.44
-3 14 6 1.94 4.02
-3 -14 6 6.78 4.87
-3 -14 -6 -1.59 3.3
3 -14 -6 3.77 3.19
3 14 -6 3.84 3.98
-3 14 -6 1.51 3.14
3 -14 6 3.87 6.54
3 14 -6 3.07 4.49
3 -14 6 4.56 3.64
3 14 6 18.73 10.01
3 14 -6 3.87 2.62
3 -14 -6 1.66 2.82
3 14 6 3.85 3.99
3 15 -6 11.33 9.04
3 -15 -6 7.37 8.82
-3 -15 -6 1.84 4.42
-3 15 6 10.03 6.79
-3 -15 6 12.3 6.94
-3 -15 6 8.58 5.42
-3 -15 -6 18.21 7.67
3 -15 6 10.72 8.55
3 15 6 3.45 4.13
-3 15 -6 -1.62 3.9
3 -15 -6 3.57 4.79
3 15 -6 9.03 5.72
3 15 -6 8.09 5.13
3 -15 6 6.31 4.23
3 -15 -6 19.24 7.55
3 15 -6 8.81 3.51
3 15 6 6.65 4.46
3 15 6 14.26 7.32
3 -15 6 1.54 3.21
3 16 -6 14.2 8.49
3 -16 -6 3.48 5.89
-3 -16 -6 3.83 4.6
-3 16 6 4.16 4.32
-3 -16 6 8.31 6.1
-3 -16 6 7.53 5.1
-3 -16 -6 6.81 5.77
-3 16 -6 10.36 5.85
3 16 6 3.16 6.56
3 -16 6 3.31 6.87
3 -16 -6 5.05 4.52
3 16 -6 5.09 4.07
3 16 -6 10.27 5.42
3 -16 6 13.32 5.98
3 -16 -6 9.1 6.17
3 -16 6 7.12 4.52
3 16 -6 8.95 4.3
3 16 6 4.61 4.12
3 16 6 10.8 6.34
-3 -17 -6 258.41 31.1
3 -17 -6 216.38 36.14
-3 -17 6 181.35 27.26
-3 17 6 223.11 30.82
-3 -17 -6 240.96 29.22
-3 -17 6 226.53 30.24
3 -17 6 250.43 37.33
3 17 -6 231.46 29.24
-3 17 -6 133.16 26.56
3 -17 -6 196.92 25.66
3 17 -6 218.25 26.4
3 -17 6 259.96 29.26
3 17 6 227.28 25.95
3 17 -6 240.22 24.23
3 17 6 360.38 37.46
3 -17 -6 300.44 32.18
3 -18 -6 12.27 7.34
-3 -18 -6 14.37 7.37
-3 18 6 11.01 6.97
-3 -18 6 16.87 7.98
-3 -18 -6 1.84 4.41
-3 18 -6 15.18 7.86
3 18 -6 1.9 4.56
3 -18 6 12.51 6.41
3 -18 -6 5.77 7.28
3 18 6 9.61 6.43
3 -18 6 -2.81 7.53
3 18 6 7.9 4.73
-3 19 6 597.39 57.5
-3 -19 -6 632.86 59.96
-3 19 6 723.36 63.88
-3 -19 -6 611.28 58.19
-3 -19 6 611.42 59.94
-3 19 -6 531.58 57.62
3 19 -6 752.02 61.98
3 -19 6 671.32 64.36
3 -19 6 818.63 61.77
3 19 6 905.35 70.73
3 -19 -6 952.3 66.48
3 0 -7 7.69 9.19
3 0 7 2.15 2.87
3 0 7 2.07 2.15
-3 0 -7 3.04 1.92
3 0 -7 3.61 6.11
3 0 -7 1.16 2.4
3 0 7 0.4 1.27
-3 0 7 -1.22 2.52
3 1 -7 92.08 33.86
3 -1 -7 84.08 32.47
-3 -1 -7 140.67 18.05
3 1 -7 123.19 13.34
3 1 7 135.3 16
3 -1 7 141.98 17.48
3 -1 7 155.37 12.21
3 1 7 145.08 11.97
-3 -1 7 133.93 17.38
-3 1 7 113.77 16.31
-3 -1 7 119.77 16.54
3 -1 -7 175.73 32.04
3 1 -7 158.86 30.46
-3 1 -7 118.44 12.89
-3 -1 -7 124.21 12.77
3 1 -7 152.39 18.16
3 -1 7 121.74 15.88
3 1 7 122.88 15.62
3 2 7 60.32 10.03
3 2 -7 76 31.72
3 2 -7 62.33 9.97
3 -2 7 75.07 13.21
-3 -2 -7 79.12 13.11
3 -2 7 88.03 8.68
3 2 7 76.85 8.31
-3 -2 7 73.6 12.81
-3 2 7 73.2 12.51
-3 2 7 85.25 13.29
-3 -2 -7 63.02 8.74
-3 -2 7 62.88 11.61
3 -2 -7 56.56 18.84
-3 2 -7 72.1 9.43
3 2 -7 73.15 12.2
-3 -2 -7 72.23 8.85
3 -2 7 81.95 12.11
3 2 7 69.63 11.85
3 3 -7 44.8 23.74
3 3 7 39.55 7.88
3 -3 7 51.49 10.89
3 3 -7 44.45 9.06
3 -3 7 62.72 7.41
3 3 7 51.14 6.49
-3 -3 7 40.22 9.07
-3 -3 -7 38.74 6.48
-3 3 7 47.49 10.09
-3 -3 -7 49.78 10.19
-3 -3 7 40.23 9.57
3 -3 -7 41.61 15.7
3 3 -7 48.3 9.55
-3 -3 -7 42.16 6.31
-3 3 -7 42.19 7.34
3 -3 7 42.3 8.64
3 3 7 55.17 10.4
3 -3 -7 37.93 4.53
3 4 -7 55.6 11.48
3 4 -7 65.54 29.19
3 -4 -7 57.45 27.48
3 4 7 86.89 11.31
3 -4 7 56.7 12.45
3 -4 7 78.75 9.52
-3 -4 7 98.8 14.53
3 4 7 84.91 8.97
-3 -4 7 92.92 14.23
-3 4 7 73.71 12.71
-3 -4 -7 86.97 14.12
3 4 7 108.01 10.87
3 -4 -7 111.26 24.56
3 4 -7 89.55 22.2
-3 4 -7 64.8 9.67
3 4 -7 87.63 13.44
3 -4 7 82.04 12.37
3 4 7 93.34 13.8
3 -4 -7 64.68 7.5
3 5 -7 1.45 3
3 5 -7 7.06 8.44
3 -5 -7 -6.94 0.05
3 5 7 3.19 2.7
3 -5 7 4.83 4.31
3 -5 7 3.96 2.5
-3 -5 7 -1.34 2.78
3 5 7 -0.53 1.89
-3 5 7 2.68 3.58
-3 -5 -7 2.67 3.91
3 5 -7 1.19 2.02
3 -5 -7 3.26 6.75
3 5 -7 3.34 3.99
3 5 7 2.71 1.95
-3 5 -7 -0.79 2.11
3 -5 7 1.11 2.66
3 5 7 1.26 2.61
3 -5 -7 1.52 1.61
3 6 -7 9.84 5.21
3 6 -7 20.43 16.29
3 -6 -7 13.36 13.84
-3 6 7 4.58 2.92
3 6 7 7.6 3.18
-3 -6 7 8.71 4.49
-3 -6 -7 9.52 4.62
3 -6 -7 9.41 8.39
3 6 -7 12.89 8.63
3 6 7 12.23 3.83
-3 6 -7 11.08 4.23
3 -6 7 6.87 4.13
3 6 -7 -1.22 5.28
3 6 7 14.42 5.67
3 -6 -7 8.52 3.26
3 7 -7 359.23 65.79
3 7 7 403.22 32.53
-3 7 7 552.3 34.58
3 -7 -7 441.58 71.12
-3 7 7 404.72 38.63
-3 -7 7 451.82 38.35
-3 -7 -7 475.19 39.96
3 7 7 514.13 31.56
-3 7 -7 442.02 35.02
3 7 -7 468.07 38.84
3 -7 -7 574.36 56.97
3 7 -7 383.16 49.24
3 -7 7 432.87 36.9
3 7 7 489.1 40.22
3 -7 -7 373.61 32.66
3 8 -7 24.9 16.71
3 -8 -7 24.36 16.36
-3 8 7 20.97 4.87
3 8 -7 23.16 4.91
-3 -8 7 24.94 7.46
-3 8 7 27.59 8.29
-3 -8 -7 34.91 8.97
3 8 7 45.7 6.2
3 -8 -7 37.36 13.83
3 8 -7 32.48 12.82
-3 8 -7 32.14 7.84
3 -8 7 29.07 7.54
3 8 -7 39.74 9.2
3 8 7 31.5 8.7
3 -8 -7 20.03 5.79
3 9 -7 124.5 35.53
3 -9 -7 115.98 33.38
-3 9 7 120.95 13.17
-3 -9 7 151.72 18.95
-3 9 7 149.9 20.49
-3 -9 -7 142.73 19.27
-3 9 -7 147.36 17.53
3 -9 -7 156.43 27.11
3 9 -7 140.14 18.57
3 9 -7 149.24 26.94
3 -9 7 141.97 18.16
3 9 7 168.3 21
3 -9 -7 122.26 16.33
3 10 -7 -5.63 11.65
3 -10 -7 16.51 13.16
-3 -10 7 5.27 4.17
-3 -10 -7 1.44 3
-3 10 7 8.23 5.21
3 -10 -7 2.61 3.13
3 10 -7 8.03 6.4
-3 10 -7 8.28 4.25
3 -10 7 2.61 3.5
3 10 -7 9.77 5.29
3 10 7 14.29 6.01
3 -10 -7 8.62 4.89
3 11 -7 5.32 9
3 -11 -7 10.44 8.83
-3 -11 -7 1.66 1.99
-3 -11 7 4 3.19
-3 -11 -7 2.97 3.55
-3 11 7 5.17 4.12
3 -11 -7 -2.48 4.2
3 11 -7 -2.53 4.29
-3 11 -7 1.28 3.06
3 -11 7 5.55 3.71
3 11 -7 1.46 3.03
3 -11 -7 4.12 2.85
3 11 7 5.04 4.92
3 12 -7 45.38 19.21
3 -12 -7 74.08 25.16
-3 -12 -7 37.84 10.74
-3 -12 7 54.75 11.22
-3 -12 -7 37.89 10.51
-3 12 7 39.55 11.41
3 -12 -7 66.12 15.89
3 12 -7 43.29 13.07
-3 12 -7 29.03 8.9
3 -12 7 46.17 10.47
3 12 -7 50.59 11.39
3 -12 -7 36.12 9.8
3 12 7 44.02 11.38
-3 -13 -7 3.57 4.77
3 13 -7 4.76 8.04
3 -13 -7 -4.66 7.89
-3 -13 7 5.61 4.11
-3 -13 -7 12.56 5.94
-3 13 7 5.66 5.05
3 -13 -7 2.25 4.67
3 13 -7 2.29 4.74
-3 13 -7 4.47 4.37
3 -13 7 8.98 5.06
3 13 -7 -1.61 3.85
3 -13 -7 3.24 3.36
3 13 7 3.7 3.83
3 14 -7 17.87 14.21
3 -14 -7 21.96 13.97
-3 -14 -7 27.54 9.93
3 14 7 18.27 8.87
3 -14 7 34.03 11.17
-3 -14 7 22.01 8.89
-3 -14 -7 21.02 8.56
-3 14 7 27.42 9.48
3 -14 -7 29.79 10.89
3 14 -7 40.81 12.4
3 14 7 21.28 11.47
-3 14 -7 25.59 8.46
3 -14 7 31.69 9.21
3 14 -7 47.44 11.73
3 -14 -7 22.38 8.37
3 14 7 39.24 11.1
3 15 -7 46.19 18.92
3 -15 -7 62.13 20.54
-3 -15 -7 28.11 9.5
3 15 7 53.92 12.96
3 -15 7 43.38 12.12
-3 -15 7 29.2 9.8
-3 -15 -7 40.09 10.98
-3 15 7 44.64 12.57
3 -15 -7 42.06 11.7
3 15 -7 50.29 12.92
3 -15 7 32.56 14.77
-3 15 -7 41.01 11.41
3 15 7 42.99 16.99
3 -15 7 34.43 10.24
3 15 -7 48.2 12.28
3 -15 -7 48.78 12.42
3 15 7 43.33 12.29
3 16 -7 31.52 14.14
3 -16 -7 -3.9 4.7
-3 -16 -7 11.52 7.28
3 16 7 3.45 4.64
3 -16 7 9.67 6.11
-3 -16 7 4.3 6.82
-3 -16 7 7.98 5.75
-3 -16 -7 13.68 6.8
-3 16 7 19.06 8.41
3 16 7 28.76 12.9
3 -16 -7 11.34 6.8
3 16 -7 18.87 7.83
-3 16 -7 9.1 6.18
3 -16 7 15.04 10.07
3 -16 7 13.78 6.54
3 16 -7 13.14 7.46
3 -16 -7 18.76 8.11
3 16 7 13.07 7.83
-3 -17 -7 502.76 47.04
3 -17 -7 494.24 60.5
-3 17 7 406.58 46.33
-3 -17 -7 364.62 41.65
-3 -17 7 471.32 48.16
3 -17 7 462.19 57.22
-3 17 -7 409.19 45.48
3 17 -7 487.58 46.89
3 17 -7 502.59 45.13
3 -17 7 553.66 46.56
3 17 7 376.03 40.36
3 17 7 593.73 51.8
3 -17 -7 522.77 48.22
3 0 -8 9.01 26.48
3 0 8 28.31 7.83
3 0 8 37.57 8.29
3 0 -8 55.04 19.06
-3 0 -8 38.29 6.96
3 0 8 46.66 6.33
-3 0 8 31.1 8.66
-3 0 -8 46.5 10.17
3 1 -8 170.77 49.89
3 -1 -8 89.59 37.96
-3 -1 -8 163.4 19.89
3 1 8 139.13 17.13
3 -1 8 132.87 17.94
3 -1 -8 151.19 31.98
3 1 -8 114.15 28.82
-3 1 -8 130.41 14.62
-3 -1 -8 160.1 15.51
3 -1 8 129.12 16.73
3 -1 8 182.97 14.24
3 1 8 162.96 13.7
-3 -1 8 113.87 17.57
-3 1 8 144.14 19.19
3 2 -8 26.64 21.26
3 2 8 18.79 5.99
3 -2 8 14.63 6.03
3 -2 8 26.97 5.34
3 2 8 20.54 4.72
-3 -2 8 20.55 7.2
-3 2 8 15.08 5.99
-3 -2 -8 13.68 5.75
3 -2 -8 16.54 11.09
3 2 -8 14.85 6.52
-3 -2 -8 15.9 4.58
-3 2 -8 19.48 5.27
3 -2 8 11.24 5.29
3 3 8 848 51.43
3 -3 8 843.05 57.42
3 3 -8 713.55 105.84
3 -3 8 1003.94 48.08
3 3 8 862.32 46.72
-3 -3 8 831.71 56.84
-3 3 8 857.25 56.95
-3 -3 -8 754.03 54.89
-3 3 8 770.54 55.14
-3 3 -8 724.35 48.36
3 3 -8 807.46 55.67
3 -3 -8 819.19 80.55
-3 -3 -8 811.84 47.46
3 -3 8 790.13 53.06
3 3 8 788.75 53.4
3 -3 -8 551.49 39.58
3 4 -8 50.74 32.08
3 -4 -8 83.59 34.72
3 4 8 48.9 8.75
3 -4 8 45.7 12.34
3 -4 8 61 8.96
3 4 8 57.25 7.95
-3 4 8 46.87 10.75
-3 -4 8 50.29 11.31
-3 -4 -8 53.73 11.82
3 -4 -8 70.37 21.58
3 4 -8 23.95 14.55
3 4 -8 64.34 12.58
-3 4 -8 49.68 9.25
3 -4 8 49.49 10.3
3 4 8 60.08 11.47
3 -4 -8 36.82 5.04
3 5 8 1970.91 121.52
3 -5 8 1765.08 131.21
3 5 -8 2171.33 199.87
3 -5 -8 2208.05 199.97
3 -5 8 2395.1 122.69
-3 -5 8 2495.15 133.69
-3 -5 -8 2041.69 128.76
3 5 8 2097.36 119.37
-3 5 8 2016.82 129.11
-3 5 -8 1903.47 122.01
3 5 -8 2096.77 128.72
3 -5 -8 2416.39 162.5
3 5 -8 1833.48 152.64
3 -5 8 2045.85 126.2
3 5 8 2147.49 128.05
3 -5 -8 1834.44 116.37
3 6 -8 15.67 16.55
3 -6 -8 92.64 34.69
3 6 8 62.1 9.55
3 -6 8 92.07 11.97
3 6 8 65.32 9.1
-3 -6 8 82.64 13.58
-3 6 8 47.74 11.68
-3 -6 -8 64.92 13.05
3 6 -8 69.01 12.88
3 -6 -8 65.13 22.3
3 6 -8 59.4 20.6
-3 6 -8 49.68 9.78
3 -6 8 49.92 10.61
3 6 8 65.2 12.65
3 -6 -8 53.56 8.18
3 7 8 597.13 42.44
3 7 -8 658.51 94.76
3 -7 -8 611.07 92.17
-3 -7 8 704.41 51.01
-3 -7 -8 640.77 50.14
-3 7 8 620.04 50.45
-3 7 -8 583.55 45.05
3 7 -8 660.5 50.58
3 -7 -8 680.27 69.65
3 7 -8 620.31 67.96
3 -7 8 598.39 47.63
3 7 8 657.8 50.01
3 -7 -8 572.77 42.51
3 8 -8 -7.11 12.05
3 -8 -8 27.99 18.73
-3 -8 8 15.09 6.4
-3 8 8 6.22 4.98
-3 8 8 19.6 8.09
-3 -8 -8 18.48 7.05
3 -8 -8 39.44 14.19
3 8 -8 6.74 7.03
-3 8 -8 14.05 5.69
3 -8 8 14.34 6.48
3 8 -8 26.16 8
3 8 8 16 6.56
3 -8 -8 21.98 6.05
3 9 -8 147.88 41.11
3 -9 -8 165.8 42.85
-3 -9 8 184.42 21.59
-3 9 8 139.1 21.21
-3 -9 -8 169.2 21.48
-3 9 8 182.92 23.16
3 -9 -8 180.81 30.84
3 9 -8 159.65 29.86
-3 9 -8 134.89 17.97
3 9 -8 209.55 23.58
3 -9 8 175.72 20.95
3 9 8 189.42 22.49
3 -9 -8 116.06 16.55
3 10 -8 50.82 25.29
3 -10 -8 87.62 29.06
-3 -10 8 45.96 10.67
-3 10 8 48.86 11.6
-3 10 8 54.55 13.15
-3 -10 -8 49.56 10.82
3 -10 -8 41.38 13.86
3 10 -8 63.46 18.2
-3 10 -8 31.36 8.76
3 -10 8 33.76 8.85
3 10 -8 43.26 10.51
3 10 8 46.61 11.25
3 -10 -8 22.34 7.73
3 11 -8 47.88 21.51
3 -11 -8 11.8 14.18
-3 -11 -8 34.28 9.93
-3 11 8 26.32 9.02
-3 -11 8 41.95 10.04
-3 11 8 21.94 8.86
-3 -11 -8 29.94 9.07
3 -11 -8 30.76 12.59
3 11 -8 34.18 12.82
-3 11 -8 21.64 7.2
3 -11 8 23.31 7.53
3 11 -8 29.04 9.36
3 11 8 38.86 10.4
3 -11 -8 17.79 6.5
3 12 -8 22.55 15.08
3 -12 -8 5.56 6.66
-3 -12 -8 5.29 4.73
-3 12 8 14.66 7.28
-3 -12 8 4.44 3.97
-3 12 8 7.58 5.56
-3 -12 -8 16.72 6.81
3 -12 -8 15.84 8.94
3 12 -8 8.04 6.42
-3 12 -8 1.45 5.49
3 -12 8 13.88 6.4
3 12 -8 5.07 4.53
3 12 8 12.5 7.1
3 -12 -8 6.03 5.42
-3 -13 -8 695.72 58.45
3 13 -8 656 83.8
3 -13 -8 716.9 86.31
-3 13 8 718.4 60.27
-3 -13 -8 637.69 55.08
-3 13 -8 635.96 55.44
3 13 -8 837.3 60.66
3 -13 -8 772.71 66.59
3 13 -8 684.41 64.12
3 -13 8 714.27 56.43
3 13 8 839.78 61.8
3 -13 -8 537.91 53.63
-3 -14 -8 16.67 7.7
3 14 -8 39.69 18.77
3 -14 -8 19.67 11.78
-3 -14 8 17.25 7.98
-3 14 8 14.27 8.11
-3 -14 -8 6.51 6.49
3 -14 -8 19 9.86
3 14 -8 9.55 7.58
-3 14 -8 11.6 6.3
3 -14 8 16.45 7.65
3 14 -8 11.13 7.38
3 -14 -8 12.14 7.79
3 14 8 3.99 5.37
3 0 9 -1.2 3.51
3 0 -9 4.9 5.86
3 0 9 2.18 2.61
-3 0 -9 0.84 2.46
-3 0 9 -1.44 2.43
3 0 9 1.77 2
-3 0 9 -1.49 4.35
-3 0 -9 -1.43 3.41
3 1 -9 20.81 21.57
3 -1 -9 20.74 21.51
3 1 9 27.79 7.48
3 -1 9 22.16 6.88
3 -1 -9 9.72 10.12
3 -1 9 12.34 5.31
-3 1 -9 16.35 5.16
-3 -1 -9 12.95 4.77
-3 -1 9 22.43 7.45
-3 -1 9 24.63 7.63
3 -1 9 21.19 4.82
3 1 9 24.28 5.07
-3 1 9 20.17 6.97
-3 1 9 25.33 8.04
-3 1 -9 24.51 7.79
-3 -1 -9 28.48 8.06
3 2 -9 41.06 30.41
3 2 9 66.17 11.52
3 -2 9 74.82 13.96
3 -2 -9 95.5 27.76
-3 2 -9 71.15 10.99
3 -2 9 102.66 14.07
3 -2 9 110.59 11.29
3 2 9 89.54 10.22
-3 -2 9 95.63 15.76
-3 -2 9 86.08 15.1
-3 2 9 82.47 14.58
-3 2 9 79.73 14.45
-3 -2 -9 76.49 14.11
3 3 -9 361.34 79.55
3 3 9 315.25 29.89
3 -3 9 285.69 33.08
-3 3 -9 343.04 30.01
3 -3 -9 427.86 59.55
3 -3 9 380.83 33.17
3 -3 9 474.67 29.88
3 3 9 434.53 29.45
-3 -3 9 380.42 36.33
-3 3 9 418.47 37.07
-3 3 9 359.05 34.92
-3 -3 -9 356.46 34.3
3 4 -9 48.62 26.22
3 -4 -9 105.81 39.98
3 4 9 50.7 9.17
3 -4 9 57.05 12.93
3 -4 9 80.1 9.91
3 4 9 70.51 9.36
-3 -4 9 70.43 13.68
-3 4 9 65.31 12.92
-3 -4 -9 56.76 11.75
-3 4 9 56.62 12.03
3 -4 -9 67.39 22.4
3 4 -9 50.5 20.08
3 4 -9 71.9 13.47
-3 4 -9 50.85 9.37
3 -4 9 58.91 11.3
3 5 -9 -9.35 19.36
3 -5 -9 -9.23 22.07
3 -5 9 1.75 3.62
3 5 9 1.72 2.51
-3 5 9 1.52 2.57
3 -5 9 2.29 2.58
-3 -5 9 1.53 4.1
3 5 9 1.38 2.03
-3 5 9 7.93 5.02
-3 -5 -9 1.43 2.42
3 -5 -9 -4.31 7.29
3 5 -9 8.84 7.47
3 5 -9 1.51 4.04
-3 5 -9 -1.01 2.1
3 -5 9 6.33 4.28
3 5 9 1.26 3.02
3 6 -9 -8.93 0.58
3 -6 -9 8.81 14.91
3 6 9 11.15 4.3
3 -6 9 9.45 5.57
-3 6 9 9.31 5.6
3 -6 9 17.81 5.3
3 6 9 15.22 4.46
-3 -6 9 9.03 5.12
-3 -6 -9 14.29 5.7
3 6 -9 9.19 5.53
3 -6 -9 12.37 11.04
3 6 -9 4.24 8.79
-3 6 -9 12.77 4.96
3 -6 9 9.09 4.43
3 6 9 7.9 4.21
3 7 -9 33.94 22.82
3 -7 -9 41.82 24.62
3 7 9 46.6 7.82
-3 7 9 38.16 10
-3 -7 9 50.07 11.81
-3 -7 -9 54.7 11.29
3 7 -9 54.79 12.38
3 -7 -9 31.33 14.26
3 7 -9 52.33 20
-3 7 -9 46.02 9.53
3 -7 9 32.08 8.81
3 7 9 64.82 12.14
3 8 -9 24.08 19.29
3 -8 -9 31.66 21.24
-3 -8 9 50.73 11.58
-3 8 9 27.84 8.74
3 8 9 34.99 7.2
-3 -8 -9 42.93 10.29
3 8 -9 35.3 9.96
3 -8 -9 51.91 18.37
3 8 -9 34.25 14.51
-3 8 -9 29.63 7.86
3 -8 9 36.04 9.27
3 8 9 28.97 8.34
3 9 -9 15.14 12.81
3 -9 -9 7.47 8.93
-3 -9 9 4.54 4.81
-3 9 9 10.93 6.17
-3 9 9 15.24 6.73
-3 -9 -9 7.27 5.23
3 -9 -9 17.52 11.85
3 9 -9 3.59 7.44
-3 9 -9 2.5 3.37
3 -9 9 10.04 5.16
3 9 -9 11.58 5.61
3 9 9 4.58 5.17
3 10 -9 -7.1 0.17
3 -10 -9 -7.01 8.38
-3 10 9 8.81 5.96
-3 -10 9 6.21 5.25
-3 10 9 5.65 5.03
-3 -10 -9 7.31 5.25
3 -10 -9 3.3 5.58
3 10 -9 -3.37 5.71
-3 10 -9 3.99 3.56
3 -10 9 4.47 4.36
3 10 -9 1.72 4.11
3 10 9 11.2 6.05
3 0 -10 -11.87 24.59
3 0 10 13.48 6.77
3 0 -10 5.57 14.93
-3 0 10 23.5 9.77
-3 0 10 19.43 7.3
-3 0 -10 24.98 8.83
3 -1 -10 718.99 127.65
3 1 10 984.91 70.4
3 -1 10 1157.78 74.37
-3 1 -10 958.44 72.75
3 1 -10 922.49 142.06
3 -1 -10 1021.56 108.91
3 -1 -10 1072.93 75.26
-3 -1 10 1083.18 76.81
-3 1 10 1076.69 76.25
-3 1 10 1168.07 76.94
-3 -1 -10 935.86 72.3
3 2 10 16.11 5.62
3 2 -10 -11.66 13.95
3 -2 10 5.76 4.58
3 -2 -10 10.83 14.49
-3 2 10 14.13 7.53
-3 -2 10 8.26 5.61
-3 2 10 17.88 8.03
-3 2 -10 6.02 5.12
-3 -2 -10 15.87 7.34
3 3 10 255.02 24.99
3 3 -10 238.7 66.92
3 -3 -10 292.81 72.84
3 -3 10 318.04 31.77
3 -3 -10 299.87 52.56
3 3 -10 209.19 45.16
-3 -3 10 312.77 32.19
-3 3 10 283.26 30.97
-3 3 10 276.9 29.98
-3 -3 -10 276.94 28.77
-3 -4 10 22.8 8.54
-3 4 10 13.38 6.99
-3 -4 -10 18.7 6.73
3 4 -10 10.98 18.59
3 -4 -10 10.86 13.02
-4 0 0 5655.74 308.51
-4 0 0 5433.84 305.69
-4 0 0 5417.33 307.56
-4 0 0 4085.86 341.35
-4 0 0 5551.92 303.93
-4 0 0 6130.67 301.08
-4 0 0 4577.85 318.08
-4 0 0 4327.88 342.26
-4 0 0 5194.47 300.19
-4 0 0 4442.82 320.47
-4 0 0 5995.61 306.09
4 0 0 4521.57 350.22
-4 0 0 4644.29 319.6
-4 0 0 5588.83 308.31
4 0 0 4640.39 324.13
-4 0 0 5624.63 303.57
-4 -1 0 10.94 4.28
-4 -1 0 -4.6 7.8
-4 1 0 -4.58 7.77
-4 1 0 25.59 10.27
-4 -1 0 3.99 7.18
-4 1 0 18.32 5.9
-4 -1 0 16.02 5.91
-4 1 0 15.03 6.8
-4 1 0 7.06 7.33
-4 -1 0 18.18 9.37
-4 -1 0 7.9 3.2
-4 -1 0 17.57 3.43
-4 1 0 14.39 3.14
-4 -1 0 13.19 5.18
-4 1 0 12.87 14.52
-4 1 0 8.83 9.16
-4 -1 0 -2.21 5.94
-4 -1 0 7.17 2.22
-4 1 0 14.9 4.36
-4 -1 0 6.84 3.42
-4 1 0 11.14 2.91
4 1 0 10.92 4.78
-4 1 0 8.89 4.29
-4 -1 0 12.83 4.72
-4 1 0 18.03 4.29
-4 -1 0 9.79 3.74
4 1 0 -5.1 10.57
4 -1 0 5.14 13.76
4 -1 0 9.88 8.88
4 1 0 7.44 8.91
-4 -2 0 2497.22 122.37
-4 2 0 2014.33 120.75
-4 -2 0 1793.03 112.98
-4 -2 0 1999.01 119.76
-4 2 0 2080.34 118.62
-4 2 0 1922.5 157.86
-4 -2 0 2274.23 113.17
-4 2 0 1928.5 112.28
-4 -2 0 2021.47 114.62
-4 2 0 1994.34 128.71
-4 -2 0 1747.22 131.88
4 2 0 1964.35 162.69
-4 2 0 2139.83 159.48
-4 -2 0 1890.73 110.73
-4 2 0 1824.06 112.6
-4 -2 0 1721.41 131.89
-4 2 0 2104.34 116.37
-4 -2 0 1997.07 117.51
4 -2 0 1887.31 118.91
-4 -2 0 2009.72 114.95
-4 -2 0 1888.97 131.9
4 2 0 2158.93 121.98
-4 2 0 2022.71 119.89
-4 -2 0 2034.12 119.4
-4 2 0 1969.69 115.03
4 -2 0 1840.78 135.92
-4 3 0 -4.41 9.13
-4 -3 0 2.3 1.42
-4 -3 0 -3.91 4.68
-4 -3 0 0.91 1.54
-4 -3 0 4.46 2.98
-4 3 0 2.21 3.5
-4 -3 0 2.22 4.6
-4 -3 0 0.46 1.34
-4 -3 0 0.39 1.15
-4 -3 0 1.43 1.39
-4 -3 0 -0.93 1.93
-4 3 0 1.46 3.92
4 -3 0 3.59 2.84
-4 3 0 2.21 1.58
-4 -3 0 -4.33 7.32
-4 -3 0 1.1 0.93
-4 -3 0 -2.14 4.43
-4 3 0 2.31 1.83
-4 -3 0 0.77 1.3
-4 3 0 4.09 6.92
4 3 0 1.02 2.11
-4 3 0 1.85 2.47
-4 -3 0 0.52 1.4
-4 3 0 2.25 2.12
-4 -3 0 0.86 1.45
4 3 0 4.88 5.83
4 -3 0 2.4 4.96
-4 -4 0 165.08 34.55
-4 4 0 188.25 35.93
-4 -4 0 127.97 16.96
-4 -4 0 117.68 9.73
-4 4 0 150.46 18.58
4 -4 0 163.63 19.25
-4 -4 0 132.59 16.08
-4 -4 0 177.44 13.91
-4 -4 0 149.13 12.93
-4 -4 0 132.01 12.09
-4 -4 0 137.74 16.04
-4 4 0 179.48 20.51
-4 -4 0 179.86 26.59
-4 -4 0 141.83 9.97
-4 4 0 142.69 12.89
-4 4 0 169.96 24.65
-4 -4 0 193.29 25.93
-4 4 0 175.39 14.54
-4 -4 0 147.2 15.57
4 -4 0 131.19 15.49
-4 4 0 154.84 32.44
-4 -4 0 166.25 34.32
-4 -4 0 136.36 13.1
-4 -4 0 153.69 23.37
-4 4 0 120.44 20.44
4 4 0 143.2 16.95
4 4 0 179.31 37.38
-4 4 0 143.83 16.46
-4 4 0 141.41 13.63
-4 -4 0 173.14 17
4 -4 0 197.62 27.36
4 4 0 146.03 24.5
-4 5 0 -3.53 4.22
-4 -5 0 -1.88 3.88
4 -5 0 -1.29 3.09
-4 -5 0 2 2.67
-4 5 0 -0.74 1.26
-4 5 0 1.33 2.76
-4 -5 0 1.26 2.13
-4 -5 0 1.13 1.51
-4 -5 0 -1.01 2.08
-4 -5 0 -0.37 0.76
-4 5 0 -1.12 2.32
-4 -5 0 2.38 4.02
-4 5 0 2 3.39
-4 -5 0 2.01 2.4
-4 5 0 -3.84 6.49
-4 5 0 0.54 1.12
-4 -5 0 -4.17 7.05
4 -5 0 0.92 1.92
-4 -5 0 1.73 2.31
-4 5 0 2.97 2.37
4 5 0 -1.08 1.83
-4 5 0 1.21 1.62
4 -5 0 4.73 5.66
-4 -5 0 -0.89 2.12
4 -5 0 2.24 3.79
4 5 0 -2.27 3.84
-4 -6 0 13.38 5.62
-4 -6 0 12.09 9.68
-4 6 0 23.76 12.56
-4 -6 0 25.24 8.94
-4 6 0 30.34 9.5
4 -6 0 21.53 6.89
-4 -6 0 20.91 6.07
-4 6 0 10.03 5.22
-4 -6 0 15.47 3
-4 -6 0 11.41 4.57
-4 6 0 25.21 6.48
-4 -6 0 24.23 10.08
-4 6 0 25.01 8.65
-4 -6 0 26.91 9.24
-4 6 0 25.84 11.71
-4 -6 0 8.1 8.44
-4 6 0 21.31 4.75
4 -6 0 12.19 4.44
4 6 0 20.23 5.93
-4 6 0 16.05 4.24
4 -6 0 18.23 12.22
4 6 0 26 12.72
4 -6 0 21.72 9.04
4 6 0 8.8 5.95
-4 -6 0 18.2 5.41
-4 -7 0 3.85 4.61
-4 7 0 3.79 4.53
-4 -7 0 1.42 2.39
-4 -7 0 -1.74 2.08
-4 7 0 3.23 4.32
4 -7 0 -1.4 2.89
-4 7 0 -1.52 3.63
4 7 0 1.01 1.21
-4 -7 0 1.07 1.28
-4 7 0 -0.75 2
-4 -7 0 -2.47 4.17
-4 7 0 3.54 4.24
-4 7 0 -1.85 4.42
-4 -7 0 1.84 3.81
4 -7 0 -0.96 1.99
4 7 0 1.18 1.99
-4 7 0 -0.67 2.26
4 -7 0 1.78 1.85
4 -7 0 -2.08 3.51
4 7 0 -2.1 0.01
4 -7 0 -4.37 5.22
4 7 0 4.12 4.93
-4 -8 0 1690.96 116.82
-4 8 0 1959.7 120.76
4 -8 0 1767.98 117.2
-4 -8 0 1607.94 138.27
-4 8 0 2140.11 147.68
4 8 0 1739.51 106.47
-4 -8 0 1773 113.08
-4 -8 0 1797.06 128.96
4 -8 0 2086.8 152.33
4 8 0 2105.12 150.02
4 8 0 1793.63 102.34
-4 8 0 2013.54 123.21
-4 -8 0 1871.36 121.73
4 -8 0 1938.6 112.55
-4 -8 0 1823.74 144.04
4 -8 0 1814.12 111.74
-4 -8 0 1650.55 119.62
-4 8 0 1678.76 117.98
4 8 0 1893.57 115.75
4 -8 0 1991.6 126.53
4 8 0 1983.79 126.36
-4 -9 0 3.49 4.17
-4 9 0 6.89 7.13
-4 -9 0 3.17 4.23
4 -9 0 -1.53 3.66
-4 9 0 -1.66 5.61
4 9 0 1.26 1.99
-4 -9 0 1.18 2.82
-4 -9 0 5.04 6.74
4 9 0 0.53 1.39
-4 9 0 -1.68 4.92
-4 -9 0 6.64 5.25
4 -9 0 -1.02 2.11
4 -9 0 11.31 5.96
4 9 0 7.95 4.76
4 -9 0 5.2 4.12
4 9 0 1.89 3.2
4 -9 0 3.97 6.7
4 9 0 3.69 6.23
-4 -10 0 2535.14 169.99
-4 10 0 3094.04 174.83
4 -10 0 2979.34 172.24
-4 -10 0 2486.73 187.18
-4 10 0 2911.12 192.91
4 10 0 2689.69 159.29
-4 -10 0 2539.39 165.13
-4 -10 0 2871.83 183.55
4 10 0 2543.16 153.79
4 -10 0 3150.64 201.68
-4 10 0 2983.74 172.15
-4 -10 0 2769.21 170.52
4 -10 0 2992.98 165.06
4 -10 0 2883.23 165.2
4 10 0 3243.71 171.36
-4 -11 0 -3.12 5.27
-4 11 0 3.1 6.42
4 -11 0 -1.67 3.45
-4 -11 0 1.78 3.02
-4 11 0 -1.76 5.57
4 11 0 0.8 2.14
-4 -11 0 2.61 2.7
-4 -11 0 -2.55 8.06
-4 11 0 4.49 4.38
-4 -11 0 -1.46 4.28
4 11 0 1.78 1.75
4 -11 0 -2.24 3.79
4 11 0 -1.5 3.1
4 -11 0 2.4 3.79
-4 12 0 1079.75 76.9
-4 -12 0 839.9 73.29
4 -12 0 838.37 72.06
-4 12 0 1040.33 88.16
4 12 0 1126.07 64.48
4 12 0 1036.61 66.23
-4 -12 0 954.56 70.66
-4 -12 0 914.85 80.91
4 12 0 934.29 59.23
-4 12 0 980.2 71.45
-4 -12 0 937.36 70.3
4 -12 0 1117.58 70.19
4 -12 0 1012.62 69.82
4 12 0 1180.81 76.13
-4 13 0 2.78 4.7
-4 -13 0 -1.98 2.37
4 -13 0 -1.78 3.01
-4 13 0 -1.82 5.34
4 13 0 2.3 2.24
-4 -13 0 1.46 3.49
-4 -13 0 -1.29 3.45
4 13 0 -0.95 1.39
4 -13 0 -1.25 2.58
4 13 0 -1.72 3.56
4 -13 0 4.12 4.03
-4 14 0 20.95 10.46
-4 -14 0 18.88 9.13
4 -14 0 18.39 7.72
-4 14 0 16.71 8.69
4 14 0 31.48 6.77
-4 -14 0 19.91 7.66
-4 -14 0 16.91 6.09
4 14 0 23.88 4.85
4 -14 0 35.46 8.7
4 14 0 33.35 10.47
4 -14 0 29.18 8.28
4 -15 0 1.89 3.2
-4 -15 0 2.21 5.29
-4 15 0 5.61 5.48
4 15 0 0.89 2.14
-4 -15 0 -1.62 3.86
4 15 0 0.62 1.82
4 -15 0 1.41 1.69
4 15 0 -1.99 4.75
4 -16 0 32.18 10.35
-4 -16 0 32.52 11.32
-4 16 0 62.11 14.22
-4 -16 0 27.27 9.14
4 16 0 39.57 7.15
4 -16 0 57.58 11.64
4 16 0 49.09 13.19
4 -17 0 1.92 3.97
-4 -17 0 -2.43 5.81
-4 17 0 -1.89 4.51
-4 -17 0 -1.8 3.73
4 17 0 -0.79 2.32
4 -17 0 1.57 2.66
-4 -17 0 1.07 3.37
4 17 0 2.28 5.45
-4 18 0 793.92 60.37
4 -18 0 729.4 58.48
-4 -18 0 517.34 59.01
4 18 0 574.75 45.81
4 -18 0 658.8 54.95
4 18 0 918.69 68.9
-4 19 0 -1.88 7.45
-4 -19 0 -2.64 7.05
4 -19 0 -1.96 5.24
4 19 0 -0.96 3.04
4 -19 0 1.72 4.6
-4 -19 0 3.53 3.72
4 19 0 2.58 5.33
-4 20 0 1076.15 72.25
4 -20 0 817.31 66.95
4 20 0 632.97 55.26
4 -20 0 827.13 65.39
4 20 0 1170.56 82.67
4 -21 0 3.82 4.57
4 -21 0 3.73 4.47
-4 -21 0 7.58 5.45
4 21 0 -2.83 4.79
-4 0 1 -1 2.06
-4 0 1 -4.6 5.5
-4 0 -1 0.5 1.47
-4 0 1 -0.85 2.03
-4 0 1 1.92 1.99
-4 0 -1 2.4 2.14
-4 0 -1 -4.82 8.15
-4 0 1 1.96 4.07
-4 0 1 0.94 0.97
-4 0 1 0.67 1.59
-4 0 1 -0.77 1.84
-4 0 1 -2.19 3.7
-4 0 1 1.18 1.05
-4 0 -1 2 1.78
-4 0 1 0.63 1.51
-4 0 -1 0.6 0.72
4 0 1 2.55 4.31
-4 0 1 1.64 1.7
-4 0 -1 -0.9 1.08
-4 0 1 -0.47 0.98
-4 0 -1 0.57 1.37
4 0 1 5.33 9.01
-4 0 1 -4.28 5.12
-4 0 1 4.03 4.17
-4 -1 1 41.16 18.34
-4 1 1 54.9 19.92
-4 1 1 55.25 8.5
4 -1 1 57.32 10.6
-4 1 -1 56.9 7.89
-4 -1 -1 53.44 6.49
-4 -1 1 52.15 9.1
-4 -1 -1 58.37 9.27
-4 1 -1 66.99 9.54
-4 1 1 56.09 10.5
-4 -1 1 45.24 8.25
-4 -1 1 45.16 8.86
-4 -1 1 51.23 8.3
-4 -1 -1 28.9 15.49
-4 1 -1 42.95 18.25
-4 1 -1 53.39 4.03
-4 -1 1 38.94 11.56
-4 -1 1 61.55 7.38
-4 1 1 57.98 13.33
-4 1 1 63.38 7.26
-4 -1 1 45.67 7.23
-4 -1 -1 45.79 8.77
-4 -1 1 60.32 8.26
-4 -1 -1 52.44 6.28
-4 -1 -1 35.75 3.85
-4 -1 1 42.39 5.58
-4 1 1 61.27 6.81
-4 1 1 54.52 14.54
-4 -1 1 49.97 13.28
-4 1 -1 48.02 5.19
-4 1 -1 54.86 7.82
-4 1 1 76.33 8.71
-4 -1 -1 53.78 8.09
-4 -1 1 56.71 8.1
-4 -1 -1 59.16 7.75
4 -1 1 40.42 13.11
4 1 1 38.25 12.87
-4 1 1 59.15 19.76
4 -1 1 26.57 15.81
4 1 1 31.73 16.96
-4 1 1 45.82 13.12
-4 -1 1 40.46 12.4
-4 1 1 64.03 9.42
-4 1 -1 49.88 8.71
-4 -1 1 52.48 8.54
-4 -1 -1 59.38 9.48
-4 1 1 54.22 6.95
-4 -1 1 58.44 6.92
-4 1 -1 58.23 7.78
-4 2 -1 5.85 2.78
-4 2 1 18.13 10.84
-4 -2 -1 5.19 1.84
-4 -2 1 10.32 4.2
4 -2 1 4.66 3.13
-4 2 1 6.18 3.92
-4 -2 -1 5.91 3.36
-4 -2 1 4.9 2.79
-4 2 -1 4.68 2.65
-4 -2 1 4.4 3.23
-4 2 -1 4.68 5.6
-4 -2 1 2.12 3.6
-4 -2 1 5.77 2.3
-4 2 1 7.09 5.62
-4 -2 1 6.22 2.69
-4 2 -1 5.09 1.11
-4 -2 1 5.06 2
-4 2 1 6.33 2.34
-4 -2 -1 5.97 2.92
-4 -2 1 6.49 2.92
-4 -2 -1 2.05 3.48
-4 -2 -1 3.62 1.7
-4 2 -1 4.52 1.57
-4 -2 1 -2.14 2.57
-4 -2 1 3.13 1.58
-4 2 -1 4.31 2.22
-4 2 1 6.31 2.58
-4 -2 -1 3.61 2.3
-4 -2 1 4.96 2.55
-4 2 1 2.73 1.82
4 2 -1 6.48 3.14
-4 2 1 2.57 2.06
4 -2 1 2.48 5.14
-4 2 -1 7.55 3.58
-4 2 1 5.69 2.41
-4 2 -1 4.13 2.13
-4 -2 1 5.46 2.19
-4 -2 1 8.88 3.35
-4 -2 -1 3.6 2.86
-4 2 1 4.14 4.96
-4 -2 -1 7 2.8
-4 -2 1 10.09 5.92
4 2 1 -5.2 0.25
-4 3 1 159.91 34.83
-4 -3 1 236.32 23.84
-4 3 1 186.98 23
-4 -3 1 223.85 18.07
-4 3 -1 245.98 21.64
4 -3 1 160.2 20.99
-4 -3 1 261.98 23.22
-4 -3 -1 166.09 19.09
-4 3 1 259.33 21.25
-4 3 -1 246.71 43.27
-4 -3 -1 222.84 21.96
-4 -3 1 228.54 18.75
-4 -3 1 243.98 17.73
-4 3 -1 182.74 13.78
-4 -3 -1 221.73 15.91
-4 -3 1 203.1 17.56
-4 -3 1 228.35 20.68
-4 -3 -1 207.67 29.99
-4 -3 1 236.99 30.66
-4 3 1 234.54 27.25
-4 -3 1 218.83 15.85
-4 3 1 246.43 41
-4 -3 1 245.09 42.81
-4 3 1 219.79 17.49
-4 -3 1 217.75 28.93
-4 3 -1 245.85 19.16
-4 -3 -1 213.81 29.54
-4 3 1 237.51 18.44
-4 -3 -1 231.04 20.17
-4 -3 1 241.38 20.45
4 -3 -1 231.29 20.8
-4 -3 1 212.89 17.03
-4 -3 -1 212.62 18.14
4 -3 1 214.92 30.82
-4 -3 1 220.2 28.69
4 3 -1 228.25 21.69
4 3 1 187.73 41.52
-4 3 1 233.36 21.31
-4 3 -1 235.18 22.18
-4 -3 1 238.13 20.74
-4 3 1 241.24 18.36
-4 -3 -1 200.89 20.52
-4 3 -1 231.73 18.73
-4 -4 -1 41.12 16.43
-4 4 -1 8.83 9.22
-4 4 -1 17.85 5.92
-4 -4 1 20.01 6.44
-4 -4 1 17.24 11.58
-4 4 1 17.3 11.62
4 -4 1 36.62 8.48
-4 -4 1 19.41 5.97
-4 4 1 29.95 8.08
-4 -4 -1 17.13 5.18
-4 4 1 29.52 6.11
-4 -4 1 19.71 3.68
-4 -4 1 13.43 7.17
-4 4 1 24.72 8.54
-4 -4 -1 17.38 3.28
-4 -4 1 28.58 4.94
-4 -4 1 28.12 5.23
-4 -4 -1 15.77 5.45
-4 -4 1 22.95 5.7
-4 -4 -1 25.37 11.09
-4 -4 1 24.73 4.49
4 -4 -1 23.82 5.78
-4 4 1 17.75 4.19
-4 4 1 24.84 8.99
-4 -4 1 34.55 10.65
-4 -4 1 18.04 3.24
-4 4 -1 22.2 4.72
-4 4 1 25.75 4.75
-4 4 -1 10.69 6.86
-4 -4 -1 26.26 9.5
-4 -4 1 26.01 5.86
4 4 -1 23.12 6.09
-4 4 1 17.34 5.13
-4 4 -1 21.78 6.02
4 -4 1 14 7.47
4 4 1 12.05 7.15
-4 4 1 15.69 4.03
-4 4 -1 24.69 5.08
-4 -4 1 23.95 4.41
-4 4 1 15.73 10.58
-4 -4 1 25.49 13.49
-4 -4 -1 20.06 5.67
4 4 1 29.43 15.56
-4 -4 1 25.19 5.94
-4 4 1 20.49 8.11
-4 -4 1 11.82 6.34
-4 -5 -1 4.41 5.27
-4 5 -1 -4.24 0.03
-4 5 -1 -1.12 2.31
-4 -5 1 -4.16 0.03
-4 -5 1 1.33 2.26
4 -5 1 -1.32 1.58
-4 -5 -1 -0.93 1.58
-4 5 1 3.01 3.12
-4 -5 -1 -1.24 2.09
-4 5 1 1.49 1.78
-4 -5 1 0.63 0.84
-4 -5 -1 1.74 1.09
-4 -5 1 4.59 3.88
-4 5 1 -1.41 3.78
-4 -5 1 2.4 1.9
-4 -5 1 0.54 1.45
-4 -5 1 0.46 1.11
-4 -5 -1 2.17 2.25
-4 -5 1 0.91 1.55
-4 -5 -1 -2.41 4.07
-4 5 1 0.61 0.73
-4 5 1 2.01 4.15
-4 -5 1 1.96 3.31
-4 -5 1 0.3 0.89
-4 5 -1 1.73 1.83
-4 5 1 3.59 2.04
-4 5 -1 -2.06 0.03
-4 -5 -1 -2.11 3.57
4 -5 1 0.98 1.17
-4 -5 1 0.86 2.29
4 -5 -1 -0.86 1.03
-4 5 1 -1.79 3.03
-4 -5 1 1.92 3.97
-4 5 1 2.85 2.27
4 -5 1 2.25 3.8
4 5 -1 1 1.69
4 5 1 2.33 2.78
-4 5 1 0.61 1.27
-4 5 -1 0.63 1.52
-4 5 1 3.8 7.87
-4 -5 1 4.18 7.07
-4 -5 1 0.47 1.25
4 -5 -1 0.72 1.5
4 -5 1 4.82 5.77
4 5 1 -4.72 0.03
-4 -5 1 0.84 1.41
-4 -6 -1 4.22 5.06
-4 6 -1 -4.05 6.85
-4 6 -1 7.41 4.44
-4 -6 1 24.02 12.67
-4 6 1 4.04 6.83
-4 -6 1 17.03 6.13
4 -6 1 16.61 5.98
-4 -6 -1 9.6 3.99
-4 6 1 14.17 6.53
-4 6 1 8.72 3.49
-4 -6 -1 11.76 4.95
-4 -6 1 23.31 9.66
-4 6 1 17.87 6.11
-4 -6 1 1.81 2.06
-4 -6 1 6.97 2.47
-4 -6 -1 5.77 1.51
-4 -6 -1 4.52 3.04
-4 -6 1 6.68 3.25
4 6 -1 3.54 1.97
-4 6 1 4.62 2.52
-4 6 1 7.73 6.12
-4 -6 1 15.03 6.75
-4 6 1 -3.66 6.21
-4 6 1 10.78 3.21
-4 6 -1 7.83 5.25
-4 -6 -1 14.09 7.23
4 -6 1 6.96 3.38
4 -6 -1 7.04 3.51
-4 6 1 11.89 4.75
4 -6 1 17.17 8.12
4 6 1 -2.23 3.79
4 6 -1 12.47 4.49
-4 6 1 5.27 2.86
-4 6 1 6.91 5.07
-4 -6 1 3.73 3.88
-4 -6 1 4.08 6.9
4 -6 -1 13.32 4.2
4 -6 1 -4.64 7.85
4 6 1 4.5 7.62
-4 -6 1 8.61 3.73
-4 -7 -1 209.47 38.82
-4 -7 1 229.5 39.27
-4 -7 -1 217.39 24.78
-4 7 1 265.11 28.84
-4 -7 1 228.38 26.17
-4 7 -1 239.54 25.46
4 -7 1 291.43 28.41
-4 -7 -1 268.73 23.84
-4 7 -1 258.05 41.09
-4 7 1 239.77 39.66
-4 -7 1 211.89 19.59
4 7 1 191.36 16.87
-4 -7 -1 228.63 23.71
-4 -7 1 202.57 21.9
-4 -7 1 239.83 32.25
-4 7 1 275.68 25.29
-4 7 1 253.29 39.04
-4 -7 1 225.15 39.86
4 7 -1 269.36 18.19
-4 7 1 219.13 20.16
-4 7 1 246.3 29.21
-4 -7 1 231.28 28.45
-4 7 -1 250.15 29.56
-4 -7 -1 230.27 28.81
4 -7 1 226.09 22.41
4 -7 -1 220.24 21.53
4 -7 1 287.71 46.07
4 7 1 243.68 41.9
4 -7 -1 238.02 21.62
4 -7 1 253.23 31.18
4 7 1 212.27 29.5
-4 7 1 239.72 28.31
-4 -7 1 255.41 29.7
4 7 -1 255.58 24.07
-4 7 1 231.59 20.42
-4 -8 -1 167.72 34.15
-4 8 -1 203.99 35.84
-4 -8 1 193.6 34.58
-4 -8 -1 141.09 21.04
-4 8 1 206.99 25.81
-4 -8 1 210.01 25.2
-4 8 -1 205.26 24.31
4 -8 1 207.5 24.62
-4 -8 -1 197.4 21.42
-4 8 1 255.46 39.72
-4 -8 1 220.8 20.11
4 8 1 183.88 16.3
4 8 -1 225.46 18.75
-4 -8 -1 190.4 21.58
-4 -8 1 198.42 21.21
-4 -8 1 237.2 31.84
-4 8 1 269.44 23.12
-4 8 1 225.78 36.23
-4 -8 1 251.22 40.24
4 8 -1 198.55 16.11
-4 8 1 226.57 27.15
-4 -8 1 238.21 27.51
-4 8 -1 237.45 27.74
-4 -8 -1 190.93 26.18
4 -8 1 201.9 21.39
4 -8 -1 214.63 20.56
4 8 1 247.19 41.24
4 -8 -1 201.74 20.29
4 -8 1 251.8 29.91
4 8 1 225.45 28.99
-4 8 1 207.53 25.65
-4 -8 1 223.43 27.44
4 -8 1 197.96 37.7
4 8 -1 211.09 22.29
-4 9 -1 59.83 12.44
-4 -9 -1 79.37 20.85
-4 9 -1 37.92 15.63
-4 -9 -1 39.99 10.23
-4 -9 1 52.01 17.78
-4 9 1 63.41 19.01
-4 -9 1 53.08 12.04
4 -9 -1 34.01 9.54
4 -9 1 57.4 12.18
-4 9 1 50.14 12.67
-4 -9 1 38.81 12.9
-4 -9 1 42.69 8.78
4 9 1 41.75 6.74
4 9 -1 42.94 7.45
-4 9 1 51.41 8.64
-4 -9 -1 39.94 9.32
-4 -9 1 51.1 9.94
-4 9 1 58.99 12.69
-4 -9 1 46.73 11.2
-4 -9 1 58.37 19.19
4 9 -1 52.78 6.58
-4 9 -1 43.65 11.11
-4 -9 -1 68.66 14
-4 9 1 54.79 17.85
4 -9 1 47.84 9.37
4 -9 -1 45.87 8.63
4 9 -1 38.23 9.09
4 -9 -1 44.19 8.71
4 -9 1 36.04 15.36
4 9 1 57.28 19
-4 9 1 53.9 12.02
-4 -9 1 50.86 11.72
4 -9 1 42.46 11.96
4 9 1 53.58 13.2
-4 10 -1 20.93 7.5
-4 10 -1 13.05 8.75
-4 -10 -1 11.36 6.18
-4 10 1 6.69 6.97
-4 -10 1 14.51 7.24
4 -10 -1 19.95 6.91
4 -10 1 16.48 7.41
-4 10 1 14.07 6.7
-4 -10 1 9.72 6.54
-4 10 1 16.09 4.28
4 10 1 16.85 4.41
4 10 -1 22.41 5.36
-4 -10 -1 19.41 6.61
-4 -10 1 19.22 6.31
-4 -10 1 7.6 5.2
-4 -10 1 10.42 8.34
-4 -10 -1 9.71 5.18
4 -10 1 1.14 5.49
4 10 -1 14.13 3.43
4 -10 -1 20.06 5.8
-4 10 1 14.2 6.4
4 10 -1 18.54 6.57
4 10 1 14.88 6.21
4 -10 -1 16.24 5.39
4 -10 1 26.53 12.84
4 10 1 21.66 11.45
4 -10 1 5.28 4.28
4 10 1 27.27 8.73
-4 11 -1 75.39 14.29
-4 -11 -1 52.82 12.03
4 -11 1 95.58 15.94
-4 -11 1 23.07 9.11
4 -11 -1 46.03 10.74
-4 11 1 34.08 10.68
-4 -11 1 46.1 14.04
4 11 -1 55.66 8.66
4 11 1 51.84 8.36
4 11 -1 53.45 8.88
-4 11 1 42.42 5.65
-4 -11 -1 37.71 9.17
-4 -11 1 50.07 10.36
4 11 -1 44.87 6.58
4 11 1 21.74 2.78
4 -11 -1 63.21 10.09
4 -11 1 56.29 10.31
-4 -11 1 43.04 10.04
4 11 -1 52.31 11.25
4 11 1 56.83 12.09
4 -11 -1 51.47 9.78
4 -11 1 50.36 17.31
4 11 1 44 16.3
4 -11 1 45.2 11.31
4 11 1 51.63 12.15
-4 12 1 189.38 24.61
-4 -12 -1 124.38 20.21
-4 12 -1 174.59 23.29
-4 -12 1 130.36 21.83
4 -12 -1 175.96 22.45
4 -12 1 173.98 23.79
4 12 -1 187.27 17.44
4 12 1 172.49 17.58
-4 -12 -1 168.08 20.52
-4 -12 1 143.96 19.09
4 12 -1 146.8 13.88
4 12 1 93.93 9.28
4 -12 1 182.18 20.13
4 -12 -1 149.63 17.4
4 -12 1 138.89 27.88
4 12 1 164.9 29.34
4 12 -1 171.41 21.3
4 12 1 168.18 22
4 -12 1 152.85 20.71
4 12 1 169.38 22.09
4 -12 -1 169.86 19.47
-4 13 -1 122.3 20.03
-4 -13 -1 89.59 17.7
-4 13 1 141.36 21.26
4 -13 1 116.1 19.33
4 -13 -1 98.46 17.34
-4 -13 1 116.06 21.19
4 13 1 121.25 14.87
-4 -13 -1 104.02 16.71
4 13 -1 127.53 14.64
-4 -13 1 79.31 15.04
4 13 1 110.85 11.76
4 13 1 76.76 8.24
4 13 -1 101.88 11.78
4 -13 -1 141.11 16.97
4 -13 1 100.32 15.4
4 -13 1 137.17 26.5
4 13 1 112.81 23.44
4 13 -1 159.91 20.8
4 13 1 159.8 21.69
4 -13 1 123.51 18.29
4 13 1 125.6 18.02
4 -13 -1 115.76 16.64
-4 14 -1 19.87 8.13
-4 -14 -1 8.02 7.24
4 -14 -1 15.54 6.58
4 -14 1 15.55 7.02
-4 14 1 20.38 8.33
-4 -14 1 6.78 5.47
-4 14 -1 15.72 6.9
4 14 1 18.77 4.75
-4 -14 -1 23.49 7.99
-4 -14 1 9.19 5.85
4 14 1 10.93 2.92
4 14 -1 19.95 4.97
4 -14 1 28.32 8.16
4 -14 -1 24.93 7.2
4 -14 1 18.37 6.6
4 14 -1 19.32 7.62
4 14 1 23.14 8.67
4 -14 -1 15.99 6.78
4 -14 1 18 10.8
4 14 1 25.76 7.7
-4 15 -1 10.99 6.2
-4 -15 -1 -2.1 0.03
4 -15 -1 -1.77 2.98
4 -15 1 -2 3.38
-4 15 1 1.86 3.14
-4 -15 1 2.37 2.83
4 15 1 1.47 1.96
-4 -15 1 -2.42 5.78
-4 -15 -1 1.65 3.42
-4 -15 1 3.26 3.9
4 15 1 0.9 1.43
4 15 -1 0.79 1.88
4 -15 1 1.48 3.07
4 -15 -1 1.31 2.22
-4 -15 1 0.88 2.1
4 15 -1 5.7 3.93
4 -15 -1 -1.55 3.72
4 15 1 -2.06 3.48
-4 -16 1 108.83 23.3
-4 16 1 222.45 27.21
-4 16 -1 222.14 27.6
4 -16 1 167.72 24.31
-4 -16 -1 137.57 24.03
4 -16 -1 100.36 19.33
-4 -16 -1 169.96 23.11
4 16 1 159.45 16.54
-4 -16 1 132.89 25.59
4 16 1 121.23 13.35
4 16 -1 185.54 18.2
4 -16 1 170.83 22.12
4 -16 -1 170.86 20.98
4 16 -1 197.99 26.5
4 16 1 237.8 29.58
4 -16 -1 153.58 21.64
-4 17 -1 121.05 20.54
-4 -17 1 64.33 18.51
4 -17 -1 101.28 17.76
4 -17 1 107.91 19.83
-4 17 1 119.89 19.91
-4 -17 1 96.31 21.08
-4 -17 -1 88.35 17.58
4 17 1 76.48 10.48
4 17 -1 106.49 14.23
4 -17 1 118.38 18.63
4 -17 -1 104.54 16.49
4 17 1 100.8 19.79
-4 -17 1 102.55 13.84
4 17 -1 160.07 23.8
4 -17 -1 110.5 18.47
4 -17 1 133.99 19.73
-4 18 -1 115.73 19.97
-4 -18 1 84.77 20.66
4 -18 -1 101.47 17.79
4 -18 1 112.78 19.83
-4 18 1 97.97 18.85
-4 -18 1 93.15 20.81
-4 -18 -1 72.2 16.83
4 18 1 79.64 11.19
4 -18 1 123.33 19.13
4 -18 -1 97.05 16.23
4 18 -1 77.14 12.85
4 -18 -1 81.53 16.41
4 18 -1 114.72 20.8
4 -18 1 93.03 17.63
4 18 1 119.53 22.25
-4 -18 -1 97.7 14.58
-4 -18 1 86.96 13.27
-4 19 -1 26.01 9.75
-4 -19 1 16.24 9.22
4 -19 -1 21.63 8.69
4 -19 1 33.37 10.34
-4 19 1 33.89 10.62
4 19 1 13.44 5.04
4 19 -1 26.01 7.24
4 -19 1 20.07 8.24
4 -19 -1 19.42 7.32
-4 -19 -1 13.9 5.96
-4 -19 1 21.87 6.63
4 -19 -1 22.66 8.22
4 -19 1 30.42 9.71
4 19 -1 27.38 11.19
4 19 1 15.79 8.4
-4 20 -1 164.8 24.37
4 -20 1 287.21 31.33
4 -20 -1 149.31 22.31
-4 -20 1 65.85 20.89
-4 20 1 128.46 23
4 20 -1 114.81 17.01
4 -20 1 136.35 21.42
4 -20 -1 125.49 19.61
-4 -20 -1 125.01 18.36
-4 -20 1 154.04 18.2
4 20 -1 189.22 28.98
4 20 1 187.26 29.54
4 -20 -1 160.4 23.73
4 -20 1 171.86 24.15
-4 -21 -1 27.36 11.92
-4 -21 1 13.84 10.08
4 -21 1 54.88 13.42
4 21 -1 32.11 8.45
4 -21 1 32.9 10.23
4 -21 -1 22.94 8.35
-4 -21 -1 32.71 8.94
4 -21 -1 30.2 10.07
4 -21 1 46.29 12.39
4 21 -1 52.19 15.5
4 21 1 34.52 12.98
-4 0 2 184.21 20.2
-4 0 2 273.12 22.72
-4 0 2 262.83 18.16
-4 0 2 236.27 18
-4 0 2 220.88 18.25
4 0 2 215.9 24.82
-4 0 2 256.6 28.74
-4 0 2 225.62 18.62
-4 0 -2 131.32 10.18
-4 0 2 239.57 15.93
-4 0 -2 125.94 10.17
-4 0 2 270.28 18.04
4 0 2 240.52 21.14
4 0 2 203.26 30.54
-4 0 2 260.5 19.54
-4 0 2 253.39 15.95
4 0 2 148.88 37.34
-4 1 2 3.9 2.88
-4 -1 2 4.51 3.04
-4 1 -2 9.88 3.17
-4 1 2 6.15 3.91
4 1 2 7.31 4.34
4 1 2 10.67 4.61
4 -1 2 11.21 5.17
-4 1 2 6.14 2.99
-4 -1 2 2.11 3.11
-4 -1 -2 5.86 3.19
-4 -1 2 7.11 2.84
-4 1 2 5.54 3.01
4 1 2 -1.72 4.61
-4 -1 2 11.79 6.65
-4 -1 -2 7.1 1.84
-4 -1 2 13.66 3.58
-4 1 2 9.86 3.31
-4 1 2 7.27 3.08
-4 1 2 9.55 3.58
-4 -1 2 8.41 3.04
-4 -1 2 9.05 3.27
4 -1 2 12.06 4.51
-4 1 -2 5.81 1.51
-4 1 -2 6.5 1.79
-4 -1 2 7.94 2.52
-4 1 2 4.58 2.14
-4 1 2 8.1 2.79
-4 -1 2 4.55 2.48
4 1 2 6.81 3.86
-4 1 2 7.93 3.44
-4 1 2 5.36 2.29
-4 -1 2 9.41 2.73
-4 -1 2 6.79 2.88
-4 1 -2 5.1 2.55
-4 -1 -2 9.05 3.11
4 -1 2 -5.7 0.37
4 1 2 5.69 9.63
4 -1 2 10.71 7.85
4 1 2 8.14 6.5
-4 2 2 194.75 17.9
-4 2 2 221.21 20.83
-4 -2 2 170.42 19.57
4 2 2 208.14 20.75
-4 2 2 226.54 24.43
4 -2 2 208.9 23.74
-4 -2 2 205.44 22.7
-4 2 -2 210.15 18.25
-4 2 2 171 18.62
-4 -2 -2 221.72 20.54
-4 -2 -2 206.29 21.47
-4 -2 2 226.93 18.81
-4 -2 -2 182.69 13.57
-4 -2 2 216.21 18.54
-4 -2 2 208.36 18.97
-4 -2 2 237.95 20
-4 -2 2 225.02 29.18
4 2 2 206 27.51
-4 -2 2 219.29 16.69
-4 2 2 203.96 17.03
-4 2 2 232.37 17.71
-4 -2 2 220.04 18.92
4 -2 2 185.11 20.3
4 -2 2 243.71 33.47
4 2 2 232.95 23.01
-4 2 2 228.82 20.11
-4 -2 2 223.74 19.64
-4 2 2 222.02 17.46
-4 -2 2 213.07 16.11
4 2 2 179.19 42.27
-4 3 -2 -0.73 3.14
-4 -3 2 -1.31 3.51
4 3 2 1.55 3.34
-4 -3 2 0.85 2.7
4 -3 2 2.78 4.7
-4 3 2 4.14 4.04
4 -3 2 1.24 2.97
-4 3 2 -0.81 1.94
-4 -3 -2 2.6 3.11
-4 3 2 2.48 2.42
-4 -3 2 2.09 4.32
4 3 2 2.04 5.98
-4 -3 2 1.84 1.94
-4 -3 -2 3.36 3.28
-4 -3 2 -0.76 1.82
-4 -3 2 2.93 2.32
-4 -3 2 2.49 1.97
-4 -3 2 3.13 1.93
-4 3 2 1.03 1.63
-4 -3 2 3.01 2.38
-4 3 2 -0.57 1.36
4 -3 2 1.01 1.71
4 3 -2 1.73 2.53
4 3 2 1.17 2.8
-4 3 2 1.67 2.45
-4 3 2 0.58 1.82
-4 -3 2 2.76 1.7
4 3 2 5.46 13.05
-4 -3 2 4.51 2.69
4 -3 2 2.54 4.3
4 -4 2 2257.03 160.88
4 4 2 2568.01 154.54
-4 -4 2 2304.65 154.94
4 -4 2 2523.03 164.3
-4 4 2 2426.71 163.52
-4 -4 2 2803.38 165.5
-4 4 -2 2855.49 158.21
-4 4 2 3149.06 158.67
-4 -4 -2 3326.59 160.69
-4 -4 2 2825.04 155.04
-4 -4 2 2610.43 154.27
-4 -4 2 2773.63 156.72
-4 -4 -2 2563.36 160.7
-4 -4 2 2477.04 156.19
-4 -4 2 2867.89 175.18
4 4 2 2342.57 171.57
-4 -4 2 2711.08 152.34
-4 4 2 2559.8 154.28
4 4 -2 2862.37 154.28
4 4 2 3008.17 213.19
-4 4 2 3057.74 153.82
-4 -4 2 2588.32 156.7
4 -4 2 2815.17 178.48
4 4 2 2595.12 177.63
4 4 -2 2704.85 158.26
4 4 2 2696.75 162.12
-4 4 2 2653.1 157.74
-4 4 2 2785.88 155.1
-4 -4 2 2539.22 156.17
-4 -4 2 2612.31 151.51
-4 5 -2 7.5 5.3
-4 -5 2 13.67 6.83
4 -5 2 11.85 7.11
-4 -5 2 13.95 4.22
-4 5 2 13.64 7.5
4 -5 2 12.19 6.31
-4 5 2 14.43 4.94
-4 -5 -2 17.08 6.21
-4 -5 2 19.67 9.44
-4 -5 2 17.6 4.93
-4 -5 2 16.49 4.41
-4 5 -2 6.6 1.44
-4 -5 2 9.77 3.63
-4 -5 -2 21.18 6.63
-4 -5 2 15.32 5.33
4 -5 -2 20.88 5.3
-4 5 2 13.95 4.18
4 5 -2 17.25 4.36
-4 -5 2 19.75 3.92
-4 5 2 19.39 4.09
-4 -5 2 11.92 4.49
4 5 -2 16.38 5.48
-4 5 2 12.74 4.66
4 5 2 16.06 6.47
-4 5 2 17.26 5.07
4 -5 -2 16.24 4.56
-4 -5 2 17.54 3.58
4 -5 2 30.57 17.24
4 5 2 5.06 12.11
4 -5 2 16.4 9.73
4 5 2 12.38 9.38
-4 -5 2 16.32 4.96
-4 6 -2 2035.14 116.25
4 -6 2 2157.22 124.02
-4 -6 2 1755.35 106.99
-4 6 2 2044.68 122.74
-4 -6 2 1846.39 121.62
4 -6 2 911.49 110.86
-4 -6 -2 2210.83 115.58
-4 6 2 2549.43 114.59
-4 6 -2 1540.26 104.07
-4 -6 2 2010.98 110.96
4 6 2 1589.43 104.32
-4 -6 -2 1994.79 117.99
-4 -6 2 1917.74 113.78
-4 -6 2 2016.35 130.82
-4 -6 2 1975.12 107.5
4 6 -2 2152.82 110.02
-4 6 2 1928.26 111.43
4 -6 2 2169.2 162.17
4 6 2 2160.18 162.43
-4 6 2 2357.11 109.41
4 -6 -2 1907.63 112.16
4 -6 -2 1947.42 111.62
-4 -6 2 1855.31 106.71
4 -6 2 2096.96 131.76
4 6 2 2091.33 133.38
-4 6 2 1970.23 114.34
4 6 -2 1903.89 113.92
4 6 2 2038.84 118.9
-4 6 2 2041.63 112.39
-4 7 -2 1.16 2.77
-4 -7 2 -1.72 4.12
-4 7 2 -3.25 4.35
-4 -7 2 1.78 1.29
4 -7 2 2.97 3.55
-4 -7 -2 1.88 2.75
-4 7 2 0.72 1.73
-4 -7 -2 -1.39 3.32
-4 -7 2 -4.52 6.62
-4 7 -2 1.47 1.64
-4 -7 2 0.7 1.88
4 7 2 0.68 1.28
-4 -7 -2 1.25 2.59
-4 -7 2 0.99 2.05
4 7 -2 0.57 1.93
-4 7 2 0.79 1.63
-4 -7 2 0.45 1.78
4 -7 -2 2.5 2
4 -7 2 2.13 4.4
-4 7 2 -0.82 2.76
4 7 -2 -1 2.07
4 7 2 1.34 2.26
4 -7 -2 1.62 2.17
-4 -7 2 -0.41 1.2
4 7 2 -2.26 3.83
4 -7 2 4.63 5.53
-4 -8 2 378.3 39.89
-4 -8 -2 379.88 36.71
-4 8 2 437.7 40.3
-4 8 -2 460.96 37.49
4 -8 2 379.62 37.92
-4 -8 -2 512.26 35.94
-4 -8 2 390.91 31.49
-4 8 -2 351.15 27.84
4 8 2 394.77 27.76
-4 -8 -2 368.92 35.14
-4 -8 2 379.46 33.46
-4 -8 2 418.32 44.71
4 8 -2 487.93 30.75
4 -8 2 549.93 64.95
4 8 2 469.63 60.35
4 -8 -2 447.84 32.99
4 -8 -2 436.43 33.05
4 -8 2 477.95 45.09
4 8 2 432.33 43.95
4 8 -2 415.19 34.23
4 8 2 450.92 38.08
-4 8 2 414.76 33.14
-4 -9 -2 12.35 5.23
-4 9 -2 8.2 4.91
-4 -9 2 7.79 5.21
-4 9 2 6.88 5.04
4 -9 2 6.73 4.51
-4 -9 -2 4.05 2.98
-4 -9 2 6.99 5.58
-4 -9 2 4.17 3.17
-4 9 -2 10.03 3.47
4 9 2 2.72 1.87
-4 -9 -2 3.97 3.89
-4 -9 2 4.57 3.07
4 9 -2 9.83 3.22
4 -9 -2 7.14 3.22
4 9 -2 6.77 3.83
4 -9 2 9.52 5.58
4 9 2 2.03 4.21
4 -9 -2 7.77 3.69
4 -9 2 12.46 9.94
4 9 2 4.06 4.87
-4 -10 -2 84.33 15.62
-4 10 -2 102.12 16.59
-4 -10 -2 78.35 12.93
-4 10 2 84.12 16.21
4 -10 2 93.09 16.8
-4 -10 2 84.42 17.45
-4 -10 2 78.96 12.32
-4 10 -2 86.77 11.37
-4 -10 2 95.93 19.84
4 10 2 100.84 11.14
-4 -10 -2 85.72 14.44
-4 -10 2 82.79 13.59
4 10 -2 106.15 11.57
4 -10 -2 104.66 13.15
4 -10 2 90.14 17.05
4 10 2 99.7 18.47
4 -10 2 78.59 23.1
4 10 2 103.18 25.12
4 10 -2 113.05 15.4
4 -10 -2 110.4 14.47
-4 11 -2 3.08 4.52
-4 -11 -2 1.7 3.53
-4 11 2 14.25 7.06
4 -11 2 5.59 3.86
-4 -11 2 4.34 4.5
-4 -11 2 2.35 3.98
-4 11 2 6.96 3.46
-4 -11 2 2.01 2.96
-4 11 -2 6.94 3.58
4 11 2 4.3 2.72
-4 -11 -2 5.7 3.82
-4 -11 2 1.31 3.13
4 11 -2 6.32 2.92
4 -11 2 1.26 3.01
4 -11 -2 6.78 3.28
4 -11 2 1.7 3.52
4 11 2 5.39 4.8
4 11 -2 2.63 2.73
4 -11 -2 4.63 3.1
4 -11 2 7.59 4.79
4 -11 2 3.71 4.44
4 11 2 -3.58 7.42
-4 12 2 393.7 42.54
-4 -12 -2 375.55 41.1
-4 12 -2 444.76 42.42
-4 -12 2 380.17 46
4 -12 2 523.44 48.05
-4 12 2 586.74 35.92
-4 12 -2 410.49 35.6
-4 -12 2 411.09 40.13
4 12 2 424.26 34.91
-4 -12 -2 415.83 40.24
-4 12 2 615.73 36.62
4 12 -2 519.76 35.8
4 -12 2 494.06 41.13
4 -12 -2 536.03 38.61
4 -12 2 513.84 58.72
4 12 2 482.24 56.32
4 -12 2 517 41.45
4 -12 2 430.8 41.73
4 12 2 460.67 43.21
4 12 -2 596.32 44.13
4 -12 -2 410.47 38.24
-4 -13 2 2.38 2.85
-4 13 -2 1.67 4
-4 13 2 -1.83 5.8
4 -13 2 4.1 4.25
-4 -13 2 -1.5 4.01
-4 13 2 0.54 1.82
4 13 2 2.79 3.51
-4 -13 -2 -1.55 3.21
4 13 -2 -1.63 2.58
4 -13 2 -1.41 5.04
4 -13 -2 -2.16 2.89
4 -13 2 1.5 4
4 13 2 -1.57 3.75
-4 -13 2 -0.71 1.69
4 13 -2 1.52 4.07
4 -13 -2 -1.36 3.64
4 -13 2 1.44 3.43
4 -13 2 3.29 5.56
4 13 2 -3.13 3.75
-4 14 2 1764.17 87.21
-4 14 -2 1544.12 81.6
4 -14 2 768.81 71.89
-4 -14 2 1326.78 87.68
4 14 2 1354.16 69.46
-4 -14 -2 1537.54 79.85
4 14 2 1466.8 60.76
4 14 2 695.95 52.57
4 14 -2 1777.61 70.48
4 14 2 727.43 52.68
4 -14 2 1754.44 80.75
4 -14 -2 1731.63 74.54
4 -14 2 1647.88 101.49
4 14 2 1646.72 100.24
4 -14 2 1657.39 80.19
4 14 -2 1935.95 86.39
4 -14 -2 1524.37 77.41
4 -14 2 1525.23 76.8
4 14 2 1564.58 78.6
-4 15 -2 5.29 7.31
-4 -15 2 5.13 5.31
4 -15 2 8.63 7.3
-4 15 2 3.74 6.33
-4 -15 2 -2.36 6.31
4 15 2 3.83 2.62
-4 -15 -2 5.07 4.52
4 15 2 5.29 2.14
4 15 2 1.78 1.65
4 15 -2 0.96 3.8
4 -15 2 7.84 5.31
4 -15 -2 3.62 3.82
-4 -15 2 6.62 3.57
4 15 -2 7.1 5.62
4 -15 -2 4.68 4.17
4 -15 2 3.23 5.46
4 -15 2 11.65 7.79
4 15 2 2.72 4.61
4 -15 2 12.12 6.24
4 15 2 8.36 5.53
-4 16 2 1215.42 81.04
-4 16 -2 1281.19 81.01
4 -16 2 1283.39 85.68
-4 -16 2 866.02 81.3
-4 -16 -2 1181.25 79.13
-4 -16 2 889.41 79.65
4 -16 2 1172.02 88.83
4 16 2 694.12 58.22
4 16 -2 1183.51 69.85
4 16 2 1154.2 86.29
4 -16 2 1143.57 76.41
4 -16 -2 1137.99 72.37
4 -16 2 1113.84 76.81
-4 -16 2 1163.83 67.67
4 16 -2 1407.29 84.43
4 -16 2 1070.92 71.41
4 16 2 1133.53 72.54
4 -16 -2 1044.56 75.16
-4 17 -2 3.63 6.14
-4 -17 2 8 5.53
4 -17 2 -2.24 5.35
-4 17 2 1.89 5.06
-4 -17 -2 9.28 5.87
-4 -17 2 4.68 4.84
4 17 2 -0.45 1.88
4 17 -2 2.24 3.54
4 -17 2 -1.73 4.13
4 -17 -2 4.1 3.27
-4 -17 2 -0.93 2.94
4 -17 -2 1.75 4.68
4 17 -2 -2.07 4.94
4 -17 2 1.78 3.68
4 17 2 -1.21 3.23
4 -17 2 1.18 3.16
4 -17 2 2.53 4.28
-4 18 2 258.84 30.75
-4 18 -2 252.52 30.33
4 -18 2 197.83 29.65
-4 -18 2 161.73 30.56
-4 -18 -2 190.32 30.03
-4 -18 -2 199.64 28.33
-4 -18 2 195.72 30.42
4 18 -2 206.87 23.61
4 -18 2 252.98 29.08
4 -18 -2 213.52 24.76
4 -18 2 245.47 29.52
-4 -18 2 266.37 23.53
4 18 -2 275.05 32.94
4 -18 -2 222.23 28.38
-4 19 -2 5.51 6.21
4 -19 2 4.48 4.64
-4 -19 2 -2.77 6.61
-4 -19 -2 2.48 4.2
-4 19 2 13.19 7.47
-4 -19 2 2.32 3.93
-4 -19 -2 -2.01 5.39
4 19 -2 3.88 3.79
4 -19 2 -1.87 2.24
4 -19 -2 1.51 2.55
-4 -19 -2 5.42 4.29
4 -19 -2 3.83 3.96
4 19 -2 9.45 6.32
4 19 2 5.33 5.52
4 -19 2 5.76 4.59
-4 20 -2 11.02 7.29
4 -20 2 18.07 8.11
-4 20 2 5.65 6.38
-4 -20 -2 2.59 6.93
-4 -20 2 2.79 5.78
-4 -20 2 2.31 5.53
4 20 -2 5.52 3.7
4 -20 2 5.83 5.21
4 -20 -2 11.08 5.36
-4 -20 -2 8.47 5.07
4 -20 -2 7.91 5.3
4 20 -2 12.51 7.33
4 20 2 8.38 5.8
4 -20 2 1.99 5.83
-4 -21 -2 -2.68 4.54
-4 -21 2 -2.79 5.79
4 -21 2 -2.22 5.31
4 21 -2 1.45 3.47
4 -21 2 -2.01 3.4
4 -21 -2 3.23 3.34
-4 -21 -2 -1.46 4.29
4 -21 -2 8.13 5.44
4 21 -2 2.63 3.15
4 21 2 2.91 4.92
4 -21 2 2.05 4.24
-4 0 3 2.52 3.01
4 0 3 1.12 2.68
4 0 3 2.41 2.49
4 0 -3 -5.66 0.02
-4 0 3 0.84 2.01
4 0 3 1.96 5.23
-4 0 3 1.77 2.12
-4 0 3 0.75 1.56
-4 0 3 -0.59 0.99
4 0 3 1.06 1.8
-4 0 -3 0.15 0.28
-4 0 3 0.58 1.38
-4 0 -3 0.73 0.4
-4 0 3 0.59 1.21
-4 0 3 2.51 1.7
-4 0 3 0.71 1.19
4 0 3 -6.54 11.05
4 0 3 -3.05 0.02
4 -1 3 115.39 15.49
4 1 3 77.55 12.43
-4 1 3 75.41 12.15
-4 -1 3 86.26 14.33
4 -1 3 75 12.35
4 1 3 99.29 13.29
4 1 -3 85.19 27.44
4 -1 -3 56.07 23.55
-4 1 3 89.07 11.69
4 1 3 44.84 13.82
4 -1 3 67.12 14.54
-4 -1 3 63.96 9.46
-4 1 3 81.84 10.62
-4 -1 3 75.34 10.29
-4 1 3 73.98 10.73
-4 1 3 82.37 9.3
-4 -1 3 88.11 10.02
-4 -1 3 81.76 11.05
-4 1 -3 51.54 5.6
-4 -1 3 72.06 8.82
-4 1 3 70.41 8.93
-4 1 3 81.56 8.98
-4 -1 3 72.11 9.12
4 -1 3 70.22 11.47
4 -1 3 38.98 20.92
4 1 3 58.5 24.88
4 1 3 80.7 12.9
4 -1 3 54.07 16.91
4 1 3 64.13 18.3
-4 1 3 89.02 10.64
-4 1 3 73.21 8.89
-4 -1 3 69.15 9.36
-4 -1 3 70.24 8.02
-4 2 3 19.66 5.75
-4 -2 3 20.8 7.17
4 2 3 10.53 4.65
4 -2 3 22.21 7.39
4 2 3 12.91 5.39
4 2 -3 22.66 15.18
-4 -2 3 18.1 4.93
-4 2 3 20.52 5.44
-4 2 3 25.07 6.06
4 2 3 13.74 7.31
4 -2 3 23.4 7.97
-4 -2 3 19.38 5.17
-4 -2 -3 14.31 5.42
-4 2 3 20.05 4.27
-4 -2 3 16.51 4.59
-4 -2 3 20.98 4.8
4 2 -3 13.08 3.9
-4 2 -3 16.25 2.97
-4 -2 3 21.96 4.47
-4 2 3 23.32 4.47
-4 2 3 21.04 4.61
-4 -2 3 15.7 4.28
4 -2 3 23.48 6.45
4 2 3 23.15 6.75
-4 2 3 19.73 4.85
-4 2 3 17.38 4.71
-4 -2 3 14.6 3.35
-4 -2 3 21.25 4.88
4 2 3 12.78 13.27
4 -2 3 23.44 11.66
4 -3 3 310.6 29.09
4 3 3 194.27 22.69
-4 -3 -3 260.92 26.06
-4 3 3 289.02 24.77
-4 -3 3 237.71 28.39
-4 3 3 266.35 20.64
4 3 -3 196.8 44.87
-4 3 3 244.67 24.01
-4 -3 3 329.68 24.73
-4 -3 3 285.5 22.86
-4 -3 3 279.32 23.88
-4 -3 3 265.6 22.15
4 3 3 169.07 28.96
4 -3 3 273.75 28.02
-4 3 -3 221.81 18.22
-4 -3 3 286.69 21.01
-4 3 3 249.54 21.27
4 3 3 346.74 59.1
4 3 -3 284.72 22.51
-4 3 3 276.34 20
4 -3 3 260.82 25.04
-4 -3 3 271.82 22.36
4 -3 3 246.29 36.12
4 3 3 281.65 27.04
-4 3 3 248.25 22.34
-4 3 3 263.82 22.2
-4 -3 3 279.89 18.93
-4 -3 3 274.88 22.24
-4 -4 3 108.71 17.76
4 -4 3 110.85 16.32
4 4 3 70.59 11.81
-4 4 3 110.28 12.95
-4 -4 3 106.51 12.45
-4 -4 3 104.54 12.04
-4 -4 3 104.52 12.95
-4 -4 -3 90.77 14.39
-4 4 3 92.25 13.39
-4 -4 3 105.84 12.62
4 -4 3 84.04 13.55
-4 4 -3 85.91 10.01
-4 -4 3 101.34 10.71
-4 4 3 92.25 11.35
4 4 -3 113.44 12.37
-4 4 3 119.8 10.45
4 -4 3 92.39 13.5
-4 -4 3 98.7 12.15
4 -4 -3 98.78 10.91
4 -4 3 116.55 22.89
4 4 3 94.87 21.62
4 4 3 172.81 40.05
4 4 -3 111.88 12.79
4 4 3 117.41 16.14
-4 4 3 97.94 12.26
-4 4 3 106.98 12.76
-4 -4 3 99.73 8.96
-4 -4 3 106.8 11.96
-4 5 3 7.25 3.13
-4 5 -3 -0.89 2.99
-4 5 3 1.44 2.99
4 -5 3 2.83 2.93
-4 -5 3 1.84 3.81
4 5 3 4.1 3.1
-4 -5 -3 -0.91 2.19
4 -5 3 -0.95 2.79
-4 -5 3 -2.1 3.55
-4 -5 3 -0.87 1.46
-4 -5 3 0.76 1.57
-4 -5 -3 1.27 3.4
-4 -5 3 1.73 1.46
-4 -5 3 0.84 1
4 5 -3 0.71 1.47
-4 5 -3 0.62 1.04
-4 -5 3 4.31 2.14
-4 5 3 1.26 1.33
4 -5 3 3.3 2.63
-4 5 3 -0.72 1.92
4 -5 -3 0.63 1.69
4 5 -3 2.46 1.96
-4 5 3 3.46 2.74
-4 5 3 1.72 2.3
4 5 3 -1.31 2.22
4 -5 3 2.58 4.36
-4 -5 3 1.55 1.29
4 5 3 -2.76 4.67
4 -5 3 -5.69 0.03
4 5 3 -5.69 0.03
-4 -5 3 0.72 1.21
-4 6 3 12.12 3.53
-4 6 -3 7.8 3.9
-4 6 3 7.53 4.79
4 -6 3 16.63 6.54
4 6 3 11.32 4.18
-4 -6 -3 13.01 4.74
-4 -6 3 9.79 6.22
-4 -6 3 19.27 8.51
-4 -6 3 17.1 4.77
4 6 3 5.26 1.41
-4 -6 -3 11.77 5.21
-4 -6 3 10.31 4.07
4 6 -3 9.26 3.34
-4 -6 3 16.99 3.95
-4 6 3 18.99 3.67
4 -6 3 9.94 4.41
-4 6 3 4.57 2.73
4 6 -3 11.1 3.99
-4 6 3 7.44 3.88
4 6 3 9.48 4.61
4 -6 3 19.53 9.69
4 6 3 5.26 5.47
-4 -6 3 11.46 2.5
4 -6 -3 16.09 4.46
4 -6 3 10.81 9.15
4 6 3 26.88 15.75
-4 7 3 238.94 27.02
-4 7 3 275.83 19.95
4 7 3 287.55 20.44
-4 -7 3 231.87 30.7
-4 7 -3 276.94 25.06
4 -7 3 423.16 34.34
-4 -7 -3 277.91 23.98
-4 -7 3 290.83 22.86
4 7 3 177.73 15.37
-4 7 -3 165.17 14.44
-4 -7 3 218.91 22.77
-4 -7 -3 269.74 26.64
-4 -7 3 266.25 32.83
-4 -7 3 256.02 19.81
4 7 -3 278.12 21.7
4 -7 3 346.19 53.85
4 7 3 278.65 48.2
4 -7 3 235.24 23.8
4 -7 -3 265.74 21.45
4 -7 3 289.59 34.86
4 7 3 291.24 35.95
-4 7 3 261.23 23.36
4 7 -3 227.05 21.77
4 7 3 280.67 27.54
-4 7 3 283.47 24.64
-4 -7 3 234.07 16.32
4 -7 -3 259.15 21.52
-4 -8 3 37.1 12.16
-4 8 -3 58.52 10.97
-4 8 3 41.29 6.1
4 8 3 52.65 6.29
-4 8 3 43.72 11
4 -8 3 42.88 10.88
-4 -8 -3 30.45 7.78
-4 -8 -3 31.35 9.02
-4 8 -3 38.08 5.02
-4 -8 3 42.25 12.38
-4 -8 3 41.59 7.95
4 8 3 25.61 4.74
-4 -8 -3 51.48 10.75
-4 -8 3 37.78 8.79
4 -8 -3 45.4 7.63
-4 -8 3 34.9 6.54
4 8 -3 47.36 7.78
4 -8 3 48.31 9.6
-4 -8 3 38.76 4.91
4 -8 3 49.68 13.35
4 8 3 30.45 10.71
-4 8 3 54.29 10.02
4 8 3 36.86 9.42
4 -8 -3 48.4 8.43
4 8 3 47.43 18.93
4 8 -3 57.21 9.38
4 -8 3 67.07 23.02
-4 -9 3 52.59 14.56
-4 9 -3 55.94 11.32
-4 9 3 71.13 7.62
4 9 3 64.21 5.49
-4 -9 3 50.38 5.02
-4 9 3 49.97 12.37
4 -9 3 52.36 12.8
-4 -9 -3 48.76 10
-4 -9 -3 42.29 10.74
-4 9 -3 60.41 7.15
-4 -9 3 85.65 17.34
-4 -9 3 54.02 9.53
4 9 3 41.21 6.66
-4 -9 -3 56.59 11.54
-4 -9 3 59.13 11.62
4 9 -3 65.93 9.5
4 -9 -3 73.64 10.14
4 -9 3 59.94 11.11
-4 -9 3 63.12 6.53
4 9 3 69.95 13.27
4 -9 3 80.77 24.79
4 9 3 102.03 26.71
4 9 -3 74.27 11.14
4 -9 -3 69.03 10.68
4 -9 3 64.76 14.67
4 9 3 63.74 14.98
-4 -10 3 14.35 7.61
-4 10 -3 8.21 4.98
-4 10 3 20.05 3.73
-4 -10 3 16.23 2.25
-4 10 3 20.54 7.97
4 -10 3 28.89 9.81
-4 10 3 14.61 3.26
-4 -10 -3 13.73 5.05
-4 -10 3 18.22 8.21
-4 -10 3 14.11 4.85
4 10 3 14.76 4.08
-4 10 -3 11.05 3.34
-4 -10 -3 14.43 6.28
-4 -10 3 24.88 7.88
4 10 -3 24.57 5.77
4 -10 -3 19.37 5.3
-4 -10 3 16.74 3.97
4 10 -3 22.99 6.47
4 10 3 -1.64 5.96
4 -10 -3 28.64 7
4 -10 3 16.84 10.1
4 10 3 12.43 11.11
4 -10 3 22.82 8.55
4 10 3 8.25 5.58
-4 11 -3 59.66 12.31
-4 -11 3 44.51 14.8
-4 11 3 52.49 12.57
4 -11 3 43.8 12.28
-4 -11 -3 56.04 10.32
-4 -11 3 71.52 11.19
4 11 3 40.1 7.66
-4 -11 -3 52.55 11.47
4 11 -3 59.06 9.49
4 -11 -3 50.52 8.81
4 11 3 69.07 13.87
4 -11 -3 65.13 11.27
4 -11 3 67.05 20.23
4 -11 3 64.22 13.66
4 11 3 46.44 16.95
4 11 3 63.68 13.98
-4 -11 3 56.16 7.85
4 11 -3 66.28 11.37
-4 -12 -3 254.25 25.19
-4 12 -3 266.12 29
-4 12 3 227.78 29.14
-4 -12 3 218.25 33.07
4 -12 3 201.53 29.1
-4 -12 3 261.49 25.44
4 12 3 184.01 21.03
-4 -12 -3 233.26 27.4
4 12 -3 303.07 24.8
4 -12 3 240.47 39.26
4 12 3 274.89 41.53
4 -12 -3 304.88 24.93
4 -12 3 248.63 29.07
4 12 3 297.05 32.11
4 12 -3 311.63 28.29
4 12 3 303.97 32.09
4 -12 -3 255.66 26.37
-4 13 3 120.58 20.65
-4 -13 3 117.96 23.87
-4 13 -3 135.5 20.94
4 -13 3 101 20.6
-4 -13 3 122 17.2
4 13 3 94.61 14.97
-4 -13 -3 132.42 19.96
4 13 -3 154.01 17.29
4 -13 -3 172.01 17.77
4 -13 3 155.28 20.14
4 -13 3 162.95 21.53
4 13 3 156.18 21.7
4 -13 3 166.82 31.21
4 13 3 168.83 30.38
-4 -13 3 154.85 14.74
4 13 -3 180.73 20.99
4 13 3 192.35 24.9
4 -13 -3 132.6 18.66
-4 14 -3 67.06 14.26
-4 -14 3 37.31 14.26
-4 14 3 55.59 13.32
4 -14 3 66.06 15.51
-4 -14 3 51.8 15.76
4 14 3 34.23 9.1
-4 -14 -3 42.29 11.72
4 14 -3 89.84 12.99
4 -14 -3 68.91 11
4 -14 3 64.03 12.76
4 14 3 54.06 12.01
4 14 -3 78.18 13.84
4 14 3 71.71 15.83
4 -14 -3 64.31 12.81
4 -14 3 77.5 13.88
4 -14 3 55.51 17.76
4 14 3 88.19 20.88
-4 15 -3 3.46 4.63
-4 -15 -3 2.06 5.51
-4 -15 3 -2.7 5.59
-4 15 3 1.88 4.5
4 -15 3 4.59 5.49
-4 -15 3 2.36 4.88
-4 -15 -3 1.75 2.96
4 15 -3 3.39 3.31
4 -15 -3 5.44 3.68
4 -15 3 5.57 3.73
4 15 3 2.96 3.53
-4 -15 3 6 2.97
4 15 -3 -1.64 1.96
4 -15 -3 3.17 4.24
4 15 3 2.16 3.66
4 -15 3 1.64 3.92
4 -15 3 3.07 5.19
4 15 3 2.93 3.5
-4 16 -3 83.41 17
-4 -16 -3 88.62 18.9
-4 16 3 87.29 17.21
4 -16 3 74.91 17.47
-4 -16 3 46.96 17.52
-4 -16 3 77.76 17.8
-4 -16 -3 74.78 16.01
4 16 -3 89.58 13.97
4 -16 3 108.81 17.44
4 -16 -3 95.2 13.81
4 -16 3 84.39 14.03
4 16 3 97.14 15.32
4 -16 3 108.64 17.55
4 -16 -3 82.69 15.72
4 -16 3 97.54 21.69
4 16 3 81.53 19.28
4 16 -3 104.42 17.48
4 16 3 126.46 21.66
-4 -17 3 97.41 23.45
-4 17 -3 130.17 21.37
-4 -17 -3 118.98 21.91
-4 17 3 127.84 21.14
4 -17 3 87.72 19.24
-4 -17 3 86.8 19.87
-4 -17 -3 83.83 17.62
4 17 -3 137.06 18.03
4 -17 3 120.21 19.41
4 -17 -3 124.34 16.56
4 -17 3 131.64 19.97
4 -17 -3 126.55 19.99
4 -17 3 141.89 25.2
4 17 3 120.64 22.79
4 17 -3 171.44 23.21
4 17 3 150.37 24.41
4 -17 3 112.78 16.25
4 17 3 97.47 15.59
-4 -18 3 5.59 9.56
-4 18 -3 20.21 9.17
-4 -18 -3 37.54 11.98
-4 18 3 21.07 8.68
4 -18 3 34.04 11.71
-4 -18 -3 25.51 9.49
-4 -18 3 23.25 9.33
4 18 -3 40 9.58
4 -18 3 24.49 9.39
4 -18 -3 24.45 7.51
4 -18 -3 31.74 9.83
4 18 -3 34.89 11.06
4 18 3 30.71 12.69
4 -18 3 39.56 10.89
4 -18 3 24.95 9.99
4 18 3 20.16 6.8
-4 19 -3 16.67 8.72
-4 -19 3 28.02 13.07
-4 -19 -3 39.23 12.54
4 -19 3 41.15 12.71
-4 19 3 19.26 9.06
-4 -19 3 20.8 9.7
-4 -19 -3 14.29 9.58
4 19 -3 45.36 10.17
4 -19 3 37.39 10.64
4 -19 -3 34.74 8.89
4 19 3 32.81 8
4 -19 -3 36.87 11
4 19 -3 26.37 10.3
4 19 3 53.81 15.51
4 -19 3 19.58 9.78
4 -19 3 27.47 10
-4 20 3 192.12 25.89
-4 -20 3 96.48 25.39
-4 20 -3 170.96 25.13
4 -20 3 184.28 27.95
-4 -20 -3 125.02 24.29
-4 -20 3 144.3 25.42
4 20 -3 145.01 20.73
4 -20 3 152.26 23.47
4 -20 -3 134.89 19.04
4 -20 3 169.83 24.63
-4 -20 -3 134.2 20.65
4 20 -3 172.16 26.52
4 -20 -3 208.43 26.58
4 0 4 4003.36 172.5
4 0 4 3425.47 169.73
-4 0 4 2872.82 170.84
4 0 -4 2816.77 222.01
-4 0 4 3610.32 166.3
-4 0 4 3448.02 165.96
-4 0 4 3931.27 160.47
4 0 4 2708.48 181.41
-4 0 4 3275.14 166.76
4 0 4 2045.69 216.31
-4 0 4 3569.32 162.5
-4 0 -4 2047.76 152.49
4 0 -4 3023.16 189.77
-4 0 4 3346.54 159.57
4 0 4 3258.02 168.41
4 0 4 2292.31 187.2
-4 0 4 2721.62 159.26
-4 0 4 3206.14 160.88
4 1 -4 24.14 16.15
4 -1 -4 11.94 12.39
-4 1 4 7.76 5.63
-4 -1 4 6.55 7.87
4 1 4 17.72 6.26
4 -1 4 27.66 8.78
4 -1 4 32.77 10.96
4 1 4 23.98 10.45
4 1 4 5.11 13.33
4 -1 4 20.05 13.07
-4 -1 4 15.78 5.71
-4 1 4 15.21 5.86
-4 -1 4 13.4 5.18
-4 1 4 21.57 5.94
-4 -1 4 15.97 5.36
-4 1 4 17.43 4.21
-4 -1 4 16.82 4.76
-4 1 4 10.57 4.52
4 1 4 21.4 6.64
4 -1 4 -7.52 18
4 1 -4 13.32 4.94
4 1 4 7.53 12.76
-4 -1 4 12.64 4.13
4 -1 -4 11.51 7.73
4 1 -4 11.62 8.54
-4 1 -4 14.31 2.64
-4 1 4 16.34 4.81
-4 1 4 13.87 3.54
-4 -1 4 12.97 4
4 -1 4 29.21 7.64
4 1 4 24.13 7.48
-4 1 4 9.82 4.95
-4 -1 4 8.86 4.51
4 1 4 6.92 10.97
4 -1 4 23.78 12.87
-4 1 4 9.22 3.77
-4 -1 4 11.09 4.11
4 -2 4 1493.61 87.99
4 2 4 1500.51 86.01
-4 -2 -4 1336.75 86.71
4 2 4 1239.8 83.38
4 -2 4 1486.55 87.9
-4 2 4 1306.06 84.2
-4 -2 4 1144.63 89.64
4 2 -4 1010.7 121.12
-4 -2 4 1448.43 83.42
-4 2 4 1354.88 82.52
-4 -2 4 1293.6 81.45
-4 2 4 1332.55 83.53
-4 2 4 1321 76.03
-4 -2 4 1400.34 83.77
-4 -2 4 1590.85 80.79
4 -2 4 1268.78 94.68
-4 2 4 1308.42 83.76
4 2 4 1064.99 131.82
-4 2 -4 1052.5 73.71
-4 -2 4 1442.64 79.83
4 2 -4 1473.21 82.38
4 -2 -4 1296.75 103.43
-4 2 4 1359.22 76.55
-4 -2 4 1331.23 78.87
4 -2 4 1290.78 84.72
4 -2 4 1481.5 112.4
4 2 4 1333.2 86.83
-4 2 4 1223.71 78.78
-4 2 4 1205.38 80.13
-4 -2 4 1012.65 74.87
-4 -2 4 1434.83 79.08
4 3 -4 -5.96 17.46
-4 3 4 -0.87 2.75
-4 -3 4 3.87 4.01
4 3 4 2.08 2.49
4 -3 4 6.64 4.49
4 -3 4 1.25 5.98
4 3 4 -1 6.79
-4 3 4 -1.09 2.92
4 -3 4 9 7.76
-4 3 4 -0.4 1.52
-4 -3 4 0.94 3.18
-4 3 4 2.14 2.21
-4 -3 4 -0.84 2.66
-4 -3 4 1.95 2.33
-4 -3 -4 6.56 3.84
-4 -3 4 0.75 2.36
4 3 -4 0.84 1.42
-4 3 -4 2.72 1.92
-4 -3 4 0.66 1.57
4 3 4 7.17 12.13
4 -3 -4 -2.79 5.77
-4 3 4 2.89 1.78
4 -3 4 3.43 4.1
-4 -3 4 0.7 1.88
4 -3 4 19.15 11.45
4 3 4 3.93 3.83
-4 3 4 2.6 3.43
-4 -3 4 1.64 1.67
-4 3 4 2.91 2.13
-4 -3 4 1.23 2.08
-4 -4 -4 318.97 30.04
4 4 -4 288.98 55.2
4 4 4 356.47 28.07
-4 -4 4 331.05 36.53
-4 4 4 304.99 23.65
4 -4 -4 327.7 56.83
-4 -4 4 370.07 27.81
-4 -4 4 315.74 25.75
-4 -4 4 350.25 28.19
-4 4 4 318.76 28.73
-4 4 4 299.15 20.99
-4 -4 4 376.53 27.39
4 -4 4 368.59 34.38
-4 4 -4 282.9 21.55
-4 -4 4 331.67 24.69
4 4 -4 348.09 26.92
4 -4 -4 438.53 45.69
4 4 -4 375.72 43.66
-4 4 4 346.49 21.7
4 -4 4 328.99 29.06
-4 -4 4 302.46 24.68
4 4 4 358.06 65.28
4 -4 -4 309.59 22.58
4 4 4 347.38 44.67
4 -4 4 313.8 42.3
4 4 4 347.47 31.07
-4 4 4 313.3 24.96
-4 -4 4 192.83 18.19
4 5 -4 34.69 19.58
4 -5 -4 44.12 19.81
-4 -5 4 17.39 7.87
-4 5 4 15.99 3.14
4 5 4 25.34 6.59
4 -5 4 24.29 7.82
-4 5 4 19.35 6.23
-4 -5 4 31.87 7.23
-4 -5 4 21.07 5.9
-4 5 4 18.45 3.63
-4 -5 -4 16.4 6.21
-4 -5 4 16.06 5.87
4 5 4 13.09 13.6
-4 -5 4 23.05 5.41
4 -5 4 19.58 15.65
4 5 -4 27.42 6.25
-4 5 -4 14.32 4.11
-4 5 4 24.32 4.15
-4 -5 4 20.59 4.93
4 -5 -4 26.52 11.49
4 5 -4 22.18 10.01
4 -5 4 23.45 6.67
-4 5 4 19.25 6.62
-4 5 4 26.93 6.04
4 5 4 22.1 7.28
4 -5 -4 18.68 4.44
4 5 4 49.7 15.79
4 -5 4 23.07 11.49
4 6 -4 50.77 21.5
4 -6 -4 69.44 24.05
-4 -6 4 64.12 16.19
4 6 4 51.65 8.77
-4 -6 4 54.69 9.19
4 -6 4 59.32 11.04
-4 6 4 57.6 11.15
-4 -6 -4 39.63 3.98
-4 -6 -4 53.27 11.19
-4 -6 4 57.66 8.19
4 -6 4 92.49 30.51
4 6 -4 56.37 9.2
-4 6 -4 41.82 7.31
4 -6 4 65.91 11.32
4 -6 -4 69.43 17.6
4 6 -4 59.44 16.37
4 -6 -4 53.76 7.91
-4 6 4 51.8 10.51
-4 6 4 44.25 8.35
4 6 4 61.28 12.23
4 6 4 59.55 17.65
4 -6 4 98.69 20.64
4 6 4 49.45 23.53
4 6 -4 59.28 8.65
4 7 -4 5.49 6.57
4 -7 -4 5.17 8.74
-4 -7 4 2.37 4.9
4 -7 4 -1.8 3.23
-4 7 4 2.72 3.64
-4 -7 4 0.92 2.47
4 7 4 -0.47 1.12
4 7 -4 1.76 2.58
-4 7 -4 -0.75 2.21
-4 -7 4 -0.65 2.04
4 -7 -4 -2.49 4.2
4 7 -4 2.64 3.15
4 -7 4 1.21 2.89
4 7 -4 0.78 1.33
-4 7 4 1.86 2.73
-4 7 4 3.42 3.86
4 -7 4 -2.57 5.32
4 7 4 -2.8 8.21
4 7 4 1.48 2.5
4 -7 -4 2.23 2.52
4 -7 4 -5.8 9.8
4 7 4 5.8 9.8
4 -8 4 1605.98 95.57
4 8 4 971.77 75.83
-4 -8 4 1279.53 97.79
4 8 -4 1289.58 125.79
4 -8 -4 1314.37 122.84
-4 -8 4 1368.62 81.79
4 8 4 960.51 72.06
-4 8 4 1349.2 87.49
4 -8 4 1264.99 77.59
-4 8 -4 1273.97 79.83
4 -8 4 1786.89 139.54
4 8 4 1496.54 132.22
4 8 -4 1519.57 82.18
4 -8 -4 1469.83 100.45
4 8 -4 1436.21 101.62
4 -8 4 1412.28 85.47
4 -8 4 1660.13 103.59
4 8 4 1578.04 105.23
4 8 -4 1427.13 80.28
4 8 4 1417.96 89.27
4 -8 -4 1343.75 79.94
-4 9 4 19.61 7.58
-4 -9 4 12.8 8.67
4 -9 4 15.21 7.2
4 9 4 3.84 3.93
4 9 -4 15.3 12.21
4 -9 -4 -4.77 8.08
-4 -9 4 22.21 9.95
-4 9 4 15.41 7.15
-4 -9 4 9.93 5.06
4 9 4 7.32 2.96
-4 9 -4 5.01 4.18
4 -9 4 5.18 4.41
4 9 -4 18.87 5.88
4 9 -4 8.92 4.16
4 9 4 12.95 6.72
4 -9 -4 14.23 5.1
4 -9 4 15.17 12.1
4 9 4 5.03 6.03
4 -9 4 27.01 10.77
4 9 4 14.81 10.23
4 10 -4 1816.83 102.96
-4 10 4 1658.25 109.8
4 10 4 1435.41 95.52
4 -10 4 1553.75 113.2
-4 -10 4 1714.79 121.76
-4 -10 4 1625.89 101.92
4 10 4 1330.68 95.58
-4 -10 4 1475 114.27
-4 10 -4 1584.94 102.85
4 10 -4 1876.45 103.24
4 -10 4 1948.24 148.43
4 10 4 1821.55 145.23
4 -10 4 1754.44 106.69
4 -10 -4 1664.07 98.27
4 -10 4 1769.98 116.8
4 10 4 1811.78 119.42
4 10 -4 1745.42 101.65
4 10 4 1915.68 112.86
4 -10 -4 1628.17 102.19
-4 11 -4 1.44 4.22
-4 11 4 3.48 4.16
4 -11 4 8.6 6.3
-4 -11 4 8.05 7.17
4 11 4 0.45 2.83
-4 -11 -4 10.63 6
-4 -11 4 9.72 5
4 11 4 3.71 3.21
4 -11 -4 3.02 2.56
-4 11 -4 5.05 4.28
4 -11 4 10.03 5.14
4 11 -4 4.15 4.12
4 11 -4 3.11 2.78
4 -11 4 7.82 6.19
4 11 4 -2.14 5.12
4 11 4 3.6 5.7
4 -11 -4 10.52 4.84
4 -11 4 4.38 11.72
4 11 4 4.31 7.29
-4 12 4 619.25 54.5
-4 -12 -4 583.47 54.22
4 12 4 719.49 40.21
-4 12 -4 657.56 53.54
4 -12 4 642.34 58.94
-4 -12 4 584.5 61.76
-4 -12 4 638.02 49.13
4 12 4 446.47 43.6
-4 12 -4 564.08 50.12
4 12 -4 733.26 49.84
4 -12 4 740.75 77.03
4 12 4 658.42 73.56
4 -12 4 708.43 53.43
4 -12 -4 715.05 46.13
4 -12 4 724.69 57.71
4 12 4 744.86 59.37
4 12 -4 688.9 49.37
4 12 4 795.18 59.44
4 -12 -4 605.66 49.61
-4 -13 4 5.49 6.56
-4 -13 -4 1.92 4.59
-4 13 -4 3.22 5.45
-4 13 4 1.82 3.77
4 -13 4 -2.34 4.84
-4 -13 4 1.21 2.9
4 13 4 0.96 2.81
-4 13 -4 1.5 3.11
4 -13 4 3.09 2.62
4 13 -4 2.32 2.77
4 -13 -4 0.84 1.41
4 13 -4 1.23 3.29
4 13 4 1.98 3.36
4 -13 -4 2.8 3.74
4 -13 4 3.78 4.52
4 13 4 -3.7 6.25
4 -13 4 -1.7 2.87
4 13 4 -1.84 3.12
-4 -14 -4 64.08 15.07
-4 -14 4 25.19 12.44
-4 14 -4 58.73 13.8
-4 14 4 31.68 10.89
4 -14 4 48.42 13.91
-4 -14 4 61.08 16.18
-4 -14 4 59.79 11.92
-4 14 -4 35.39 11.46
4 -14 -4 65.65 10.02
4 14 -4 73.87 12.43
4 -14 4 62.37 13.08
4 14 4 68.73 19.07
4 14 -4 64.5 11.98
4 14 4 45.98 13.1
4 -14 -4 74.51 13.7
4 -14 4 49.42 17.67
4 -14 4 65.01 12.94
4 14 4 77.25 14.69
-4 15 -4 8.72 6.27
-4 -15 -4 6.23 4.99
-4 -15 4 11.25 8.91
-4 15 4 5.68 4.55
4 -15 4 7.46 5.97
-4 -15 4 16.56 8.5
-4 -15 4 1.39 4.1
-4 15 -4 6.83 5.43
4 15 -4 13.11 5.67
4 -15 -4 8.47 3.93
4 15 -4 14.55 5.79
4 -15 -4 11.32 6.13
4 15 4 15.5 7.5
4 -15 4 8.94 5.06
4 15 4 11.24 5.78
4 -15 4 13.19 8.83
4 15 4 22.35 10.11
-4 16 -4 5.39 4.82
-4 -16 -4 6.51 5.81
-4 -16 4 -2.85 7.63
-4 16 4 15.36 7.26
4 -16 4 12.67 8.02
-4 -16 4 18.91 8.94
-4 16 -4 -1.8 3.73
4 16 -4 2.78 3.34
4 -16 -4 4.96 3.15
4 16 4 17.76 9.37
4 16 -4 12.69 5.7
4 -16 4 8.37 4.42
4 -16 -4 6.89 5.46
4 16 4 2.99 3.59
4 16 4 9.31 6.83
4 -16 4 9.25 8.25
-4 17 -4 -1.84 5.82
-4 -17 -4 -2.26 3.83
-4 17 4 -3.88 6.95
-4 -17 4 5.77 6.9
4 -17 4 2.56 5.3
-4 -17 4 2.36 5.65
-4 17 -4 1.87 4.48
4 17 -4 2.94 3.93
4 -17 -4 -1.04 2.48
4 -17 4 1.3 3.12
4 17 4 2.78 3.71
4 17 -4 -3.42 5.01
4 -17 -4 1.82 3.76
4 -17 4 5.76 4.87
4 17 4 4.92 4.16
-4 18 4 565.51 54.04
-4 -18 -4 500.75 54.48
-4 18 -4 590.98 54.22
4 -18 4 645.97 60.72
-4 -18 4 544.66 62.38
-4 -18 4 549.21 56.73
4 18 -4 638.97 51.57
4 -18 -4 658.35 46.39
4 -18 4 587.26 59.79
4 18 4 556.65 46.81
4 18 -4 713.95 55.99
4 18 4 700.61 62.17
4 -18 -4 551.65 52.22
-4 19 -4 -3.81 8.52
-4 -19 -4 2.43 2.91
-4 19 4 -1.97 5.26
4 -19 4 2.55 7.46
-4 -19 4 -2.34 6.26
-4 -19 -4 6.24 4.98
-4 19 -4 1.99 5.83
4 19 -4 6.58 5.9
4 -19 -4 5.92 7.08
4 19 -4 7.9 5.78
4 19 4 2.7 4.57
4 -19 4 1.97 5.28
4 -19 4 9.91 5.93
4 0 5 -3.94 6.67
4 0 5 -1.2 2.03
4 0 5 2.24 2.67
-4 0 5 -1.11 2.3
-4 0 5 1.03 2.14
-4 0 5 -2.05 2.75
4 0 5 2.37 2.83
4 0 -5 3.18 3.81
-4 0 5 -0.48 1.42
-4 0 -5 0.48 0.86
-4 0 5 0.54 1.72
4 1 -5 72.8 26.3
4 -1 -5 26.25 19.3
4 1 5 19.76 11.71
4 -1 5 31.05 13.24
4 1 5 36.72 8.31
4 -1 5 44.43 9.5
-4 -1 5 28.88 8.67
4 1 5 37.94 8.78
-4 -1 5 27.57 7.2
-4 -1 5 32.05 7.62
-4 1 5 35.98 8.04
-4 1 5 38.44 8.43
-4 -1 5 44.06 8.57
-4 1 5 39.38 8.43
4 1 5 31.97 7.95
4 1 -5 45.52 8.38
4 -1 -5 56.88 16.99
4 1 -5 19.12 10.23
-4 1 5 32.88 5
-4 1 -5 22.42 3.88
-4 -1 5 29.41 5.26
4 -1 5 34.61 25.4
4 1 5 51.98 27.46
4 -1 5 38.2 8.75
4 1 5 43.83 9.69
-4 1 5 31.24 5.55
-4 -1 5 37.14 5.73
4 2 -5 111.99 34.57
4 2 5 139.24 15.62
4 -2 5 56.56 20.57
4 2 5 90.43 12.89
4 -2 5 83.06 13.62
-4 -2 5 77.57 15.47
-4 -2 5 112.97 14.07
-4 2 5 88.74 12.6
-4 -2 5 95.47 12.77
-4 2 5 76.07 12.48
-4 2 -5 44.95 5.6
-4 -2 5 99.85 13.49
-4 2 5 99.83 13.91
4 -2 5 108.7 20.87
4 2 5 59.48 29.02
-4 2 -5 77.1 7.8
4 2 -5 84.4 11.96
4 -2 -5 84.17 20.82
-4 2 5 80.31 8
-4 -2 5 95.94 10.28
4 -2 5 82.96 13.02
4 2 5 88.78 14.15
-4 2 5 81.12 9.54
-4 -2 5 81.66 9.08
4 3 -5 97.73 32.74
4 3 5 148.71 16.57
-4 -3 5 100.73 18.56
4 -3 5 170.39 32.19
4 3 5 133.55 15.99
4 -3 5 159.43 19.67
-4 -3 5 153.65 17.16
-4 3 -5 86.11 9.04
-4 3 5 120.81 16.06
-4 -3 5 138.33 16.68
4 -3 5 163.2 24.91
-4 3 5 124.76 16.13
4 3 5 148.15 43.36
-4 3 -5 98.55 10.39
4 3 -5 151.73 16.64
4 -3 -5 110.17 24.55
-4 3 5 126.85 10.41
4 -3 5 120.98 16.46
-4 -3 5 112.16 12.38
4 3 5 140.88 18.29
-4 3 5 112.05 12.28
4 4 5 3.9 3.09
4 4 -5 -6.41 10.83
4 -4 -5 6.21 7.43
-4 -4 5 1.91 3.95
4 4 5 3.7 4.42
4 -4 5 3.47 4.15
4 4 5 3.11 2.48
4 -4 5 4.46 3.98
4 -4 5 -2.04 4.87
-4 -4 5 -1.11 2.98
-4 -4 5 4.5 3.3
-4 4 5 3.64 2.91
-4 4 5 11.02 5.07
4 4 -5 6.16 3.47
4 4 5 -7.9 13.35
4 -4 -5 8.96 8.75
4 4 -5 3.08 3.69
-4 4 -5 -0.51 1.62
-4 4 5 2.77 1.56
4 -4 5 -1.23 2.08
-4 -4 5 2.92 2.14
4 4 5 1.4 1.68
-4 4 5 2.78 2.04
4 -4 -5 4.07 2.09
4 5 5 0.94 1.94
4 -5 -5 6.03 7.21
-4 -5 5 -2.08 4.98
4 -5 5 1.61 2.72
-4 5 5 1.29 2.66
4 -5 5 -1.81 5.29
-4 -5 5 1.13 1.91
-4 -5 5 -1.04 1.76
-4 5 5 -1.25 2.59
-4 -5 5 2.39 1.91
4 5 -5 1.01 1.71
4 -5 5 7.46 12.61
4 -5 -5 -2.91 0.02
4 5 -5 -3.02 6.24
-4 5 -5 -0.59 1.41
4 -5 5 2.49 2.57
4 5 5 2.89 3
-4 5 5 5.24 2.53
4 -5 -5 0.53 1.28
4 5 5 3.53 4.22
4 -5 5 -3.27 3.91
4 6 -5 73.15 29.5
4 -6 -5 52.57 22.54
-4 -6 5 51.41 15.78
4 6 5 100.89 12.77
4 -6 5 98.53 16.74
4 -6 5 95.3 16.48
-4 -6 5 79.92 12.57
-4 6 5 82.44 14.09
-4 6 -5 63.56 9.58
4 6 -5 81.76 12.26
4 -6 5 105.45 34.95
4 6 5 162.05 43.19
4 -6 -5 106.94 22.52
4 6 -5 105.47 22.34
4 -6 5 96.3 14.28
-4 6 5 81.48 11.04
4 6 5 96.88 15.78
4 6 5 73.4 20.84
4 -6 5 104.43 23.08
4 -6 -5 82.48 9.89
4 7 -5 135.81 36.53
4 -7 -5 123.92 35.54
-4 -7 5 118.62 23.01
4 7 5 160.14 15.99
4 7 5 77.8 8.35
-4 -7 5 155.93 17.19
-4 7 5 141.02 19.28
4 -7 5 144.51 18.54
-4 7 -5 100.66 12.77
4 7 -5 158.82 17.02
4 -7 -5 160.29 26.72
4 7 -5 133.4 25.02
4 -7 5 151.22 18.43
4 -7 5 151.7 41.44
4 7 5 191.35 45.74
4 7 5 138.57 27.34
4 -7 5 161.31 28.24
-4 7 5 115.94 13.92
4 7 5 155.89 20.49
4 -7 -5 113.29 12.92
4 8 5 457.15 31.95
-4 -8 5 403.18 45.65
4 8 -5 422.07 64.55
4 -8 -5 369.03 61.42
4 8 5 261.63 24.74
-4 -8 5 449.63 34.59
-4 8 5 446.06 38.76
4 -8 5 488.61 35.62
-4 8 -5 357.13 30.17
4 -8 5 504.6 73.66
4 8 5 540.29 74.24
4 8 -5 481.11 35.06
4 -8 -5 444.43 47.37
4 8 -5 413.71 46.97
4 -8 5 427.14 36.27
4 8 5 438.16 49.49
4 -8 5 450.31 48.54
4 8 5 432.22 38.85
4 -8 -5 426.08 31.35
4 9 -5 44.02 19.8
4 -9 -5 41.61 18.72
4 9 5 28.53 6.25
-4 -9 5 10.38 10.41
4 -9 5 33.91 6.96
-4 9 5 39.16 10.44
4 9 5 18.29 4.5
-4 -9 5 27.81 7.45
-4 -9 -5 28.59 8.64
4 9 5 74.03 26.42
4 -9 5 40.06 18.17
-4 9 -5 29.5 7.1
4 -9 -5 20.11 10.53
4 9 -5 28.95 11.45
4 -9 5 29.21 8.3
4 9 -5 50.81 9.47
4 9 -5 29.47 6.18
4 9 5 51.94 11.95
4 -9 -5 30.68 6.85
4 9 5 27.44 11.93
4 -9 5 34.96 12.41
4 10 -5 5.27 12.61
4 -10 -5 4.99 8.45
4 10 5 10.13 3.68
-4 -10 5 2.69 4.55
4 -10 5 2.18 3.69
-4 -10 -5 1.76 2.12
-4 10 5 5.15 5.04
4 -10 5 6.57 2.69
4 10 5 4.69 2.55
-4 -10 5 14.57 5.2
-4 -10 -5 16.02 6.36
4 -10 5 -5.32 9
-4 10 -5 7.41 4.01
4 10 5 26.39 16.7
4 -10 -5 2.41 4.08
4 10 -5 10.08 6.75
4 -10 5 10.08 4.88
4 10 -5 6.87 4.11
4 10 -5 6.35 3.3
4 10 5 1.76 2.99
4 -10 -5 4.19 3.56
4 -10 5 9.27 6.2
4 10 5 10.19 6.81
4 11 -5 20.18 13.58
4 -11 -5 33.46 15.2
-4 -11 5 27.64 12.89
4 -11 5 46.11 12.72
-4 -11 -5 23.77 8.6
-4 11 5 38.06 10.73
-4 -11 5 30.42 8.06
-4 -11 -5 31.36 9.38
-4 11 -5 12.78 6.55
4 -11 5 39.54 18.75
4 -11 -5 41.4 12.69
4 11 -5 29.01 10.92
4 -11 5 31.44 8.9
4 11 -5 39.63 8.98
4 11 -5 25.09 6.14
4 -11 5 34.76 12
4 11 5 19.06 9.14
4 11 5 48.18 12.03
4 -11 -5 22.15 6.72
4 11 5 43.93 18.52
4 -12 -5 22.77 13.39
-4 -12 -5 22.89 8.61
-4 12 5 23.34 8.92
4 -12 5 11.92 7.07
-4 -12 5 25.47 12.25
4 12 -5 14.38 11.52
-4 -12 5 29.52 8
-4 -12 -5 26.89 8.6
-4 12 -5 14.08 6.59
4 -12 5 27.92 8.37
4 12 -5 13.93 6.16
4 -12 -5 15.44 7.99
4 12 -5 27.3 6.66
4 12 5 27.35 9.41
4 -12 -5 18.18 6.5
4 -12 5 27.44 14.51
4 12 5 18.01 10.83
4 -12 5 28.37 9.45
4 12 5 19.97 8.87
-4 -13 5 54.85 20.48
-4 -13 -5 65.34 14.89
-4 13 5 86.48 16.6
4 -13 5 49.7 15.04
-4 -13 5 91.77 18.62
-4 -13 5 66.89 13.24
-4 -13 -5 55.68 13.21
4 13 -5 94.91 14.53
-4 13 -5 66.84 13.75
4 -13 5 64 13.12
4 13 5 89.86 17.16
4 -13 -5 58.06 12.21
4 -13 5 50.97 19.37
4 -13 5 71.47 15.22
4 13 5 86.32 17.09
4 13 5 87.07 24.07
4 13 -5 69.88 11.36
-4 -14 -5 4.1 5.49
-4 14 5 3.78 4.52
4 -14 5 2.57 5.32
-4 -14 5 2.37 4.01
-4 -14 5 1.36 3.25
-4 -14 -5 5.41 4.82
-4 14 -5 -1.5 3.12
4 -14 5 1.7 4.06
4 14 -5 8.46 4.46
4 -14 5 6.99 4.18
4 14 -5 2.25 3.3
4 14 5 3.81 4.55
4 14 5 2.16 3.65
4 -14 -5 3.08 3.2
4 -14 5 7.86 9.4
4 14 5 -3.82 6.46
-4 -15 -5 2.11 3.56
-4 15 5 -1.92 3.25
4 -15 5 2.63 3.15
-4 -15 5 4.77 5.7
-4 15 5 2.17 4.5
-4 -15 5 1.44 3.45
-4 -15 -5 -1.86 3.84
-4 15 -5 -1.61 2.72
4 -15 5 -1.79 2.14
4 15 -5 2.98 3.98
4 -15 5 1.62 2.74
4 15 5 -1.76 4.21
4 15 -5 1.23 2.94
4 15 5 2.26 4.68
4 -15 -5 1.66 3.44
4 -15 5 -3.64 4.35
4 15 5 3.52 4.21
-4 16 5 254.1 32.43
-4 -16 -5 236.87 32.65
4 -16 5 305.23 38.96
-4 -16 5 243.71 29.58
-4 16 5 290.6 35.86
-4 -16 -5 329.95 35.17
-4 -16 5 285.19 36.09
-4 16 -5 206.83 29.85
4 16 -5 319.61 32.22
4 -16 5 300.31 42.11
4 16 5 267 39.88
4 -16 5 346.33 34.32
4 -16 5 224.95 28.12
4 16 5 267.56 30.57
4 16 -5 327.19 30.05
4 16 5 354.54 39.11
4 -16 -5 252.98 30.6
-4 -17 -5 72.88 16.77
-4 17 5 57.36 15.06
4 -17 5 67.47 17.78
-4 -17 5 67.35 17.43
-4 17 5 46.44 14.91
-4 -17 -5 85.35 17.36
-4 17 -5 34.17 12.18
4 17 -5 94.61 16.32
4 -17 5 77.21 16.1
4 17 -5 83.67 14.64
4 -17 -5 58.91 14.75
4 17 5 101.94 20.08
4 -17 5 106.73 23.14
4 17 5 81.4 14.79
-4 18 5 187.76 28.73
-4 -18 -5 216.2 31.58
4 -18 5 280.68 36.88
-4 18 5 183.28 29.69
-4 -18 -5 231.55 30.71
-4 -18 5 206.04 31.06
4 18 -5 304.05 32.09
-4 18 -5 119.99 25.79
4 -18 5 250.77 35.65
4 -18 5 233.62 29.91
4 18 5 230.35 25.8
4 18 -5 258.08 28.45
4 18 5 305.2 37.12
4 -18 -5 292.4 32.1
4 0 -6 37.16 23.69
4 0 6 88.86 25.64
4 0 6 53.5 10.81
4 0 6 57.12 10.79
-4 0 -6 46.26 5.8
4 0 6 59.18 33.48
4 0 -6 64.55 19.4
-4 0 6 64.43 10.97
-4 0 6 64.04 10.9
-4 0 6 53.85 10.45
4 1 -6 -7.43 0.93
4 -1 -6 29.54 21.64
4 1 6 17.73 11.89
4 -1 6 13.07 11.69
4 1 6 21.43 6.74
4 -1 6 18.3 6.32
-4 -1 6 17.61 5.69
-4 1 6 21.05 6.52
-4 -1 6 17.92 5.76
-4 1 6 18.87 6.22
-4 -1 -6 17.71 6.67
-4 1 6 22.46 6.69
-4 -1 6 23.11 6.73
4 -1 6 21.33 6.43
-4 -1 -6 14.83 2.8
4 1 -6 24.32 6.8
4 -1 6 19.57 16.57
4 1 6 19.6 16.6
4 -1 -6 21.37 12.08
4 1 -6 7.17 8.63
-4 1 -6 15.59 3.41
4 2 -6 169.83 44.78
4 -2 6 165.29 34.45
4 2 6 121.76 16.64
4 -2 6 134.41 18.64
-4 -2 -6 150.28 19.88
-4 -2 6 166.49 18.92
-4 2 6 135.76 17.26
-4 2 6 136.41 17.52
-4 -2 6 142.1 17.78
-4 2 6 145.59 18.27
-4 2 -6 125.28 12.01
4 2 -6 153.94 17.89
4 -2 -6 119.44 26.96
4 2 6 163.36 50.64
4 -2 6 127.24 17.31
4 2 6 153.17 19.66
4 3 -6 7.28 12.32
4 -3 6 8.14 10.89
4 3 6 8.82 4.37
4 -3 6 -2.95 6.1
-4 -3 6 2.45 4.15
-4 -3 6 1.22 3.85
-4 3 6 -1.21 3.25
-4 -3 -6 3.01 4.41
-4 3 6 2.53 3.03
-4 3 6 1.28 2.65
4 3 -6 1.15 3.36
4 -3 -6 -3.44 5.82
4 3 6 -9.3 22.23
-4 3 -6 1.54 2.67
4 -3 6 1.29 3.77
4 3 6 7.09 5.09
4 4 6 2013.11 126.35
4 -4 6 2171.64 134.12
4 4 -6 2119.21 189.45
4 -4 -6 2285.73 192.83
-4 -4 6 2596.15 132.99
-4 -4 6 2222.51 130.55
-4 4 6 2201.7 130.65
-4 -4 -6 2041.48 131.84
-4 4 6 2091.69 129.91
-4 4 -6 1765.66 119.33
4 4 -6 2445.05 131.07
4 -4 -6 2129.8 154
4 4 -6 1899.81 151.36
4 -4 6 2132.19 130.09
4 -4 6 2777.79 224.89
4 4 6 2498.76 216.79
4 -4 -6 1883.17 117.47
4 4 6 1938.24 158.18
4 -4 6 3055.86 176.54
4 4 6 2301.43 133.28
4 5 -6 27.82 20.46
4 -5 -6 81.12 30.3
4 5 6 35.3 19.43
4 -5 6 43.83 20.58
4 5 6 45.1 9.29
4 -5 6 42.14 12.57
-4 5 6 34.15 9.3
-4 -5 6 41.45 10.04
-4 -5 6 46.54 10.33
-4 -5 -6 44.75 11.08
-4 5 6 39.79 9.9
4 5 -6 28.21 8.3
4 -5 -6 45.47 16.59
4 5 -6 36.84 16.62
4 -5 6 25.23 24.71
4 5 6 8.42 17.55
-4 5 -6 28.28 6.76
4 -5 6 40.24 9.81
4 5 6 52.41 12.3
4 -5 -6 27.93 5.34
4 6 6 2011.28 76.28
4 6 -6 1848.7 148.87
4 -6 -6 1770.81 144.98
4 6 6 748.14 54.06
-4 6 6 1455.53 77.17
-4 -6 6 1719.49 76.26
4 6 6 720.11 53.92
-4 6 6 1666.84 79.47
-4 -6 -6 1698.34 82.28
4 -6 6 2400.51 102.76
4 6 6 2067.94 168.36
-4 6 -6 1462.81 65.91
4 6 -6 1806.25 77.43
4 -6 -6 1826.78 107.96
4 6 -6 1473.74 100.82
4 -6 6 1544.69 76.8
4 -6 6 2168.72 171.37
4 6 6 1766.13 114.51
4 -6 6 1995.27 115.9
4 6 6 1721.43 82.55
4 -6 -6 1545.13 63.76
4 7 -6 -6.51 11.01
4 -7 -6 -6.29 10.63
4 7 6 -0.93 6
4 7 6 -3.5 9.36
4 -7 6 9.66 9.43
4 -7 6 1.92 4.6
4 7 6 -3.91 3.12
-4 -7 6 2.39 3.77
-4 7 6 -1.46 3.03
-4 -7 -6 1.6 4.29
-4 7 6 4.56 4.45
4 -7 6 -1.73 6.86
4 7 -6 1.2 2.49
4 -7 -6 -3.02 6.26
4 7 -6 -3.13 8.37
-4 7 -6 -0.8 3.33
4 -7 6 -7.41 17.72
4 7 6 -7.4 17.69
4 -7 6 2.74 3.28
4 7 6 6.4 4.28
4 -7 -6 2.65 2.37
4 8 6 346 28.78
4 -8 6 314.53 36.57
4 8 -6 337.91 59.9
4 -8 -6 367.61 62.22
-4 -8 6 377.08 32.22
-4 8 6 328.7 33.97
-4 -8 -6 382.08 35.81
4 -8 6 407.17 69.53
-4 8 -6 274.75 27.05
4 8 6 358.2 64.87
4 8 -6 349.02 31.52
4 -8 -6 386.27 45.72
4 8 -6 355.23 44.86
4 -8 6 328.31 32.29
4 8 6 375.42 48.03
4 -8 6 403.62 47.92
4 8 6 358.61 35.38
4 -8 -6 321.27 26.86
4 9 -6 41.95 21.52
4 -9 -6 17.3 11.99
-4 -9 6 25.95 7.47
-4 -9 -6 24.85 8.24
-4 9 6 25.38 8.41
4 -9 6 12.85 15.4
4 9 6 12.76 13.26
4 -9 -6 16.68 10.03
-4 9 -6 25.75 6.68
4 9 -6 37.47 12.94
4 -9 6 21.84 7.26
4 9 -6 12.74 5.38
4 -9 6 25.11 11.61
4 9 6 22.5 8.09
4 -9 -6 15.37 5.29
4 9 6 6.1 9
4 10 -6 17.17 15.34
4 -10 -6 27.48 14.74
-4 -10 -6 20.12 7.66
-4 10 6 30.68 10.41
-4 -10 6 20.02 6.63
-4 -10 -6 19.97 7.54
4 -10 6 17.88 15.98
-4 10 -6 16.47 5.84
4 -10 -6 10.61 9.05
4 10 -6 16.49 8.77
4 10 6 35.46 22.37
4 -10 6 27.58 8.28
4 10 -6 19.77 6.6
4 10 6 25.54 11.32
4 -10 6 25.95 10.81
4 10 6 32.59 9.99
4 -10 -6 26.82 6.97
4 11 -6 -5.46 9.24
4 -11 -6 5.24 8.88
-4 -11 -6 7.58 6.02
-4 -11 6 11.56 5.77
-4 -11 -6 13.66 6.79
4 11 6 21.82 15.98
-4 11 -6 15.39 6.2
4 -11 -6 5.06 5.27
4 11 -6 15.7 8.87
4 -11 6 22.14 14.81
4 -11 6 14.25 6.3
4 11 -6 15.02 5.91
4 11 6 7.57 5.09
4 -11 -6 16.22 5.9
4 -11 6 16.8 8.63
4 11 6 2.63 4.47
4 12 -6 270.37 48.63
4 -12 -6 199.25 42.35
-4 -12 -6 216.2 28.72
4 -12 6 192.26 31.54
-4 -12 6 237.5 26.25
-4 -12 -6 230.21 28.06
-4 12 -6 156.89 23.38
4 -12 6 297.19 50.64
4 12 6 307.01 50.52
4 12 -6 270.67 27.47
4 -12 -6 240.84 32.78
4 12 -6 213.55 32.03
4 -12 6 251.17 28.11
4 -12 6 278.49 33.68
4 12 6 292.08 35.66
4 12 -6 253.53 20.93
4 12 6 265.03 30.84
4 -12 -6 208.59 23.97
4 13 -6 4.94 5.9
4 -13 -6 4.75 5.68
-4 -13 -6 2.04 5.46
4 -13 6 -5.26 8.32
-4 -13 6 21.49 9.47
-4 -13 6 5.52 4.04
-4 -13 -6 3.57 5.64
-4 13 -6 -1.4 2.89
4 -13 -6 2.29 4.74
4 13 -6 2.35 3.98
4 -13 6 8.65 5.85
4 -13 6 -4.75 9.83
4 13 -6 6.02 5.09
4 13 -6 1.55 2.93
4 13 6 6.29 6.14
4 -13 6 4.17 4.98
4 13 6 4.54 5.43
4 -13 -6 2.85 3.82
4 13 6 -4.65 7.86
-4 14 6 1170.56 91.09
-4 -14 -6 1189.5 93.08
4 -14 6 1169.15 99.43
4 14 -6 1298.93 120.35
4 -14 -6 1126.78 115.55
-4 -14 6 1286.41 87.88
-4 14 6 1357.9 97.09
-4 -14 -6 1339.92 92.48
-4 -14 6 1263.92 97.6
-4 14 -6 1134.46 86.84
4 -14 6 1382.17 119.06
4 14 -6 1473.48 91.71
4 14 6 1465.58 120.39
4 -14 -6 1198.09 95.01
4 -14 6 1380.51 92.32
4 -14 6 1247.68 92.86
4 14 6 1281.9 94.76
4 14 6 1594.36 100.34
4 -14 -6 1083.21 86.23
-4 -15 -6 32.34 10.99
-4 15 6 29.46 10.55
4 -15 6 33.29 13.72
4 -15 -6 17.01 13.49
-4 15 6 18.1 9.43
-4 -15 6 19.41 10.1
-4 -15 6 10.65 6.88
-4 -15 -6 16.99 9.09
-4 15 -6 33.57 10.17
4 -15 6 14.99 7.83
4 15 -6 23.38 9.21
4 15 6 27.56 10.69
4 -15 -6 11.62 7.5
4 -15 6 32.34 10.58
4 15 6 17.53 9.08
4 -15 6 12.2 9.78
4 15 6 11.77 9.44
-4 16 6 811.38 73.52
-4 -16 -6 980.29 78.89
4 -16 6 1167.52 89.1
-4 16 6 846.72 77.04
-4 -16 -6 1034.95 77.17
-4 -16 6 846.6 78.15
-4 16 -6 835.06 73.35
4 16 -6 1239.9 78.59
4 -16 6 1047.53 94.75
4 -16 6 1047.51 76.79
4 -16 6 916.91 72.46
4 16 6 978.91 74.72
4 16 6 1389.69 88.74
4 -16 -6 837.71 72.11
4 0 -7 -8.5 14.37
4 0 7 1.29 2.67
4 0 7 3.89 3.8
4 0 -7 1.25 3.95
4 0 -7 4.09 0.05
-4 0 7 5.24 3.84
-4 0 -7 4.7 4.19
-4 0 7 -1.34 3.92
4 1 -7 59.39 28.73
4 -1 -7 25.33 17.56
4 1 7 20.76 6.88
4 -1 7 22.11 7.38
4 -1 7 34.11 8.6
4 1 -7 36.07 8.7
4 -1 -7 65.06 20.69
4 1 -7 24.54 13.93
-4 -1 7 40.88 9.33
-4 -1 7 30.64 8.28
-4 1 7 23.48 7.33
-4 1 7 22.41 7.06
-4 -1 -7 37.59 9.68
-4 1 7 44.61 9.83
4 2 -7 84.12 35.23
-4 -2 -7 97.49 16.25
4 2 7 81.83 13.26
4 -2 7 120.28 17.44
-4 -2 7 128.55 16.84
-4 2 7 93.15 14.82
-4 2 7 90.98 14.63
-4 -2 7 108.61 15.76
-4 2 7 79.3 14.08
-4 2 -7 97.48 10.36
4 -2 -7 84.17 24.05
4 2 -7 100.29 14.93
4 -2 7 86.36 14.28
4 3 -7 107.61 37.36
4 3 7 100.1 14.29
4 -3 7 68.68 13.98
-4 -3 7 116.97 16.37
-4 3 7 112.54 16.16
-4 3 7 98.36 15.36
-4 -3 7 79.41 14.08
-4 -3 -7 77.67 14.67
-4 3 7 89.01 14.78
-4 3 -7 88.27 10.28
4 3 -7 97.24 14.97
4 -3 -7 113.81 27.41
4 -3 7 80.03 14.08
4 3 7 100.28 15.94
4 4 -7 129.47 40.91
4 -4 -7 190.74 50.2
4 4 7 104.44 30.13
4 -4 7 193.23 38.81
4 4 7 113.59 16.65
4 -4 7 240.79 26.4
-4 -4 7 185.68 21.82
-4 4 7 187.88 21.74
-4 -4 7 185.84 21.79
-4 4 7 177.88 21.97
-4 -4 -7 197.93 23.5
-4 4 7 178 21.9
-4 4 -7 144.62 15.05
4 4 -7 200.5 22.34
4 -4 -7 202.46 35.66
4 4 -7 171.79 33.59
4 -4 7 156.88 20.46
4 4 7 175.71 21.95
4 5 -7 7.82 9.35
4 -5 -7 15.31 12.94
4 5 7 4.33 5.18
4 -5 7 -8.12 9.7
4 5 7 1.05 3.06
4 -5 7 3.49 4.66
-4 5 7 -1.47 3.04
-4 -5 7 2.72 2.82
-4 5 7 -1.49 3.08
-4 -5 -7 1.61 1.93
4 5 -7 2.66 3.18
4 -5 -7 -3.7 10.83
4 5 -7 3.79 6.41
-4 5 -7 2.14 1.9
4 -5 7 -1.4 2.37
4 5 7 -1.53 2.58
4 -5 -7 -0.37 1.47
4 6 -7 30.21 18.23
4 -6 -7 29.5 19.87
4 6 7 61.37 20.32
4 -6 7 60.89 20.99
4 -6 7 45.21 11.74
-4 6 7 33.41 9.58
-4 -6 7 48.31 10.29
-4 -6 -7 47.53 11.36
-4 6 7 54.13 11.51
4 6 -7 61.82 11.84
4 -6 7 26.27 21.08
4 6 7 26.17 21
4 -6 -7 60.36 19.14
4 6 -7 32.82 14.67
-4 6 -7 33.41 6.95
4 -6 7 54.15 11.31
4 -6 -7 50.11 6.7
4 6 7 55.28 11.75
4 7 -7 43.54 27.89
4 -7 -7 127.26 37.19
4 7 7 80.3 24.28
4 -7 7 92.02 23.34
4 -7 7 90.16 17.51
-4 -7 7 109.35 16.08
-4 7 7 98.82 16.52
-4 -7 -7 99.92 17.06
-4 7 7 85.08 15.44
-4 7 -7 88.82 12.1
4 7 -7 105.17 15.96
4 -7 7 106.59 37.02
4 -7 -7 115.81 25.6
4 7 -7 87.61 22.74
4 7 7 146.75 43.88
4 -7 7 91.62 14.9
4 7 7 119.97 17.96
4 -7 -7 77.74 9.92
4 8 -7 -6.94 0.17
4 -8 -7 6.75 11.41
4 8 7 7.13 7.39
4 -8 7 9.87 8.8
4 -8 7 4.3 5.14
-4 -8 7 2.68 2.78
-4 8 7 3.27 4.38
-4 -8 -7 8.45 5.35
-4 8 7 -1.69 4.05
4 8 -7 7 4.43
4 -8 -7 6.51 5.51
4 8 -7 -3.34 0.17
4 -8 7 -7.64 9.14
4 8 7 15.17 15.7
-4 8 -7 0.94 2.53
4 -8 7 7.48 4.39
4 8 7 1.7 4.07
4 -8 -7 7.14 3.31
4 9 -7 59.54 25.05
4 -9 -7 32.15 18.88
4 9 7 36.75 13.9
4 -9 7 30.78 13.33
4 -9 7 22.56 9.44
-4 -9 7 28.37 7.86
-4 -9 -7 20.26 8.43
-4 9 7 26.51 8.56
4 9 -7 17.27 7.01
4 -9 -7 24.75 12.34
4 9 -7 25.46 11.49
-4 9 -7 17.61 5.96
4 -9 7 14.21 12.09
4 9 7 49.21 22.28
4 -9 7 35.37 9.47
4 9 7 24.77 8.82
4 -9 -7 24.53 6.04
4 10 -7 -6.29 7.52
4 -10 -7 18.34 12.66
4 10 7 21.66 10.47
4 -10 7 5.7 5.91
-4 -10 -7 3.8 3.95
4 -10 7 11.96 7.01
-4 -10 7 8.35 4.72
-4 -10 -7 8.58 5.04
4 10 7 6.5 7.77
4 -10 -7 2.94 4.99
4 10 -7 9.08 6.27
-4 10 -7 9.04 4.29
4 -10 7 19.78 15.77
4 -10 7 3.23 4.33
4 10 -7 11.91 5.91
4 10 7 5.54 4.43
4 -10 -7 3.93 2.89
4 11 -7 11.91 12.4
4 -11 -7 23.19 15.55
4 11 7 14.39 9.19
4 -11 7 21.19 10.58
4 -11 7 25.17 10.92
-4 -11 -7 33.33 10.81
-4 -11 7 20.83 7.34
-4 -11 -7 21.05 7.94
4 -11 7 42.83 20.73
4 11 7 30.06 17.65
4 -11 -7 39.17 13.84
4 11 -7 20.06 10.35
-4 11 -7 17.18 6.83
4 -11 7 25.03 8.32
4 11 -7 29.48 8.98
4 11 7 23.18 8.73
4 -11 -7 20.13 6.66
4 12 -7 338.24 57.97
4 -12 -7 296.45 54.66
-4 -12 -7 305.44 35.81
-4 -12 7 316.83 32.2
-4 -12 -7 311.54 34.37
4 -12 7 464.57 66.34
4 12 7 322.01 55.22
-4 12 -7 294.43 31.13
4 12 -7 400.75 36.24
4 -12 -7 349.57 42.08
4 12 -7 354.29 42.94
4 -12 7 350.64 35.12
4 -12 7 342.3 40.96
4 12 7 320.49 40.78
4 12 7 382.07 38.69
4 -12 -7 269.81 29.05
-4 -13 -7 43.85 12.85
4 13 -7 74.59 26.44
4 -13 -7 31.19 18.89
-4 -13 7 55.08 12.32
-4 -13 -7 61.79 13.56
-4 13 7 97.19 18.3
4 13 7 56.25 22.25
-4 13 -7 31.7 10.64
4 -13 -7 52.73 14.72
4 13 -7 58.76 17.01
4 -13 7 31.51 18.02
4 -13 7 81.25 15.57
4 13 -7 81.81 15.25
4 13 7 73.95 15.87
4 -13 7 50.07 13.94
4 13 7 83.81 19.12
4 -13 -7 47.63 11.52
4 14 -7 90.63 30.24
4 -14 -7 73.89 28.42
-4 -14 -7 100.77 19.65
4 -14 7 140.42 26.97
-4 -14 7 131.75 19.52
-4 -14 7 123.21 22.85
-4 -14 -7 127.36 20.72
-4 14 7 103.04 20.72
4 14 7 132.05 32.59
4 14 -7 148.69 21.55
4 -14 -7 142.36 23.83
-4 14 -7 97.6 17.96
4 -14 7 126.36 32
4 -14 7 152.76 21.71
4 14 -7 129.92 23.61
4 14 7 146.04 24.09
4 -14 -7 103.16 17.58
4 -14 7 120.25 21.7
4 14 7 166.42 24.79
-4 0 -8 1612.1 107.57
4 0 8 1514.97 103.38
4 0 -8 1542.61 136.56
-4 0 8 1650.47 105.86
-4 0 8 1741.32 106.81
4 1 -8 9.71 16.57
4 -1 -8 19.35 25.96
4 1 8 33.08 9.64
4 -1 8 49.09 11.79
4 -1 8 46.14 10.5
4 1 -8 48.32 10.92
4 -1 -8 64.56 24.14
-4 -1 8 30.61 9.95
-4 -1 8 58.23 12.01
-4 1 -8 43.16 11.27
-4 1 8 30.62 9.96
-4 1 8 40.64 11.06
-4 -1 -8 54.31 12.64
4 2 -8 528.28 98.06
-4 -2 -8 649.53 53.9
4 2 8 608.84 49.37
4 -2 8 718.84 54.5
4 2 -8 662.19 51.99
4 -2 -8 677.05 78.41
4 -2 8 652.12 51.51
-4 -2 8 703.1 53.67
-4 2 8 646.58 52.2
-4 -2 8 700.82 53.47
-4 2 8 681.76 53.08
4 3 -8 -9.43 0.34
4 3 8 7.04 4.67
4 -3 8 8.16 5.53
-4 3 8 9.03 5.98
-4 -3 8 1.47 3.54
-4 -3 8 10.59 6.01
-4 3 8 4.46 4.37
-4 -3 -8 13.2 6.84
4 3 -8 14.19 6.36
4 -3 -8 4.44 7.51
4 -3 8 5.64 5.07
4 4 -8 347.98 73.29
4 -4 -8 261.87 63.77
4 4 8 311.95 29.36
4 -4 8 366.21 36.06
-4 -4 8 365.04 34.68
-4 4 8 322.07 33.04
-4 4 8 333.31 33.73
-4 -4 -8 289.08 32.78
4 4 -8 358.93 33.99
4 -4 -8 391.88 54.66
4 4 -8 316.36 49.62
4 -4 8 380.41 34.09
4 4 8 337.22 33.28
4 5 -8 35.43 23.94
4 -5 -8 78.41 33.13
4 5 8 62.74 11.06
4 -5 8 58.14 13.67
-4 -5 8 81.76 14.16
-4 5 8 57.89 12.8
-4 5 8 52.78 12.25
-4 -5 -8 51.79 12.16
4 5 -8 84.73 14.78
4 -5 -8 66.95 22.09
4 5 -8 77.05 23.15
4 -5 8 78.84 13.88
4 5 8 66.45 13.14
4 6 -8 68.09 32.83
4 -6 -8 125.46 41.74
4 6 8 97.57 14
4 -6 8 119.32 20.76
-4 -6 8 104.41 16.63
-4 6 8 143.97 20.57
-4 -6 -8 130.31 19.56
4 6 -8 122.44 18.35
4 -6 -8 148.55 31.79
4 6 -8 115.18 27.72
4 -6 8 136.34 19.01
4 6 8 150.07 20.35
4 7 -8 -8.1 0.25
4 -7 -8 -7.98 9.55
4 7 8 4.13 8.55
4 -7 8 3.85 10.28
4 -7 8 2.08 6.08
-4 -7 8 8.63 5.17
-4 7 8 5.2 4.64
-4 -7 -8 5.1 4.55
4 7 -8 12.27 5.51
4 -7 -8 7.67 7.95
4 7 -8 -3.93 10.51
4 -7 8 7.86 4.98
4 7 8 8.27 5.6
4 -8 8 973.47 72.98
4 8 -8 817.45 108.78
4 -8 -8 854.69 110.06
-4 -8 8 741.43 60.27
-4 -8 -8 707.79 61.81
4 8 -8 843.87 63.28
4 -8 -8 818.78 81.54
4 8 -8 783.33 80.42
4 -8 8 812.81 62.64
4 8 8 851.18 113.95
4 8 8 817.61 83.23
4 -8 8 917.77 85.98
4 8 8 865.08 64.88
4 9 -8 51.22 26.3
4 -9 -8 43.02 24.3
4 9 8 32.18 16.64
4 -9 8 19.91 13.84
4 -9 8 20.9 10.52
-4 -9 8 29.29 8.91
-4 -9 -8 36.37 11.08
4 9 -8 35.32 10.29
4 -9 8 23.12 20.67
4 -9 -8 34.54 15.54
4 9 -8 38.87 16.45
4 9 8 30.39 20.38
4 -9 8 27.91 9.35
4 9 8 28.69 9.73
-4 -10 -8 733.28 65.85
4 -10 8 875.88 73.39
4 10 -8 870.85 108.29
4 -10 -8 901.29 109.59
-4 -10 8 933.01 65.1
-4 -10 -8 791.98 64.95
-4 10 8 789.58 67.01
-4 10 -8 693.25 58.28
4 10 -8 934.29 67.23
4 -10 -8 886.35 82.12
4 10 -8 815.35 80.13
4 -10 8 845.95 65.17
4 -10 8 1016.46 116.3
4 10 8 935.32 112.71
4 10 8 892.21 82.28
4 -10 8 1021.14 85.55
4 10 8 915.52 68.36
4 0 -9 11.07 13.24
4 0 9 -1.38 3.7
4 0 -9 5.27 6.3
-4 0 9 -1.59 3.28
-4 0 -9 1.71 3.55
4 1 -9 33.13 22.9
4 -1 -9 22.01 22.83
4 1 9 22.2 6.93
4 -1 9 22.28 7.85
4 1 -9 39.27 9.97
4 -1 -9 31.47 16.64
-4 -1 9 16.01 6.76
-4 1 9 28.5 8.97
-4 1 -9 24.16 8.61
-4 -1 -9 22.19 8.01
4 2 -9 32.71 26.31
4 2 9 59.54 11.55
4 -2 9 59.91 12.85
4 2 -9 78.9 13.9
4 -2 -9 51.58 22.51
4 -2 9 79.07 13.54
-4 -2 9 96.2 15.87
-4 -2 9 69.4 13.66
-4 2 9 58.94 12.83
-4 2 -9 45.39 11.77
-4 -2 -9 64.49 13.3
4 3 -9 32 25.76
4 3 9 71.75 12.33
4 -3 9 73.69 14.75
4 -3 9 65.18 12.76
4 3 -9 56.99 12.47
4 -3 -9 75.46 25.06
4 3 -9 51.08 22.31
-4 -3 9 93.68 16.15
-4 3 9 66.23 13.45
-4 -3 -9 57.81 13.2
4 4 -9 -10.35 17.5
4 -4 -9 10.23 12.23
4 4 9 1.12 3.01
4 -4 9 1.76 4.22
4 4 -9 11.03 5.96
4 -4 -9 4.86 8.23
4 4 -9 4.96 5.93
4 -4 9 7.42 4.7
-4 -4 9 6.38 5.05
-4 4 9 6.57 3.93
-4 -4 -9 6.82 4.57
4 5 -9 9.97 11.91
4 -5 -9 -9.83 11.76
-4 -5 9 4.67 3.72
-4 5 9 1.67 2
-4 -5 -9 5.13 4.57
4 5 -9 -1.63 5.15
4 -5 -9 -4.67 7.9
4 5 -9 -4.78 8.08
-5 0 0 0.68 1.83
-5 0 0 0.66 1.76
-5 0 0 3.36 1.66
-5 0 0 1.1 2.28
-5 0 0 -2.29 3.86
-5 0 0 0.93 1.23
5 0 0 -3.23 6.69
5 0 0 6.56 11.1
-5 1 0 134 16.2
-5 1 0 120.37 14.15
-5 -1 0 107.92 11.75
-5 -1 0 132.55 16.4
-5 -1 0 176.43 11.98
-5 1 0 109.19 12.78
-5 1 0 141.65 10.65
-5 -1 0 114.93 12.32
-5 1 0 78.27 17.85
-5 -1 0 97.64 20.87
-5 -1 0 109.6 9.41
-5 1 0 112.53 10.26
5 -1 0 112.13 25.11
5 1 0 119.31 25.55
5 -1 0 118.01 36.52
5 1 0 104.18 32.77
-5 2 0 -0.97 3.29
-5 -2 0 0.85 1.61
-5 -2 0 1.38 2.86
-5 -2 0 1.87 2.36
-5 -2 0 0.42 1.23
-5 2 0 1.39 1.25
-5 -2 0 2.26 2.34
-5 -2 0 1.79 1.74
-5 2 0 -1.93 4.61
-5 -2 0 -2.58 8.73
-5 -2 0 0.42 0.91
-5 2 0 0.41 0.98
5 -2 0 6.3 5.33
5 2 0 -6.4 0.03
-5 -3 0 931.45 64.93
-5 3 0 852.11 60.36
-5 3 0 969.69 52.19
-5 -3 0 945.14 54.97
-5 -3 0 828.61 53.94
-5 -3 0 958.17 62.08
-5 3 0 948.71 68.87
-5 -3 0 854.01 76.32
-5 -3 0 770.63 48.78
5 3 0 930.42 105.93
-5 3 0 832.91 52.63
5 3 0 1031.15 64.63
5 -3 0 1016.47 84.04
-5 -4 0 6.02 5.4
-5 4 0 -1.25 7.35
-5 -4 0 2.23 2.58
-5 4 0 1.56 2.47
-5 -4 0 3.56 4.26
-5 4 0 -1.54 5.52
-5 -4 0 -2.81 8.88
-5 -4 0 -0.52 1.85
5 -4 0 4.74 4.01
-5 4 0 2.1 2.08
5 4 0 -1.31 4.7
5 -4 0 2.99 8
5 4 0 3.06 7.31
5 -4 0 24.8 18.16
5 4 0 6.04 10.21
-5 -5 0 2762.02 176.19
-5 5 0 2929.06 174.94
-5 5 0 2805.81 162.29
-5 -5 0 2688.7 162.39
-5 -5 0 3018.38 173.28
-5 5 0 3047.5 175.53
-5 -5 0 2743.5 192.21
5 -5 0 3332.55 235.13
5 5 0 3669.36 239.35
-5 5 0 2641.49 163.93
5 -5 0 3104.05 173.52
5 5 0 3295.46 176.79
5 -5 0 3431.24 199.18
5 5 0 3221.37 198.25
-5 -6 0 4.94 4.83
-5 6 0 -1.5 6.73
-5 -6 0 1.23 1.83
-5 -6 0 1.25 3.35
-5 -6 0 8.86 9.35
-5 6 0 5.37 3.21
5 -6 0 -1.23 3.6
5 6 0 2.78 3.72
5 -6 0 -2.75 6.58
5 6 0 -5.66 8.94
5 -6 0 5.76 9.73
5 6 0 -5.54 9.36
-5 -7 0 688.59 58.67
-5 7 0 757.1 59.42
-5 -7 0 726.59 55.55
-5 -7 0 749.25 72.19
5 -7 0 802.98 92.41
5 7 0 863.33 94.2
-5 7 0 658.37 49.05
5 -7 0 832.9 57.03
5 7 0 818.32 58.68
5 -7 0 813.21 70.43
5 7 0 870.28 73.35
-5 -8 0 1.78 3.68
-5 8 0 -1.7 5.39
-5 -8 0 -1.31 3.12
-5 -8 0 6.1 7.29
5 -8 0 -1.31 3.13
5 8 0 1.52 2.56
-5 -9 0 85.74 16.99
-5 9 0 131.91 20.21
5 -9 0 123.92 20.14
-5 -9 0 126.88 17.58
-5 -9 0 98.51 23.85
5 -9 0 123.59 17.13
5 9 0 127.02 18.81
-5 -10 0 1.95 3.3
5 -10 0 2.04 4.23
-5 10 0 1.85 3.13
-5 -10 0 1.43 2.41
-5 -10 0 -3.09 3.7
5 -10 0 -1.41 1.68
5 10 0 -1.67 4
-5 -11 0 22.51 8.93
5 -11 0 42.45 11.98
-5 11 0 26.64 9.21
-5 -11 0 21.62 11.76
-5 -11 0 25.12 8.58
5 -11 0 30.45 8.6
5 11 0 30.09 9.08
5 -11 0 17.41 6.35
-5 -12 0 -2.14 5.11
5 -12 0 -2.19 4.53
-5 12 0 3.89 5.7
-5 -12 0 -1.56 2.63
5 -12 0 1.5 3.11
5 12 0 1.87 3.17
5 -12 0 1.43 2.96
-5 13 0 880.64 68.71
-5 -13 0 732.24 67.12
5 -13 0 683.37 66.75
-5 -13 0 792.87 62.82
5 -13 0 890.42 64.13
5 -13 0 768.62 61.66
5 13 0 1037.93 71.52
-5 -14 0 4.65 4.81
5 -14 0 -2.31 4.79
-5 14 0 -6 8.28
-5 -14 0 1.68 3.48
5 -14 0 4.97 3.97
5 14 0 2.12 4.4
5 -14 0 -1.62 3.86
-5 15 0 1311.51 90.68
-5 -15 0 1013.55 89.09
5 -15 0 959.66 87.23
-5 -15 0 1097.76 84.45
5 -15 0 1317.83 86.68
5 -15 0 1140.63 84.79
5 15 0 1557.61 97.27
-5 16 0 -6.07 8.02
5 -16 0 -2.39 5.71
-5 -16 0 -2.53 5.25
-5 -16 0 3.66 3.79
5 -16 0 1.82 3.77
5 16 0 2.4 5.75
5 -16 0 7.22 6.48
-5 17 0 698.59 59.18
5 -17 0 518.69 56.25
-5 -17 0 486.95 57.08
-5 -17 0 543.56 53.14
5 -17 0 708.14 56.05
5 -17 0 617.43 54.56
5 17 0 856.11 66.96
-5 18 0 2.02 6.4
5 -18 0 2.4 2.87
-5 -18 0 2.72 4.61
-5 -18 0 1.99 4.13
5 -18 0 1.98 4.11
-5 -18 0 2.25 3.3
5 18 0 2.67 4.52
5 -18 0 -1.97 3.33
-5 0 -1 -0.56 1.64
-5 0 1 -1.3 2.2
-5 0 1 0.94 1.59
-5 0 1 1.56 1.87
-5 0 -1 3.72 1.91
-5 0 1 -0.81 1.67
-5 0 1 1.51 1.34
-5 0 -1 -1.2 1.44
-5 0 1 -1 2.06
-5 0 -1 0.53 0.73
-5 0 1 0.42 0.71
-5 0 1 2.4 2.03
5 0 1 6.86 11.6
5 0 1 -3.29 3.94
-5 1 -1 9.98 3.6
-5 -1 -1 8.88 2.91
-5 1 1 13.68 5.18
-5 1 1 7.62 3.95
-5 -1 1 5.49 3.02
-5 -1 1 9.55 4.93
-5 -1 1 20.47 9.69
-5 1 1 11.58 7.35
-5 -1 -1 11.66 3.13
-5 -1 1 10.54 3.86
-5 1 1 10.6 3.82
-5 -1 1 14.3 4.54
-5 -1 1 20.11 4.21
-5 1 1 13.96 3.5
-5 1 1 16.73 5.29
-5 -1 -1 13.37 5.27
-5 -1 1 6.07 3.47
-5 1 -1 7.55 3
-5 -1 1 13.46 3.09
-5 1 1 16.05 3.47
-5 1 -1 9.06 2.13
-5 1 1 13.02 3.75
-5 -1 1 12.36 3.57
5 -1 1 13.68 11.58
5 1 1 20.43 14.12
5 -1 1 6.52 7.82
5 1 1 3.29 3.98
-5 -2 1 271.12 28.38
-5 -2 -1 316.19 28.42
-5 2 1 288.36 25.48
-5 2 1 303.74 28.3
-5 -2 1 269.57 22
-5 2 -1 256.19 23.14
-5 -2 1 347.48 22.26
-5 2 1 325.84 22.02
-5 -2 -1 292.43 20.5
-5 -2 1 244.68 22.04
-5 -2 1 294.74 26.11
-5 -2 1 296.25 23.53
-5 -2 1 249.85 35.54
-5 2 1 256.65 33.1
-5 -2 1 284.63 19.6
-5 2 1 265.42 20.53
-5 2 -1 205.92 18.06
5 -2 1 243.1 38.29
5 2 1 247.92 53.43
-5 2 1 288.23 22.39
-5 -2 1 283.68 21.65
-5 3 -1 57.89 10.07
-5 -3 1 79.56 13.73
-5 -3 1 54.96 7.17
-5 3 1 68.36 12.69
-5 -3 1 71.38 18.29
-5 3 1 64.64 15.07
-5 -3 1 69.5 8.55
-5 3 1 66.61 8.25
-5 -3 -1 67.02 7.36
-5 -3 1 57.65 8.38
-5 -3 1 70.97 9.44
-5 -3 1 66 10.88
-5 -3 -1 56.77 7.5
-5 -3 -1 52.72 10.72
-5 -3 1 60.02 6.62
-5 3 1 58.74 7.79
-5 3 -1 46.82 6.41
5 -3 1 76.53 12.37
5 3 1 75.19 13.1
5 3 1 104.52 33.31
5 -3 1 68.4 18.52
-5 -3 1 78.23 8.89
-5 -4 1 76.9 13.87
-5 -4 1 51.15 5.93
-5 4 -1 73.19 11.44
-5 -4 -1 53.57 11.8
-5 4 1 72.87 13.65
-5 -4 1 67.67 17.78
-5 4 1 77.86 15.66
-5 -4 1 77.44 9.2
-5 4 -1 40.67 4.2
-5 4 1 71.48 8.53
-5 -4 1 68.57 9.29
-5 -4 1 57.59 7.93
-5 -4 -1 53.07 6.85
-5 -4 -1 60.38 11.18
-5 -4 1 62.68 10.87
-5 -4 1 57.62 6.38
-5 4 1 60.97 8.12
-5 4 -1 54.77 7.21
5 -4 1 81.35 12.71
5 4 -1 55.08 10.79
5 4 1 79.49 13.38
5 -4 1 96.1 30.79
5 4 1 82.05 30.34
5 -4 1 72 19.23
5 4 1 71.52 19.2
-5 -4 1 79.75 8.95
-5 5 -1 1.16 2.4
-5 -5 1 1.02 0.98
-5 -5 1 -1.64 2.78
5 -5 1 1.71 3.54
-5 5 1 3.19 3.81
-5 -5 -1 1.55 3.21
-5 -5 1 2.86 3.42
-5 5 1 11.74 6.02
-5 -5 1 4.53 2.57
-5 5 -1 1.03 0.99
-5 -5 1 0.56 1.34
-5 -5 -1 -1.32 2.23
-5 -5 1 1.12 1.89
-5 -5 -1 0.75 0.9
5 -5 -1 3.41 2.72
-5 5 1 -0.64 1.33
-5 5 -1 1.64 1.6
-5 -5 1 0.93 1.12
5 -5 1 1.27 1.52
5 5 -1 1.26 2.6
5 5 1 1.43 0.05
-5 -5 1 0.58 1.39
5 -5 1 -6.17 10.44
5 5 1 -6.08 10.29
5 -5 1 2.9 3.47
5 5 1 -3.02 5.11
-5 -6 -1 161.69 21.32
-5 -6 1 159.28 21.87
-5 6 1 165.08 22.65
-5 6 -1 150.66 18.8
5 -6 1 155.79 22.45
-5 -6 1 151.27 27.94
-5 6 -1 106.38 10.09
-5 -6 1 153.5 13.33
-5 -6 -1 108.13 10.31
-5 -6 -1 165.59 19.85
-5 -6 1 156.07 18.05
-5 6 1 149.28 20.34
-5 6 1 139.78 14.45
-5 6 -1 122.61 13.22
5 -6 1 137.01 18.02
5 -6 -1 158.75 18.3
-5 -6 1 156.57 14.24
5 6 -1 167.21 19.65
5 6 1 175.12 21.17
5 -6 1 166.21 40.2
5 6 1 162.45 39.93
5 -6 1 210.23 31.03
5 6 1 188.2 30.29
-5 -7 -1 37.19 10.3
-5 7 -1 44.97 10.54
-5 -7 1 28.81 9.83
5 -7 1 37.43 11.14
-5 7 1 35.27 10.52
-5 -7 1 29.18 12.73
-5 -7 1 30.06 7.21
-5 -7 -1 40.11 9.98
-5 -7 1 19.21 6.72
-5 7 1 38.16 9.21
5 -7 -1 48.77 9.74
5 -7 1 41.69 9.58
-5 -7 1 38.83 6.68
5 7 -1 44.66 9.91
5 7 1 38.59 9.79
5 -7 1 50.91 23.51
5 7 1 27.46 16.21
5 -7 1 52.55 14.87
5 7 1 60.59 16.58
-5 -8 -1 362.64 37.43
-5 8 1 371.6 38.49
-5 -8 1 355.74 38.24
-5 8 -1 322.54 34.56
5 -8 1 389.03 39.78
-5 -8 -1 315.49 33.09
-5 -8 1 371.85 33.71
-5 8 1 352.14 31.86
-5 -8 1 359.72 46.05
5 -8 1 380.6 59.84
5 8 1 425.72 62.33
5 -8 1 418.47 36.01
5 -8 -1 403.71 34.22
-5 -8 1 375.35 28.09
5 8 -1 416.99 36.1
5 8 1 411.48 37.62
5 -8 1 398.49 44.7
5 8 1 425.93 46.34
-5 9 -1 22.69 8.53
-5 -9 -1 29.29 9.36
-5 -9 1 15.82 7.19
5 -9 1 24.48 9.2
-5 9 1 22.63 9.37
-5 -9 -1 21.8 7.26
-5 -9 1 14.4 6.75
-5 9 1 24.88 6.18
-5 -9 1 20.66 10.05
5 -9 1 22.96 7.37
5 -9 -1 20.37 6.74
5 9 -1 26.79 7.85
5 9 1 18.49 7.06
5 -9 -1 36.09 8.29
5 -9 1 10.13 10.56
5 9 1 14.66 11.75
5 -9 1 33.12 11.72
5 9 1 14.88 8.47
-5 10 -1 15.36 7.08
-5 -10 -1 13.23 6.41
-5 -10 1 8.27 5.54
5 -10 1 10.69 6.77
-5 10 1 5.79 5.18
-5 -10 -1 10.41 5.64
-5 10 1 5.81 3.21
-5 -10 1 2.74 3.69
-5 -10 1 11.86 7.94
5 -10 1 4.43 4.34
5 -10 -1 11.94 5.28
5 10 -1 6.28 3.78
5 10 1 5.3 4.74
5 -10 -1 12.14 5.45
5 -10 1 11.25 6.03
5 10 1 14.12 8.91
5 -10 1 23.91 14.01
5 10 1 32.13 15.53
-5 11 -1 58.76 13.55
-5 -11 -1 57.38 13.59
-5 -11 1 73.65 16.31
5 -11 1 48.65 13.38
-5 11 1 80.59 16.46
5 11 1 56.86 8.75
-5 -11 -1 54.27 12.05
-5 -11 1 47.45 11.25
-5 -11 1 38.39 14.94
5 11 -1 63.82 7.34
5 -11 1 63.99 12.67
5 -11 -1 62.27 12.28
5 11 -1 71.53 14.18
5 11 1 85.74 15.96
5 -11 -1 65.07 11.81
5 -11 1 70.25 16.04
5 11 1 57.74 14.92
5 -11 1 67.56 22.46
5 11 1 116.35 27.95
-5 -12 -1 186.24 27.2
-5 12 1 213.15 28.41
-5 12 -1 151.13 24.2
-5 -12 1 170.35 26.86
5 -12 1 214.1 29.58
-5 -12 -1 182.65 23.93
-5 -12 1 178.38 23.46
-5 -12 1 129.88 28.41
5 12 -1 194.95 15.86
5 -12 1 237.78 25.74
5 -12 -1 220.4 24.54
5 -12 -1 174.55 22.48
5 -12 1 195.07 37.69
5 12 1 145.26 32.26
5 12 -1 249.33 27.93
5 12 1 257.67 29.54
5 -12 1 184.16 26.34
5 12 1 185.16 26.64
-5 13 -1 101.69 19.25
-5 -13 -1 86.61 18.56
5 -13 1 83.44 19
-5 -13 1 87.86 20.17
-5 13 1 112.73 20.74
-5 -13 -1 103.91 17.7
-5 -13 1 96.94 22.19
-5 -13 1 103.77 17.46
5 13 -1 114.06 11.13
5 -13 1 144.4 19.97
5 -13 -1 138.49 18.54
5 -13 -1 106.32 16.82
5 -13 1 116.41 17.94
5 13 1 102.35 19.15
5 -13 1 107.49 26.76
5 13 -1 161.67 22.27
-5 14 -1 53.82 13.83
-5 -14 -1 47.33 14.67
5 -14 1 38.91 12.81
-5 -14 1 64.36 17.09
-5 14 1 69.23 16.15
-5 -14 1 40.96 15.24
-5 -14 -1 62.73 13.62
-5 -14 1 57.71 13.08
5 14 -1 69.69 8.46
5 -14 1 62.78 13.79
5 -14 -1 60.27 12.86
5 -14 1 70.63 14.03
5 14 -1 98.3 17.63
5 14 1 101.95 19.05
5 -14 -1 69.76 13.58
-5 15 -1 62.4 15.69
-5 -15 -1 60.95 15.58
5 -15 1 52.29 14.52
-5 -15 1 43.74 14.99
-5 15 1 53.17 13.43
-5 -15 -1 47.18 12.92
-5 -15 1 29.39 10.67
5 -15 1 67.12 13.97
5 -15 -1 58.9 12.65
5 15 -1 38.95 6.98
5 15 -1 60.03 14.74
5 15 1 65.83 16.12
5 -15 -1 52.32 12.23
5 -15 1 43.35 11.47
-5 -16 1 26.62 12.54
-5 16 -1 51.23 14.32
-5 -16 -1 56.2 15.63
5 -16 1 37.93 13.38
-5 16 1 79.84 16.76
-5 -16 -1 37.42 11.2
-5 -16 1 9.08 8.17
5 -16 1 67.03 14.3
5 -16 -1 71.5 13.7
-5 -16 1 34.76 7.88
5 16 -1 57.16 14.9
5 16 1 69.77 16.75
5 -16 -1 58.52 13.28
5 -16 1 56.43 13.08
-5 17 -1 112.86 22.13
-5 -17 1 90.89 22.05
5 -17 1 73.99 18.92
-5 -17 -1 96.81 21.21
-5 17 1 133.8 22.8
-5 -17 -1 101.1 19.82
5 -17 1 141.07 21.7
5 -17 -1 150.85 21.25
5 -17 -1 119.64 19.65
5 -17 1 150.76 22.58
5 17 1 140.86 24.81
5 17 -1 136.3 23.44
-5 18 -1 98.7 20.53
-5 -18 1 96.54 21.94
5 -18 1 51.06 15.98
-5 -18 -1 97.98 21.04
-5 18 1 133.35 22.78
-5 -18 -1 121.16 21.11
5 -18 -1 109.26 18.59
5 -18 1 99.43 18.73
5 18 1 137.52 24.37
5 -18 -1 107.77 19.57
5 18 -1 161.01 25.82
-5 0 2 15.3 6.9
-5 0 2 6.25 6.89
-5 0 2 15.98 5.37
-5 0 2 4.99 8.48
-5 0 2 20.21 5.27
-5 0 -2 12.34 3.3
-5 0 -2 10.5 5.93
-5 0 2 21.46 6.38
-5 0 2 13.41 4.85
-5 0 2 16.72 4.18
-5 0 2 23.92 5.33
5 0 2 6.99 10.27
5 0 2 29.32 19.61
-5 1 2 1817.32 90.96
-5 1 2 1586.7 89.32
-5 -1 2 1973.57 94.97
-5 -1 2 1599.09 85.72
-5 -1 -2 1930.49 92.12
-5 1 -2 1542.81 75.61
-5 -1 2 2092.59 82.5
-5 1 2 2068.14 82.32
-5 -1 2 1681.43 82.38
-5 -1 -2 1536.45 73.64
-5 1 2 1923.67 84.96
-5 1 2 1628.67 83.53
-5 -1 2 1859.63 85.08
-5 -1 2 1918.2 84.83
-5 -1 2 1910.51 110.64
-5 1 2 1960.88 109.07
-5 1 2 1879.92 85.51
-5 1 -2 786.09 69.72
-5 -1 2 1784.35 77.87
-5 1 2 1745.76 78.29
-5 1 -2 841.56 69.76
5 -1 2 1247.68 141.39
5 1 2 1398.61 145.19
5 -1 2 1622.72 115.62
5 1 2 1386.28 111.77
-5 1 2 1877.39 79.97
-5 -1 2 1929.69 79.34
-5 2 2 5.02 3.97
-5 2 -2 3.58 3.53
-5 -2 2 -1.54 3.19
-5 2 2 1.49 5.92
-5 -2 2 4.72 4.52
-5 -2 -2 4.24 1.74
-5 -2 2 7.95 7.76
-5 2 2 2.31 6.18
-5 2 2 5.01 3.59
-5 -2 2 4.6 2.73
-5 2 2 4.78 2.83
-5 2 2 0.87 2.34
-5 -2 -2 2.69 4.25
-5 -2 2 3.78 3.39
-5 2 2 2.88 3.04
-5 -2 2 -0.86 2.3
-5 -2 2 3.9 2.8
-5 2 -2 1.5 1.35
-5 2 -2 2.42 2.01
-5 -2 2 3.41 2.47
-5 2 2 1.75 2.2
5 2 2 11.43 5.92
-5 2 2 1.93 2.98
5 -2 2 -3.4 8.12
-5 -2 2 0.54 1.94
5 2 2 -7.19 17.19
-5 3 2 495.24 37.95
-5 3 2 383.71 38.97
-5 -3 2 413.79 32.15
-5 -3 2 499.67 42.26
-5 3 2 397.53 32.7
-5 3 -2 439.34 33.18
-5 -3 2 508.11 32.57
-5 3 2 467.38 32.52
-5 -3 2 418.17 31.83
-5 -3 2 498.55 34.36
-5 -3 -2 461.74 38.51
-5 -3 2 471.15 35.06
-5 3 2 417.85 35.08
-5 -3 2 422.65 48.5
-5 3 2 483.18 46.56
-5 -3 2 468.88 30.01
-5 3 2 404.17 30.39
-5 3 -2 315.83 26.74
5 3 2 531.99 78.87
5 -3 2 461.04 53.74
-5 3 2 445.62 31.88
-5 -3 2 481.61 30.49
-5 4 -2 3.66 3.63
-5 -4 2 6.87 5.03
5 -4 2 5.04 4.92
-5 4 2 -1.68 5.32
-5 -4 2 2.35 2.22
-5 4 2 -1.12 2.32
-5 -4 2 2.76 4.67
-5 4 2 2.07 4.96
-5 -4 2 5.51 2.61
-5 -4 2 5.05 3.18
-5 4 2 4.38 2.62
-5 -4 -2 2.77 3.71
-5 -4 2 2.09 2.04
-5 -4 2 4.96 3.56
-5 4 -2 0.42 1.34
-5 -4 2 1.33 1.5
-5 4 2 2.61 2.07
-5 4 2 1.46 1.96
5 -4 2 -3.17 5.35
5 4 2 3.32 5.62
-5 -4 2 5.7 2.48
5 -4 2 -6.8 11.5
5 4 2 6.76 11.43
-5 5 2 71.38 11.61
-5 -5 2 94.15 16.46
-5 -5 2 57.08 7.17
-5 5 -2 80.04 12.01
5 -5 2 68.32 14.36
-5 5 2 40.42 11.88
-5 -5 2 89.69 10.5
-5 -5 2 67.51 18.16
-5 5 2 77.5 15.79
-5 -5 2 94.34 11.66
-5 -5 2 65.36 9.12
-5 -5 -2 49.77 6.08
-5 -5 -2 82.06 13.7
-5 -5 2 56.4 10.18
-5 -5 2 87.55 8.71
5 -5 2 69.49 18.77
5 5 2 95.96 21.94
5 5 -2 72.06 12.02
5 -5 2 52.18 23.67
5 5 2 58.22 24.73
-5 -5 2 68.78 8.18
-5 -6 2 5.66 5.86
-5 6 2 1.79 3.03
-5 -6 2 6.75 3.11
-5 -6 -2 1.32 1.02
-5 -6 -2 5.83 3.9
-5 -6 2 2.18 2.91
-5 6 -2 2.27 2.35
-5 -6 2 3.8 4.54
5 -6 2 3.7 4.42
-5 6 2 -1.83 4.88
-5 -6 -2 6.5 4.35
-5 -6 2 3.2 1.33
5 6 -2 5.99 3.8
5 -6 2 11.49 6.87
5 6 2 9.17 7.31
-5 -6 2 2.56 1.94
5 -6 2 12.44 14.88
5 6 2 6.16 10.41
-5 -7 -2 296.11 32.28
-5 7 2 297.44 34.02
-5 -7 2 310.37 35.57
-5 7 -2 291.06 29.37
5 -7 2 301.77 34.57
-5 -7 2 300.9 25.8
-5 -7 -2 301.71 31.18
-5 -7 2 288.42 28.22
-5 -7 2 294.78 40.19
-5 7 2 327.46 33.45
5 -7 2 355.75 32.23
5 -7 2 342.8 58.54
5 7 2 361.13 59
5 -7 -2 274.38 27.25
5 -7 2 347.65 41.66
5 7 2 325.01 41.82
5 7 -2 337.14 30.19
-5 8 -2 1.36 5.64
-5 -8 2 2.09 4.99
5 -8 2 2.02 4.84
-5 8 2 -3.86 6.93
-5 -8 -2 -7.05 5.16
-5 -8 2 -2.87 4.86
-5 8 2 -1.46 5.24
-5 -8 2 0.88 2.35
-5 -8 -2 1.52 3.65
-5 -8 2 -1.22 3.85
5 -8 -2 1.14 2.36
5 8 -2 1.76 2.43
5 -8 2 -1.46 4.61
5 -8 2 -5.12 7.5
5 8 2 -2.74 5.67
5 8 -2 -1.31 3.49
5 -8 -2 -2 3.38
5 -8 2 5.58 6.68
5 8 2 -5.49 9.28
-5 -9 -2 1737.71 128.92
-5 9 2 1940.89 132.99
-5 -9 2 1691.71 132.24
-5 9 -2 1878.68 126.53
5 -9 2 2069.64 136.03
-5 -9 2 1832.96 121.23
-5 -9 -2 1878.61 127.18
-5 -9 2 2060.15 125.97
-5 -9 2 1800.03 141.14
-5 9 2 2420.54 128.63
5 9 -2 2138.49 117.67
5 -9 2 2119.9 128.61
5 -9 -2 1990.6 124.01
5 -9 2 2425.37 176.77
5 9 2 2174.61 170.45
5 -9 -2 1886.46 122.22
5 -9 2 2071.44 139.57
5 9 2 2081.51 141.38
5 9 -2 2151.03 127.72
-5 -10 -2 1.9 4.54
-5 10 -2 -1.56 6.18
5 -10 2 4.42 4.58
-5 -10 2 6.88 5.49
-5 10 2 -2 6.76
-5 -10 2 11.57 8.47
-5 10 2 3.23 4.28
-5 -10 2 3.15 3.55
-5 -10 -2 6.38 5.4
-5 -10 2 2.72 4.31
5 10 -2 5.22 3.03
5 -10 2 4.61 5.2
5 -10 -2 8.54 4.13
5 10 -2 5.81 4.6
5 -10 -2 1.17 3.15
5 -10 2 4.95 5.92
5 10 2 9.67 10.02
5 -10 2 -2.28 5.44
5 10 2 7.3 6.5
-5 -11 -2 799.07 71.03
-5 11 2 951.85 75.06
-5 11 -2 878.93 69.79
-5 -11 2 833.11 76.17
5 -11 2 1235.02 83.85
-5 -11 -2 854.16 69.51
-5 -11 2 878.7 68.08
-5 -11 2 779.91 79.29
5 11 -2 988.12 60.59
5 -11 2 1028.79 71.62
5 -11 -2 978.88 67.41
5 -11 2 870.91 95.14
5 11 2 1181.4 104.82
5 11 2 1021.06 79.19
5 -11 -2 932.85 66.9
5 11 -2 1105.18 72.26
5 -11 2 965.01 76.57
-5 12 -2 1.72 5.45
-5 -12 -2 2.05 3.46
5 -12 2 2.42 5.01
-5 12 2 8.15 6.45
-5 -12 2 2.49 5.95
-5 -12 2 -2.88 4.88
-5 -12 -2 1.69 4.04
-5 -12 2 -1.5 3.59
5 12 -2 5.52 2.61
5 -12 2 1.68 4.02
5 -12 -2 1.33 2.25
5 12 -2 3.28 4.8
5 -12 -2 -1.36 3.99
5 -12 2 4.39 9.09
5 12 2 -4.24 0.06
5 -12 2 2.02 4.18
5 12 2 2.14 3.63
-5 13 2 470.6 45.59
-5 -13 -2 395.77 43.29
-5 13 -2 377.05 40.69
5 -13 2 303.69 41.35
-5 -13 2 348.58 44.73
-5 -13 -2 392.33 39.86
-5 -13 2 313.71 36.86
-5 -13 2 396.91 49.09
5 -13 2 526.3 62
5 13 2 506.29 59.97
5 13 -2 453.83 32.28
5 -13 2 500.36 42.8
5 -13 -2 531.35 40.59
5 -13 -2 411.39 38.03
5 13 -2 557.88 44.94
5 -13 2 463.49 43.78
5 13 2 405.32 42.43
-5 -14 2 2.68 6.4
-5 14 -2 1.84 5.83
-5 -14 -2 2.23 2.67
5 -14 2 2.55 3.05
-5 14 2 4.11 4.92
-5 -14 -2 -1.81 4.85
-5 -14 2 1.67 4
5 -14 2 1.81 3.06
5 -14 -2 7.24 4.58
5 14 -2 -0.77 2.26
5 14 -2 1.87 2.23
5 14 2 6.87 5.48
5 -14 -2 1.57 3.24
5 -14 2 1.8 3.73
5 14 2 -1.9 3.21
5 -14 2 3.85 6.51
5 14 2 3.69 4.41
-5 15 -2 5.65 5.97
-5 -15 2 13.82 8.75
-5 -15 -2 9.25 6.2
5 -15 2 5.23 4.44
-5 15 2 6.19 6.06
-5 -15 -2 7.51 6.37
5 -15 2 9.57 5.62
5 -15 -2 6.12 4.5
5 15 -2 11.39 4.26
5 15 -2 19.96 7.92
5 15 2 12.11 7.1
5 -15 -2 5.02 4.92
5 -15 2 1.7 3.54
5 15 2 15.98 7.05
5 -15 2 10.82 8.63
5 15 2 6.87 7.12
-5 16 -2 1.92 4.58
-5 -16 2 2.82 3.38
-5 -16 -2 4.81 5.75
5 -16 2 10.64 7.11
-5 16 2 -4.12 6.96
-5 -16 -2 -1.95 3.3
5 -16 2 1.97 2.36
5 16 -2 0.86 3.26
5 -16 -2 1.58 3.27
5 16 -2 -2.14 5.11
5 16 2 -2.56 5.29
5 -16 -2 3.5 4.19
5 -16 2 3.37 4.03
-5 -17 2 192.16 32.91
-5 17 2 187.18 28.53
-5 17 -2 222.7 29.97
5 -17 2 179.88 30.25
-5 -17 -2 194.23 28.61
-5 -17 2 169.04 31.78
5 -17 2 265.5 31.19
5 17 -2 330.45 35.96
5 17 2 285.57 36.24
5 -17 -2 223.97 28.35
-5 18 -2 1.95 5.72
-5 -18 2 -2.89 6.91
5 -18 2 5.38 5.57
-5 18 2 4.1 6
-5 -18 2 -2.75 8.7
-5 -18 -2 2.07 4.29
5 -18 2 -2.17 5.8
5 -18 -2 1.71 2.89
5 18 -2 -2.42 5.02
5 18 2 -2.8 7.5
5 -18 -2 -1.94 6.15
-5 0 3 1.58 3.77
5 0 3 -1.51 3.13
5 0 3 2.9 2.46
-5 0 3 -1.45 3.47
-5 0 3 5 4.23
-5 0 3 -1.01 2.42
-5 0 3 0.84 1.73
-5 0 -3 0.19 0.73
-5 0 -3 1.42 2.4
-5 0 3 3.15 2.31
-5 0 3 0.96 2.29
-5 0 3 0.62 1.48
-5 0 3 -0.63 1.67
5 0 3 -8 13.53
5 0 3 -3.79 6.4
-5 1 3 48.84 10.75
-5 -1 3 33.54 9.34
5 1 3 34.19 9.26
5 -1 3 19.55 7.73
-5 -1 3 17.56 7.06
5 -1 3 45.36 10.52
-5 1 3 29.34 8.43
-5 1 3 47.07 8.73
-5 1 3 35.28 7.83
-5 -1 3 33.73 7.32
-5 -1 3 30.74 11.17
-5 1 3 29.24 11.41
-5 -1 3 44.43 7.9
-5 1 3 36.37 7.12
-5 -1 -3 32.89 8.88
-5 1 3 40.35 7.32
-5 -1 3 41.15 7.36
-5 -1 3 26.34 6.55
-5 1 -3 25.58 3.91
5 -1 3 44.18 9.62
-5 -1 3 28.05 5.43
-5 1 3 28.06 5.6
-5 1 3 38.15 6.93
5 -1 3 31.82 21.34
5 1 3 -15.94 25.27
5 -1 3 26.2 12.77
5 1 3 22.83 12.98
-5 -1 3 36.27 6.12
-5 2 3 116.96 16.3
-5 -2 -3 117.54 16.51
-5 -2 3 110.6 17.93
5 2 3 74.36 12.68
5 -2 3 55.15 14.42
-5 -2 3 60.69 11.81
-5 2 3 66.79 13.69
5 -2 3 85.31 14.96
-5 -2 3 104.18 12.12
-5 2 3 107.89 12.36
-5 -2 3 104.58 21.13
-5 2 3 85.05 18.76
-5 -2 3 88.26 11.55
-5 2 3 83.8 12.68
-5 2 3 86.91 10.79
-5 -2 3 106.07 13.35
-5 -2 3 106.04 12.61
-5 2 3 103.09 13.6
-5 2 -3 41.96 5.46
-5 -2 3 88.65 9.94
5 -2 3 102.38 15.06
5 2 3 99.2 15.69
5 2 3 125.39 39.96
5 -2 3 120.53 26.52
-5 2 3 85.24 11.05
-5 -2 3 99 9.83
-5 3 3 1.27 3.04
-5 -3 3 5.67 5.05
5 3 3 1.01 3.43
-5 -3 3 1.11 2.65
-5 3 3 3.39 4.05
-5 3 3 4.6 2.75
-5 -3 3 5.33 5.52
-5 3 3 2.28 3.86
-5 -3 3 6.43 3.33
-5 -3 3 3.88 3.07
-5 3 3 2.56 2.29
-5 -3 -3 4.4 3.51
-5 3 3 4.47 2.68
-5 -3 3 2.49 2.81
-5 -3 3 1.79 2.15
-5 3 3 3.32 2.96
5 -3 3 1.36 2.31
-5 3 -3 0.92 1.1
-5 -3 3 2.92 2.1
5 3 3 15.23 6.04
-5 3 3 2.41 2.36
5 3 3 7.62 9.11
5 -3 3 3.53 4.22
-5 4 3 17.61 6.14
-5 -4 3 8 6.35
-5 -4 3 7.73 3.87
-5 4 3 7.05 5.19
-5 4 3 12.21 5.09
-5 -4 3 13.49 7.24
-5 4 3 13.16 7.44
-5 -4 3 14.62 4.98
-5 -4 3 5.64 3.1
-5 4 3 13.24 5.09
-5 -4 3 15.25 4.54
-5 4 3 5.24 3.02
-5 -4 -3 13.4 5.93
-5 -4 3 11.35 4.42
-5 4 -3 8.43 2.63
-5 -4 3 12.92 3.6
5 -4 3 16.65 6.01
5 4 3 15.54 6.19
-5 4 3 11.27 4.31
5 -4 3 22.03 15.22
5 4 3 7.34 8.79
5 -4 3 10.14 8.1
5 4 3 21.47 11.34
-5 5 3 4.31 2.88
-5 5 3 1.82 3.08
-5 -5 3 4.02 2.72
-5 -5 3 2.11 2.52
-5 -5 3 10.9 7.98
-5 5 3 1.3 2.69
-5 -5 3 1.96 2.34
-5 5 3 -2.1 3.55
-5 -5 3 4.17 2.64
-5 -5 3 2.33 2.63
-5 5 3 -0.75 1.56
-5 -5 -3 -1.52 2.57
-5 -5 3 5.08 3.44
-5 5 -3 1.1 1.74
-5 -5 3 0.55 1.61
5 -5 3 2.84 3.79
5 5 3 1.59 2.7
-5 5 3 0.93 1.93
5 -5 3 14.03 14.53
5 5 3 -7.01 11.85
5 -5 3 6.42 5.43
5 5 3 -3.44 5.81
-5 6 -3 71.77 12.24
-5 -6 3 62.86 9.07
-5 6 3 83.29 12.24
-5 6 3 76.73 15.76
5 -6 3 69.05 15.46
-5 -6 3 88.37 18.6
-5 -6 3 91.47 11.81
-5 -6 3 68.95 18.26
-5 6 3 99.46 18.3
-5 6 3 65.32 12.82
-5 -6 -3 96.17 15.87
-5 -6 3 75.42 12.08
-5 6 -3 61.43 9.68
5 -6 3 104.87 15.96
5 6 3 88.83 15.69
5 -6 3 94.81 22.05
5 6 -3 96.56 13.47
5 6 3 92.27 22
5 -6 3 59.98 25.55
5 6 3 146.55 39.25
-5 -7 -3 140.03 21.05
-5 7 3 151.76 23.58
-5 7 3 164.29 17.3
5 -7 3 224.16 27.72
-5 7 -3 127.44 18.09
-5 -7 3 138.77 24.41
-5 -7 3 163.59 17.23
-5 -7 3 138.98 26.77
-5 -7 -3 175.46 22.31
-5 -7 3 182.33 19.94
-5 7 3 123.47 21
-5 7 -3 128.6 16.21
5 7 -3 189.27 17.22
5 -7 3 141.11 26.76
5 7 3 149.66 28.74
5 7 -3 190.56 20.03
5 -7 3 277.68 52.46
5 7 3 194.67 44
5 7 3 185.81 23.44
-5 -8 -3 120.24 19.91
-5 8 3 143.46 22.4
5 -8 3 145.83 22.92
-5 8 -3 150.25 19.21
-5 -8 3 120.58 23.11
-5 -8 3 132.41 15.92
-5 -8 3 157.19 27.33
-5 -8 -3 148.03 20.47
-5 -8 3 154.59 19.14
-5 8 3 146.29 21.32
5 8 -3 156.8 15.95
5 -8 -3 118.76 15.43
5 8 3 164.29 28.25
5 -8 3 149.5 26.94
5 -8 3 124.71 34.92
5 8 -3 138.55 17.8
5 8 3 183.32 41.95
5 8 3 171.5 22.81
-5 -9 3 42.6 13.66
-5 9 -3 55.58 11.57
-5 9 3 49.86 13.11
5 -9 3 50.75 13.45
-5 -9 -3 33.59 10.56
-5 -9 3 53.6 15.68
-5 9 3 54.41 12.39
-5 -9 3 58 9.84
-5 -9 -3 42.84 11.11
-5 -9 3 39.13 9.6
5 9 -3 66.72 9.67
5 9 -3 44.81 9.89
5 9 3 55.19 12.91
5 -9 3 48.35 14.19
5 9 3 55.34 16.08
5 -9 -3 42.62 9.01
5 -9 3 27.95 16.58
5 9 3 49.76 21.07
-5 -10 -3 1.94 3.29
-5 -10 3 2.6 4.4
-5 10 -3 1.49 3.99
5 -10 3 2.28 3.85
-5 10 3 4.06 4.2
-5 -10 3 5.63 5.83
-5 10 3 5.79 4.9
-5 -10 3 -1.05 2.8
-5 -10 -3 1.69 2.86
-5 -10 3 2.78 3.32
5 -10 -3 2.22 2.65
5 10 -3 4.23 2.48
5 10 -3 -1.32 3.53
5 10 3 1.92 3.25
5 -10 3 -2.4 5.73
5 10 3 2.6 4.4
5 -10 -3 1.14 2.72
5 -10 3 10.47 10.84
5 10 3 -5.18 0.06
-5 -11 -3 16.12 7.33
-5 -11 3 18.84 9.73
-5 11 -3 26.7 8.89
5 -11 3 7.18 6.51
-5 11 3 14.32 7.83
-5 -11 3 25.48 10.77
-5 -11 3 20.18 6.81
-5 -11 -3 18.9 8.05
-5 -11 3 20.73 7.81
5 -11 -3 28.68 7.36
5 11 -3 36.24 7.32
5 11 -3 21.04 7.22
5 -11 3 26.88 10.09
5 11 3 36.41 12.03
5 11 3 30.25 10.01
5 -11 -3 20.94 6.7
5 -11 3 39.32 17.67
5 11 3 38.66 17.37
-5 -12 -3 60.53 15.28
-5 12 -3 57.98 13.58
-5 -12 3 44.13 15.27
5 -12 3 87.65 19.11
-5 12 3 80.72 17.06
-5 -12 3 62.13 17.01
-5 -12 3 57.19 11.85
-5 -12 -3 49.72 12.82
5 12 -3 81.85 11.46
5 -12 3 107.48 17.17
5 -12 -3 78.72 12.73
5 -12 3 75.43 16.71
5 12 3 81.47 17.56
5 12 3 86.72 17.05
5 -12 -3 81.17 13.7
5 -12 3 87.44 25.52
5 12 3 99.06 27.21
5 12 -3 86.49 14.59
-5 13 -3 31.21 10.31
-5 -13 -3 12.86 8.29
-5 -13 3 28.33 11.86
5 -13 3 15.63 9.51
-5 13 3 33.23 10.96
-5 -13 3 30.95 11.78
-5 -13 -3 29.01 9.61
5 13 -3 40.43 8.14
5 -13 3 40.24 11.07
5 -13 -3 37.3 8.97
5 -13 3 35.19 10.6
5 13 3 25.25 9.58
5 13 -3 60.49 12.16
5 13 3 33.4 11.11
5 -13 -3 46.22 10.51
5 -13 3 30.11 15.53
5 13 3 33.49 15.12
-5 14 -3 9 6.11
-5 -14 3 17.24 9.74
5 -14 3 13.23 8.39
-5 14 3 20.92 8.69
-5 -14 -3 1.88 3.95
5 -14 3 28.42 9.36
5 14 -3 13.84 4.91
5 -14 -3 14.29 5.84
5 14 -3 11.92 6.47
5 -14 -3 13.83 6.12
5 -14 3 8.04 8.35
5 14 3 15.61 10.45
5 -14 3 5.52 5.85
5 14 3 15.75 7.09
-5 15 -3 33.36 11.69
-5 -15 3 49.3 16.39
5 -15 3 27.16 10.96
-5 15 3 35.59 11.92
-5 -15 -3 39.2 11.89
5 -15 3 67.81 14.45
5 15 -3 49.82 9.43
5 -15 -3 40.71 9.68
5 15 -3 58.31 13.05
5 -15 -3 41.22 10.81
5 -15 3 33.86 15.06
5 15 3 14.57 9.95
5 -15 3 27.71 9.7
5 15 3 31.34 10.3
-5 16 -3 39.84 11.74
-5 -16 3 44.31 15.12
5 -16 3 30.4 12.08
-5 16 3 37.62 12.15
-5 -16 -3 28.33 10.73
-5 -16 3 33.1 13.34
5 -16 3 41.09 11.69
5 16 -3 30.48 7.74
5 -16 -3 35.64 9.55
5 16 -3 54.62 13.14
5 -16 -3 40.06 10.6
5 -16 3 21.16 14.12
5 16 3 33.73 14.67
5 -16 3 42.33 11.19
5 16 3 44.82 12.01
-5 17 -3 162.01 27.54
-5 17 3 234.15 31.97
5 -17 3 209.36 32.65
-5 -17 3 183.55 34
-5 -17 -3 208.88 29.79
-5 -17 3 172.12 31.03
5 -17 3 272.28 39.06
5 -17 3 296.87 33.18
5 -17 -3 248.99 26.52
5 17 -3 334.79 35.24
5 17 3 178.63 25.76
5 -17 -3 206.52 27.1
-5 0 4 23.64 6.71
-5 0 4 34.1 7.56
-5 0 -4 27.59 8.08
-5 0 4 28.13 7.15
-5 0 4 33.14 6.08
5 0 4 11.87 5.74
5 0 4 15.62 9.12
-5 0 4 12.64 7.27
5 0 4 21.06 12.4
5 0 4 8.96 10.78
-5 1 4 178.62 23.29
5 1 4 171.17 21.74
-5 -1 -4 169.15 21.92
5 -1 4 191.23 23.1
-5 1 4 159.57 23
-5 -1 4 195.7 26.76
5 1 4 99.32 19.83
-5 -1 4 211.3 20.31
-5 1 4 193.46 19.55
-5 -1 4 204.9 20.19
-5 1 4 149.09 18.69
-5 1 4 210.12 17.26
-5 -1 4 204.97 17.97
-5 -1 4 181.34 19.95
-5 1 4 160.65 19.15
5 -1 4 154.32 20.52
5 -1 4 120.35 30.48
5 1 4 139.4 31.78
5 -1 4 169.01 49.67
5 1 4 124.71 43.67
-5 -1 4 183.85 17.68
-5 -2 4 -2.1 5.61
-5 2 4 4.99 4.87
5 -2 4 4.84 3.86
-5 2 4 5.88 4.31
-5 2 4 1.18 3.15
-5 -2 4 2.06 2.76
-5 2 4 5.91 3.72
-5 -2 -4 3.1 3.71
-5 -2 4 -0.97 2.31
-5 -2 4 7.7 3.72
-5 2 4 3.69 2.55
-5 -2 4 1.64 2.6
-5 2 4 3.48 3.1
5 -2 4 2.83 3.78
5 2 4 7.87 5.32
5 -2 4 4.04 6.83
5 2 4 8.75 14.8
-5 -3 -4 753.35 55.94
-5 3 4 686.03 56.07
5 3 4 554.12 52.2
5 -3 4 787.69 58.22
-5 3 4 652.78 51.87
-5 -3 4 596.4 58.96
-5 -3 4 890.07 51.79
-5 3 4 733.59 49.81
-5 -3 4 753.99 49.26
-5 -3 4 853 52.55
-5 3 4 663.21 50.89
-5 3 4 812.55 45.7
-5 -3 4 930.79 51
-5 -3 4 654.28 63.31
-5 3 4 803.01 52.92
-5 3 -4 463.97 39.39
5 3 4 823.68 110.33
5 -3 4 817.57 55.82
5 -3 4 972.69 84.43
5 3 4 799.75 57.28
-5 -4 4 4.71 8.47
-5 4 4 7.13 7.41
5 4 4 7.65 8.38
5 -4 4 25.12 9.61
-5 4 4 9.57 5.58
-5 4 4 9.23 5.72
-5 -4 4 21.35 10.6
-5 -4 4 12.16 5.64
-5 -4 4 18.12 6.17
-5 -4 4 12.78 4.92
-5 4 4 25.16 7.7
-5 4 4 14.46 5.96
-5 -4 -4 1.59 5.07
-5 4 4 8.9 3.81
-5 -4 4 14.53 5.71
-5 4 -4 8.57 3.32
5 -4 4 21.9 7.63
5 4 4 21.1 8.26
5 -4 4 22.29 14.06
5 4 4 3.96 11.6
5 -4 4 16.27 19.46
5 4 4 8.14 16.86
-5 5 4 2051.41 139.66
5 5 4 2107.79 132.52
-5 -5 4 1860.33 144.65
-5 -5 4 2397.85 131.12
-5 5 4 2116.21 134.3
-5 -5 4 2559.36 134.46
-5 5 4 2200.01 135.45
-5 5 4 2248.5 125.61
-5 -5 -4 2210.33 138.57
-5 -5 4 2138.27 131.56
-5 -5 4 2025.96 148.76
-5 5 -4 1653.2 122.5
5 -5 4 2567.15 209.86
5 5 4 2687.41 214.33
5 5 -4 2521.08 131.68
5 -5 4 2359.95 137.86
5 -5 4 2718.87 169.04
5 5 4 2323.38 165.91
5 5 4 2521.77 141.62
-5 -6 4 7.69 7.51
-5 6 4 -1.88 7.79
5 6 4 0.89 6.99
-5 6 4 1.46 4.29
-5 -6 4 10.9 8.62
-5 -6 4 9.78 4.97
-5 6 4 3.6 2.88
-5 -6 -4 4.96 5.23
-5 -6 4 6.8 4.5
5 6 -4 5.54 3.5
-5 6 -4 4.12 3.31
5 -6 4 12.27 7.78
5 6 4 17.99 13.61
5 6 4 10.3 6.81
5 -6 4 29.25 21.42
5 6 4 21.95 21.43
5 -6 4 9.95 11.22
-5 7 4 553.01 51.68
-5 7 4 586.22 39.93
-5 -7 4 601.65 60.87
-5 -7 4 619.5 44.75
-5 7 4 564.55 48.88
-5 -7 -4 611.47 50.92
-5 -7 4 600.93 46.73
-5 -7 4 560.8 58.37
-5 7 -4 426.55 38.82
5 7 -4 734.55 45.59
5 -7 4 804.59 98.75
5 7 4 714.93 92.72
5 -7 4 657.97 50.75
5 -7 4 730.64 67.89
5 7 4 671.82 67.96
5 7 4 687.2 53.61
-5 -8 4 8.18 7.29
-5 8 4 1.96 4.7
5 -8 4 4.33 5.8
-5 -8 -4 18.51 7.34
-5 8 4 1.65 2.79
-5 -8 4 5.53 5.73
-5 -8 4 2.03 2.97
-5 -8 -4 6.9 5.05
5 8 -4 6.01 3.6
-5 8 -4 5.69 3.51
5 -8 4 1.62 3.36
5 8 -4 4.23 3.11
5 8 4 9.18 6.22
5 -8 -4 4.47 3.03
5 -8 4 19.34 13.35
5 8 4 6.43 10.87
5 -8 4 8.74 6.97
5 8 4 9.58 8.54
-5 -9 -4 136.11 21.88
-5 9 4 158.38 24.09
-5 -9 4 98.36 24.02
5 -9 4 142.46 23.79
-5 -9 4 182.42 19.51
-5 -9 4 155.26 27.39
-5 9 4 151.86 22.26
-5 -9 -4 152.37 21.72
-5 9 -4 109.11 15.88
5 9 -4 179.35 18.6
5 -9 4 145.56 20.89
5 -9 -4 153.2 17.46
5 -9 4 168.47 28.05
5 9 4 178.87 30.33
5 -9 4 174.65 41.57
5 9 4 198.06 44.43
5 9 -4 181.06 19.29
5 9 4 162.11 23.39
-5 -10 4 2.85 4.85
-5 10 4 12.19 6.89
5 -10 4 9.57 6.42
-5 -10 4 11.16 8.19
-5 10 4 14.82 6.67
-5 -10 4 23.24 6.77
-5 -10 -4 14.15 7.04
5 10 -4 21.66 6.07
-5 10 -4 2.14 3.18
5 -10 4 25.46 8.38
5 10 -4 15.14 5.42
5 10 4 25.85 9.22
5 -10 -4 13.02 5.22
5 -10 4 -5.63 9.53
5 10 4 16.74 14.93
5 -10 4 12.69 8.05
5 10 4 8.35 7.46
-5 -11 4 52.47 15.75
-5 11 4 53.69 13.71
5 -11 4 47.84 13.65
-5 -11 4 33.56 13.57
-5 11 4 31.4 10.74
-5 -11 4 30.49 8.48
-5 -11 -4 50.89 12.31
5 11 -4 54.15 9.85
-5 11 -4 27.51 8.03
5 -11 4 43.85 11.52
5 11 -4 43.23 9.5
5 11 4 62.39 14.67
5 -11 -4 36.82 8.7
5 -11 4 59.47 15.22
5 11 4 54.71 15.43
5 -11 4 41.95 19.95
5 11 4 41.58 20.73
-5 12 4 2.09 4.32
-5 -12 4 -2.93 3.51
5 -12 4 -2.62 5.42
-5 -12 4 2.8 5.8
-5 12 4 2.07 4.29
-5 -12 4 1.24 3.33
-5 -12 -4 -1.84 4.93
5 12 -4 2.2 2.94
-5 12 -4 1.33 2.75
5 12 -4 1.32 3.15
5 12 4 2.18 3.68
5 -12 4 -2.21 4.59
5 12 4 2.42 2.89
5 -12 -4 -1.3 2.7
5 -12 4 4.9 8.29
5 12 4 4.84 8.18
-5 13 4 710.1 60.54
5 -13 4 477.01 57.06
-5 -13 4 600.39 64.91
-5 -13 4 624.42 51.16
-5 -13 -4 656 56.73
-5 13 -4 513.26 50.68
5 13 -4 755.69 51.45
5 -13 4 710.1 79.69
5 13 4 761.25 80.99
5 -13 4 709.09 59.77
5 13 4 715.69 61.48
5 13 -4 731.67 53.58
5 13 4 824.59 64.02
5 -13 -4 613.66 51.26
-5 -14 -4 4.52 8.58
-5 14 4 14.85 9.52
5 -14 4 11.26 8.94
-5 -14 4 8.98 8.8
-5 -14 4 16.96 7.6
-5 -14 -4 19.62 8.81
5 -14 -4 15.45 5.49
-5 14 -4 4.67 5.63
5 14 -4 20.38 6.61
5 14 -4 25.6 8.67
5 -14 4 11.66 7.01
5 14 4 18.95 9.11
5 14 4 21.52 9.51
5 -14 -4 18.13 7.49
5 -14 4 8.56 10.27
5 14 4 20.9 13.24
-5 15 4 786.05 68.54
-5 -15 -4 755.38 69.31
-5 15 -4 810.93 67.05
5 -15 4 667.35 70.78
-5 -15 4 724.06 75.28
-5 -15 -4 898.04 69.42
-5 15 -4 592.57 61.42
5 15 -4 983.49 62.26
5 -15 4 818.88 84.73
5 15 4 972.28 89.11
5 -15 4 729.82 64.38
5 15 4 798.46 67.08
5 15 -4 1040.41 67.38
5 15 4 1018.52 76.56
5 -15 -4 760.8 62.71
-5 16 -4 -5.76 9.19
-5 -16 4 3.02 6.26
-5 -16 -4 12.16 7.7
5 -16 4 5.88 8.61
-5 16 4 6.37 7.18
-5 -16 4 2.76 6.61
-5 -16 -4 8.29 5.54
-5 16 -4 1.74 5.52
5 16 -4 1.32 3.86
5 -16 4 8.41 5.69
5 16 4 3.61 4.83
5 16 -4 6.89 5.46
5 16 4 10.55 7.73
5 -16 -4 8.72 5.9
5 -16 4 7.44 7.7
-5 0 5 2.48 2.97
-5 0 5 1.12 2.99
-5 0 -5 3.28 3.4
-5 0 5 -1.15 3.63
-5 0 5 -1.35 4.25
5 0 5 -1.52 2.57
5 0 -5 -7.83 13.23
5 0 5 4.7 7.94
-5 -1 5 -1.62 3.87
5 1 5 -1.46 3.49
5 -1 5 -1.59 3.8
5 -1 -5 -7.77 13.13
-5 1 5 7.55 3.98
-5 -1 5 4.55 3.04
-5 1 5 3.35 3.27
-5 -1 -5 -3.29 2.78
-5 -1 5 4.45 3.26
-5 1 5 2.38 2.85
-5 -1 5 1.22 2.07
5 -1 5 8.8 4.96
5 1 5 10.03 11.99
5 -1 5 -4.63 7.82
5 1 5 4.71 7.96
-5 -2 5 166.3 27.23
-5 -2 -5 221.13 26.26
5 2 5 158.63 21.9
5 -2 5 206.66 25.62
5 2 -5 202.79 52.39
-5 -2 5 288.78 25.33
-5 2 5 218.09 22.71
-5 -2 5 200.94 21.63
-5 2 5 203.34 23.01
-5 -2 5 234.84 23.87
-5 2 5 236.39 24.51
5 -2 5 237.05 25.69
5 2 5 176.96 55.11
5 -2 5 274.52 46.5
5 3 5 186.86 24.52
5 -3 5 214.02 26.53
-5 -3 -5 182.5 24.75
-5 -3 5 158.14 26.77
5 3 -5 208.26 51.68
-5 -3 5 201.74 21.64
-5 3 5 206.8 22.3
-5 3 5 176.34 22.08
-5 -3 5 223.27 23.12
-5 3 5 200.73 22.99
5 -3 5 242.03 25.74
5 3 5 181.12 53.36
5 3 5 225.04 26.29
5 -3 5 194.75 38.54
-5 -4 5 56.7 16.58
5 -4 5 40.03 11.34
5 4 -5 37.93 25.85
5 -4 -5 43.98 25
-5 4 5 68.43 11.82
-5 -4 5 96.88 13.89
-5 -4 5 59.74 10.82
-5 4 5 62.72 12.08
-5 -4 -5 67.68 13.5
-5 4 5 46.52 10.96
5 4 -5 59.52 10.81
5 -4 5 45.92 10.99
5 4 5 60.6 13.58
5 -4 5 100.26 36.28
5 4 5 54.83 29.08
5 -4 5 70.04 21.15
5 4 5 74.75 23.73
-5 -5 5 4.79 7.02
5 -5 5 7.76 6.56
-5 -5 5 2.48 2.57
-5 5 5 -1.41 2.93
-5 -5 5 1.09 2.25
-5 -5 -5 3.43 4.1
-5 5 5 -1.45 3.88
5 5 -5 -1.07 2.21
5 -5 5 1.57 4.96
5 5 5 1.72 4.12
5 -5 5 19.49 10.42
5 5 5 -4.2 5.02
5 5 5 8.64 10.33
-5 -6 5 98.99 21.83
5 -6 5 137.42 21.54
-5 6 5 91.02 18.21
-5 6 5 102.61 16.74
-5 -6 5 130.57 16.42
-5 6 5 134.87 19.15
5 6 -5 134.17 16.81
5 -6 5 110.84 17.7
5 -6 5 168.36 31.94
5 6 5 139.26 31.17
5 -6 5 146.39 45.05
5 6 5 97.75 37.04
5 6 5 138.31 20.53
-5 -7 5 2.66 6.37
-5 7 5 1.94 4.65
-5 7 5 4.9 4.38
-5 -7 5 8.23 7.34
-5 -7 5 11.17 5.35
5 7 -5 12.51 5.09
-5 7 -5 1.38 2.34
5 -7 5 1.65 2.8
5 7 5 12.83 6.58
5 -7 5 6.84 8.18
5 7 5 11.23 10.01
5 -7 5 15.26 15.8
5 7 5 7.6 9.09
-5 8 5 279.23 33.54
-5 -8 5 249 38.35
-5 -8 5 309.77 28.82
-5 8 5 270.79 32.07
-5 -8 5 287.17 39.13
-5 8 -5 240.85 23.75
5 8 -5 360.52 30.39
5 -8 5 325.01 33.04
5 -8 -5 266.69 24.37
5 -8 5 404.9 47.7
5 8 5 336.14 46.16
5 -8 5 291.28 59.79
5 8 5 318.76 61.99
5 8 5 397.03 37.43
-5 -9 5 -2.86 4.83
-5 9 5 6.07 5.41
-5 9 5 -1.83 4.39
-5 -9 5 2.78 4.7
-5 -9 5 8.11 4.16
5 9 -5 1.19 2.86
-5 9 -5 1.78 2.61
5 -9 5 1.73 3.57
5 -9 5 5.93 7.09
5 9 5 -3.26 5.51
5 9 5 5.9 4.08
5 -9 -5 6.48 3.67
5 -9 5 6.61 7.91
5 9 5 6.56 11.1
-5 -10 5 14.48 9.17
-5 10 5 12.31 7.37
5 -10 5 -2.52 6.03
-5 10 5 13.55 6.95
-5 -10 5 13.91 8.81
-5 -10 5 13.24 5.59
5 10 -5 10.98 4.63
-5 10 -5 7.95 4.13
5 -10 5 7.07 5.19
5 -10 5 8.25 8.71
5 10 5 12.11 8.1
5 10 5 6.13 4.9
5 -10 -5 3.09 3.28
5 -10 5 6.13 10.37
5 10 5 -6.08 14.55
-5 -11 5 62.18 21.54
-5 11 5 96.08 19.04
5 -11 5 95.37 21.2
-5 -11 -5 101.89 19.15
-5 -11 5 138.48 17.67
-5 11 5 79.18 17.24
-5 -11 5 117.4 23.73
5 11 -5 157.94 18.59
-5 11 -5 87.18 14.56
5 -11 5 105.64 18.48
5 -11 -5 127.69 16.21
5 -11 5 113.94 32.54
5 11 5 118.34 32.89
5 11 -5 131.13 16.17
5 11 5 149.08 23.04
5 -11 5 148.57 25.08
5 11 5 129.07 24.74
-5 -12 -5 96.76 20.25
-5 -12 5 138.65 28.47
-5 12 5 95.06 20.21
5 -12 5 149.73 26.73
-5 -12 5 149.39 19.34
-5 -12 5 142.52 26.97
-5 12 5 149.33 24.04
5 12 -5 188.11 20.8
-5 12 -5 87.97 16.78
5 -12 5 158.41 22.82
5 -12 -5 128.25 17.73
5 -12 5 156.89 25.75
5 12 5 164.22 27.15
5 -12 5 169.29 38.7
5 12 5 161.93 37.2
5 12 -5 175.78 18.97
5 12 5 164.68 24.98
-5 13 5 189.44 28.8
-5 -13 -5 194.88 29.1
5 -13 5 240.73 35.36
-5 -13 5 176.86 35.02
-5 -13 5 226.05 25.85
-5 13 5 232.44 31.39
5 13 -5 247.54 25.93
-5 13 -5 145.44 23.33
5 -13 5 286.6 31.85
5 -13 5 205.62 29.95
5 13 5 205.32 30.69
5 -13 5 270.67 47.19
5 13 5 289.78 48.82
5 13 -5 285.46 25.79
5 13 5 262.7 33.28
5 -13 -5 242.78 25.91
-5 -14 -5 55.55 15
-5 14 5 62.44 15.99
5 -14 5 40.91 14.34
-5 -14 5 46.26 18.35
-5 14 5 65.05 16.28
-5 -14 5 59.36 13.24
-5 14 -5 20.06 10.22
5 -14 5 71.97 15.69
5 14 -5 84.38 14.04
5 14 -5 78.52 12.9
5 14 5 77.84 17.98
5 -14 -5 65.34 13.33
5 -14 5 80.54 16.7
5 14 5 78.72 18.13
5 -14 5 95.94 26.96
5 14 5 40.3 18.82
5 0 -6 42.75 27.37
5 0 6 80.89 15.35
-5 0 6 83.34 13.9
-5 0 6 86.41 13.96
-5 0 6 69.19 12.95
5 0 -6 82.12 25.85
5 0 6 122.75 50.1
5 0 6 61.22 26.22
5 1 6 1306.71 90.58
5 -1 6 1146.3 90.25
5 1 -6 1035.08 141.05
5 -1 -6 1086.89 142.11
-5 -1 6 1543.82 90.52
-5 1 6 1469.4 89.44
-5 -1 6 1294.36 87.29
-5 1 6 1338.3 88.63
-5 -1 6 1382.43 89.46
-5 1 6 1282.16 88.76
5 -1 6 1273.83 165.38
5 1 6 1352.68 169.7
5 -1 -6 1218.49 114.5
5 -1 6 1355.24 91.35
5 -1 6 1632.86 134.66
5 1 6 1145.33 120.34
5 2 -6 16.99 17.6
5 2 6 8.59 5.7
5 -2 6 3.41 6.13
-5 2 6 13.95 6.48
-5 -2 6 4.01 3.95
-5 -2 6 10.43 6.26
-5 2 6 19.11 6.83
-5 2 6 12.11 6.25
5 -2 6 15.48 6.44
5 2 6 21.73 22.51
5 -2 -6 8.04 9.63
5 -2 6 14.65 16.52
5 3 -6 268.36 62.9
5 3 6 304.33 31.43
5 -3 6 383.14 37.1
-5 -3 6 373.47 32.95
-5 3 6 334.84 31.49
-5 3 6 291.69 30.91
-5 -3 6 373.31 33.21
-5 3 6 336 32.85
5 3 6 495.12 93.51
5 -3 -6 346.69 50.12
5 -3 6 310.29 32.67
5 -3 6 398.48 57.42
5 4 -6 49.36 26.11
5 -4 -6 48.04 25.42
5 -4 6 55.69 13.49
-5 -4 6 43.35 9.69
-5 -4 6 39.53 9
-5 4 6 47.45 10.67
-5 4 6 30.62 9.31
-5 4 6 26.28 8.29
5 4 -6 32.87 8.76
5 -4 6 60.43 31.93
5 -4 -6 49.93 17.32
5 4 -6 43.41 17.78
5 -4 6 52.67 11.65
5 4 6 34.69 10.18
5 -4 6 72.28 23.02
5 4 6 43.26 18.3
5 4 6 40.32 27.04
5 5 -6 96.43 34.87
5 -5 -6 54.47 28.2
5 -5 6 85.29 17.07
-5 5 6 66.45 13.13
-5 -5 6 62.94 11.74
-5 5 6 63.84 12.26
-5 5 6 76.22 14.21
5 5 -6 86.51 13.48
5 -5 -6 59.59 19.82
5 5 -6 80.74 22.4
5 -5 6 78.38 14.63
5 5 6 72.75 14.78
5 -5 6 68.22 22.57
5 5 6 110.05 29.28
5 -5 6 105.16 39.79
5 5 6 76.49 36.37
5 6 -6 23.36 20.99
5 -6 -6 45.06 23.91
5 -6 6 41.62 12.23
-5 -6 6 57.42 10.67
-5 6 6 48.61 11.56
-5 -6 -6 49.51 12.3
-5 6 6 38.44 10.65
5 6 -6 58.19 11.02
5 -6 -6 57.85 19.03
5 6 -6 44.94 16.97
5 -6 6 63.63 13.1
5 -6 6 35.97 16.07
5 6 6 49.12 12.4
5 6 6 52.03 20.25
5 -6 6 45.01 24.21
5 6 6 71.96 32.37
5 7 -6 240.35 55.9
5 -7 -6 194.94 50.99
5 -7 6 224.15 30.25
-5 7 6 189.41 24.92
-5 -7 6 219.92 23.94
-5 7 6 170.93 24.56
-5 -7 -6 199.24 26.66
5 7 -6 244.91 25.37
5 -7 -6 250.56 39.5
5 -7 6 237.2 27.44
5 7 -6 184.11 34.95
5 -7 6 307.55 44.39
5 -7 6 227.59 59.95
5 7 6 234.67 58.77
5 7 6 238.25 28.55
5 7 6 245.58 42.35
5 -8 6 2.35 6.27
5 8 -6 7.2 12.18
5 -8 -6 6.91 11.68
-5 8 6 5.1 4.98
-5 -8 6 1.28 3.74
-5 -8 -6 -3.78 5.53
-5 8 6 3.55 5.2
5 8 -6 1.37 5.17
5 -8 6 1.76 4.7
5 8 6 7.77 6.57
5 -8 6 7.84 9.37
5 8 6 7.8 13.18
5 -8 -6 3.67 3.17
5 -8 6 -6.98 11.03
5 8 6 11.46 11.19
-5 -9 -6 1210.14 97.63
-5 9 6 1157.39 97.28
5 -9 6 1369.88 104.44
5 -9 -6 1332.03 141.58
-5 -9 6 1466.23 92.55
-5 9 6 1260.55 96.15
-5 9 6 1188.32 96.1
-5 -9 -6 1433.51 99.32
-5 -9 6 1239.84 105.23
5 -9 6 1726.03 158.41
5 9 6 1779.44 160.83
5 9 -6 1660.9 95.87
5 -9 6 1425.36 97.63
5 -9 -6 1352.98 86.41
5 -9 6 1553.71 116.33
5 9 6 1545.56 119.63
5 9 6 1564.4 102.31
-5 10 6 44.03 13.73
-5 -10 -6 36.07 12.42
-5 -10 6 33.73 13.67
-5 -10 6 59.08 11.8
-5 -10 -6 42.05 11.92
-5 10 6 43.46 12.96
5 10 -6 46.33 10.64
5 -10 6 56.04 13.26
5 10 6 73.11 15.99
5 -10 6 32.98 14.55
5 10 6 42.79 16.42
5 -10 -6 40.93 8.65
5 -10 6 53.85 25.57
5 10 6 66.63 27.71
-5 -11 -6 723.27 64.15
-5 11 6 582.06 61.08
-5 -11 6 766.62 57.45
-5 11 6 729.12 64.31
-5 -11 -6 760.32 62.93
-5 -11 6 715.88 69.32
5 -11 6 879.74 102.19
5 11 -6 909.87 61.19
5 11 6 779.01 95.82
5 -11 6 798.31 63.61
5 -11 -6 683.7 53.56
5 -11 6 791.61 72.35
5 11 6 771.22 74.01
5 11 6 955.27 69.61
-5 -12 -6 4.51 4.68
-5 12 6 10.72 6.79
-5 12 6 8.79 6.44
-5 -12 6 8.38 4.73
-5 -12 -6 5.97 6.74
5 12 -6 7.47 5.93
5 -12 6 5.89 5.76
5 -12 6 2.57 6.88
5 12 6 2.82 6.74
5 12 6 6.77 4.69
5 -12 -6 3.54 4.01
5 -12 6 23.04 16.87
5 12 6 16.95 13.51
5 0 -7 -9.44 15.96
5 0 7 1.59 2.68
-5 0 7 -1.42 3.38
-5 0 7 -1.46 1.75
-5 0 -7 -1.84 3.11
5 0 -7 4.54 5.43
5 0 7 12.05 14.41
5 0 7 5.49 11.37
5 1 -7 75.46 33.93
5 -1 -7 9.38 11.5
5 1 7 44.27 10.64
5 -1 7 46.33 11.48
-5 -1 7 59.66 11.82
-5 -1 7 58.37 11.83
-5 1 7 60.27 11.65
-5 1 7 50.78 11.22
-5 1 -7 57.2 13.3
-5 -1 -7 46.17 11.96
-5 1 7 41.39 10.01
5 1 7 47.87 37.94
5 -1 -7 76.59 23.62
5 -1 7 47.86 32.09
5 -1 7 70.35 25.19
5 1 7 22 16.31
5 2 -7 28.06 27.85
5 2 7 73.08 14.13
5 -2 7 98.59 16.92
-5 -2 7 96.92 15.71
-5 2 7 119.9 16.86
-5 2 7 106.01 16.51
-5 -2 7 96.47 15.57
-5 -2 -7 81.21 16.1
-5 2 7 93.17 15.55
5 2 7 117.27 48.83
5 -2 -7 106.72 27.57
5 -2 7 84.79 15.3
5 -2 7 136.89 34.27
5 3 -7 18.42 15.59
5 3 7 15.37 6.06
5 -3 7 7.38 5.45
-5 3 7 10.71 5.83
-5 -3 7 14.64 6.35
-5 -3 7 17.84 6.69
-5 3 7 15.76 6.45
-5 3 7 13.57 6.29
-5 -3 -7 18.5 8.6
5 -3 7 13.02 6.19
5 3 7 -11.36 0.71
5 -3 -7 13.06 10.44
5 3 -7 8.87 9.21
5 -3 7 25.33 18.18
5 4 -7 9 10.8
5 -4 -7 44.07 23.58
5 -4 7 9.62 6.58
-5 -4 7 20.64 7.33
-5 4 7 15.65 6.28
-5 -4 7 16.36 6.17
-5 4 7 21.89 8.05
-5 4 7 29.75 8.63
-5 -4 -7 18.67 7.47
5 -4 7 18.26 7.22
5 4 -7 19.16 6.81
5 -4 7 10.89 13.05
5 4 7 21.75 22.54
5 -4 -7 8.47 10.17
5 4 -7 17.33 10.4
5 -4 7 29.03 15.33
5 4 7 25.63 15.04
5 -5 -7 -8.53 14.42
5 -5 7 4.04 4.83
-5 -5 7 -1.36 1.62
-5 5 7 1.61 4.71
-5 5 7 -1.49 3.99
-5 5 7 1.63 2.75
-5 -5 -7 5.64 4.49
5 5 -7 1.39 2.35
5 -5 7 10.34 12.36
5 -5 -7 -4.1 9.8
5 5 -7 4.21 7.11
5 -5 7 1.7 3.52
5 5 7 1.81 3.74
5 -5 7 -4.57 7.72
5 5 7 4.89 5.85
5 6 -7 76.23 33.79
5 -6 -7 82.43 37.06
5 -6 7 68.96 15.89
-5 -6 7 53.16 11.42
-5 6 7 60.12 12.9
-5 6 7 52.5 12.86
-5 -6 -7 66.64 14.86
-5 6 7 62.97 13.79
5 6 7 96.94 40.32
5 6 -7 82.78 14.55
5 -6 -7 86.82 23.88
5 6 -7 40.61 17.22
5 -6 7 87.62 38.78
5 -6 7 90.68 16.43
5 6 7 88.92 16.69
5 -6 7 107.1 28.29
5 6 7 73.97 24.37
5 7 -7 211.63 56.14
5 -7 -7 229.06 57.77
5 -7 7 365.05 38.39
-5 -7 7 287.16 28.53
-5 7 7 223.98 29.05
-5 -7 -7 257.12 31.39
-5 7 7 246.27 29.76
5 7 -7 266 28.37
5 -7 7 346.4 71.32
5 -7 -7 344.93 47.86
5 7 -7 269.37 44.01
5 -7 7 281.26 31.34
5 7 7 244.81 63.06
5 7 7 281.86 46.38
5 -7 7 263.85 44.18
5 7 7 266.81 31.7
5 8 -7 108.9 37.95
5 -8 -7 165.93 46.59
5 -8 7 160.03 25.72
-5 -8 7 131.43 18.62
-5 -8 -7 128.99 21.46
-5 8 7 117.16 20.19
-5 8 7 118.42 20.04
5 8 -7 175.34 21.86
5 -8 7 165.79 22.96
5 -8 -7 137.6 30
5 8 -7 141.8 30.21
5 -8 7 144.65 46.11
5 -8 7 150.21 31.04
5 8 7 114.48 28.66
5 8 7 160.15 47.86
5 8 7 133.44 21.54
5 9 -7 66.88 28.31
5 -9 -7 71.93 29.99
-5 -9 -7 57.66 14.4
-5 9 7 61.8 14.23
-5 -9 7 75.18 13.48
-5 -9 -7 58.32 13.79
-5 9 7 54.34 14.15
5 9 -7 68.08 13.69
5 -9 -7 48.53 17.92
5 9 -7 42.83 18.43
5 -9 7 69.8 15.19
5 9 7 79.74 23.41
5 9 7 75.19 16.12
5 -9 7 86.95 32.92
5 9 7 54.68 26.64
5 0 -8 10.52 17.89
5 0 -8 30.37 17.23
-5 0 8 45.62 10.82
-5 0 8 29.47 9.66
-5 0 -8 44.2 12.1
5 1 -8 136.39 49.52
5 -1 -8 177.55 56.66
-5 -1 -8 182.72 24.92
-5 1 -8 167.88 24.12
5 -1 8 213.58 66.17
5 1 8 238.59 72.64
-6 0 0 1320.3 83.8
-6 0 0 1105.94 76.28
-6 0 0 1307.89 76.02
-6 0 0 1309.68 97.75
-6 0 0 1362.91 88.02
-6 0 0 1108.12 73.82
-6 -1 0 0.79 3.15
-6 1 0 5.42 3.34
-6 1 0 2.68 4.53
-6 -1 0 4.84 2.62
-6 -1 0 5.4 4.57
-6 -1 0 -5.48 15.02
-6 1 0 -0.77 4.1
-6 -1 0 5.72 3.05
-6 1 0 1.63 4.35
-6 -1 0 6.85 5.02
-6 -2 0 493.85 34.42
-6 -2 0 432.82 34.24
-6 -2 0 558.62 42.72
-6 -2 0 379.28 50.65
-6 2 0 516.8 36.48
-6 2 0 555.83 42.69
-6 -2 0 472.1 44.02
-6 2 0 456.65 36.64
-6 -3 0 0.64 2.02
-6 3 0 1.34 3.6
-6 3 0 0.88 2.11
-6 -3 0 1.39 2.35
-6 -3 0 -3.08 11.03
-6 -3 0 0.66 1.95
-6 -3 0 1.82 3.77
-6 3 0 2.08 3.51
-6 -4 0 185.01 16.96
-6 -4 0 254.05 25.63
-6 -4 0 176.72 32.84
-6 -4 0 207.48 26.8
-6 4 0 200.89 22.59
-6 -5 0 1.43 1.71
-6 -5 0 -6.65 8.9
-6 5 0 -5.27 5.89
-6 -5 0 -1.92 4.59
-6 -6 0 112.16 16.98
-6 -6 0 109.47 25.54
-6 6 0 91.5 15.93
-6 -6 0 106.73 19.06
6 6 0 118.45 18.33
-6 7 0 -4.72 6.51
-6 -7 0 4.07 4.86
-6 -7 0 -1.47 2.49
6 -7 0 1.58 2.66
6 7 0 1.72 3.57
-6 -8 0 761.1 68.28
-6 8 0 715.63 63.52
-6 -8 0 832.01 63.46
6 -8 0 1003.84 67.6
6 8 0 965.04 68.83
-6 -9 0 8.73 7.38
-6 -9 0 -1.56 5.28
6 -9 0 -1.67 4.47
6 9 0 -1.86 3.86
-6 -10 0 878.04 78.18
-6 10 0 924.36 75.35
-6 -10 0 928.07 72.53
6 -10 0 1158.08 77.46
6 10 0 1168.69 80.04
-6 11 0 -5.78 9.49
-6 -11 0 4.67 6.25
-6 -11 0 -1.65 4.85
6 -11 0 -1.8 3.74
6 11 0 -2.04 4.23
-6 -12 0 424.31 49.33
-6 12 0 439.74 46.86
-6 -12 0 471.86 44.88
6 -12 0 624.54 50.15
6 12 0 602.54 52.22
-6 13 0 -2.02 6.84
-6 -13 0 -2.5 6.67
-6 -13 0 -1.75 3.63
6 -13 0 3.9 3.3
6 13 0 -2.26 2.7
-6 14 0 115.05 23.47
-6 -14 0 139.7 25.6
-6 -14 0 134.66 21.77
6 -14 0 171.51 24.34
6 14 0 171.43 26.5
-6 0 1 0.93 1.93
-6 0 1 -0.87 2.08
-6 0 -1 4.37 3.48
-6 0 1 2.45 3.27
-6 0 -1 1.16 1.84
-6 0 1 -2.76 8.07
-6 0 1 1.71 2.89
-6 0 1 1.61 2.16
6 0 1 -4.1 0.04
-6 -1 -1 132.87 12.52
-6 -1 1 112.76 14.27
-6 -1 -1 138.53 18.61
-6 1 1 137.52 17.46
-6 1 1 103.07 14.6
-6 -1 1 135.31 17.56
-6 -1 1 159.05 15.74
-6 1 -1 130.54 13.27
-6 1 1 122.9 14.72
-6 1 1 121.57 23.57
-6 -1 1 107.74 23.61
-6 1 -1 160.99 19.86
-6 1 1 148.55 20.65
-6 -1 1 144.04 21
-6 1 1 110.68 14.86
-6 -1 1 119.62 13.15
-6 1 -1 121.98 13.48
6 -1 1 142.78 44.32
6 1 1 167.44 47.46
6 -1 1 139.21 30.97
6 1 1 115.98 28.87
-6 -2 -1 1.99 2.37
-6 2 1 1.08 2.24
-6 2 1 1.9 2.28
-6 2 -1 1.39 1.85
-6 -2 1 -0.81 2.37
-6 2 -1 1.45 3.48
-6 2 1 3.65 3.26
-6 -2 -1 1.47 3.05
-6 -2 1 1.26 3.02
-6 2 1 -2.4 6.42
-6 -2 1 1.59 2.69
-6 -2 1 -3.05 11.53
-6 2 1 -1.12 2.67
-6 -2 1 1.81 3.74
-6 2 -1 0.79 2.66
-6 -2 -1 -1.75 2.97
-6 2 1 -1.6 2.7
6 -2 1 4.01 6.78
-6 3 1 245.09 23.14
-6 3 -1 209.54 20.2
-6 -3 1 277.28 22.22
-6 -3 1 239.48 20.86
-6 -3 -1 192.32 18.46
-6 -3 -1 248.67 26.98
-6 -3 1 261.84 25.75
-6 3 1 221.01 31.39
-6 -3 1 212.21 36.01
-6 3 1 271.1 25.74
-6 3 -1 263.99 27.24
-6 3 1 295.33 29.23
-6 -3 -1 219.68 27.68
-6 -3 1 232.87 29.13
-6 3 1 257.39 26
-6 3 -1 201.72 21.36
6 3 1 248.66 58.16
6 -3 1 252.95 41.24
-6 4 1 19.98 5.96
-6 -4 1 21.05 5.34
-6 4 1 20.94 6.81
-6 -4 -1 10.63 5.51
-6 -4 1 17.02 4.54
-6 -4 1 20.63 6.77
-6 4 1 11.88 7.16
-6 -4 1 13.07 10.37
-6 4 -1 19.43 6.41
-6 -4 1 17.27 7.66
-6 4 1 21.19 7.29
-6 -4 -1 14.81 7.05
-6 4 1 14.13 7.41
6 -4 1 7.83 13.27
6 -4 1 18.74 12.71
6 4 1 -7.75 13.13
6 4 1 7.81 8.13
-6 5 -1 2.29 2.74
-6 5 1 -1.55 3.7
-6 -5 -1 1.91 3.23
-6 -5 1 0.63 2.26
-6 -5 -1 -1.55 1.86
-6 -5 1 1.32 2.23
-6 5 1 1.76 4.71
-6 -5 1 3.33 6.89
6 -5 1 1.58 3.27
6 5 1 -1.72 2.9
6 -5 1 3.58 6.06
6 5 1 3.76 7.79
6 -5 1 -7.53 12.73
6 5 1 7.43 12.56
-6 -6 -1 -1.97 3.34
-6 6 -1 6.34 5.47
-6 -6 1 4.13 4.94
-6 6 1 3.33 3.98
-6 -6 -1 10.9 5.59
-6 -6 1 5.36 3.92
-6 6 1 -1.54 4.12
-6 -6 1 3.39 7.02
6 -6 1 8.08 5.11
6 6 -1 6.28 4.6
6 6 1 7.05 5.57
6 -6 1 10.28 8.2
6 6 1 10.79 9.62
6 -6 1 7.19 8.6
6 6 1 -7.07 11.96
-6 -7 1 148.1 24.69
-6 -7 -1 190.62 26.48
-6 7 1 134.61 22.55
-6 7 -1 169.21 21.92
-6 -7 -1 201.58 24.27
-6 -7 1 181.45 22.34
-6 -7 1 147.72 30.65
6 -7 1 187.29 23.98
6 7 -1 224.75 25.69
6 7 1 194.48 25.18
6 -7 1 201.13 34.11
6 -7 1 150.34 42.01
6 7 1 180.77 45.63
6 7 1 230.01 36.64
-6 8 -1 55.49 13.29
-6 -8 -1 62.48 15.66
-6 -8 1 71.27 16.46
-6 8 1 72.63 15.93
-6 -8 -1 71.85 14.2
-6 -8 1 67.51 13.67
-6 -8 1 82.98 22.61
6 -8 1 102.44 16.93
6 8 1 56.53 13.35
6 -8 1 104.06 22.91
6 8 1 64.88 18.62
6 8 -1 109.04 17.36
6 -8 1 64.63 25.94
6 8 1 100.96 32.26
-6 9 -1 80.22 16.08
-6 -9 -1 66.44 16.13
-6 -9 1 68.97 17.17
-6 9 1 106.65 19.49
-6 -9 -1 136.08 19.5
-6 -9 1 95.85 15.85
-6 -9 1 59.11 21.1
6 -9 1 112.95 18.38
6 -9 -1 113.53 17.44
6 -9 1 100.84 23
6 9 1 106.89 23.46
6 9 -1 127.51 19.14
6 9 1 192.32 24.67
6 -9 1 127.98 35.38
6 9 1 142.34 37.26
-6 10 -1 3.4 4.98
-6 -10 -1 8.8 5.89
-6 -10 1 2.37 4.02
-6 10 1 -2 5.36
-6 -10 -1 3.38 3.5
-6 -10 1 3.08 4.12
-6 -10 1 3.48 4.17
6 -10 -1 8.14 4.77
6 -10 1 9.14 5.36
6 10 -1 1.83 4.38
6 10 1 6.16 5.49
6 -10 1 -5.73 9.68
-6 11 -1 58.78 14.53
-6 -11 -1 68.29 16.42
-6 -11 1 78.63 19.47
6 -11 1 107.51 21.9
-6 11 1 88.2 18.06
-6 -11 -1 88.78 16.37
-6 -11 1 73.06 22.19
-6 -11 1 86.25 15.85
6 -11 1 131.76 20.4
6 -11 -1 99.47 16.89
6 11 -1 163.52 22.51
6 11 1 139.92 22.11
-6 12 -1 68.51 15.98
-6 -12 -1 68.38 16.8
6 -12 1 83.31 20.15
-6 -12 1 66.25 17.28
-6 12 1 83.57 18.05
-6 -12 -1 90.66 16.66
-6 -12 1 90.08 24.21
-6 -12 1 66.34 14.31
6 -12 1 87.29 17.03
6 -12 -1 89.65 16.22
6 12 -1 97.08 18.48
6 12 1 128.44 21.51
-6 -13 -1 187.1 29.81
-6 13 -1 175.61 26.72
6 -13 1 227.91 33.78
-6 -13 1 144.93 28.03
-6 13 1 150.23 26.27
-6 -13 -1 215.89 27.44
-6 -13 1 169.11 24.78
-6 -13 1 171.51 34.6
6 -13 1 247.22 29.64
6 -13 -1 237.34 28.15
6 13 -1 286.45 32.47
6 13 1 276.67 33.34
-6 14 -1 11.73 8.46
-6 -14 -1 17.54 9.03
6 -14 1 5.82 6.09
-6 -14 1 19.03 10.31
-6 14 1 10.67 9.23
-6 -14 -1 5.7 6.48
-6 -14 1 10.62 7.07
6 -14 1 40.98 12.13
6 -14 -1 34.17 10.18
6 14 -1 27.01 9.74
6 14 1 32.25 11.13
-6 0 2 211.31 17.14
-6 0 2 138.54 17.29
-6 0 2 180.45 19.57
-6 0 2 175.79 18.62
-6 0 2 178.64 30.05
-6 0 2 175.91 23.57
-6 0 -2 155.66 21.19
-6 0 2 133.8 17.84
6 0 2 126.08 46.57
6 0 2 133.86 31.85
-6 -1 2 -3.05 8.92
-6 1 2 5.59 6.69
-6 1 2 1.08 2.59
-6 -1 2 4.7 2.78
-6 1 2 3.43 2.59
-6 1 2 2.05 2.46
-6 1 -2 4.69 4.95
-6 -1 -2 7.88 4.99
-6 1 2 3.31 2.64
-6 -1 2 10.21 4.7
-6 -1 2 0.97 2.32
-6 -1 2 0.93 1.94
-6 1 2 3.43 4.11
-6 -1 2 14.81 7
-6 1 2 3.66 3.58
-6 -1 2 4.48 3.39
6 -1 2 -8.96 10.71
6 1 2 -8.95 15.14
6 -1 2 4.26 5.1
6 1 2 8.65 8.96
-6 -2 2 321.02 22.61
-6 2 2 288.39 22.5
-6 -2 2 213.79 21.59
-6 -2 2 256.12 23.47
-6 2 2 209.36 23.54
-6 -2 -2 245.39 27.6
-6 2 2 238.86 23.93
-6 -2 2 240.2 24.43
-6 -2 2 232.95 36.41
-6 2 2 195.83 31.76
-6 2 2 236.92 23.61
-6 2 -2 256.2 27.84
-6 2 2 261.51 29.11
-6 -2 2 252.36 30.6
-6 2 2 204.59 25.17
6 2 2 193.52 54.25
6 -2 2 216.76 40.85
-6 3 2 -2.48 7.85
-6 3 2 -1.22 3.27
-6 -3 2 5.77 3.34
-6 -3 2 0.94 2.74
-6 3 2 2.96 3.19
-6 3 2 3.34 3.77
-6 3 2 2.18 3.46
-6 -3 -2 6.4 5.06
-6 -3 2 5.76 3.81
-6 -3 2 3.5 3.95
-6 3 2 3.2 5.05
-6 -3 2 2.01 5.37
-6 3 2 -3.03 8.68
6 3 2 8.56 10.23
6 -3 2 -4.03 9.64
-6 -4 -2 1591.28 116.66
-6 4 2 1820.23 115.56
-6 4 2 1544.5 114.25
-6 -4 2 1708.3 120.6
-6 4 -2 1593.78 106.9
-6 4 2 1880.04 110.63
-6 -4 2 2055.69 107.02
-6 4 2 1665.73 109.61
-6 4 2 1889.45 106.01
-6 -4 2 1834.71 108.28
-6 -4 2 1575.15 104.77
-6 -4 -2 1914.46 117.21
-6 4 2 1559.7 110.49
-6 -4 2 1868.96 111.87
-6 -4 2 1443.61 128.94
-6 4 2 1675.64 122.93
6 -4 2 1893.43 116.89
6 -4 2 1726.1 177.35
6 4 2 1864.5 182.04
6 -4 2 1815.41 141.68
6 4 2 1873.22 145.1
-6 5 2 4.42 6.36
-6 5 -2 2.12 5.38
-6 -5 2 2.16 9.33
-6 5 2 -8.76 13.25
-6 -5 -2 7.67 7.94
-6 -5 2 -3.33 15.94
-6 5 2 -2.11 10.4
-6 -5 2 7.15 4.85
-6 5 2 5.35 4.09
-6 -5 2 3.67 3.41
-6 5 2 5.56 4.21
-6 -5 -2 4.96 6.56
-6 -5 2 1.23 4.42
6 -5 2 4.95 5.93
6 -5 2 7.94 13.43
6 5 2 -7.93 21.2
6 -5 2 11.06 9.86
6 5 2 7.83 11.47
-6 6 2 1265.5 83.49
-6 -6 -2 1126.04 90.02
-6 6 2 1068.54 88.84
-6 -6 2 1216.33 94.47
-6 6 -2 1154.61 82.73
-6 -6 2 1463.89 82.11
-6 6 2 1265.67 79.38
-6 -6 -2 1310.67 89.68
-6 -6 2 1269.82 85.39
-6 -6 2 995.2 100.68
-6 6 2 1206.79 91.53
6 -6 2 1442.08 91.49
6 -6 2 1572.32 150.49
6 6 2 1550.45 150.76
6 -6 2 1547.58 115.23
6 6 2 1295.7 112.7
-6 -7 -2 2.03 4.21
-6 -7 2 2.33 3.93
6 -7 2 4.74 7.5
-6 7 2 -9.65 11.54
-6 7 2 -3.37 7.25
-6 -7 2 3.4 8.14
-6 -7 2 3.71 2.94
-6 7 2 1.69 2.26
-6 -7 -2 1.7 4.54
-6 -7 2 1.32 3.16
6 -7 2 -1.74 4.64
6 7 2 1.91 3.22
6 -7 2 7.19 12.15
6 7 2 -7.1 16.98
6 -7 2 6.65 6.88
6 7 2 -3.57 11.28
-6 -8 -2 191.08 28.96
-6 8 2 271.86 32.45
6 -8 2 262.78 34.82
-6 8 -2 228.32 26.89
-6 -8 2 176.02 30.42
-6 -8 2 308.74 26.9
-6 -8 -2 269.47 30.31
-6 -8 2 247.18 27.35
-6 -8 2 278.19 41.42
6 -8 2 287.96 31.52
6 8 -2 325.57 31.13
6 8 2 319.52 34.2
6 -8 2 311.57 59.55
6 8 2 300.15 58.7
6 -8 2 252 38.64
6 8 2 243.92 39.34
-6 -9 -2 2.14 4.43
-6 9 -2 -1.5 6.2
6 -9 2 2.59 4.39
-6 -9 2 5 5.98
-6 9 2 -2.05 5.49
-6 -9 -2 1.74 2.94
-6 -9 2 5.78 4.24
-6 -9 2 3.4 7.05
6 -9 2 5.55 4.42
6 9 -2 1.62 3.36
6 9 2 6.15 5.48
6 -9 2 6.35 7.6
6 9 2 -6.25 0.12
6 -9 2 5.91 7.06
6 9 2 3.18 5.37
-6 -10 -2 21.98 9.56
-6 10 -2 20.75 8.41
6 -10 2 16.18 10.77
-6 -10 2 20.7 10.33
-6 10 2 20.94 9.45
-6 -10 -2 32.02 9.59
-6 -10 2 25.67 7.97
-6 -10 2 20.31 10.78
6 -10 2 38.51 10.87
6 10 -2 22.01 8.19
6 10 2 23.55 9.66
6 -10 2 23.82 14.29
6 10 2 -5.84 9.95
6 -10 2 39.05 13.4
6 10 2 33.01 13
-6 11 -2 1.69 4.51
-6 -11 -2 4.52 4.68
6 -11 2 2.81 3.36
-6 -11 2 5.35 5.54
-6 11 2 -2.13 5.09
-6 -11 -2 1.83 3.09
-6 -11 2 1.56 3.73
-6 -11 2 -3.38 9.89
6 -11 -2 3.13 3.74
6 -11 2 2 2.39
6 11 -2 -1.78 3
6 11 2 6.72 5.99
6 -11 2 -2.61 6.24
6 11 2 2.8 5.8
6 -11 2 11.14 13.32
6 11 2 5.45 6.52
-6 12 -2 116.72 20.76
-6 -12 -2 119.11 23.15
-6 12 2 187.13 26.73
6 -12 2 174.61 29.1
-6 -12 2 85.28 21.7
-6 -12 -2 135.48 22.03
-6 -12 2 154.52 21.99
-6 -12 2 90.3 24.57
6 -12 2 171.92 24.49
6 -12 -2 150.54 20.94
6 -12 2 142.16 25.38
6 12 -2 146.01 21.93
6 12 2 224.51 29.42
6 -12 2 130.19 33.84
6 12 2 157.36 35.71
6 12 2 170.47 27.89
-6 -13 2 2.82 6.75
-6 13 -2 1.84 6.22
-6 -13 -2 -2.41 5
6 -13 2 3 8.02
-6 13 2 -2.17 7.32
-6 -13 -2 9.58 6.06
-6 -13 2 -3.32 7.95
-6 -13 2 -3.39 5.36
6 -13 -2 -1.68 4.01
6 -13 2 -2.17 5.79
6 13 -2 -1.98 4.73
6 13 2 2.45 4.14
6 -13 2 -2.29 4.74
6 13 2 2.44 5.84
6 -13 2 4.87 5.82
6 13 2 4.72 5.65
-6 0 3 3.35 2.67
-6 0 3 3.05 6.31
-6 0 3 -0.88 2.77
-6 0 -3 1.68 2.84
-6 0 3 1 1.69
-6 0 3 1.07 2.55
-6 0 3 1.96 3.31
-6 0 3 -1.36 3.65
6 0 3 4.66 5.58
6 0 3 -9.75 16.49
-6 -1 3 72.13 20.09
-6 -1 3 111.07 12.87
-6 1 3 59.12 17.29
-6 1 3 110.44 13.38
-6 -1 3 90.6 12.88
-6 1 3 79.45 12.87
-6 -1 3 90.65 13.26
-6 1 3 100.33 13.16
-6 -1 3 109.27 13.81
-6 1 -3 75.62 14.89
-6 -1 -3 93.01 16.16
-6 1 3 89.25 13.39
-6 1 3 104.4 17.95
-6 -1 3 96.81 18.75
-6 1 3 71.39 14.67
-6 -1 3 73.33 13.06
6 -1 3 73.58 23.84
6 1 3 88.83 26.67
6 -1 3 96.99 38.77
6 1 3 67.87 33.15
-6 2 3 20.69 6.93
-6 -2 3 9.63 7.77
-6 2 3 14.22 9.07
-6 -2 3 21.56 5.74
-6 2 3 36.81 7.3
-6 -2 3 30.09 7.37
-6 2 3 17.68 6.1
-6 2 -3 33.79 9.97
-6 -2 -3 30.49 9.57
-6 -2 3 20.23 6
-6 2 3 24.29 6.48
-6 -2 3 24.18 6.52
-6 2 3 33.41 10.58
-6 -2 3 10.79 7.83
-6 2 3 13.21 7.48
6 -2 3 26.9 14.23
6 2 3 28.58 22.81
-6 -3 3 189.27 17.9
-6 -3 3 104.62 24.97
-6 3 3 149.18 26.54
-6 3 3 183.58 18.18
-6 -3 3 135.92 16.51
-6 -3 3 182.01 19.28
-6 3 3 131.94 18.88
-6 -3 -3 171.25 23.03
-6 3 3 162.18 17.7
-6 -3 3 161.47 18.54
-6 3 3 162.6 19.25
-6 -3 3 162.65 25.78
-6 3 3 109.59 20.1
6 -3 3 181.73 36.49
-6 -4 3 76.56 10.74
-6 -4 3 69.08 20.01
-6 4 3 56.59 11.91
-6 4 3 35.95 13.19
-6 4 3 73.59 10.79
-6 -4 3 72.48 11.5
-6 4 3 85.79 11.77
-6 -4 3 57.91 9.87
-6 -4 -3 74.54 14.39
-6 -4 3 64.82 11.41
-6 4 3 74.25 12.79
-6 -4 3 72.98 17.29
-6 4 3 67.28 15.28
6 -4 3 78.69 24.03
6 4 3 61.51 21.34
6 -4 3 71.42 33.96
6 4 3 107.02 38.63
-6 -5 3 -3.33 5.63
-6 5 3 -2.4 4.06
-6 5 3 -1.46 3.03
-6 -5 3 0.88 2.78
-6 5 3 0.94 1.94
-6 5 3 1.33 2.76
-6 -5 -3 1.76 3.63
-6 -5 3 -1.2 2.87
-6 -5 3 2.45 4.14
-6 5 3 -1.96 4.68
-6 -5 -3 1.96 3.31
6 5 3 1.88 3.18
6 -5 3 3.93 6.65
6 5 3 -4.21 7.12
6 5 3 -8.5 14.37
-6 -6 3 3.36 5.68
-6 6 3 4.46 5.33
-6 6 3 1.56 3.23
-6 -6 3 8.31 4.13
-6 6 3 4.18 3.73
-6 6 3 6.8 3.68
-6 -6 -3 7.16 5.24
-6 -6 3 2.49 4.22
6 -6 3 7 5.58
-6 -6 3 2.54 5.26
-6 6 3 2.03 4.2
-6 -6 -3 2.01 3.4
6 6 3 3.85 4.61
6 -6 3 3.71 7.69
6 6 3 -4 6.77
6 -6 3 8.08 16.73
6 6 3 -8.05 0.17
-6 -7 3 116.18 15.05
-6 -7 3 141.01 28.26
-6 7 3 130.78 21.98
-6 7 3 116.5 19.24
-6 7 3 100.9 14.72
-6 -7 -3 121.75 19.41
-6 -7 3 108.87 16.51
-6 -7 -3 115.4 20.14
6 -7 3 134.42 23.89
-6 7 3 117.01 21
-6 -7 3 97.29 21.83
6 -7 3 135.9 28.38
6 7 3 117.14 27.86
6 7 3 158.7 22.92
6 -7 3 129.36 39.13
6 7 3 121.16 41
-6 -8 3 16.85 10.67
-6 8 3 8.85 5.63
-6 -8 3 13.42 5.41
-6 -8 -3 10.89 6.89
-6 -8 3 24.86 7.41
6 -8 3 15.41 9.23
-6 8 3 2.14 6.79
-6 -8 3 18.99 9.2
-6 -8 -3 14.85 8.04
6 -8 3 -3.26 7.82
6 8 3 14.2 9.51
6 -8 3 7.15 8.57
6 8 3 14.18 14.7
-6 -9 3 66.95 18
-6 -9 -3 37.19 12.77
-6 9 -3 62.49 13.37
6 -9 3 96.14 20
-6 9 3 62.83 15.73
-6 -9 3 67.1 19.97
-6 9 3 62.35 14.19
-6 -9 3 56.87 11.43
-6 -9 -3 73.77 15.21
-6 -9 3 58.05 12.17
6 -9 3 65.76 14.69
6 -9 3 109.65 23.3
6 9 3 82.96 20.92
6 9 -3 83.24 14.22
6 -9 3 53.52 24.26
6 9 3 79.63 29.9
-6 -10 3 11.48 7.68
-6 -10 -3 2.24 4.66
-6 10 -3 4.65 4.55
6 -10 3 11.18 8.2
-6 10 3 2.2 4.56
-6 -10 3 10.06 8.03
-6 -10 3 8.28 5.11
-6 10 3 6.03 5.38
-6 -10 -3 7.54 5.53
-6 -10 3 15.07 6.25
6 -10 3 10 6.33
6 10 -3 6.19 4.91
6 -10 3 12.52 10.59
6 10 3 12.36 12.8
6 -10 3 8.58 6.85
6 10 3 9.34 6.46
-6 -11 3 38.29 14.46
-6 -11 -3 36.81 12.42
-6 11 -3 49.4 13.6
6 -11 3 95.39 21.27
-6 11 3 39.92 14.16
-6 -11 3 56.45 18.48
-6 -11 -3 59.76 14.39
-6 -11 3 53.97 12.86
6 -11 3 88.98 17.45
6 11 -3 72.97 14.48
6 -11 3 64.19 25.36
6 11 3 109.61 31.78
6 -11 3 94.09 20.59
6 11 3 105.16 22.6
-6 -12 -3 167.67 27.04
-6 -12 3 108.28 25.58
-6 12 -3 137.06 23.45
6 -12 3 150.18 28.87
-6 12 3 155.5 26.97
-6 -12 3 147.37 30.47
-6 -12 -3 163.78 24.53
-6 -12 3 168.54 24.23
6 -12 3 218.15 28.38
6 12 -3 257.33 27.38
6 -12 3 147.51 37.52
6 12 3 214.06 43.43
6 12 3 170.91 29.21
6 -12 3 220.29 30.75
-6 0 -4 1459.24 95.74
-6 0 4 920.7 88.1
-6 0 4 1770.15 90.09
-6 0 4 1285.07 86.69
-6 0 4 1470.62 89.3
-6 0 4 1180.47 104.56
6 0 4 976.49 148.38
6 0 4 1301.66 124.77
-6 1 4 12.59 5.74
-6 -1 4 19.21 12.16
-6 1 4 18.41 12.76
-6 -1 4 33.65 7.93
-6 1 4 30.79 7.7
-6 1 -4 21.54 8.66
-6 -1 4 29.16 7.77
-6 -1 -4 34.27 10.4
-6 -1 4 30.82 8.08
-6 1 4 25.28 7.96
-6 1 4 -7.09 12.76
6 -1 4 29.8 17.85
6 1 4 10.11 12.14
6 -1 4 10.54 17.86
6 1 4 10.55 21.88
-6 -2 4 549.54 38.84
-6 2 4 601.82 40.54
-6 -2 4 406.25 37.05
-6 2 4 447.82 39.65
-6 -2 4 501.46 39.95
-6 -2 -4 532.09 46.28
-6 2 4 458.77 39.82
-6 -2 4 534.01 58.06
-6 2 4 474.35 53.89
-6 2 -4 503.73 45.39
-6 2 4 318.91 41.07
6 -2 4 514.11 47.95
6 -2 4 633.54 73.52
6 2 4 445.09 89.68
-6 -3 4 6.55 7.84
-6 3 4 8.66 7.72
-6 -3 4 8.4 4.32
-6 -3 4 14.62 4.82
-6 3 4 11.56 5.04
-6 -3 4 4.07 3.46
-6 3 4 6.65 4.51
-6 -3 -4 12.74 6.54
-6 3 4 8.14 5.14
-6 -3 4 -2.54 5.26
6 -3 4 2.06 6.05
-6 3 4 -7.86 10.52
6 -3 4 13.96 12.45
6 3 4 10.04 12.01
-6 -4 4 132.98 25.53
6 -4 4 151.9 24.64
-6 4 4 108.31 20.48
-6 -4 4 170.46 17.63
-6 -4 4 119.09 26.4
-6 4 4 145.37 17.33
-6 4 4 102.87 22.3
-6 -4 4 155.83 18.41
-6 -4 -4 163.5 22.56
-6 4 4 131.09 18.17
-6 4 4 108.61 17.67
6 -4 4 131.76 20.32
6 -4 4 146.55 33.56
6 4 4 123 31.35
6 -4 4 163.75 50.75
6 4 4 135.44 49.63
-6 -5 4 8.3 8.17
6 -5 4 43.26 12.52
-6 5 4 14.77 8.05
-6 5 4 24.51 7.84
-6 -5 4 19.92 11.96
-6 5 4 10.61 7.84
-6 -5 4 29.23 7.31
-6 5 4 20.87 6.39
-6 5 4 14.37 5.8
-6 -5 -4 26.08 8.98
6 -5 4 17.92 7.5
6 5 4 31.21 10.99
6 -5 4 46.48 18.93
6 5 4 27.32 14.44
6 -5 4 9.2 19.08
6 5 4 9.2 15.59
-6 -6 4 37 14.26
-6 6 4 41.14 12.93
-6 -6 -4 45.41 12.1
-6 6 4 34.5 10.51
-6 -6 4 56.75 18.03
-6 6 4 52.54 15.17
-6 -6 4 39.32 9.1
-6 6 4 46.59 10.93
-6 6 4 43.11 9.73
-6 -6 -4 45.31 12
6 -6 4 53.21 12.47
6 6 4 69.87 14.93
6 -6 4 63.58 20.86
6 6 4 51.79 19.47
6 -6 4 95.62 36.09
6 6 4 86.82 36.05
-6 -7 4 -2.93 11.09
-6 7 4 -2.2 4.55
-6 -7 -4 2.11 5.06
-6 7 4 1.73 4.14
-6 -7 4 -3.34 5.65
-6 7 4 7.03 6.27
-6 -7 4 9.43 4.52
-6 7 4 1.57 3.25
-6 7 4 1.18 3.75
-6 -7 -4 1.91 3.96
6 -7 4 1.88 4.5
6 7 4 4.1 5.49
6 -7 4 7.44 8.9
6 7 4 -4.06 9.72
6 -7 4 -8.16 9.76
6 7 4 -8.17 13.81
-6 -8 -4 698.51 63.14
-6 8 4 600.77 63.56
-6 -8 4 563.47 67.64
-6 -8 4 796.26 55
-6 8 4 666.41 60.06
-6 -8 -4 814.21 63.81
-6 -8 4 655.84 71.68
6 -8 4 934.52 112.86
6 8 4 892.21 112.05
6 -8 4 859.1 64.96
6 -8 4 942.98 82.62
6 8 4 807.57 80.25
6 8 4 837.96 66.13
-6 -9 4 9.96 10.53
-6 9 4 9.69 7
-6 -9 4 14.88 6.47
-6 -9 -4 21.59 8.5
-6 -9 4 6.1 10.35
6 -9 4 16.53 11.9
-6 9 4 11.31 9.78
-6 -9 -4 15.6 8.87
6 9 4 35.05 11.74
6 -9 4 6.5 8.73
6 9 4 21.41 12.82
6 -9 4 7.14 14.81
6 9 4 42.55 22.45
-6 -10 -4 1002.95 82.68
-6 10 4 1038.4 84.9
6 -10 4 1171.44 92.23
-6 -10 4 764.31 86.61
-6 -10 4 1073.73 73.45
-6 10 4 917.52 79.03
-6 -10 -4 1009.05 79.6
-6 -10 4 1021.27 93.71
6 -10 4 1435.26 134.93
6 10 4 1225.7 126.39
6 -10 4 1076.62 92.21
6 10 4 1320.43 101.09
6 10 4 1265.49 87.9
-6 0 5 -3.25 5.49
-6 0 5 2.44 2.52
-6 0 -5 3.81 3.94
-6 0 5 -1.25 2.58
-6 0 5 -1.35 3.22
6 0 5 11.55 13.81
6 0 5 -5.46 9.24
-6 -1 5 99.68 14.36
-6 1 5 102.35 14.35
-6 -1 5 98.49 23.39
-6 1 5 105.5 23.44
-6 -1 5 111.72 16.08
-6 1 5 90.58 14.83
-6 -1 5 85.43 13.6
-6 1 -5 97.17 17.57
-6 -1 -5 91.75 17.18
-6 1 5 70 13.04
6 -1 5 80.4 16.42
-6 1 5 56.82 14.86
6 -1 5 114.65 45.72
6 1 5 68.85 33.95
6 -1 5 102.18 29.86
6 1 5 93.1 28.95
-6 2 5 25.28 7.78
-6 -2 5 13.25 9.76
-6 2 5 18.82 9.98
-6 -2 5 19.4 6.49
-6 -2 5 25.19 7.84
-6 2 5 26.54 7.29
-6 -2 5 18.57 6.45
-6 2 -5 24.91 8.94
-6 -2 -5 28.63 9.74
-6 2 5 14.94 6.39
-6 2 5 16.32 8.17
6 -2 5 16.06 7.28
6 2 5 22.5 23.32
6 -2 5 20.91 15.35
-6 -3 5 186.47 20.4
-6 3 5 198.55 21.27
-6 3 5 162.48 29.29
-6 -3 5 185.93 21.68
-6 3 5 216.13 24.1
-6 -3 -5 200.01 25.96
-6 3 5 197.23 22.78
-6 -3 5 190 32.82
6 -3 5 128.27 22.71
-6 3 5 101.39 21.79
6 3 5 196.13 60.47
6 -3 5 205.94 41.85
-6 4 5 2.17 4.5
6 -4 5 4.44 4.59
-6 -4 5 1.33 2.75
-6 -4 5 -3.35 4
-6 4 5 -2.98 7.12
-6 -4 5 -1.12 2.68
-6 4 5 3.67 3.58
-6 4 5 2.96 3.96
-6 -4 -5 1.94 3.28
-6 4 5 -1.49 3.99
6 -4 5 1.82 3.08
6 -4 5 10.43 17.63
6 4 5 10.46 12.5
6 -4 5 4.79 8.1
6 4 5 -5.12 8.65
-6 5 5 -2.21 3.74
6 -5 5 -2.32 3.92
-6 5 5 1.54 3.19
-6 -5 5 -3.35 4
-6 5 5 2.88 6.88
-6 -5 5 -1.12 3.55
-6 5 5 1.25 2.12
-6 -5 -5 1.96 3.32
-6 5 5 -1.58 3.27
6 -5 5 -1.86 3.85
6 5 5 4.02 4.16
6 -5 5 -9.92 11.86
6 5 5 9.92 11.86
6 -5 5 -9.05 9.37
6 5 5 4.88 5.84
-6 6 5 18.05 7.71
6 -6 5 21.85 10.52
-6 -6 5 20.12 10.66
-6 6 5 11.04 7.46
-6 -6 5 24.18 6.97
-6 6 5 24.06 8.43
-6 6 5 24.55 7.16
-6 -6 -5 27.88 9.59
-6 6 5 15.11 7.32
6 -6 5 22.81 8.57
6 6 5 20.52 8.57
6 -6 5 9.35 11.23
6 6 5 18.67 22.35
6 -6 5 21.23 13.47
6 6 5 23.09 14.65
6 -7 5 218.06 30.25
-6 7 5 110.04 22.57
-6 -7 -5 130.95 22.24
-6 -7 5 158.61 18.94
-6 -7 5 143.56 28.42
-6 7 5 138.28 19.18
-6 7 5 154.93 26.07
-6 -7 -5 120.13 20.9
-6 7 5 114.86 19.61
-6 7 5 117.33 19.29
6 -7 5 148.17 22.82
6 -7 5 166.36 49.7
6 -7 5 186.22 35.64
6 7 5 147.52 23.4
6 7 5 140.19 47.47
6 7 5 212.52 38.17
-6 8 5 111.01 22.9
-6 -8 -5 136.21 23.45
-6 8 5 107.73 20.26
-6 8 5 148.84 21.27
-6 -8 5 138.25 17.76
-6 -8 5 126.38 26.87
-6 8 5 121.37 18.56
-6 -8 -5 147.46 22.78
6 -8 5 179.28 24.79
6 -8 5 163.19 32.87
6 8 5 187.49 35.95
6 -8 5 172.03 48.58
6 8 5 203.84 52.14
6 8 5 160.26 24.38
-6 0 6 342.38 31.56
-6 0 6 274.47 29.73
-6 0 6 317.53 31.41
6 0 6 314.97 34.19
-6 0 -6 344.03 36.67
6 0 6 229.38 50.11
6 0 6 336.73 83.4
-6 -1 6 55.03 11.09
-6 -1 6 36.11 9.58
-6 1 6 45.97 10.72
-6 1 6 29.36 8.83
-6 1 -6 52.34 13.16
-6 -1 -6 52.19 13.13
-6 1 6 32.54 9.14
6 -1 6 62.13 14.12
6 -1 6 63.66 25.99
6 1 6 58.95 23.49
6 -1 6 49.53 29.7
6 1 6 12.39 21.07
-6 -2 6 327.84 28.5
-6 2 6 319.67 29.16
-6 2 6 244.06 27.39
-6 -2 6 262.99 28.04
-6 -2 -6 244.69 30.51
-6 2 6 235.55 26.9
-6 -2 6 228.56 37.91
-6 2 6 191.39 30.55
-6 2 -6 224.22 29.82
6 -2 6 215.66 29.49
6 -2 6 269.99 52.17
6 2 6 291.27 78
-6 -3 6 -3.41 9.13
-6 -3 6 8.81 5.43
-6 3 6 8.14 5.85
-6 3 -6 18.39 9.77
-6 3 6 -1.51 5.11
6 3 6 11.75 19.86
-7 0 0 -3.14 4.96
-7 0 0 4.23 3.58
-7 1 0 193.45 23.75
-7 -1 0 175.28 22.91
-7 1 0 180.88 26.16
-7 -1 0 172.79 25.89
-7 2 0 1.12 4.01
-7 2 0 1.57 4.98
-7 -2 0 1.59 4.26
-7 -2 0 -2.19 5.25
-7 2 0 -2.05 4.24
-7 -3 0 511.96 43.07
-7 3 0 376.01 37.16
-7 3 0 461.71 45.67
-7 3 0 514.76 43.04
-7 -3 0 482.75 48.31
-7 4 0 8.05 6.67
-7 -4 0 -1.59 5.38
-7 -4 0 6.79 7.16
-7 4 0 5.97 6.74
-7 -5 0 1051.42 75.01
-7 5 0 946.7 77.22
-7 -5 0 1009.52 81.89
-7 5 0 1042.08 75.43
-7 0 -1 -1.69 2.86
-7 0 1 4.37 3.49
-7 0 1 8.65 6.9
-7 0 1 2.15 5.14
-7 0 -1 -2.11 3.57
7 0 1 -4.88 8.26
7 0 1 9.9 11.83
-7 1 1 8.81 4.56
-7 1 -1 3.38 3.51
-7 -1 -1 1.7 4.54
-7 1 1 1.45 3
-7 -1 1 8.74 5.23
-7 1 1 2.67 6.39
-7 -1 1 3.08 9.02
-7 1 1 2.1 4.34
-7 -1 1 2.19 7.86
-7 1 -1 6.26 5.58
-7 -1 -1 2.14 5.12
7 -1 1 9.65 10
7 -1 1 -9.85 11.78
7 1 1 9.83 11.76
-7 2 1 176.18 22.51
-7 2 1 284.77 28.14
-7 -2 -1 257.02 28.55
-7 -2 1 288.31 28.48
-7 -2 1 150.32 33.79
-7 2 -1 237 28
-7 -2 -1 272.01 33.05
-7 2 1 247.33 31.19
-7 -2 1 247.67 32.47
-7 3 1 29.27 8.37
-7 3 -1 39.62 10.83
-7 3 1 29.03 8.31
-7 -3 -1 27.49 8.88
-7 -3 1 53.17 11.57
-7 -3 1 17.14 12.41
-7 -3 -1 28.82 10.4
-7 -3 1 27.43 10.72
-7 4 1 57.68 12.02
-7 4 1 83.34 14.1
-7 4 -1 69.5 14.07
-7 -4 -1 64 13.7
-7 -4 1 58.91 12.32
-7 -4 1 67.66 21.15
-7 -4 -1 47.5 13.71
-7 -4 1 79.91 17.45
-7 5 1 1.48 3.07
-7 5 -1 -1.76 3.65
-7 5 1 1.49 3.08
-7 -5 -1 1.74 2.94
-7 -5 1 -1.5 2.53
-7 -5 1 -3.66 6.19
-7 -5 -1 -2.3 5.49
-7 -5 1 7.22 7.05
-7 0 -2 18.09 9.44
-7 0 2 6.38 4.78
-7 0 2 3.1 18.88
7 0 2 10.57 17.88
7 0 2 10.37 15.19
-7 -1 -2 872.71 70.66
-7 1 -2 1021.57 69.94
-7 1 2 750.72 58.85
-7 -1 -2 1030.49 69.86
-7 1 2 999.11 61.2
-7 1 2 623.71 74.39
-7 -1 2 547.44 73.1
7 -1 2 903.82 130.8
7 1 2 766.83 123.93
7 -1 2 767.63 92.26
-7 2 2 1.24 3.32
-7 2 2 6.76 4.47
-7 2 -2 7.33 6.57
-7 -2 -2 7.26 5.74
-7 -2 2 -3.4 7.04
-7 -2 2 -2.38 8.06
-7 -2 -2 2.19 5.24
7 2 2 10.32 17.45
7 -2 2 -5 15.8
-7 3 2 153.06 21.55
-7 -3 -2 261.45 29.26
-7 3 2 215.16 22.87
-7 -3 2 165.52 34.03
-7 3 -2 292.65 30.63
-7 -3 -2 217.81 29.63
-7 -3 2 214.82 31.19
7 -3 2 231.65 44.65
7 3 2 191.29 41.51
7 3 2 200.7 58.65

_cod_database_fobs_code 2243691
