#------------------------------------------------------------------------------
#$Date: 2020-11-28 07:19:17 +0200 (Sat, 28 Nov 2020) $
#$Revision: 259272 $
#$URL: file:///home/coder/svn-repositories/cod/cif/2/24/36/2243689.cif $
#------------------------------------------------------------------------------
#
# This file is available in the Crystallography Open Database (COD),
# http://www.crystallography.net/. The original data for this entry
# were provided by IUCr Journals, http://journals.iucr.org/.
#
# The file may be used within the scientific community so long as
# proper attribution is given to the journal article from which the
# data were obtained.
#
data_2243689
loop_
_publ_author_name
'Chong, Saehwa'
'Perry, Samuel'
'Riley, Brian J.'
'Nelson, Zayne J.'
_publ_section_title
;
 Crystal structures and comparisons of potassium rare-earth molybdates
 K<i>RE</i>(MoO~4~)~2~ (<i>RE</i> = Tb, Dy, Ho, Er, Yb, and Lu)
;
_journal_coeditor_code           RU2071
_journal_issue                   12
_journal_name_full               'Acta Crystallographica Section E'
_journal_page_first              1871
_journal_page_last               1875
_journal_paper_doi               10.1107/S205698902001542X
_journal_volume                  76
_journal_year                    2020
_chemical_formula_iupac          'K Er (Mo O4)2'
_chemical_formula_moiety         'K Er Mo2 O8'
_chemical_formula_sum            'Er K Mo2 O8'
_chemical_formula_weight         526.24
_chemical_name_systematic
;
Potassium erbium bis(molybdate)
;
_space_group_IT_number           60
_space_group_name_Hall           '-P 2n 2ab'
_space_group_name_H-M_alt        'P b c n'
_symmetry_cell_setting           orthorhombic
_symmetry_space_group_name_Hall  '-P 2n 2ab'
_symmetry_space_group_name_H-M   'P b c n'
_atom_sites_solution_primary     dual
_cell_angle_alpha                90
_cell_angle_beta                 90
_cell_angle_gamma                90
_cell_formula_units_Z            4
_cell_length_a                   5.0602(2)
_cell_length_b                   18.1965(8)
_cell_length_c                   7.8920(3)
_cell_measurement_reflns_used    7328
_cell_measurement_temperature    100
_cell_measurement_theta_max      33.9890
_cell_measurement_theta_min      3.3830
_cell_volume                     726.68(5)
_computing_cell_refinement
;
CrysAlis Pro (Rigaku OD, 2019)
;
_computing_data_collection
;
CrysAlis Pro (Rigaku OD, 2019)
;
_computing_data_reduction
;
CrysAlis Pro (Rigaku OD, 2019)
;
_computing_molecular_graphics
;
<i>OLEX2</i> (Dolomanov <i>et al.</i>,  2009)
;
_computing_publication_material
;
publCIF (Westrip, 2010)
;
_computing_structure_refinement
;
SHELXL (Sheldrick, 2015b)
;
_computing_structure_solution
;
SHELXT (Sheldrick, 2015a)
;
_diffrn_ambient_temperature      100
_diffrn_detector_area_resol_mean 10.0000
_diffrn_measured_fraction_theta_full 1.000
_diffrn_measured_fraction_theta_max 0.938
_diffrn_measurement_device_type  'Rigaku XtaLAB Synergy-S, HyPix'
_diffrn_measurement_method       '\w scans'
_diffrn_radiation_monochromator  mirror
_diffrn_radiation_source         'micro-focus sealed X-ray tube'
_diffrn_radiation_type           'Mo K\a'
_diffrn_radiation_wavelength     0.71073
_diffrn_reflns_av_R_equivalents  0.0718
_diffrn_reflns_av_unetI/netI     0.0267
_diffrn_reflns_limit_h_max       7
_diffrn_reflns_limit_h_min       -7
_diffrn_reflns_limit_k_max       27
_diffrn_reflns_limit_k_min       -28
_diffrn_reflns_limit_l_max       10
_diffrn_reflns_limit_l_min       -12
_diffrn_reflns_number            21246
_diffrn_reflns_theta_full        25.242
_diffrn_reflns_theta_max         33.953
_diffrn_reflns_theta_min         2.238
_exptl_absorpt_coefficient_mu    15.418
_exptl_absorpt_correction_T_max  0.911
_exptl_absorpt_correction_T_min  0.091
_exptl_absorpt_correction_type   gaussian
_exptl_absorpt_process_details
;
(CrysAlisPro; Rigaku OD, 2019)
;
_exptl_crystal_colour            'light pink'
_exptl_crystal_density_diffrn    4.810
_exptl_crystal_description       plate
_exptl_crystal_F_000             940
_exptl_crystal_size_max          0.28
_exptl_crystal_size_mid          0.152
_exptl_crystal_size_min          0.021
_refine_diff_density_max         2.04
_refine_diff_density_min         -1.624
_refine_ls_extinction_method     none
_refine_ls_goodness_of_fit_all   1.061
_refine_ls_goodness_of_fit_ref   1.061
_refine_ls_hydrogen_treatment    undef
_refine_ls_matrix_type           full
_refine_ls_number_constraints    0
_refine_ls_number_parameters     56
_refine_ls_number_reflns         1386
_refine_ls_number_restraints     0
_refine_ls_R_factor_all          0.0300
_refine_ls_R_factor_gt           0.0265
_refine_ls_shift/su_max          0.002
_refine_ls_shift/su_mean         0.000
_refine_ls_structure_factor_coef Fsqd
_refine_ls_weighting_details
'w=1/[\s^2^(Fo^2^)+(0.0345P)^2^+4.1539P] where P=(Fo^2^+2Fc^2^)/3'
_refine_ls_weighting_scheme      calc
_refine_ls_wR_factor_all         0.0709
_refine_ls_wR_factor_ref         0.0727
_reflns_number_gt                1255
_reflns_number_total             1386
_reflns_threshold_expression     'I > 2\s(I)'
_iucr_refine_instructions_details
;
TITL kermo2o8_a.res in Pbcn
 kermo2o8.res created by SHELXL-2016/4 at 14:10:32 on 22-Sep-2020
REM Old TITL KErMo2O8 in Pbcn
REM SHELXT solution in Pbcn
REM R1 0.044, Rweak 0.000, Alpha 0.013, Orientation a'=-a, b'=c, c'=b
REM Formula found by SHELXT: O8 K Mo2 Er
CELL 0.71073 5.0602 18.1965 7.892 90 90 90
ZERR 4 0.0002 0.0008 0.0003 0 0 0
LATT 1
SYMM 0.5-X,0.5-Y,0.5+Z
SYMM -X,+Y,0.5-Z
SYMM 0.5+X,0.5-Y,-Z
SFAC Er K Mo O
UNIT 4 4 8 32
L.S. 20
PLAN  20
SIZE 0.021 0.152 0.28
LIST 4
fmap 2
acta
REM <olex2.extras>
REM <HklSrc "%.\\KErMo2O8.hkl">
REM </olex2.extras>
WGHT    0.034500    4.153900
FVAR       0.18257
Er1   1    1.000000    0.505348    0.750000    10.50000    0.00367    0.00995 =
         0.00443    0.00000   -0.00030    0.00000
Mo1   3    0.520259    0.398591    0.515167    11.00000    0.00374    0.00961 =
         0.00575   -0.00032   -0.00044    0.00027
K1    2    0.500000    0.228210    0.250000    10.50000    0.01122    0.01237 =
         0.00846    0.00000   -0.00071    0.00000
O4    4    0.390311    0.311107    0.521267    11.00000    0.00792    0.01268 =
         0.01005   -0.00033    0.00093   -0.00293
O2    4    0.249694    0.466186    0.495438    11.00000    0.00524    0.01309 =
         0.00672   -0.00055   -0.00078    0.00073
O1    4    0.741732    0.405806    0.691446    11.00000    0.00768    0.01424 =
         0.00801   -0.00038   -0.00187   -0.00142
O3    4    0.731469    0.399697    0.336911    11.00000    0.00683    0.01534 =
         0.00740   -0.00031    0.00061   -0.00140
HKLF 4
REM  kermo2o8_a.res in Pbcn
REM R1 =  0.0265 for    1255 Fo > 4sig(Fo)  and  0.0300 for all    1386 data
REM     56 parameters refined using      0 restraints
END
WGHT      0.0345      4.1538
REM Highest difference peak  2.032,  deepest hole -1.610,  1-sigma level  0.333
Q1    1   1.0000  0.4615  0.7500  10.50000  0.05    2.03
Q2    1   1.0000  0.5462  0.7500  10.50000  0.05    1.75
Q3    1   1.1297  0.5034  0.7453  11.00000  0.05    1.31
Q4    1   0.5106  0.3316  0.5390  11.00000  0.05    1.20
Q5    1   0.5124  0.4814  0.5918  11.00000  0.05    1.11
Q6    1   1.0005  0.3740  0.6620  11.00000  0.05    1.10
Q7    1   0.5477  0.4443  0.5208  11.00000  0.05    1.06
Q8    1   0.5204  0.2611  0.6057  11.00000  0.05    1.05
Q9    1   0.3700  0.3568  0.5511  11.00000  0.05    1.04
Q10   1   1.0030  0.4217  0.6786  11.00000  0.05    1.02
Q11   1   0.7297  0.4397  0.6999  11.00000  0.05    1.02
Q12   1   0.8918  0.5419  0.7038  11.00000  0.05    1.01
Q13   1   0.8489  0.5460  0.7993  11.00000  0.05    0.99
Q14   1   0.7870  0.3819  0.3193  11.00000  0.05    0.99
Q15   1   0.4645  0.3368  0.3974  11.00000  0.05    0.99
Q16   1   0.5131  0.4080  0.3441  11.00000  0.05    0.97
Q17   1   0.4956  0.2740  0.2866  11.00000  0.05    0.94
Q18   1   0.7607  0.4306  0.3390  11.00000  0.05    0.93
Q19   1   0.4656  0.2775  0.3934  11.00000  0.05    0.90
Q20   1   0.1796  0.4716  0.5748  11.00000  0.05    0.90
  REM The information below was added by Olex2.
  REM
  REM R1 = 0.0265 for 1255 Fo > 4sig(Fo) and 0.0300 for all 23668 data
  REM n/a parameters refined using n/a restraints
  REM Highest difference peak 2.03, deepest hole -1.61
  REM Mean Shift 0, Max Shift 0.002.
  REM +++ Tabular Listing of Refinement Information +++
  REM R1_all = 0.0300
  REM R1_gt = 0.0265
  REM wR_ref = 0.0727
  REM GOOF = 1.061
  REM Shift_max = 0.002
  REM Shift_mean = 0
  REM Reflections_all = 23668
  REM Reflections_gt = 1255
  REM Parameters = n/a
  REM Hole = -1.61
  REM Peak = 2.03
  REM Flack = n/a
;
_cod_data_source_file            ru2071sup1.cif
_cod_data_source_block           Er_Molybdate
_cod_original_formula_sum        'K Er Mo2 O8'
_cod_database_code               2243689
_shelx_res_checksum              6451
loop_
_space_group_symop_operation_xyz
'x, y, z'
'-x+1/2, -y+1/2, z+1/2'
'-x, y, -z+1/2'
'x+1/2, -y+1/2, -z'
'-x, -y, -z'
'x-1/2, y-1/2, -z-1/2'
'x, -y, z-1/2'
'-x-1/2, y-1/2, z'
loop_
_atom_site_type_symbol
_atom_site_label
_atom_site_fract_x
_atom_site_fract_y
_atom_site_fract_z
_atom_site_U_iso_or_equiv
_atom_site_adp_type
_atom_site_calc_flag
_atom_site_occupancy
_atom_site_disorder_assembly
_atom_site_disorder_group
Er Er1 1.000000 0.50535(2) 0.750000 0.00602(9) Uani d 1 . .
Mo Mo1 0.52026(6) 0.39859(2) 0.51517(4) 0.00637(9) Uani d 1 . .
K K1 0.500000 0.22821(7) 0.250000 0.0107(2) Uani d 1 . .
O O4 0.3903(5) 0.31111(15) 0.5213(3) 0.0102(5) Uani d 1 . .
O O2 0.2497(5) 0.46619(15) 0.4954(3) 0.0084(5) Uani d 1 . .
O O1 0.7417(5) 0.40581(14) 0.6914(3) 0.0100(4) Uani d 1 . .
O O3 0.7315(5) 0.39970(14) 0.3369(3) 0.0099(5) Uani d 1 . .
loop_
_atom_site_aniso_label
_atom_site_aniso_U_11
_atom_site_aniso_U_22
_atom_site_aniso_U_33
_atom_site_aniso_U_12
_atom_site_aniso_U_13
_atom_site_aniso_U_23
Er1 0.00367(12) 0.00995(13) 0.00443(13) 0.000 -0.00030(6) 0.000
Mo1 0.00374(14) 0.00961(16) 0.00575(15) 0.00027(9) -0.00044(8) -0.00032(9)
K1 0.0112(5) 0.0124(5) 0.0085(5) 0.000 -0.0007(3) 0.000
O4 0.0079(11) 0.0127(12) 0.0100(11) -0.0029(9) 0.0009(9) -0.0003(9)
O2 0.0052(10) 0.0131(12) 0.0067(10) 0.0007(9) -0.0008(8) -0.0006(8)
O1 0.0077(10) 0.0142(12) 0.0080(10) -0.0014(9) -0.0019(9) -0.0004(9)
O3 0.0068(10) 0.0153(12) 0.0074(10) -0.0014(9) 0.0006(8) -0.0003(8)
loop_
_atom_type_symbol
_atom_type_description
_atom_type_scat_dispersion_real
_atom_type_scat_dispersion_imag
_atom_type_scat_source
O O 0.0106 0.0060 'International Tables Vol C Tables 4.2.6.8 and 6.1.1.4'
K K 0.2009 0.2494 'International Tables Vol C Tables 4.2.6.8 and 6.1.1.4'
Mo Mo -1.6832 0.6857 'International Tables Vol C Tables 4.2.6.8 and 6.1.1.4'
Er Er -0.2586 4.9576 'International Tables Vol C Tables 4.2.6.8 and 6.1.1.4'
loop_
_diffrn_standard_refln_index_h
_diffrn_standard_refln_index_k
_diffrn_standard_refln_index_l
? ? ?
loop_
_geom_angle_atom_site_label_1
_geom_angle_atom_site_label_2
_geom_angle_atom_site_label_3
_geom_angle_site_symmetry_1
_geom_angle_site_symmetry_3
_geom_angle
_geom_angle_publ_flag
Er1 Er1 Er1 5_766 5_767 174.354(13) ?
Er1 Er1 K1 5_766 2_655 87.177(7) ?
Er1 Er1 K1 5_767 2_655 87.177(7) ?
O2 Er1 Er1 5_666 5_767 145.80(6) ?
O2 Er1 Er1 7_666 5_767 36.34(6) ?
O2 Er1 Er1 3_656 5_767 34.52(6) ?
O2 Er1 Er1 1_655 5_767 142.71(6) ?
O2 Er1 Er1 5_666 5_766 36.34(6) ?
O2 Er1 Er1 7_666 5_766 145.80(6) ?
O2 Er1 Er1 3_656 5_766 142.71(6) ?
O2 Er1 Er1 1_655 5_766 34.52(6) ?
O2 Er1 K1 3_656 2_655 73.29(6) ?
O2 Er1 K1 1_655 2_655 73.29(6) ?
O2 Er1 K1 7_666 2_655 102.63(6) ?
O2 Er1 K1 5_666 2_655 102.63(6) ?
O2 Er1 O2 1_655 3_656 146.57(12) ?
O2 Er1 O2 5_666 3_656 116.98(11) ?
O2 Er1 O2 5_666 1_655 70.86(10) ?
O2 Er1 O2 7_666 3_656 70.86(10) ?
O2 Er1 O2 7_666 1_655 116.98(11) ?
O2 Er1 O2 7_666 5_666 154.75(13) ?
O1 Er1 Er1 . 5_767 99.40(6) ?
O1 Er1 Er1 3_756 5_767 76.03(6) ?
O1 Er1 Er1 . 5_766 76.03(6) ?
O1 Er1 Er1 3_756 5_766 99.39(6) ?
O1 Er1 K1 3_756 2_655 37.43(6) ?
O1 Er1 K1 . 2_655 37.43(6) ?
O1 Er1 O2 3_756 5_666 130.14(9) ?
O1 Er1 O2 . 3_656 69.13(8) ?
O1 Er1 O2 3_756 1_655 69.13(8) ?
O1 Er1 O2 3_756 3_656 84.23(9) ?
O1 Er1 O2 . 5_666 72.69(9) ?
O1 Er1 O2 . 1_655 84.23(9) ?
O1 Er1 O2 3_756 7_666 72.70(9) ?
O1 Er1 O2 . 7_666 130.14(9) ?
O1 Er1 O1 . 3_756 74.85(13) ?
O1 Er1 O3 3_756 7_566 150.89(9) ?
O1 Er1 O3 3_756 5_766 108.55(10) ?
O1 Er1 O3 . 7_566 108.55(10) ?
O1 Er1 O3 . 5_766 150.89(9) ?
O3 Er1 Er1 7_566 5_767 74.90(6) ?
O3 Er1 Er1 7_566 5_766 109.54(6) ?
O3 Er1 Er1 5_766 5_766 74.90(6) ?
O3 Er1 Er1 5_766 5_767 109.54(6) ?
O3 Er1 K1 5_766 2_655 138.62(6) ?
O3 Er1 K1 7_566 2_655 138.62(6) ?
O3 Er1 O2 7_566 1_655 139.31(8) ?
O3 Er1 O2 7_566 5_666 76.40(8) ?
O3 Er1 O2 5_766 1_655 70.94(9) ?
O3 Er1 O2 5_766 7_666 76.40(8) ?
O3 Er1 O2 7_566 7_666 84.67(9) ?
O3 Er1 O2 7_566 3_656 70.94(9) ?
O3 Er1 O2 5_766 5_666 84.67(9) ?
O3 Er1 O2 5_766 3_656 139.31(8) ?
O3 Er1 O3 5_766 7_566 82.76(13) ?
K1 Mo1 K1 . 2_655 77.802(9) ?
K1 Mo1 K1 . 2 76.162(9) ?
K1 Mo1 K1 2_655 2 81.02(2) ?
O4 Mo1 K1 . 2 36.40(9) ?
O4 Mo1 K1 . . 40.51(8) ?
O4 Mo1 K1 . 2_655 70.83(9) ?
O4 Mo1 O2 . . 109.56(12) ?
O4 Mo1 O1 . . 106.55(12) ?
O4 Mo1 O3 . . 105.29(12) ?
O2 Mo1 K1 . 2 86.26(8) ?
O2 Mo1 K1 . 2_655 155.83(7) ?
O2 Mo1 K1 . . 118.97(8) ?
O1 Mo1 K1 . 2_655 43.23(8) ?
O1 Mo1 K1 . . 120.81(8) ?
O1 Mo1 K1 . 2 95.46(8) ?
O1 Mo1 O2 . . 118.71(11) ?
O3 Mo1 K1 . 2_655 90.50(8) ?
O3 Mo1 K1 . 2 141.37(9) ?
O3 Mo1 K1 . . 65.21(8) ?
O3 Mo1 O2 . . 111.94(11) ?
O3 Mo1 O1 . . 103.83(12) ?
Mo1 K1 Mo1 3_655 4_456 138.837(12) ?
Mo1 K1 Mo1 3_655 . 68.10(2) ?
Mo1 K1 Mo1 3_655 2_654 104.243(10) ?
Mo1 K1 Mo1 . 4_456 104.243(10) ?
Mo1 K1 Mo1 4_456 2_654 105.86(3) ?
Mo1 K1 Mo1 . 2_654 138.837(12) ?
O4 K1 Mo1 2_554 . 126.73(6) ?
O4 K1 Mo1 . . 24.71(6) ?
O4 K1 Mo1 4_556 2_654 73.00(5) ?
O4 K1 Mo1 3_655 3_655 24.71(6) ?
O4 K1 Mo1 3_655 2_654 79.69(6) ?
O4 K1 Mo1 2_554 3_655 80.21(6) ?
O4 K1 Mo1 4_556 3_655 126.73(6) ?
O4 K1 Mo1 . 4_456 79.69(6) ?
O4 K1 Mo1 . 2_654 149.13(6) ?
O4 K1 Mo1 3_655 4_456 149.13(6) ?
O4 K1 Mo1 2_554 2_654 88.91(6) ?
O4 K1 Mo1 2_554 4_456 73.00(5) ?
O4 K1 Mo1 . 3_655 88.55(6) ?
O4 K1 Mo1 4_556 4_456 88.91(6) ?
O4 K1 Mo1 3_655 . 88.55(6) ?
O4 K1 Mo1 4_556 . 80.21(6) ?
O4 K1 O4 3_655 2_554 76.83(6) ?
O4 K1 O4 . 2_554 121.26(4) ?
O4 K1 O4 2_554 4_556 150.06(12) ?
O4 K1 O4 . 4_556 76.83(6) ?
O4 K1 O4 3_655 4_556 121.26(4) ?
O4 K1 O4 . 3_655 111.41(12) ?
O4 K1 O1 3_655 2_654 105.16(8) ?
O4 K1 O1 . 2_654 135.91(8) ?
O4 K1 O1 . 4_456 105.16(8) ?
O4 K1 O1 4_556 4_456 90.02(8) ?
O4 K1 O1 4_556 2_654 63.29(8) ?
O4 K1 O1 3_655 4_456 135.91(8) ?
O4 K1 O1 2_554 4_456 63.29(8) ?
O4 K1 O1 2_554 2_654 90.02(8) ?
O4 K1 O3 2_554 . 127.86(8) ?
O4 K1 O3 2_554 3_655 81.96(7) ?
O4 K1 O3 3_655 . 64.73(7) ?
O4 K1 O3 4_556 . 81.96(7) ?
O4 K1 O3 4_556 3_655 127.86(8) ?
O4 K1 O3 . 3_655 64.73(7) ?
O4 K1 O3 . . 52.66(7) ?
O4 K1 O3 3_655 3_655 52.66(7) ?
O1 K1 Mo1 4_456 3_655 143.10(5) ?
O1 K1 Mo1 4_456 2_654 81.44(6) ?
O1 K1 Mo1 2_654 . 143.10(5) ?
O1 K1 Mo1 2_654 3_655 129.86(5) ?
O1 K1 Mo1 4_456 . 129.86(5) ?
O1 K1 Mo1 4_456 4_456 25.94(5) ?
O1 K1 Mo1 2_654 4_456 81.44(6) ?
O1 K1 Mo1 2_654 2_654 25.94(5) ?
O1 K1 O1 4_456 2_654 59.23(10) ?
O1 K1 O3 4_456 3_655 132.07(6) ?
O1 K1 O3 2_654 . 132.07(6) ?
O1 K1 O3 2_654 3_655 157.57(7) ?
O1 K1 O3 4_456 . 157.57(7) ?
O3 K1 Mo1 . 4_456 132.33(4) ?
O3 K1 Mo1 . 3_655 50.39(4) ?
O3 K1 Mo1 3_655 2_654 132.33(4) ?
O3 K1 Mo1 3_655 4_456 115.60(4) ?
O3 K1 Mo1 3_655 3_655 28.12(4) ?
O3 K1 Mo1 . 2_654 115.60(4) ?
O3 K1 Mo1 3_655 . 50.39(4) ?
O3 K1 Mo1 . . 28.12(4) ?
O3 K1 O3 . 3_655 47.02(9) ?
Mo1 O4 K1 . 2 121.94(12) ?
Mo1 O4 K1 . . 114.78(12) ?
K1 O4 K1 . 2 121.57(10) ?
Er1 O2 Er1 5_666 1_455 109.14(10) ?
Mo1 O2 Er1 . 1_455 120.07(10) ?
Mo1 O2 Er1 . 5_666 127.56(11) ?
Er1 O1 K1 . 2_655 112.96(10) ?
Mo1 O1 Er1 . . 125.03(13) ?
Mo1 O1 K1 . 2_655 110.84(11) ?
Er1 O3 K1 5_766 . 146.22(10) ?
Mo1 O3 Er1 . 5_766 127.06(13) ?
Mo1 O3 K1 . . 86.67(9) ?
loop_
_geom_bond_atom_site_label_1
_geom_bond_atom_site_label_2
_geom_bond_site_symmetry_2
_geom_bond_distance
_geom_bond_publ_flag
Er1 Er1 5_767 3.95079(16) ?
Er1 Er1 5_766 3.95079(15) ?
Er1 K1 2_655 4.2499(13) ?
Er1 O2 5_666 2.370(2) ?
Er1 O2 7_666 2.370(2) ?
Er1 O2 3_656 2.478(2) ?
Er1 O2 1_655 2.478(2) ?
Er1 O1 3_756 2.281(2) ?
Er1 O1 . 2.281(3) ?
Er1 O3 7_566 2.303(3) ?
Er1 O3 5_766 2.303(3) ?
Mo1 K1 . 3.7419(10) ?
Mo1 K1 2 3.9610(8) ?
Mo1 K1 2_655 3.8278(8) ?
Mo1 O4 . 1.723(3) ?
Mo1 O2 . 1.847(3) ?
Mo1 O1 . 1.791(2) ?
Mo1 O3 . 1.767(2) ?
K1 Mo1 2_654 3.8277(8) ?
K1 Mo1 3_655 3.7419(10) ?
K1 Mo1 4_456 3.8277(8) ?
K1 O4 . 2.677(3) ?
K1 O4 4_556 2.770(3) ?
K1 O4 3_655 2.677(3) ?
K1 O4 2_554 2.770(3) ?
K1 O1 4_456 2.805(3) ?
K1 O1 2_654 2.805(3) ?
K1 O3 . 3.403(3) ?
K1 O3 3_655 3.403(3) ?
O4 K1 2 2.770(3) ?
O2 Er1 1_455 2.478(2) ?
O2 Er1 5_666 2.370(2) ?
O1 K1 2_655 2.805(3) ?
O3 Er1 5_766 2.303(3) ?
loop_
_refln_index_h
_refln_index_k
_refln_index_l
_refln_F_squared_meas
_refln_F_squared_sigma
0 -2 0 3146 170.15
0 2 0 3367.09 170.36
0 3 0 0.21 0.77
0 -3 0 -0.2 0.79
0 -3 0 0.2 0.9
0 3 0 0.4 0.74
0 3 0 -0.44 0.72
0 4 0 18.62 2.59
0 -4 0 16.93 2.58
0 -4 0 23.22 2.74
0 5 0 0.25 0.83
0 -5 0 0.47 0.84
0 -5 0 -0.25 0.81
0 5 0 -0.28 0.88
0 6 0 129.23 8.81
0 -6 0 107.95 8.26
0 -6 0 127.6 8.69
0 6 0 108.17 8.71
0 7 0 1.13 0.96
0 -7 0 0.28 0.78
0 -7 0 -0.26 0.65
0 -7 0 0.28 0.69
0 7 0 0.65 0.82
0 -8 0 2895.6 146.54
0 8 0 2783.71 146.51
0 -8 0 2707.69 146.21
0 -8 0 2684.53 146.36
0 8 0 2757.03 147.01
0 9 0 -0.3 0.99
0 -9 0 0.61 0.99
0 9 0 -0.28 0.83
0 -9 0 -0.6 0.92
0 -9 0 1.13 1.27
0 9 0 0.36 0.91
0 -10 0 6997.5 360.48
0 10 0 7099.57 360.55
0 10 0 6812.26 360.13
0 -10 0 6716.84 360.11
0 -10 0 6794.29 360.33
0 10 0 6928.99 361.18
0 -11 0 -0.31 1.3
0 -11 0 -0.99 1.13
0 11 0 -0.33 0.89
0 11 0 0.93 0.96
0 -11 0 0.32 0.88
0 11 0 -0.4 0.91
0 -12 0 1424.71 73.9
0 12 0 1382.26 73.82
0 12 0 1313.72 73.44
0 -12 0 1321.92 73.59
0 -12 0 1376.29 73.5
0 -12 0 1311.21 73.01
0 12 0 1346.92 74.6
0 -13 0 0.99 0.96
0 13 0 0.36 0.83
0 -13 0 0.36 0.9
0 -13 0 -0.35 0.72
0 13 0 1 1.03
0 13 0 1.75 1.28
0 -13 0 -0.59 1.09
0 -14 0 107.33 8.9
0 14 0 131.41 9.47
0 14 0 107.92 8.83
0 -14 0 112.1 8.84
0 -14 0 113.87 9.04
0 -14 0 107.87 8.36
0 14 0 104.04 9.52
0 15 0 -1.19 1
0 -15 0 0.39 0.9
0 -15 0 0.37 0.93
0 -15 0 0.39 0.98
0 15 0 0.72 1.04
0 15 0 -0.49 1.34
0 -15 0 0.31 0.94
0 -16 0 48.14 5.24
0 16 0 38.56 4.71
0 -16 0 37.2 4.62
0 -16 0 37.5 4.22
0 16 0 44.77 5.72
0 -17 0 -0.8 2.01
0 -17 0 2.52 1.37
0 17 0 -0.46 1.17
0 -17 0 0.62 0.85
0 17 0 3.29 1.96
0 -18 0 986.81 51.66
0 18 0 803.73 51.62
0 18 0 919.33 53.09
0 -18 0 906.93 50.13
0 -19 0 0.45 1.84
0 19 0 -0.48 1.72
0 -19 0 -0.93 1.43
0 19 0 1.24 2.01
0 -20 0 1550.9 78.1
0 20 0 1532.64 80.4
0 -20 0 1516.37 76.3
0 -21 0 -1.42 2.28
0 21 0 0.49 1.67
0 -21 0 -0.6 1.56
0 21 0 -3.39 2.31
0 -22 0 595.81 31.49
0 22 0 560.5 33.5
0 -22 0 569.47 29.23
0 -23 0 1.48 1.25
0 23 0 0.47 1.62
0 23 0 0.74 1.86
0 -23 0 -0.28 1.34
0 -24 0 123.95 10.68
0 24 0 117.81 12.29
0 -25 0 1.54 1.4
0 25 0 1.6 2.02
0 -26 0 3.67 2.1
0 26 0 4.16 2.58
0 -27 0 2.65 1.89
0 0 -1 0.16 0.22
0 0 -1 -0.56 1.91
0 0 1 0.27 0.42
0 0 1 -0.81 2.2
0 0 -1 0.05 0.15
0 0 -1 0.65 2.12
0 -1 1 0.42 0.36
0 1 -1 -0.57 1.93
0 1 -1 0.08 0.23
0 -1 -1 1.41 1.37
0 -1 1 0.08 0.26
0 1 -1 0.08 0.23
0 -1 1 -0.07 0.27
0 1 -1 0.21 0.22
0 -1 -1 0.57 0.23
0 1 1 1.44 2.22
0 -1 -1 2.6 2.5
0 -1 -1 -0.42 1.37
0 1 1 0.15 0.46
0 1 -1 0.74 2.41
0 -1 -1 0.28 0.45
0 -1 1 0.69 2.45
0 1 -1 -1.66 1.76
0 -1 1 1.11 1.71
0 -1 -1 2.67 2.13
0 1 -1 -0.53 1.72
0 1 -1 0.08 0.23
0 -1 -1 0.11 0.21
0 1 1 -0.56 1.62
0 -1 1 -0.08 0.23
0 -2 1 43.03 3.25
0 2 -1 46.43 3.27
0 -2 1 45.51 3.21
0 2 -1 46.2 3.19
0 -2 1 47.48 3.3
0 -2 -1 45.07 4.76
0 -2 -1 47.53 3.12
0 -2 -1 60.01 6.67
0 2 -1 59.86 5.53
0 -2 1 44.35 6.12
0 -2 -1 53.77 3.92
0 2 -1 57.5 5.95
0 2 1 54.45 5.95
0 -2 -1 54.07 5.63
0 -2 -1 42.25 3.06
0 -2 1 49.76 3.43
0 3 -1 0.91 0.42
0 -3 -1 -0.7 1.2
0 -3 1 0.22 0.38
0 -3 -1 0.31 0.45
0 3 1 0.42 0.44
0 -3 1 0.5 0.61
0 -3 -1 -0.69 1.38
0 3 -1 0.12 0.43
0 -3 1 -0.52 1.93
0 3 -1 -0.32 1.43
0 -3 -1 -0.95 1.77
0 -3 -1 0.93 0.69
0 3 -1 -0.38 1.52
0 3 1 0.68 0.49
0 -3 -1 0.4 0.42
0 3 1 0.42 1.67
0 4 -1 89.66 6.11
0 -4 1 91.02 6.06
0 4 -1 82.12 5.95
0 -4 1 91.66 6.34
0 -4 -1 102.46 8.01
0 4 1 93.22 6.19
0 -4 -1 98.62 6.19
0 -4 1 92.42 5.47
0 -4 -1 84.21 7.9
0 -4 1 97.08 8.59
0 4 -1 86.38 7.13
0 4 1 93.52 6.28
0 4 1 104.69 8.14
0 -4 -1 87.35 7.29
0 4 -1 88.6 7.46
0 -4 -1 82 5.95
0 -5 -1 0.1 0.35
0 -5 1 -0.37 0.64
0 -5 -1 0.28 1.07
0 5 -1 0.17 0.39
0 5 -1 1 1.28
0 5 -1 0.2 0.59
0 -5 -1 1.45 1.12
0 -5 -1 4.95 1.14
0 -5 1 0.22 0.73
0 -5 1 -0.53 0.53
0 5 1 1.25 0.94
0 -5 1 0.42 1.55
0 -5 -1 0.74 1.27
0 5 1 1.18 1.29
0 -5 -1 0.23 0.95
0 5 -1 0.43 1.33
0 5 -1 -0.26 1.07
0 5 1 0.33 1.09
0 -5 -1 0.9 1.11
0 -5 -1 0.2 0.6
0 -5 1 -0.32 1.3
0 5 1 0.23 0.57
0 5 -1 -0.57 1.02
0 6 -1 2.96 0.96
0 -6 1 9.12 1.73
0 -6 -1 2.54 0.84
0 6 -1 5.07 1.47
0 6 -1 8.06 1.9
0 -6 -1 3.96 1.36
0 -6 1 2.15 0.9
0 -6 -1 4.51 1.31
0 6 1 3.37 1.37
0 -6 1 4.89 1.43
0 6 -1 4.69 1.77
0 6 -1 2.63 1.25
0 6 1 2.31 1.52
0 -6 -1 3.33 1.66
0 -6 -1 4.52 1.28
0 -6 -1 5.72 1.38
0 -6 -1 6.21 1.7
0 6 -1 4.86 1.36
0 -6 1 3.09 0.57
0 6 1 6.98 1.72
0 7 -1 1.21 0.88
0 -7 -1 1.08 0.77
0 7 -1 0.27 0.87
0 -7 1 0.32 0.81
0 7 1 0.72 1.23
0 -7 1 -0.44 0.78
0 -7 1 0.36 1.05
0 -7 -1 1.84 1
0 7 -1 0.44 0.94
0 -7 -1 0.35 0.71
0 7 -1 -2.48 0.89
0 7 1 1.15 1.33
0 7 1 0.4 1.09
0 -7 -1 1.45 0.96
0 7 -1 1.12 0.9
0 -7 -1 1.07 0.93
0 -7 1 0.77 0.48
0 -8 1 379.21 26.45
0 -8 1 526.85 27.36
0 -8 -1 455.4 25.84
0 8 1 356.62 26.41
0 8 -1 419.32 26.11
0 -8 1 494.85 25.27
0 8 1 272.58 26.4
0 8 -1 480.81 24.79
0 -8 -1 533.93 24.34
0 8 -1 538.74 25.58
0 8 1 367.38 26.86
0 -8 1 354.52 23.9
0 -9 1 1.49 1.25
0 -9 -1 -0.35 1.01
0 -9 1 0.42 1.14
0 -9 1 -0.25 0.63
0 9 -1 0.35 1.01
0 9 1 0.42 1.23
0 9 -1 0.16 0.63
0 9 1 -0.57 1.3
0 -9 1 0.37 0.69
0 9 1 -0.51 1.18
0 9 -1 0.61 0.7
0 -10 1 43.2 5.04
0 -10 1 33.63 4.76
0 -10 -1 36.04 4.31
0 -10 -1 44.86 4.93
0 10 -1 37.43 4.47
0 10 1 45.38 5.11
0 -10 1 41.49 4.07
0 10 1 25.12 4.77
0 10 1 44.7 5.58
0 -10 1 40.7 3.6
0 10 -1 37.76 4.77
0 -11 1 0.45 1.15
0 -11 -1 0.39 0.56
0 -11 -1 -0.32 0.86
0 -11 -1 0.4 0.82
0 11 -1 1.02 0.93
0 11 1 -0.83 1.2
0 -11 1 0.28 0.77
0 11 1 0.54 0.96
0 11 1 -0.5 1.27
0 11 -1 0.42 1.07
0 -11 1 0.39 0.6
0 12 1 293.21 18.25
0 -12 -1 292.41 18.11
0 12 -1 257.04 17.16
0 -12 1 290.07 16.98
0 -12 1 258.92 17.72
0 -12 -1 273.83 17.01
0 -12 1 264.45 18.12
0 -12 -1 256.07 17.46
0 12 -1 269.37 17.79
0 -12 1 260.38 15.83
0 12 1 256.49 18.74
0 12 -1 246.46 17.85
0 -13 -1 0.94 1.12
0 13 -1 0.4 1.02
0 -13 -1 3.73 1.27
0 -13 1 -0.44 0.79
0 -13 1 2.48 1.28
0 -13 -1 -0.42 0.86
0 13 1 0.42 1.14
0 -13 1 0.31 0.85
0 13 -1 0.35 0.88
0 13 1 0.54 0.78
0 13 1 0.53 0.94
0 13 -1 2.68 1.38
0 -13 1 0.2 0.55
0 -14 1 30.1 4.29
0 -14 -1 26.12 3.5
0 -14 1 28.6 4.07
0 14 -1 27.58 3.94
0 -14 -1 31.37 3.98
0 -14 -1 28.48 4.07
0 14 1 33.53 4.35
0 -14 1 27.01 3.5
0 14 -1 24.83 3.6
0 14 1 26.15 4.58
0 -14 -1 26.89 3.82
0 14 1 29.75 4.62
0 14 -1 28.01 4.24
0 -14 1 27.82 2.96
0 -15 1 -0.46 1.24
0 15 -1 -0.41 1.04
0 -15 -1 -0.38 0.96
0 -15 -1 0.45 1.03
0 -15 -1 0.33 0.84
0 -15 1 0.86 1.47
0 15 -1 0.37 0.86
0 -15 1 -0.34 0.78
0 15 1 0.55 1.14
0 -15 -1 0.41 0.93
0 15 -1 0.47 0.98
0 -15 1 0.42 0.61
0 15 1 1.13 1.17
0 -16 -1 308.53 19.5
0 16 -1 292.84 20.2
0 -16 1 331.58 20.63
0 -16 1 329.64 19.73
0 -16 -1 336.26 20.87
0 16 1 282.61 20.94
0 -16 -1 296.63 19.94
0 -16 1 301.03 18.19
0 16 1 344.03 22.41
0 16 -1 314.32 20.99
0 17 -1 1.29 1.33
0 -17 -1 1.91 1.2
0 -17 -1 -0.72 1.61
0 17 1 0.57 1.16
0 17 -1 0.52 1.41
0 17 1 3.06 1.99
0 -17 -1 -0.41 0.95
0 -17 1 0.21 0.74
0 18 -1 148.11 11.83
0 -18 -1 167.38 12.56
0 -18 1 147.33 11.32
0 18 1 123.82 12.12
0 -18 -1 145.72 11.61
0 -18 1 168.37 10.15
0 18 -1 159.99 12.9
0 18 1 181.89 14.14
0 19 -1 0.9 1.46
0 -19 1 -0.78 0.98
0 -19 -1 -0.51 1.16
0 19 1 -0.59 1.48
0 19 1 1.32 1.67
0 19 -1 0.57 1.32
0 -19 -1 1.25 1.21
0 20 -1 247.79 17.36
0 -20 1 287.07 17.28
0 -20 -1 276.17 18.27
0 20 1 292.08 20.15
0 20 -1 267.79 18.92
0 -20 -1 247.43 16.93
0 -21 -1 -1.59 1.54
0 -21 1 0.41 1.34
0 21 1 0.59 1.61
0 21 -1 2.05 1.4
0 21 -1 -0.64 1.48
0 21 1 0.72 1.66
0 -21 -1 1.23 1.2
0 -22 1 119.62 9.26
0 -22 -1 133.05 10.45
0 -22 -1 116.95 9.02
0 22 1 124.46 11.76
0 22 -1 131.32 11.43
0 -23 1 1.74 1.18
0 -23 -1 -0.56 1.28
0 23 -1 0.39 1.26
0 23 1 1.15 1.46
0 -23 -1 0.4 1.23
0 23 1 -0.78 2.11
0 23 -1 5.71 2.44
0 -24 1 104.18 8.67
0 -24 -1 108.42 9.56
0 24 1 120.35 11.45
0 -24 -1 99.65 7.98
0 24 -1 125.55 11.43
0 -25 -1 2.29 1.87
0 -25 1 1.82 1.75
0 25 -1 -0.77 1.95
0 25 1 -0.84 2.28
0 -26 1 135.09 12.03
0 -26 -1 159.44 13.34
0 26 -1 160.26 14.75
0 -27 -1 0.59 1.93
0 -28 -1 102.09 10.77
0 0 -2 12.08 4.55
0 0 -2 9.71 1.44
0 0 -2 4.97 2.19
0 0 -2 10.27 1.21
0 0 -2 14.02 2.09
0 0 2 3.18 4.04
0 0 -2 6.88 3.95
0 0 -2 3.07 4.5
0 0 -2 5.09 3.74
0 0 2 3.97 3.64
0 0 -2 10.57 1.22
0 1 -2 -0.17 0.39
0 1 -2 0.16 0.4
0 -1 -2 0.16 0.51
0 -1 -2 1.85 2.86
0 1 -2 3.37 3.83
0 1 -2 -0.13 0.36
0 -1 -2 -0.47 1.37
0 -1 -2 0.1 0.34
0 1 -2 -0.25 0.93
0 -1 -2 -0.83 2.7
0 1 2 0.29 0.67
0 -1 2 4.07 3.7
0 -1 -2 0.26 0.65
0 1 -2 2.48 2.69
0 1 2 2.8 2.89
0 1 -2 0.17 0.31
0 1 -2 -1.47 4.79
0 -1 -2 -1.28 3.49
0 -1 -2 -0.09 0.39
0 -1 -2 -1.05 3.42
0 1 -2 0.3 0.44
0 -1 2 2.21 3.01
0 1 -2 1.04 3.03
0 1 2 2.22 3.23
0 2 -2 460.37 25.41
0 2 -2 440.28 25.19
0 2 -2 435.73 25.23
0 2 -2 468.99 25.56
0 -2 -2 442.97 24.81
0 -2 -2 469.88 28.46
0 -2 2 448.95 24.66
0 2 2 559.15 27.86
0 -2 -2 491.63 26.73
0 -2 -2 500.68 34.33
0 2 -2 526.71 31.38
0 2 -2 454.81 24.58
0 -2 2 518.88 35.24
0 2 2 556.02 34.03
0 2 -2 485.91 25.53
0 2 -2 518.62 32.72
0 -2 -2 430.99 24.81
0 -2 -2 491.82 31.69
0 3 -2 0.29 0.42
0 3 -2 -0.16 0.43
0 -3 -2 -0.71 2.06
0 -3 -2 0.24 0.3
0 3 -2 -0.16 0.4
0 -3 -2 0.47 1.17
0 -3 -2 0.57 0.83
0 3 -2 -1.87 2.41
0 3 2 -0.34 0.78
0 -3 2 -0.17 0.32
0 -3 2 -1.06 2.43
0 -3 -2 -0.96 2.61
0 3 -2 0.48 0.3
0 3 -2 -0.17 0.44
0 3 -2 0.76 2.33
0 -3 -2 0.59 0.47
0 3 2 -0.85 2.14
0 -4 2 5461.74 287.75
0 4 -2 5258.97 287.43
0 4 -2 5289.15 287.6
0 4 2 5349.59 286.38
0 -4 -2 5683.22 287.3
0 -4 -2 5955.23 291.22
0 -4 -2 5825.14 291.67
0 4 -2 5935.48 292.07
0 -4 -2 5636.44 289.18
0 -4 -2 5549.69 294.53
0 -4 2 5557.22 286.79
0 -4 2 5651.24 295.9
0 -4 -2 5846.92 293.05
0 4 -2 6329.01 294.46
0 4 2 6120.15 294.42
0 -4 -2 5690.2 292.92
0 4 -2 6199.72 293.48
0 -4 -2 5228.11 287.21
0 5 -2 1.31 1.78
0 5 -2 0.18 0.41
0 -5 -2 -0.58 1.58
0 -5 -2 0.46 1.26
0 -5 2 -0.23 0.84
0 5 -2 0.84 0.62
0 -5 -2 0.88 0.66
0 -5 -2 0.96 1.63
0 -5 2 0.58 0.47
0 -5 -2 0.77 2.1
0 5 -2 -0.51 1.82
0 -5 2 0.86 2.52
0 5 2 -0.84 2.12
0 -5 -2 0.66 0.9
0 5 -2 -0.86 2.17
0 -5 -2 -0.16 0.61
0 -5 -2 0.61 1.53
0 -5 2 1.36 1.85
0 5 -2 -0.59 1.49
0 5 2 -0.69 1.73
0 -6 2 2671.84 132.74
0 6 -2 2305.38 131.72
0 6 -2 2438.65 132.17
0 -6 2 2531.63 130.14
0 -6 -2 2727.22 135.02
0 -6 -2 2527.53 132.01
0 6 -2 2668.8 138.16
0 -6 -2 2520.5 137.05
0 -6 -2 2404.04 134.14
0 6 2 2447.51 137.44
0 -6 2 2419.89 137.68
0 6 -2 2442.56 134.57
0 -6 -2 2484.49 135.2
0 6 2 2563.69 136.47
0 -6 2 2459.9 136.03
0 6 -2 2543.64 135.36
0 -6 -2 2347.73 131.69
0 6 -2 2681.37 136.41
0 -6 -2 2579.38 135.62
0 7 -2 1.14 0.78
0 7 -2 1.11 1.62
0 -7 -2 -0.12 0.41
0 -7 -2 0.49 1.34
0 7 -2 0.24 0.49
0 -7 2 -0.16 0.34
0 -7 2 0.32 1.11
0 -7 -2 0.46 1.05
0 -7 -2 0.27 0.56
0 7 -2 -1.45 2.24
0 -7 -2 -0.66 1.36
0 7 2 0.61 1.4
0 -7 -2 0.4 1.24
0 7 -2 -0.44 1.52
0 7 -2 -0.49 1.13
0 -7 -2 1.02 1.18
0 -7 -2 -0.49 0.62
0 8 -2 1131.39 62.09
0 -8 2 1158.31 61.89
0 -8 2 1169.78 62.77
0 8 -2 1093.58 61.35
0 -8 2 1197.57 59.81
0 -8 -2 1152.81 62.17
0 -8 -2 1258.02 63.74
0 8 -2 1068.17 62.71
0 -8 -2 1012.8 64.38
0 8 2 1286.63 66.45
0 8 -2 984 64.54
0 -8 -2 1089.63 62.22
0 -8 -2 1049.6 62.98
0 -8 -2 1062.46 63.22
0 8 -2 1119.23 63.8
0 8 -2 1111.4 63.18
0 -8 -2 1098.7 61.73
0 -9 -2 0.4 0.64
0 -9 -2 -0.42 1.05
0 -9 2 -0.38 0.78
0 9 -2 1.45 1.32
0 9 -2 -0.34 0.69
0 -9 2 0.47 1.27
0 -9 -2 0.86 0.99
0 -9 2 0.34 0.5
0 -9 -2 -0.35 0.8
0 9 -2 0.4 1.09
0 -9 -2 0.57 1.17
0 9 -2 -1.91 1.73
0 9 2 -0.83 1.71
0 -9 -2 0.45 1.45
0 -9 -2 0.37 1.02
0 9 -2 0.42 1.07
0 -10 2 8.26 2.2
0 10 -2 10.32 2.52
0 -10 -2 6.34 1.54
0 10 -2 5.35 1.79
0 -10 2 10.33 2.71
0 -10 -2 4.18 1.75
0 -10 2 15.18 2.08
0 10 -2 7.06 2.1
0 10 2 4.51 2.66
0 -10 -2 6.46 1.69
0 -10 -2 11.91 2.47
0 11 -2 0.41 1.12
0 -11 -2 -0.35 0.96
0 11 -2 -0.5 1.16
0 -11 2 1.65 1.39
0 -11 2 -0.61 1.78
0 -11 2 -0.29 0.72
0 11 -2 0.84 1.06
0 -11 -2 0.52 1.03
0 11 2 -0.83 0.85
0 11 -2 -0.67 1.19
0 -11 -2 -0.35 1.03
0 -12 -2 612.85 38.86
0 -12 2 704.57 40.99
0 -12 2 645.83 41.16
0 -12 2 640.14 37.78
0 12 -2 773.21 39.68
0 12 2 576.84 41.5
0 12 -2 719.08 38.25
0 12 -2 709.71 39.15
0 -13 2 -0.7 1.62
0 -13 -2 -0.38 1.4
0 -13 2 -1.11 3.67
0 13 -2 -0.39 1.13
0 -13 2 -1.15 1.48
0 -13 -2 0.48 1.22
0 13 2 -1.5 1.73
0 13 -2 -1.01 1.65
0 -14 2 2631.52 164.65
0 14 -2 2960.49 164.54
0 -14 2 3286.83 164.76
0 -14 -2 3150.03 162.44
0 -14 -2 3325.11 164.21
0 -14 2 3104.4 161.74
0 14 -2 3099.12 162.73
0 14 2 2725.6 165.31
0 14 -2 3075.32 164.24
0 15 -2 2.11 1.63
0 -15 -2 2.73 1.87
0 -15 -2 1.36 1.26
0 15 -2 0.38 1.24
0 -15 -2 -0.5 1.47
0 -15 2 -3.75 3.4
0 15 2 -0.72 2.22
0 15 -2 -1.02 1.57
0 -16 -2 1156.16 64.4
0 16 -2 1178.43 66.45
0 -16 -2 1232.15 66.56
0 -16 2 1243.98 64.33
0 16 2 1081.3 67.56
0 16 -2 1146.51 66.3
0 -16 -2 1135.3 65.96
0 -17 2 -0.64 1.28
0 -17 -2 -0.53 1.1
0 -17 -2 0.69 1.46
0 17 -2 0.51 1.49
0 17 -2 -1.05 1.79
0 -17 -2 0.51 1.05
0 18 -2 238.76 16.98
0 -18 -2 229.59 15.52
0 -18 2 240.68 15.43
0 -18 -2 244.3 17.26
0 18 -2 237.43 17.33
0 -18 -2 262.7 17.31
0 19 -2 1.03 1.19
0 -19 -2 -0.56 1
0 -19 2 -0.68 1.27
0 19 2 -0.71 1.79
0 19 -2 1.12 1.41
0 -19 -2 0.51 1.3
0 20 -2 36.5 5.23
0 -20 2 42.76 4.57
0 -20 -2 41.03 5.54
0 20 2 24.08 5.58
0 20 -2 31.99 5.28
0 -20 -2 35.67 5.06
0 21 -2 -0.53 1.53
0 -21 2 1.08 1.17
0 -21 -2 0.59 1.5
0 21 2 0.71 1.62
0 -21 -2 1.03 1.19
0 21 -2 1.23 1.79
0 -22 -2 290.31 18.17
0 -22 2 242.99 15.36
0 -22 -2 275.8 17.05
0 22 -2 282.09 18.51
0 23 -2 1.08 2.22
0 -23 -2 -1.84 1.89
0 -23 2 -0.75 1.53
0 23 2 2.8 2.28
0 -23 -2 -0.5 2.01
0 23 -2 -0.68 2.23
0 -24 2 571.43 27.05
0 -24 -2 644.01 30.65
0 24 -2 670.6 32.33
0 -24 -2 555.23 28.23
0 -25 -2 -3.17 2.69
0 -25 -2 1.45 1.57
0 25 -2 -0.75 2.69
0 -26 -2 311.03 23
0 -27 -2 -1.3 2.11
0 -27 2 -0.72 1.28
0 0 -3 0.24 0.7
0 0 -3 1.62 3.34
0 0 -3 0.4 0.72
0 0 3 2.38 4.91
0 0 -3 0.88 0.52
0 0 -3 1.49 4.34
0 0 -3 -2.26 4.66
0 0 -3 0.27 0.44
0 0 3 1.98 3.54
0 0 -3 1.88 4.32
0 -1 -3 0.24 0.61
0 -1 -3 1.37 4.25
0 1 -3 -0.26 0.37
0 1 -3 1.68 4.23
0 1 -3 -0.2 0.4
0 1 -3 0.47 0.49
0 1 -3 0.51 0.64
0 -1 -3 -0.07 0.23
0 -1 -3 0.14 0.31
0 -1 -3 -0.58 1.46
0 -1 -3 -0.37 1.08
0 -1 -3 0.33 0.49
0 -1 3 4.08 4.21
0 -1 -3 -1.89 3.37
0 1 3 0.44 0.79
0 1 -3 0.39 0.4
0 -1 -3 1.22 3.97
0 1 -3 -1.24 3.12
0 1 -3 2.21 4.56
0 1 3 -2.07 5.23
0 1 -3 -1.53 3.86
0 -1 -3 0.13 0.45
0 1 3 -1.67 4.22
0 -1 -3 -1.54 5.51
0 1 3 0.16 0.48
0 -1 3 -1.67 3.84
0 1 -3 -0.14 0.52
0 1 -3 0.9 0.74
0 2 -3 92.19 7.39
0 2 -3 99.2 7.18
0 -2 -3 99.45 7.5
0 2 -3 102.4 7.42
0 -2 -3 97.34 9.87
0 2 -3 124.71 7.03
0 -2 -3 99.51 6.62
0 2 -3 100.91 6.46
0 2 -3 103.98 12.69
0 -2 3 104.89 6.6
0 -2 -3 104.53 8.58
0 -2 -3 121.73 15.97
0 -2 3 121.56 16.41
0 -2 -3 98.53 6.62
0 2 -3 130.6 14.9
0 2 -3 103.96 7.4
0 -2 -3 103.44 13.47
0 2 3 117.21 14.82
0 2 3 104.48 7.04
0 3 -3 0.21 0.42
0 3 -3 -0.23 0.33
0 3 -3 0.25 0.51
0 -3 -3 -1.05 2.42
0 3 3 0.36 0.59
0 3 -3 0.42 0.65
0 3 -3 0.13 0.27
0 -3 -3 0.57 1.45
0 -3 -3 0.44 0.4
0 3 3 0.49 1.13
0 -3 -3 -0.4 1.09
0 3 -3 0.4 0.33
0 3 -3 -0.93 2.53
0 -3 3 1.59 2.31
0 -3 -3 1.42 4.15
0 -3 3 0.25 0.36
0 3 -3 0.72 0.65
0 3 3 2.55 3.21
0 3 3 -0.18 0.54
0 3 -3 1.11 3.04
0 -3 -3 -0.15 0.45
0 -3 3 -0.25 0.44
0 4 -3 107.91 7.99
0 4 -3 113.46 7.88
0 4 -3 106.49 7.96
0 -4 -3 115.13 7.57
0 4 3 105.47 7.75
0 -4 -3 137 11.05
0 -4 -3 118 11.95
0 4 -3 129.66 12.66
0 -4 3 121.9 15.23
0 4 -3 116.79 15
0 4 -3 108.03 6.89
0 -4 3 114.89 7.23
0 -4 -3 143.92 10.18
0 -4 -3 131.87 15.22
0 4 3 122.42 13.97
0 -4 -3 122.49 13.37
0 -4 -3 112.99 7.5
0 -4 3 115.72 8.38
0 4 -3 128.19 13.98
0 4 3 113.1 7.84
0 4 -3 127.06 8.47
0 4 -3 157.76 14.45
0 -4 -3 131.3 13.36
0 5 -3 3.88 2.99
0 -5 -3 0.86 2.18
0 5 -3 -0.22 0.51
0 5 3 0.11 0.24
0 5 3 0.21 0.68
0 5 -3 0.25 0.52
0 -5 -3 -0.55 1.13
0 -5 -3 0.19 0.48
0 5 -3 -1.51 2.91
0 -5 3 1.32 1.92
0 5 -3 -1.28 2.94
0 -5 -3 -0.43 0.88
0 5 3 5.12 3.73
0 -5 3 0.14 0.37
0 -5 -3 0.71 1.8
0 -5 -3 1.15 2.06
0 -5 -3 -0.9 1.6
0 5 3 -0.46 0.71
0 -5 -3 -0.18 0.57
0 -5 3 -1.04 1.85
0 5 -3 -0.88 1.81
0 5 3 -1.04 2.15
0 -5 3 0.84 0.7
0 -6 -3 16.01 4.08
0 6 -3 8.08 1.68
0 6 -3 13.36 3.93
0 -6 -3 9.15 2.6
0 6 -3 7.5 1.74
0 6 3 11.62 1.89
0 -6 -3 12.34 1.93
0 6 3 11.33 1.19
0 -6 -3 12.45 3.49
0 6 3 15.3 5.03
0 6 -3 16.29 4.97
0 6 -3 10.51 3.35
0 -6 -3 11.76 4.3
0 -6 3 11.04 4.41
0 -6 3 10.11 1.46
0 -6 -3 8.54 2.34
0 -6 -3 20.53 4.66
0 6 3 11.6 3.9
0 6 3 12.18 2
0 -6 3 19.3 4.7
0 6 -3 9.82 1.06
0 6 -3 20 4.55
0 -6 3 13.84 2.26
0 -6 -3 11.02 1.76
0 -7 -3 0.75 1.73
0 -7 3 0.31 0.55
0 7 -3 0.52 0.6
0 7 -3 2.48 2.09
0 -7 -3 0.77 0.7
0 7 3 0.53 0.94
0 -7 -3 -0.54 0.78
0 7 3 0.11 0.29
0 7 -3 1.21 0.88
0 -7 -3 -1 2.07
0 7 -3 -1.08 2.23
0 -7 3 -0.17 0.4
0 7 -3 0.66 1.8
0 -7 -3 -0.61 1.54
0 7 3 1.09 1.59
0 -7 3 -1.15 2.05
0 7 3 1.47 0.86
0 7 -3 2.22 2.16
0 -7 -3 -0.23 0.78
0 7 3 -0.91 2.08
0 -7 -3 0.77 1.58
0 -7 3 0.69 0.8
0 8 -3 73.46 6.51
0 8 -3 85.5 7.14
0 -8 -3 85.97 6.91
0 8 3 76.12 6.69
0 -8 -3 99.49 8.88
0 8 3 82.01 5.7
0 8 -3 75.1 8.51
0 8 3 102.78 10.51
0 8 -3 79.36 10.49
0 -8 3 77.89 5.98
0 -8 -3 86.57 10.76
0 -8 -3 76.89 8.26
0 8 3 82.06 7.08
0 8 -3 89.33 9.55
0 -8 3 101.51 8.02
0 -8 -3 74.94 6.46
0 -8 -3 83.9 9.31
0 -8 -3 73.01 8.96
0 8 -3 82.42 9.64
0 9 -3 -0.74 1.52
0 -9 -3 0.3 0.49
0 9 -3 -0.31 0.64
0 9 -3 0.39 0.91
0 -9 -3 2.01 1.82
0 9 3 0.36 0.64
0 -9 3 -0.45 1.03
0 -9 -3 1.48 0.93
0 -9 -3 0.53 1.1
0 -9 -3 -0.9 1.86
0 9 -3 -0.97 1.99
0 9 -3 0.6 1.51
0 -9 3 0.23 0.53
0 -9 -3 1.09 1.48
0 9 3 3.72 2.14
0 -9 3 0.44 0.91
0 -9 -3 1.37 1.87
0 -9 -3 -0.32 0.82
0 9 3 0.4 0.93
0 9 -3 0.66 1.66
0 -10 -3 24.53 4.51
0 10 -3 21.65 4.33
0 10 -3 13.61 2.55
0 -10 -3 12 1.92
0 10 -3 15.88 3.1
0 -10 3 20.3 3.76
0 -10 -3 20.14 3.67
0 10 3 16.82 3.02
0 -10 -3 11.78 2.84
0 -10 3 14.81 2.38
0 -10 -3 15.5 3.29
0 -10 -3 14.5 4.01
0 10 -3 14.69 4.41
0 10 3 20.16 5.19
0 10 -3 17.33 3.71
0 10 3 14.91 3.04
0 -10 3 23.33 3.84
0 -10 -3 13.07 3.53
0 -10 -3 19.28 3.23
0 10 -3 16.84 3.78
0 11 -3 0.54 1.56
0 -11 -3 -0.59 1.7
0 -11 -3 -1.12 0.83
0 11 -3 -0.42 0.75
0 11 -3 -0.66 1.36
0 11 3 0.5 1.36
0 -11 -3 0.53 0.95
0 -11 3 1.81 1.52
0 -11 -3 -0.55 1.12
0 -11 3 1.29 0.94
0 -11 -3 0.48 1.11
0 11 3 -1.21 2.15
0 11 -3 -1.1 1.69
0 11 -3 0.87 2
0 -11 -3 0.46 1.15
0 -11 -3 0.62 1.27
0 -11 3 -0.57 1.17
0 11 3 1.16 1.69
0 -12 3 604.4 40.99
0 12 -3 704.23 40.13
0 -12 -3 636.94 37.47
0 12 3 676.99 40.76
0 -12 3 730.75 36.24
0 -12 -3 608.47 38.76
0 12 3 352.49 40.44
0 12 -3 635.92 39.72
0 -12 3 793.98 39.47
0 -12 3 938.55 43.79
0 12 3 748.17 42.34
0 -12 -3 617.16 39.95
0 12 -3 624.76 40.55
0 13 -3 0.59 1.36
0 -13 -3 0.76 1.04
0 13 -3 -1.17 1.7
0 13 3 1.39 1.75
0 13 -3 -0.45 1.04
0 -13 3 0.78 2.52
0 -13 3 0.19 0.61
0 13 3 -1.01 1.8
0 -13 -3 0.76 1.18
0 13 -3 1.42 1.61
0 13 3 -0.85 1.74
0 -13 -3 2.07 1.92
0 -14 -3 55.26 6.41
0 -14 3 71.32 5.56
0 14 -3 59.19 6.48
0 14 3 62.12 9.15
0 14 -3 67.66 6.7
0 14 -3 61.86 7.56
0 14 -3 81.28 7.88
0 14 3 47.5 8.21
0 -15 -3 0.4 1.17
0 -15 -3 -0.56 1.16
0 -15 3 0.9 0.87
0 15 -3 0.83 1.13
0 15 3 -0.92 1.64
0 15 3 1.96 2.26
0 15 -3 -0.56 1.29
0 -16 -3 132.46 9.48
0 -16 -3 155.88 11.55
0 -16 3 76.58 7.89
0 16 3 99.02 11.81
0 16 -3 125.79 10.79
0 16 3 134 13.41
0 17 -3 -0.65 1.34
0 -17 -3 0.35 1.02
0 -17 -3 0.59 1.05
0 -17 3 0.62 0.78
0 17 3 -0.87 1.55
0 17 3 -0.89 2.05
0 17 -3 0.56 1.62
0 -17 -3 0.61 1.09
0 18 -3 45.46 6.19
0 -18 -3 36.02 4.51
0 -18 3 40.66 4.4
0 -18 -3 49.09 6.18
0 18 3 24.93 5.97
0 -18 -3 39.66 5.76
0 18 3 53.97 7.83
0 18 -3 41.99 5.71
0 19 -3 0.6 1.39
0 -19 -3 0.62 1.43
0 -19 3 0.3 0.87
0 19 3 0.85 1.97
0 19 -3 0.57 1.56
0 19 3 -0.86 1.77
0 -19 -3 1.83 1.89
0 20 -3 240.74 17.02
0 -20 3 221.19 14.19
0 -20 -3 245.81 17.27
0 -20 3 232.78 18.04
0 -20 -3 215.06 16.5
0 20 3 251.39 19.36
0 20 -3 258.29 17.24
0 21 -3 0.6 1.62
0 -21 3 1.77 1.22
0 -21 -3 1.95 1.89
0 21 3 2.53 2.13
0 -21 3 -0.67 1.82
0 -21 -3 0.61 1.41
0 21 -3 2.42 1.76
0 22 -3 290.71 19.48
0 -22 -3 333.5 20.74
0 -22 3 296.49 20.56
0 22 -3 312.3 20.3
0 -22 -3 314.6 20
0 23 -3 -1.2 1.95
0 -23 -3 1.34 1.95
0 -23 3 0.68 1.97
0 23 3 -0.84 1.5
0 -23 -3 -0.6 1.64
0 23 -3 -0.67 1.82
0 23 3 -2.7 3.34
0 -24 -3 154.23 12.78
0 -24 3 145.84 12.8
0 24 -3 151.03 12.68
0 24 3 176.01 15.29
0 -24 -3 156.84 12.23
0 25 -3 -1.21 2.06
0 -25 3 -1.04 3.03
0 -25 -3 1.38 1.59
0 -25 3 0.7 1.76
0 -25 -3 2.91 1.8
0 25 -3 -0.73 1.84
0 25 3 -1.88 2.56
0 -26 -3 82.81 9.44
0 -26 3 74.01 9.42
0 -26 -3 64.66 8.08
0 -27 3 -0.72 1.96
0 0 -4 9097.48 413.66
0 0 -4 9999 414.85
0 0 -4 4075.83 421.15
0 0 -4 4026.83 426.12
0 0 -4 8940.68 412.16
0 0 -4 3807.08 423.13
0 0 -4 8582.52 411.81
0 0 4 4085.04 424.09
0 0 -4 6063.3 427.4
0 -1 -4 -1.81 5.6
0 1 -4 3.41 1.49
0 1 -4 2.82 1.12
0 -1 -4 -0.32 0.79
0 1 -4 2.26 6.15
0 1 -4 2.16 1.27
0 -1 -4 0.17 0.63
0 -1 -4 1.1 0.49
0 1 -4 1.84 1.35
0 -1 -4 -1.02 1.89
0 -1 4 -2.72 4.85
0 -1 -4 0.42 0.69
0 1 4 2.71 4.84
0 -1 -4 1.61 3.71
0 1 -4 2.98 7.5
0 1 -4 -0.17 0.44
0 -1 -4 2.49 5.13
0 1 -4 -1.66 4.85
0 -1 4 2.21 7.56
0 1 4 2.22 4.57
0 -1 -4 -4.07 5.92
0 1 -4 -0.3 0.92
0 -1 -4 0.68 0.7
0 1 -4 0.18 0.65
0 2 -4 1750.61 94.43
0 -2 -4 1763.77 94.68
0 2 -4 1715.68 93.97
0 2 -4 1851.31 94.95
0 2 -4 1647.32 93.71
0 -2 -4 1636.68 97.71
0 -2 -4 1678.48 93.03
0 -2 -4 1713.15 91.88
0 2 -4 2014.89 93.35
0 2 -4 2115.41 108.21
0 -2 -4 2078.26 97.44
0 -2 -4 2026.37 114.55
0 -2 4 1909.6 115.91
0 2 -4 1965.68 96.93
0 -2 -4 1665.3 93.67
0 2 -4 1713.67 92.88
0 2 4 1818.49 110.96
0 2 -4 1720.43 93.24
0 -2 -4 1648.26 93.02
0 2 4 1863.36 93.84
0 2 -4 2004.65 110.35
0 -2 -4 2042.16 109.46
0 2 -4 1838.24 94.53
0 -3 -4 2.78 3.78
0 3 -4 -0.29 0.8
0 3 -4 -0.53 0.73
0 3 -4 -0.33 0.76
0 -3 -4 1.31 0.95
0 -3 4 0.36 0.99
0 3 -4 -0.26 0.77
0 -3 -4 -0.18 0.41
0 3 -4 -0.32 0.46
0 -3 -4 1.43 1.64
0 3 -4 -0.49 1.33
0 -3 4 -2.13 5.81
0 3 -4 -0.14 0.42
0 -3 -4 -0.51 1.05
0 -3 4 0.16 0.45
0 3 -4 -1.24 3.62
0 -3 -4 1.87 2.73
0 3 4 0.66 1.17
0 3 4 1.44 0.85
0 3 -4 -0.3 0.62
0 -3 -4 -0.18 0.6
0 3 4 -1.72 3.95
0 3 -4 -1.47 3.38
0 4 -4 430.61 24.26
0 4 -4 388.11 23.88
0 -4 4 398.98 24.7
0 4 -4 400 23.74
0 4 -4 374.69 21.65
0 -4 -4 384.17 23
0 -4 -4 478.93 28.42
0 4 -4 504.03 32.92
0 4 -4 498.99 38.56
0 -4 -4 519.16 37.96
0 -4 -4 511.89 27.29
0 -4 4 413.74 22.83
0 4 4 533.93 29.19
0 -4 4 499.03 39.29
0 4 -4 407.32 22.42
0 -4 -4 466.85 31.45
0 -4 -4 435.6 33.08
0 4 -4 486.39 35.24
0 4 4 444.03 35.06
0 4 -4 490.27 34.24
0 -4 -4 441.39 33.14
0 4 -4 436.56 24.57
0 -4 -4 388.04 23
0 4 4 399.37 23.61
0 5 -4 -0.27 0.49
0 -5 4 -0.39 0.56
0 -5 4 0.35 0.72
0 -5 4 0.61 0.71
0 5 -4 -0.29 0.72
0 -5 -4 1.14 2.03
0 5 -4 -1.28 2.29
0 -5 -4 0.21 0.62
0 -5 -4 -1.27 1.6
0 5 4 0.26 0.6
0 5 -4 0.3 0.69
0 -5 -4 -0.94 2.17
0 5 -4 -0.5 0.73
0 5 4 1.71 3.05
0 -5 -4 0.53 0.95
0 -5 4 -1.77 2.58
0 5 -4 -1.69 2.45
0 -5 4 0.34 0.35
0 5 -4 -1 2.3
0 -5 -4 1.52 3.14
0 -5 4 0.34 0.79
0 -5 4 1.4 2.49
0 -5 -4 -1.17 2.42
0 5 4 2.81 2.89
0 -5 -4 0.41 0.56
0 5 4 -0.27 0.69
0 5 -4 -2.31 3.56
0 6 -4 97.54 7.75
0 6 -4 86.64 7.29
0 -6 4 97.58 8.03
0 -6 4 97.64 7.73
0 -6 4 88.95 7.97
0 6 4 92.68 7.33
0 -6 -4 95.44 7.13
0 -6 -4 104.03 10.02
0 -6 -4 107.6 14.32
0 6 -4 123.16 15.59
0 -6 -4 107.2 9.69
0 -6 4 112.35 15.45
0 -6 4 91.09 6.52
0 6 4 88.52 13.54
0 -6 -4 114.16 11.81
0 6 -4 120.12 12.33
0 6 -4 102.05 12.88
0 -6 4 83.43 12.49
0 -6 4 103.67 8.16
0 -6 -4 89.46 11.68
0 -6 -4 92.12 6.94
0 6 4 83.44 12.27
0 -6 -4 82.47 11.29
0 6 4 94.8 7.5
0 6 -4 95.04 11.84
0 7 -4 1.09 2.24
0 -7 4 0.35 0.62
0 -7 -4 0.99 2.71
0 -7 4 0.41 0.85
0 -7 4 -0.38 1.03
0 7 -4 -0.3 0.87
0 7 4 0.3 0.75
0 7 4 0.06 0.28
0 -7 -4 -0.27 0.63
0 7 -4 0.35 0.81
0 -7 -4 0.61 1.25
0 -7 -4 0.81 2.5
0 -7 4 -1.56 2.79
0 7 4 -1.48 2.64
0 -7 -4 1.33 2.38
0 7 -4 2.6 2.36
0 -7 4 -0.19 0.51
0 -7 -4 -0.57 1.01
0 7 -4 1.43 2.95
0 7 4 -0.33 0.76
0 -7 4 0.77 0.8
0 -7 -4 -1.01 2.55
0 7 -4 -0.98 2.03
0 7 -4 0.1 0.37
0 -7 -4 0.25 0.72
0 8 -4 1560.86 89.91
0 -8 4 1665.48 90.64
0 -8 4 1642.22 91.27
0 -8 4 1622.46 90.87
0 8 -4 1633.96 90.57
0 8 4 1730.95 90.27
0 -8 -4 1787.01 90.22
0 8 4 1619.05 87.67
0 -8 -4 1905.37 93.99
0 -8 -4 1732.93 99.68
0 8 -4 1635.98 95.03
0 -8 -4 1665.65 94.55
0 8 4 2115.3 98.73
0 -8 4 1708.46 88.95
0 8 -4 1722.25 100.65
0 -8 4 1722.97 91.21
0 8 -4 1739.86 96.6
0 -8 -4 1616.39 96.22
0 -8 -4 1621.36 96.36
0 8 -4 1720.81 97.49
0 -8 -4 1598.94 89.5
0 8 4 1671.83 90.66
0 9 -4 0.35 0.8
0 -9 4 0.47 1.08
0 -9 -4 0.9 2.08
0 -9 4 0.42 1.06
0 9 -4 0.97 2.24
0 -9 4 0.41 1.11
0 -9 -4 -0.36 1.04
0 9 4 0.12 0.48
0 -9 -4 1.18 1.49
0 9 -4 0.84 1.43
0 9 4 -0.36 0.9
0 9 -4 0.79 2
0 -9 -4 2.92 2.25
0 -9 -4 1.21 2.16
0 -9 4 1.38 0.79
0 9 4 1.08 2.48
0 -9 4 -0.45 1.14
0 -9 -4 0.93 1.05
0 -9 -4 0.91 1.87
0 9 -4 0.88 2.22
0 9 4 1.25 1.05
0 10 -4 3167.59 166.84
0 -10 4 3015.49 166.68
0 -10 4 3189.51 166.73
0 -10 4 3029.19 167.32
0 10 -4 2900.26 165.65
0 -10 -4 3164.46 166.57
0 10 4 3226.31 166.33
0 -10 -4 3308.47 168.6
0 10 4 3092.68 163.6
0 10 -4 2933.01 174.35
0 10 -4 2941.85 169.55
0 -10 4 3217.1 164.72
0 10 4 3477.25 175.29
0 -10 -4 2967.03 168.91
0 -10 4 3297.36 167.42
0 -10 -4 3086.35 165.85
0 10 -4 3095.88 170.76
0 10 4 3294.62 167.22
0 10 -4 2992.59 171.29
0 -10 -4 2988.99 170.43
0 -10 -4 3209.94 171.56
0 -11 4 0.96 1.22
0 11 -4 -0.53 1.44
0 11 -4 1.79 2.06
0 -11 4 -1.1 1.27
0 -11 -4 0.81 1.87
0 11 -4 -0.41 0.93
0 -11 -4 -0.19 0.86
0 11 4 0.6 0.83
0 -11 -4 1.02 1.29
0 -11 -4 1.76 1.48
0 11 4 1.37 1.33
0 11 4 1.35 2.4
0 11 -4 -1.49 2.17
0 11 -4 -1.18 3.43
0 -11 4 -0.58 0.9
0 -11 -4 2.22 2.55
0 -11 -4 0.67 1.69
0 11 4 0.54 1.46
0 11 -4 3.21 2.98
0 -11 4 -0.55 1.27
0 -11 -4 0.42 1.31
0 12 -4 769.79 44.02
0 -12 4 777.2 44.67
0 -12 4 887.53 45.56
0 -12 4 783.75 45.72
0 12 -4 830.87 45.79
0 -12 -4 801.85 45.44
0 12 4 827.21 41.94
0 12 4 809.65 44.83
0 -12 -4 634.43 44.39
0 12 -4 708.63 45.82
0 12 4 454.05 47.55
0 -12 -4 679.4 44.74
0 -12 4 808.01 42.77
0 -12 -4 650.69 43.89
0 -12 -4 671.51 46.67
0 12 -4 712.3 46.32
0 -12 4 838.15 46.08
0 12 4 861.2 46.13
0 12 -4 722.11 47.1
0 -12 -4 661.87 45.88
0 -13 4 -0.67 1.55
0 13 -4 -2.44 2.65
0 13 -4 2.82 2.05
0 13 -4 -0.53 0.95
0 -13 -4 -0.27 0.87
0 13 4 0.61 1.41
0 13 4 -0.31 0.86
0 -13 -4 1.79 1.51
0 13 4 -2.63 2.71
0 13 -4 1.34 1.69
0 -13 4 0.38 0.96
0 -13 -4 1.75 1.47
0 -13 -4 0.74 1.7
0 13 4 1.47 2
0 14 -4 4.05 2.65
0 14 -4 1.24 1.71
0 14 -4 10.04 3.29
0 -14 4 -0.76 3.04
0 -14 -4 2.82 1.6
0 14 4 8.54 2.06
0 -14 4 6.66 1.96
0 14 -4 6.23 2.73
0 14 4 2.44 2.53
0 -14 -4 5.28 2.26
0 14 4 8.65 3.22
0 -14 -4 3.51 2.41
0 -15 -4 0.9 1.14
0 15 -4 -1.46 2.25
0 -15 4 -0.87 2.53
0 15 4 1.43 1.2
0 15 4 1.16 2.39
0 15 -4 -0.57 2.44
0 -15 -4 0.94 1.37
0 -15 4 -1.04 1.32
0 15 -4 -1.47 2.14
0 15 4 -1.03 2.37
0 -16 4 3.02 2.56
0 -16 -4 6.55 2.22
0 16 4 6.85 2.44
0 16 -4 4.61 2.13
0 -16 4 4.95 2.23
0 16 4 6.63 3.61
0 16 -4 12.44 3.43
0 16 4 9.71 4.52
0 16 -4 6.04 2.26
0 -17 4 2.36 2.43
0 -17 -4 -0.38 1.31
0 17 4 -0.61 1.26
0 -17 4 -0.73 1.69
0 17 4 1.07 1.9
0 17 -4 -0.59 1.61
0 17 4 -1.23 3.81
0 -17 -4 -1.41 1.91
0 -18 4 698.14 45.5
0 -18 -4 746.11 38.47
0 18 4 547.34 36.08
0 -18 4 431 37
0 18 4 761.08 43.94
0 18 -4 705.21 37.49
0 -18 -4 667.88 38.17
0 -19 4 -1.61 4.38
0 19 -4 0.71 2.2
0 -19 -4 -0.67 2.4
0 19 4 0.55 1.26
0 19 4 -1.02 2.58
0 -19 4 -0.92 2.83
0 19 4 -2.16 4.31
0 -19 -4 -0.7 1.62
0 19 -4 0.59 2.09
0 20 -4 813.21 44.54
0 -20 4 632.33 51.02
0 -20 -4 866.21 44.87
0 -20 4 635.71 44.71
0 -20 -4 787.03 44.41
0 20 -4 809.29 43.52
0 20 4 1022.19 50.68
0 21 -4 0.68 1.71
0 -21 4 1.48 3.73
0 -21 -4 -0.7 2.27
0 -21 4 -0.8 2.33
0 21 4 2.01 2.93
0 21 4 -3.09 3.52
0 -21 -4 -0.7 2.28
0 21 -4 -1.21 2.34
0 22 -4 334.5 22.94
0 -22 4 388.8 30.73
0 -22 -4 382.67 23.87
0 -22 4 364.06 24.61
0 -22 -4 391.92 23.84
0 22 -4 351.82 22.66
0 -23 4 1.31 2.34
0 23 -4 2.66 2.16
0 -23 -4 -0.72 1.66
0 23 4 1.98 2.04
0 -23 4 0.76 1.91
0 -23 -4 0.69 2.02
0 23 4 -1.01 2.09
0 23 -4 -0.65 1.64
0 24 -4 37.04 6.16
0 -24 -4 28.39 5.44
0 -24 4 34.23 6.51
0 -24 -4 37.75 6.3
0 24 4 32.74 7.17
0 24 -4 44.74 6.68
0 -25 -4 0.74 1.52
0 -25 4 -0.74 1.7
0 -25 -4 0.67 1.7
0 25 -4 2.88 1.96
0 -26 -4 31.6 5.5
0 0 -5 -0.38 0.56
0 0 -5 -2.68 3.9
0 0 -5 1.46 0.71
0 0 -5 0.7 0.89
0 0 5 -3.94 4.06
0 0 -5 1.64 0.72
0 0 -5 -5.09 7.41
0 0 -5 -7.37 7.59
0 0 5 3.22 4.7
0 0 -5 0.6 0.55
0 0 -5 -3.09 5.5
0 0 -5 0.38 0.87
0 1 -5 -2.86 5.09
0 1 -5 -0.32 0.46
0 -1 -5 -0.39 0.8
0 1 -5 1.12 0.86
0 -1 -5 2.26 5.2
0 1 -5 0.85 0.87
0 -1 5 -0.44 0.64
0 -1 -5 -0.11 0.35
0 -1 -5 0.46 1.26
0 -1 -5 0.6 0.61
0 1 -5 0.79 0.77
0 -1 5 3.39 4.94
0 -1 -5 3.07 4.47
0 1 -5 2.1 4.33
0 1 -5 3.75 8.64
0 -1 -5 0.25 0.52
0 1 -5 0.63 0.58
0 1 -5 0.59 1.05
0 1 5 -3.32 6.84
0 -1 -5 2.52 4.49
0 -1 -5 0.2 0.62
0 1 5 -2.77 4.94
0 -1 5 2.76 4.92
0 1 -5 0.73 0.75
0 1 -5 -2.49 6.78
0 1 -5 0.41 0.6
0 -2 5 429.39 26.65
0 2 -5 435.05 26.46
0 2 -5 436.05 25.38
0 2 -5 408.28 25.36
0 -2 -5 451.74 26.44
0 2 -5 439.12 26.06
0 2 -5 470.17 24.47
0 -2 -5 386.24 23.01
0 -2 -5 453.91 28.44
0 -2 -5 438.58 24.38
0 -2 -5 511.9 45.09
0 2 -5 555.35 40.62
0 2 -5 504.01 28.76
0 -2 -5 508.45 29.05
0 -2 -5 432.16 25.16
0 2 -5 414.8 24.19
0 -2 5 449.18 44.72
0 2 -5 480 40.65
0 -2 -5 607.73 43.14
0 2 -5 419.63 24.48
0 -2 -5 422.05 24.37
0 2 -5 477.77 26.29
0 2 5 531.34 44.46
0 -3 -5 -1.71 4.32
0 3 -5 0.36 0.83
0 3 -5 -0.41 0.6
0 -3 -5 0.4 0.82
0 -3 5 0.45 0.94
0 3 -5 -0.32 0.82
0 -3 -5 0.21 0.52
0 3 -5 0.64 0.8
0 3 -5 0.14 0.42
0 -3 -5 0.73 1.51
0 -3 -5 0.3 0.54
0 -3 5 -2.68 5.52
0 3 -5 -0.6 1.07
0 3 -5 1.55 3.91
0 -3 -5 1.85 1.56
0 -3 -5 2.31 4.76
0 3 -5 0.17 0.38
0 3 5 -2.16 3.15
0 3 -5 -0.37 0.66
0 3 -5 3.61 3.72
0 3 5 1.78 1.1
0 3 -5 0.9 0.74
0 -3 -5 0.41 0.67
0 4 -5 1.07 0.82
0 4 -5 7.1 5.48
0 4 -5 0.96 0.94
0 4 -5 2.03 1.03
0 -4 -5 3.07 3.16
0 -4 5 0.47 0.84
0 -4 -5 1.22 1.03
0 4 -5 1.93 0.56
0 4 -5 1.69 1.05
0 -4 -5 2.47 2.4
0 -4 -5 2.01 0.84
0 4 -5 2.51 0.75
0 4 -5 2.35 4.19
0 -4 -5 3.86 3.24
0 -4 5 1.55 0.81
0 -4 5 2.43 4.34
0 4 -5 4.26 2.08
0 4 5 9.4 6.4
0 -4 -5 3.59 1.31
0 -4 -5 0.62 1.28
0 -4 -5 -4.13 5.21
0 4 -5 4.12 3.46
0 4 5 1.94 3.47
0 4 -5 2.32 1.2
0 -4 -5 1.94 0.89
0 4 5 1.84 1.05
0 4 -5 1.58 2.83
0 -4 -5 4.81 3.3
0 -5 5 -0.48 0.7
0 -5 -5 -2.81 3.23
0 5 -5 1.59 2.83
0 -5 -5 -0.42 0.86
0 5 -5 0.32 0.67
0 5 -5 -0.35 0.96
0 -5 -5 -0.74 1.53
0 5 -5 3.17 1.26
0 -5 -5 0.24 0.55
0 5 -5 0.04 0.19
0 -5 5 -2.24 3.26
0 -5 -5 0.63 1.3
0 5 -5 1.24 1.28
0 5 -5 -2.1 3.06
0 -5 -5 -1.88 2.74
0 5 5 -2.15 3.83
0 5 -5 0.66 0.49
0 5 5 -0.92 2.11
0 5 -5 -1.24 2.56
0 -5 5 0.19 0.53
0 -5 -5 1.16 2.92
0 5 5 1.64 0.95
0 -5 -5 -1.44 2.1
0 -5 5 -1.78 4.09
0 5 5 -1.78 2.59
0 5 -5 0.39 0.89
0 -5 -5 -0.23 0.71
0 5 -5 -1.42 2.92
0 6 -5 132.7 10.41
0 6 -5 138.78 10.35
0 -6 5 137.4 11.31
0 6 -5 141.85 10.23
0 -6 -5 135.44 9.56
0 -6 -5 161.93 13.63
0 -6 -5 116.34 11.8
0 -6 -5 176.85 20.06
0 -6 5 167.21 21.96
0 6 5 117.41 18.47
0 -6 5 131 8.99
0 6 -5 167.95 20.54
0 6 -5 156.63 16.27
0 -6 -5 149.43 15.48
0 -6 -5 131.82 9.47
0 -6 -5 154.22 17.06
0 6 -5 166.32 18.13
0 6 -5 159.09 17.27
0 -6 -5 136.96 16.25
0 6 5 138.38 10.25
0 -7 -5 -1.23 2.2
0 7 -5 0.69 0.95
0 -7 5 1.36 1.14
0 7 -5 -1.34 2.4
0 -7 5 0.51 1.06
0 -7 -5 0.59 0.75
0 7 5 -0.35 0.88
0 7 -5 -0.4 0.93
0 -7 -5 0.68 1.4
0 7 -5 1.07 2.93
0 -7 5 0.21 0.57
0 -7 -5 1 2.52
0 7 -5 -1.77 3.65
0 -7 -5 1.65 2.95
0 -7 -5 0.67 1.37
0 7 -5 -0.67 0.97
0 -7 -5 1.25 3.14
0 7 -5 -1.22 3.07
0 7 -5 0.35 0.67
0 -7 -5 0.27 0.91
0 7 5 0.37 1.15
0 -7 5 0.9 1.14
0 -8 5 840.63 51.64
0 -8 5 915.59 51.41
0 8 -5 912.92 50.94
0 8 -5 911.04 50.31
0 -8 5 929.68 50.93
0 -8 -5 1030.8 54.14
0 -8 -5 869.26 49.78
0 8 5 930.73 50.45
0 -8 -5 901.7 55.95
0 -8 5 908.81 48.81
0 -8 -5 937.37 61.83
0 8 -5 991.67 63.4
0 8 -5 917.66 56.83
0 -8 -5 962.12 53.78
0 8 -5 820.61 47.61
0 8 5 969.29 50.94
0 8 -5 941.21 58.08
0 -8 -5 927.48 58.13
0 -8 -5 974.46 58.89
0 -8 -5 819.3 49.25
0 -8 5 955.8 51.62
0 8 -5 952.57 59.43
0 -9 5 1.09 1.12
0 -9 5 0.45 1.13
0 9 -5 1.2 1.75
0 -9 5 -0.48 1
0 9 -5 -0.76 1.24
0 -9 -5 -1.12 2.58
0 -9 -5 -0.37 0.85
0 9 -5 -0.46 0.94
0 -9 -5 0.65 1.33
0 9 5 -0.81 1.1
0 9 5 -1.27 2.27
0 9 -5 1.47 1.69
0 -9 -5 -0.91 2.95
0 -9 -5 -1.51 3.11
0 -9 5 -0.24 0.77
0 9 -5 3.93 2.48
0 9 -5 -1.59 3.66
0 -9 -5 -1.13 2.32
0 9 -5 1.1 1.95
0 -9 -5 1.26 1.07
0 9 5 0.44 1.02
0 -9 5 0.5 1.25
0 10 -5 18.88 3.19
0 -10 5 17.81 3.31
0 10 -5 17.18 3.49
0 -10 5 14.92 3.1
0 -10 5 15.52 3.37
0 -10 -5 19.35 5.12
0 10 -5 17.33 5.1
0 -10 -5 10.27 3.04
0 10 5 16.27 3.07
0 -10 -5 13.65 2.83
0 10 5 11.3 1.27
0 10 -5 13.35 4.45
0 -10 -5 21.83 6.4
0 -10 5 13.44 2.22
0 10 5 33.57 7.65
0 -10 -5 18.35 4.81
0 10 -5 21.33 6.87
0 10 -5 7.04 3.1
0 -10 -5 15.09 2.84
0 10 5 20.99 3.63
0 10 -5 13.64 4.64
0 -10 -5 14.11 4.66
0 -10 5 11.66 2.98
0 -11 5 -0.54 1.11
0 11 -5 0.43 0.63
0 -11 -5 1.03 2.37
0 -11 5 0.61 1.09
0 11 -5 1.11 2.29
0 11 -5 1.67 1.52
0 -11 -5 0.64 1.14
0 -11 -5 0.51 1.04
0 11 5 -0.23 0.39
0 11 5 0.47 1.08
0 -11 -5 1.68 2.12
0 -11 5 -0.28 0.71
0 -11 -5 1.4 2.88
0 11 -5 -2.94 4.78
0 11 5 -1.55 1.6
0 11 -5 0.92 2.33
0 -11 -5 0.83 1.21
0 11 5 2.71 1.68
0 -11 -5 1.05 1.52
0 -11 5 -0.57 1.18
0 11 -5 1.01 2.54
0 -12 -5 1.96 3.03
0 12 -5 0.47 1.07
0 12 -5 5.35 2.92
0 12 -5 -0.62 1.44
0 -12 5 3.95 1.92
0 -12 -5 1.6 0.85
0 -12 -5 1.19 1.62
0 12 5 0.45 0.47
0 12 5 1.56 1.52
0 -12 -5 1.29 1.62
0 12 -5 -1.77 3.29
0 12 5 3.45 3.08
0 -12 5 1.55 0.96
0 -12 -5 0.8 2.02
0 12 -5 8.46 4.35
0 -12 -5 -0.48 1.31
0 12 -5 -0.96 2.63
0 12 5 0.61 1.26
0 -12 -5 3.02 2.54
0 -13 -5 0.94 1.94
0 -13 5 2.15 1.65
0 13 -5 -1.03 2.99
0 13 -5 -0.72 1.8
0 -13 -5 -0.23 0.71
0 13 -5 0.52 0.93
0 -13 -5 0.65 1.63
0 -13 -5 2.8 2.28
0 13 5 -0.19 0.55
0 -13 -5 -0.76 1.74
0 -13 5 0.35 0.95
0 13 -5 0.85 2.15
0 13 5 1.69 3.48
0 13 5 1.39 1.59
0 14 -5 6.5 2.28
0 -14 -5 2.74 1.39
0 -14 5 3.92 2.43
0 14 -5 8.86 3.93
0 14 -5 2.44 2.65
0 14 5 5.28 1.3
0 -14 -5 1.97 1.66
0 14 5 -1.54 3.56
0 -14 5 6.28 1.86
0 -14 -5 -0.71 2.31
0 14 -5 2.42 2.76
0 -14 -5 7.24 3.49
0 14 5 0.8 1.84
0 15 -5 -0.95 2.58
0 -15 -5 0.35 1.38
0 15 -5 -0.68 1.41
0 15 -5 -0.92 1.65
0 -15 5 0.87 1.54
0 15 5 -0.28 0.82
0 -15 -5 0.67 1.37
0 -15 5 0.45 1.03
0 15 -5 -0.76 2.82
0 15 5 1.44 1.48
0 -15 -5 -0.65 2.11
0 -15 -5 5.23 2.84
0 15 5 3.71 2.34
0 16 -5 525.86 33.8
0 -16 -5 336.65 29.13
0 16 -5 370.49 33.65
0 -16 5 674.05 37.63
0 16 5 572.68 29.63
0 -16 -5 561.03 32.95
0 16 5 359.85 34.8
0 -16 -5 492.28 31.58
0 -16 5 560.59 31.34
0 16 -5 479.98 34.19
0 16 -5 505.8 32.17
0 16 5 679.73 38.59
0 -17 5 5.5 3.2
0 17 5 -0.42 1.05
0 17 5 1.3 2.67
0 -17 5 -0.6 1.62
0 17 5 1.28 2.64
0 17 -5 0.86 2.51
0 17 -5 -0.62 1.92
0 -17 -5 1.58 1.99
0 18 5 274.98 19.96
0 -18 5 335.06 22.53
0 -18 -5 292.6 22.2
0 18 -5 338.14 21.59
0 18 5 275.29 26.52
0 -19 5 1.46 2.61
0 -19 5 -0.81 1.67
0 19 5 1.22 2.52
0 19 -5 0.6 1.85
0 19 5 1.48 3.73
0 -19 -5 -0.79 2.3
0 -20 5 122.51 17.61
0 -20 -5 154.17 13.09
0 -20 5 104.32 12.5
0 -20 -5 154.42 13.34
0 20 -5 143.75 11.78
0 20 5 160.61 16.87
0 -21 5 -1.98 4.07
0 -21 -5 1.5 1.54
0 -21 5 1.09 1.95
0 21 5 -1.19 2.73
0 -21 -5 1.57 2.14
0 21 -5 -0.6 1.76
0 21 5 1.28 2.94
0 -22 5 7.51 4.32
0 22 -5 -0.74 2.03
0 -22 -5 6.8 2.81
0 22 5 -1.16 3.39
0 -22 5 4.88 3.02
0 22 5 4.89 3.33
0 22 -5 1.23 1.79
0 -22 -5 3.9 2.41
0 -23 5 1.7 2.47
0 23 -5 1.47 1.69
0 -23 -5 0.76 1.36
0 -23 5 1.81 1.86
0 23 5 -1.14 2.03
0 -23 -5 -0.78 1.6
0 23 5 1.19 2.74
0 23 -5 0.64 1.87
0 24 -5 45.92 7.1
0 -24 -5 59.85 8.08
0 -25 -5 -0.76 1.91
0 0 -6 23.76 3.76
0 0 -6 20.86 3.18
0 0 -6 21.23 3.65
0 0 -6 25.54 10.45
0 0 -6 31.12 3.69
0 0 -6 17.7 2.11
0 0 -6 19.35 2.54
0 0 -6 8.78 9.11
0 0 -6 17.73 4.07
0 0 -6 24.87 2.99
0 0 -6 15.25 8.94
0 0 6 13.99 9.66
0 0 -6 19.76 2.5
0 0 6 19.19 10.51
0 0 -6 11.08 10.12
0 0 -6 18.45 3.34
0 1 -6 -0.43 0.77
0 1 -6 -0.51 1.17
0 -1 -6 -2.68 4.78
0 -1 -6 0.45 1.04
0 1 -6 -0.37 0.86
0 1 -6 6.91 7.11
0 -1 -6 -0.43 0.77
0 1 -6 0.54 0.55
0 1 -6 0.34 0.79
0 1 -6 -0.24 0.6
0 -1 -6 0.66 0.6
0 -1 -6 -0.12 0.45
0 1 -6 -0.49 0.71
0 -1 -6 -3.65 8.4
0 1 -6 -2.55 6.44
0 1 -6 9.18 10.57
0 -1 6 -4.07 9.37
0 1 -6 0.7 1.26
0 -1 -6 -0.29 0.67
0 1 6 3.93 8.09
0 1 -6 0.92 0.75
0 1 -6 0.43 0.89
0 -1 -6 -6 9.27
0 1 6 -3.32 4.84
0 1 -6 -2.96 4.31
0 -1 -6 -0.46 0.62
0 -1 6 9.91 6.81
0 2 -6 180.49 13.14
0 2 -6 165.37 11.63
0 -2 6 179.4 13.34
0 2 -6 178.25 12.41
0 2 -6 181.47 12.01
0 -2 -6 183.27 12.78
0 -2 -6 123.02 8.87
0 2 -6 184.84 10.58
0 -2 -6 160.24 10.47
0 -2 -6 188.98 13.7
0 2 -6 221.89 24.99
0 2 -6 171.37 10.5
0 -2 -6 187.29 27.2
0 2 -6 197.41 14.95
0 -2 -6 156.62 11.16
0 -2 6 202.01 30.17
0 -2 -6 173.91 10.64
0 2 -6 179.1 23.95
0 2 6 166.69 25.65
0 2 -6 172.29 12.37
0 -2 -6 207.52 24.81
0 2 -6 176.47 10.77
0 -3 -6 0.46 1.17
0 3 -6 -0.42 1.22
0 -3 6 1.1 1.26
0 3 -6 -0.38 0.68
0 -3 -6 -2.02 7.51
0 3 -6 -0.5 1.02
0 -3 -6 0.66 2.34
0 3 -6 -0.37 0.94
0 3 -6 0.16 0.64
0 -3 -6 0.94 0.87
0 -3 -6 -0.34 0.99
0 3 -6 1.86 5.08
0 -3 -6 0.72 2.23
0 -3 -6 -5.16 5.6
0 3 -6 0.71 1.64
0 3 -6 0.58 0.63
0 -3 -6 2.74 4.88
0 -3 6 -3.24 5.79
0 3 -6 -0.25 0.81
0 3 -6 -0.43 1.09
0 3 -6 -2.14 4.93
0 -3 -6 0.91 1.08
0 4 -6 3446.31 187.32
0 -4 -6 3467.44 188.27
0 4 -6 3642.68 188.65
0 -4 6 3704.78 189.4
0 4 -6 3796.11 188.04
0 4 -6 3342.7 187.05
0 -4 -6 3542.33 185.92
0 -4 -6 3147.41 190.86
0 4 -6 3261.15 184.36
0 -4 -6 4030.45 201.05
0 -4 6 4078.4 217.52
0 -4 -6 4220.31 212.38
0 -4 -6 3274.26 186.92
0 -4 -6 4752.35 193.53
0 4 -6 4133.27 192
0 4 -6 4801.35 220.95
0 4 6 3434.73 211.96
0 4 -6 4262.51 204.13
0 4 -6 3442.4 185.15
0 4 -6 4398.51 209.91
0 4 6 3841.48 187.4
0 4 -6 3483.57 186.09
0 4 -6 4288.86 206.48
0 -4 -6 4209.92 206.85
0 -4 -6 4034.9 204.64
0 -4 -6 3397.32 185.75
0 4 -6 3420.4 187.97
0 5 -6 -0.41 1.12
0 -5 6 -0.57 1.66
0 -5 -6 -1.66 4.83
0 -5 -6 -0.48 1.11
0 5 -6 -0.75 1.28
0 5 -6 3.76 5.81
0 -5 -6 -0.91 2.81
0 -5 -6 0.53 0.86
0 5 -6 -0.41 1.32
0 5 -6 0.2 0.41
0 -5 -6 0.74 1.7
0 -5 -6 -1.37 4
0 5 -6 2.5 4.46
0 -5 -6 -0.39 1.15
0 5 -6 -2.22 3.23
0 -5 -6 4.47 3.98
0 5 -6 0.3 0.59
0 5 -6 -1.48 5.05
0 -5 -6 0.76 1.1
0 5 -6 1.69 3.48
0 5 6 0.76 1.46
0 -5 -6 1.71 3.93
0 5 -6 0.9 1.23
0 -6 -6 2034.18 116.9
0 6 -6 1976.01 115.46
0 6 -6 2119.17 116.16
0 -6 6 2207.95 118.03
0 6 -6 2291.74 116.39
0 -6 -6 2127.21 120.47
0 -6 -6 2159.79 114.8
0 6 -6 2620.73 121.32
0 6 -6 2405.49 127.32
0 -6 -6 1858.27 118.6
0 -6 -6 2280 125.57
0 6 -6 2509.41 137.76
0 -6 6 2125.93 113.99
0 -6 -6 2407.9 134.47
0 -6 -6 1974.45 115.87
0 6 -6 2187 114.91
0 6 -6 2319.51 128.93
0 -6 -6 2305.34 128.47
0 -6 -6 2313.76 129.01
0 6 -6 2516.74 131.79
0 -6 -6 2075.19 114.56
0 6 6 2240.27 116.07
0 -7 -6 1.46 3.68
0 -7 -6 -0.51 1.17
0 -7 6 -0.6 1.24
0 7 -6 -3.18 4.92
0 7 -6 -0.4 1
0 7 -6 0.46 1.24
0 -7 -6 0.77 1.78
0 -7 -6 0.32 0.87
0 -7 6 0.44 0.6
0 -7 -6 2.37 3.23
0 7 -6 1.59 2.32
0 7 -6 -1.28 3.95
0 7 -6 2.12 5.76
0 -7 -6 3.92 4.04
0 -7 -6 -1.47 3.39
0 -7 -6 0.86 0.93
0 7 -6 1.19 0.95
0 7 -6 1.44 3.64
0 7 6 0.85 1.07
0 -8 6 520.3 31.59
0 8 -6 457.78 29.1
0 8 -6 481.13 29.89
0 -8 -6 556.42 33.18
0 -8 -6 483.83 28.78
0 8 -6 522.74 43.02
0 -8 -6 507.97 35.74
0 8 -6 536.48 37.19
0 -8 6 497.32 27.51
0 -8 -6 505.55 41.66
0 8 -6 527.47 33.73
0 8 -6 565.81 40.05
0 8 -6 439.76 26.86
0 -8 -6 498.85 37.82
0 -8 -6 436.52 28.09
0 -8 -6 541.07 38.7
0 8 -6 549.29 38.66
0 8 6 515.89 29.85
0 -9 -6 1.33 3.06
0 9 -6 -0.42 0.97
0 -9 6 -0.66 0.96
0 9 -6 2.86 3.29
0 -9 -6 -0.72 1.48
0 9 -6 1.53 1.39
0 -9 -6 0.39 1.06
0 9 6 -1.47 1.52
0 -9 -6 5.39 4.53
0 -9 -6 -1.08 3.51
0 9 -6 -0.88 1.29
0 9 -6 -1.89 4.36
0 9 -6 2.34 2.69
0 -9 6 -0.24 0.49
0 -9 6 1.12 1.53
0 9 -6 -0.36 0.54
0 -9 -6 -1.34 2.76
0 9 -6 1.3 3.29
0 9 6 -0.48 1.1
0 -9 -6 0.33 1.07
0 10 -6 16.92 3.24
0 -10 6 21.04 4.43
0 10 -6 20.55 6.39
0 10 -6 13.28 3.29
0 -10 -6 28.15 6.67
0 -10 -6 17.63 4.11
0 -10 -6 23.16 3.67
0 10 6 19.28 3.48
0 10 -6 14.5 7.3
0 10 6 24.36 7.17
0 10 -6 26.43 5.76
0 -10 -6 12.13 6.26
0 10 -6 12.43 4.91
0 -10 6 20.62 2.76
0 -10 -6 23.89 5.55
0 -10 -6 23.28 3.49
0 10 -6 35.05 7.36
0 10 6 23.23 4
0 -10 -6 20.64 6.17
0 -10 6 18.27 4.02
0 11 -6 -1.32 4.07
0 -11 6 -0.7 1.26
0 -11 -6 2.45 2.53
0 11 -6 0.6 1.64
0 11 -6 0.47 1.08
0 -11 -6 0.52 1.43
0 -11 -6 2.1 1.61
0 -11 -6 -1 3.09
0 11 6 -1.79 3.19
0 11 -6 -1.03 1.5
0 -11 6 0.28 0.81
0 -11 -6 1.67 2.98
0 11 -6 -1.75 5.08
0 11 -6 -2.19 3.91
0 11 -6 -1.2 2.47
0 11 6 -0.56 1.73
0 -11 -6 1.27 1.9
0 -11 -6 1.24 2.86
0 12 -6 349.61 22.28
0 12 -6 343.52 23.51
0 -12 6 350.01 24.18
0 -12 -6 375.73 24.31
0 -12 -6 319.4 22.83
0 -12 6 326.48 20.05
0 12 -6 241.81 25.6
0 12 6 230.64 28.55
0 -12 -6 306.94 25.19
0 12 -6 309.61 26.08
0 12 -6 325.21 27.24
0 -12 -6 339.55 27.63
0 12 6 394.66 23.83
0 12 -6 339.79 28.1
0 -12 -6 318.48 27.32
0 13 -6 1.23 2.19
0 13 -6 1.49 2.18
0 -13 -6 -1.14 2.87
0 -13 -6 0.22 0.99
0 13 -6 0.54 1.46
0 -13 6 2.33 1.96
0 -13 -6 0.7 1.92
0 -13 -6 1.42 1.79
0 -13 6 0.32 1
0 13 -6 5.08 3.47
0 13 -6 -1.21 3.06
0 -13 -6 0.91 2.48
0 13 6 -2.11 5.32
0 13 6 2.04 2.22
0 -13 -6 1.15 3.57
0 -14 6 2154.03 113.88
0 14 -6 2051.85 111.21
0 14 -6 2129.94 113.91
0 -14 -6 2078.77 112.24
0 -14 -6 1851.89 113.18
0 -14 6 1960.19 108.22
0 14 -6 1848.01 114.4
0 14 6 2428.95 114.09
0 -14 -6 1863.54 115.45
0 14 -6 1825.64 116.03
0 -15 6 1.8 2.27
0 15 -6 0.67 2.07
0 15 -6 -1.14 3.33
0 15 -6 3.84 3.42
0 15 6 -0.12 0.73
0 -15 -6 -1.43 2.22
0 15 6 1.75 4.42
0 15 -6 1.03 3.01
0 -15 6 1.16 1.6
0 -15 -6 1.61 2.2
0 15 6 2.58 2.93
0 -16 6 1159.6 58.7
0 16 -6 1080.87 55.99
0 16 -6 879.38 56.93
0 -16 -6 1043.5 54.93
0 16 6 794.33 47.97
0 -16 6 1050.44 51.7
0 -16 -6 825.74 54.21
0 16 -6 951.74 58.78
0 16 6 1255.72 59.62
0 17 -6 -2.41 3.5
0 -17 6 -1.08 1.93
0 17 -6 1.77 2.04
0 -17 -6 1.48 1.87
0 17 6 1.55 2.26
0 -17 6 0.49 1.34
0 -17 -6 -0.87 2.37
0 17 -6 -0.63 2.44
0 17 6 -1.14 2.63
0 18 -6 173.82 17.15
0 -18 6 228.42 19.87
0 -18 -6 186.16 15.3
0 -18 6 175.99 13.95
0 18 -6 179.43 14.36
0 -18 -6 171.7 15.7
0 19 -6 3 2.3
0 -19 6 1.37 1.99
0 19 6 -1.43 2.54
0 -19 6 0.64 1.48
0 19 -6 -0.6 1.24
0 19 6 -1.55 3.57
0 -19 -6 0.87 2
0 -20 6 74.1 11.8
0 20 6 1.38 5.88
0 -20 6 51.29 7
0 20 -6 49.12 6.27
0 -20 -6 48.42 7.27
0 20 6 21.78 8.28
0 -21 6 -1.82 2.64
0 21 -6 0.59 1.62
0 -21 -6 -0.86 1.77
0 21 6 -3.25 3.75
0 -22 -6 126.44 12.93
0 -22 6 89.97 16.91
0 22 -6 123.72 11.69
0 22 6 139.01 17.26
0 -22 -6 122.26 13.07
0 -23 -6 0.85 2.9
0 23 -6 -1.87 2.41
0 24 -6 376.55 26.48
0 0 -7 -0.6 1.23
0 0 -7 0.5 0.72
0 0 -7 1.28 1.16
0 0 -7 -0.17 0.53
0 0 -7 2.05 1.06
0 0 -7 0.38 0.79
0 0 -7 -0.24 0.69
0 0 -7 0.3 0.75
0 0 -7 0.5 0.81
0 0 -7 0.5 0.89
0 1 -7 -0.59 1.05
0 -1 -7 -0.43 0.98
0 1 -7 0.97 1.12
0 -1 -7 -0.61 1.09
0 1 -7 0.43 0.98
0 -1 -7 0.52 1.07
0 -1 -7 0.24 0.74
0 -1 -7 -0.83 1.21
0 1 -7 0.99 0.81
0 1 -7 -0.4 0.82
0 1 -7 0.28 0.82
0 1 -7 0.63 0.69
0 -1 -7 -0.12 0.47
0 -1 -7 -0.33 0.95
0 1 -7 1.06 0.86
0 1 -7 1.97 1.44
0 1 -7 1 0.86
0 -1 -7 0.51 1.06
0 -1 -7 0.99 0.84
0 2 -7 384.31 18.74
0 2 -7 388.23 18.18
0 -2 -7 385.2 19.33
0 2 -7 358.57 19.57
0 2 -7 339.97 17.5
0 -2 -7 417.23 19.58
0 2 -7 363.72 15.94
0 2 -7 374.3 15.49
0 -2 -7 354.44 15.56
0 2 -7 361.39 15.53
0 -2 -7 337.18 16.67
0 2 -7 352.3 15.67
0 -2 -7 373.3 15.7
0 2 -7 377.1 18.84
0 3 -7 0.96 1.1
0 3 -7 0.42 0.88
0 3 -7 0.57 1.18
0 -3 7 0.64 1.14
0 3 -7 -0.18 0.6
0 -3 -7 -0.61 1.89
0 -3 -7 1.29 0.8
0 -3 -7 0.37 0.93
0 3 -7 0.64 0.66
0 3 -7 0.99 1.25
0 -3 -7 0.75 0.89
0 3 -7 0.8 0.95
0 4 -7 178.87 13.06
0 -4 7 196.99 15.24
0 4 -7 192.83 14.46
0 4 -7 179.16 13.29
0 -4 -7 176.99 11.8
0 -4 -7 209.24 16.12
0 4 -7 160.74 10.45
0 -4 -7 165.2 12.7
0 4 -7 186.44 11.15
0 -4 -7 184.48 11.86
0 4 -7 217.12 14.68
0 4 -7 174.08 11.92
0 -5 7 0.66 1.36
0 5 -7 -0.42 1.07
0 -5 -7 0.29 0.66
0 5 -7 -0.46 1.06
0 -5 -7 1.73 1.78
0 5 -7 0.25 0.38
0 -5 -7 0.43 0.88
0 5 -7 0.79 0.56
0 -5 -7 -0.27 0.84
0 5 -7 0.42 1.14
0 5 -7 0.5 0.73
0 5 -7 -0.59 1
0 5 7 -0.43 0.98
0 6 -7 43.17 5.37
0 6 -7 55.94 6.24
0 -6 7 59.4 7.33
0 -6 -7 33.66 7.17
0 -6 -7 57.54 5.34
0 -6 -7 42.66 5.54
0 6 -7 55.52 5.3
0 6 7 59.46 6.22
0 6 -7 50.78 5.38
0 -6 -7 59.49 5.21
0 7 -7 0.44 0.91
0 -7 7 0.69 1.24
0 -7 -7 0.34 1
0 7 -7 -0.51 1.05
0 -7 -7 0.91 1.63
0 -7 -7 0.49 1.13
0 7 7 0.94 1.37
0 -7 -7 -0.3 1.07
0 7 -7 0.58 0.95
0 -8 -7 18.74 4.86
0 -8 -7 23.55 3.48
0 8 -7 19.79 3.87
0 -8 7 16.45 3.92
0 8 -7 26.18 3.92
0 8 7 21.26 3.81
0 8 -7 21.82 2.75
0 -8 -7 25.33 3.44
0 -9 7 0.74 1.32
0 9 -7 -0.47 0.96
0 9 -7 0.56 1.3
0 -9 -7 0.42 1.14
0 -9 -7 -0.81 1.67
0 -9 7 -0.68 0.74
0 9 -7 0.17 0.64
0 -9 -7 0.35 0.95
0 9 7 -0.53 0.94
0 10 -7 5.49 2.44
0 -10 7 6.12 2.74
0 10 -7 2.91 1.43
0 -10 -7 3.94 2.58
0 -10 -7 3.34 1.79
0 -10 7 5 1.41
0 10 7 6.75 2.47
0 11 -7 -0.66 1.66
0 -11 7 1.6 1.42
0 11 -7 1.55 1.19
0 -11 -7 0.77 1.94
0 -11 -7 1.67 1.52
0 -11 7 0.25 0.77
0 11 7 -0.59 1.5
0 12 -7 894.46 50.74
0 12 -7 799.98 48.39
0 -12 7 862.84 51.59
0 -12 -7 718.56 48.95
0 -12 -7 833.61 50.82
0 -12 7 821.96 45.71
0 12 7 922.55 50.11
0 13 -7 1.61 1.85
0 -13 7 0.89 1.59
0 13 -7 -0.56 1.74
0 -13 -7 -0.76 1.36
0 -13 -7 1.5 1.72
0 -13 7 -0.29 1.06
0 13 7 2.77 2.36
0 -14 7 126.73 13.6
0 14 -7 131.09 12.02
0 14 -7 130.7 13.52
0 -14 -7 113.82 12.33
0 -14 7 129.75 9.65
0 14 7 159.56 13.55
0 15 -7 0.69 1.58
0 -15 7 -0.98 1.01
0 15 -7 2 2.06
0 -15 -7 -0.77 2.1
0 -15 7 1.71 1.17
0 15 7 0.83 2.1
0 16 -7 21.58 6.25
0 -16 7 46.8 7.87
0 16 -7 40.32 6.46
0 -16 -7 37.45 6.24
0 -16 7 36.96 4.53
0 -16 -7 32.14 6.43
0 16 7 41.75 7.01
0 17 -7 0.88 1.82
0 17 -7 3.8 3.19
0 -17 7 1.12 2
0 -17 -7 -0.79 2.14
0 -17 7 0.41 1.19
0 17 -7 0.62 1.69
0 -17 -7 0.94 1.94
0 17 7 -2.09 2.41
0 -18 -7 3.19 2.02
0 18 -7 2.42 3.06
0 -18 7 2.45 2.82
0 18 7 4.79 3.26
0 18 -7 0.6 1.74
0 -18 -7 7.53 3.22
0 -19 -7 -0.81 2.04
0 19 -7 -1.11 3.63
0 -19 7 -1.36 2.79
0 19 -7 -1.17 2.16
0 19 7 -1.38 4.02
0 -20 -7 150.35 14.37
0 -20 7 170.46 19.38
0 20 -7 161.88 15.78
0 20 7 161.24 19.02
0 -20 -7 128.59 14.27
0 20 -7 130.42 12.38
0 -21 7 1.73 3.98
0 -21 -7 -0.92 2.33
0 21 7 -1.85 5.03
0 0 -8 2505.4 119.81
0 0 -8 2469.27 120.2
0 0 -8 2639.33 123.16
0 0 -8 2463.32 117.59
0 0 -8 2462.92 118.64
0 0 -8 2359.91 118.12
0 0 -8 2617.49 121.51
0 0 -8 2415.76 117.69
0 -1 -8 1.37 1.73
0 1 -8 -0.67 1.68
0 -1 -8 4.27 1.83
0 1 -8 3.32 1.89
0 -1 -8 -0.37 0.55
0 1 -8 1.73 1.46
0 -1 -8 1.27 1.51
0 -1 -8 -0.41 1.78
0 1 -8 0.63 0.87
0 -1 -8 -1.26 1.55
0 1 -8 6.33 2.64
0 1 -8 0.28 1.4
0 1 -8 1.67 1.11
0 -1 -8 2.4 1.37
0 1 -8 1.59 1.45
0 1 -8 4.38 2.76
0 -1 -8 -2.81 1.64
0 -1 -8 1.53 1.31
0 2 -8 719.97 40.47
0 -2 -8 699.79 39.85
0 -2 -8 721.41 42.92
0 2 -8 710.45 42.46
0 2 -8 689.75 40.38
0 -2 -8 677.43 40.31
0 2 -8 556.77 37.69
0 2 -8 682.77 38.27
0 -2 -8 696.86 38.33
0 2 -8 661.32 37.88
0 -2 -8 780.55 41.03
0 2 -8 723 38.25
0 -2 -8 685.8 39.34
0 2 -8 761.05 41.61
0 -2 -8 679.57 38.26
0 2 -8 682.78 38.36
0 -2 -8 768.98 41.96
0 3 -8 0.46 1.51
0 3 -8 -0.65 1.33
0 3 -8 -0.48 1.57
0 3 -8 1.36 1.09
0 -3 -8 -0.57 2.13
0 3 -8 0.29 0.8
0 3 -8 -0.19 0.75
0 -3 -8 0.27 0.97
0 3 -8 0.22 0.64
0 -3 -8 0.4 1.09
0 3 -8 -0.57 1.31
0 3 -8 0.82 0.85
0 3 -8 2.43 2.08
0 -3 -8 -0.59 1.62
0 -3 -8 0.27 0.88
0 4 -8 311.44 21.11
0 4 -8 372.84 22.3
0 4 -8 372.95 23.56
0 -4 8 375.18 24.43
0 -4 -8 398.96 24.48
0 -4 -8 340.54 19.94
0 4 -8 302.01 19.66
0 4 -8 282.62 18.17
0 4 -8 336.93 18.82
0 -4 -8 321.45 20.92
0 4 -8 362.13 22.3
0 -4 -8 317.96 19.71
0 4 -8 357.88 22.75
0 4 -8 322.5 19.76
0 5 -8 0.47 0.96
0 -5 8 -0.75 1.9
0 -5 -8 2.44 2.64
0 5 -8 -0.52 1.42
0 5 -8 -0.09 0.38
0 -5 -8 -0.31 0.79
0 5 -8 -0.16 0.7
0 -5 -8 0.45 1.04
0 -5 -8 -0.29 1.53
0 5 -8 0.3 1.16
0 5 -8 1.38 1.42
0 -6 -8 123.48 13.7
0 -6 -8 138.79 10.07
0 6 -8 132.06 11.44
0 6 -8 133.26 11.02
0 -6 8 141.84 13.17
0 6 -8 146.91 10.72
0 -6 -8 133.11 9.85
0 6 -8 122.94 9.73
0 7 -8 0.56 1.42
0 -7 -8 -0.37 1.13
0 -7 -8 -1.1 2.99
0 -7 8 -0.78 1.81
0 7 -8 -0.96 1.31
0 7 -8 -0.67 1.2
0 7 8 -0.51 1.39
0 -7 -8 0.95 1.14
0 -8 -8 838.05 46.81
0 -8 -8 691.63 51.21
0 8 -8 839.02 47.58
0 8 -8 832.31 48.52
0 -8 8 909.47 51.1
0 8 8 883 48.3
0 8 -8 793.52 45.22
0 -8 -8 785.32 46.11
0 -9 -8 -0.95 3.4
0 9 -8 -0.63 1.94
0 -9 -8 -0.46 1.7
0 9 -8 -0.5 1.47
0 -9 8 0.82 1.7
0 9 -8 -0.21 0.91
0 9 8 -1.14 1.94
0 -10 -8 1056.65 62.94
0 -10 -8 1136.99 66.9
0 10 -8 1094.38 64.5
0 10 -8 1092.14 62.96
0 -10 8 1130.34 66.3
0 10 8 1175.57 64.01
0 -11 -8 -0.61 1.54
0 -11 -8 -2.6 3.34
0 11 -8 -0.55 1.71
0 -11 8 2.65 2.23
0 11 -8 -2.91 2.8
0 11 8 0.63 2.05
0 -12 -8 365.42 26.24
0 -12 8 361 26.64
0 12 -8 412.42 26.53
0 12 -8 333.03 23.6
0 12 8 401.95 25.32
0 -13 -8 -0.83 1.72
0 13 -8 0.88 1.8
0 13 -8 0.6 1.37
0 -13 8 1.92 2.21
0 13 8 -0.72 2.35
0 -14 -8 30.55 5.69
0 -14 8 33.14 6.42
0 14 -8 37.74 6.82
0 14 -8 34.35 5.55
0 -14 -8 21.63 5.85
0 14 8 38.12 6.27
0 15 -8 4.36 2.97
0 15 -8 -0.71 1.94
0 -15 8 1.06 2.18
0 15 8 -0.84 1.93
0 -16 -8 40.52 6.59
0 16 -8 44.82 8.49
0 16 -8 39.84 6.58
0 -16 8 29.2 6.71
0 16 8 34.51 6.75
0 16 -8 33.76 5.51
0 -17 -8 -0.83 1.92
0 -17 8 -1.21 2.49
0 17 -8 4.49 2.62
0 17 -8 -2.68 2.76
0 -17 -8 1.01 2.75
0 17 8 -2 3.26
0 -18 -8 416.48 30.76
0 18 -8 347.78 32.95
0 -18 8 525.89 36.65
0 18 8 557.82 35.45
0 -18 -8 440.05 32.41
0 -19 8 1.43 1.47
0 19 8 -1.26 3.43
0 20 8 426.2 35.24
0 0 -9 2.02 1.1
0 0 -9 2.95 1.6
0 0 -9 0.76 0.78
0 0 -9 0.52 1.76
0 0 -9 -0.75 1.33
0 0 -9 0.6 1.07
0 0 -9 2.8 2.36
0 1 -9 -0.57 0.83
0 -1 -9 1.04 0.93
0 1 -9 1.51 1.27
0 1 -9 -0.25 0.76
0 -1 -9 -0.48 1.72
0 -1 -9 -0.39 1.22
0 -1 -9 0.52 1.07
0 1 -9 0.74 1.07
0 -1 -9 2.27 1.74
0 1 -9 0.52 0.92
0 1 -9 -0.6 1.51
0 1 -9 -1.63 2.52
0 -1 -9 0.61 1.4
0 -2 -9 233.76 15.7
0 -2 -9 229.91 13.92
0 2 -9 224.56 13.66
0 2 -9 152.8 12.86
0 2 -9 195.53 13.27
0 2 -9 207.86 15.55
0 2 -9 218.19 15.85
0 -2 -9 234.31 15.76
0 2 -9 247.31 18.08
0 -2 -9 233.33 18.12
0 -2 -9 229.66 16.08
0 2 -9 250.89 18.14
0 -2 -9 271.92 17.72
0 2 -9 268.91 17.58
0 -3 -9 0.46 1.33
0 3 -9 -0.29 0.73
0 -3 -9 1.63 1.48
0 3 -9 -0.25 0.85
0 3 -9 3.23 1.75
0 3 -9 -0.19 0.63
0 -3 -9 -0.58 1.03
0 -3 -9 -0.52 0.76
0 -3 -9 0.79 1.15
0 3 -9 3.54 2.18
0 3 -9 1 1.36
0 -3 -9 0.63 1.31
0 3 -9 0.63 1.71
0 3 -9 -1.27 1.6
0 4 -9 1.68 1.63
0 4 -9 0.67 0.91
0 4 -9 0.26 0.71
0 -4 -9 1.34 1.22
0 -4 -9 3.2 1.74
0 -4 -9 0.31 0.79
0 4 -9 -0.5 0.89
0 -4 -9 0.53 1.09
0 4 -9 2.25 1.83
0 -4 -9 -0.66 1.79
0 4 -9 0.6 1.38
0 -5 -9 -0.75 2.05
0 -5 -9 0.34 0.98
0 5 -9 -0.38 1.1
0 5 -9 -0.28 1
0 5 -9 1.16 1.88
0 5 -9 0.51 0.9
0 5 -9 1.48 1.35
0 -6 -9 97.99 8.11
0 -6 -9 96.2 11.15
0 6 -9 89.63 7.43
0 6 -9 90.73 8.86
0 6 -9 91.99 9.35
0 -6 9 110.28 11.46
0 6 -9 90.17 8.32
0 -7 -9 -2.06 3.67
0 7 -9 2.49 1.92
0 -7 -9 -0.4 1.6
0 7 -9 0.52 1.06
0 -7 9 3.47 2.19
0 7 -9 0.37 1.14
0 -8 -9 507.52 30.73
0 8 -9 537.92 31.52
0 -8 9 535.33 34.9
0 8 -9 516.8 32.56
0 -9 -9 -1.15 3.14
0 -9 -9 -0.52 1.71
0 -9 9 1.82 1.62
0 9 -9 0.54 1.48
0 9 -9 -1.4 1.91
0 -10 -9 6.6 2.63
0 -10 -9 3.16 2.67
0 10 -9 6.73 2.68
0 10 -9 7.31 2.66
0 -10 9 6.54 3.2
0 -10 -9 -1.22 2.81
0 10 9 6.84 2.57
0 -11 -9 2.06 1.87
0 -11 -9 1.97 2.03
0 -11 9 0.96 1.98
0 11 -9 -0.59 1.36
0 11 -9 0.81 2.04
0 -11 -9 3.51 2.95
0 11 9 1.31 1.51
0 -12 -9 9.42 3.38
0 -12 9 9.93 3.71
0 12 -9 7.95 3.31
0 12 -9 5.45 2.37
0 12 9 6.97 2.81
0 -12 -9 11.38 4.08
0 -13 -9 1.83 2.31
0 13 -9 1.26 1.3
0 -13 9 -1.03 2.6
0 13 -9 -0.97 3.16
0 -13 -9 -1.12 1.62
0 13 9 0.74 2.01
0 -14 -9 2.69 2.06
0 -14 9 6.46 3.51
0 14 -9 3.21 2.47
0 14 -9 2.05 1.86
0 -14 -9 -1.1 2.26
0 14 9 3.91 2.67
0 -15 -9 -2.65 2.87
0 -15 9 1.13 2.32
0 15 -9 -1.49 1.89
0 15 -9 1.18 2.98
0 -15 -9 2.17 2.24
0 15 9 -1.67 2.72
0 -16 -9 400.08 29.17
0 -16 9 466.46 32.84
0 16 -9 394.42 29.11
0 16 9 486.5 30.67
0 -17 9 1.25 3.16
0 17 9 -1.96 4.03
0 18 9 281.66 23.87
0 0 -10 101.63 9.76
0 0 -10 108.52 11.37
0 0 -10 102.71 9.57
0 0 -10 121.93 12.6
0 0 -10 90.38 9.84
0 -1 -10 0.38 1.04
0 -1 -10 0.54 1.91
0 1 -10 1.7 1.84
0 1 -10 0.8 1.83
0 -1 -10 -0.82 1.69
0 1 -10 1.59 1.34
0 -1 -10 1.1 1.39
0 -1 -10 0.65 1.76
0 1 -10 -0.82 2.08
0 1 -10 0.65 1.76
0 -1 -10 -3.18 4.09
0 -2 -10 120.51 10.64
0 -2 -10 131.45 11.46
0 2 -10 132.75 11.37
0 2 -10 148.3 12.22
0 2 -10 155.25 13.7
0 -2 -10 123.35 12.96
0 -2 -10 133.84 11.62
0 2 -10 150.06 13.37
0 -2 -10 143.59 12.65
0 -2 -10 148.31 16.25
0 2 -10 156.41 13.23
0 -3 -10 -1.04 3.84
0 -3 -10 1.53 2.62
0 -3 -10 1.67 1.62
0 -3 -10 0.85 2.14
0 3 -10 1.06 1.72
0 3 -10 1.31 2.02
0 3 -10 -0.64 2.46
0 -3 -10 -0.67 2.57
0 -4 -10 1106.16 61.14
0 4 -10 1001.65 59.98
0 -4 -10 1052.9 60.48
0 -4 -10 1079.36 63.86
0 4 -10 1098.48 61.41
0 -4 -10 1080.31 70.76
0 -4 -10 1047.65 61.74
0 4 -10 1018.32 60.6
0 5 -10 -1.92 4.31
0 -5 -10 0.5 3.19
0 5 -10 -0.54 2.14
0 -5 -10 1.13 1.75
0 -5 -10 0.89 2.05
0 5 -10 -0.52 2.12
0 -5 -10 0.7 2.16
0 -6 -10 713.67 42.11
0 -6 -10 637.82 39.31
0 6 -10 642.23 38.91
0 6 -10 694.05 40.55
0 -6 -10 625.54 40.75
0 -7 -10 -0.94 3.48
0 7 -10 -1.1 1.78
0 -7 -10 -5.16 5.88
0 -8 -10 250.72 24.34
0 8 -10 325.54 22.82
0 -8 10 351.55 25.04
0 8 -10 290.05 20.81
0 -8 -10 305.25 28.2
0 9 -10 -0.57 2.21
0 9 -10 -0.78 2.55
0 -9 10 0.98 2.03
0 -9 -10 -1.42 3.87
0 -10 -10 31.71 7.82
0 -10 10 43.3 7.45
0 10 -10 43.66 7.26
0 10 -10 43.67 6.16
0 -10 -10 54.42 9.63
0 -11 -10 4.57 3.33
0 -11 10 1.03 2.38
0 11 -10 0.91 2.3
0 11 -10 1.85 1.68
0 -11 -10 1.27 3.2
0 -12 -10 187.48 19.32
0 12 -10 206.44 16.37
0 12 -10 201.48 19.02
0 -12 10 216.87 19.43
0 -12 -10 228.14 21.02
0 -13 -10 -2 3.26
0 13 -10 -3.25 4.74
0 13 -10 -0.67 2.18
0 -13 10 4.39 2.53
0 13 10 5.16 2.28
0 -14 10 758.37 47.7
0 14 -10 640.7 43.34
0 14 10 711.98 44.12
0 15 10 0.83 3.19
0 0 -11 -1.86 1.43
0 0 -11 -0.86 1.97
0 0 -11 0.55 1.13
0 0 -11 0.91 1.63
0 1 -11 1.26 2.44
0 -1 -11 3.34 2.07
0 1 -11 -0.55 1.95
0 -1 -11 3.49 2.98
0 1 -11 -0.83 1.49
0 1 -11 -1.63 2.38
0 -1 -11 -3.09 5.3
0 2 -11 372.89 25.97
0 2 -11 384.38 25.06
0 -2 -11 405.54 28.24
0 -2 -11 383.3 25.25
0 -2 -11 426.78 31.52
0 2 -11 346.96 26.55
0 3 -11 2.62 4.37
0 3 -11 1.65 1.79
0 -3 -11 0.9 1.86
0 -3 -11 -4.04 6.36
0 4 -11 164.85 14.88
0 -4 -11 189.77 16.84
0 4 -11 179.58 14.13
0 -4 -11 200.43 21.57
0 5 -11 -0.71 3.94
0 5 -11 2.23 1.72
0 -5 -11 -1.87 2.36
0 -5 -11 -1.79 4.51
0 6 -11 96.33 10.37
0 -6 -11 94.66 11.31
0 6 -11 89.19 8.96
0 -6 -11 63.76 14.01
0 -7 -11 -1.68 2.28
0 7 -11 0.57 1.31
0 7 -11 -0.78 2.28
0 -7 -11 1.96 2.02
0 -7 -11 -6.11 4.69
0 -8 -11 85.32 11.72
0 -8 -11 110.42 12.72
0 8 -11 99.05 9.67
0 8 -11 101.91 11.45
0 -9 -11 -1.14 2.62
0 9 -11 1.81 1.64
0 9 -11 -0.88 3.02
0 -10 -11 11.83 4.88
0 10 -11 2.47 1.81
0 11 -11 -1.91 2.46
0 -2 -12 308.94 26.68
-1 0 0 -0.06 0.24
-1 0 0 -0.12 0.3
1 0 0 -0.12 0.37
1 0 0 -0.12 0.34
-1 -1 0 9.63 1.03
-1 -1 0 8.68 1.02
1 1 0 11.89 1.42
-1 -1 0 10.15 1.34
-1 1 0 10.77 1.38
1 -1 0 11.11 1.38
1 -1 0 10.74 1.35
1 1 0 13 1.5
-1 1 0 10.36 1.28
-1 1 0 10.99 1.32
-1 -2 0 0.66 0.47
1 -2 0 0.13 0.43
-1 2 0 -0.13 0.36
1 2 0 -0.26 0.38
1 2 0 -0.27 0.44
1 -2 0 0.64 0.45
-1 2 0 -0.11 0.38
1 -2 0 0.12 0.46
-1 2 0 0.12 0.45
-1 -3 0 4024.32 213.59
-1 -3 0 4133.74 214.04
1 3 0 4255.12 214.07
-1 3 0 3900.4 213.59
1 3 0 4065.43 213.93
1 -3 0 4229.8 214.01
1 -3 0 4333.61 214.12
-1 3 0 3980.36 213.84
-1 4 0 0.12 0.48
1 4 0 0.17 0.56
1 4 0 0.29 0.6
-1 -4 0 0.73 0.49
1 4 0 0.53 0.56
-1 4 0 0.46 0.61
-1 -5 0 7490.85 394.53
1 5 0 7627.15 394.2
1 -5 0 7331.27 394.5
1 5 0 7732.8 394.73
-1 5 0 7502.38 394.41
1 5 0 7607.49 395.03
-1 -5 0 7600.95 393.71
-1 5 0 7638.92 394.83
1 5 0 7666.61 394.55
1 6 0 1.17 0.7
-1 6 0 0.16 0.53
1 6 0 -0.14 0.43
-1 -6 0 0.74 0.54
1 -6 0 0.57 0.64
1 6 0 0.35 0.65
-1 6 0 0.22 0.63
-1 7 0 1934.55 105.04
1 7 0 2021.73 105.66
1 -7 0 1914.39 105.55
1 7 0 1923.29 104.78
-1 -7 0 2040.56 105.64
-1 -7 0 2168.38 105.77
1 7 0 1917.59 105.13
-1 7 0 2070.63 106
-1 8 0 0.22 0.64
1 8 0 0.56 0.71
1 -8 0 0.82 0.85
1 -8 0 -0.28 1.01
1 8 0 0.21 0.58
-1 -8 0 0.29 0.73
1 8 0 -0.29 0.68
-1 -8 0 -1.15 0.98
-1 8 0 0.67 0.91
-1 9 0 108.52 8.13
1 9 0 118.71 8.97
1 -9 0 109.9 8.6
1 -9 0 98.54 8.59
-1 -9 0 116.33 8.39
1 9 0 112.61 8.28
-1 -9 0 119.92 9.14
-1 -9 0 106.56 8.64
-1 9 0 119.77 9.48
-1 -10 0 0.44 0.78
1 -10 0 0.89 1.12
1 10 0 -0.36 0.83
-1 -10 0 1 0.97
1 10 0 0.83 1.13
-1 10 0 0.64 0.87
1 -10 0 1.18 1.07
1 10 0 -0.44 0.75
-1 10 0 0.51 0.92
-1 -10 0 -0.4 0.93
-1 -11 0 38.47 5.42
-1 -11 0 54.75 5.51
1 -11 0 32.23 5.05
1 11 0 29.74 4.68
-1 11 0 62.31 5.7
1 -11 0 53.66 5.82
1 11 0 56.78 6.19
1 11 0 40.09 4.27
1 -11 0 45.3 4.1
-1 -11 0 33.65 4.86
1 -11 0 54.68 4.43
-1 11 0 45.44 6.24
1 12 0 0.43 1
-1 -12 0 -0.54 1.11
1 -12 0 -0.51 1.28
1 -12 0 0.45 1.13
1 -12 0 -0.28 0.47
-1 -12 0 0.95 1.69
-1 12 0 0.92 1.25
1 12 0 0.58 1.7
1 -12 0 -0.54 0.96
-1 -12 0 -1.25 1.03
1 12 0 0.58 0.73
1 12 0 -0.97 1
1 -12 0 -0.18 0.79
1 12 0 -0.51 0.98
-1 -12 0 0.44 1.12
-1 12 0 -0.75 1.9
1 -13 0 2320.16 98.55
1 -13 0 2292.84 98.97
-1 -13 0 2223.75 99.36
1 13 0 2334.39 98.23
1 -13 0 1878.52 98.6
-1 13 0 1998.78 98.45
-1 13 0 1741.57 98.36
1 13 0 1743.29 98.97
-1 -13 0 1792.32 98.98
-1 13 0 2195.56 102.24
1 13 0 1663.09 94.43
-1 -13 0 2368.45 98.36
1 -14 0 -0.43 1.16
-1 -14 0 -0.5 1.54
1 -14 0 0.91 1.49
1 14 0 -0.37 1.14
1 -14 0 1.04 1.42
1 14 0 -0.58 1.79
-1 14 0 0.46 1.5
-1 -14 0 -0.57 1.44
-1 -14 0 1 2.37
1 14 0 -0.73 1.25
1 14 0 0.57 1.76
-1 -14 0 -0.79 1.67
-1 14 0 -1.45 2.48
-1 -15 0 2201.31 102.59
1 -15 0 2098.26 101.65
1 15 0 2103.87 100.86
-1 -15 0 2081.58 102.18
-1 -15 0 2212.78 102.95
1 15 0 2140.26 103.21
1 -15 0 2157.83 102.53
-1 15 0 2264.32 105.47
1 15 0 2115.3 103.39
-1 -15 0 2226.45 101.12
1 16 0 -1.83 1.25
-1 -16 0 0.51 1.5
-1 -16 0 -0.49 2.34
1 -16 0 -0.51 1.57
1 16 0 -1.36 1.41
-1 16 0 0.71 2.19
-1 -16 0 0.37 1.14
1 16 0 0.57 1.55
1 17 0 719.72 34.9
-1 -17 0 846.49 37.18
1 -17 0 832.7 37.09
1 17 0 847.33 38.41
-1 17 0 867.91 40.14
-1 -17 0 869.72 35.41
1 -18 0 0.51 1.39
-1 -18 0 -0.49 1.23
-1 -18 0 -0.49 1.58
1 18 0 -0.76 1.17
-1 18 0 -0.72 1.66
1 18 0 -0.58 1.34
1 -19 0 17.46 3.48
-1 -19 0 18.47 3.5
1 19 0 16.21 2.98
1 19 0 22.72 4.29
-1 19 0 24.94 4.93
1 -20 0 1.04 1.2
-1 -20 0 2.93 1.51
1 20 0 -0.79 0.99
1 -20 0 1.04 0.88
-1 20 0 0.75 1.34
1 20 0 1.23 1.68
1 -21 0 5.32 2.2
-1 -21 0 2.47 1.46
-1 21 0 8.46 3.28
1 -21 0 5.36 1.78
1 21 0 6.37 2.38
1 -22 0 -1.62 2.07
-1 -22 0 -0.5 1.64
1 22 0 0.67 2.08
1 -22 0 0.65 1.15
-1 22 0 2.37 2.44
-1 -23 0 549.57 33.38
1 -23 0 565.6 33.83
1 -23 0 497.52 31.06
1 23 0 554.4 35.24
-1 23 0 606.8 36.85
1 -24 0 2.21 2.21
-1 -24 0 0.52 1.92
-1 24 0 1.37 2
1 24 0 -0.74 2.86
-1 24 0 4.16 3.31
1 -25 0 726.83 44.12
-1 -25 0 685.82 43.33
1 25 0 756.66 46.28
-1 25 0 809.43 47.59
-1 -26 0 4.67 2.21
1 -26 0 1.12 1.83
1 -27 0 99.86 10.73
-1 -27 0 123.7 10.9
-1 0 1 0.3 0.46
1 0 1 -0.13 0.47
1 0 -1 0.11 0.37
-1 0 -1 0.27 0.46
1 0 1 -0.17 0.52
1 0 -1 -0.08 0.3
-1 0 -1 -0.15 0.57
1 0 -1 0.31 0.62
-1 -1 1 42.93 3.57
-1 -1 1 47.76 3.7
1 1 -1 43.79 3.38
1 -1 1 46.13 3.58
-1 1 1 44.41 3.29
-1 -1 -1 46.69 3.54
1 -1 -1 46.14 3.33
-1 1 -1 46.24 3.6
-1 1 -1 41.69 3.57
-1 -1 -1 46.92 3.82
1 1 1 50.38 3.91
1 1 -1 44.29 3.09
1 -1 1 48.97 3.77
1 -1 -1 44.98 3.2
-1 1 1 46.52 3.78
1 -1 -1 46.59 3.7
-1 1 -1 42.66 2.93
1 1 1 52.5 3.69
-1 -2 1 37.69 3.14
-1 -2 1 34.99 3.05
1 2 -1 40.76 3.08
-1 -2 -1 37.59 3.03
1 -2 -1 36.14 2.9
1 -2 -1 34.69 2.73
-1 2 -1 32.98 3.04
-1 2 1 35.99 2.85
-1 -2 1 35.57 2.53
-1 2 -1 33.36 2.99
1 2 1 35.63 3.3
-1 -2 -1 33.03 3.16
1 -2 1 37.86 3.2
1 2 -1 32.18 2.53
-1 2 -1 37.12 2.51
1 -2 1 30.63 2.37
1 2 1 37.26 3.16
1 -2 1 34.19 3.26
1 -2 -1 34.23 3.07
-1 -2 -1 36.74 3.17
-1 2 -1 36.3 3.27
-1 2 1 35.53 3.21
-1 -3 1 324.89 18.5
-1 -3 -1 338.25 17.54
-1 3 -1 379.24 18.87
-1 -3 1 351.65 18.62
-1 -3 -1 338.25 18.38
1 3 -1 335.23 18.5
1 3 -1 323.8 17.79
-1 3 1 326.43 18.25
1 -3 -1 326.06 18.35
-1 -3 -1 323.02 18.53
-1 -3 1 326.17 17.69
1 -3 1 338.57 18.62
-1 -3 1 328.24 17.81
-1 3 -1 323.06 18.33
-1 -3 -1 328.47 18.84
1 3 1 343.94 18.75
-1 -3 -1 346.52 18.91
-1 3 -1 314.68 17.78
1 -3 1 346.33 18.95
1 -3 -1 332.55 18.51
1 -3 1 332.42 17.77
-1 3 -1 334.69 18.89
-1 3 1 324.35 18.62
-1 4 -1 66.01 5.13
-1 -4 1 53.84 4.29
-1 -4 1 49.43 4.25
-1 -4 -1 65 3.96
1 4 1 53.42 3.3
1 -4 -1 55.63 4.38
-1 -4 -1 47.32 4.09
-1 4 -1 49.99 3.7
-1 -4 1 54.27 3.82
-1 4 1 51.29 3.97
-1 -4 -1 56.67 4.23
-1 4 1 57.63 4.24
1 4 -1 56.44 3.87
1 4 1 50.17 4.35
-1 -4 -1 50.54 4.47
-1 -4 1 52.44 3.81
-1 4 1 54.63 4.43
1 -4 -1 46.44 4.07
1 -4 1 53.88 3.87
1 4 1 59.03 4.62
-1 4 -1 52.8 3.89
1 -4 1 53.6 4.54
1 -5 1 2.51 1.39
-1 5 -1 2.95 1.18
-1 -5 -1 2.68 0.86
-1 -5 1 2.94 0.91
1 5 1 2.53 0.66
1 -5 -1 4.01 1.1
-1 5 1 3.12 0.9
-1 -5 1 3.3 0.85
-1 5 -1 2.08 0.65
1 5 1 2.24 0.88
-1 -5 -1 3.85 0.97
1 5 -1 2.87 0.85
-1 -5 -1 3.57 1.01
1 -5 1 8.26 2.24
-1 5 -1 3.66 0.93
1 -5 1 4.57 1.08
-1 5 1 1.97 0.86
1 5 1 1.64 0.97
1 -5 1 1.75 0.97
1 -5 1 2.29 1.68
1 -5 -1 2.14 0.85
-1 -6 -1 374.33 20.69
1 6 1 265.82 19.68
-1 6 -1 284.2 21.56
-1 -6 1 350.33 20.35
1 -6 1 278.4 21.66
1 6 1 355.3 20.47
-1 -6 1 398.49 20.53
1 6 -1 365.12 20.11
1 6 1 350.79 20.2
-1 6 1 361.96 20.35
-1 -6 -1 362.94 20.24
-1 6 -1 324.99 19.36
-1 -6 -1 350.93 20.15
1 6 1 424.51 22.53
1 -6 1 402.01 22.65
1 -6 -1 337.24 20.12
-1 6 1 352.37 20.59
1 -6 1 429.99 21.53
1 -6 1 359.71 20.63
1 -6 1 398.75 23.62
-1 6 -1 374.32 20.55
1 6 -1 337.32 19.31
-1 -7 -1 108.28 9.32
-1 -7 1 131.79 9.17
1 -7 1 118.49 10.46
-1 7 -1 103.05 10
-1 -7 -1 139.4 8.41
1 7 1 118.14 8.76
1 7 1 140.29 9.21
-1 7 1 138.62 9.26
1 7 -1 146.59 9.39
-1 -7 -1 148.52 9.21
-1 -7 1 138.36 9.62
1 7 1 139.35 9.33
1 -7 1 132.3 8.51
-1 7 -1 136.17 8.37
1 7 1 154.63 10.49
1 -7 1 135.37 10.37
-1 -7 -1 127.09 8.78
-1 7 1 134.9 9.45
1 7 1 147.6 11.44
1 -7 -1 119.12 8.78
1 -7 1 162.36 10.31
-1 7 -1 142.26 9.78
1 -7 1 136.38 11.04
1 7 -1 125.98 8.17
1 8 -1 314.73 17.84
1 -8 1 293.85 19.37
1 8 1 311.49 17.57
-1 8 -1 284.11 19.21
-1 -8 1 328 18.42
-1 -8 -1 319.72 17.54
1 -8 -1 285.84 17.36
-1 -8 -1 225.27 18.08
-1 -8 -1 311.2 18.04
1 8 1 308.23 18.35
-1 -8 1 214.76 18.13
1 -8 1 318.47 17.51
1 8 1 309.66 18.22
1 8 -1 327.72 18.64
-1 8 -1 301.91 17.15
-1 8 1 309.41 18.37
1 8 1 304.59 18.84
1 -8 1 275.46 18.83
1 -8 1 285.05 19.45
1 8 -1 291.02 16.96
-1 8 1 300.02 18.57
-1 8 -1 330.66 19.53
1 -8 -1 279.2 17.66
1 8 1 332.9 20.25
-1 -8 -1 260.58 19.27
1 -9 1 33.37 4.44
-1 -9 1 35.3 4.04
1 9 -1 32.2 3.5
-1 -9 -1 31.55 3.5
-1 -9 -1 32.75 3.96
-1 9 -1 32.96 4.32
1 -9 -1 29.11 3.29
-1 9 -1 38.16 3.4
-1 9 1 40.26 4.34
-1 -9 -1 35.79 3.83
1 9 1 39.49 4.19
1 9 -1 27.84 3.89
1 -9 1 37.59 3.6
1 9 1 33.87 4.07
-1 -9 1 28.96 5.01
1 -9 1 33.49 4.22
1 9 1 36.58 4.14
-1 9 -1 32.33 4.49
-1 9 1 29.37 4.14
1 9 -1 29.49 3.01
-1 -9 -1 21.31 3.98
1 9 1 33.43 4.48
1 -9 -1 30.42 3.54
1 -9 1 27.07 4.06
-1 9 1 37.66 4.38
1 -10 1 10.02 2.33
1 10 -1 8.73 1.82
-1 -10 1 8.89 2.14
1 -10 1 7.82 2.2
-1 10 -1 6.04 1.8
1 10 1 8.1 2.2
-1 -10 -1 7.54 1.87
1 -10 -1 8.19 1.75
1 10 1 6.61 1.5
-1 10 1 6.08 1.9
-1 -10 -1 4.14 1.55
-1 10 -1 7.89 1.65
1 10 -1 5.86 2.16
-1 -10 -1 6.3 1.75
1 -10 1 7.95 1.74
1 10 1 10.09 2.32
1 -10 -1 7.73 2.34
1 10 1 5.97 2
-1 10 1 9.14 2.74
-1 -10 1 4.41 2.08
1 10 1 5.55 1.69
1 -10 1 9.17 2.18
-1 10 1 12.23 2.39
-1 10 1 10.09 2.53
-1 -10 -1 5.75 2.18
-1 -10 1 6.11 2
-1 10 -1 4.8 2.26
1 -11 1 201.29 13.71
-1 -11 -1 140.54 12.62
1 -11 -1 218.08 13.24
-1 -11 -1 218.05 13.59
-1 -11 1 240.08 14.88
1 11 -1 203 13.41
1 -11 -1 140.36 13.85
1 11 1 226.26 14.64
-1 11 -1 212.3 13.03
-1 11 1 185.55 14.15
1 11 -1 152.47 13.54
1 -11 1 231.69 13.61
1 11 1 140.15 13.14
1 -11 1 179.53 12.68
1 11 1 189.35 12.41
-1 11 1 172.4 13.68
-1 -11 1 185.34 14.17
1 -11 1 172.37 12.84
-1 -11 -1 209.1 14.52
-1 11 -1 204.35 15.17
1 11 1 198.42 13.45
-1 -11 1 190.09 13.06
-1 11 1 242.62 15.73
-1 11 1 169.86 12.73
1 -12 1 2.78 1.49
-1 -12 1 3.83 1.79
1 -12 -1 2.8 1.44
1 -12 1 5.04 1.63
1 12 -1 3.95 1.7
1 12 1 3.97 1.3
-1 -12 -1 4.71 1.51
1 12 1 4.69 1.56
1 12 -1 6.65 2.09
1 12 1 4.3 1.85
-1 12 1 5.06 2.25
-1 12 -1 3.76 1.47
-1 -12 1 5.41 1.93
1 -12 1 6.47 1.87
1 -12 -1 2.21 1.62
-1 -12 -1 3.45 1.69
-1 -12 -1 6.52 1.95
1 12 1 2.77 1.73
-1 12 1 3.11 1.66
-1 12 -1 2.54 1.52
1 12 1 4.12 1.32
1 -12 1 4.8 1.52
-1 -12 1 4.79 1.97
-1 12 -1 4.8 1.5
-1 12 -1 5.13 1.87
-1 12 1 5.36 2.77
-1 -12 -1 5.12 1.63
-1 12 1 3.01 1.3
-1 -12 -1 5.17 2.01
-1 -12 1 3.88 1.42
1 -13 1 275.97 15.57
-1 -13 1 247.3 17.35
-1 -13 -1 269.81 15.26
1 13 -1 236.89 16.25
-1 -13 -1 240.45 14.9
1 -13 -1 252.91 16.11
-1 13 1 218.59 16.27
1 13 -1 256 16
1 -13 -1 265.5 16.75
-1 -13 -1 229.07 17.16
-1 13 -1 205.78 15.02
1 13 1 223.81 16.65
1 -13 1 223.97 15.46
-1 -13 1 212.42 15.21
-1 -13 -1 190.34 13.21
-1 13 1 214.2 13.85
-1 -13 1 230.52 14.59
1 13 -1 204.9 12.86
-1 13 -1 211.8 14.37
-1 13 -1 222.52 13.23
-1 -13 -1 211.19 13.38
1 -13 -1 135.43 11.86
-1 13 1 216.77 13.42
-1 13 -1 279.22 17.41
1 13 1 244.12 13.89
-1 -13 -1 284.95 16.23
-1 -13 1 231.97 13.5
-1 13 1 243.54 18.5
-1 -14 -1 26.43 3.59
1 14 -1 15.47 2.58
-1 -14 1 28.68 5.21
1 14 1 18.42 2.86
1 -14 1 33.44 4.2
1 -14 -1 23.51 4.26
1 14 -1 20.82 4.48
1 -14 1 16.05 3.5
-1 -14 -1 24.87 4.67
1 14 -1 26.9 4.09
-1 -14 1 26.39 3.91
1 -14 -1 31.77 4.56
-1 -14 -1 26.86 3.72
1 14 1 13.09 3.97
1 14 1 9.77 3.15
-1 14 -1 17.72 2.65
-1 14 -1 33.59 5
-1 -14 -1 26.75 3.94
-1 14 1 22.85 5.12
-1 -15 1 92.03 9.77
1 15 1 90.1 7.25
1 -15 -1 81.98 8.69
1 15 -1 93.82 9.28
-1 -15 -1 105.78 8.35
1 -15 -1 102.14 9.11
1 -15 1 81.18 8.49
1 15 -1 98.35 8.74
-1 -15 1 98.13 8.29
-1 -15 -1 93.78 9.53
-1 -15 -1 109.51 8.77
-1 15 1 94.87 11.11
-1 15 -1 113.3 10.05
1 16 1 8.72 1.96
-1 -16 -1 9.82 2.29
1 -16 -1 7.2 2.39
1 16 -1 12.04 3
-1 -16 -1 13.38 3.21
1 -16 1 6.66 2.2
1 -16 -1 4.75 2.06
-1 -16 -1 4.73 1.84
-1 -16 1 9.29 2.22
1 16 1 0.55 1.73
1 16 -1 4.67 2.59
-1 16 1 10.52 3.95
-1 -16 -1 6.54 2.03
-1 16 -1 9 2.78
1 17 -1 210.82 14.33
1 -17 -1 206.8 14.43
-1 -17 -1 229.67 15.34
-1 -17 1 227.89 13.57
1 -17 1 255.54 15.06
-1 17 1 232.22 17.73
1 17 -1 210.86 15.64
-1 17 -1 225.93 15.67
-1 -17 -1 223.41 13.84
-1 -18 1 15.86 3.02
1 -18 1 14.28 3.21
-1 -18 -1 20.25 3.96
1 -18 -1 24.81 4.14
-1 -18 -1 14.46 3.11
1 18 -1 18.64 3.56
1 18 -1 13.51 3.73
-1 -18 -1 18.03 3.34
1 -18 1 15.68 2.33
-1 18 -1 17.97 3.95
-1 18 1 25.94 5.24
-1 -19 -1 74.45 7.93
-1 -19 1 80.41 7.15
1 -19 1 82.62 7.75
1 -19 -1 67.69 7.57
1 19 -1 69.05 7.3
-1 -19 -1 67.66 7.07
1 -19 1 62.85 5.47
-1 -19 -1 74.23 7.07
1 19 -1 79.55 8.76
-1 19 -1 74.78 8.57
-1 19 1 83.9 9.68
1 20 -1 11.3 2.92
1 -20 1 13.2 2.99
-1 -20 -1 9.61 3.02
1 -20 -1 7.82 2.7
-1 -20 1 9.38 2.48
-1 20 1 8.83 3.26
1 -20 1 13.31 1.99
1 20 -1 8.37 3.02
-1 20 -1 13.07 3.52
-1 -20 -1 13.16 2.72
-1 20 1 10.83 3.68
1 21 -1 312.11 21.11
1 -21 -1 358.69 22.56
-1 -21 -1 331.44 22.09
1 -21 1 328.37 21.4
-1 -21 1 328.66 20.8
-1 21 1 288.21 23.22
1 -21 1 282.46 18.33
-1 21 1 338.89 24.66
-1 21 -1 358.56 23.96
1 -21 -1 323.51 21.11
1 21 -1 330.53 23.04
-1 -21 -1 343.1 20.95
1 22 -1 13.78 3.36
1 -22 -1 25.04 4.31
-1 -22 1 26.94 3.91
1 -22 1 17.15 3.6
-1 -22 -1 18.35 3.86
-1 22 1 15.78 4.07
-1 -22 -1 20.44 3.55
1 -22 1 16.75 2.2
1 22 -1 17.44 4.2
-1 22 1 32.56 5.87
1 -22 -1 19.84 3.55
-1 22 -1 23.68 4.8
1 23 -1 83.7 9.1
1 -23 1 102.9 9.76
1 -23 -1 124.67 10.97
-1 -23 1 116.67 9.61
-1 -23 -1 119.28 10.62
-1 23 1 100.32 11.26
1 -23 -1 107.89 9.3
-1 23 1 122.13 12.49
1 23 -1 111.35 10.98
-1 23 -1 101.26 11.24
1 -24 -1 17.6 3.84
-1 -24 1 14.77 3.11
1 -24 1 18.79 3.48
-1 -24 -1 18.18 3.91
-1 24 1 9.03 3.65
-1 24 -1 15.82 4.31
1 24 -1 13.7 3.95
1 -24 -1 17.7 3.32
-1 24 1 25.06 5.59
1 -25 -1 212.23 16.13
-1 -25 -1 219.28 16.14
1 -25 1 195.99 14.9
-1 -25 1 181.91 14.27
-1 25 1 206.59 18.06
1 25 -1 212.62 17.13
-1 25 -1 209.89 17.5
-1 -26 -1 1.19 1.5
1 -26 1 2.46 1.52
1 -26 -1 0.62 1.57
-1 -26 1 1.32 1.36
1 -26 1 -0.81 2.05
-1 26 -1 3.34 2.28
1 -27 -1 62.56 7.9
-1 -27 -1 55.76 7.58
-1 -28 -1 5.34 3.3
1 0 -2 6.12 1.43
-1 0 -2 5.14 0.64
1 0 2 -1.55 4.51
-1 0 -2 6.09 2.12
-1 0 -2 4.58 0.86
-1 0 2 5.23 1.3
-1 0 -2 4.2 0.94
1 0 -2 6.04 1
1 0 2 4.35 0.94
-1 0 2 3.69 0.81
1 0 -2 4.54 0.85
1 0 2 6.32 5.97
-1 0 -2 3.98 1.13
-1 0 -2 3.64 5.31
-1 0 2 6.25 1.84
-1 0 -2 5.54 1.22
-1 0 -2 4.72 7.07
1 0 -2 8.21 1.54
-1 1 -2 5791.77 369.1
-1 -1 -2 8017.83 367.03
1 1 -2 7251.34 368.15
-1 1 -2 6912.06 366.71
-1 1 -2 7601.72 366.55
1 1 -2 7285.02 367.97
1 1 2 6805.56 366.29
-1 1 -2 7096.03 366.64
1 -1 -2 6990.36 367.97
1 -1 2 6890.29 366.77
1 -1 2 7544.4 367.27
-1 -1 2 7153.33 368.23
1 -1 2 6761.01 366.41
-1 1 2 6829.08 366.8
-1 -1 2 6861.14 366.72
-1 1 -2 7056.3 367.46
1 -1 -2 7083.38 366.71
-1 1 2 6917.47 366.64
-1 -1 -2 7041.2 367.27
1 1 -2 7065.04 366.99
1 -1 -2 7001.04 367.09
1 1 2 6944.47 367.18
-1 -1 -2 7063.67 367.92
1 1 2 5832.05 374.53
-1 -1 2 7357.38 368.73
-1 1 2 7821.72 370.32
1 -1 2 6536.2 376.81
-1 -1 -2 7628.58 376.73
1 1 -2 6869.54 366.16
-1 1 -2 7248.61 367.69
-1 1 -2 6808.11 375.75
-1 1 -2 6893.28 367.22
-1 -1 -2 8236.67 381.55
1 1 2 5057.15 376.15
-1 -1 2 7162.64 366.34
-1 1 -2 4976.56 376.75
1 -1 -2 6995.96 367.74
-1 1 2 6592.85 367.83
-1 -1 -2 7078.16 367.92
1 1 2 7459.37 366.25
1 -1 2 7648.22 379.85
1 -2 2 3.67 0.72
-1 -2 2 3.47 1.04
1 -2 2 10.96 4.52
1 -2 2 3.36 0.76
1 2 -2 4.41 1.11
1 -2 2 3.73 0.77
1 2 -2 3.7 1.08
-1 2 -2 2.68 0.65
-1 2 -2 2.22 1.89
-1 -2 2 3.48 1.21
-1 2 -2 2.41 0.77
1 -2 2 2.74 1.18
1 2 2 3.01 0.78
1 2 -2 3.68 0.94
1 -2 -2 3.16 0.65
-1 2 -2 3.32 0.91
-1 -2 -2 2.91 0.77
-1 -2 2 3.07 0.65
1 -2 -2 3.38 0.88
-1 2 2 5.05 1.54
-1 2 2 4.4 0.76
-1 -2 -2 1.11 0.84
1 2 2 4.44 2.75
-1 2 -2 2.47 2.82
-1 2 -2 1.81 0.77
-1 -2 2 4.56 1.25
1 2 2 3.83 1.22
-1 -2 -2 4.8 1.36
1 -2 2 5.18 1.19
-1 2 -2 5.72 1.35
-1 -2 2 2.67 0.66
1 -2 -2 4.12 1.14
-1 2 2 2.68 1.09
1 2 2 2.46 0.84
-1 2 2 3.4 3.3
1 2 2 3.44 1.32
1 3 -2 310.53 17.33
1 3 -2 283.13 17.24
-1 -3 2 295.75 17.48
1 -3 2 282.72 16.36
-1 3 -2 327.98 17.45
-1 3 -2 334.26 19.77
1 -3 2 283.15 16.35
1 -3 2 287.14 16.35
-1 -3 2 291.64 17.48
1 3 -2 284 17.31
1 -3 -2 288.57 17
1 -3 -2 276.52 15.98
-1 3 2 275.25 16.02
-1 -3 -2 278.98 17.18
-1 -3 -2 288.59 16.58
1 3 -2 284.36 15.7
1 3 2 296.57 16.6
-1 3 2 256.52 17.69
-1 3 -2 426.19 23.85
1 3 2 351.58 23.03
-1 -3 2 327.31 17.37
-1 3 -2 275.68 16.86
-1 -3 2 291.14 26.35
-1 -3 -2 271.13 17.37
-1 3 2 285.17 17.34
-1 3 -2 293.22 15.85
1 -3 2 288.6 17.71
1 -3 2 379.36 25.15
-1 3 2 349.75 24.59
1 3 2 277.21 17.34
-1 3 -2 294.88 17.68
1 -3 -2 285.3 17.08
1 -3 2 322.35 16.81
-1 -3 -2 324.81 18.34
1 4 -2 1.89 0.84
1 -4 2 2.5 0.83
1 4 -2 2.79 0.96
1 -4 2 2.59 2.18
1 -4 2 1.89 0.61
-1 4 -2 5.11 1.76
-1 -4 2 2.22 0.92
-1 -4 2 2.58 0.93
-1 4 2 1.55 0.54
-1 -4 -2 3.01 0.95
-1 4 2 2.3 1.11
1 -4 -2 1.83 0.79
1 4 -2 1.9 0.53
-1 4 2 1.3 0.75
-1 -4 -2 2.43 0.76
1 4 2 2.62 0.75
-1 4 -2 1.91 0.77
1 4 2 2.8 2.16
-1 -4 2 2.44 3.08
-1 -4 2 2.49 0.87
-1 -4 2 2.17 0.45
-1 -4 -2 2.34 0.93
1 4 -2 0.26 0.77
-1 -4 -2 2.54 1.09
-1 4 2 2.56 2.16
-1 4 2 2.18 0.94
1 -4 -2 0.41 0.65
-1 4 -2 2 0.93
-1 -4 -2 0.73 0.92
1 4 2 1.04 1.02
1 -4 2 3.03 1.21
1 -4 2 2.35 0.75
-1 4 -2 2.63 0.73
1 5 -2 99.5 7.18
-1 -5 2 88.17 7.16
1 -5 2 110.04 7.36
-1 -5 2 97.55 7.38
-1 5 -2 113.4 8.92
-1 -5 2 101.66 7.61
-1 -5 -2 94.76 7.05
-1 5 2 109.23 8.02
-1 5 2 100.14 7.41
-1 -5 -2 94.75 6.63
-1 5 2 86.59 6.21
1 5 2 105.95 6.82
1 5 -2 97.93 6.48
1 -5 -2 104.07 7.64
1 5 2 98.98 7.45
1 5 -2 114.83 7.5
-1 -5 -2 105.32 7.95
-1 -5 -2 92.18 7.45
-1 5 -2 91.29 6.75
1 5 2 107.64 10.33
-1 -5 2 107.53 12.97
1 -5 2 100.15 10.35
1 5 2 114.62 11.52
-1 5 2 84.98 7.14
1 5 2 91.09 7.92
-1 5 -2 103.01 7.7
1 -5 2 107.28 11.23
-1 -5 -2 90.55 8.43
1 -5 -2 92.34 6.95
1 -5 2 101.94 7.77
-1 5 -2 106.02 7.02
1 -5 2 104.47 6.42
-1 5 2 102.32 10.92
-1 -5 2 112.44 11.25
1 -6 2 0.3 0.61
-1 -6 2 -0.27 0.78
1 6 -2 1.21 0.61
-1 6 -2 0.4 0.92
1 -6 2 -0.74 1.71
1 6 2 0.75 1.1
-1 -6 2 -0.3 0.53
-1 -6 -2 0.98 0.44
-1 6 -2 0.65 0.45
1 6 2 0.18 0.46
-1 6 2 0.58 0.56
1 6 2 1.89 1.04
1 -6 -2 0.33 0.6
-1 6 2 0.88 0.86
-1 -6 -2 0.7 0.48
-1 6 2 2.45 1.22
1 6 -2 1.62 0.75
-1 -6 -2 0.63 0.8
1 6 2 0.6 1.37
1 -6 2 2.56 1.75
1 6 -2 0.21 0.65
-1 6 2 -0.97 2.65
-1 -6 2 1.03 1.83
1 -6 2 0.96 0.7
1 6 2 0.35 0.73
-1 6 -2 1.63 0.97
-1 6 2 1.44 0.94
1 -6 2 1.72 0.54
-1 6 2 0.72 1.81
1 -6 2 1.92 1.09
1 -6 -2 0.45 0.73
-1 -6 2 0.72 1.67
1 -7 2 342.37 20.66
-1 -7 2 324.93 20.02
-1 -7 -2 315.95 19.21
-1 -7 -2 314.9 17.97
-1 7 -2 361.34 20.99
1 7 -2 330.87 19.27
-1 -7 2 330.23 19.63
-1 -7 -2 317.76 19.1
-1 7 2 354.67 20.03
1 7 -2 305.22 19.28
-1 7 -2 301.1 17.8
1 -7 -2 345.7 20.77
1 7 2 319.19 19.53
1 7 2 328.04 18.78
-1 7 2 343.52 20.28
1 -7 2 337.7 19.4
-1 7 2 310.82 24.63
-1 -7 2 349.73 25.7
-1 -7 -2 328.43 19.88
1 7 2 334.86 22.02
1 -7 2 351.12 22.57
1 7 -2 308.24 18.49
-1 -7 2 373.64 23.66
-1 7 2 333.78 23.05
1 7 2 330.41 20.39
-1 7 2 337.55 19.92
-1 7 -2 243.59 19.46
1 -7 2 337.47 20.27
1 -7 -2 281.54 18.81
1 -7 2 332.75 23.26
1 7 2 356.17 23.68
1 -8 2 0.48 0.99
-1 -8 2 0.36 0.52
-1 -8 2 0.64 0.74
1 -8 2 1.33 1.37
1 8 -2 0.27 0.69
1 -8 2 0.4 1.6
1 8 2 0.67 1.54
-1 -8 -2 -0.26 0.79
-1 8 -2 -0.4 1.17
-1 -8 -2 -0.38 0.82
1 8 2 -0.23 0.63
1 8 2 1.25 0.97
-1 8 2 0.8 1.24
-1 8 2 1.28 1.09
1 -8 -2 0.95 1.38
-1 -8 -2 0.27 0.74
-1 8 -2 0.27 0.52
1 8 -2 0.35 1.01
1 8 2 -0.52 1.77
-1 -8 -2 0.33 0.69
1 -8 2 -0.56 1.54
-1 -8 2 0.91 2.29
-1 8 2 0.85 2.14
1 8 -2 -0.17 0.65
1 -8 2 0.58 0.59
1 8 -2 0.11 0.44
-1 -8 2 1.27 1.31
1 8 2 -0.38 0.87
-1 8 2 -0.63 1.59
1 -8 2 0.4 1.01
-1 8 -2 0.4 1.17
-1 8 2 0.71 0.82
1 -8 -2 0.26 0.71
-1 -9 -2 3580.79 233.45
-1 -9 -2 4783.08 234.72
-1 -9 2 5010.72 235.73
1 -9 2 3207.27 235.58
1 -9 2 4989.39 236.36
-1 9 -2 5057.11 236.39
-1 9 -2 4751.85 233.34
-1 9 2 4932.66 235.44
1 9 -2 3496.22 234.88
-1 -9 -2 4816.03 235.06
1 9 2 4995.93 234.78
-1 9 2 4605.87 236.8
1 9 2 4956.7 235.64
1 -9 2 4941.82 235.44
1 9 -2 3731.25 232.87
-1 -9 -2 4115.38 235.06
1 9 2 4511.53 236.73
1 -9 2 4515.05 237.19
-1 9 2 4478.11 239.95
-1 -9 2 4484.95 240.94
-1 9 -2 4247.77 239.47
-1 -9 -2 4264.78 238.99
1 9 -2 4603.75 232.91
-1 -9 2 4588.54 238.22
-1 -9 -2 4303.66 237.86
-1 -9 -2 4204.09 237.47
-1 9 2 4440.83 237.94
-1 9 -2 4465.99 235.89
1 -9 -2 4488.41 234.59
-1 9 -2 4290.34 237.76
1 9 2 4979.61 236.26
1 -9 2 6084.47 238.17
-1 9 2 4830.56 236.11
1 -9 2 4398.18 238.13
1 9 2 4683.7 238.59
1 -10 2 0.48 1.48
1 -10 -2 1.57 0.95
1 -10 2 1.8 1.85
-1 -10 2 1.57 1.15
1 10 2 0.6 1.52
-1 10 -2 0.82 1.04
-1 -10 -2 1.93 1.03
1 10 2 1.17 1.45
1 10 2 1.86 1.11
1 -10 2 -0.4 2.19
1 10 -2 2.28 1.56
-1 -10 -2 2.13 1.09
-1 10 2 1.07 1.75
-1 10 -2 0.58 0.75
-1 10 2 -0.34 1.11
-1 -10 -2 2.66 1.19
-1 -10 -2 0.7 1.77
1 10 -2 0.94 0.68
-1 -10 2 0.82 2.07
-1 10 -2 -0.75 2.05
1 10 2 0.46 1.49
1 -10 2 1.45 0.99
-1 10 2 2.24 1.89
1 -10 2 4.06 1.81
-1 -10 -2 3.52 2.34
-1 10 -2 3.73 1.65
1 -10 2 1.51 1.47
1 10 -2 1.69 0.77
-1 10 2 1.36 1.48
-1 -10 -2 2.85 1.66
-1 -10 2 2.88 1.87
-1 10 2 1.71 1.86
1 10 2 2.87 1.74
1 -10 -2 2.98 1.44
-1 10 -2 -1.7 2.19
1 11 -2 2535.68 130.55
1 -11 -2 2233.65 129.22
-1 -11 2 2784.42 131.93
1 -11 2 2393.13 131.49
1 -11 2 2527.26 131.16
-1 -11 -2 2457.27 129.71
-1 -11 -2 2415.62 129.27
-1 11 -2 2605.01 131.43
1 11 2 2763.47 130.97
-1 11 2 1990.68 132.04
-1 11 2 2632.84 130.67
1 11 -2 2445.69 130.66
-1 -11 -2 2495.77 130.63
1 11 2 2779.88 132
-1 11 -2 2535.82 129.39
-1 11 -2 2188.49 133.28
-1 -11 2 2290.39 134.25
1 -11 2 2240.63 131.27
1 11 2 2184.24 130.65
-1 11 2 2294.74 133.41
1 -11 2 2754.58 131.69
-1 -11 -2 2215.42 132.87
1 11 2 2567.72 131.42
-1 11 -2 2596.06 131.48
-1 -11 2 2329.29 132.06
1 11 2 2307.08 132.26
-1 11 2 2323.54 132.03
1 -11 2 2253.69 132.15
-1 11 2 2766.47 132.86
1 -11 -2 2427.56 130.33
-1 -11 -2 2448.22 132.38
1 -11 2 2804.36 133.69
-1 -11 -2 2203.13 131.85
-1 11 -2 2177.73 131.58
-1 12 -2 1.28 0.88
1 12 2 0.53 1.44
-1 -12 -2 1.8 0.98
1 -12 -2 1.77 1.51
-1 -12 2 0.51 1.49
1 -12 -2 0.89 1.14
1 -12 2 -0.46 1.24
1 12 -2 0.82 1.12
1 12 2 3.59 1.75
-1 12 2 3.73 2.02
-1 -12 -2 2.15 1.25
-1 -12 -2 -0.26 1.25
-1 12 -2 2.53 1.08
-1 12 2 0.36 1.18
1 -12 2 -0.41 1.65
-1 -12 2 0.33 0.97
1 12 -2 -1.15 1.19
1 12 2 1.28 1.07
1 -12 2 1.79 1.53
1 12 2 2.36 1.62
-1 12 -2 0.68 1.4
-1 -12 -2 1.23 1.8
1 -12 2 0.49 1.12
-1 -12 2 -0.73 1.85
-1 12 2 1.3 1.77
-1 -12 -2 0.54 1.35
1 12 2 1.78 1.38
1 -12 -2 -0.39 0.98
-1 12 -2 1.44 1.31
-1 12 2 0.52 1.31
-1 -12 2 -0.52 1.07
1 -12 2 0.64 1.48
-1 -12 -2 0.51 1.38
-1 12 2 -0.62 1.9
-1 12 -2 0.9 1.46
-1 -13 -2 293.23 17.36
1 13 -2 310.71 19.18
1 -13 2 310.35 18.67
-1 -13 2 301.69 19.99
1 -13 -2 283.75 17.55
-1 -13 -2 303.08 17.14
1 13 2 303.84 20.15
-1 13 -2 203.37 17.08
-1 13 2 301.64 18.15
-1 -13 2 297.77 17.35
1 -13 -2 328.31 20.12
1 13 2 313.38 19.53
1 13 -2 291.51 18.11
-1 -13 -2 192.9 19.28
1 -13 2 313.78 17.67
-1 -13 -2 295.78 19.24
-1 13 -2 244.66 19.23
1 -13 2 332 20.45
-1 -13 2 267.58 20.06
1 -13 -2 251.92 17.1
-1 13 2 265.36 19.38
1 13 -2 251.25 17.46
-1 -13 -2 238.28 18.54
-1 13 2 329.85 21.81
-1 13 -2 269.83 18.05
-1 -13 -2 241.08 17.95
1 -13 2 350.9 22.47
-1 13 -2 298.77 19
1 13 2 301.83 18.99
1 -13 -2 261.71 18.62
-1 -13 -2 293.69 19.29
1 -13 -2 251.21 17.57
-1 13 2 244.98 18.23
-1 -13 2 263.25 18.48
-1 -14 2 4.13 2.13
1 -14 -2 1.27 1.3
1 14 -2 -0.45 1.23
1 14 -2 2.83 1.84
-1 -14 -2 1.96 1.01
1 -14 -2 1.26 0.98
1 -14 -2 2.26 1.42
1 14 -2 0.4 1.16
1 -14 2 -0.39 0.8
-1 -14 -2 0.29 1.32
-1 -14 2 0.9 0.82
-1 14 2 1.98 1.29
-1 -14 -2 4.25 1.98
-1 -14 -2 1.5 1.72
1 14 2 1.76 1.71
1 -14 2 0.89 1.3
-1 -14 -2 2.23 1.59
1 -14 -2 -1.14 1.25
1 14 -2 1.69 1.3
-1 -14 2 1.75 1.9
-1 14 2 1.96 1.75
1 -14 2 2.71 1.71
1 14 2 -0.87 2.2
-1 14 -2 2.79 1.81
1 14 2 0.97 1.22
-1 -14 2 1.68 1.3
-1 14 -2 0.7 1.2
1 -14 2 0.74 0.45
-1 -14 -2 -0.52 1.31
-1 14 -2 -0.49 1.13
-1 14 2 2.59 2.18
-1 14 2 2.99 1.53
-1 -14 -2 3.47 1.64
1 15 -2 52.71 6.9
1 -15 -2 48.27 5.83
-1 -15 -2 48.46 5.04
-1 -15 -2 57.15 5
-1 -15 -2 43.2 6.8
1 15 -2 54.25 5.57
-1 -15 -2 63.55 7.58
1 -15 2 51.42 5.61
1 -15 -2 53.7 6.25
-1 -15 2 60.44 5
1 15 2 43.63 6.4
1 15 -2 38.95 4.26
1 15 2 16.96 5.09
-1 15 2 36.77 6.56
-1 15 -2 38.58 5.11
1 -15 -2 42.62 3.94
1 -15 2 55.26 7.62
-1 15 -2 38.82 4.22
-1 -15 -2 40.2 4.42
-1 15 2 49.95 8.2
1 15 -2 42 5.1
1 -15 2 38.57 2.89
-1 15 -2 46.5 5.85
-1 -15 -2 51.11 5.99
1 -15 -2 20.55 3.21
1 15 2 44.54 5.69
1 -16 -2 -0.63 1.71
1 16 -2 0.29 1.04
-1 -16 -2 0.37 1.08
1 16 -2 -0.8 2.33
-1 -16 -2 0.68 1.57
1 16 2 -0.77 1.59
1 -16 -2 -0.57 1.31
-1 -16 2 1.18 1.09
-1 -16 -2 3.23 1.49
1 -16 2 0.53 1.33
1 16 -2 1.56 1
-1 16 2 1.55 1.6
1 16 2 1.52 2.07
1 -16 2 0.92 1.34
1 16 2 1.65 1.5
-1 16 2 1.19 2.73
-1 -16 -2 -0.51 0.75
1 -16 2 0.34 0.37
-1 16 -2 1.61 1.35
-1 -17 -2 382.09 23.82
1 17 -2 375.3 27.29
-1 -17 2 403.74 23.41
-1 -17 -2 446.5 27.28
1 -17 2 327.95 24.65
1 -17 -2 462.8 26.63
-1 17 2 360.05 28.07
1 -17 2 284.35 27
-1 17 2 395.52 30.21
1 17 2 425.46 26.56
-1 -17 -2 422.68 25.66
-1 17 -2 421.08 26.33
-1 18 -2 0.49 1.76
1 18 -2 2.73 2.22
-1 -18 -2 1.06 1.54
1 -18 2 -1.96 2.02
-1 -18 2 1.56 1.36
-1 -18 -2 2.64 1.92
1 -18 -2 -0.58 1.69
1 -18 2 -0.85 2.46
-1 18 2 0.8 1.43
1 18 2 -0.61 2.16
-1 18 2 1.03 2.8
-1 -18 -2 -1.02 1.9
-1 18 -2 0.59 1.72
1 18 -2 -1.46 2.26
1 19 -2 1070.54 64.35
-1 -19 -2 992.8 61.95
1 -19 2 1133.08 63.23
-1 -19 2 1174.02 61.79
1 -19 -2 1234 64.88
-1 -19 -2 1146.25 65.02
-1 19 2 1040.34 66.17
1 -19 2 1105.59 66.79
-1 -19 -2 1087.14 63.46
-1 19 2 1255.9 69.65
-1 19 -2 1189.35 65.16
1 19 2 1157.07 65.3
1 19 -2 1157.12 66.04
1 20 -2 0.58 2.16
1 -20 2 -0.46 1.94
-1 -20 2 1.98 1.8
-1 -20 -2 -0.64 1.96
1 -20 -2 -1.81 2.4
1 -20 2 -1.6 2.33
-1 20 2 -0.82 2.24
1 20 2 -0.67 2.2
-1 -20 -2 -1.02 2.1
-1 20 -2 2.57 2.56
1 20 -2 1.4 2.28
-1 20 2 -1.95 3.33
1 21 -2 926.57 56.23
1 -21 -2 1013.83 57.09
-1 -21 2 976.14 54.06
-1 -21 -2 1043.59 57.45
1 -21 2 1049.24 59.52
1 21 -2 972.38 57.79
-1 21 2 1100.63 61.4
-1 21 -2 1008.82 57.69
-1 -21 -2 965.92 55.76
1 21 2 1016.38 58.19
1 22 -2 -0.56 1.82
-1 -22 -2 -0.64 1.86
-1 -22 2 0.34 1.22
1 -22 -2 1.26 1.44
-1 22 2 -0.84 1.49
1 -22 2 -0.79 2
-1 22 -2 0.7 1.91
1 22 -2 0.69 1.43
1 -22 -2 0.57 1.65
1 22 2 -0.73 1.69
-1 -22 -2 0.5 1.55
-1 22 2 2.88 3.13
1 23 -2 9.97 2.95
1 -23 -2 7.04 2.84
-1 -23 -2 12.87 3.48
-1 -23 2 6.92 2.11
1 -23 2 10.34 3.61
-1 23 2 9.32 3.84
-1 23 -2 13.76 3.69
1 23 -2 8.47 3.52
1 -23 -2 12.18 3.21
-1 -23 -2 15.45 3.21
-1 23 2 7.8 3.65
1 23 2 10.63 3.27
1 24 -2 2.76 1.97
-1 -24 -2 0.65 2.01
-1 -24 2 1.4 0.95
1 -24 -2 1.3 1.5
-1 24 2 1.7 1.75
1 -24 2 -1.61 2.19
-1 24 -2 0.75 2.06
1 24 2 1.58 2
1 24 -2 2.15 2.22
1 -24 -2 3.77 1.75
-1 24 2 1.96 2.48
-1 -24 -2 3.93 1.75
1 25 -2 23.65 4.99
1 -25 -2 49.05 6.59
-1 -25 -2 38.91 6.24
-1 25 2 17.67 5.52
1 -25 2 39.01 6.89
-1 25 -2 46.08 7.16
1 25 2 27.11 6.03
-1 25 2 43.02 7.65
-1 -25 -2 38.12 5.39
1 25 -2 46.31 6.78
1 -25 -2 43.87 5.64
1 26 -2 0.55 2.04
1 -26 -2 2.7 2.41
-1 -26 -2 1.99 2.05
1 -26 2 0.83 1.91
-1 -27 -2 98.29 10.92
-1 0 3 0.33 0.68
1 0 -3 0.29 0.6
-1 0 -3 0.87 0.47
-1 0 -3 -0.18 0.45
-1 0 -3 0.19 0.63
1 0 3 -2.03 4.67
-1 0 -3 1.07 0.61
-1 0 3 0.37 0.69
1 0 -3 0.15 0.37
1 0 -3 0.23 0.35
-1 0 3 1.28 1.08
-1 0 -3 -1.68 4.9
-1 0 -3 0.49 0.62
1 0 3 -1.65 3.41
-1 0 3 -3.07 6.33
1 0 -3 -0.24 0.82
-1 0 3 -4.39 5.53
-1 0 -3 0.53 0.77
-1 0 -3 -1.91 4.82
1 0 -3 0.53 0.39
-1 1 -3 375.76 19.05
-1 -1 -3 304.15 17.98
-1 -1 -3 372.91 17.94
-1 1 -3 318.23 18
1 -1 3 283.66 17.56
-1 -1 -3 288.78 17.1
1 1 -3 329.26 19.13
1 -1 -3 318.74 19.1
-1 1 -3 312.09 17.86
1 1 -3 309.58 19.23
1 -1 3 309.9 18.03
-1 1 -3 300.64 17.21
-1 -1 3 325.05 19.43
1 1 3 309.02 17.74
1 -1 -3 322.89 17.18
1 -1 -3 311.1 17.89
-1 1 -3 301.19 18.09
-1 -1 3 334.8 17.91
1 1 -3 288.33 17.33
-1 1 3 294.94 16.76
-1 -1 -3 310.2 17.82
1 1 -3 306.92 17.55
-1 1 3 347.32 18.6
1 1 3 306.95 27.03
1 -1 3 297.99 28.1
-1 -1 3 332 20.04
-1 1 3 384.91 21.43
1 1 -3 345.97 20.58
-1 1 -3 282.82 26.6
-1 1 -3 307.31 18.42
-1 1 3 251.91 31.05
-1 -1 -3 306.49 18.68
1 -1 3 326.22 18.78
-1 -1 3 345.58 34.9
-1 -1 -3 360.21 28.75
-1 -1 3 286.81 29.12
1 1 3 268.9 28.68
-1 1 -3 322.03 18.43
1 1 3 301.01 16.78
1 1 -3 308.36 18.56
1 1 -3 302.06 17.25
-1 -1 -3 308.03 19.12
-1 1 3 335.74 30.6
1 -1 3 354.65 30.38
1 -1 -3 307.09 18.51
-1 1 -3 222.97 27.49
-1 -1 -3 406.43 31.76
1 -2 3 215.63 13.76
1 -2 3 242.36 14.4
-1 2 -3 270.92 15.69
-1 2 -3 238.51 13.67
-1 -2 -3 245.03 13.55
1 2 -3 222.15 15.2
1 -2 3 230.48 14.2
-1 -2 3 241.54 15.58
1 -2 -3 242.64 15.35
-1 2 -3 244.24 14.07
-1 2 -3 237.49 14.14
1 2 -3 231 15.05
1 -2 -3 227.09 14.32
-1 2 3 268.11 15.23
-1 2 3 226.5 13.23
-1 -2 -3 247.34 14.05
-1 -2 3 246.77 13.84
1 2 3 233.92 13.93
1 -2 -3 224.9 13.2
-1 2 -3 225.65 14.41
1 -2 3 254.9 15.02
1 2 -3 281.07 16.72
-1 -2 -3 241.43 15.1
1 2 3 287.73 23.16
-1 -2 3 260.4 16.08
-1 2 3 316.99 18.41
-1 2 -3 283.61 22.96
-1 2 -3 247.71 14.68
-1 -2 3 314.61 29.95
-1 -2 -3 258.09 16.1
1 -2 -3 228.57 14.64
1 2 3 223.35 13.28
-1 2 3 304.15 25.86
-1 2 -3 240.8 14.32
-1 2 -3 259.49 15.8
1 -2 3 282.18 25.16
-1 -2 -3 317.03 25.54
1 -3 -3 7.03 1.7
-1 3 -3 6.36 1.13
-1 3 -3 6.99 1.92
-1 -3 -3 7.52 0.92
-1 3 -3 3.49 0.92
1 3 -3 5.08 1.4
1 -3 3 6.56 1.25
1 3 -3 6.38 1.56
-1 -3 3 9.3 1.97
1 3 -3 9.17 1.9
1 -3 3 11.84 4.7
1 -3 3 5.45 1.23
1 -3 -3 5.28 1.32
-1 3 3 5.93 0.76
-1 -3 -3 6.57 1.54
1 -3 -3 5.74 0.76
1 -3 3 5.47 1.35
1 3 -3 7.75 0.78
1 3 3 7.75 1.23
-1 -3 3 5.89 0.98
-1 3 3 5.77 0.97
-1 -3 -3 5.28 1.06
-1 -3 -3 10.83 4.79
-1 3 -3 11.01 4.13
1 -3 3 6.37 1.47
-1 -3 3 10.38 2.16
-1 3 -3 5.11 1.25
1 3 -3 10.14 2.26
-1 -3 3 5.57 4.29
-1 3 3 7.76 2.48
-1 -3 -3 9.89 2.41
-1 -3 -3 7.72 1.75
1 3 3 6.33 2.89
-1 3 -3 5.5 1.23
-1 3 3 11.84 4.7
-1 -3 -3 7.84 2.08
-1 3 -3 10.15 2.03
1 -3 -3 5.25 1.34
-1 3 -3 8.96 1.38
-1 -3 -3 5.96 4.08
-1 -3 3 4.74 1.07
1 3 3 6.06 1.04
1 -4 3 54.88 4.9
-1 4 -3 62.95 6.37
1 4 -3 59.24 5.15
-1 -4 -3 53.62 3.23
1 -4 3 48.41 4.34
-1 -4 3 49.51 5.04
1 -4 3 54.37 4.56
1 4 -3 47.66 4.82
-1 -4 3 49.78 5.2
-1 4 -3 50.95 4.24
1 -4 3 48.56 4.23
1 -4 3 60.6 9.56
1 4 -3 58.26 3.86
-1 4 3 49.4 4.08
1 4 3 54.61 4.14
-1 -4 3 53.75 3.58
-1 -4 -3 54.09 4.08
1 -4 -3 61.08 5.21
-1 4 3 50.51 3.38
-1 -4 -3 50.11 4.66
-1 -4 -3 46.84 9.27
-1 4 -3 45.06 4.3
-1 -4 -3 47.96 5.55
1 -4 3 54.71 4.77
-1 4 3 75.46 8.18
1 4 -3 54.71 5.54
-1 -4 3 62.65 11.83
1 4 3 74.52 9.31
-1 4 -3 51.34 10.37
-1 -4 -3 50.74 5.03
-1 4 -3 62.16 8.61
-1 -4 -3 50.24 7.75
-1 4 -3 77.76 10.79
-1 -4 -3 58.58 6.5
1 -4 -3 51.08 4.67
-1 4 -3 55.82 5.35
1 4 3 48.72 4.03
-1 4 3 46.66 8.42
-1 -4 3 55.21 4.42
-1 4 -3 49.31 4.41
-1 -4 -3 63.64 9.35
1 -5 3 0.67 0.62
1 -5 3 2.49 0.83
1 5 -3 2.22 0.95
1 5 -3 2.39 0.97
-1 5 -3 5.72 2.14
-1 -5 3 0.99 1.03
1 5 3 10.14 3.67
1 -5 3 4.38 2.76
1 -5 3 0.7 0.59
-1 -5 3 1.07 0.74
-1 5 -3 1.8 0.81
-1 5 3 1.51 0.46
1 -5 3 2.59 1.33
-1 -5 -3 2.08 0.85
-1 -5 3 1.66 0.47
1 5 -3 3.23 0.95
1 -5 -3 1.73 1.01
1 5 3 1.48 0.66
-1 5 3 2.69 0.93
-1 -5 -3 1.58 0.67
-1 5 -3 2.41 0.83
-1 -5 -3 1.69 1.07
-1 5 -3 0.79 2
-1 -5 -3 1.26 2.9
-1 5 3 1.62 1.67
-1 -5 3 4.5 3.45
1 -5 3 2.32 0.99
-1 -5 -3 0.33 0.68
-1 5 -3 2.78 4.04
1 5 3 0.86 1.78
1 -5 3 4.65 3.03
-1 5 3 8.6 3.91
1 5 -3 1.46 1
-1 -5 -3 1.46 1.99
-1 5 -3 1.13 0.87
-1 -5 3 2.53 1.06
-1 5 -3 0.96 0.92
-1 -5 -3 1.06 2.45
-1 -5 -3 5.86 2.84
-1 5 -3 -1.06 2.88
1 5 3 1.25 0.75
1 -5 -3 0.49 0.72
-1 -5 3 -1.07 1.91
-1 5 3 2.12 2.18
-1 5 -3 4.26 2.91
-1 -5 -3 3.01 1.75
1 -6 3 50.2 7.86
1 -6 3 29.23 3.37
1 6 -3 32.15 3.71
1 -6 3 29.59 3.33
1 6 -3 30.7 3.64
-1 6 -3 29.4 4.99
-1 -6 -3 26.21 2.27
-1 6 -3 34.68 3.74
1 6 3 38.54 7.15
1 -6 3 32.69 3.49
-1 -6 3 33.09 4.18
-1 -6 3 35.99 4.14
-1 -6 3 34.62 3.93
-1 6 -3 31.76 2.5
-1 -6 3 32.84 2.3
1 6 3 33.06 3.06
1 -6 -3 33.95 4.38
-1 -6 -3 34.87 3.65
-1 6 3 30.57 2.52
-1 6 3 44.71 4.11
1 6 -3 20.19 3.07
1 6 3 35.27 6.02
-1 6 -3 29.21 7.12
1 -6 3 36.13 6.3
-1 6 3 39.37 6.77
-1 -6 3 30.1 2.18
-1 -6 -3 34.8 4.14
-1 -6 -3 35.72 5.66
1 6 -3 37.84 4.28
-1 6 3 51.49 9.07
-1 -6 -3 34.12 4.51
-1 6 -3 37.44 3.38
-1 6 -3 41.3 6.42
1 -6 3 36.43 3.72
-1 -6 3 47.33 8.99
-1 -6 -3 39.84 7.62
-1 6 3 29.43 5.95
-1 6 -3 36.99 4.26
-1 -6 3 36.65 6.82
1 -6 -3 30.76 3.42
-1 -6 -3 21.65 4.68
-1 6 -3 46.35 7.56
1 6 3 35.45 3.78
-1 6 -3 37.94 3.84
-1 6 -3 32.13 6.4
-1 -6 -3 40.1 7.22
-1 -6 3 40.72 3.9
-1 -6 -3 41.11 7.11
1 -7 3 461.67 26.14
-1 -7 3 441.06 26.83
-1 7 -3 470.75 26.91
1 7 -3 416.66 26.11
1 7 -3 429.05 26.14
1 -7 3 475.42 26.24
-1 -7 -3 439.02 24.24
-1 -7 3 457.53 27.25
-1 7 -3 376.3 28.24
-1 -7 3 444.17 26.55
1 7 -3 350.12 25.37
-1 7 -3 446.98 24.18
-1 -7 -3 455.68 26.06
-1 7 3 430.71 24.43
1 7 3 456.45 25.19
-1 7 3 458.25 26.79
1 -7 -3 460.78 28.15
-1 -7 3 431.95 34.2
1 -7 3 463.97 26.18
-1 -7 -3 508.99 29.93
-1 -7 -3 461.02 27.55
-1 7 -3 435.26 33.31
-1 7 -3 514.36 30.42
-1 7 3 460.77 34.01
1 7 -3 467.61 26.81
1 7 3 467.67 30.44
1 -7 3 457.65 30.82
-1 -7 -3 416.2 32.61
-1 -7 -3 436.22 31.45
-1 7 -3 505.06 32.58
-1 -7 3 442.09 31.54
-1 7 3 430.32 31.44
-1 7 -3 466.77 26.27
1 -7 -3 430.99 25.82
1 7 3 526.52 27.47
1 7 3 477.47 32.53
-1 7 -3 429.09 31.37
1 -7 3 466.69 32.18
1 8 3 -1.84 1.89
-1 -8 -3 0.46 0.47
1 -8 3 -1.83 1.89
-1 -8 3 0.37 0.84
1 8 -3 0.32 0.74
1 -8 3 1.02 0.93
-1 -8 3 0.38 0.88
-1 8 -3 0.44 0.9
1 -8 3 0.63 0.86
-1 -8 3 1.28 0.98
-1 8 -3 2.32 1.46
1 -8 -3 -0.58 0.84
1 8 -3 -0.84 0.71
-1 -8 -3 1.5 0.82
1 8 3 0.21 0.62
-1 8 3 -0.45 1.02
-1 8 3 -0.56 1
-1 8 3 0.16 0.48
-1 8 -3 0.32 0.37
1 8 -3 1.05 1.02
-1 -8 -3 2.22 1.29
1 8 3 2.12 1.63
-1 -8 3 -1.25 2.57
1 -8 3 -0.76 1.57
-1 8 3 -1.16 2.68
-1 -8 -3 1.06 1.88
-1 8 -3 -1.12 3.27
1 -8 3 -0.31 0.45
-1 8 -3 1.24 1.81
-1 8 -3 0.85 1.96
1 8 3 0.47 1.08
-1 -8 -3 0.87 2.19
1 -8 -3 1.41 1.05
-1 8 3 -0.88 1.57
-1 8 -3 -0.31 1
-1 -8 3 2.66 2.58
-1 8 -3 3.41 2.15
-1 -9 -3 192.72 11.08
1 9 -3 170.89 12.61
-1 9 -3 211.72 15.01
-1 -9 3 197.65 14.09
1 -9 3 222.72 14.02
-1 -9 3 193.62 13.39
1 -9 3 213.39 13.39
-1 -9 3 189.97 13.53
1 9 3 190.41 11.97
-1 9 3 154.38 14.36
-1 9 3 123.45 13.08
1 -9 -3 134.6 14.06
-1 -9 -3 203.61 12.93
-1 9 -3 190.77 10.95
1 9 -3 192.4 12.59
1 9 3 176.62 15.16
-1 -9 -3 207.2 14.07
1 -9 3 198.19 12.99
-1 -9 -3 154.48 16.55
-1 9 3 182.41 17.89
1 9 -3 191.36 12.99
-1 -9 3 172.7 18.08
1 -9 3 180.87 15.55
-1 9 -3 156.05 16.84
1 9 3 215.38 17.57
-1 -9 3 164.22 16.06
1 -9 3 198.11 17.05
-1 -9 -3 181.8 16.21
-1 9 -3 192.04 12.83
1 9 3 168.06 14.44
-1 9 3 181.27 16.34
1 -9 -3 200.14 12.72
-1 9 -3 175.6 15.86
-1 -10 3 -0.43 1.33
-1 10 -3 1.05 1.33
1 -10 3 2.96 1.68
1 10 3 2.51 2.28
-1 -10 -3 0.31 0.57
1 10 -3 0.36 0.73
-1 -10 3 -0.5 1.16
1 -10 3 0.85 1.52
-1 10 3 0.66 0.96
-1 -10 3 0.87 0.65
1 10 -3 0.93 1.1
1 10 3 -0.53 0.76
-1 10 -3 0.3 0.49
1 -10 -3 0.67 0.69
-1 10 3 -0.5 1.25
-1 -10 -3 0.35 0.89
1 -10 3 -0.7 1.6
1 10 3 1.29 1.15
-1 -10 3 -1.15 2.66
-1 10 3 -1.08 1.57
-1 10 3 2.11 2.43
1 -10 3 1.45 1.06
-1 -10 -3 1.41 1.08
1 10 -3 -0.69 1.17
-1 10 -3 3.08 2.36
-1 -10 -3 -0.97 2
1 -10 -3 0.63 0.8
-1 -10 3 -0.83 1.91
-1 10 3 -0.82 2.23
-1 -10 -3 0.78 1.97
1 10 -3 0.87 0.49
1 10 3 0.68 1.57
-1 10 -3 1.39 1.18
-1 10 -3 -0.76 1.35
-1 -11 3 24.67 3.98
1 11 3 28.88 5.37
-1 -11 -3 23.27 2.51
1 -11 3 25.56 4.46
1 11 -3 21.29 3.37
-1 -11 3 28.8 4.55
1 -11 -3 26.13 4.75
-1 11 -3 25.41 4.11
-1 11 -3 22.1 2.62
1 11 -3 33.66 3.82
1 -11 3 19.38 3.98
1 11 3 28.2 3.37
-1 11 3 21.81 3.89
-1 -11 3 26.62 2.55
-1 -11 -3 27.31 3.69
1 -11 -3 23.79 4.56
1 11 -3 31.45 4.94
1 -11 3 20.06 4.42
-1 11 3 36.31 7
-1 11 -3 16.85 4.73
1 -11 3 26.43 3.71
1 11 -3 16.66 2.96
-1 -11 3 27.82 6.19
-1 11 3 15.15 4.7
-1 -11 -3 23.27 5.48
-1 11 -3 22.04 3.4
-1 11 3 27.85 5.39
-1 11 -3 22.17 4.59
-1 -11 3 32.95 5.75
-1 -11 -3 20.74 4.23
1 -11 -3 17.14 2.93
1 11 3 35.24 5.34
-1 -11 -3 23.78 4.82
1 12 -3 47.81 5.28
-1 -12 -3 46.67 4.92
-1 -12 3 50.22 6.43
1 -12 3 27.51 5.48
-1 12 -3 54.47 6.09
-1 -12 -3 53.59 4.11
1 -12 3 43.07 5.81
1 -12 -3 45.16 4.33
-1 -12 3 52.27 6.07
1 -12 -3 34.24 5.68
-1 12 -3 41.88 4.3
1 12 -3 41.48 4.73
-1 -12 -3 53.64 5.6
-1 12 3 43.64 5.43
1 12 3 49.59 5.01
-1 -12 3 51.69 3.83
-1 -12 3 35.89 7.24
1 -12 3 56.03 5.92
1 -12 -3 36.73 5.37
1 12 -3 40.48 5.76
-1 -12 -3 45.6 7.41
-1 12 -3 36.79 6.77
1 12 -3 22.55 3.87
-1 12 3 34.66 6.82
-1 12 3 41.08 7.25
-1 12 -3 49.03 5.3
1 12 -3 52.68 7.24
-1 -12 -3 49.69 6.47
-1 -12 3 37.25 6.3
-1 12 3 43.09 6.69
-1 12 -3 52.38 6.8
-1 -12 -3 43.75 6.4
1 12 3 59.77 7.05
1 -12 -3 44.11 5.14
-1 -13 -3 34.25 4
1 13 -3 34.88 4.73
1 -13 -3 32.62 3.68
1 13 -3 30.7 4.29
1 13 -3 33.79 5.53
1 -13 -3 34.54 5.25
-1 -13 3 34.61 5.49
-1 13 -3 30.31 4.57
-1 -13 -3 30.6 3.16
1 -13 3 22.69 4.76
-1 13 3 30.97 4.44
1 13 -3 37 4.2
-1 -13 -3 32.97 4.68
-1 -13 3 31.62 2.91
1 13 3 34.9 4.37
-1 13 3 28.08 5.89
-1 13 -3 31.24 6.07
-1 -13 -3 26.95 5.33
1 -13 3 28.92 4.53
-1 13 3 19.56 5.31
-1 -13 3 32.91 6.5
1 13 -3 15.59 2.71
1 -13 -3 22.7 4.05
1 13 -3 31.84 4.73
1 13 3 33 5.38
-1 -13 3 20.66 4.74
-1 -13 -3 34.53 5.25
-1 -13 -3 28.46 4.94
-1 13 3 24.21 4.89
1 -13 -3 32.58 4.5
-1 13 -3 25.09 4.61
-1 13 -3 28.5 3.99
-1 -14 -3 3.73 1.41
1 14 -3 6.63 2.47
1 -14 -3 5.57 2.07
1 -14 -3 2.34 1.15
-1 14 -3 5.07 1.96
-1 -14 3 2.37 2
1 14 -3 2.57 1.6
1 14 -3 7.7 2.41
1 14 3 8.78 2.29
1 14 -3 3.65 1.56
-1 -14 3 3.24 1.01
-1 -14 -3 4.43 1.3
-1 -14 -3 1.7 1.85
1 14 -3 3.65 2.15
-1 -14 -3 0.75 2.06
-1 14 3 5.53 2.85
-1 14 -3 4.2 2.74
-1 14 3 4.9 2.66
-1 -14 3 3.72 3.32
1 14 -3 2.17 1.05
1 -14 -3 3.22 1.71
1 -14 3 6.98 2.25
-1 14 -3 2.19 1.5
-1 -14 -3 0.6 1.25
1 14 3 7.48 2.73
-1 -14 -3 7.8 2.48
-1 14 3 2.77 1.89
-1 -14 3 2.08 2.48
-1 14 -3 1.68 2.01
1 15 -3 149.51 12.56
-1 -15 3 162.57 15.3
1 15 -3 151.41 12.4
1 -15 -3 133.33 10.33
-1 -15 -3 132.08 9.24
-1 15 -3 131.03 11.38
-1 -15 -3 124.46 9.86
-1 -15 -3 151.11 13.25
-1 -15 -3 148.23 12.73
1 15 -3 139.68 10.47
-1 -15 3 143.25 8.89
1 15 3 154.4 12.05
1 -15 -3 120.8 10.24
1 15 -3 118.56 10.64
-1 15 3 126.01 13.44
-1 -15 -3 100.96 11.35
1 -15 3 156.13 13.3
-1 15 -3 95.64 11.67
-1 15 -3 108.79 10.61
1 -15 -3 130.08 11
-1 -15 -3 126.28 11.6
-1 -15 -3 120.48 11.08
-1 15 -3 158.19 11.58
1 15 -3 128.22 11.76
1 15 3 153.36 12.73
1 16 -3 1.67 1.99
-1 -16 -3 0.35 0.96
1 -16 -3 0.95 1.38
1 16 -3 0.74 2.02
1 -16 -3 1.56 1.39
-1 -16 3 -1.07 1.56
-1 -16 -3 -0.78 1.97
-1 -16 3 -0.21 0.7
-1 -16 -3 0.27 0.91
1 16 3 1.26 1.59
-1 -16 -3 -0.74 2.02
1 -16 3 0.78 1.4
-1 16 3 -0.91 1.62
1 16 -3 -0.44 1.76
-1 16 -3 1.4 2.17
1 -16 -3 -0.35 1.36
-1 -16 -3 -0.6 1.07
-1 16 -3 -0.44 1.35
-1 -16 -3 -0.48 1.49
-1 16 -3 0.98 1.51
1 16 3 1.94 1.99
1 17 -3 390.58 28.73
-1 -17 3 383.55 32.52
-1 -17 -3 414.93 23.92
1 -17 -3 518.67 28.18
1 17 3 314.88 26.62
-1 -17 -3 493.88 28.91
-1 -17 3 448.94 23.28
1 17 -3 353.03 24.27
-1 17 3 420.78 29.54
1 -17 3 427.74 29.79
1 -17 -3 302.27 22.8
1 17 3 476.35 28.38
-1 -17 -3 469.18 27.41
-1 17 -3 461.54 26.7
1 18 -3 7.58 3.39
-1 -18 -3 6.33 1.83
-1 -18 -3 4.97 2.65
1 -18 -3 5.67 2.44
-1 -18 3 5.88 1.57
-1 18 3 4.59 2.51
1 -18 3 5.25 3.07
1 18 -3 7.05 2.07
1 18 3 9.54 3.15
-1 -18 -3 2.38 1.76
-1 18 -3 3.87 2.07
1 19 -3 149.38 14.07
-1 -19 3 132.11 9.14
1 -19 -3 144.5 12.4
-1 -19 -3 142.36 12.72
1 -19 3 91.68 12.97
-1 19 3 82.6 12.13
1 19 -3 140.31 13.49
-1 19 -3 157.05 12.41
-1 -19 -3 139.38 11.96
1 19 3 144 12.95
1 20 -3 26.51 5.14
-1 -20 3 23.19 2.92
1 -20 -3 22.78 4.56
-1 -20 -3 23.62 4.69
-1 20 3 20.65 5.17
1 -20 3 23.16 5.58
1 20 3 23.28 4.95
1 20 -3 22.84 4.8
-1 -20 -3 23.75 4.41
-1 20 -3 26.26 4.65
-1 21 -3 142.47 12.19
1 21 -3 159.18 13.38
1 -21 -3 153.35 12.96
-1 -21 -3 140.75 12.87
-1 -21 3 132.84 9.56
1 -21 3 125.05 14.4
1 21 3 153.92 13.61
-1 -21 -3 163.49 12.76
-1 21 -3 143.62 12.61
1 21 -3 145.86 13.48
1 22 -3 4 2.27
-1 -22 -3 1.4 1.61
-1 -22 3 -0.25 0.87
1 -22 -3 1.35 1.39
1 -22 3 -0.9 2.06
-1 22 3 0.95 1.69
1 22 3 1.57 1.8
-1 22 -3 -1.33 2.16
1 22 -3 2.19 2.25
-1 -22 -3 -0.59 1.61
1 23 -3 11 3.45
-1 -23 -3 22.49 4.55
1 -23 -3 22.03 4.63
-1 23 3 18.03 4.97
1 -23 3 14.06 4.34
1 23 -3 21.72 4.56
-1 23 -3 20.75 4.7
1 -23 -3 12.53 3.58
-1 -23 -3 21.04 4.09
1 23 3 20.99 4.79
1 24 -3 -0.63 2.06
-1 -24 -3 1.42 2.2
1 -24 -3 -0.7 1.61
-1 24 3 -0.94 2.91
1 -24 3 2.6 2.19
1 24 3 -2.5 3.64
1 -24 -3 -1.94 2.74
-1 24 -3 0.72 1.82
1 24 -3 0.73 1.98
-1 -24 -3 0.58 1.78
1 -25 -3 282.68 19.48
-1 -25 -3 271.14 19.06
1 -25 3 263.41 20.96
1 -25 -3 235.45 17.8
1 25 -3 260.27 19.27
-1 -25 -3 248.96 17.39
-1 25 -3 253.81 19.04
1 25 3 267.63 20.19
-1 -26 -3 4.34 2.11
1 -26 3 -0.86 1.98
-1 -26 -3 -1.11 2.43
1 -26 -3 -0.61 2.08
-1 0 4 0.84 0.75
-1 0 -4 0.76 0.64
-1 0 -4 0.62 0.51
1 0 4 5.14 4.59
1 0 -4 1.46 1.13
-1 0 -4 2.36 4.85
1 0 -4 0.54 0.41
-1 0 -4 2.06 1
-1 0 -4 0.4 0.42
1 0 -4 0.62 0.46
-1 0 4 0.41 1.11
-1 0 -4 4.37 5.95
1 0 4 1.6 0.87
-1 0 -4 0.29 0.66
-1 0 4 0.55 1.14
-1 0 -4 -3.34 7.7
-1 0 4 -3.76 6.7
1 0 -4 0.54 0.79
1 0 4 -2.05 4.72
-1 0 -4 1.07 0.9
-1 0 -4 3.17 5.66
-1 0 4 -2.76 4.93
-1 0 -4 0.68 0.32
1 0 -4 1.22 0.67
1 0 -4 0.56 0.7
-1 1 -4 61.71 4.8
1 1 -4 64.35 6.46
-1 1 -4 70.91 5.57
-1 1 -4 68.64 5.74
-1 -1 -4 77.23 5.3
1 -1 -4 71.08 6.5
-1 1 -4 57.47 13.5
-1 -1 4 75.11 6.97
1 1 -4 52.87 5.84
1 -1 4 89.99 15.55
-1 -1 -4 80.62 14.17
-1 -1 -4 66.02 5.67
1 1 4 50.34 12.82
1 -1 4 69.03 5.79
-1 1 -4 74.21 5.66
-1 -1 -4 64.2 4.83
-1 -1 4 76.82 6.76
1 1 -4 70.5 4.99
1 -1 -4 73.65 5.41
1 -1 -4 67.6 4.45
1 1 -4 69.19 4.9
-1 1 4 83.18 7.44
-1 -1 -4 63.71 5.04
-1 1 -4 61.62 5.25
1 1 -4 57.12 4.31
-1 -1 4 59.96 16.3
-1 1 4 73.06 7.79
-1 -1 -4 66.47 5.92
-1 1 -4 77.84 17.77
-1 -1 -4 82.14 7.91
1 -1 4 66.26 13.21
1 -1 4 62.55 5.8
1 1 -4 58.88 6.88
-1 1 -4 90.78 14.39
1 1 4 62.95 11.91
-1 1 4 33.42 11.81
-1 -1 -4 73.19 16.41
-1 1 -4 64.82 5.64
-1 -1 4 81.57 7.98
-1 1 -4 66.34 6.63
-1 -1 4 58.27 12.95
-1 -1 -4 83.7 7.16
-1 1 4 64.09 13.37
1 -1 -4 65.61 5.69
1 1 -4 65.19 5.77
-1 1 -4 67.45 5.97
-1 -1 -4 56.3 13.32
-1 -1 -4 69.62 4.41
-1 1 -4 66.98 3.92
-1 1 -4 64.84 14.49
1 1 -4 72.57 5.13
-1 2 -4 3.65 1.33
-1 2 -4 3.51 0.91
1 -2 4 3.83 3.94
-1 2 -4 2.32 0.97
1 2 -4 5.64 1.67
-1 -2 -4 1.69 4.6
1 -2 -4 4.47 1.68
-1 2 -4 5.1 1.27
-1 -2 4 3.42 1.33
-1 -2 -4 3.48 1.21
1 -2 4 5.09 1.38
1 2 -4 5.29 1.55
1 2 -4 2.8 1.15
1 -2 -4 2.91 0.58
1 2 -4 3.34 0.79
-1 -2 -4 3.93 1.3
-1 -2 4 2.72 1.32
-1 -2 -4 4.02 1.01
-1 2 -4 2.67 0.95
-1 2 4 3.37 1.86
-1 -2 -4 2.6 0.8
1 -2 -4 2.46 1.06
-1 -2 -4 6.96 2.41
-1 2 -4 6.05 4.41
1 2 -4 4.66 1.93
-1 -2 4 5.42 6.24
-1 -2 -4 4.68 1.55
-1 2 4 5.74 2.37
-1 -2 -4 -2.28 5.26
-1 -2 4 1.03 0.93
-1 2 -4 3.8 1.26
1 2 4 3.04 4.44
1 -2 4 3.32 1.21
-1 -2 -4 3.55 0.99
-1 2 4 1.96 3.5
1 2 4 3.62 0.87
-1 -2 -4 1.95 1.43
-1 2 -4 2.63 1.03
-1 2 -4 5.35 1.81
1 -2 -4 3.53 1.32
-1 2 -4 8.16 5.56
-1 2 -4 2.92 0.55
-1 2 4 3.07 1.28
1 2 -4 3.18 1.24
-1 3 -4 2589.42 127.15
-1 3 -4 2425.69 125.98
1 3 -4 2505.16 127.32
-1 -3 -4 2201.41 126.24
1 -3 -4 2385.19 127.45
-1 -3 4 2486.48 128.17
1 -3 4 2361.37 126.48
-1 3 -4 2281.68 125.27
1 3 -4 2365.5 127.09
1 3 -4 2497.53 127.89
-1 -3 -4 2471.78 125.2
-1 -3 -4 2325.93 126.47
-1 -3 4 1772.3 125.96
1 3 4 2367.3 125.13
-1 3 4 2155.6 124.84
1 -3 -4 2473.12 126.64
-1 3 4 2620.87 129.69
1 -3 4 2335.62 126.51
1 3 4 2699.71 138.55
-1 -3 -4 2862.95 130.13
-1 3 4 2862.97 132.04
1 3 -4 2590.11 129.28
-1 -3 4 2601.87 148.87
-1 3 -4 2492.53 126.18
-1 -3 -4 2360.38 142.86
-1 3 -4 3025.16 140.2
-1 -3 -4 2293.54 126.8
-1 3 -4 2711.8 143.32
1 3 4 2331.74 124.96
1 -3 4 2672.27 142.48
-1 -3 -4 2788.51 141.3
-1 -3 -4 2502.47 125.89
-1 -3 -4 2616.95 129.95
-1 3 -4 2308.62 125.75
-1 3 4 2571.83 141.76
-1 3 4 2481.74 127.24
1 -3 -4 2228.27 126.12
-1 3 -4 2371.81 127.71
1 -4 4 0.24 0.73
-1 -4 4 0.89 0.91
1 4 -4 0.36 0.98
1 4 -4 0.4 0.91
1 -4 4 -1.53 4.18
-1 4 -4 0.2 0.51
-1 4 -4 0.89 0.8
-1 4 -4 1.49 4.34
-1 -4 -4 -1.32 3.61
1 4 -4 1.04 0.8
-1 4 -4 0.75 1.23
1 -4 4 1.82 0.99
1 -4 -4 0.39 0.89
1 -4 -4 0.69 1.06
-1 4 4 -0.16 0.57
-1 -4 -4 -0.29 0.74
1 4 4 1.11 0.59
-1 -4 -4 0.52 0.56
-1 4 4 -0.57 1.54
1 4 -4 0.45 0.73
-1 -4 4 0.96 1.21
-1 -4 -4 0.61 0.63
-1 4 4 3.86 2.25
-1 -4 -4 0.53 1.08
1 -4 4 0.91 1.03
-1 -4 4 -2.13 5.37
1 4 -4 -0.51 1.38
-1 4 -4 -2 5.05
-1 4 -4 0.96 0.82
-1 -4 -4 1.4 1.08
-1 4 -4 1.15 3.13
-1 -4 -4 -1.08 3.13
-1 -4 -4 3.52 4.79
-1 4 4 2.03 4.18
1 4 4 1.06 0.77
-1 4 -4 -0.19 0.59
1 -4 -4 1.39 1.15
-1 -4 -4 -2.01 2.07
-1 4 -4 1.49 3.07
-1 4 4 -1.53 3.52
-1 -4 4 0.73 0.84
-1 4 4 1.79 1.22
-1 4 -4 0.83 1.36
-1 -4 -4 -1.48 4.57
1 5 -4 5147.83 256.78
1 -5 4 4764.33 256.14
-1 5 -4 5201.55 257.87
-1 -5 4 4781.96 257.1
1 5 -4 4842.81 256.68
-1 5 -4 4585.27 255.2
1 -5 4 4679.55 255.49
1 -5 4 4815.73 255.94
1 -5 -4 4730.98 257
1 -5 4 4949.46 256.33
-1 -5 4 4901.06 257.7
1 5 4 5031.39 254.55
-1 5 4 4203.06 258.76
-1 -5 -4 4810.16 255.89
-1 5 4 4679.55 254.75
1 5 -4 5182.4 254.86
1 -5 -4 5411.12 257.63
-1 -5 4 4716.79 254.43
-1 -5 -4 4785.75 254.43
-1 5 -4 4779.33 255.26
-1 5 -4 5159.65 272.41
-1 -5 -4 5323.72 264.32
-1 5 4 5425.64 262.9
-1 5 4 5282.37 273.17
-1 -5 -4 5469.9 258.98
1 5 -4 5623 258.95
-1 -5 -4 4833.94 269.94
1 5 4 5031.89 264.83
1 -5 4 4837.89 256
-1 -5 -4 4619.84 256.7
-1 -5 4 5133.83 273.93
1 -5 4 5447.43 266.63
-1 5 -4 5792.62 265.89
-1 -5 -4 4369.48 260.47
-1 -5 -4 5185.97 266.44
-1 5 -4 5907.16 269.55
1 5 4 5378.56 269.63
1 -5 4 5039.85 268.03
-1 5 4 5090.11 268.1
-1 5 -4 4506.87 254.48
-1 5 -4 5018.68 267.54
-1 5 -4 5030.42 257.6
-1 -5 4 4835.04 255.61
1 5 4 4978.82 255.1
-1 -5 -4 5000.56 267.07
-1 -5 4 4888.25 267.57
1 -5 -4 4620.18 255.66
-1 5 4 4852.87 256.72
-1 -6 4 0.93 1.18
-1 6 -4 0.77 0.74
1 6 4 1.34 2.76
1 6 -4 1.08 1.05
1 -6 4 1.23 1
1 -6 4 1.98 0.96
1 -6 4 1.33 3.06
1 6 -4 1.02 0.99
1 -6 4 0.33 0.68
-1 6 -4 1.02 1.29
-1 -6 4 -0.83 1.49
-1 -6 4 0.09 0.49
1 -6 4 2.91 1.5
1 -6 -4 0.49 1.23
-1 -6 -4 3.64 1.25
1 6 4 1.01 0.73
-1 6 4 -0.22 0.79
1 6 -4 2.14 1.27
1 6 -4 0.2 0.93
-1 6 4 -0.68 2.09
-1 6 4 0.99 1.76
1 6 -4 1.54 1.5
-1 6 -4 -1.9 3.09
-1 -6 -4 1.74 2.19
-1 6 4 1.71 3.52
1 6 4 1.03 1.84
1 -6 4 1.11 3.22
-1 6 -4 0.22 0.72
-1 -6 -4 -1.49 2.67
-1 6 -4 4.87 4.73
1 -6 4 0.31 0.78
-1 -6 4 1.81 2.64
-1 -6 -4 1.6 1.55
-1 -6 -4 -0.4 0.92
-1 6 -4 -0.44 1.02
-1 -6 4 2.04 1.24
1 6 4 0.24 0.7
-1 -6 -4 1.12 2.01
-1 -6 4 2.62 2.7
-1 6 -4 1.21 2.15
-1 6 -4 1.22 3.32
-1 6 4 0.78 0.89
1 -6 -4 0.85 0.92
-1 -6 -4 -1.22 2.5
-1 -6 -4 0.89 2.05
-1 6 4 2.59 2.31
-1 -7 4 1141.36 68.95
-1 7 -4 1254.66 67.44
1 -7 4 1257.07 67.54
1 7 -4 1263.18 68.04
-1 7 -4 1200.26 70.13
1 7 -4 1291.5 68.21
1 -7 4 1375.66 69.11
1 -7 4 1264.47 67.7
1 -7 4 1246.23 67.9
1 7 4 1319.7 66.19
1 -7 -4 1294.44 70.37
-1 7 -4 1245.72 65.12
1 7 -4 1323.83 66.72
-1 7 4 1067.49 64.62
-1 -7 -4 1288.65 67.63
-1 7 4 1297.39 67.1
-1 7 -4 1443.7 74.56
-1 7 -4 1347.99 79.91
-1 -7 4 1371.55 82.43
-1 -7 -4 1530.55 71.2
1 7 -4 1419.31 70.25
1 -7 4 1264.27 67.53
1 7 4 1376.54 75.01
-1 -7 -4 1477.09 73.77
1 -7 4 1275.99 75.16
-1 -7 -4 1328.74 78.76
-1 -7 -4 1175.2 68.66
-1 7 4 1318.03 80.73
1 -7 -4 1210.05 67.25
-1 7 -4 1296.84 75.83
-1 -7 4 1300.4 77.07
-1 7 -4 1430.43 77.23
-1 -7 4 1356.67 67.91
-1 7 4 1293.27 68.62
1 7 4 1355.89 77.97
-1 7 4 1298.91 76.92
1 -7 4 1263.87 77.02
-1 -7 -4 949.59 71.28
-1 -7 -4 1361.18 76.48
-1 -7 -4 1330.71 75.8
-1 7 -4 1257.16 67.48
1 7 4 1305.31 67.41
-1 8 -4 9.98 2.13
1 -8 4 9.57 2.05
1 8 -4 8.6 2.13
-1 -8 -4 9.66 1.21
-1 8 -4 10.79 3.14
1 -8 4 10.8 2.21
1 8 4 7.19 3.93
1 -8 4 8.47 3.97
1 -8 4 7.94 2.08
-1 -8 4 8.52 2.52
-1 -8 -4 11.23 2.23
1 8 4 11.84 2.5
1 8 4 9.49 1.61
1 8 -4 12.7 2.05
1 -8 -4 12.69 3.34
-1 8 4 9.61 2.12
1 8 -4 8.64 2.27
1 -8 4 15.75 3.2
-1 8 -4 8.93 1.07
-1 8 4 8.32 1.05
1 -8 4 9.86 3.83
-1 8 -4 12.34 3.82
-1 -8 -4 10.46 3.3
-1 8 4 9.14 4.18
1 -8 4 11.24 2.24
-1 -8 -4 15.42 3.15
1 8 4 8.36 3.06
-1 -8 4 8.18 4.48
-1 -8 4 9.75 1.12
1 8 -4 12.6 2.95
-1 -8 -4 8.11 4.43
-1 8 -4 1.43 3.34
1 -8 -4 10.45 2.13
-1 -8 4 8.55 2.08
-1 8 -4 12.85 4.3
-1 -8 -4 12.24 4.23
-1 8 -4 13.72 4.24
-1 -8 -4 9.92 3.44
-1 -8 4 10.72 4.45
-1 8 -4 10.37 2.17
-1 -8 -4 6.46 3.71
-1 8 4 12.25 2.6
-1 8 4 4.71 3.01
1 8 4 8.96 2.01
1 -9 4 127.92 10.19
1 -9 4 146.12 10.25
1 -9 4 129.33 9.87
1 9 -4 135.58 10.24
1 9 -4 137.25 10.12
-1 9 -4 95.98 11.4
-1 -9 -4 87.15 7.69
1 -9 4 156.53 12.07
-1 9 -4 119.9 10.18
-1 9 -4 127.99 7.39
-1 -9 -4 135 9.77
-1 9 4 142.47 10.26
1 9 4 137.97 8.64
1 9 -4 117.01 8.77
1 -9 -4 97.96 11.29
-1 9 4 110.9 7.51
1 9 4 132.87 10.4
-1 9 -4 139.95 13.12
1 -9 4 135.16 9.85
1 9 -4 123.74 10.84
-1 -9 -4 128.78 12.06
1 -9 4 119.91 13.05
-1 -9 4 119.58 16.27
-1 9 -4 128.96 15.85
-1 -9 -4 124.21 10.97
1 9 -4 135.47 13.09
-1 -9 -4 147.95 16.06
-1 -9 4 126.66 7.69
-1 9 4 128.2 16.05
-1 9 4 129.76 10.54
-1 -9 4 145.49 10.72
-1 9 -4 163.43 15.19
-1 -9 4 128.79 14.59
-1 9 4 129.52 14.45
-1 -9 -4 120.84 13.53
1 -9 -4 119.07 9.34
1 9 4 139.64 10.44
1 9 4 130.84 14.66
-1 9 -4 141.62 9.76
-1 9 -4 128.98 13.75
-1 -9 -4 117.66 13.47
1 -9 -4 117.02 13.14
1 -10 4 0.45 0.93
1 -10 -4 -0.93 2.13
1 -10 4 -0.4 1.02
1 -10 4 0.43 1
-1 -10 -4 0.16 0.68
-1 -10 4 0.47 0.97
1 10 -4 2.03 2.56
-1 10 -4 0.74 1.7
-1 10 -4 0.51 1.29
1 10 -4 0.4 0.82
1 10 -4 0.43 0.76
1 -10 -4 -0.75 1.88
1 10 4 0.47 1.18
1 10 4 0.23 0.59
1 10 -4 -0.27 0.84
-1 10 4 0.95 1.19
-1 10 -4 0.57 0.45
-1 -10 -4 0.38 0.87
-1 10 4 -0.31 0.53
-1 -10 -4 0.57 1.02
-1 10 4 1.4 2.88
-1 -10 4 -0.16 0.53
1 -10 -4 0.74 1.7
-1 -10 -4 0.65 1.78
1 10 -4 0.55 0.98
1 -10 4 1.52 0.96
-1 10 -4 6.55 3.57
-1 10 4 1.55 2.25
-1 10 -4 -0.73 2.37
-1 -10 -4 -2.48 3.38
-1 -10 4 4.55 3.12
1 10 -4 0.8 1.84
1 -10 -4 1.38 1.23
-1 -10 4 1.46 1.41
-1 10 -4 1.69 1.25
-1 -10 -4 -0.97 2.64
-1 10 -4 0.98 2.02
-1 10 4 1.1 1.96
1 10 4 0.52 0.92
-1 -10 4 1.11 2.29
-1 10 -4 0.94 1.68
-1 10 4 -0.51 1.06
1 -11 4 12.95 2.94
1 11 -4 6.29 1.89
-1 -11 -4 9.33 1.45
1 -11 -4 15.04 4.3
-1 11 -4 6.97 2.73
1 11 -4 9.78 3.66
-1 -11 4 12.22 2.81
1 -11 4 11.41 2.74
1 11 4 8.46 1.82
1 -11 -4 9.93 3.13
1 11 4 9.04 2.52
-1 11 4 12.26 1.78
-1 11 -4 16.19 1.9
1 11 -4 10.03 1.97
-1 11 4 13.17 3.26
-1 -11 -4 6.19 2.92
-1 -11 -4 7.32 2.02
1 -11 -4 8.51 2.96
-1 11 -4 6.28 3.45
-1 11 -4 15.17 4.04
-1 11 4 9.67 4.29
1 -11 4 9.01 2.24
-1 -11 4 10.85 1.75
-1 -11 -4 4.71 2.15
-1 -11 4 10.14 4.97
-1 11 4 5.31 3.38
1 11 -4 2.25 1.79
-1 -11 -4 7.13 4.08
1 11 -4 17.72 4.37
-1 -11 -4 5.56 3.2
1 -11 -4 9.55 2.23
-1 -11 4 11.52 2.86
-1 11 -4 9.17 2.14
1 11 4 8.27 2.74
-1 11 -4 8.91 3.46
-1 -11 4 8.61 3.86
-1 11 4 10.62 4.12
-1 11 4 9.56 2.76
-1 11 -4 11.41 4.29
1 11 -4 7.39 0.93
-1 -12 -4 1.74 0.96
1 -12 -4 3.39 2.47
1 -12 4 1.75 1.47
1 12 -4 3.16 1.47
1 12 -4 3.75 3.05
-1 12 -4 2.65 1.67
1 -12 4 3.32 1.89
-1 12 4 1.37 1.99
1 12 4 1.74 1.12
-1 -12 -4 3.55 2.42
1 12 -4 1.22 1.22
1 -12 -4 5.5 2.45
-1 -12 -4 -0.45 1.03
1 12 -4 0.52 1.92
-1 12 -4 2.41 3.04
1 -12 4 1.34 1.3
-1 -12 4 2.99 1.21
1 12 -4 0.74 2.3
-1 12 4 1.26 2.6
-1 12 4 1.27 2.62
1 -12 -4 1.36 1.99
-1 -12 4 5.56 4.3
-1 -12 -4 1.14 2.62
1 -12 -4 1.89 1.35
-1 -12 4 2.52 1.84
-1 -12 -4 1.4 1.62
-1 -12 4 5.21 3.04
-1 12 -4 2.54 2.47
1 12 4 4.64 2.25
-1 -12 -4 2.65 2.57
-1 12 4 2.06 2.12
-1 12 -4 1.48 1.21
-1 12 4 4.37 2.23
-1 -13 -4 1645.5 87.32
-1 13 -4 1674.57 92.3
1 13 -4 1747.45 90.98
1 -13 4 1875.71 93.16
-1 -13 -4 1831.03 91.23
1 13 -4 1716.61 89.09
1 13 4 1956.82 89.52
-1 13 4 1087.81 90.61
-1 -13 -4 1526.44 93.74
1 -13 -4 1904.49 93.64
1 -13 4 1932.73 91.63
-1 13 4 1570.87 97.35
-1 13 -4 1576.61 96.64
1 13 -4 1290.01 89.05
-1 -13 4 1907.28 89.35
-1 -13 4 1581.54 98.9
-1 13 4 1673.81 97.55
1 -13 -4 1442.11 91.45
1 13 -4 1592.93 92.73
-1 -13 -4 1549.65 95.88
-1 -13 -4 1748.13 93.12
1 13 -4 1652.09 94.76
-1 -13 4 2128.66 95.66
-1 13 4 1523.47 95.1
-1 -13 4 1542.91 95.21
-1 13 -4 1536.6 93.23
-1 -13 -4 1596.85 93.83
-1 13 -4 1672.83 89.8
1 -13 -4 1542.16 93.4
-1 13 4 1891.37 93.76
1 13 4 1177.91 92.68
-1 -14 -4 3.24 1.56
1 -14 4 6.44 2.95
1 14 -4 4.36 2.98
-1 14 -4 3.6 2.39
1 -14 -4 3.3 1.55
1 -14 -4 -1.54 2.97
1 14 -4 3.06 1.82
1 14 4 3.68 1.7
1 -14 -4 2.66 1.94
-1 -14 -4 -0.19 1.59
1 14 -4 2.73 1.65
-1 -14 -4 1.11 1.81
1 14 -4 0.69 2.26
1 -14 -4 1.87 2.31
-1 14 4 -1.15 2.9
-1 14 4 3.4 3.09
1 -14 4 3.82 2.18
-1 -14 4 3.16 1.68
-1 14 -4 1.11 2.55
1 14 -4 0.34 1.89
-1 -14 -4 2.07 2.82
-1 -14 4 2.54 2.93
-1 -14 -4 4.78 2.96
-1 -14 -4 0.69 2.45
-1 14 -4 1.51 2.33
-1 -14 4 1.93 2.23
-1 14 4 0.79 2.46
-1 14 4 1.91 2.6
1 14 4 2.8 2.72
-1 14 -4 2.05 1.74
1 -15 4 1727.9 83.64
-1 -15 -4 1442.32 75.6
-1 -15 -4 1426.22 77.62
-1 15 -4 1520.11 80.01
1 -15 -4 1491.15 77.13
1 15 -4 1460.81 79.77
1 15 -4 1433.39 77.26
1 15 4 1746.57 78.81
-1 -15 -4 1558.47 80.8
1 -15 4 1718.03 81.09
-1 -15 -4 1334.22 82.95
1 15 -4 1005.23 75.35
-1 15 4 1630.35 86.01
-1 15 -4 1312.66 83.35
1 -15 -4 1305.56 79.04
-1 -15 4 1357.17 78.36
1 15 -4 1376.88 80.05
-1 15 4 1841.3 85.5
1 -15 -4 1326.68 80.35
-1 15 -4 1356.91 80.42
-1 -15 -4 1337.16 80.82
-1 -15 -4 1504.29 80.84
1 15 -4 1398.71 81.76
-1 15 -4 1435.66 78.09
1 15 4 1545.56 83.34
-1 16 -4 1.18 1.72
1 -16 4 3.9 2.46
1 -16 -4 0.65 2.32
1 16 -4 2.34 2.27
1 16 -4 2.96 2.75
1 16 -4 0.65 1.63
-1 -16 -4 0.22 1.22
1 16 4 1.96 1.67
-1 -16 -4 0.75 1.73
1 -16 4 0.69 1.43
1 16 -4 2.52 2.15
-1 -16 -4 -0.89 2.75
1 16 -4 0.2 0.95
1 -16 -4 1.09 1.77
-1 16 4 1.09 2.25
-1 -16 4 0.6 1.38
-1 16 -4 1 2.9
1 16 4 -0.84 2.74
-1 -16 -4 3.53 2.18
-1 16 -4 1.39 1.58
-1 -16 -4 -2.05 2.43
-1 16 -4 -0.66 1.79
1 17 -4 616.34 37.63
1 17 -4 599.88 36.91
1 -17 4 635.26 41.01
-1 17 -4 601.39 35.35
-1 -17 -4 490.83 36.58
1 17 4 680.67 35.75
-1 17 4 615.25 39.75
-1 17 -4 439.86 36.44
1 -17 4 691.48 38.2
1 -17 -4 481.27 33.12
-1 -17 -4 498.58 34.74
-1 -17 -4 615.46 36.12
-1 17 -4 628.73 34.34
1 17 4 717.97 38.69
1 17 -4 552.13 35.82
-1 18 -4 3.58 2.05
1 18 -4 1.96 3.04
1 18 -4 3.85 2.48
1 -18 4 2.72 3.14
1 18 -4 3.49 2.55
1 18 4 7.31 2.57
-1 -18 -4 2.27 1.92
1 -18 -4 4.77 2.34
-1 -18 4 3.03 2.17
1 -18 -4 3.71 1.92
-1 18 4 4.29 3.67
1 -18 4 7.33 3.41
1 18 4 6.54 3.27
-1 18 -4 7.88 2.55
-1 -18 -4 7.49 2.9
1 19 -4 3.31 3.24
1 -19 4 9.64 4.69
-1 -19 -4 10.44 3.28
1 -19 -4 8.29 2.95
-1 19 4 4.28 2.94
1 -19 4 7.4 3.63
-1 -19 4 7 2.78
-1 19 -4 5.02 2.32
-1 -19 -4 8.16 2.74
1 19 4 10.61 3.38
1 20 -4 -1.97 2.26
1 -20 4 -1.41 2.06
1 -20 -4 -0.7 1.44
-1 -20 -4 1.49 1.71
1 -20 4 -1.22 2.8
-1 -20 4 1.15 1.32
-1 20 4 1.07 2.19
1 20 4 2.47 1.9
1 20 -4 1.65 1.9
-1 20 -4 -0.59 1.71
-1 -20 -4 1.35 1.84
1 21 -4 6.25 3.07
1 -21 4 5.21 3.3
-1 -21 -4 6.69 2.67
1 -21 -4 12.8 3.45
-1 -21 4 6.25 2.64
1 -21 4 2.29 2.65
-1 21 4 1.06 2.7
-1 -21 -4 9.46 2.97
1 21 4 10 3.45
1 21 -4 7.9 3.17
-1 21 -4 9.81 2.84
1 22 -4 -0.79 2
1 -22 4 -1.23 2.84
-1 -22 -4 2.99 2.31
1 -22 -4 1.45 1.97
1 -22 4 -1.06 2.68
-1 -22 4 2.28 1.95
-1 22 4 4.25 3.09
1 22 -4 3.83 2.74
-1 -22 -4 2.01 2.19
-1 22 -4 1.92 2.37
1 22 4 0.85 2.47
-1 23 -4 319.66 25.34
1 -23 4 439.69 32.3
1 23 -4 375.22 27.37
1 -23 -4 457.89 27.91
-1 -23 -4 446.38 28.14
-1 -23 4 386.75 26.15
1 -23 4 407.69 30.11
-1 -23 -4 412.33 26.69
1 23 4 483.56 29.66
-1 23 -4 420.03 27.1
1 23 -4 424.82 27.81
1 -23 -4 407.26 27.49
1 -24 4 1.15 3.35
1 24 -4 0.73 2.48
1 -24 -4 0.75 2.55
-1 -24 -4 0.76 2.72
-1 24 4 2.11 3.26
-1 -24 4 -0.58 2.24
1 -24 4 4.84 3.3
1 24 -4 -0.74 2.65
1 -24 -4 2.23 2.02
-1 24 -4 -0.69 3.33
-1 -24 -4 2.64 2.54
1 24 4 -0.88 3.02
1 -25 4 558.13 34.21
-1 25 -4 529.37 31.01
1 -25 -4 557.11 31.21
-1 -25 -4 544.53 30.16
1 -26 4 -0.92 2.99
-1 -26 -4 0.64 2.36
1 -26 -4 3.53 2.72
-1 0 -5 2.85 5.86
1 0 -5 0.5 0.9
-1 0 -5 0.36 0.52
-1 0 -5 0.21 0.43
1 0 -5 0.44 1.01
1 0 5 -3.17 3.27
-1 0 -5 0.33 0.58
1 0 -5 0.18 0.33
1 0 -5 -0.21 0.49
-1 0 -5 -0.25 0.59
-1 0 -5 0.22 0.46
1 0 -5 0.13 0.39
1 0 -5 -0.65 1.16
-1 0 5 -4.52 9.32
1 0 5 -2.48 4.43
-1 0 -5 -0.32 0.74
-1 0 -5 1.3 1.34
-1 0 -5 -2.7 4.81
-1 0 -5 -4.05 9.33
1 0 -5 0.47 0.46
-1 0 5 -0.72 1.28
-1 0 -5 0.08 0.28
1 0 -5 0.31 0.72
-1 0 5 -3.44 5
-1 0 -5 3.79 5.51
-1 0 -5 0.9 0.8
1 0 -5 0.48 0.6
1 1 -5 48.61 5.27
-1 1 -5 43.47 4.64
1 1 -5 40.93 5.25
1 -1 5 62.67 14.18
-1 -1 -5 43.11 4.54
-1 1 -5 44.31 13.07
1 -1 -5 34.65 4.72
-1 1 -5 36.87 4.16
-1 1 -5 39.94 3.71
-1 -1 -5 35.62 10.58
-1 -1 -5 39.11 3.73
1 1 5 32.25 10.66
1 1 -5 38.32 3.55
1 -1 -5 39.34 3.89
1 1 -5 37.61 3.35
1 1 -5 45.27 2.69
-1 1 -5 38.72 3.9
-1 -1 -5 39.16 3.65
1 -1 -5 44.51 3.41
1 -1 -5 36.43 2.93
-1 1 -5 59.81 13.07
-1 -1 -5 43.37 5.98
-1 -1 -5 26.33 10.92
1 1 -5 29.76 2.9
1 -1 5 47.04 12.66
-1 -1 5 52.04 6.8
1 -1 -5 45.78 6.35
1 1 -5 38.73 5.82
-1 1 -5 41.11 4.36
1 1 5 48.98 11.58
-1 1 -5 42.02 15.13
-1 -1 -5 38.09 4.42
1 -1 5 42.5 4.62
-1 1 5 34.35 5.87
-1 1 5 29.5 11.58
-1 -1 5 30.98 12.78
-1 1 5 51.62 13.69
1 -1 -5 45.68 4.49
1 -1 -5 38.66 3.93
-1 -1 -5 46.76 5.76
-1 1 -5 36.9 4.56
-1 -1 -5 43.21 3.07
-1 -1 -5 46.93 12.98
-1 1 -5 82.99 16.84
-1 -1 5 34.86 12.14
-1 1 -5 47.94 5.54
1 1 -5 40.31 3.9
-1 1 -5 41.21 2.78
1 1 -5 35.91 4.17
1 -2 -5 40.78 5.01
1 2 -5 41.45 4.79
-1 2 -5 42.29 4.32
-1 2 -5 46.95 4.59
1 -2 5 43.01 11.18
1 -2 5 42.04 4.66
-1 -2 -5 44.56 3.8
1 2 -5 44.46 5.06
-1 -2 -5 63.15 13.08
-1 2 -5 42.26 4.51
-1 2 -5 39.38 3.72
-1 -2 -5 44.12 4.6
1 2 -5 33.26 4.77
1 2 -5 35.88 2.44
1 -2 -5 44.28 4.3
1 2 -5 41.64 3.37
-1 -2 -5 42.31 4.48
1 -2 -5 35.76 2.54
-1 -2 -5 41.42 3.57
1 -2 -5 39.69 3.74
-1 2 -5 32.23 3.76
-1 2 -5 50.58 11.26
1 2 -5 32.5 2.56
-1 -2 -5 43.67 4.7
-1 -2 -5 44.07 6
-1 -2 5 46.94 13.52
-1 2 -5 38.23 4.1
-1 2 5 40.59 6.44
1 2 -5 30.74 5.24
1 -2 5 43.56 4.64
-1 -2 -5 58.28 14.43
1 2 5 44.72 10.87
-1 2 -5 38.35 2.77
-1 2 5 61.74 13.36
-1 -2 -5 44.66 6
-1 2 -5 39.05 4.39
-1 2 -5 43.7 11.63
-1 2 -5 43.06 5.3
1 -2 -5 37.93 4.18
-1 -2 -5 40.69 3.25
1 2 -5 33.88 4.09
1 2 -5 46.29 4.16
-1 3 -5 597.46 33.44
-1 3 -5 609.77 33.7
1 3 -5 595.43 34.96
1 -3 -5 581.23 34.5
-1 -3 -5 586.75 33.57
-1 -3 -5 600.16 31.95
-1 3 -5 572.51 32.31
1 3 -5 581.96 34.15
-1 3 -5 607.2 33.11
1 -3 5 589.98 33.87
1 3 -5 573.73 34.07
1 3 -5 486.76 30.6
1 -3 -5 621.26 33.62
1 -3 -5 561.89 32.89
-1 -3 -5 597.2 31.77
-1 -3 -5 605.64 33.41
-1 3 -5 520.65 32.72
-1 3 -5 765.94 47.99
-1 -3 -5 558.57 33.68
-1 -3 -5 679.53 36.95
-1 3 5 650.81 38.82
-1 3 -5 596.79 32.96
1 3 -5 708.27 37.55
-1 -3 5 653.99 55.73
-1 -3 -5 599.95 50.46
1 3 5 676.84 46.44
1 -3 5 604.63 33.59
1 3 5 588.3 31.95
-1 3 -5 725.99 50.76
-1 -3 -5 621.34 37.43
-1 -3 -5 678.97 47.72
-1 3 5 605.73 49.2
1 -3 -5 581.61 33.09
-1 3 -5 649.71 35.31
1 3 -5 553.99 33.2
-1 -3 -5 639.06 32.13
-1 3 5 599.14 34.21
-1 3 -5 570.47 32.97
1 -3 5 674.9 50.25
-1 3 -5 544.79 30.97
-1 4 -5 26.01 3.07
-1 -4 -5 36.62 8.65
-1 -4 -5 29.26 3.8
-1 -4 -5 26.9 2.7
1 4 -5 24.09 3.99
-1 4 -5 25.8 3.74
1 -4 5 28.34 3.87
-1 4 -5 31.15 3.61
1 -4 -5 25.97 4.01
1 4 -5 30.51 4.1
-1 4 -5 52.69 11.01
1 4 -5 24.42 3.82
1 -4 5 21.24 7.84
-1 -4 -5 28.31 3.58
1 -4 -5 32.91 4.22
-1 -4 -5 29.06 2.69
1 4 -5 21.84 4.23
1 4 5 34.39 8.42
-1 4 -5 24.75 9.65
-1 -4 -5 36.55 10.01
-1 -4 -5 38.09 8.14
-1 4 -5 35.46 8.39
-1 -4 -5 25.8 3.74
-1 -4 5 31.88 10.34
-1 4 5 30.3 5.92
-1 4 -5 31.86 3.48
1 -4 5 34.79 3.98
-1 4 5 37.84 11.12
-1 -4 -5 29.3 4.86
-1 4 -5 25.75 4.09
-1 4 -5 25.73 2.47
-1 -4 -5 21.28 7.22
-1 4 -5 44.43 10.13
-1 -4 -5 31.65 5.74
1 4 5 29.8 3.1
-1 4 5 28.28 4.02
1 -4 -5 33.89 3.8
-1 4 5 38.97 9.52
-1 -4 -5 32.02 3.42
-1 4 -5 25.59 3.17
-1 -5 -5 2.22 1.08
-1 5 -5 9.73 4.72
1 -5 5 1.78 2.6
-1 5 -5 2.6 1.08
1 5 -5 2.12 1.16
1 5 -5 3.26 1.46
-1 -5 -5 1.45 3.67
1 -5 5 2.02 1.38
-1 5 -5 4.42 1.64
1 5 5 7.27 4.58
1 -5 -5 1.86 1.44
1 -5 -5 2.3 1.35
-1 -5 -5 3.28 1.31
-1 -5 -5 3.16 0.79
-1 5 5 4.33 1.2
-1 5 -5 3.82 3.48
-1 5 -5 5.06 1.33
1 5 5 1.38 3.17
-1 5 5 2.91 2
1 -5 5 3.44 1.28
-1 -5 -5 1.97 3.51
-1 -5 -5 1.66 1.21
-1 -5 -5 -1.18 3.44
-1 5 -5 2.2 2.27
-1 5 5 2.3 3.35
1 -5 5 1.49 2.66
1 5 -5 1.96 1.65
-1 -5 -5 2.52 1.59
-1 -5 5 7.3 5.01
-1 5 -5 4.02 1.72
-1 -5 -5 0.62 1.11
-1 -5 5 3.58 2.61
-1 5 5 7.14 4.11
-1 5 -5 1.58 3.64
-1 -5 -5 3.17 3.65
-1 -5 -5 -0.93 2.36
1 -5 -5 1.23 0.96
-1 5 -5 2.19 0.88
-1 5 5 2.15 1.34
1 5 5 2.83 1.07
1 -6 -5 103.58 9.65
1 6 -5 111.25 9.34
1 -6 5 115.79 8.84
1 6 -5 119.22 9.54
-1 6 -5 107.3 8.42
1 6 -5 119.39 9.65
-1 6 -5 124.85 10.4
1 -6 5 100.74 9.18
-1 -6 -5 113.11 8.82
-1 6 5 100.85 7.99
1 6 -5 119.35 7.94
1 6 5 127.71 7.56
1 -6 -5 119.76 10.54
-1 6 -5 122.02 8.36
-1 -6 -5 100.37 15.48
1 6 5 113.21 14.26
1 6 -5 127.77 11.46
-1 6 -5 147.76 19.1
-1 6 5 122.94 13.56
-1 6 5 134.62 18.95
-1 -6 -5 108.57 10.62
1 -6 5 123.63 9.18
-1 -6 -5 113.81 13.25
1 -6 5 118.51 14.97
-1 -6 5 129.36 19.61
-1 6 -5 142.87 15.15
1 6 -5 145.34 15.51
-1 -6 -5 106.91 9.58
-1 6 5 112.92 9.59
-1 -6 -5 142.42 16.16
1 -6 -5 118.89 14.93
-1 -6 -5 72.86 11.18
-1 6 -5 123.91 15.8
-1 -6 5 93.72 14.9
1 -6 -5 91.26 8.19
-1 6 -5 107.42 7.62
-1 6 5 119.38 16.2
-1 6 -5 113.96 15.14
-1 -6 -5 126.54 15.68
-1 6 -5 126.79 10.53
1 6 5 124.51 16.76
1 6 5 117.89 8.43
-1 -6 5 114.26 8.97
1 -7 5 5.34 1.79
-1 7 -5 4.55 2.04
1 7 -5 11.33 4.84
1 7 -5 3.78 1.52
1 -7 -5 6.44 3.76
-1 7 -5 5.48 3.46
-1 7 -5 4.07 1.38
1 -7 5 5.3 1.56
1 -7 5 4.75 1.65
1 -7 -5 6.99 2.54
1 7 5 4.78 1.02
1 7 -5 6.86 1.99
1 7 -5 6.1 1.4
-1 7 5 5.14 1.44
-1 -7 -5 3.82 1.45
-1 7 -5 2.15 2.73
-1 -7 -5 10.31 5.01
-1 -7 -5 5.95 3.4
-1 7 -5 4.94 1.39
1 7 -5 5.53 3.61
-1 -7 -5 1.41 1.21
-1 7 5 16.09 6.87
1 -7 5 3.59 1.4
-1 7 5 15.61 4.79
-1 -7 -5 6.47 2.32
1 7 -5 11.01 3.33
-1 7 -5 11.1 5.39
-1 -7 5 2.15 4.42
1 -7 -5 1.03 2.39
-1 -7 5 1.59 2.32
-1 7 5 1.57 3.62
-1 -7 -5 2.56 3.24
1 7 5 3.34 1.27
1 -7 -5 3.21 1.46
-1 -7 -5 5.23 3.05
-1 7 5 1.89 1.39
-1 7 -5 3.6 1.85
-1 7 -5 1.33 3.08
-1 -7 -5 6.76 3.69
-1 -7 5 2.95 1.39
-1 8 -5 131.99 10.67
1 -8 5 161.79 11.68
1 -8 5 158.66 11.91
-1 8 -5 131.86 12.69
1 8 -5 154.57 11.59
1 -8 5 146.25 11.14
1 8 -5 150.03 11.73
1 8 -5 150.1 10.02
-1 -8 -5 150.16 11.02
1 -8 -5 142.57 13.47
1 8 5 157.55 9.49
-1 8 -5 137.96 8.36
-1 8 5 156.73 10.67
-1 8 5 150.38 19.66
1 -8 5 151.69 11.16
-1 8 -5 156.53 19.18
-1 -8 -5 148.24 13.11
-1 -8 5 171.01 21.65
1 8 -5 148.91 15.67
-1 -8 -5 164.91 19.26
-1 -8 -5 140.16 12.07
1 -8 -5 164.35 15.65
-1 8 -5 147.23 15.29
-1 -8 -5 154.63 15.08
1 8 -5 184.78 14.34
1 -8 -5 146.85 16.47
-1 -8 -5 129.64 15.83
1 -8 -5 169.89 11.13
-1 -8 -5 138.22 14.87
-1 8 5 156.78 12.08
-1 8 -5 162.45 17.09
-1 -8 -5 145.1 16.53
-1 -8 5 163.77 18.65
-1 8 5 137.91 17.55
1 8 -5 145.69 17.45
-1 8 -5 182.42 18.21
1 -8 5 169.77 12.94
1 8 5 152.73 10.97
-1 -8 5 154.92 11.44
-1 -9 -5 4.72 0.87
1 9 -5 6.37 3.72
1 9 -5 12.31 2.54
-1 9 -5 13.92 3.55
1 -9 5 7.08 1.99
-1 9 -5 3.99 1.56
1 -9 5 8.11 2.16
1 -9 5 6.05 1.91
1 -9 -5 5.83 3.81
1 9 -5 5.55 1.87
1 9 5 6.99 1.33
1 -9 -5 4.22 2.32
-1 -9 -5 7.18 1.97
-1 9 -5 4.67 0.61
-1 -9 -5 6.4 2.84
1 9 -5 6.29 1.52
-1 9 5 7.94 1.97
-1 9 5 5.42 4.17
-1 9 -5 5.72 3.27
-1 -9 -5 6.11 2.99
-1 -9 -5 4.61 2.16
1 -9 5 8.27 1.99
-1 9 -5 11.57 5.39
-1 -9 -5 4.69 3.61
-1 -9 -5 6.48 2.24
1 9 -5 7.34 2.84
1 -9 -5 2.8 2.17
-1 -9 5 1.94 3.47
1 9 -5 8.03 3.59
1 -9 -5 6.92 1.97
-1 -9 -5 1.21 2.51
-1 9 -5 2.47 2.86
-1 9 -5 7.74 1.95
-1 -9 -5 5.88 3.84
-1 -9 -5 0.89 2.27
-1 9 5 7.17 3.92
-1 -9 5 2.91 3.01
-1 -9 5 5.2 2.02
-1 9 -5 10.63 4.56
-1 9 5 4.16 1.72
1 -9 5 8.1 2.54
1 9 5 8.67 2.09
1 10 -5 9 2.3
1 -10 5 12.4 2.62
1 -10 5 8.67 2.33
-1 -10 -5 7.27 1.26
1 10 -5 6.1 3.57
1 -10 -5 4.48 3.07
-1 10 -5 9.96 3.44
-1 10 -5 8.8 2.41
1 -10 5 8.65 2.37
-1 10 5 9.94 2.31
1 10 -5 7.75 2.31
-1 -10 -5 10.47 2.45
-1 -10 -5 5.61 2.57
1 -10 -5 7.48 3.11
1 10 -5 6.91 1.66
1 10 5 8.13 1.58
-1 -10 5 5.7 0.97
-1 10 5 5.18 3.99
-1 10 -5 4.74 3.66
-1 -10 -5 4.04 2.33
-1 -10 -5 4.09 2.55
1 10 -5 1.52 1.78
-1 -10 5 7.45 5.44
1 -10 5 9.8 2.24
-1 10 -5 5.44 3.26
-1 -10 -5 13.51 6
1 -10 -5 3.59 2.8
1 10 -5 6.78 3.47
-1 10 -5 2.24 3.07
-1 -10 -5 8.06 3.77
-1 10 -5 5.93 3.88
1 -10 -5 8.34 2.11
-1 10 -5 9.33 2.19
-1 -10 -5 5.68 3.33
-1 -10 5 4.21 3.56
-1 10 5 22.12 6.37
-1 10 5 9.99 2.64
1 10 5 7.23 2.26
-1 -10 5 11.41 2.88
-1 11 -5 284.68 23.08
1 11 -5 381.63 21.23
1 -11 5 407.62 21.99
1 11 -5 379.09 20.85
-1 11 -5 372.35 21.82
-1 -11 -5 304.69 17.25
1 -11 5 429.86 21.85
1 -11 5 404.44 21.41
-1 -11 -5 298.11 23.26
1 11 -5 358.61 18.54
-1 -11 -5 383.25 20.59
1 11 5 374.86 18.04
1 -11 -5 363.63 23.73
-1 11 5 408.89 21.2
-1 -11 5 318.92 30.16
-1 11 -5 354.21 29.14
1 -11 5 384.5 20.36
-1 11 5 260.36 28
-1 -11 -5 377.07 29.18
-1 -11 5 303.22 16.66
-1 -11 -5 397.61 24.43
1 11 -5 315.62 23.88
-1 11 5 354.25 29.9
-1 11 -5 373.54 24.69
1 -11 -5 346.97 23.9
-1 -11 -5 383.48 27.17
1 -11 -5 365.57 26.09
1 11 -5 364.38 26.87
-1 11 -5 402.72 26.7
-1 11 5 356.27 28.16
-1 -11 -5 357.65 26.05
1 11 5 420.86 22.01
-1 11 5 398.5 22.34
-1 -11 5 323.63 27.49
-1 11 -5 399.7 19.89
-1 -11 5 429.65 22.13
-1 11 -5 408.98 27.78
1 12 -5 8.79 2.5
1 12 -5 12.5 4.7
-1 -12 -5 7.75 1.44
1 -12 5 11.05 2.9
-1 12 -5 14.88 4.1
1 -12 -5 6.3 3.27
1 -12 5 11.26 3.08
-1 12 -5 7.06 2.83
1 -12 -5 9.08 3.24
-1 12 5 7.4 1.13
-1 12 5 16.89 3.48
-1 -12 -5 4.33 2.7
1 12 -5 15.42 3.26
-1 12 5 5.91 1.13
-1 -12 -5 9.77 2.52
1 12 5 8.79 1.75
1 12 -5 8.59 2.02
-1 -12 5 7.5 1.38
-1 12 -5 7.36 3.5
-1 -12 5 10.44 5.68
-1 12 -5 8.79 4.79
-1 12 5 12.72 5.68
1 12 -5 6.12 2.56
1 -12 5 5.79 1.88
-1 -12 -5 12.57 5.4
1 12 -5 1.82 2.68
-1 12 5 6.55 4.15
1 -12 -5 12.55 4.06
-1 -12 5 6.61 4.11
-1 12 -5 8.1 2.25
-1 12 -5 9.21 4.23
1 12 5 7.99 2.86
-1 12 5 5.2 3.31
-1 -12 -5 12.74 4.53
-1 12 5 11.67 3.3
-1 -12 5 10.54 3.16
-1 12 -5 13.4 4.76
-1 -13 -5 490.38 26.44
1 13 -5 502.38 30.36
-1 13 -5 517.64 32.85
1 -13 5 552.2 31.91
-1 13 5 415.59 26.26
-1 13 5 446.18 26.72
-1 -13 -5 534.81 30.52
1 13 -5 476.29 28.01
-1 -13 -5 501.33 33.08
1 -13 -5 566.73 32.94
1 13 5 523.94 27.85
-1 -13 -5 463.7 36.58
-1 13 5 368.4 35.37
1 13 -5 378.64 29.56
-1 -13 5 469.02 27.05
-1 -13 5 513.41 40.08
1 13 -5 451.56 32.77
-1 13 -5 465.73 36.84
-1 13 5 454.74 37.65
1 -13 5 540.81 30.25
1 -13 -5 467.14 32.38
-1 -13 -5 475.14 34.18
-1 -13 -5 482.29 32.43
-1 13 -5 453.67 33.54
-1 13 5 459.24 35.9
-1 -13 5 491.72 36.69
1 -13 -5 489.26 34.39
-1 13 5 577.04 32.96
1 13 -5 467.7 34.7
-1 13 -5 519.64 29.02
1 13 5 593.74 33.39
1 14 -5 20.08 3.92
1 14 -5 25.64 5.83
-1 14 -5 28.43 5.05
1 -14 -5 23.45 3.07
1 -14 -5 15.48 5.2
1 -14 5 28.79 5.31
-1 -14 -5 23.36 2.43
1 -14 -5 25.39 4.97
-1 14 5 16.83 2.46
-1 -14 -5 26.37 5.29
-1 -14 -5 27.76 4.59
1 14 -5 20.26 3.17
-1 14 5 19.36 2.79
1 14 5 29.45 3.46
1 -14 -5 17.89 4.53
1 14 -5 17.16 4.73
1 -14 5 25.7 4.23
-1 14 5 21.78 6.61
-1 -14 5 16.16 6.54
-1 -14 -5 15.54 5.61
1 14 -5 19.09 3.72
-1 -14 5 20.94 2.85
-1 14 -5 23.25 6.7
-1 14 5 18.32 5.91
-1 -14 -5 28.64 5.47
-1 -14 -5 27.5 6.34
-1 14 5 24.41 5.13
-1 14 -5 25.24 3.7
-1 14 -5 21.6 5.42
1 14 5 19.28 4.99
1 15 -5 43.1 7.53
-1 15 -5 41.48 6.26
1 15 -5 46.97 6.03
1 -15 -5 34.36 4.29
1 -15 -5 30.4 6.2
1 -15 5 47.44 6.99
-1 15 5 29.53 4.17
1 15 5 51.57 4.99
-1 -15 -5 40.83 6.14
1 -15 -5 48.95 6.78
-1 15 5 36.76 4.02
-1 -15 -5 46.32 6.95
1 15 -5 38.16 4.65
1 -15 -5 37.29 6.3
1 -15 5 52.64 6.39
-1 -15 5 43.48 4.6
-1 15 5 34.78 7.82
1 15 -5 27.32 4.29
1 15 -5 35.7 6.56
-1 -15 -5 35.93 8.03
-1 15 -5 44.76 8.5
-1 -15 -5 50.02 7.74
-1 15 5 54.61 7.76
-1 -15 -5 41.46 6.61
-1 15 -5 37.71 6.79
-1 15 -5 50.84 5.42
1 15 5 38.77 7.53
1 16 -5 3.21 2.2
-1 16 -5 6.76 2.51
1 16 -5 8.83 3.5
1 -16 5 8.18 3.24
-1 16 5 2.19 1.63
-1 16 5 2.28 1.17
-1 -16 -5 4.84 3
-1 -16 -5 7.53 2.69
1 16 5 2.72 1.45
1 -16 -5 5.05 2.35
1 -16 5 0.64 1.33
1 -16 -5 4.27 2.43
1 16 -5 2.56 1.33
-1 -16 5 2.7 1.55
-1 16 -5 15.13 5.03
-1 16 5 -1.29 2.66
-1 -16 -5 5.42 2.63
-1 -16 -5 0.77 1.94
1 16 5 5.01 3.65
-1 16 -5 2.2 1.44
-1 16 5 6 3.09
-1 17 -5 29.37 5.05
1 17 -5 20.43 5.29
1 17 -5 26.02 5.19
1 -17 5 32.29 6.63
1 17 5 32.55 4.4
-1 17 5 18.94 3.5
-1 -17 -5 28.66 5.78
-1 17 5 22.8 3.84
-1 17 -5 23.87 6.84
1 -17 -5 16.39 4.11
1 -17 5 26.59 5.05
-1 17 5 26.45 6.72
-1 -17 5 33.79 4.64
1 17 -5 11.53 2.59
-1 17 -5 31.98 4.47
-1 17 5 32.14 6.99
-1 -17 -5 35.58 6.4
-1 -17 -5 24.48 5.12
1 17 5 20.67 5.79
-1 18 -5 14.63 3.78
1 -18 5 15.75 5.36
1 18 -5 13.83 4.27
1 18 -5 11.6 4.26
-1 18 5 21.24 3.69
-1 18 5 6.17 3.9
-1 -18 5 20.42 4.13
1 -18 5 22.01 4.82
-1 18 5 30.57 7.16
-1 18 -5 15 3.32
-1 -18 -5 16.03 4.09
1 18 5 16.08 5
1 -19 5 7.11 4.91
1 19 -5 4.49 3.72
1 19 -5 12.44 4.35
-1 -19 5 13.32 5.74
-1 19 -5 17.93 4.05
-1 19 5 14.92 3.55
-1 -19 5 19.15 4.28
-1 19 5 8.53 4.4
1 -19 5 11.21 3.91
-1 -19 -5 18.3 4.21
-1 19 5 16.93 5.97
-1 19 -5 16.44 3.56
1 19 5 15.42 4.67
-1 20 -5 0.66 2.17
1 20 -5 1.19 3.25
1 -20 5 8.32 4.54
-1 -20 5 5.13 4.31
-1 20 5 0.72 1.81
-1 -20 -5 6.25 3.01
-1 -20 5 1.64 1.89
1 -20 5 3.22 2.92
-1 20 5 2.41 3.29
-1 20 -5 3.92 2.38
-1 -20 -5 2.28 2.21
1 20 -5 4.38 2.71
-1 20 5 7.13 4.86
1 20 5 1.99 3.08
-1 -21 5 391.43 36.02
1 -21 5 260.27 31.94
1 21 -5 381.41 29.54
1 -21 -5 471.01 28.27
-1 -21 -5 440.15 28.12
-1 21 5 246.4 27.89
1 -21 5 224.27 27.21
-1 -21 5 295.24 25.86
-1 -21 -5 435.57 27.82
-1 21 5 438.97 35.71
1 21 5 523.06 31.37
-1 21 -5 441.58 26.48
1 21 -5 487.78 29.45
1 -22 5 12.05 6.45
-1 -22 5 19.41 8.35
1 22 -5 18.51 5.91
1 -22 -5 19.91 4.81
-1 -22 -5 12.62 4.07
-1 22 5 8.38 4.69
1 -22 5 10.51 5.14
-1 22 -5 23.87 4.5
-1 -22 -5 23.28 5.09
1 22 -5 17.36 4.82
-1 22 5 22.29 7.74
1 22 5 18.6 5.4
1 -23 5 222.7 24.33
-1 -23 5 251.35 26.39
1 23 -5 191.65 18.54
-1 -23 -5 242.86 18.84
1 -23 -5 222.95 18.37
1 -23 5 183.63 20.35
1 -23 -5 222.95 18.64
-1 -23 -5 230.56 18.19
-1 23 -5 243.51 17.59
1 23 5 278.34 21.34
-1 23 5 321.18 26.26
1 23 -5 246.74 18.86
1 -24 5 10.17 5.22
1 -24 5 12.01 4.54
-1 24 -5 13.86 4.07
-1 -24 -5 11.78 3.77
1 -24 -5 15.69 4.39
-1 -25 -5 125.69 12.7
-1 25 -5 131.77 12.65
1 -25 -5 130.83 13.44
1 0 -6 33.61 4.65
1 0 -6 31.58 14.05
-1 0 -6 23.26 3.61
-1 0 -6 30.11 17.94
-1 0 -6 27.02 4.11
-1 0 -6 33.96 3.96
-1 0 -6 23.86 3.1
1 0 -6 28.88 4.64
1 0 -6 20.78 2.29
-1 0 -6 25.87 2.99
1 0 -6 24.57 2.32
1 0 -6 22.77 2.93
-1 0 6 21.06 14.4
-1 0 -6 22.2 13.91
1 0 -6 21.4 2.52
1 0 -6 20.29 12.62
-1 0 -6 4.79 11.1
1 0 -6 18.4 4.97
-1 0 -6 27.01 3.62
-1 0 -6 35.21 17.6
-1 0 6 8.29 11.37
-1 0 -6 20.32 4.13
-1 0 -6 32.61 5.19
-1 0 -6 27.64 2.35
1 0 -6 22.96 3.22
1 0 -6 24.15 3.53
-1 -1 -6 2889.69 153.52
-1 1 -6 3026.82 155.43
1 1 -6 3000.45 157.08
-1 1 -6 3085.38 154.47
1 -1 -6 3044.79 156.32
-1 -1 -6 2988.67 155.13
1 1 -6 3038.22 156.12
-1 1 -6 2997.27 154.8
-1 1 -6 2829.94 153.48
1 1 -6 2871.58 155.67
1 -1 -6 2918.19 153.72
1 1 -6 2794.48 152.5
1 -1 -6 3181.88 152.6
1 1 -6 3219.41 151.7
1 1 -6 2832.55 152.98
1 -1 -6 2514.41 151.66
-1 -1 -6 2842.89 154.56
-1 1 -6 2800.75 153.46
-1 -1 -6 2835.45 152.99
-1 1 6 2107.09 182.19
1 1 -6 2684.57 152.15
-1 -1 -6 3052.91 154.94
-1 1 -6 2942.86 154.33
-1 -1 -6 3092.54 158.71
1 1 -6 3305.31 159.69
1 1 -6 3285.33 182.04
-1 1 -6 2979.98 199.73
1 -1 -6 2726.79 152.91
-1 -1 -6 2551.71 184.26
-1 1 -6 2859.41 177.08
-1 -1 6 2423.37 188.15
1 1 -6 3134.6 154.2
1 -1 -6 2952.5 154.34
-1 -1 -6 3284.24 158.03
-1 1 -6 3073.7 156.03
-1 1 -6 2870.62 184.17
-1 -1 -6 2659.9 182.11
-1 1 -6 3056.96 156.9
-1 -1 6 2165.7 178.01
-1 1 6 2572.74 182.25
1 1 -6 2341.25 182.08
-1 1 -6 2873.17 151.76
1 -1 -6 3062.52 154.28
-1 -1 -6 2964.48 152.11
1 1 -6 2896.65 154.4
-1 -1 -6 3216.21 181.19
1 -1 -6 3061.61 181.06
-1 1 -6 2324.63 178.97
1 -2 -6 8.67 2.69
-1 -2 -6 14.51 2.9
-1 -2 -6 7.17 6.56
-1 2 -6 12.9 2.76
1 2 -6 17.85 3.74
-1 -2 -6 14.17 2.32
1 2 -6 21.44 3.69
-1 2 -6 19.38 3.11
1 -2 -6 24.23 9.37
1 2 -6 14.23 3.08
-1 2 -6 13.65 2.37
-1 -2 -6 13.43 2.63
1 -2 -6 13.01 2.29
1 -2 -6 20.54 2.95
1 2 -6 14.75 2.01
1 2 -6 14.92 1.4
-1 -2 -6 15.64 2.5
-1 2 -6 13.83 2.42
-1 -2 -6 17.29 2.14
1 2 -6 18.06 2.3
-1 2 -6 20.89 3.45
1 2 -6 23.67 4.97
-1 2 -6 8.94 9.79
1 2 -6 13.81 1.48
-1 -2 -6 14.29 2.8
-1 2 6 14.38 4.38
-1 -2 6 8.03 8.31
-1 -2 -6 16.3 10.1
1 -2 6 19.95 3.32
1 -2 -6 14.88 2.37
1 -2 -6 12.5 4.1
-1 2 -6 16.88 2.7
-1 2 -6 21.41 4.98
-1 -2 -6 23.18 4.73
1 2 -6 22.77 9.7
1 2 -6 17.29 2.7
1 -2 -6 15.9 2.75
-1 2 -6 27.88 12.54
1 -2 -6 17.57 2.87
-1 2 6 15.17 9.4
-1 2 -6 11.07 3.22
-1 -2 -6 22.43 4.75
1 2 -6 15.75 2.88
-1 2 -6 18.31 3.36
-1 -2 -6 18.9 2.14
-1 2 -6 13.65 1.59
-1 3 -6 299.18 19.19
-1 3 -6 319.78 19.31
1 3 -6 295.38 20.48
-1 3 -6 298.61 18.7
1 3 -6 295.12 19.73
-1 3 -6 268.41 17.75
1 3 -6 311.2 19.9
1 -3 6 314.76 19.89
-1 -3 -6 303.21 19.32
1 -3 -6 291.55 19.99
-1 -3 -6 305.47 17.7
-1 3 -6 288.73 18.27
1 -3 -6 284.98 18.11
-1 -3 -6 297.04 16.92
1 -3 -6 292.32 18.73
1 3 -6 260.86 15.82
-1 -3 -6 273.92 18.39
1 -3 6 303.25 19.02
-1 -3 -6 411.47 32.65
-1 3 -6 368.42 32.65
-1 -3 -6 356.88 22.79
1 3 -6 314.06 22.54
-1 3 6 339.2 24.78
-1 -3 -6 296.28 19.1
-1 -3 -6 349.29 36.72
-1 3 -6 297.51 18.29
1 -3 -6 396.03 32.24
1 3 -6 351.98 32.04
-1 -3 6 358.39 41.53
-1 -3 -6 330.42 23.2
-1 3 -6 284.25 18.67
-1 -3 -6 374.17 33.59
-1 3 -6 277.04 16.28
-1 3 -6 352.58 34.58
-1 3 6 376.12 37
1 -3 -6 330.09 32.18
1 3 -6 283.58 18.57
1 -3 -6 289.58 18.37
-1 3 -6 293.4 20.35
-1 -3 -6 310.13 17.27
-1 4 -6 13.47 2.71
1 4 -6 15.47 7.24
1 -4 6 16.14 3.06
1 4 -6 20.8 3.45
-1 4 -6 13.58 2.32
-1 4 -6 16.31 2.68
1 4 -6 19.18 3.61
-1 4 -6 21.48 8.01
1 4 -6 20.15 3.43
-1 -4 -6 15.83 2.21
1 -4 -6 15.64 3.31
1 -4 -6 20.62 7.51
-1 -4 -6 20.56 6.98
-1 -4 -6 14.33 2.94
1 -4 -6 18.32 2.99
1 -4 -6 18.51 3.28
1 4 -6 11.31 1.41
-1 -4 -6 13.75 1.69
-1 -4 -6 15.4 2.73
-1 4 -6 9.12 2.17
-1 -4 -6 16.69 3.95
-1 -4 -6 20.01 6.38
-1 4 -6 15.06 4.07
1 4 -6 15.14 6.05
-1 4 6 15.87 4.68
-1 -4 -6 7.51 6.86
-1 4 6 15.01 8.21
-1 -4 -6 14.6 2.93
-1 4 -6 5.08 4.99
-1 4 -6 17.54 9.06
-1 4 -6 14.35 2.41
1 4 -6 6.25 2.65
1 -4 -6 15.57 5.6
1 -4 6 13.07 2.64
-1 -4 6 12.72 8.06
-1 4 -6 17.79 3.47
-1 4 6 35.71 10.42
-1 4 -6 16.18 7.25
-1 -4 -6 22.26 7.55
-1 -4 -6 10.74 2.02
-1 4 -6 13.56 1.67
-1 -4 6 23.93 8.92
-1 -4 -6 19.53 4.84
1 4 -6 15.1 2.81
-1 4 -6 17.29 2.76
1 -4 -6 18.63 2.84
1 4 6 17.49 2.42
-1 5 -6 93.99 8.39
1 -5 -6 68.42 12.9
-1 -5 -6 86.9 14.11
-1 5 -6 72.77 6.56
-1 5 -6 70.88 13.74
-1 -5 -6 61.7 7.11
1 -5 6 79.8 7.85
-1 5 -6 77.62 7.03
1 -5 -6 79.45 8.25
1 5 -6 93.41 8.26
1 5 -6 85.59 8.02
1 5 -6 86.45 7.88
1 -5 -6 95.97 8.49
-1 -5 -6 66.09 9.55
-1 -5 -6 79.35 5.39
-1 -5 -6 82.04 7.12
-1 5 -6 101.05 14.17
-1 5 6 100.54 12.2
-1 -5 -6 80.46 9.49
-1 -5 -6 76.18 7.64
-1 5 -6 90.22 16.89
-1 5 6 73.76 16.69
-1 5 -6 82.05 6.61
-1 -5 -6 68.43 14.12
1 5 -6 84.68 9.9
1 5 -6 116.23 15.01
1 -5 -6 99.42 13.48
-1 -5 -6 102.47 13.42
1 -5 6 94.06 7.65
-1 -5 6 89.91 18.16
1 -5 -6 91.02 7.24
-1 -5 -6 70.64 13.32
1 5 -6 127.24 17.61
-1 -5 -6 74.32 10.58
-1 5 6 84.84 8.07
-1 5 -6 113.58 16.51
-1 -5 6 89.76 15.85
-1 5 6 89.16 16.53
-1 5 -6 72.76 5.6
-1 -5 -6 82.36 6.89
-1 5 -6 68.83 6.36
1 5 6 75.43 6.44
-1 5 -6 84 8.62
-1 6 -6 22.63 7.55
1 6 -6 35.55 9.1
-1 6 -6 29.81 3.64
-1 -6 -6 30.88 4.53
1 6 -6 29.32 4.39
-1 6 -6 34.1 4.91
1 6 -6 35.71 4.7
-1 -6 -6 36.44 8.77
1 -6 -6 14.29 6.31
1 -6 6 29.18 4.43
-1 -6 -6 30.77 3.94
1 -6 -6 31.49 4.87
-1 -6 -6 19.75 5.32
1 -6 6 32.74 4.13
-1 -6 6 21.55 9.33
-1 6 -6 29.69 3.43
-1 6 6 22.81 8.79
1 6 -6 26.33 7.44
-1 -6 -6 31.48 4.48
-1 6 -6 37.33 8.57
-1 -6 -6 36.54 7.72
1 -6 -6 23.22 6.42
-1 6 6 47.44 8.27
-1 -6 -6 38.15 9.88
1 6 -6 36.4 6.34
-1 6 -6 42.08 10.88
-1 -6 -6 30.27 5.54
-1 6 -6 36.1 8.92
-1 6 -6 33.47 5.13
-1 6 -6 30.07 3.33
-1 -6 -6 24.22 6.3
-1 -6 6 28.42 8.5
-1 -6 -6 34.77 8.67
-1 6 6 27.56 4.36
1 6 6 26.56 3.49
-1 6 6 26.16 8.68
1 -6 -6 32.12 3.95
1 -7 6 273.6 17.93
-1 7 -6 249.92 18.28
1 7 -6 253.44 17.34
-1 -7 -6 224.21 17.09
1 7 -6 270.04 17.5
-1 7 -6 231.84 16.02
-1 7 -6 215.86 14.2
-1 -7 -6 240.45 16.25
1 7 -6 245.75 14.88
1 -7 -6 260.5 19.05
-1 -7 -6 204.93 19.8
-1 7 6 242.15 15.72
-1 7 -6 278.88 24.07
1 -7 6 273.48 16.8
-1 -7 6 230.88 29.28
-1 -7 -6 320.22 24.24
-1 7 6 326.45 25.51
1 7 -6 305.95 21.33
1 -7 -6 244.38 22.42
-1 7 6 218.78 27.58
1 7 -6 221.99 22.5
-1 7 -6 242.52 15.26
-1 -7 -6 259.73 27.38
-1 -7 -6 231.35 17.34
-1 7 -6 304.91 30.17
-1 -7 6 236.22 26.4
1 7 6 279.45 16.35
-1 -7 -6 268.46 24.98
-1 -7 -6 174.18 20.08
-1 7 -6 300.48 26.79
1 -7 -6 226.17 23.43
-1 7 -6 259.5 24.87
-1 -7 -6 273.85 25.52
1 7 -6 244.14 25.19
-1 7 6 235.72 17.32
-1 7 6 237.52 26.33
1 -7 -6 232.49 15.95
-1 7 -6 254.01 18.32
1 -8 6 2.17 1.5
1 8 -6 4.82 1.81
-1 8 -6 6.08 4.7
1 -8 6 3.85 1.72
1 8 -6 7.76 3.92
-1 8 -6 4.85 1.78
-1 8 -6 9.35 3.01
1 -8 -6 8.54 5.08
1 -8 -6 3.91 2.68
-1 8 6 3.77 1.51
-1 -8 -6 4.73 2.93
1 8 -6 4.01 2.08
1 8 -6 5.51 1.47
-1 -8 -6 4.65 1.8
1 8 -6 2.7 2.79
-1 -8 6 2.42 4.98
-1 8 -6 1.2 3.5
-1 -8 -6 8.82 3.94
-1 8 -6 10.16 5.54
-1 -8 -6 15.21 6.2
1 -8 -6 1.15 2.9
1 -8 6 5.97 1.98
-1 8 6 4.51 5.69
1 8 -6 1.23 3.11
-1 8 -6 7.17 4.18
-1 -8 -6 7.3 3.69
-1 -8 -6 8.7 4.2
-1 8 6 4.95 2.2
1 -8 -6 5.35 1.96
-1 8 6 10.89 5.61
-1 -8 6 5.47 2
1 8 6 4.74 1.82
-1 -8 -6 5.73 4.18
-1 -8 6 -1.84 3.79
1 9 -6 2353.05 129.13
1 -9 6 2504.33 130.01
-1 9 -6 2312.02 131.46
-1 9 -6 2259.01 127.97
1 9 -6 2438.32 129.11
1 -9 6 2500.73 128.75
-1 -9 -6 2222.76 132.71
-1 9 6 2406.59 127.69
1 -9 -6 1863.85 131.19
-1 -9 -6 2452.78 128.19
1 9 -6 2441.89 126.26
1 -9 6 2576.97 128.43
-1 -9 -6 2290.67 141.81
1 9 -6 2206.49 132.79
-1 -9 6 2394.2 147.36
-1 9 -6 2410.41 143.16
1 9 -6 2254.9 135.44
-1 9 6 2245.53 144.3
-1 9 -6 2441.79 136.16
-1 -9 -6 2492.39 135.2
1 -9 -6 2341.66 134.9
-1 -9 -6 2429.93 138.53
-1 9 6 2244.8 140.58
1 -9 -6 2218.23 137.11
-1 9 -6 2471.48 139.53
-1 -9 -6 2370.26 134.23
1 9 -6 2431 139.21
-1 9 -6 2382.16 137.64
-1 -9 -6 2336.58 137.85
-1 -9 6 2180.99 140.38
-1 9 6 2577.38 130.28
1 9 6 2507.24 128.33
-1 -9 6 2401.51 128.86
1 -9 -6 2367.68 127.82
1 -10 6 3.6 2.08
-1 10 -6 6.45 2.25
-1 -10 -6 5.47 1.1
1 10 -6 7.96 2.48
-1 10 -6 8.4 3.59
1 -10 6 9.89 2.76
1 -10 -6 1.32 3.87
1 10 -6 12.8 5.49
1 -10 -6 8.49 3.9
-1 10 6 3.65 1.95
-1 -10 -6 8.9 3.32
1 10 -6 10.22 1.99
1 10 -6 9.74 2.97
-1 -10 -6 7.31 2.2
1 10 6 9.65 1.46
-1 10 6 2.07 3.71
-1 10 -6 1.08 4.31
-1 10 -6 7.4 5.4
1 10 -6 12.52 4.99
-1 -10 -6 2.93 3.35
-1 -10 6 2.24 4.01
-1 -10 -6 7.04 5.74
1 -10 -6 10.57 4.76
1 10 -6 2.96 2.71
1 -10 6 7.65 2.13
-1 -10 -6 5.31 4.12
-1 -10 -6 6.72 3.85
-1 10 -6 6.97 4.98
-1 -10 6 8.56 5.59
-1 10 6 8.43 5.5
-1 10 -6 6.63 2.21
-1 10 6 9.2 2.98
1 10 6 8.14 2.4
-1 -10 6 8.15 2.89
-1 -10 -6 7.98 4.76
-1 10 -6 10.36 4.44
1 11 -6 1270 68.92
-1 11 -6 938.51 71.04
1 11 -6 1355.06 69.76
-1 11 -6 1313.62 69.21
1 -11 6 1351.33 70.5
-1 -11 -6 1029.16 64.62
1 -11 -6 1223.23 72.28
-1 -11 -6 1360.53 73.07
1 11 -6 1232.81 66.12
-1 -11 -6 1250.92 68.42
-1 11 6 1344.89 68.49
1 11 6 1303.07 65.11
1 -11 6 1328.8 68.3
-1 -11 -6 1299.81 80.82
-1 -11 -6 1077.05 71.84
-1 11 6 1183.33 82.05
1 11 -6 776.03 69.91
-1 11 6 1204.34 82.69
1 -11 -6 1208.98 73.6
1 11 -6 1187.65 74.33
-1 -11 6 1216.69 84.39
-1 11 -6 1252.34 77.47
1 -11 -6 1153.55 75.54
-1 -11 -6 1295.78 73.3
-1 11 -6 1284.49 76.25
-1 -11 -6 1181.56 75.86
-1 11 -6 1309.12 67.32
-1 11 6 1404.48 70.84
-1 11 6 1101.18 78.1
-1 -11 6 1164.9 78.89
-1 -11 -6 1296.99 77.31
1 11 6 1421.97 69.45
-1 -11 6 1279.38 69.33
1 11 -6 1240.07 77.33
-1 -12 6 0.81 1.67
-1 -12 -6 0.9 1.1
-1 12 -6 1.98 2.7
1 12 -6 3.18 1.64
1 -12 -6 1.24 3.13
-1 12 -6 -0.61 1.54
1 -12 6 4.58 2.13
-1 -12 -6 1.7 1.75
1 -12 -6 -0.84 1.93
-1 -12 -6 2.94 1.82
1 12 6 2.17 0.97
1 12 -6 1.91 1.16
1 12 -6 6.44 2.34
-1 -12 6 4.19 5.28
-1 -12 -6 1.77 2.57
-1 12 6 1.92 3.95
1 -12 6 3.22 1.71
-1 12 6 4.13 4.75
-1 -12 -6 3.3 4.16
1 -12 -6 0.99 2.7
1 12 -6 2.45 2.23
-1 12 6 -1.58 2.83
-1 12 6 1.37 1.87
-1 12 -6 -1.31 4.06
-1 -12 6 1.61 2.88
-1 -12 -6 6.32 4.11
-1 12 -6 3.64 1.76
-1 -12 -6 4.95 3.13
-1 12 -6 2.39 2.76
1 12 6 5.21 2.15
-1 -13 6 282.05 20.12
1 13 -6 281.69 18.04
1 -13 6 268.24 18.58
-1 13 -6 240.89 18.14
-1 13 -6 223.18 19.16
1 13 -6 259.22 17.13
1 13 6 240.67 13.53
-1 -13 -6 259.01 19.36
1 -13 -6 285.19 19.8
-1 -13 -6 259.97 16.9
1 13 -6 234 14.39
1 -13 6 258.22 16.47
-1 13 6 163.39 22.01
-1 -13 6 221.01 25.9
1 13 -6 219.15 17.67
-1 13 6 226.66 24.81
1 -13 -6 228.12 19.6
-1 -13 -6 260.55 24.44
-1 -13 6 147.14 12.03
-1 13 -6 230.62 20.85
-1 13 6 290.57 19.34
-1 -13 -6 246.88 21.83
1 13 6 297.29 18.71
1 -13 -6 224.93 21.2
-1 13 -6 226.78 15.02
1 -14 -6 4.62 3.57
1 14 -6 6.01 2.58
-1 14 -6 5.18 2.96
1 14 -6 4.68 2.1
1 -14 6 6.79 2.81
-1 -14 6 7.25 3.24
-1 -14 -6 2.35 1.5
1 14 6 4.16 1.32
-1 -14 -6 1.67 1.93
1 -14 -6 4.75 2.59
-1 -14 6 2.47 0.91
1 14 -6 2.37 2.03
-1 -14 -6 7.76 4.23
-1 14 6 6.84 4.32
1 -14 6 5.14 2.13
1 -14 -6 4.63 3.17
-1 14 -6 5.86 2.1
-1 14 6 6.42 2.87
-1 14 -6 1.12 2.3
-1 -14 -6 5.82 3.4
1 14 6 3.06 2.24
1 15 -6 12.69 3.3
-1 15 -6 15.37 4.37
1 15 -6 13.77 3.86
1 -15 6 14.77 3.83
-1 -15 6 10.67 3.66
1 -15 -6 10.17 3.48
1 15 6 11.32 2.07
-1 -15 -6 14.93 4.4
-1 -15 -6 14.02 3.76
-1 15 6 9.62 4.71
-1 -15 6 11.72 1.88
1 -15 -6 9.86 3.75
1 15 -6 11.53 2.9
1 -15 6 15.98 3.42
-1 15 -6 12.64 2.7
-1 -15 -6 20.44 4.76
-1 -15 -6 5.64 4.54
-1 15 6 11.44 3.79
1 15 6 13.44 4.38
1 16 -6 21.76 4.39
-1 16 -6 17.56 4.33
1 -16 6 23.39 5.32
-1 -16 6 24.13 5.89
-1 -16 -6 16.32 4.38
1 -16 -6 20.98 4.68
-1 -16 -6 19.11 4.74
-1 16 6 12.19 5.73
-1 -16 6 14.09 2.32
1 -16 6 17.35 3.6
1 -16 -6 16.39 4.7
-1 -16 -6 31.38 5.8
-1 16 -6 14.48 3.17
-1 -16 -6 15.23 4.97
-1 16 6 18.53 5
1 16 6 22.24 5.63
1 17 -6 271.33 21.6
1 -17 6 307.6 23.95
-1 -17 6 306.15 24.87
-1 17 -6 320.49 22.09
-1 -17 -6 242.98 21.82
1 -17 -6 289.23 21.78
-1 -17 -6 296.45 22.13
-1 -17 6 245.9 17.24
1 -17 6 328.07 21.58
-1 17 6 217.75 24.6
-1 -17 -6 298.94 22.4
-1 17 6 376.96 26.13
1 17 6 294.08 25.32
-1 17 -6 271.33 18.95
1 -18 6 -1.12 2.84
1 18 -6 -0.82 2.39
-1 -18 6 2.54 2.92
-1 18 -6 1.46 2.26
-1 -18 -6 -1.01 2.55
1 -18 -6 -0.78 2.28
-1 -18 -6 -0.81 2.04
-1 18 6 -1.43 2.94
-1 -18 6 0.7 1.19
1 -18 6 0.73 1.85
-1 -18 -6 3.37 2.29
1 18 6 -1.48 4.03
-1 18 -6 -0.48 1.57
-1 18 6 1.25 3.63
1 19 -6 683.79 44.79
-1 -19 6 804.49 50.51
1 -19 6 864.8 50.29
-1 19 -6 679.48 42.51
1 -19 -6 708.67 43.37
1 -19 6 680.97 43.47
-1 19 6 414.64 44.04
-1 19 6 838.41 50.9
1 19 6 552.43 46.75
-1 19 -6 689.02 40.49
-1 -19 -6 692.08 43.51
1 20 -6 7.8 4.44
-1 -20 6 3.23 4.08
1 -20 6 8.94 4.85
-1 20 -6 2.16 2.67
1 -20 6 8.39 3.72
-1 20 6 -1.38 3.48
-1 20 -6 -0.54 3.03
-1 20 6 6.6 5.37
-1 -20 -6 5.84 3.22
1 20 6 6.64 4.33
-1 21 -6 590.94 35.33
-1 -21 6 638.02 46.52
1 -21 6 654.73 45.86
1 21 -6 527.63 39.01
1 -21 6 534.67 38.14
-1 -21 -6 629.9 36.8
-1 21 6 518.2 43.73
1 21 6 665.13 41.61
-1 21 -6 570.86 33.64
1 21 -6 538.83 36.1
1 -22 6 -2.01 5.47
1 -22 6 -1.21 2.49
-1 22 6 -1.36 2.79
-1 22 -6 -0.58 1.8
1 22 -6 0.8 2.46
1 -22 -6 0.93 1.91
-1 -22 -6 0.82 2.07
-1 22 6 3.9 6.02
1 22 6 -1.19 4.4
1 -23 6 4.16 7.16
-1 23 6 8.02 4.84
1 23 -6 22.93 4.93
1 -23 -6 20.95 5.45
1 23 6 23.01 6.1
-1 24 6 6.64 3.37
1 0 -7 -0.53 1.23
-1 0 -7 0.61 0.63
-1 0 -7 0.51 1.05
1 0 -7 0.67 0.98
-1 0 -7 0.43 1
-1 0 -7 -0.37 1.28
-1 0 -7 0.8 0.92
-1 0 -7 0.25 0.69
-1 0 -7 1.43 2.95
1 0 -7 0.27 0.69
1 0 -7 0.72 0.7
1 0 -7 0.26 0.54
1 0 -7 0.62 0.64
-1 0 7 -5.67 13.06
-1 0 -7 0.38 1.04
-1 0 -7 0.38 0.6
-1 0 -7 0.61 1.4
-1 0 -7 0.63 1.46
-1 0 7 -4.67 6.8
1 0 -7 0.35 1.09
1 0 -7 -0.36 1.16
-1 1 -7 290.91 18.67
1 1 -7 296.3 20.13
-1 1 -7 307.13 17.88
-1 -1 -7 306.14 17.43
-1 1 -7 276 16.58
-1 -1 -7 295.95 18.98
-1 1 -7 293.92 17.94
1 -1 -7 301.74 20.51
1 1 -7 279.62 18.71
-1 -1 -7 274.65 16.69
-1 -1 -7 305.24 18.42
1 -1 -7 301.68 15.88
-1 1 -7 245.53 16.11
-1 -1 -7 290.68 17.61
-1 1 -7 275.28 22.73
-1 -1 -7 198.49 23.54
1 1 -7 308.7 14.78
1 1 -7 258.59 15.86
1 -1 -7 270.26 16.68
1 -1 -7 170.76 14.03
-1 -1 -7 263.24 15.73
1 1 -7 245.85 15.17
-1 -1 -7 279.4 17.6
1 1 -7 233.98 14.93
-1 1 -7 278.21 17.13
-1 -1 7 221.99 38.86
-1 1 7 177.84 34.8
1 -1 -7 243.25 15.75
-1 -1 7 172.55 32.45
1 -1 -7 281.34 17.2
-1 -1 -7 303.81 20.41
-1 1 -7 300.76 19.22
-1 1 7 283.77 38.99
-1 -1 -7 293.57 15.18
-1 -1 -7 305.57 20.14
1 1 -7 301.68 17.49
-1 1 -7 306.2 19.96
-1 1 -7 282.15 14.76
1 -1 -7 285.08 17.32
1 1 -7 271.23 17.13
-1 -2 -7 3.24 1.65
-1 -2 -7 -0.31 0.78
-1 2 -7 1.67 0.96
-1 2 -7 0.61 0.63
1 2 -7 -0.53 1.34
-1 2 -7 3.44 1.52
1 2 -7 2.64 1.67
1 2 -7 0.82 0.67
-1 -2 -7 -1.35 3.41
-1 -2 -7 0.38 0.87
-1 2 -7 0.62 0.91
-1 2 -7 1.68 1.15
-1 -2 -7 1.16 0.69
-1 -2 -7 1.31 1.16
-1 2 -7 -1.5 2.05
1 -2 -7 0.35 1.02
1 -2 -7 -0.27 0.95
1 2 -7 1.51 0.56
1 2 -7 0.85 0.82
1 2 -7 0.3 0.42
-1 -2 -7 0.43 0.88
-1 -2 7 4.54 9.34
-1 2 -7 1.03 1.06
1 -2 -7 1.11 0.9
1 2 -7 1.79 1.22
-1 -2 -7 0.78 1.8
-1 2 -7 0.48 1.49
-1 -2 -7 1.21 0.71
1 -2 -7 2.24 1.15
-1 2 7 3.49 7.19
1 2 -7 -0.37 1.16
1 -2 -7 2.48 1.27
-1 2 -7 0.62 1.28
-1 2 -7 0.86 0.58
-1 3 -7 60.18 6.36
-1 -3 -7 54.44 6.17
1 3 -7 60.62 7.35
-1 3 -7 61.95 6.59
-1 -3 -7 63.84 5.57
-1 -3 7 59.32 7.65
-1 3 -7 54.89 5.89
-1 -3 -7 60.42 5.56
-1 3 -7 54.03 5.34
1 3 -7 61.48 6.77
-1 -3 -7 56.02 5.73
-1 3 -7 54.28 6.68
-1 -3 -7 52.59 4.29
1 3 -7 55.48 3.57
1 -3 -7 54.09 5.58
1 -3 -7 59.48 5.98
-1 3 -7 51.6 5.4
-1 -3 -7 69.12 10.48
-1 -3 -7 55.36 6.15
1 -3 -7 51.07 5.15
-1 3 -7 60.97 5.63
1 3 -7 61.85 8.57
-1 3 7 56.69 9.56
-1 -3 7 68.81 19.32
-1 -3 -7 80.69 9.77
-1 3 -7 57.37 6.13
1 -3 -7 54.28 5.57
-1 -3 -7 65.04 5.04
-1 3 -7 53.78 6.89
-1 3 7 62.04 15.59
1 3 -7 52.34 5.68
1 -3 -7 53.51 5.82
-1 3 -7 53.48 3.96
-1 -4 -7 0.48 1
1 -4 7 -0.56 1.15
-1 4 -7 0.49 1.02
1 4 -7 0.54 0.78
-1 -4 7 0.73 1.31
1 4 -7 -0.64 1.15
-1 4 -7 -0.32 0.47
-1 4 -7 0.8 0.92
1 4 -7 -0.99 1.35
-1 -4 -7 0.37 0.77
-1 4 -7 -0.75 0.77
-1 4 -7 -0.38 0.77
-1 -4 -7 2.23 2.57
-1 -4 -7 0.37 0.45
-1 -4 -7 -0.29 0.88
1 4 -7 -0.14 0.41
1 -4 -7 1.83 1.41
-1 -4 -7 0.47 0.96
1 -4 7 -0.83 1.05
-1 4 -7 0.63 0.79
-1 -4 7 -3.66 6.53
-1 4 7 -1.25 2.22
-1 4 7 -3.42 7.05
1 -4 -7 2.06 1.17
1 4 -7 0.93 1.66
-1 -4 -7 1.07 1.06
-1 4 7 2.79 4.97
-1 -4 -7 -1.03 2.11
-1 4 -7 0.62 1.44
1 -4 -7 0.35 0.81
-1 4 -7 1.52 1.35
1 4 -7 0.39 1.14
-1 4 -7 -0.13 0.52
-1 -4 7 2.8 4.08
-1 -5 7 1.49 1.55
1 -5 7 2.29 1.57
-1 5 -7 6.98 2.29
-1 5 -7 2.7 1.22
1 5 -7 1.59 1.11
-1 -5 -7 3.95 1.7
-1 5 -7 3.12 1.4
-1 -5 -7 4.32 1.35
-1 -5 -7 3.4 1.66
-1 5 -7 4.59 1.47
-1 -5 -7 1.02 2.59
1 5 -7 2.82 0.75
-1 5 -7 2.86 1.47
1 5 -7 4.08 1.67
1 -5 -7 4.22 1.89
-1 -5 7 3.36 4.9
-1 -5 -7 1.46 1.67
-1 5 -7 4.65 1.48
-1 5 7 3.15 4.59
-1 5 7 6.58 3.59
1 -5 -7 1.89 1.3
1 -5 7 5.37 1.66
1 5 -7 4.77 2.6
1 5 7 4.27 1.55
-1 -5 7 5.15 5.31
-1 5 -7 5.71 2.36
1 5 -7 4.87 1.68
-1 5 7 2.56 4.57
-1 -5 -7 7.02 3.41
-1 5 -7 4.34 1.51
-1 5 -7 4.5 1.09
1 -5 -7 4.56 1.58
-1 -5 -7 6.18 1.81
1 -6 7 30.6 4.9
-1 6 -7 34.14 5.15
-1 -6 -7 34.57 3.83
1 6 -7 34.73 5.01
-1 6 -7 37.78 4.35
-1 -6 7 32.58 5.63
-1 -6 -7 34.82 4.33
1 6 -7 32.07 3.16
-1 -6 -7 46.8 7.91
1 6 -7 32.5 4.9
-1 6 -7 30.04 2.94
1 -6 -7 44.64 6
-1 6 -7 32.8 3.76
1 6 -7 34.75 6.78
-1 -6 7 59.65 15.26
-1 6 7 26.4 10.17
-1 6 7 53.63 9.47
1 -6 7 39.79 4.71
-1 6 -7 38.45 5.84
1 6 7 31.46 3.99
-1 6 -7 37.46 3.98
-1 -6 -7 35.9 7.7
-1 6 7 40.07 5.42
1 -6 -7 31.31 4.01
1 6 -7 30.63 4.45
-1 6 -7 30 3.08
-1 -6 7 36 10.63
-1 6 7 35.72 10.55
-1 7 -7 503.26 31.07
-1 -7 7 561.81 32.79
-1 7 -7 490.98 28.29
1 7 -7 508.77 30.02
1 -7 7 551.47 30.99
1 7 -7 513.49 29.74
-1 -7 -7 520.71 33.83
-1 -7 -7 496.1 28.45
1 -7 -7 562.16 32.26
-1 7 -7 367.74 24.78
1 7 -7 522.87 26.34
1 -7 7 548.86 28.99
-1 7 -7 526.53 27.29
-1 7 7 666.61 41.81
-1 7 7 467.36 45.83
-1 -7 7 524.21 48.49
1 7 -7 496.29 34.88
-1 -7 -7 374.81 34.49
-1 7 -7 457.82 26.72
-1 7 7 504.12 43.78
-1 -7 7 473.14 43.1
-1 7 -7 473.6 26.41
1 7 7 516.9 28.25
-1 7 -7 543.16 31.52
-1 7 7 558.99 30.81
-1 -8 7 19.94 4.85
1 -8 7 26.29 4.76
1 8 -7 26.68 4.34
-1 8 -7 28.95 4
-1 -8 -7 30.28 3.25
-1 8 -7 25.28 4.91
-1 -8 -7 28 5.9
-1 -8 -7 30.83 4.14
1 8 -7 26.28 2.93
1 8 -7 24.91 4.3
1 -8 -7 21.15 4.94
-1 8 7 26.55 8.13
1 8 -7 16.35 5.45
-1 -8 7 45.17 13.07
1 -8 7 27.07 3.94
-1 8 7 31.53 10.57
-1 -8 -7 28.59 6.79
-1 8 7 15.04 7.13
-1 -8 7 39.17 10.6
-1 8 7 26.18 4.65
1 8 7 33.03 4.25
-1 9 -7 253.05 19.28
1 9 -7 213.68 16.63
-1 -9 7 265.11 19.53
-1 9 -7 205.13 15.49
1 9 -7 236.86 16.73
1 -9 7 237.37 17.65
-1 -9 -7 232.77 19.44
1 -9 -7 190.74 18.51
1 9 -7 211.01 13.65
-1 -9 -7 215.94 15.55
1 -9 7 242.55 15.86
1 9 -7 159.64 19.21
-1 -9 7 208.8 28.91
-1 9 7 181.24 26.43
-1 -9 -7 231.44 21.05
-1 9 7 207.92 25.07
-1 -9 7 223.58 26.26
-1 9 7 263.31 17.93
1 9 7 246.87 15.93
-1 10 -7 -0.48 0.99
-1 10 -7 -0.89 2.06
-1 -10 7 0.85 1.23
1 -10 7 2.03 1.56
1 10 -7 0.55 1.13
1 -10 -7 1.06 1.89
-1 10 7 1.29 1.18
-1 -10 -7 0.87 1.79
1 10 -7 -0.6 1.74
-1 -10 -7 0.46 1.06
-1 -10 7 2.62 4.67
1 10 -7 -1.22 2.8
1 -10 7 1.3 1.1
-1 10 7 2.42 4.31
-1 10 -7 0.33 1.09
-1 -10 -7 -1.08 2.22
-1 -10 7 -2.02 3.6
-1 10 7 -0.66 1.79
1 10 7 0.47 1.44
-1 10 7 -1.99 3.55
-1 11 -7 3.22 1.84
-1 -11 7 1.75 1.57
1 -11 7 6.37 2.53
1 11 -7 2.8 1.74
-1 11 -7 0.99 2.29
1 -11 -7 5 2.73
1 11 -7 5.58 2.22
-1 11 7 0.94 1.3
-1 -11 -7 1.45 1.58
-1 -11 -7 5.13 2.65
-1 11 7 2.33 4.8
1 -11 7 4.06 1.68
-1 -11 7 10.13 6.39
1 11 -7 5.45 3.18
-1 -11 7 3.93 4.53
-1 11 -7 4.08 1.61
1 11 7 0.51 1.4
1 11 -7 4.16 1
-1 -11 -7 10.26 3.95
-1 11 7 4.19 1.91
-1 11 7 7.7 4.86
1 -12 7 0.74 1.08
-1 -12 7 2.75 2.11
1 12 -7 1.15 1.45
-1 12 -7 1.1 2.54
-1 12 -7 0.61 1.26
-1 -12 -7 0.85 1.75
1 12 -7 0.64 1.76
-1 -12 -7 -0.52 1.2
1 -12 -7 1.88 1.67
-1 -12 7 4.9 5.64
1 -12 7 1.89 1.46
1 12 -7 0.92 2.68
-1 12 7 2.48 3.61
-1 12 7 2.24 4
-1 12 -7 2.08 1.39
-1 12 7 2.21 1.86
-1 -12 -7 3.95 3.22
1 12 7 0.56 1.3
-1 -13 7 15.43 4.23
-1 13 -7 6.28 3.25
1 13 -7 8.39 2.57
1 -13 7 7.17 2.62
-1 13 -7 7.72 3.09
1 13 -7 8.12 2.81
-1 -13 -7 5.84 2.99
-1 -13 -7 3.91 2.02
1 -13 -7 11.65 3.47
-1 13 7 4.55 4.07
1 13 -7 2.37 2.47
1 -13 7 5.92 2.24
1 13 7 5.01 2.52
-1 13 -7 7.15 1.84
-1 13 7 14.18 3.9
1 -14 7 3.35 2.11
-1 -14 7 3.07 2.11
-1 14 -7 1.96 2.67
1 14 -7 2.49 1.7
1 14 -7 -1.45 1.5
-1 -14 -7 0.83 1.71
1 -14 -7 -0.87 1.79
-1 -14 -7 0.62 1.68
-1 14 7 2.07 4.76
1 -14 7 0.52 1.31
-1 14 -7 2.61 1.48
-1 14 7 4.19 2.29
1 14 7 3.51 2.17
1 15 -7 146.46 13.1
1 15 -7 116.08 11.37
1 -15 7 134.3 13.42
-1 15 -7 114.72 12.88
-1 -15 7 147.08 14.81
-1 -15 -7 106.49 11.69
1 -15 -7 132.81 13.24
-1 -15 -7 110.31 12.25
1 -15 7 138.15 11.37
-1 15 -7 120.03 9.84
-1 15 7 132.37 13.39
1 15 7 143.23 13.08
1 -16 7 6.65 3.09
1 16 -7 4.28 2.93
1 16 -7 2.06 1.74
-1 16 -7 3.44 2.8
-1 -16 7 4.53 3.08
1 -16 -7 -0.84 2.12
-1 -16 -7 3.29 2.4
-1 -16 -7 4.02 2.62
-1 16 7 -1.81 3.23
1 -16 7 5.85 2.7
-1 16 -7 0.81 1.57
-1 -16 -7 1.85 2.13
-1 16 7 1.96 2.86
1 16 7 7.3 3.39
1 17 -7 570.84 37
-1 -17 7 639.69 40.29
1 -17 7 600.9 38.16
1 17 -7 503.14 34.48
-1 17 -7 481.85 34.87
-1 -17 -7 401.76 34.77
1 -17 -7 553.79 35.65
-1 -17 -7 520.74 35.2
1 -17 7 572.63 34.15
-1 17 7 366.54 38.7
-1 17 7 666.64 39.4
-1 -17 -7 461.61 35.14
1 17 7 684.69 39.63
-1 17 -7 499.66 31.68
-1 18 -7 -0.79 3.04
1 18 -7 0.83 2.56
1 18 -7 4.29 2.92
-1 -18 7 -1.31 3.3
1 -18 7 1.11 2.29
1 -18 -7 4.16 2.84
-1 -18 -7 1.66 2.41
-1 18 7 1.65 2.95
1 -18 7 3.44 2.24
-1 18 7 -1.2 2.76
-1 -18 -7 1.83 2.1
1 18 7 -1.24 3.12
-1 19 -7 157.24 14.54
1 -19 7 196.61 18.54
-1 -19 7 201.43 20.06
1 19 -7 154.18 15.62
1 -19 -7 135.61 14.2
-1 -19 -7 154.4 14.63
1 -19 7 178.63 15.17
-1 -19 -7 164.47 15.47
1 19 7 129.01 17.33
-1 19 7 193.3 19.13
1 -20 7 6.95 4.54
-1 20 -7 7.66 3.17
-1 -20 7 6.41 4.38
1 20 -7 2.12 3.46
1 -20 -7 13.38 3.86
-1 -20 -7 7.53 3.35
-1 20 7 1.57 2.82
-1 -20 -7 7.21 3.23
1 20 7 -1.7 4.63
-1 20 7 9.23 5.49
1 -21 7 44.28 9.59
1 21 -7 39.37 7.04
1 21 7 51.98 9.99
-1 22 7 -4.56 5.42
1 22 -7 5.42 3.09
-1 0 -8 1.71 1
-1 0 -8 2.92 1.6
1 0 -8 7.52 2.9
1 0 -8 2.93 1.6
-1 0 -8 3.5 1.63
1 0 -8 1.85 0.63
-1 0 -8 2.84 1.46
1 0 -8 2.52 0.74
1 0 -8 2.96 1.23
-1 0 -8 2.28 1.02
-1 0 -8 1.53 1.93
-1 0 -8 3.2 1.49
1 0 -8 1.86 0.83
-1 0 8 6.2 9.02
1 0 -8 1.62 1.26
-1 0 -8 5.32 1.09
-1 0 -8 4.02 2.29
1 0 -8 2.25 1.4
-1 0 -8 2.76 1.6
-1 1 -8 118.98 9.16
-1 1 -8 132.4 11.07
-1 1 -8 127.29 10.2
1 1 -8 126.08 12.06
-1 -1 -8 109.28 10.59
1 1 -8 111.67 10.58
1 -1 -8 119.57 11.89
-1 -1 -8 146.03 10.31
1 -1 -8 126.35 10.97
-1 -1 -8 122.29 9.24
-1 -1 -8 120.5 9.54
-1 -1 -8 135.22 14.05
-1 1 -8 168.12 12.35
1 1 -8 92.94 7.43
-1 -1 -8 106.02 7.97
-1 1 -8 126.7 9.89
-1 1 -8 106 8.48
1 -1 -8 106.38 8.88
1 1 -8 117.34 8.53
1 -1 -8 100.21 8.2
-1 -1 -8 129.14 9.97
1 1 -8 97.7 7.41
-1 1 -8 129.65 9.63
-1 -1 8 86.73 26.67
1 -1 -8 129.74 9.6
1 1 -8 113.53 9.33
-1 -1 -8 139.85 12.64
-1 1 8 98.95 24.84
-1 -1 -8 133.82 11.99
-1 1 -8 140.33 7.59
-1 1 -8 128.67 11.66
-1 -1 -8 139.81 8.06
1 -1 -8 120.61 9.78
1 1 -8 154.44 10.55
-1 1 -8 128.52 11.29
-1 -1 8 108.09 26.14
-1 2 -8 1.74 1.29
-1 2 -8 2.8 1.42
1 2 -8 2.21 1.7
-1 -2 -8 3.07 2.1
1 -2 -8 3.11 1.96
-1 -2 -8 1.76 1.26
1 2 -8 1.76 1.71
1 -2 -8 1.5 1.5
-1 2 -8 2.27 1.62
-1 2 -8 -0.32 0.87
1 2 -8 2.44 0.97
-1 2 -8 2.55 1.58
-1 -2 -8 2.6 0.91
-1 2 -8 2.98 1.98
-1 -2 -8 3.47 1.69
-1 -2 -8 3.71 4.94
-1 -2 -8 0.81 2.24
1 2 -8 2.66 0.92
1 -2 -8 2.04 0.95
1 2 -8 0.88 0.54
-1 2 -8 2.17 1.12
-1 -2 -8 4.05 1.8
-1 -2 8 5.12 9.13
-1 -2 -8 3.74 1.37
1 2 -8 0.4 1.31
-1 2 -8 1.36 1.57
-1 -2 -8 -0.85 2.9
-1 2 -8 2.69 1.92
-1 2 8 -7.95 10.02
-1 2 -8 1.91 0.91
-1 -2 -8 0.72 2.23
1 -2 -8 3.33 1.66
1 -2 -8 3.71 1.71
1 2 -8 1.92 1.32
-1 3 -8 956.59 49.73
-1 3 -8 951.76 49.55
1 3 -8 902.19 51.39
1 3 -8 870.6 49.11
-1 -3 -8 985.04 48.05
-1 3 -8 855.14 47.19
1 3 -8 918.49 49.78
-1 -3 8 969.94 52.61
-1 -3 -8 852.01 47.11
1 -3 -8 884.22 47.95
-1 -3 -8 859.32 47.43
-1 -3 -8 693.83 55.26
-1 -3 -8 634.03 44.38
1 3 -8 746.13 45.77
-1 3 -8 754.64 46.63
-1 3 -8 928.47 47.36
-1 -3 8 904.53 82.73
-1 3 -8 924.05 47.33
-1 -3 -8 901.77 48.58
1 -3 -8 748.43 46.42
-1 3 -8 864.12 44.62
-1 -3 -8 940.93 46.62
-1 -3 -8 962.71 54.24
-1 3 -8 904.72 48.67
-1 3 8 905.94 75.3
1 3 -8 889.05 47.69
-1 3 -8 974.7 51.34
1 -3 -8 869.16 47.37
1 -3 -8 875.97 48.18
-1 -4 8 4.97 2.56
-1 4 -8 1.82 1.54
1 4 -8 1.43 1.95
1 4 -8 1.17 1.6
-1 4 -8 -0.57 2.98
-1 -4 -8 1.43 1.43
-1 4 -8 -0.26 1.22
1 4 -8 -1.1 2.2
1 4 -8 0.86 1.26
-1 4 -8 3.11 1.65
-1 -4 -8 -6.01 6.55
-1 -4 -8 -1.1 2.96
1 -4 -8 1.43 1.97
-1 -4 -8 0.39 1.92
-1 4 8 -3.86 7.96
-1 4 -8 3.53 1.48
1 -4 -8 0.73 1.24
-1 -4 8 4.16 7.43
-1 4 -8 0.69 2.55
-1 -4 -8 -1.57 3.03
1 4 -8 2.03 1.73
-1 -4 -8 -1.1 5.68
-1 -4 8 3.22 7.4
-1 4 -8 3.44 1.83
1 -4 -8 1.82 1.76
-1 4 8 -3.21 6.61
-1 5 -8 1984.63 97.21
-1 -5 -8 2130.24 94.42
-1 -5 8 1950.94 99.49
1 5 -8 1873.11 96.31
-1 5 -8 1767.44 94.01
1 -5 8 1982.51 97.54
-1 -5 -8 1850.77 94.07
1 5 -8 1903.64 96.28
1 5 -8 1519.15 90.28
-1 -5 -8 2228.92 104.01
-1 -5 -8 1928.83 94.44
-1 5 -8 1735.62 91.77
-1 5 -8 1658.35 94.08
1 -5 -8 1976.47 96.27
1 -5 -8 1683.94 93.97
-1 5 8 1857.96 126.17
-1 5 -8 1970.58 93.48
-1 -5 8 1968.6 130.33
-1 -5 -8 2050.27 104.67
-1 5 -8 1772.88 93.96
-1 5 8 1991.17 121.68
-1 -5 8 1791.15 119.61
1 5 -8 1851.22 94.6
-1 5 -8 1904.7 98.12
-1 -6 8 0.86 1.53
1 -6 8 0.67 1.95
-1 6 -8 -0.39 1.67
1 6 -8 -0.57 1.56
-1 6 -8 -2.65 3.68
-1 -6 -8 -0.41 1.4
1 6 -8 -0.14 0.89
1 6 -8 -1.16 2.24
-1 6 -8 -0.46 1.59
-1 6 -8 -0.92 0.87
-1 -6 -8 -0.34 1.83
-1 -6 -8 -1.01 3.44
1 -6 -8 -1.24 2.48
-1 6 8 -3.33 4.85
-1 -6 8 3.58 9.03
1 -6 -8 -0.43 1.61
-1 6 -8 0.7 2.16
-1 -6 -8 -2.84 4.38
-1 6 8 2.75 6.34
-1 6 -8 1.68 1.47
-1 -6 8 -2.77 7.55
-1 7 -8 511.04 31.7
-1 7 -8 631.54 35.81
1 7 -8 581.25 33.75
-1 -7 -8 566.12 30.93
1 7 -8 549.58 33.26
-1 -7 8 610.88 36.71
1 -7 8 607.36 34.99
-1 -7 -8 647.08 38.11
-1 -7 -8 578.57 32.02
1 -7 -8 653.55 35.83
1 7 -8 453.39 28.42
-1 7 -8 498.79 32.17
-1 7 8 418.25 48.86
-1 -7 8 561.86 54.76
-1 7 8 711.99 45.98
1 -7 8 588.74 32.27
1 -7 -8 487.28 32.18
-1 7 8 531.28 48.59
-1 -7 -8 335.47 37.15
-1 7 -8 507.49 30.29
-1 -7 8 544.85 49.68
1 7 8 615.79 31.87
-1 8 -8 0.89 1.52
-1 -8 8 2.67 2.05
1 -8 8 4.95 2.31
1 8 -8 1.74 1.46
-1 8 -8 2.39 2.33
1 8 -8 3.04 2.26
-1 -8 -8 2.17 1.55
-1 -8 -8 -0.92 2.11
1 -8 -8 3.31 2.41
-1 -8 -8 2.1 1.39
-1 8 8 3.69 3.3
-1 8 8 3 5.34
-1 -8 8 3.23 6.65
1 -8 8 3.46 1.78
-1 -8 8 -2.51 3.65
1 8 8 5.06 1.74
-1 8 8 -0.66 2.24
-1 8 8 7.42 5.7
1 9 -8 155.62 13.03
-1 9 -8 165.46 15.03
-1 9 -8 147.26 11.82
1 9 -8 129.49 11.96
-1 -9 8 167.88 15.27
1 -9 8 165.35 13.93
-1 -9 -8 132.38 11.36
1 -9 -8 124.98 14.11
-1 -9 -8 150.61 14.6
-1 9 8 178.13 21.98
-1 9 8 120.56 22.43
1 -9 8 156.48 11.64
-1 -9 8 111.65 22.72
-1 9 8 156.92 22.51
-1 -9 8 154.53 22.41
1 9 8 146.74 11.54
-1 -9 -8 143.41 16.8
-1 9 -8 141.8 10.33
-1 9 8 146.71 13.09
-1 10 -8 3.04 1.81
1 -10 8 1.51 2.06
-1 10 -8 3.88 2.83
-1 -10 8 2.82 2.17
1 10 -8 0.59 1.61
1 -10 -8 1.08 2.94
-1 -10 -8 3.45 2.52
1 10 -8 2.61 1.91
-1 -10 -8 5.81 2.18
-1 -10 8 5.98 8.15
-1 10 8 5.52 4.92
1 -10 8 2.65 1.52
-1 -10 -8 1.2 1.76
1 10 8 4.89 1.89
-1 10 8 3.57 2.45
-1 10 -8 3.58 1.35
-1 11 -8 21.93 4.04
-1 -11 8 18.45 4.78
1 11 -8 15.62 3.57
-1 11 -8 15 4.9
1 -11 8 24.27 4.73
-1 -11 -8 14.51 4.32
-1 -11 -8 16.71 3.43
1 -11 -8 23.14 5.79
1 11 -8 14.31 3.77
1 -11 8 17.57 3.32
-1 -11 -8 23.93 6.06
1 11 8 22.82 3.98
-1 11 8 17.88 4.31
-1 -12 8 4.03 2.54
1 -12 8 0.82 1.46
1 12 -8 0.62 1.27
-1 12 -8 0.63 1.6
-1 -12 -8 0.84 2.59
1 -12 -8 -2.12 3.63
-1 -12 -8 0.54 1.48
1 12 -8 0.7 1.9
1 -12 8 -0.46 1.57
-1 12 8 -2.71 4.84
-1 -12 -8 -1.09 3.55
-1 12 8 0.78 1.96
1 12 8 -0.57 1.45
1 13 -8 816.34 49.75
-1 13 -8 736.77 49.28
1 13 -8 858.44 49.04
-1 -13 8 929.74 53.57
1 -13 8 867.03 51.19
-1 13 -8 697.33 51.83
-1 -13 -8 846.29 48.63
1 -13 -8 814.8 52.2
-1 -13 -8 877.33 51.18
1 -13 8 805.65 47.18
-1 -13 -8 771.34 52.19
1 13 8 859.82 48.99
-1 13 8 973.29 51.74
-1 14 -8 1.04 3.04
-1 -14 8 1.09 2.75
1 -14 8 -0.9 2.27
1 14 -8 -0.66 2.26
1 14 -8 5.52 3.15
-1 14 -8 0.82 2.07
-1 -14 -8 -3.29 2.8
1 -14 -8 -1.91 3.26
-1 -14 -8 -2.5 2.98
1 -14 8 -0.49 1.61
-1 14 8 -2.48 4.42
-1 -14 -8 -1.03 3.36
-1 14 8 -1.74 2.83
1 14 8 2.04 2.43
1 -15 8 772.3 46.61
1 15 -8 699.03 43.6
-1 -15 8 809.55 48.85
1 15 -8 775.94 45.67
-1 15 -8 697.15 46.21
-1 -15 -8 664.78 44.43
-1 -15 -8 654.83 43.89
1 -15 -8 739.4 46.02
1 -15 8 738.68 42.24
1 15 8 810.34 45.17
-1 15 8 826.52 47.06
1 -16 8 -2.02 2.75
-1 -16 8 -1.21 2.5
1 16 -8 0.72 1.96
-1 16 -8 1.82 3.51
1 16 -8 -0.92 3.01
1 -16 -8 2.7 2.93
-1 -16 -8 0.85 2.15
-1 -16 -8 -1.67 2.99
-1 16 8 2.11 4.35
-1 16 8 2 2.91
1 16 8 0.83 2.85
1 17 -8 396.47 27.97
1 -17 8 399.01 28.71
1 17 -8 357.7 25.59
-1 17 -8 328.26 25.41
-1 -17 8 439.69 30.93
-1 -17 -8 347.58 25.7
-1 -17 -8 261.66 25.19
1 -17 -8 390.3 26.96
1 17 8 413.03 27.77
-1 -17 -8 336.91 26.73
-1 17 8 403.67 28.6
1 -18 8 -1.17 2.95
-1 -18 8 1.39 3.51
-1 18 -8 0.83 2.27
1 18 -8 -0.85 1.96
-1 -18 -8 -0.85 1.95
1 -18 -8 -0.88 1.81
-1 18 8 5.68 3.9
-1 18 8 1.18 2.44
-1 -18 -8 0.98 2.02
1 18 8 1.07 3.12
1 -19 8 5.1 3.22
-1 19 8 3.64 4.19
-1 19 8 6.57 4.07
1 19 8 3.7 2.55
1 -20 8 -1.41 2.91
1 20 8 2.86 3.29
-1 0 -9 0.37 1.01
-1 0 -9 0.65 0.95
1 0 -9 0.83 1.71
1 0 -9 1.26 1.46
-1 0 -9 0.23 0.62
-1 0 -9 0.4 1
1 0 -9 0.93 1.01
-1 0 -9 0.53 1.46
-1 0 -9 0.54 1.25
-1 0 9 -6.66 13.71
1 0 -9 1.37 1.56
-1 0 -9 0.75 1.54
-1 0 -9 -0.72 1.48
-1 0 9 -5.7 10.16
-1 -1 -9 76.87 7.65
-1 1 -9 80.82 8.01
-1 1 -9 72.6 8.02
1 1 -9 59.89 8.39
-1 -1 -9 73.57 8.2
1 -1 -9 66.23 8.75
-1 -1 -9 69.11 6.41
1 1 -9 60.04 7.21
-1 1 -9 74.13 6.56
1 1 -9 74.65 8.11
1 -1 -9 83.79 8.46
-1 1 -9 70.39 6.68
-1 -1 -9 71.69 8.3
1 1 -9 55.59 5.41
1 -1 -9 59.79 6.06
-1 1 -9 67.83 6.85
-1 -1 -9 55.63 6.03
-1 1 -9 47.86 5.22
-1 -1 9 44.49 19.93
1 -1 -9 77.4 7.15
-1 -1 -9 80.13 9.35
-1 1 -9 70.51 7.98
-1 -1 9 44.83 18.1
-1 -1 -9 77.43 8.85
-1 1 -9 78.39 8.83
1 1 -9 77.82 7.22
-1 1 9 34.89 17.36
-1 2 -9 2.36 2.36
-1 2 -9 3.09 1.92
1 2 -9 4.86 2.37
-1 -2 -9 5.42 2.43
-1 -2 -9 3.8 1.63
-1 2 -9 6.89 2.02
1 -2 -9 5.95 2.77
1 -2 -9 5.12 2.39
1 2 -9 3.78 2.06
-1 2 -9 4.69 1.87
1 2 -9 4.04 2.15
-1 2 -9 3.52 1.55
-1 2 -9 1.87 1.18
-1 -2 -9 5.92 2.65
1 -2 -9 1.96 1.58
-1 -2 -9 6.63 3.82
-1 -2 -9 5.88 2.11
-1 -2 9 5.66 10.1
-1 2 9 13.27 12.05
-1 -2 -9 5.39 3.71
-1 2 -9 2.33 1.6
-1 2 -9 7.36 3.04
-1 -2 -9 5.37 2.96
1 -2 -9 4.54 1.99
-1 3 -9 497.16 30.27
1 3 -9 470.23 31.56
-1 -3 -9 471.67 30.6
1 -3 -9 461.64 32.12
-1 -3 -9 497.32 28.99
1 3 -9 450.57 29.51
1 3 -9 492.83 30.25
-1 -3 -9 470.05 27.74
-1 3 -9 458.9 27.71
-1 -3 -9 489.47 33.71
-1 3 -9 454.48 28.12
-1 3 -9 424.11 26.49
1 -3 -9 444.14 28.01
-1 -3 -9 454.88 27.66
-1 3 -9 379.57 26.73
-1 -3 9 460.09 58.47
-1 -3 -9 479.86 33.44
-1 3 -9 469.76 29.07
1 -3 -9 479.1 28.58
-1 -3 -9 519.6 32.12
-1 3 -9 497.86 31.28
-1 3 9 465.33 52.56
-1 -4 -9 3.13 1.4
-1 4 -9 3.31 2.46
1 4 -9 3.9 2.28
1 4 -9 3.08 1.91
-1 -4 -9 2.15 1.81
1 -4 -9 2.65 2.23
-1 4 -9 2.79 1.59
-1 -4 -9 4 1.6
-1 -4 -9 3.7 3.6
-1 4 -9 1.56 1.14
-1 4 -9 2.67 1.72
-1 -4 -9 2.8 1.6
1 -4 -9 1.48 1.61
1 4 -9 3.62 1.97
-1 -4 9 9.3 8.3
-1 4 9 4.28 6.23
-1 4 -9 1.52 2.22
-1 4 -9 2.84 1.69
-1 -4 -9 2.32 2.39
-1 -4 9 3.62 11.18
-1 4 9 7.23 7.44
1 -4 -9 1.92 1.57
-1 5 -9 0.82 1.2
-1 5 -9 3.55 2.19
-1 -5 9 0.93 1.67
1 5 -9 1.83 1.88
-1 -5 -9 3.17 1.41
-1 5 -9 1.71 1.39
-1 -5 -9 0.46 1.42
-1 -5 -9 3.96 3.59
1 5 -9 0.61 1.67
-1 -5 -9 0.82 1.19
1 -5 -9 1.66 1.62
-1 5 9 3.97 7.07
-1 -5 9 -4.3 10.84
-1 5 -9 0.76 1.36
-1 5 9 -3.33 5.93
-1 -5 -9 -1.32 2.71
-1 5 -9 1.27 1.15
1 -5 -9 6.04 2.37
-1 -5 9 6.69 5.96
-1 6 -9 3.84 2.52
1 6 -9 10.39 2.9
-1 -6 9 2.84 2.4
-1 6 -9 9.45 2.27
-1 -6 -9 6.05 1.88
-1 -6 -9 4.55 3.32
-1 6 -9 7.06 2.29
1 -6 -9 8.13 2.59
-1 -6 -9 5 1.89
1 6 -9 5.01 2.06
-1 6 9 7.44 7.66
-1 -6 9 8.05 8.29
-1 6 -9 2.24 1.52
-1 6 -9 9.63 3.16
-1 -6 -9 10.4 5.08
1 -6 -9 5.82 2.06
-1 7 -9 47.52 7.68
-1 -7 9 39.49 7.03
1 -7 9 40.6 6.52
-1 -7 -9 47.24 5.32
1 7 -9 45.05 6.48
-1 7 -9 51.6 5.73
1 7 -9 46.69 6.26
-1 7 -9 39.04 5.51
1 -7 -9 60.8 7.46
-1 -7 -9 47.7 5.45
-1 -7 -9 44.5 7.87
-1 7 9 28.1 11.66
-1 -7 9 34.19 14.81
-1 7 -9 41.2 4.61
-1 -7 -9 21.85 7.49
1 -8 -9 2.46 2.24
-1 8 -9 -0.56 1.16
-1 -8 -9 2.26 1.62
1 8 -9 5.29 2.55
-1 -8 -9 9.69 3.6
-1 8 -9 4.24 1.75
1 8 -9 1.86 1.57
1 -8 9 0.78 1.62
-1 8 -9 5.45 3.11
-1 -8 9 6.88 3.04
-1 -8 -9 8.18 4.13
1 9 -9 22.59 4.58
-1 9 -9 17.06 3.96
-1 -9 -9 19.19 3.62
-1 -9 -9 23.99 5.31
1 -9 -9 14.09 4.45
1 9 -9 18.68 3.88
1 -9 9 20.93 4.73
-1 9 -9 26.32 4.26
-1 9 -9 25.8 6.14
-1 -9 9 23.11 5.28
-1 -9 -9 17.51 6.46
1 -10 -9 1.07 2.7
-1 10 -9 2.67 2.48
1 10 -9 4.26 2.43
-1 -10 -9 3 1.99
-1 -10 -9 1.78 2.9
-1 10 -9 2.17 1.58
-1 -10 9 2.06 2.37
1 -10 9 4.14 2.26
1 10 -9 2.52 1.84
-1 10 -9 -1.08 1.94
-1 -10 -9 -5.38 4.99
1 10 9 2.48 1.84
-1 -11 -9 315.72 21.46
1 -11 -9 218.72 24.09
-1 -11 -9 321.16 24.28
1 11 -9 328.25 22.33
1 11 -9 322.01 23.04
-1 11 -9 302.57 22.01
-1 11 -9 235.78 24.55
-1 -11 9 324.04 25.38
1 -11 9 380.14 25.02
-1 -11 -9 314.95 26.93
1 11 9 306.19 21.25
-1 11 9 358.26 24.01
-1 -12 -9 4.3 3.07
1 -12 -9 -1.22 3.33
1 12 -9 2.28 2.6
-1 -12 -9 2.31 2.06
-1 -12 9 4.35 3.36
1 -12 9 2.65 2.23
1 12 -9 3.27 2.02
-1 12 -9 1.21 3.53
-1 12 -9 3.34 2.39
-1 -12 -9 -1.19 3.47
-1 12 9 5.67 3.23
1 12 9 3.45 2.45
-1 -13 -9 468.4 30.65
-1 -13 -9 433.64 31.77
1 -13 -9 426.01 33.84
1 13 -9 500.25 32.27
1 13 -9 433.08 30.8
-1 -13 9 551.22 35.71
-1 13 -9 418.19 31.14
1 -13 9 510.4 33.31
-1 13 -9 379.37 33.19
-1 -13 -9 447.5 34.23
-1 13 9 501.17 32.59
1 13 9 500.92 30.61
1 -14 -9 -4.21 3.6
-1 -14 -9 1.44 2.1
-1 -14 -9 -0.85 2.32
-1 -14 9 -1.17 2.69
1 -14 9 -0.96 2.79
1 14 -9 1.72 1.98
-1 14 -9 -0.85 2.48
-1 14 -9 1.07 2.91
1 14 -9 0.7 1.9
-1 -14 -9 -3.33 3.24
-1 14 9 0.9 2.27
1 14 9 2.01 2.07
-1 -15 -9 17.09 4.6
-1 -15 -9 14.53 4.31
1 -15 -9 24.17 5.65
1 15 -9 16.66 4.11
-1 -15 9 17.14 5.27
1 -15 9 20.1 5.14
-1 15 -9 16.01 5.32
1 15 -9 18.55 5.04
1 15 9 20.48 4.72
-1 -15 -9 8.68 4.27
-1 15 9 17.12 4.88
-1 -16 -9 -0.92 1.89
1 -16 9 -2.12 2.89
-1 16 9 -2.01 1.47
1 16 9 -1.6 1.84
1 -17 9 1.12 2
1 17 9 0.88 2.4
-1 17 9 2.15 3.49
1 -18 9 2.39 2.13
1 18 9 3.91 3.02
-1 0 -10 9.66 2.94
1 0 -10 1.81 4.09
-1 0 -10 -3.35 6.7
-1 0 -10 5.96 2.37
-1 0 -10 4.23 2.73
1 0 -10 8.97 3.59
1 0 -10 6.72 3.18
-1 0 -10 6 4.17
-1 0 -10 15.73 5.13
-1 1 -10 984.63 55.94
-1 -1 -10 984.45 55.92
-1 -1 -10 1003.21 57.62
-1 1 -10 1117.76 59.87
-1 1 -10 1129.97 59.74
1 1 -10 990.12 60.72
-1 -1 -10 1060.44 59.62
1 -1 -10 1048.24 61.48
-1 1 -10 1004.43 56.26
1 -1 -10 959.23 57.81
1 1 -10 936.74 57.9
-1 -1 -10 976.28 56
1 1 -10 991.74 58.67
1 -1 -10 1005.77 58.83
-1 -1 -10 1122.29 59.52
-1 -1 -10 1000.94 60.43
-1 1 -10 893.26 58.3
-1 -1 -10 979.47 59.81
-1 1 -10 1005.56 59.91
-1 -2 -10 5.45 2.09
1 -2 -10 0.4 1.76
1 2 -10 5.64 3.16
-1 -2 -10 1.93 2.89
-1 2 -10 9.82 2.57
1 -2 -10 2.75 2.12
1 2 -10 7.83 3.48
-1 -2 -10 2.95 2.02
1 2 -10 6 2.48
1 -2 -10 4.06 2.52
-1 2 -10 4.33 5.66
-1 2 -10 3.92 3.79
-1 -2 -10 1.86 3.59
-1 2 -10 3.69 2.54
-1 -2 -10 6.43 3.1
1 -3 -10 180.96 15.03
-1 -3 -10 226.77 15.23
-1 -3 -10 222.45 18.38
1 3 -10 231.04 17.34
1 3 -10 227.06 18.73
-1 -3 -10 246.34 18.36
1 -3 -10 224.54 19.29
-1 3 -10 210.62 15.23
-1 3 -10 252.92 18.86
1 3 -10 214.1 17
1 -3 -10 210.71 17.15
-1 3 -10 258.13 19.31
-1 -3 -10 246.85 20.54
-1 3 -10 216.32 16.46
-1 -3 -10 212.61 18.19
1 4 -10 3.9 2.33
-1 -4 -10 2.82 1.56
-1 -4 -10 6.56 3.62
1 -4 -10 1.99 1.79
-1 4 -10 5.53 1.97
-1 4 -10 1.6 3.4
1 -4 -10 7.59 2.67
1 4 -10 6.41 2.56
-1 -4 -10 3.07 2.38
1 -4 -10 5.69 2.77
-1 4 -10 4.01 2.75
-1 -4 -10 4.74 3.86
-1 4 -10 4.54 2.21
-1 -4 -10 1.67 2.73
-1 -5 -10 127.07 14.91
-1 -5 -10 145.18 10.72
1 -5 -10 101.56 10.61
-1 5 -10 127.15 13.21
-1 -5 -10 123.65 12.54
1 -5 -10 132.61 14
-1 5 -10 125.68 10.43
1 5 -10 122.44 11.58
1 5 -10 138.91 12.12
-1 -5 -10 138.71 16.28
-1 5 -10 157.32 13.71
-1 -5 -10 116.04 12.74
-1 -6 -10 1.34 4.79
1 6 -10 -0.68 2.1
1 -6 -10 9.94 2.94
-1 -6 -10 7.72 2.47
-1 6 -10 1.8 3.36
-1 6 -10 8.84 2.55
-1 -6 -10 9.78 3.15
1 6 -10 7.71 2.82
1 -6 -10 7.9 3.38
-1 -6 -10 9.16 5.22
1 -7 -10 173.07 14.81
-1 -7 -10 118.23 16.3
-1 -7 -10 173.31 13.03
-1 7 -10 152.41 16.2
1 7 -10 182.87 15.02
-1 7 -10 183.52 13.48
1 7 -10 173.48 14.25
-1 -7 10 180.24 17.02
-1 -7 -10 151.95 19.73
1 8 -10 4.31 3.22
1 -8 -10 -2.4 4.2
-1 -8 -10 -5.67 6.07
-1 -8 -10 1.9 1.96
-1 8 -10 5.45 2.28
1 8 -10 4.56 2.33
-1 8 -10 1.05 4.7
-1 -8 10 10.64 4.1
-1 -8 -10 -5.75 7.89
-1 -9 -10 867.24 50.05
-1 -9 -10 849.12 55.31
1 -9 -10 979.06 55.29
-1 9 -10 675.47 49.83
1 9 -10 918.74 51.7
-1 9 -10 872.51 50.6
1 9 -10 977.95 53.14
-1 9 -10 636.56 54.14
-1 -9 10 1048.15 57.14
1 -9 10 1063.11 55.08
-1 -9 -10 754.01 58.74
1 -10 -10 -1.05 4.71
-1 10 -10 2.62 2.43
-1 -10 -10 -0.52 2.85
1 10 -10 2.25 2.99
-1 -10 -10 -2.94 4.16
-1 10 -10 2.91 2.4
-1 -10 10 1.11 2.8
1 -10 10 8.02 3.43
1 10 -10 1.32 2.36
-1 10 -10 -7.31 5.75
-1 -10 -10 -2.99 6.15
-1 -11 -10 446.98 31.32
-1 11 -10 335.34 28.05
-1 -11 -10 431.02 27.91
1 -11 -10 388.81 32.68
-1 11 -10 431.24 28.53
1 11 -10 497.23 30.48
1 -11 10 485.59 31.37
-1 -11 10 571.79 34.84
1 11 -10 426.09 28.43
-1 11 -10 280.54 30.87
-1 -11 -10 421.75 34.32
1 -12 -10 -2.7 4.82
-1 12 -10 0.79 2.93
-1 -12 -10 -0.63 2.33
-1 -12 -10 -0.91 2.97
-1 12 -10 3.53 2.71
1 12 -10 -0.69 1.87
1 -12 10 1.89 2.38
1 12 -10 1.66 2.57
-1 -12 10 -1.17 2.4
-1 12 -10 -0.71 2.2
-1 -13 -10 193.24 17.44
-1 13 -10 152.24 16.44
-1 -13 -10 194.77 16.23
1 -13 -10 136.33 18.04
-1 13 -10 174.62 16.45
1 -13 10 249.16 19.16
1 13 -10 212.75 16.39
-1 13 -10 132.2 17.56
1 -14 10 4.05 2.57
-1 14 10 3.62 2.65
-1 15 -10 6.74 3.86
1 -15 10 12.64 4.36
-1 15 10 8.56 3.82
1 0 -11 0.65 3.36
-1 0 -11 2.21 1.7
1 0 -11 0.95 2.76
1 0 -11 0.69 1.89
-1 0 -11 3.28 2.8
-1 0 -11 -0.77 2.84
1 1 -11 237.57 18.92
-1 -1 -11 217.81 17.22
1 -1 -11 199.89 18.06
1 1 -11 178.11 15.7
1 -1 -11 196.35 16.01
1 1 -11 204.2 16.23
1 -1 -11 182.95 15.89
-1 -1 -11 236.26 18.18
-1 -1 -11 191.78 17.45
-1 1 -11 178.2 16.07
-1 1 -11 212.9 17.45
1 2 -11 5.32 3
1 -2 -11 4.43 2.08
1 2 -11 6.37 2.66
-1 -2 -11 3.89 2.42
1 -2 -11 9.78 3.91
1 2 -11 4.01 2.2
1 -2 -11 9.15 2.91
-1 2 -11 3.34 3.34
1 2 -11 4.67 3.2
-1 -2 -11 7.49 3.1
-1 -2 -11 8.43 3.87
-1 -3 -11 112.94 11.47
1 -3 -11 110.54 12.41
1 3 -11 94.04 10.23
1 -3 -11 101.14 10.47
1 3 -11 99.66 10.12
-1 -3 -11 107.67 12.96
-1 -3 -11 96.36 11.29
-1 3 -11 118.78 12.11
1 4 -11 0.69 2.66
1 -4 -11 -0.63 1.58
1 4 -11 -0.66 1.92
-1 -4 -11 1.63 1.67
1 -4 -11 -1 2.31
1 -4 -11 0.71 1.64
-1 4 -11 -0.81 2.34
-1 -4 -11 1.18 2.44
-1 -4 -11 -0.86 2.33
1 5 -11 7.07 2.83
1 -5 -11 2.16 1.67
-1 5 -11 2.07 3.2
1 5 -11 4.64 2.06
-1 -5 -11 4.15 2.57
1 -5 -11 2.03 2.1
-1 -5 -11 8.06 4.59
-1 -5 -11 5.23 3.11
1 6 -11 9.44 3.56
1 6 -11 14.59 3.85
-1 6 -11 12.02 5.19
-1 -6 -11 11.91 4.06
1 -6 -11 9.34 3.9
1 -6 -11 12.39 3.65
-1 -6 -11 1.53 6.88
-1 -6 -11 18.73 5.15
-1 -7 -11 279.9 29.65
-1 -7 -11 430.19 28.49
1 7 -11 382.17 26.71
-1 7 -11 314.25 29.15
1 -7 -11 367.46 26.21
1 7 -11 400.67 26.09
-1 -7 -11 357.88 33.87
-1 -7 -11 415.56 28.81
-1 -8 -11 7.56 5.88
1 8 -11 15.2 4.57
1 -8 -11 12.29 4.48
1 8 -11 21.96 4.41
-1 8 -11 7.34 6.09
-1 -8 -11 18.96 4.81
-1 -8 -11 20.67 5.09
1 -9 -11 168.99 15.44
1 9 -11 163.64 13.23
-1 -10 -11 -1.15 2.64
1 -10 -11 1 2.91
-1 10 -11 -1.23 5.05
1 1 -12 148.29 13.05
1 2 -12 0.71 5.2
2 0 0 5016.75 265.32
-2 0 0 5034.18 265.43
2 0 0 5022.77 265.24
-2 0 0 5248.96 266.75
2 0 0 5192.59 266.71
2 0 0 5174.17 266.78
2 0 0 5201.25 266.47
2 -1 0 0.23 0.44
-2 -1 0 0.14 0.54
-2 -1 0 0.74 0.57
-2 1 0 -0.24 0.61
2 1 0 0.71 0.69
2 -1 0 0.24 0.59
2 1 0 1.02 0.74
2 -1 0 0.24 0.71
2 -1 0 0.42 0.75
-2 1 0 1.23 0.85
-2 -2 0 891.1 46.61
-2 -2 0 856.22 46.56
2 -2 0 858.15 46.43
2 2 0 881.6 47.66
2 -2 0 894.72 47.7
-2 -2 0 889.88 47.69
2 -2 0 867.3 47.69
2 2 0 925.47 47.91
-2 -2 0 837.7 47.31
2 -2 0 846.39 47.18
-2 2 0 865.89 47.42
-2 2 0 846.18 47.12
-2 -3 0 0.16 0.39
-2 -3 0 0.16 0.41
2 3 0 0.17 0.34
2 -3 0 -0.24 0.5
-2 -3 0 0.23 0.59
2 3 0 -0.25 0.52
-2 -3 0 0.25 0.45
-2 -3 0 0.24 0.59
2 3 0 -0.26 0.61
2 -3 0 0.26 0.6
-2 3 0 -0.22 0.63
-2 3 0 -0.23 0.68
2 -3 0 0.41 0.7
2 4 0 363 20.39
-2 -4 0 366.7 20.65
-2 4 0 354.44 20.66
-2 -4 0 362.42 21
2 4 0 384.91 21.54
-2 -4 0 362.62 21.43
2 -4 0 353.24 21.23
-2 -4 0 362.93 21.31
2 4 0 369.52 21.51
2 -4 0 367.08 21.47
2 -4 0 353.73 21.05
2 -4 0 361.24 20.86
-2 4 0 336.82 21.03
2 5 0 0.17 0.46
-2 5 0 0.21 0.47
2 5 0 -0.27 0.69
-2 -5 0 -0.45 0.57
-2 -5 0 0.28 0.65
-2 -5 0 0.26 0.54
2 -5 0 0.29 0.67
2 5 0 0.22 0.8
2 -5 0 0.21 0.53
2 -5 0 -0.26 0.59
-2 5 0 0.26 0.59
-2 -6 0 127.76 8.5
2 6 0 124.6 8.17
-2 -6 0 132.11 8.69
-2 6 0 129.09 8.52
2 6 0 122.67 9.11
2 -6 0 125.34 9.24
-2 -6 0 120.48 8.95
2 6 0 116.94 8.52
-2 6 0 118.74 8.85
2 -6 0 130.35 9.09
2 -6 0 119.48 8.44
2 7 0 -0.2 0.41
-2 -7 0 -0.24 0.65
2 -7 0 -0.23 0.82
2 7 0 0.3 0.98
-2 -7 0 0.25 0.71
-2 7 0 0.23 0.52
2 -7 0 0.34 0.49
-2 -7 0 -0.31 0.71
2 -7 0 -0.24 0.59
2 -7 0 0.32 0.81
2 7 0 -0.25 0.69
-2 7 0 -0.3 0.77
2 8 0 2333.44 121.33
2 8 0 2277.07 121.6
-2 -8 0 2330.5 122.03
2 -8 0 2331.78 122.02
-2 8 0 2222.88 123.01
-2 -8 0 2257.23 121.92
-2 8 0 2291.09 121.71
2 8 0 2316.25 122.59
-2 -8 0 2252.31 120.52
2 -8 0 2359.22 123.36
-2 -8 0 2255.11 122.72
2 8 0 2275.02 122.1
2 -8 0 2278.02 121.9
2 -8 0 2504.19 123.51
-2 8 0 2305.89 122.74
2 9 0 -0.25 0.64
2 -9 0 -0.3 1.1
-2 -9 0 0.3 0.93
-2 9 0 0.52 0.8
2 9 0 0.35 1.07
-2 9 0 0.39 0.7
2 9 0 0.21 0.82
-2 -9 0 0.28 0.88
-2 -9 0 0.09 0.37
2 -9 0 -0.42 0.86
-2 -9 0 -0.74 1.14
2 -9 0 -0.27 0.84
2 -9 0 0.83 1.22
2 9 0 -0.29 1.04
-2 9 0 0.38 1.03
2 10 0 3150.55 169.03
2 -10 0 3270.01 170.21
-2 -10 0 3288.55 170.19
2 10 0 3120.64 169.8
2 -10 0 3354.78 170.63
2 10 0 3270.9 170.63
-2 -10 0 3151.08 169.95
-2 10 0 3166.42 169.51
2 -10 0 3475.49 172.05
-2 -10 0 3092.2 170.88
2 -10 0 2991.16 169.52
2 10 0 3111.06 169.87
2 -10 0 3604.91 172.23
-2 10 0 3287.96 171.24
2 -11 0 -0.39 1.2
2 11 0 -0.38 0.87
2 11 0 0.41 1.13
2 -11 0 -0.42 1.06
-2 11 0 -0.31 1
2 11 0 -0.26 0.77
-2 -11 0 -0.35 0.71
2 11 0 0.46 1.5
2 -11 0 1.08 1.24
-2 -11 0 0.45 1.14
2 -11 0 0.65 1.17
2 -11 0 -1.61 1.56
2 11 0 1.02 0.86
-2 11 0 0.49 1.12
2 12 0 1159.51 61.64
-2 12 0 1052.53 59.96
2 12 0 1183.61 62.53
2 -12 0 1172.25 61.88
-2 -12 0 1090.17 60.74
2 12 0 1071.73 59.8
2 12 0 956.13 60.94
-2 -12 0 1192.38 61.5
2 -12 0 1052.93 61.13
2 12 0 1045.31 60.3
-2 12 0 1186.77 62.83
2 -12 0 1044.23 60.51
2 13 0 -1.05 1.43
2 -13 0 0.55 1.13
-2 -13 0 -0.93 1.52
2 13 0 -0.59 1.22
-2 13 0 -0.38 0.95
2 13 0 0.39 1.05
-2 -13 0 -0.52 1.3
2 -13 0 -1.1 1.87
2 -13 0 0.44 0.91
-2 13 0 -0.65 1.76
-2 -14 0 75.22 8.25
2 -14 0 83.16 8.8
2 14 0 89.13 8.98
-2 14 0 84.37 7.85
-2 -14 0 97.32 9.24
2 14 0 69.22 7.58
2 -14 0 78.55 8.39
-2 14 0 106.16 10.56
2 -14 0 74.39 8.26
2 15 0 0.58 1.46
-2 -15 0 0.69 1.24
-2 -15 0 0.66 1.52
2 -15 0 -0.71 1.28
-2 15 0 0.49 1.24
2 -15 0 -0.4 1.38
2 15 0 1.44 1.17
2 -15 0 -0.45 1.13
-2 15 0 1.78 1.83
2 16 0 65.2 7.09
2 -16 0 60.5 8.15
2 -16 0 63.96 6.24
2 16 0 61.86 5.9
2 -16 0 57.73 6
-2 16 0 83.32 10.73
2 16 0 60.38 6.89
2 17 0 -0.39 1.64
2 17 0 -0.45 1.38
2 -17 0 -0.32 0.69
2 -17 0 -0.75 2.55
2 17 0 0.21 1.05
2 -17 0 0.56 1.22
-2 -17 0 0.36 1.33
-2 -17 0 0.86 1.14
-2 17 0 0.82 1.25
-2 17 0 1.22 2.81
2 -18 0 1130.9 51.53
2 18 0 1053.24 47.38
-2 18 0 1058.31 56.01
2 -19 0 1.36 1.97
-2 -19 0 1.49 2.03
2 19 0 0.4 1.49
-2 19 0 -1.08 2.93
-2 -20 0 972.27 53.68
2 -20 0 969.6 53.35
-2 20 0 1073.37 58.37
-2 -21 0 0.65 1.78
2 -21 0 -0.64 2.1
2 21 0 -0.39 1.22
2 -21 0 -0.89 2.6
-2 21 0 -1.02 3.15
2 -22 0 321.54 22.14
-2 -22 0 280.4 21.33
2 -22 0 290.48 24.1
-2 22 0 344.42 25.52
2 23 0 2.38 1.53
2 -23 0 -3.14 1.45
-2 -23 0 0.59 1.49
2 -23 0 -0.9 1.85
-2 23 0 1 2.29
-2 -24 0 45.46 6.28
2 -24 0 37.24 7.39
-2 24 0 60.31 8.92
-2 -25 0 -2.27 2.55
2 -25 0 1.83 2.11
-2 25 0 2.02 2.94
-2 -26 0 20.76 4.34
2 0 -1 0.38 0.39
-2 0 1 -0.21 0.62
2 0 -1 0.61 0.51
-2 0 -1 0.51 0.53
2 0 -1 0.68 0.62
2 0 1 0.25 0.57
-2 0 1 0.17 0.49
-2 0 -1 1 0.63
2 0 1 0.3 0.62
2 0 -1 0.81 0.63
2 0 1 0.17 0.64
2 -1 -1 -0.2 0.41
-2 -1 1 0.66 0.64
2 1 -1 0.2 0.41
-2 -1 -1 0.36 0.24
-2 -1 -1 0.12 0.23
2 1 -1 0.55 0.54
2 1 -1 -0.23 0.58
-2 1 -1 0.53 0.61
2 1 1 0.25 0.77
2 -1 -1 0.22 0.46
2 -1 1 0.25 0.68
-2 -1 -1 -0.26 0.59
-2 1 1 -0.34 0.46
2 1 -1 0.41 0.56
-2 1 -1 0.5 0.51
-2 -1 1 0.17 0.43
2 -1 -1 -0.21 0.43
2 -1 1 -0.29 0.52
2 1 1 -0.3 0.62
2 -1 1 0.16 0.49
-2 1 1 0.11 0.35
2 2 1 12.7 1.3
-2 -2 1 11.57 1.85
2 -2 -1 9.15 1.62
2 2 -1 13.01 1.8
-2 -2 1 11.29 1.84
-2 -2 -1 8.84 1.74
2 2 -1 11.19 1.92
2 -2 -1 11.76 1.89
2 -2 1 11.3 1.95
-2 2 -1 13.17 2.09
-2 2 1 16.14 1.97
2 2 1 13.85 2.3
-2 -2 1 10.23 1.57
2 2 -1 11.91 1.83
2 -2 -1 17.61 2.2
-2 2 -1 11.87 1.97
2 -2 1 10.07 1.95
2 -2 1 11.95 1.62
2 2 1 10.92 1.9
-2 2 1 11.56 2.12
-2 -3 1 212.21 12.93
2 3 1 198.43 11.56
-2 -3 1 204.88 12.92
2 3 -1 208.5 12.97
2 -3 -1 184.58 12.62
-2 -3 1 207.64 12.43
-2 3 1 199.75 12.6
2 3 -1 211.66 13.2
-2 -3 -1 222.78 13.36
2 -3 -1 222.34 13.11
-2 3 1 207.51 12.97
-2 3 -1 197.52 13.23
2 -3 1 211.17 13.3
2 -3 -1 210.78 12.98
-2 -3 1 208.28 12.52
2 -3 1 225.73 13.68
2 3 -1 210.18 12.79
-2 3 -1 217.95 13.17
2 3 1 216.96 13.89
-2 3 -1 198.57 12.42
2 3 1 204.08 12.98
2 -3 -1 208.73 12.26
2 -3 1 190.71 12.17
-2 3 1 217.13 13.53
-2 -4 1 78.79 6.27
2 4 1 76.86 5.16
-2 -4 1 84.29 6.45
2 4 -1 84.84 6.36
-2 -4 1 88.73 5.88
-2 4 1 76.4 6.01
-2 -4 1 83.83 6.57
-2 -4 -1 88.97 6.65
2 -4 -1 83.18 6.37
-2 4 1 86.13 6.42
-2 4 -1 83.06 6.73
2 4 -1 80.41 6.48
-2 -4 1 84.3 6.06
2 -4 -1 78.78 6.34
2 -4 1 84.14 6.84
-2 4 -1 85.47 6.44
2 4 1 91.71 7.18
2 4 -1 91.18 6.39
-2 4 -1 84.56 6.03
2 4 1 88.14 6.55
2 -4 1 71.76 5.57
2 -4 -1 73.49 5.72
2 -4 1 85.17 6.87
-2 4 1 75.62 6.53
2 5 1 5.62 0.97
-2 -5 1 4.76 1.25
2 5 -1 3.13 1.01
-2 -5 1 5.93 1.48
-2 -5 -1 3.83 0.89
-2 5 -1 3.46 0.95
-2 5 1 6.09 1.37
-2 5 1 3.99 1.18
-2 -5 1 4.21 1.01
-2 5 -1 1.26 0.82
-2 -5 -1 3.88 1.2
2 5 -1 3.33 1.16
2 -5 1 4.81 1.42
-2 -5 1 2.15 0.91
2 -5 -1 4.08 1.21
-2 5 -1 5.05 1.28
2 -5 1 4.78 1.12
2 5 1 5.13 1.46
2 -5 1 5.35 1.54
-2 5 1 5.89 1.55
-2 5 -1 4.21 1.06
2 -5 -1 5.8 1.33
2 6 -1 20.54 2.56
-2 -6 -1 16.08 2.04
2 6 1 20.59 2.2
-2 -6 1 19.1 2.78
-2 6 -1 20.24 2.38
-2 -6 1 20.18 2.32
-2 -6 -1 17.8 2.66
2 6 -1 20.79 2.87
2 6 -1 18.51 2.46
-2 6 1 16.61 2.51
-2 6 -1 17.9 2.84
-2 6 1 17.6 2.38
2 -6 -1 17.45 2.7
2 -6 1 18.84 2.94
-2 -6 1 15.73 2.34
-2 6 -1 19.68 2.5
2 6 1 20.25 2.88
2 -6 1 19.92 2.35
-2 6 1 20.51 2.95
2 -6 -1 19.74 2.59
2 -6 1 16.4 2.78
2 7 1 257.24 14.75
-2 -7 1 234.3 15.54
2 7 1 233.19 13.62
-2 -7 1 231.83 15.09
2 7 -1 234.49 14.76
-2 -7 -1 232.62 14.3
2 7 -1 253.16 15.07
2 7 -1 236.96 15.53
-2 -7 1 237.18 14.44
-2 7 -1 229.75 14.39
2 7 1 246.03 15.39
-2 7 1 228.64 14.77
-2 7 1 231.86 15.23
2 -7 1 229.05 15.64
2 -7 -1 250.36 15.81
-2 -7 -1 225.94 15.78
-2 -7 1 240.07 14.94
2 7 1 241.45 15.44
-2 7 1 263.01 15.98
-2 7 -1 239.91 14.92
2 -7 1 244.02 14.51
2 -7 1 234.22 15.77
2 -7 -1 252.8 15.32
2 8 1 323.94 18.11
2 8 1 294.22 19.52
2 8 -1 328.59 19.3
-2 -8 1 327.56 20.39
-2 -8 1 324.31 19.75
-2 -8 -1 340.41 19.04
2 8 -1 318.89 19.24
2 8 1 313.78 20.16
-2 -8 1 324.34 19.05
2 8 -1 342.72 19.6
-2 8 -1 310.21 18.79
-2 8 1 315.29 19.37
-2 8 1 325.85 19.96
2 8 1 334.29 19.97
2 8 -1 343.14 20.51
-2 -8 -1 332.87 19.27
-2 -8 1 322.01 19.59
-2 -8 -1 305.45 20.35
2 8 1 310.93 19.84
2 8 -1 307.25 18.88
-2 8 1 307.79 20.17
2 -8 1 308.18 18.94
2 -8 1 328.78 20.53
-2 8 -1 319.44 19.61
2 9 -1 1.13 0.77
-2 -9 -1 1.56 0.85
2 -9 1 0.43 1.34
-2 -9 1 1.7 1.05
2 9 1 0.17 0.56
-2 9 -1 0.23 0.63
2 9 -1 0.31 0.77
2 9 1 0.39 0.8
-2 9 1 0.6 0.69
2 9 -1 0.28 0.63
-2 9 1 -0.35 0.89
2 9 1 1.05 0.81
-2 -9 1 0.27 0.62
2 9 -1 1.2 1.09
-2 -9 1 0.63 0.8
-2 -9 -1 0.24 0.6
-2 -9 -1 2.08 1.21
2 -9 1 0.44 0.9
2 -9 1 1.34 0.88
2 9 -1 0.73 0.71
2 9 1 2.52 1.29
-2 9 1 0.83 1.05
-2 9 -1 0.69 0.86
2 10 -1 5.28 1.49
2 10 1 7.09 1.51
-2 -10 -1 8.98 1.88
-2 -10 1 7.87 1.91
2 -10 -1 3.08 1.18
2 -10 1 5.26 2.11
-2 -10 1 4.11 1.48
2 10 -1 6.81 1.74
2 10 1 7.57 2.05
-2 10 -1 5.95 1.42
-2 10 1 5.05 1.67
-2 10 1 3.21 1.26
2 10 -1 5.46 1.5
2 10 -1 6.72 2.03
2 10 1 4.23 1.65
-2 -10 1 3.17 1.28
-2 -10 -1 5.18 1.32
-2 -10 -1 3.63 1.57
2 -10 1 2.92 1.61
2 -10 1 5.2 1.66
2 10 1 7.78 2.02
-2 10 1 2.75 1.44
2 10 -1 7.78 1.64
-2 10 -1 3.56 1.6
2 -11 1 14.68 3.42
-2 -11 -1 17.46 2.89
2 -11 -1 14.73 2.49
2 11 1 14.31 2.55
2 11 -1 11.87 2.33
-2 -11 1 13.3 2.74
-2 11 1 16.45 3.05
2 11 -1 14.23 2.7
2 11 -1 13.84 2.41
2 11 1 14.55 2.98
-2 -11 1 10.37 2.46
-2 11 -1 15.42 2.35
2 -11 -1 18.2 3.38
-2 11 1 15.15 2.7
2 11 1 18.26 3.24
-2 -11 1 11.09 2.53
-2 -11 -1 15.47 3.38
2 -11 1 14.7 3.43
2 -11 -1 16.75 2.75
2 -11 1 13.24 2.96
2 -11 1 11.05 3.48
2 11 -1 14.84 2.41
2 -11 1 25.45 4.22
-2 11 -1 13.35 2.83
-2 11 1 18.01 3.39
-2 -12 1 222.31 14.63
2 12 -1 200.32 13.19
2 12 -1 199.09 13.7
2 12 1 154.15 12.82
2 -12 1 190.73 14.14
-2 -12 -1 206.49 14.22
2 -12 -1 193.64 13.22
2 -12 1 139.88 14.21
-2 -12 1 174.79 13.99
2 -12 -1 226.47 15.71
-2 12 -1 191.51 12.75
2 12 1 201.48 14.52
2 12 -1 225.01 14.48
-2 12 1 195.25 13.66
2 12 1 218.06 14.84
2 -12 1 170.44 14.43
-2 -12 -1 184.35 14.96
2 12 1 178.05 14.37
2 -12 1 158.09 14.95
2 12 -1 194.15 12.81
2 -12 -1 188.33 13.32
-2 12 1 208.12 15.27
2 -12 1 170.14 14.06
2 -12 1 233.93 16.33
-2 12 -1 208.12 15.16
2 12 1 184.3 15.94
2 13 -1 43.88 4.75
2 -13 1 37.16 4.94
2 -13 1 27.84 5.14
2 -13 1 37.07 5.77
2 13 -1 49.94 5.48
2 -13 -1 36.95 4.8
-2 -13 -1 37 5.24
-2 -13 1 46.62 5.76
2 13 1 36.18 4.28
2 13 1 47.07 5.93
2 13 1 46.49 5.87
2 -13 -1 39.76 5.88
2 13 -1 47.08 5.76
-2 -13 1 31.96 5.21
-2 13 -1 40.95 4.43
-2 13 1 46.18 5.38
2 -13 1 33.31 5.23
2 13 1 40.88 5.41
-2 13 -1 55.53 6.77
2 13 -1 37.09 4.31
2 13 1 31.56 5.59
2 -13 -1 37.19 4.78
-2 13 1 46.86 6.35
2 -13 1 50.33 6.77
2 14 -1 62.89 6.19
-2 -14 1 69.92 7.53
-2 -14 -1 37.86 6.03
2 14 1 50.6 4.97
2 14 -1 56.99 6.68
-2 14 1 52.65 6.33
-2 14 -1 65.13 5.95
2 14 -1 44.71 6.44
-2 -14 -1 59.86 6.64
2 -14 -1 53.34 7.46
2 14 1 60.52 7.1
2 14 1 50.71 6.12
2 -14 1 40.89 5.94
2 -14 1 58.13 7.9
2 14 1 56.68 7.06
2 -14 1 46.83 6.42
-2 14 1 60.88 7.86
-2 14 -1 54.82 7.62
2 -15 1 2.12 1.81
2 15 1 2.92 1.9
2 15 -1 4.05 1.89
-2 -15 -1 3.35 1.95
2 15 1 3.96 1.43
2 15 -1 4.43 2.26
-2 -15 -1 5.21 2.23
-2 15 -1 5.57 1.98
2 -15 -1 -0.84 1.94
2 15 1 1.72 1.66
2 -15 1 3.47 2.04
2 -15 1 4.29 2.16
-2 -15 1 3.8 2.35
2 15 1 6 2.66
-2 -15 1 2.13 1.65
-2 15 1 1.05 1.62
-2 15 1 1.78 2.42
-2 15 -1 1.8 2.27
2 16 -1 358.05 23.18
-2 -16 -1 338.15 23.03
-2 16 -1 357.11 22.19
-2 -16 -1 346.68 24.17
2 -16 -1 295.92 23.46
-2 16 1 344.27 23.04
-2 -16 1 308.79 22.79
2 -16 1 301.56 25.63
2 16 1 337.34 20.55
2 -16 1 296.34 20.85
-2 -16 1 319.64 21.37
-2 16 1 309.64 21.17
2 16 1 318.83 22.07
-2 16 1 430.73 28.29
2 -16 1 303.89 21.01
-2 16 -1 304.49 25.78
2 16 1 365.97 23.78
2 17 -1 55.47 7.54
-2 17 -1 58.33 7.13
-2 -17 1 56.84 7.43
-2 -17 -1 56.99 8.02
2 -17 -1 65.47 8.19
2 -17 1 54.64 5.62
-2 -17 1 63.18 6.8
2 -17 -1 57.12 5.3
2 -17 1 39.19 8.26
-2 17 1 60.08 6.57
-2 -17 -1 56.17 6.15
2 17 1 52.79 4.94
-2 17 -1 51.58 6.32
2 -17 -1 35.8 4.34
-2 -17 1 70.03 6.14
-2 17 1 54.66 5.63
-2 -17 -1 59.03 5.91
-2 17 -1 60.16 5.74
-2 17 1 76.54 10.77
2 17 1 66.57 6.64
-2 17 -1 78.4 10.17
2 17 1 77.81 8.27
2 18 -1 107.92 10.07
2 18 1 99.6 7.05
-2 -18 1 130.01 10.73
2 -18 -1 157.99 11.92
-2 -18 -1 125.82 12.27
2 -18 1 83.9 11.34
-2 -18 1 63.72 5.79
-2 18 -1 67.4 6.44
-2 18 1 62.91 5.41
2 18 1 82.4 6.62
-2 -18 -1 72.22 5.33
-2 18 1 139.89 15.56
-2 18 -1 127.89 12.6
2 18 1 138.31 10.92
2 19 -1 1.21 1.53
2 19 1 2.73 1.26
-2 -19 1 4.86 2.08
2 -19 -1 1.39 1.61
-2 -19 -1 1.73 2.19
2 -19 1 6.18 3
2 19 1 1.29 1.49
2 19 -1 0.87 2.21
-2 19 1 7.79 4.23
-2 19 -1 0.92 2.69
2 20 -1 153.11 12.98
-2 -20 1 167.71 13.5
2 -20 -1 172.77 14.41
-2 -20 -1 163.34 14.89
2 -20 1 156.88 16.34
2 20 1 145.98 13.66
-2 20 -1 191.62 16.6
-2 20 1 175.97 17.94
2 20 -1 161.62 15.31
2 21 -1 11.17 3.17
-2 -21 1 20.66 3.88
2 -21 -1 17.65 4.11
-2 -21 -1 19.55 4.46
2 -21 1 14.5 4.42
2 21 -1 16.16 4.33
2 21 1 18.05 4.16
-2 21 1 15.31 5.36
-2 21 -1 22.45 5.14
2 22 -1 77.13 8.33
2 -22 -1 103.88 10.32
-2 -22 1 88.64 8.73
-2 -22 -1 92.56 10.05
2 -22 1 96.04 11.61
2 -22 1 78.01 6.83
2 22 1 100 10.16
-2 22 -1 102.37 11.54
2 22 -1 103.62 11.01
-2 22 1 109.67 13.19
2 23 -1 7.26 2.48
-2 -23 -1 7.51 2.75
-2 -23 1 8.31 2.45
2 -23 -1 8.75 2.97
2 -23 1 3.8 2.8
2 23 1 9.33 3.49
2 23 -1 10.12 3.52
-2 23 1 8.94 3.84
-2 23 -1 11.82 3.77
2 24 -1 78.85 9.99
2 -24 -1 156.72 12.97
-2 -24 1 138.22 11.26
-2 -24 -1 110 11.76
-2 24 1 86.24 12.66
2 -24 1 157.46 15.1
-2 24 1 163.32 16.14
-2 24 -1 176.93 15.22
2 24 1 140.95 13.01
2 24 -1 125.13 12.73
2 25 -1 1.42 1.69
2 -25 -1 1.34 1.95
-2 -25 1 0.48 1.56
-2 -25 -1 3.24 2.11
2 -25 1 3.83 2.61
-2 25 1 1.87 2.36
-2 25 -1 2.8 2.54
2 -26 -1 223.81 17.48
-2 -26 -1 207.54 17.13
-2 26 1 182.88 18.69
-2 -27 -1 22.28 4.91
2 -27 -1 22.64 4.89
2 0 -2 34.32 3.87
2 0 -2 31.17 3.61
2 0 2 37.57 2.34
2 0 2 41.86 3.73
-2 0 2 33.12 3.82
-2 0 2 32.73 3.2
-2 0 2 29.84 3.28
-2 0 -2 39.73 3.93
2 0 -2 39.23 3.64
2 0 2 35.98 4.16
-2 0 -2 36.56 3.95
2 0 -2 31.38 3.1
2 0 -2 37.94 4.08
2 0 2 33.4 2.78
2 -1 -2 0.27 0.75
-2 -1 2 -0.31 0.55
2 1 2 -0.16 0.56
2 -1 2 -1.25 1
2 1 -2 1.16 0.79
2 -1 2 0.41 0.48
2 1 -2 -0.26 0.84
2 1 -2 -0.23 0.62
-2 -1 -2 0.27 0.48
-2 1 -2 0.28 0.58
-2 -1 2 1.36 0.66
2 -1 -2 -0.43 0.63
-2 1 2 -0.21 0.44
-2 -1 -2 0.3 0.62
2 1 2 -0.35 0.73
2 -1 2 0.35 0.62
2 1 -2 0.16 0.41
-2 1 -2 0.28 0.66
2 -1 -2 0.18 0.46
-2 -1 2 0.12 0.36
2 -1 2 0.1 0.35
2 -1 2 -1.23 0.91
2 -1 -2 0.3 0.81
2 2 -2 535.7 31.07
2 -2 2 553.19 30.92
2 2 -2 522.27 30.79
2 -2 -2 549.8 31.1
-2 -2 2 569.36 31.52
2 -2 2 646.56 31.92
-2 2 2 533.81 30.37
-2 -2 2 534.19 30.68
-2 -2 -2 547.08 30.95
-2 -2 2 533.85 29.37
-2 2 -2 546.18 31.13
2 2 2 543.71 30.89
2 -2 -2 559.74 30.49
2 2 -2 549.01 30.74
2 2 -2 546.88 29.96
-2 -2 -2 551.7 31.58
-2 2 -2 569.64 31.25
2 -2 2 542.1 31.6
2 -2 -2 523.54 30.14
-2 -2 2 529.42 29.49
2 2 2 575.56 31.99
2 -2 2 554.9 30.72
2 -2 2 522.91 29.16
2 -2 -2 553.03 31.27
2 -3 -2 3.72 1.39
2 3 2 1.78 0.69
2 -3 2 2.08 0.49
-2 -3 2 2.11 1.03
-2 -3 2 1.97 1.13
2 -3 2 0.71 1.38
2 3 -2 2.57 1.13
2 -3 2 2.27 0.52
2 -3 2 0.75 1.34
-2 -3 -2 1.1 0.76
-2 -3 2 1.71 0.59
2 3 2 1.85 0.95
-2 3 -2 3.66 1.3
2 -3 -2 1.87 0.96
-2 3 2 1.69 0.79
2 3 -2 2.99 1.09
-2 -3 -2 2.32 1.33
2 3 2 3.38 1.29
2 -3 -2 2.37 0.95
-2 -3 2 2.18 0.71
-2 3 -2 1.67 0.87
2 3 -2 2.48 0.84
2 -3 2 2.43 0.69
2 3 2 1.21 1.36
2 -3 -2 2.5 0.67
-2 3 -2 0.64 0.66
-2 3 2 2.09 1.25
2 -3 -2 2.35 1.18
2 -4 2 6586.88 384.64
-2 -4 2 7396.28 384.44
2 4 -2 7395.17 383.93
-2 -4 2 7376.47 384.64
2 -4 2 6940.58 382.2
2 -4 -2 7160.62 384.31
2 -4 2 7748.99 385.93
-2 -4 2 7332.24 382.39
2 4 -2 7441.11 384.04
-2 -4 -2 7604.27 384.12
2 4 2 7573.53 384.1
-2 -4 -2 7670.76 384.81
-2 4 2 7359.81 383.46
-2 4 -2 7393.47 384.62
2 -4 -2 7372.44 383.48
-2 -4 2 7317.16 382.6
-2 -4 -2 7286.09 384.81
2 -4 -2 7125.91 383.69
-2 4 -2 7533.45 384.12
2 4 2 7603.93 385.38
2 4 2 9777.02 393.85
-2 4 2 7515.6 384.92
-2 4 -2 7025.86 382.67
2 -4 2 8873.08 398.15
2 4 2 7361.89 384.67
2 -4 2 7351.37 382.43
2 -4 -2 7393.14 384.31
2 -4 -2 7568.06 382.7
2 -5 2 5.38 2.49
-2 -5 -2 5.12 0.9
-2 -5 2 9.28 1.97
-2 -5 2 8.21 1.98
2 -5 2 9.1 2.16
2 5 2 8.5 1.79
-2 5 2 3.65 1.21
-2 -5 -2 7.92 1.92
-2 5 -2 8.98 2
-2 -5 -2 5.86 1.52
2 -5 -2 5.52 1.53
-2 -5 2 6.32 1.15
-2 5 2 4.52 1.47
2 5 -2 5.52 1.64
-2 5 -2 7.02 1.67
2 -5 2 8.95 4.13
2 5 2 11.75 4.24
-2 -5 2 4.55 1.09
-2 -5 -2 7.15 2.04
-2 -5 2 5.25 1.34
2 -5 2 4.97 1.16
2 5 2 5.5 1.79
2 -5 -2 6.33 1.78
-2 5 2 6.6 1.87
2 -5 2 4.63 1.85
-2 5 -2 5.16 1.21
-2 -5 -2 6.84 2.09
2 -5 2 10.84 5.27
-2 -6 2 4051.74 218.52
2 -6 2 3238.27 219.87
-2 -6 2 4024.4 218.73
2 -6 2 4533.9 218.86
-2 -6 -2 4094.29 216.18
2 6 2 4390.47 218.13
2 -6 -2 4180.27 218.31
-2 -6 2 4161.43 216.76
-2 -6 -2 4318.92 218.14
2 6 -2 4241.48 218.41
-2 -6 -2 4150.9 218.31
2 6 -2 4136.47 217.02
-2 6 2 4136.39 217.78
-2 6 2 4061.58 217.46
-2 6 -2 4121.37 218.91
-2 -6 2 4059.15 216.78
-2 -6 2 4037.88 216.8
-2 6 -2 4101.62 217.83
2 -6 2 4472.38 224.34
2 6 2 4888.81 224.82
2 -6 2 4124.53 216.92
2 6 2 4203.83 218.9
-2 6 -2 3961.01 216.92
2 -6 -2 4180.56 218.17
2 -6 2 4223 219.22
2 6 2 5023.47 229.16
-2 6 2 4126.96 218.89
2 -6 2 4883.65 228.53
2 -7 2 -0.56 2.17
-2 -7 -2 0.31 0.42
-2 -7 2 -0.35 0.97
2 7 2 0.25 0.49
2 -7 2 -0.34 0.99
-2 -7 2 0.39 0.69
2 7 2 1.2 0.93
2 7 -2 -0.35 0.71
-2 -7 -2 0.66 0.76
-2 7 2 -0.26 0.59
2 7 -2 0.87 0.78
-2 7 -2 -0.2 0.4
-2 7 -2 0.4 0.71
2 -7 -2 -0.72 1.17
-2 7 2 0.59 0.96
-2 -7 2 0.21 0.64
-2 -7 -2 -0.3 0.62
-2 -7 2 0.78 0.57
2 -7 2 -1.6 2.02
2 7 2 0.75 1.73
-2 -7 -2 0.38 0.88
-2 -7 2 0.4 0.45
2 7 2 1.06 2.43
2 -7 2 0.24 0.86
2 7 2 -0.39 1.28
2 -7 2 -2.07 2.82
-2 7 2 0.4 1.01
2 -7 2 0.42 0.86
-2 7 -2 0.23 0.62
2 -7 -2 0.91 1.08
-2 -8 2 511.71 30.33
-2 -8 2 497.04 30.62
2 -8 2 533.86 30.18
-2 -8 -2 531.12 28.58
-2 -8 2 511.42 30.08
2 8 -2 507.17 28.9
2 8 -2 532.47 30.62
-2 -8 2 529.87 29.31
2 -8 -2 537.7 30.68
-2 -8 -2 495.66 29.79
-2 8 2 512.47 29.74
2 8 2 525.02 29.86
-2 8 2 481.81 29.3
-2 8 -2 485.98 28.44
-2 -8 -2 508.6 30.06
-2 -8 2 500.74 28.75
2 -8 2 509.66 33.81
2 8 2 551.34 33.99
2 -8 2 561.53 36.42
2 8 2 492.34 30.64
-2 8 -2 513.65 29.2
2 -8 2 499.23 30.76
2 -8 2 460.42 29.39
2 8 2 592.81 36.86
-2 8 2 496.14 30.57
2 -9 2 0.71 0.9
2 9 2 1.81 0.63
-2 -9 2 2.33 1.06
2 9 -2 0.33 0.6
-2 -9 -2 -0.25 0.79
2 -9 2 -0.93 1.91
-2 -9 2 3.18 1.48
-2 -9 -2 -0.35 0.82
2 9 -2 1.37 0.93
-2 9 2 1.23 0.89
2 9 2 0.43 0.99
2 9 -2 -0.34 0.69
2 9 2 2.38 1.11
-2 9 -2 1.27 0.69
2 9 -2 1.29 0.99
-2 -9 2 0.35 0.95
-2 9 2 1.38 1.01
2 -9 2 3.79 2.34
2 9 2 -0.7 1.45
-2 -9 -2 0.36 0.74
-2 -9 2 1.03 0.79
2 9 2 0.94 1.94
-2 -9 -2 1.9 1.6
2 9 -2 1.69 0.9
-2 9 2 2.29 1.41
-2 9 -2 2.19 1.16
2 -9 2 1.9 1.38
2 -10 2 132.88 10.02
2 10 -2 129.6 9.87
2 10 -2 117.23 9.57
-2 -10 2 134.67 11.12
-2 -10 -2 151.95 9.99
-2 -10 2 148.86 10.73
2 10 2 143.23 10.94
2 10 -2 123.29 9.44
-2 10 -2 123.64 8.69
-2 -10 -2 119.48 9.78
-2 10 2 128.89 9.77
2 10 2 132.23 9.93
2 10 -2 143.38 11.24
-2 10 2 124.91 9.99
-2 -10 2 113.93 9.2
-2 -10 -2 125.82 9.79
2 -10 2 119.82 12.18
2 10 2 140.26 12.56
2 -10 2 123.28 10.56
2 10 2 137.1 13.55
2 -10 2 129.76 13.28
2 10 -2 131.65 8.81
-2 -10 -2 103.22 11.33
2 -10 2 154.46 11.6
-2 10 2 130.38 10.84
-2 10 -2 131.91 10.1
2 -11 2 -0.37 0.86
2 11 -2 0.37 0.66
-2 -11 -2 -0.39 0.99
-2 -11 2 1.36 0.93
2 11 2 -0.86 1.98
2 -11 2 0.86 2.16
-2 -11 2 -0.55 0.8
2 11 2 -0.3 0.63
-2 11 2 -0.42 1.22
-2 11 -2 0.24 0.7
2 11 -2 0.72 1.05
2 11 2 0.99 1.25
-2 11 2 0.38 0.67
-2 11 2 0.49 1.12
2 11 -2 0.55 1.13
2 11 2 -0.39 0.81
2 11 -2 0.36 0.99
-2 -11 2 -0.33 0.84
2 -11 2 -2.19 1.84
2 11 2 1.34 1.69
2 -11 2 -0.51 0.91
-2 -11 -2 0.35 1.14
-2 -11 -2 0.54 1.25
-2 -11 -2 0.82 1.19
2 11 -2 0.23 0.54
2 -11 2 -0.56 1.15
-2 11 -2 0.89 0.92
-2 11 2 0.54 1.37
2 12 -2 222.13 15.02
-2 -12 2 230.16 16.02
2 -12 2 215.3 14.99
-2 -12 2 224.46 17.03
-2 -12 -2 207.65 15.46
2 12 -2 233.87 15.28
2 -12 -2 199.15 14.22
2 12 2 224.97 15.62
-2 12 2 194.22 15.31
-2 12 2 213.95 15.32
2 12 -2 230.53 17.5
2 12 -2 233.65 15.55
-2 12 -2 233.1 14.05
2 12 2 229.85 16.37
-2 12 2 247.3 16.16
2 -12 2 233.66 16.7
-2 -12 2 213.98 20.55
-2 -12 2 229.56 15.15
-2 -12 -2 215.71 16.62
2 -12 2 187.84 16.84
2 12 2 186.22 16.42
-2 12 -2 235.35 16.54
2 -12 2 230.25 17.2
-2 -12 2 208.89 17.95
-2 12 2 199.29 17.52
2 12 -2 214.69 13.77
2 12 2 207.42 18.02
-2 -12 -2 187.91 17.16
2 -12 2 229.39 18.52
2 12 2 206.59 15.99
-2 12 2 252.53 17.4
2 -13 -2 1.03 1.06
2 -13 2 -0.39 1.34
-2 -13 -2 -1.59 2.04
2 -13 2 -0.79 2.14
2 13 -2 2.1 1.22
2 13 2 -0.8 2.32
-2 -13 2 2.75 1.88
-2 -13 2 -0.7 1.77
2 13 -2 2.99 1.85
-2 13 -2 0.28 0.83
-2 13 2 -0.48 1.31
-2 13 2 0.45 1.47
2 -13 -2 2.31 2.24
2 13 -2 1.62 1.56
-2 13 2 0.53 1.56
2 13 2 0.95 1.38
2 -13 2 1.37 1.72
-2 -13 -2 -0.66 1.67
2 -13 2 1.24 1.69
-2 13 2 -2 2.91
-2 -13 2 -1.08 3.34
2 13 2 3.17 1.72
2 13 -2 0.53 0.95
-2 13 2 0.74 1.71
-2 -13 -2 0.71 1.78
-2 -13 2 0.76 1.91
-2 13 2 0.67 2.08
-2 13 -2 -0.65 1.88
2 14 -2 2299.58 116.49
-2 -14 2 2677.08 122.23
-2 -14 -2 1904.99 116.25
2 14 -2 2268.36 116.94
2 -14 -2 1486.85 117.83
2 14 -2 2071.73 117.52
2 14 2 2517.08 118.49
-2 14 2 2421.69 118.21
-2 14 -2 2276.52 115.18
2 -14 2 2488.5 120.19
-2 -14 2 1949.83 121.16
-2 14 2 1981.78 120.79
2 14 2 1982.02 117.15
2 -14 2 1955.01 117.68
-2 14 2 2646.38 121.29
-2 -14 2 2099.31 118.83
-2 14 2 2005.8 118.41
2 14 2 2133.64 119.44
-2 -14 -2 2282.03 118.9
2 -14 2 1894.95 118.39
2 14 2 2207.66 117.48
-2 14 -2 2102.74 119.53
2 15 -2 2.71 1.76
-2 -15 -2 2.99 1.92
2 15 -2 0.49 1.75
2 15 2 6.44 2.85
2 -15 2 0.68 2.32
-2 -15 2 0.94 2.38
2 15 -2 0.67 1.83
-2 15 -2 0.76 1.35
2 -15 -2 0.83 2.09
2 15 2 -0.6 1.76
2 15 2 0.52 1.79
2 -15 2 4.19 2.54
-2 -15 -2 0.79 2
-2 15 -2 1.69 2.75
2 -15 2 0.79 2
-2 -15 2 0.95 2.59
-2 15 2 1.73 2.18
-2 -15 -2 2.51 2.33
2 15 2 1.08 1.76
-2 15 -2 1.92 1.98
-2 -15 -2 -0.67 2.07
-2 -15 2 1.32 2.04
-2 15 2 2.59 2.11
-2 15 2 0.88 2.56
-2 15 -2 1.83 2.83
2 16 -2 1338.96 63.95
-2 -16 2 1426.47 71.02
2 16 -2 1289.24 64.51
-2 -16 -2 1241.92 62.7
-2 16 -2 1218.47 61.92
2 -16 -2 1131.03 65.1
2 -16 2 1244.35 67.74
-2 16 -2 923.95 63.72
2 16 2 1018.62 61.25
-2 16 2 970.45 63.88
-2 -16 2 1110.33 65.71
2 -16 2 1006.87 62.05
-2 -16 -2 981.92 63.67
2 16 2 1240.79 63.48
-2 -16 2 1037.6 62.74
-2 16 2 994.47 62.41
2 -16 2 911.53 62.13
-2 -16 -2 1310.89 64.25
-2 -16 -2 974.08 62.56
-2 16 -2 911.26 61.98
-2 16 -2 1139.96 66.3
-2 16 2 1488.07 70.45
2 16 2 1004.41 63.11
2 17 2 0.57 1.55
-2 -17 2 1.29 3.76
2 17 -2 1.32 1.79
2 17 -2 0.75 1.89
2 -17 -2 0.4 1.31
-2 -17 2 1.13 1.43
-2 -17 -2 0.95 2.19
2 -17 -2 0.76 1.75
-2 17 -2 -1.57 2.16
-2 17 -2 2.79 2.38
-2 -17 2 2.26 2.46
-2 -17 -2 -0.61 2.08
-2 17 2 0.66 2.15
2 -17 2 -1.03 2.6
2 -17 2 0.48 1.92
-2 -17 2 0.53 1.33
2 17 2 2.83 1.94
-2 17 2 0.52 1.08
-2 17 -2 2.87 1.78
-2 -17 -2 -0.52 1.68
-2 -17 -2 -2.94 2.26
-2 17 2 -1.18 3.43
-2 17 -2 0.85 2.31
2 18 -2 94.43 10.25
-2 -18 2 101.33 8.87
-2 -18 -2 73.93 10.4
-2 18 -2 74.78 8.31
2 -18 -2 112.82 10.71
-2 18 2 78.39 8.04
-2 18 -2 81.82 8.67
2 -18 -2 70.59 6.6
-2 -18 2 75 8.5
2 -18 2 65.76 10.76
-2 -18 -2 79.77 7.48
-2 -18 -2 115.56 9.69
-2 -18 2 71.24 7.26
-2 18 2 65.77 7.21
2 18 -2 74.24 8.12
2 18 2 96.54 9.22
-2 18 2 121.35 14.73
-2 18 -2 108.97 11.11
2 19 -2 0.92 2.11
2 19 -2 0.36 1.42
-2 -19 2 1.35 1.97
2 -19 -2 2.92 1.99
-2 -19 2 1.36 1.15
-2 -19 -2 -0.95 1.69
2 -19 2 1.25 1.82
-2 19 -2 1.11 1.57
2 19 2 2.42 1.87
-2 -19 -2 0.99 0.68
-2 19 2 -3.17 3.64
-2 19 -2 1.63 1.88
-2 -20 2 89.31 12.77
2 20 -2 102.67 10.93
-2 -20 -2 115.57 11.77
2 -20 -2 128.54 11.33
-2 -20 2 108.59 8.61
2 -20 2 88.34 12.17
-2 20 2 121.18 15.05
2 20 2 111.84 10.29
-2 20 -2 143.29 12.55
-2 -21 2 1.2 2.13
2 21 -2 1.4 1.61
2 -21 -2 1.44 1.96
-2 -21 2 -0.4 1.49
-2 -21 -2 -1.67 2.43
2 -21 2 2.2 2.54
-2 21 2 1.96 2.26
2 21 2 2.02 1.96
2 21 -2 -0.91 2.31
-2 21 2 -2.76 4.02
-2 21 -2 -3.26 2.52
-2 -22 2 186.55 18.73
2 22 -2 137.47 13.44
2 -22 -2 194.29 15.37
-2 -22 2 152.53 12.18
-2 -22 -2 183.29 15.66
-2 22 2 141.69 16.16
2 -22 2 156.35 17.01
-2 22 2 207.1 19.84
-2 22 -2 212.17 16.77
2 22 2 160.43 14.65
2 22 -2 168.66 15.82
2 23 -2 1.79 2.04
-2 -23 2 5.68 3.51
-2 -23 -2 0.76 2.34
2 -23 -2 -2.15 2.45
-2 -23 2 0.39 1.49
2 -23 2 1.04 2.38
-2 23 2 -1 2.72
2 23 2 -0.74 2.02
2 23 -2 0.85 2.14
-2 23 2 2.52 3.44
-2 23 -2 4.18 3.1
2 24 -2 477.58 35.82
-2 -24 2 587.67 41.62
2 -24 -2 694.48 38.89
-2 -24 -2 590.3 38.31
-2 24 2 501 39.3
-2 24 2 454.4 39.12
2 -24 2 617.4 41.55
-2 24 2 758.4 44.8
2 24 2 675.59 39.36
-2 24 -2 669.71 40.01
2 24 -2 626.52 39.34
2 25 -2 1.68 2.52
-2 -25 -2 3.61 2.58
-2 25 2 2.62 3.48
2 -25 -2 -0.72 2.67
2 -25 2 3.02 3.28
-2 25 2 -0.99 3.69
-2 25 -2 2.61 3.35
2 -26 -2 568.86 31.15
-2 -26 -2 501.93 30.42
-2 27 2 0.85 2.31
2 0 -3 0.35 0.72
-2 0 3 1.19 1
-2 0 -3 0.1 0.26
2 0 3 2.76 4.92
2 0 3 -0.18 0.66
-2 0 -3 0.29 0.3
2 0 -3 0.65 0.67
-2 0 -3 0.3 0.68
2 0 3 0.56 0.57
-2 0 3 0.41 0.57
-2 0 3 0.86 0.54
2 0 -3 0.59 0.51
-2 0 -3 0.33 0.76
2 0 3 2.13 4.39
-2 0 3 1.17 1.35
2 0 3 1.05 1.02
2 0 -3 0.69 0.87
2 -1 -3 1.74 1.13
-2 -1 -3 0.61 0.47
2 -1 3 1.56 0.89
-2 -1 3 1.61 1.01
2 -1 3 0.77 0.41
2 -1 3 2.27 3.31
2 1 3 2.45 3.57
-2 1 -3 1.04 0.41
2 1 -3 0.91 0.81
-2 -1 -3 0.57 0.72
2 1 3 1.37 0.8
2 -1 3 -0.28 0.65
2 1 3 0.38 0.44
-2 -1 3 -0.2 0.46
2 -1 -3 1.23 0.73
-2 1 3 1.76 0.85
-2 1 -3 1.82 0.94
-2 1 3 0.8 0.62
-2 -1 -3 0.35 0.94
2 -1 -3 0.49 0.48
2 1 3 3.53 4.06
-2 -1 3 0.51 0.74
2 1 -3 0.39 0.42
-2 1 -3 0.32 0.66
2 -1 3 0.67 1.04
2 -1 -3 2.04 1.16
2 1 -3 2.43 1.29
2 -2 3 214.99 13.96
2 2 3 201.37 11.28
2 -2 3 186.11 11.37
2 -2 -3 209.74 13.83
-2 -2 3 207.14 14.14
-2 -2 3 192.73 12.19
-2 2 -3 188.38 13.17
2 2 3 206.93 13.02
-2 2 3 195.3 12.63
-2 2 3 202.98 12.3
2 2 -3 202.76 12.74
-2 -2 -3 212.49 13.2
2 -2 -3 190.94 12.28
-2 2 -3 205.01 13.46
-2 -2 3 212.25 14.64
2 -2 -3 192.84 12.16
2 2 -3 192.91 11.53
-2 -2 -3 198.77 13.74
2 2 3 201.09 21.36
2 -2 3 261 25.97
2 -2 3 228.71 13.8
-2 -2 -3 206.62 13.66
2 -2 -3 200.17 13.5
-2 2 -3 225.85 14.82
2 -3 3 78.83 7.75
2 -3 3 80.38 5.51
2 -3 -3 83.48 7.24
2 -3 3 82.71 5.55
-2 3 -3 97.06 6.97
-2 -3 3 85.85 7.65
2 3 3 83.96 6.59
2 -3 -3 83.57 6.56
-2 -3 3 78.38 5.86
2 3 -3 81.66 6.46
-2 3 3 74.79 6.32
-2 3 3 80.35 5.94
-2 -3 -3 84.78 6.69
-2 3 -3 73.48 6.74
2 -3 -3 81.75 5.99
-2 -3 -3 85.71 7.38
-2 3 -3 80.38 6.86
2 3 3 79.91 11.83
2 3 3 81.69 7.52
2 3 -3 82.02 5.2
-2 -3 3 76.31 7.23
2 -3 3 107.99 15.05
2 -3 3 91.86 7.15
-2 -3 -3 82.44 7.34
-2 3 3 82.87 7.43
2 -3 -3 84.23 7.07
-2 3 -3 72.03 7.33
-2 -3 3 85.6 5.37
2 -4 3 193.28 18.3
2 -4 3 282.77 16.06
-2 4 -3 323.46 18.07
2 -4 3 269.08 15.84
-2 -4 3 305.96 18.66
2 -4 -3 266.35 17.77
-2 -4 3 255.84 15.94
-2 -4 -3 292.29 18.03
-2 4 -3 276.65 17.66
2 -4 -3 283.97 17.21
2 4 -3 266.87 16.99
-2 -4 -3 272.54 16.95
-2 4 3 264.78 16.17
2 4 3 291.32 17.07
2 -4 -3 264.63 16.12
-2 -4 -3 287.44 18.12
-2 4 -3 295.99 17.48
-2 -4 3 290.41 17.8
2 4 3 320.1 25.26
-2 4 3 284.01 18.26
2 4 3 275.01 18.26
2 -4 3 308.84 26.89
2 -4 3 300.59 17.57
-2 -4 -3 303.66 18.52
2 -4 -3 261.85 17.36
-2 4 -3 278.53 18.44
2 4 3 297.53 17.66
-2 4 -3 252.5 15.16
-2 -5 3 2.61 1.27
2 -5 3 2.96 0.85
2 -5 3 1.61 1.46
2 -5 -3 1.89 1.1
2 -5 3 1.76 0.79
-2 -5 -3 1.3 0.36
2 -5 3 3.25 0.9
-2 -5 3 1.18 0.81
2 5 3 5.64 3.84
2 -5 3 2.77 2.86
-2 5 -3 0.85 0.88
-2 5 3 3.31 0.92
2 5 3 1.69 0.87
-2 5 3 1.75 1.35
-2 -5 -3 2.99 1.22
-2 5 -3 1.88 1.23
2 -5 -3 0.99 0.77
2 5 -3 2.71 1.12
-2 -5 -3 1.39 0.87
2 5 3 2.17 2.24
-2 5 -3 2.09 1.11
-2 -5 3 2.33 0.52
-2 -5 3 0.95 0.93
-2 -5 -3 4.82 1.6
2 -5 3 2.34 2.42
2 -5 3 0.78 0.81
-2 5 -3 2.73 1.48
2 -5 -3 3.04 1.39
2 5 3 0.68 1.17
2 5 3 2.23 1.3
2 -5 3 3.03 1.21
-2 -5 -3 2.36 1.46
-2 5 3 2.54 1.31
-2 5 -3 2.34 0.68
2 -6 3 25.36 2.71
-2 -6 3 24.21 3.6
2 6 3 33.83 7.33
2 -6 3 28.99 4.38
2 -6 3 37.56 7.77
-2 -6 -3 27.95 2.23
2 -6 3 23.42 2.68
-2 -6 3 28.82 4.04
-2 6 -3 24.66 4.21
2 -6 3 32.13 3.49
-2 6 3 23.74 3.53
2 -6 -3 25.39 3.53
2 6 -3 26.5 3.52
-2 -6 -3 20.48 2.97
2 6 -3 23.16 2.45
2 6 3 24.01 3.08
-2 6 3 22.03 2.66
-2 6 -3 27.74 3.82
-2 -6 -3 25.44 3.52
2 -6 3 33.97 6.89
2 6 3 25.55 5.82
-2 -6 3 21.81 3.05
-2 -6 3 24.29 2.05
-2 -6 -3 24.62 4.14
-2 6 -3 23.61 3.15
2 -6 3 21.96 3.44
-2 -6 -3 31.58 4.14
2 -6 3 29.68 3.54
-2 -6 -3 31.67 4.64
-2 6 3 30.82 6.96
2 -6 -3 22.05 3.24
2 6 3 26.56 3.67
-2 6 -3 30.78 4.35
-2 6 -3 24.7 2.52
-2 6 3 24.66 3.8
2 -7 3 125.46 10.19
2 -7 3 108.07 7.95
-2 -7 3 122.61 9.7
2 -7 3 112.09 9
-2 7 -3 96.18 10.37
-2 -7 3 113.46 9.73
-2 -7 -3 121.33 7.45
2 7 -3 105.8 9.01
2 7 -3 114 7.63
-2 7 3 115.74 8.99
2 -7 -3 117.61 9.42
-2 -7 -3 103.29 8.37
-2 -7 -3 106.33 8.85
2 7 3 109.65 8.44
-2 7 -3 98.25 9.11
-2 7 3 116.62 7.99
-2 -7 3 105.1 7
-2 -7 -3 121.42 10.05
2 -7 3 131.49 9.77
-2 7 -3 118.29 8.67
2 7 3 103.05 12.49
2 -7 3 102.81 12.8
-2 -7 -3 116.74 9.84
-2 -7 3 114.59 16.23
2 -7 3 132.93 10.46
2 7 3 125.14 9.49
-2 -7 3 146.44 15.3
-2 7 3 110.29 13.49
2 -7 3 125 8.88
2 7 3 120.99 14.4
-2 -7 -3 131.78 11.21
2 -7 3 120.34 14.46
-2 7 -3 99.22 7.61
2 -7 -3 118.6 8.92
-2 7 3 122.17 9.93
-2 7 -3 116.54 9.89
-2 -8 -3 14.74 2.14
2 -8 3 14.84 2.96
2 -8 3 13.13 2.84
-2 -8 3 18.51 3.21
2 -8 3 11.77 4.6
2 -8 3 12.76 2.18
2 8 3 15.16 4.87
-2 -8 3 13.64 3.03
-2 8 -3 15.84 3.61
2 8 3 17.5 2.65
-2 -8 -3 18.12 2.94
-2 8 3 13.2 2.07
2 8 -3 13.69 2.02
-2 8 -3 13.81 1.93
2 -8 -3 21.33 3.63
-2 8 3 18.97 2.93
-2 8 3 14.89 2.84
2 8 -3 18.03 3.09
-2 -8 3 13.72 1.77
2 -8 3 15.92 4.65
2 8 3 11.19 3.92
-2 -8 -3 17.13 3.38
-2 -8 -3 17.01 3.14
-2 8 3 10.54 4.96
-2 -8 3 14.45 5.54
2 -8 3 13.02 2.72
2 8 3 17.55 3
-2 -8 3 17.87 5.2
-2 8 3 29.86 6.39
-2 8 -3 16.65 2.34
2 -8 3 17.79 2.73
2 -8 3 17.12 3.29
-2 8 3 16.31 3.22
2 -8 -3 14.74 2.55
2 -9 3 -1.13 1.65
-2 -9 -3 0.28 0.71
2 -9 3 -0.55 1.27
-2 -9 3 0.46 1.17
2 9 3 4.49 2.58
2 -9 3 -0.46 1.35
2 -9 3 0.62 0.71
-2 -9 3 0.52 0.93
-2 9 -3 1.1 1.14
-2 -9 -3 -0.78 0.98
2 9 3 0.98 0.96
-2 9 -3 0.39 0.5
2 9 -3 -0.24 0.7
-2 9 3 1.28 0.75
2 9 -3 0.4 1.08
2 -9 -3 -0.53 0.94
-2 9 3 -0.35 0.89
2 9 -3 0.91 1.15
-2 9 3 1.68 1.3
2 -9 3 2.88 2.61
2 -9 3 1.38 1.16
-2 -9 -3 -0.47 0.68
-2 -9 3 -1.54 2.75
-2 9 3 -1.44 3.63
2 9 3 0.9 1.85
-2 -9 -3 -0.51 0.91
-2 -9 3 -0.18 0.53
2 -9 -3 -0.36 1.16
2 9 3 0.4 0.72
2 -9 3 0.53 0.94
-2 -9 3 1.07 1.92
2 -9 3 0.97 0.99
-2 9 3 -1.06 2.19
-2 9 3 2.54 1.28
-2 9 -3 0.57 0.93
2 -10 3 11.54 3.28
-2 -10 -3 12.8 2.57
-2 -10 3 19.68 3.5
2 10 3 21.7 5.56
2 -10 3 16.37 4.74
2 10 -3 24.23 3.55
-2 -10 3 21.05 3.55
2 -10 3 14.89 3.15
-2 -10 3 22.46 4.04
-2 10 -3 18.64 3.73
2 10 -3 17.95 2.69
-2 10 3 21.13 3.69
2 -10 -3 21.67 4.04
-2 10 -3 19.07 2.38
2 10 3 27.39 3.49
-2 10 3 18.58 3.01
2 10 -3 25.82 4.13
-2 10 3 18.73 2.7
-2 -10 -3 21.89 3.38
2 -10 3 9.18 3.67
2 10 3 16.4 4.37
-2 -10 -3 18.3 3.28
2 -10 3 22.01 3.8
-2 10 3 19.33 6.11
-2 -10 3 13.32 5.37
-2 -10 3 20.98 2.53
2 -10 -3 18.04 3.05
-2 -10 3 12.4 4.24
2 10 3 23.07 3.62
2 -10 3 17.59 2.93
-2 10 -3 23.57 3.31
-2 10 3 22.43 5.44
-2 10 3 19.54 3.67
2 -10 3 22.42 4.04
2 -11 3 1.67 1.55
-2 -11 -3 5.67 1.86
-2 -11 3 6.28 2.18
2 11 3 13.63 4.33
2 -11 3 8.41 3.44
-2 -11 3 8.95 2.43
-2 -11 3 7.27 2.36
-2 11 -3 5.22 2.18
2 11 3 6.79 1.94
2 11 -3 6.12 1.92
2 11 3 10.11 2.65
-2 11 3 7.89 1.84
-2 11 3 8.41 2.56
2 11 -3 6.75 2.02
-2 11 3 9.49 2.22
2 11 -3 5.3 2.29
-2 11 -3 9.32 1.61
-2 -11 -3 7.54 2.05
2 -11 -3 5.45 2.45
2 -11 3 6.19 2.75
-2 -11 -3 6.07 2.07
2 -11 3 7.34 2.32
-2 -11 3 8.57 4.66
-2 11 3 9.26 4.32
-2 -11 3 7.04 1.58
2 11 3 9.89 3.62
2 -11 -3 9.99 2.46
2 -11 3 3.79 1.7
2 11 3 6.09 2.18
-2 -11 -3 9.69 3.64
2 11 -3 7.5 1.5
-2 -11 3 3.97 2.73
-2 11 3 13.7 4.41
-2 11 3 6.44 2.44
-2 11 -3 6.96 2.13
2 -11 3 4.19 2.07
2 -12 3 629.89 39.04
2 12 -3 678.74 38.47
-2 -12 -3 607.52 37.41
-2 -12 3 764.33 41.53
-2 12 -3 658.5 39.15
-2 12 3 679.37 37.84
-2 -12 -3 665.36 38.45
2 12 -3 715.61 38.36
2 12 3 729.8 38.51
-2 12 3 611.65 37.5
-2 12 -3 675.63 36.24
-2 -12 -3 536.28 37.91
2 -12 3 721.64 40.09
-2 -12 3 668.37 37.02
-2 -12 3 677.9 46.79
-2 12 3 634.47 45.17
2 12 3 620.1 41.1
2 -12 3 580.51 41.2
-2 -12 3 650.55 42.89
-2 12 3 616.39 42.38
2 12 -3 653.21 35.99
-2 -12 -3 632.58 41.33
2 -12 3 578.26 36.24
2 12 3 622.11 43.04
-2 12 3 716.02 40.61
-2 12 -3 720.42 39.66
2 12 3 663.25 38.6
2 -12 3 608.05 43
2 -13 3 17.1 3.62
2 13 3 20.52 5.01
-2 -13 -3 19.35 3.21
2 -13 3 16.62 4.81
2 -13 -3 19.9 2.95
-2 13 -3 21.74 3.77
-2 -13 3 23.23 4.64
2 13 -3 14.38 3.17
2 13 -3 16.27 3.27
-2 13 3 16.8 3.08
-2 13 -3 20.21 2.64
-2 13 3 19.94 3.24
-2 -13 -3 19.13 3.46
2 13 3 18.39 3.34
2 13 3 11.26 3.57
-2 13 -3 6.79 3.8
-2 -13 -3 18.42 5.43
-2 -13 3 19.87 5.7
-2 13 3 13.28 5.06
-2 -13 3 13.99 2.74
2 -13 3 26.16 5.53
2 -13 3 22.19 4.21
2 13 3 18.03 3.5
-2 -13 -3 14.3 3.98
2 13 -3 19.16 2.42
2 -13 3 20.72 2.52
-2 13 -3 23.99 4.52
-2 -13 -3 15.26 4.53
-2 13 -3 17.43 4.49
-2 -13 3 15.67 4.44
-2 13 3 7.24 3.35
-2 13 3 18.17 4.23
-2 -14 3 136.56 12.97
2 14 -3 146.2 11.05
-2 -14 -3 136.24 10.08
-2 -14 -3 137.48 11.17
2 14 -3 98.24 10.34
2 14 3 156.37 11.22
-2 14 3 125.89 10.54
-2 14 -3 113.21 8.8
2 14 3 108.99 11.4
-2 -14 3 113.95 14.52
-2 14 -3 100.44 13.03
-2 -14 3 129.82 10.27
2 -14 3 116.79 11.78
-2 -14 -3 112.43 13.45
2 -14 3 114.97 12.13
-2 14 3 106.66 13.63
2 -14 3 119.57 12.97
2 14 3 121.92 13.12
2 14 -3 127.09 8.61
-2 -14 3 128.59 13.2
-2 14 3 116.65 12.57
-2 14 -3 98.78 11.45
2 -14 3 125.56 7.94
-2 -14 -3 137.96 12.43
-2 -14 -3 100.54 12
-2 14 -3 115.13 12.24
-2 14 3 143.5 12.97
2 14 3 135.45 10.95
2 15 -3 1.58 1.33
-2 -15 -3 1.97 1.52
2 15 3 -0.89 2.89
2 -15 3 1.75 2.39
-2 -15 3 3.65 2.49
2 15 -3 3.26 2.23
-2 15 3 3.65 1.61
-2 15 -3 1.34 1.24
-2 -15 -3 0.55 1.27
2 15 -3 0.52 1.08
2 15 3 1.59 1.45
2 -15 3 1.48 1.7
-2 -15 3 3.62 3.04
-2 15 -3 6.26 3.4
2 -15 3 3.74 1.89
-2 -15 -3 2.96 2.69
-2 15 3 6.47 3.33
2 15 3 1.98 1.93
-2 -15 3 -0.85 1.52
2 15 3 1.03 1.3
-2 -15 -3 1.62 2.5
2 -15 3 2.66 0.76
-2 15 -3 1.55 1.96
-2 15 -3 2.39 2.46
-2 15 3 1.74 2.2
-2 -15 -3 4.8 2
-2 15 3 -0.83 2.71
2 16 -3 122.12 10.14
-2 -16 3 138.7 14.29
2 16 -3 114.96 10.08
-2 -16 -3 109.42 8.61
-2 16 -3 111.58 8.57
-2 -16 3 100.28 8.3
-2 -16 -3 98.18 9.87
2 -16 -3 136.08 12.13
-2 16 3 125.26 10.6
-2 16 -3 92.31 11.7
-2 16 3 69.74 10.83
-2 -16 -3 102.9 11.66
-2 -16 3 103.22 12.64
-2 16 3 97.49 11.73
2 -16 3 131.54 12.59
2 -16 3 96.6 10.19
2 16 3 109.51 9.7
2 -16 3 68.52 5.15
2 16 3 124.83 11.77
-2 -16 -3 146.45 11.51
-2 -16 3 94.16 10.55
-2 16 3 76.06 9.76
-2 16 -3 107.01 10.56
-2 -16 -3 104.62 10.87
-2 16 3 131.79 13.31
-2 16 -3 116.25 11.09
2 -16 -3 77.48 9.24
2 17 -3 58.93 7.12
2 17 -3 47.95 6.67
-2 -17 3 53.07 9.11
-2 -17 3 51.54 5.24
-2 17 -3 31.74 5.02
-2 -17 -3 53.24 7.15
2 -17 -3 55.86 7.46
-2 17 3 56.24 7.52
-2 -17 -3 53.47 8.72
-2 -17 3 40.23 7.6
-2 17 -3 45.87 7.53
2 -17 3 55.18 8.26
-2 17 3 31.65 6.99
-2 17 3 42.65 7.22
2 -17 -3 47.11 6.02
-2 -17 -3 42.22 6.33
-2 -17 3 45.46 6.86
-2 -17 -3 47.47 6.59
-2 17 3 37.59 6.35
-2 17 -3 51.63 7.18
2 17 3 48.17 6.25
-2 17 3 54.86 8.98
2 18 -3 13.49 3.74
2 18 -3 10.08 3.21
-2 -18 3 21.05 6.48
2 18 -3 10.16 3.36
-2 -18 3 10.78 2.25
-2 18 3 11.43 3.6
-2 -18 -3 10.58 4.25
2 -18 -3 14.75 3.95
-2 -18 -3 12.2 3.87
-2 18 3 6.19 3.4
-2 18 3 4.59 2.99
2 -18 3 15.19 5.02
-2 -18 3 6.29 3.37
-2 18 -3 6.54 3.08
2 -18 -3 3.49 2.21
2 18 3 13.5 3.38
-2 -18 -3 10.89 3.13
-2 -18 3 12.98 3.51
-2 18 3 9.11 3.18
-2 -18 -3 13.21 3.28
-2 18 3 15.81 5.45
-2 18 -3 11.83 3.69
2 19 -3 1.75 2.02
-2 -19 3 1.62 3.34
-2 19 3 0.95 1.69
2 -19 -3 0.77 1.93
-2 -19 -3 -0.98 2.26
-2 -19 3 0.59 1.01
-2 -19 -3 0.94 2.16
2 -19 3 1.23 2.83
-2 19 3 1.04 1.07
2 19 3 -0.64 1.6
-2 -19 -3 1.26 1.95
-2 19 3 3.04 3.5
-2 19 -3 0.74 2.01
-2 -20 3 149.4 20.1
2 20 -3 134.18 15.23
-2 -20 -3 196.51 16.81
-2 -20 3 174.17 11.49
2 -20 -3 189.9 15.48
-2 20 3 108.01 14.75
2 -20 3 92.45 15.5
-2 20 3 160.76 16.7
-2 -20 -3 180.21 14.26
-2 20 -3 205.29 15.89
-2 20 3 166.79 20.29
2 20 3 190.48 14.81
2 21 -3 12.74 4.31
-2 -21 3 8.01 4.98
-2 21 3 9.08 3.79
-2 -21 3 12.41 2.48
2 -21 -3 8.37 3.18
-2 -21 -3 8.87 3.7
2 -21 3 9.12 4.48
-2 21 3 8.47 3.66
2 21 3 19.67 4.43
-2 21 3 8.19 5.09
-2 -21 -3 13.05 3.43
-2 21 -3 9.01 3.42
-2 -22 3 337.38 28.86
2 22 -3 278.47 22.42
-2 22 3 236.68 22.62
2 -22 -3 284.14 21.77
-2 -22 -3 309.88 23.13
2 -22 3 255.47 24.7
-2 22 3 251.13 23.39
-2 -22 -3 290.45 20.69
-2 22 -3 302.04 22.24
-2 22 3 358.29 29.19
2 22 3 289.95 21.64
2 22 -3 287.12 23.44
-2 -23 3 -1.41 3.55
2 23 -3 4.48 2.32
-2 -23 -3 8.18 3.27
-2 23 3 0.9 2.07
2 -23 -3 6.87 3.05
2 -23 3 6.93 3.76
-2 23 3 3.21 2.71
2 23 3 5.31 3.13
2 23 -3 3.67 2.99
-2 23 3 5.73 4.43
-2 23 -3 2.34 2.67
-2 -24 3 197.35 20.11
2 24 -3 126.66 14.24
2 -24 -3 201.88 16.14
-2 24 3 138.89 15.78
-2 -24 -3 191.49 16.05
-2 24 3 73.45 14.83
2 -24 3 196.54 18.89
-2 24 3 231.03 20.88
-2 24 -3 160.26 15.47
2 24 3 175.43 15.81
2 24 -3 205.13 17.01
2 25 -3 -0.66 2.27
-2 25 3 5.79 2.83
-2 -25 -3 1.56 1.97
2 -25 3 1.08 2.23
-2 25 3 -1.08 2.95
-2 25 -3 0.81 2.51
-2 26 3 33.45 8.99
-2 0 -4 4984.37 266.84
2 0 4 4970.85 266.55
-2 0 -4 5224.22 266.71
-2 0 4 5294.84 270.27
-2 0 -4 5184.02 268.22
2 0 -4 5275.69 267.17
-2 0 4 5401.93 267.67
2 0 4 3038.03 280.6
2 0 4 5601.87 270
-2 0 -4 5255.09 268.88
-2 0 4 3346.01 297.13
-2 0 4 4643.4 270.98
2 0 -4 5042.99 266.17
2 0 -4 5250.39 268.94
-2 0 4 2928.49 285.57
2 0 4 5511.8 270.74
-2 0 -4 5194.22 268.51
2 0 4 4710.19 294.94
-2 -1 -4 4.62 1.22
-2 1 -4 5.59 1.81
-2 -1 4 3.97 2
-2 1 -4 6.97 1.4
2 1 4 5.74 8.87
2 -1 4 42.58 15.26
-2 1 -4 6.63 1.31
2 1 -4 3.22 1.1
2 -1 -4 6.1 1.33
-2 -1 -4 3.04 1.28
2 1 4 5.09 1.54
-2 -1 4 5.43 1.69
-2 1 -4 7.17 1.86
-2 1 4 6.09 1.8
2 -1 4 10.99 1.97
2 1 -4 4.99 0.91
2 -1 4 8.42 2.39
-2 1 4 9.92 3.58
2 -1 4 42.19 15.75
2 1 4 4.29 6.25
2 -1 -4 4.92 1.1
-2 -1 4 5.33 3.18
-2 -1 -4 6.17 1.96
-2 1 4 -3.76 10.23
-2 -1 4 -4.1 8.44
-2 1 -4 6.08 1.97
2 -1 4 7.94 3.4
-2 -1 -4 3.38 1.57
-2 -1 4 -2.88 6.64
-2 1 4 2.79 7.6
2 1 -4 7.34 2.05
2 -1 -4 8.29 2.28
-2 1 -4 14.47 3.41
-2 2 -4 1057.13 53.25
-2 2 -4 1249.68 55.83
2 -2 4 1057.52 54.23
-2 -2 -4 984.68 53.79
-2 -2 4 1055.97 56.97
-2 -2 4 1040.9 54.04
2 2 -4 1017.45 54.25
2 -2 -4 979.81 54.45
-2 2 4 913.88 52.32
-2 2 4 1051.84 54.94
-2 -2 -4 1073.32 54.9
2 -2 -4 975.12 53.53
-2 2 -4 988.08 55.11
2 2 4 1099.14 54.82
2 -2 4 1108.72 56.58
-2 -2 -4 1058.69 56.01
-2 2 -4 1089.33 55.6
-2 -2 4 938.17 56.79
-2 2 4 1214.42 60.98
-2 -2 4 1156.87 84.73
2 2 4 1030.76 69.17
2 2 -4 882.6 52.2
-2 2 -4 1081.8 57.31
-2 2 4 1152.6 75.76
2 -2 4 1109.23 57.31
-2 -2 -4 1077.77 56.2
2 2 -4 1044.05 55.82
2 2 4 958.47 52.19
2 -2 -4 1016.94 55.5
2 -2 4 1181.87 75.97
2 -3 4 0.83 0.67
-2 3 -4 0.85 1.07
-2 -3 -4 1.13 0.74
-2 -3 4 1.02 0.91
2 3 -4 0.45 0.79
2 -3 4 1.35 0.67
-2 -3 -4 1.16 0.79
2 -3 -4 1.02 0.61
-2 3 -4 1.44 0.98
2 -3 -4 1.82 0.94
-2 -3 -4 1.27 1.07
-2 3 4 1.29 0.99
2 3 4 0.84 0.76
2 -3 4 0.86 1.02
-2 -3 4 0.61 0.7
-2 3 4 0.51 0.52
-2 3 4 1.18 0.6
2 3 -4 1.58 0.81
2 3 4 1.62 2.36
2 -3 4 1.33 1.12
-2 -3 -4 -0.42 1.06
-2 3 -4 0.35 0.72
-2 3 4 0.9 1.61
-2 -3 4 2.92 4.25
-2 -3 4 1 1.26
2 -3 4 0.49 1.35
-2 3 4 2.01 4.13
-2 -3 -4 0.46 0.95
2 -3 -4 1.84 1.14
-2 3 -4 1.05 1.08
2 3 4 0.91 0.46
-2 4 -4 68.68 7.42
2 -4 4 79.64 6.64
2 -4 4 67.44 12.78
-2 -4 4 58.67 6.85
2 -4 4 62.48 5.34
2 -4 4 65.47 5.14
2 4 -4 64.16 6.63
-2 4 4 66.4 6.18
2 4 4 65.41 5.67
-2 4 -4 57.11 6.06
2 -4 -4 61.94 5.95
-2 4 4 72.35 5.1
2 4 -4 62.2 5.74
-2 -4 -4 63.86 5.74
-2 -4 -4 64.24 6.49
2 -4 -4 58.94 4.76
-2 -4 4 72.83 5.27
-2 4 4 66.82 4.88
-2 -4 -4 63.18 6.66
2 -4 4 63.03 6.55
-2 -4 4 65.71 6.89
2 4 4 71.41 12.03
-2 4 4 85.38 10.84
-2 4 -4 76.84 6.47
-2 -4 4 82.41 16.28
-2 4 4 82.07 16.09
2 -4 4 73.85 7.44
-2 -4 -4 59.2 6.81
2 -4 -4 71.99 6.45
-2 -4 4 62.32 4.84
-2 4 4 71.01 12.73
2 4 4 68.84 4.86
-2 4 -4 74.54 7.51
-2 5 -4 24.55 4.87
2 5 4 29.06 8.04
2 -5 4 42.1 4.89
-2 -5 -4 33.88 2.45
2 -5 4 40.29 9.45
-2 -5 4 30.77 4.61
2 -5 4 29.95 3.37
2 -5 4 30.8 3.23
2 5 -4 31.93 4.36
-2 -5 -4 30.28 3.54
2 5 -4 32.07 3.9
-2 5 4 34.66 3.56
2 -5 -4 32.71 4.08
-2 -5 4 30.38 3.05
-2 5 4 32.12 2.91
-2 -5 -4 35.64 4.37
2 5 4 33.95 3.68
-2 5 -4 33.36 4.3
-2 5 4 35.42 4.33
2 -5 4 35.96 8.01
2 5 4 41.36 8.52
-2 -5 -4 25.81 4.12
2 -5 4 35.03 4.5
-2 5 -4 29.59 3.76
-2 -5 -4 40.57 5.53
-2 5 4 28.52 9.18
-2 -5 4 35.16 4.65
-2 5 4 42.77 8.22
-2 -5 4 53.55 12.33
-2 -5 -4 33.18 4.96
2 -5 4 26.87 4.4
-2 5 -4 28.69 2.25
-2 -5 4 29.42 7.7
-2 5 4 30.53 7.93
2 5 4 28.98 3.16
-2 5 -4 32.25 4.75
2 -5 -4 37.2 4.32
-2 -5 4 29.59 3.07
2 -6 4 10.48 1.92
-2 -6 4 7.76 2.4
2 -6 4 14.14 5.85
-2 6 -4 8.9 2.77
2 -6 4 11.29 1.97
2 -6 4 8.81 1.79
-2 -6 -4 15.91 1.74
-2 -6 4 8.17 2.21
2 6 -4 12.23 2.68
2 6 4 11.1 4.64
2 6 4 11.76 2.06
-2 -6 -4 9.38 2.15
-2 6 -4 11.75 2.58
-2 -6 4 10.21 1.56
2 -6 -4 9.1 2.22
2 -6 4 15.8 3.23
-2 6 4 6.9 1.85
-2 6 4 8.54 2.19
2 6 -4 8.32 1.98
-2 -6 -4 11.84 2.09
-2 6 4 6.53 1.26
2 -6 4 9.28 4.95
-2 6 -4 12.21 2.2
2 -6 4 8.05 2.21
-2 -6 4 5.49 1.96
-2 -6 -4 10.01 2.82
-2 6 4 8.1 5.13
-2 -6 -4 8.81 2.29
-2 6 4 18.69 5.75
-2 -6 4 12.9 6.28
2 6 4 13.66 4.81
-2 -6 4 7.52 1.65
2 6 4 7.47 1.79
-2 6 -4 8.18 2.56
2 -6 4 9.3 2.54
-2 6 -4 9.04 1.25
-2 -6 4 4.53 3.51
-2 6 4 11.93 4.88
-2 -6 -4 7.28 2.59
2 -6 -4 9.01 2.14
-2 -7 4 1.68 1.41
-2 -7 -4 -0.6 0.75
2 -7 -4 -0.47 0.84
-2 7 -4 -0.56 1.73
2 -7 4 -0.29 0.79
2 7 4 1.49 2.66
2 -7 4 0.54 0.56
2 7 -4 0.89 0.92
-2 -7 4 0.49 1.01
2 -7 4 1.49 3.07
2 -7 4 -0.29 0.78
2 -7 4 -0.6 1.76
-2 7 4 -1.34 1.65
-2 -7 -4 -0.41 0.94
2 7 4 -0.3 0.75
2 7 -4 0.14 0.53
-2 7 -4 0.47 0.68
-2 -7 4 0.33 0.59
2 -7 -4 0.46 0.67
-2 7 4 -0.17 0.46
-2 7 4 -0.42 1.23
2 7 -4 0.77 1.05
-2 -7 -4 -0.29 0.72
-2 -7 -4 0.58 1.33
2 7 4 -1.17 3.19
2 -7 4 1.24 2.56
-2 7 -4 0.32 0.86
2 -7 4 1.81 1.4
-2 -7 4 -2.02 2.08
-2 7 4 -1.69 1.74
-2 7 4 1.9 3.39
-2 -7 -4 0.98 1.23
2 7 4 -0.76 1.17
-2 -7 4 0.29 0.85
-2 7 -4 0.56 1.16
-2 -7 -4 -0.75 2.05
2 -7 4 -0.51 1.58
-2 -7 4 1.42 2.92
-2 7 4 -1.4 2.5
-2 7 -4 0.31 0.64
2 -7 -4 0.37 0.94
2 -8 4 1833.27 96.25
2 -8 4 1782.24 96.02
-2 -8 4 1856.85 98.5
2 -8 4 1186.84 97.93
-2 -8 -4 1533.81 94.95
2 -8 4 1873.76 96.62
-2 -8 4 1924.13 99.24
-2 8 -4 1855.13 98.95
2 8 -4 1854.47 97.63
2 8 -4 1940.37 97.92
-2 8 -4 1866.93 94.9
-2 -8 4 1823.1 94.71
2 8 -4 1701.7 94.65
2 -8 -4 2086.97 99.2
-2 8 4 1801.6 94.85
2 8 4 1957.73 96.41
-2 8 -4 1838.26 98.5
-2 -8 -4 1894.05 97.48
-2 -8 -4 1854.43 98.75
2 -8 4 1946.5 98.16
-2 -8 4 1850.18 112.76
-2 -8 -4 1878.05 99.21
-2 8 4 1402.43 107.23
-2 8 4 1846.3 111.51
-2 8 -4 1933.3 96.65
2 8 4 1850.12 104.78
2 -8 4 1811.45 104.9
2 -8 4 1702.27 96.84
-2 -8 4 1876.45 107.48
-2 8 4 1827.34 106.72
-2 -8 -4 1875.9 102.04
2 -8 4 1881.03 99.25
2 8 4 1864.86 107.81
2 -8 -4 1868.33 97.03
2 8 4 1821.87 98.28
2 -8 4 1808.1 107.74
-2 8 -4 1899.65 95.15
-2 -8 4 2031.39 96.95
-2 -9 -4 9.95 1.89
-2 9 -4 13.86 3.37
2 -9 4 11.22 2.55
2 9 -4 9.48 2.54
2 -9 4 10.66 2.22
2 -9 4 4.11 3.76
-2 -9 4 5.78 2.27
2 9 4 8.15 4.44
2 -9 4 10.46 2.31
-2 -9 4 13.18 3.24
-2 -9 -4 10.61 2.59
2 9 4 8.25 2.11
-2 9 4 10.64 1.7
2 9 -4 10.21 1.78
-2 -9 4 9.5 1.57
-2 9 -4 10.08 1.63
2 -9 4 10.06 3.74
2 -9 -4 7.09 2.69
2 9 -4 13.48 3.01
-2 9 4 6.3 2.48
2 9 4 8.52 4.54
2 -9 4 15.82 5.35
-2 -9 -4 14.9 3.37
-2 -9 4 12.89 6.3
-2 -9 -4 1.47 3.41
2 -9 4 10.15 2.58
-2 9 -4 6.17 4.23
-2 9 4 5.14 3.56
-2 -9 -4 7.69 2.97
-2 -9 4 6.26 0.8
2 -9 -4 10 2.45
2 9 4 8.12 3.18
2 -9 4 4.08 2.16
-2 -9 4 9.03 4.62
-2 9 4 11.44 4.55
2 -9 4 7.16 2.71
-2 9 -4 8.56 1.92
2 -10 4 3072.65 158.94
-2 -10 -4 3138.65 157.86
2 -10 4 3045.26 161.9
-2 10 -4 3171.68 161.13
-2 -10 4 3231.17 162.22
2 -10 4 3116.97 159.29
2 -10 4 3509.5 160.91
-2 10 -4 3160.25 157.03
2 -10 -4 3490.07 163.28
2 10 -4 3514.5 162
-2 10 4 3046.03 160.06
2 10 -4 3123.15 157.81
2 10 4 3336.3 158.95
-2 10 4 3110.98 157.48
-2 -10 -4 3101.49 159.81
-2 -10 4 2337.47 155.89
2 -10 4 3187.27 160.74
-2 -10 -4 3404.19 161.84
-2 -10 -4 2678.2 168.56
-2 10 -4 2731.39 169.27
-2 -10 4 3154.76 174.06
-2 10 4 2911.93 171.58
2 -10 4 2981.46 166.41
2 10 4 2975.31 165.78
2 10 4 2997.19 168.66
2 -10 4 3134.86 157.81
-2 -10 4 2912.54 167.7
-2 10 4 2923.61 167.36
-2 -10 -4 2654.23 166.02
-2 10 -4 3444.85 159.07
2 10 4 2295.37 160.55
-2 10 -4 2775.98 166.54
2 -10 4 2963.55 168.6
-2 11 -4 1.58 1.63
-2 -11 -4 -0.54 1.09
2 -11 4 1.15 1.56
2 11 4 -1.27 2.61
2 -11 4 1.28 2.94
2 -11 4 0.43 1.18
-2 -11 4 -0.67 1.69
2 11 4 -0.36 1.16
2 11 -4 0.93 1.06
2 -11 -4 1.53 2.49
-2 11 4 -0.99 0.98
-2 11 -4 0.56 0.72
-2 11 4 -0.45 1.41
-2 -11 -4 1.36 1.4
2 11 4 0.99 2.49
2 -11 4 -1.05 3.6
-2 -11 4 -0.46 0.82
2 -11 4 0.54 1.36
-2 -11 4 5.15 4.67
-2 11 4 3.16 3.25
-2 -11 -4 -1.38 3.76
-2 11 -4 1.44 3.31
-2 -11 -4 0.58 1.33
2 11 4 -0.63 1.82
-2 11 -4 1.11 3.23
-2 -11 4 1.21 2.15
-2 -11 -4 -2.26 3.49
-2 11 4 2.37 2.44
-2 11 -4 -0.42 1.56
2 12 -4 998.72 55.53
-2 -12 -4 1005.57 53.36
2 -12 4 1100.83 55.88
2 -12 4 878.37 56.67
-2 -12 4 1012.85 57.75
-2 12 -4 1046.71 56.22
2 -12 -4 964.44 58.75
-2 12 4 1021.85 55.17
-2 -12 -4 1022.18 55.45
2 12 -4 1021.7 54.32
2 12 4 1083.16 54.5
-2 12 -4 983.8 52.29
-2 12 4 969.83 53.05
-2 -12 4 971.9 66.02
2 -12 4 1042.43 56.56
-2 -12 -4 894.9 55.77
-2 12 4 1035.61 63.05
2 -12 4 878.09 59.55
-2 -12 -4 879.62 62.2
-2 12 4 887.21 63.47
2 12 4 836.18 58.44
-2 -12 4 839.67 51.99
-2 12 -4 843.52 62.09
2 -12 4 847.64 60.93
-2 -12 -4 918.93 58.5
-2 -12 4 950.82 61.35
-2 12 4 924.88 60.97
2 12 -4 1015.46 52.18
-2 -12 -4 850.38 59.73
-2 12 -4 857.79 59.61
-2 12 -4 1019.64 55.84
2 12 4 1057.42 57.14
2 12 4 904.69 61.33
-2 13 -4 -0.53 1.46
-2 -13 -4 0.61 0.89
2 13 4 1.18 2.1
2 -13 4 1.19 2.74
2 -13 4 0.56 1.28
-2 -13 4 0.78 1.79
2 -13 -4 1.94 2.23
2 13 4 0.81 1.32
2 13 -4 1.36 1.4
-2 13 4 0.31 0.84
2 13 -4 -0.52 1.32
-2 13 -4 -0.21 0.7
-2 -13 -4 -0.51 1.17
-2 13 4 -0.45 1.39
2 -13 4 0.98 2.02
2 13 4 -0.91 1.87
-2 -13 4 3.23 3.71
2 -13 4 0.62 1.1
-2 -13 -4 1.3 3.28
-2 13 4 1.47 2.61
-2 13 4 3.57 3.24
-2 -13 -4 1.18 1.21
-2 -13 4 -0.25 0.82
-2 13 -4 -2.7 3.11
-2 -13 4 -1.14 2.03
-2 13 -4 0.64 1.86
-2 13 4 -1.12 2
2 13 4 -0.61 1.66
-2 -13 -4 1.64 2.07
-2 13 -4 2.03 2.57
-2 -13 -4 -1.05 2.16
2 13 -4 0.92 0.73
-2 14 -4 23.78 4.17
2 -14 4 24.19 6.06
2 14 4 20.42 5.62
-2 -14 -4 21.79 3.16
2 -14 4 33.45 5.28
-2 -14 4 21.18 4.94
2 14 4 25.59 3.9
2 14 -4 24.06 4.28
-2 -14 4 23.95 3.06
-2 14 4 25.75 3.58
2 -14 -4 20.57 5.25
2 14 -4 29.6 4.62
-2 -14 -4 22.43 4.01
-2 14 -4 29.11 3.17
-2 -14 -4 18.85 6.2
-2 14 -4 31.44 7.25
2 -14 4 32.11 5.17
-2 14 4 21.12 6.45
-2 -14 4 19.97 3.1
2 14 4 26.93 5.59
-2 -14 4 32.79 8.14
-2 14 4 20.94 5.76
2 -14 4 25.52 5.97
-2 14 -4 19.26 4.5
2 14 4 27.2 4.72
-2 -14 4 26.64 6.28
-2 14 4 31.66 6.68
2 14 -4 24.04 2.62
-2 -14 -4 21.09 5.52
-2 14 -4 18.41 4.95
-2 -14 -4 33.68 5.79
-2 -15 -4 7.39 1.91
2 15 4 7.64 3.58
2 -15 -4 7.13 3.21
2 -15 4 7.47 2.91
-2 -15 4 13.02 4.08
-2 15 -4 10.98 2.74
2 15 4 13.55 2.85
2 15 -4 6.23 2.44
-2 15 4 6.81 1.98
-2 -15 4 8.36 1.65
2 15 -4 3.41 1.99
-2 15 -4 10.05 2.02
-2 -15 -4 5.11 2.15
-2 -15 4 13.54 5.81
-2 15 4 13.83 4.46
2 -15 4 16.8 3.71
-2 15 -4 8.9 4.16
-2 -15 -4 10.88 4.33
-2 15 4 9.43 4.62
-2 -15 4 9.63 2.33
2 15 -4 4.7 2.83
2 -15 4 6.36 3.27
-2 15 -4 8.49 2.94
2 15 4 11.28 3.06
-2 -15 4 8.66 3.88
-2 15 4 6.36 3.3
-2 15 -4 7.35 3.44
-2 -15 -4 6.71 3.3
-2 -15 -4 12.11 3.51
2 16 -4 19.12 3.9
-2 16 -4 14.51 3.35
-2 -16 -4 16.55 2.83
2 16 -4 12.58 4.19
2 -16 4 8.87 3.63
-2 -16 4 18.63 5.17
2 16 4 20.38 3.83
2 16 -4 7.81 3.2
-2 16 4 19.3 3.48
-2 -16 4 16.73 2.09
-2 -16 -4 13.7 3.49
-2 16 4 24.17 6.33
-2 -16 4 14.21 5.72
-2 -16 4 18.2 3.33
2 -16 4 20.18 4.55
-2 16 -4 19.36 6.16
-2 16 4 19.44 5.2
2 -16 -4 8.87 3.25
-2 16 -4 18.65 4.34
2 16 4 16.7 3.71
-2 -16 -4 17 4.59
-2 -16 4 16.58 5.29
-2 16 4 22.37 5.6
-2 -16 -4 12.52 3.73
2 17 -4 0.91 3.26
2 17 -4 0.68 1.84
-2 -17 4 2.33 2.4
2 -17 4 1.05 2.42
-2 17 -4 1.14 2.19
-2 17 4 -0.53 1.35
-2 -17 4 -0.17 1.02
-2 -17 -4 1.39 1.75
-2 -17 -4 -1.13 2.32
-2 17 4 -1.17 3.6
2 -17 4 -0.9 2.07
-2 17 -4 1.14 2.87
-2 -17 4 -0.53 1.8
-2 -17 4 -1.32 3.61
-2 17 4 -1.15 2.36
2 -17 -4 0.64 1.74
-2 17 -4 0.68 1.99
2 17 4 -0.66 2.03
-2 -17 4 -1.95 3.33
-2 17 4 0.96 1.98
-2 -17 -4 -1.45 2.88
-2 -17 -4 -0.83 1.91
2 18 -4 1055.78 53.45
2 -18 4 663.15 54.35
-2 -18 4 1078.71 60.2
-2 -18 -4 885.65 54.94
-2 -18 -4 933.54 53.13
2 -18 -4 1022.2 53.65
-2 -18 4 778.28 45.66
-2 18 4 966.77 51.3
-2 -18 4 843.1 56.01
-2 18 4 872.8 55.69
2 -18 4 1047.53 56.48
-2 18 4 736.09 53.39
-2 -18 4 660.55 49.53
-2 -18 -4 894.83 51.63
-2 18 4 742.95 51.98
-2 -18 4 757.08 52.4
-2 18 -4 989.42 52.16
2 18 4 980.43 52
2 19 -4 6.9 3.33
-2 -19 4 13.72 5.67
2 -19 4 11.69 5.22
-2 19 4 10.2 3.83
-2 -19 -4 5.98 3.25
2 -19 -4 3.22 2.76
-2 -19 -4 5.48 3.65
-2 -19 4 2.79 1.29
2 -19 4 8.08 4.12
-2 19 4 4.59 3.14
2 19 4 7.67 3.67
-2 -19 -4 4.93 3.41
-2 19 -4 2.74 2.83
2 20 -4 904.65 54.54
2 20 -4 739.86 53.9
2 -20 4 765.45 55.79
-2 -20 4 881.72 61.69
-2 -20 -4 1024.37 55.37
-2 -20 -4 723.33 53.55
2 -20 -4 1095 54.27
-2 20 4 738.09 51.96
-2 20 4 590.6 52.88
2 -20 4 728.3 56.09
-2 -20 -4 932.94 51.85
-2 20 -4 968.21 52.19
2 20 4 976.42 52.58
2 21 -4 1.15 2.36
2 -21 4 1.2 2.47
-2 -21 4 -4.04 5.09
-2 21 4 0.99 2.68
2 -21 -4 -2.41 3.21
-2 -21 -4 -1.85 3.17
2 -21 4 2.96 3.05
-2 21 4 -2.34 3.18
2 21 4 -2.99 3.18
-2 -21 -4 -0.69 2.36
-2 21 -4 -1.4 2.89
-2 -22 4 276.47 29.76
2 22 -4 256.07 23.86
2 -22 4 339.52 26.6
2 -22 -4 390.22 24.41
-2 22 4 201.64 22.24
-2 -22 -4 326.59 24.13
-2 22 4 222.33 23.83
2 -22 4 207.23 24.84
-2 -22 -4 324.29 22.33
-2 22 -4 355.15 23.23
2 22 4 342.48 23.27
2 -23 4 1.09 2.76
2 23 -4 1.93 2.22
-2 -23 4 1.76 3.63
-2 -23 -4 2.58 1.98
2 -23 -4 -0.81 1.86
2 -23 4 -2.67 3.07
-2 23 4 -1.18 2.97
2 23 4 0.8 2.01
2 23 -4 0.98 2.48
-2 -23 -4 -0.68 1.98
-2 23 -4 1.47 1.85
2 24 -4 42.21 7.85
2 -24 4 42.71 9.01
2 -24 4 42.36 9.16
-2 24 4 28.19 7.69
2 24 4 43.47 7.31
-2 -24 -4 50.88 7.05
-2 24 -4 50.06 7.52
2 -25 4 4.71 3.21
-2 25 4 2.34 2.71
-2 25 -4 3.83 2.24
-2 0 -5 0.14 0.51
-2 0 -5 1.84 1.09
-2 0 -5 0.79 0.72
2 0 -5 0.57 1.01
2 0 5 3.68 5.35
-2 0 -5 -0.24 0.6
2 0 -5 0.63 0.65
-2 0 -5 0.67 0.77
-2 0 5 1.45 1.05
2 0 5 2.86 5.9
2 0 -5 0.48 0.48
-2 0 -5 -5.02 10.34
-2 0 -5 0.81 0.93
-2 0 5 5.2 7.57
-2 0 5 0.75 1.34
2 0 5 0.51 1.04
-2 0 -5 -0.4 0.72
-2 0 5 -3.9 5.67
2 0 -5 0.41 1.04
-2 -1 -5 2.61 1.05
-2 -1 -5 4.05 0.78
2 1 5 3.34 6.87
-2 -1 5 1.18 1.07
-2 -1 -5 4.49 1.25
-2 1 -5 3.24 1.13
-2 1 -5 6.27 1.93
2 1 -5 0.56 1
2 -1 5 -3.12 5.56
-2 1 -5 4.74 1.19
-2 1 -5 3.39 1.05
2 1 -5 4.66 1.21
2 -1 -5 2.64 0.84
-2 -1 -5 3.19 1.28
-2 1 -5 2.08 1.02
2 -1 -5 3.36 1.2
-2 1 5 5.01 1.78
-2 -1 5 4.43 1.45
2 1 5 1.02 1.3
-2 1 5 4.84 2.63
2 1 5 7.31 5.61
2 -1 5 -2.87 5.12
2 1 -5 3.02 0.61
-2 1 -5 5.24 7.63
-2 -1 -5 11.55 9.71
-2 1 5 4.23 4.36
-2 -1 5 2.1 1.77
-2 -1 -5 2.54 1.24
2 -1 -5 3.34 0.83
-2 -1 5 4.63 8.26
-2 1 -5 1.18 1.29
2 -1 5 3.97 1.78
-2 -1 5 3.28 3.38
-2 -1 -5 2.22 1.46
-2 1 -5 3.33 1.33
-2 1 5 -3.19 6.58
2 1 -5 3.33 1.55
2 -1 -5 3.67 1.52
-2 1 -5 4.91 2.01
-2 -2 -5 146.24 9.83
-2 2 -5 157.62 9.88
2 2 -5 142.25 11.77
-2 -2 -5 145.57 7.94
-2 -2 -5 116.13 8.35
-2 2 -5 146.83 12.14
-2 -2 5 137.79 11.99
-2 2 -5 133.12 9.18
2 -2 -5 134.47 9.89
2 2 -5 145.1 9.56
-2 -2 -5 128.26 9.77
2 -2 -5 133.39 8.76
-2 2 -5 124.03 10.08
-2 -2 5 166.15 10.6
-2 2 5 144.24 10.96
-2 2 -5 137.09 10.54
-2 -2 5 146.4 12.8
-2 2 5 121.78 13.38
-2 -2 -5 181.3 27.11
-2 -2 5 140.58 26.42
2 2 5 159.35 12.03
2 2 5 137.72 19.97
2 -2 5 146.4 11.48
-2 -2 -5 145.53 11.11
-2 2 5 167.69 24.37
2 -2 -5 133.56 10.57
2 2 -5 136.51 10.77
-2 -2 -5 136.21 11.36
-2 2 -5 125.14 10
-2 2 -5 145.25 12.18
2 -2 -5 134.23 8
2 -2 5 189.57 25.19
-2 -3 -5 81.06 6.57
-2 3 -5 85.2 6.99
2 3 -5 83.52 8.24
2 3 -5 80.06 7.9
2 -3 5 81.61 15.58
-2 -3 -5 80.42 4.73
-2 -3 5 88.28 8.74
-2 3 -5 71.79 8.79
-2 3 -5 95.56 7.64
2 -3 -5 76.63 6.76
2 3 -5 70.59 6.18
-2 -3 -5 79.4 6.61
-2 -3 -5 93.3 8.04
-2 -3 5 85.61 6.8
2 -3 -5 74.65 5.42
-2 3 5 70.02 5.03
2 3 5 89.2 6.75
-2 3 5 84.37 7.77
2 3 5 99.46 15.27
-2 -3 -5 87.84 7.94
-2 -3 5 95.01 20.18
2 -3 5 79.21 7.74
-2 -3 5 92.48 9.39
-2 3 5 106.48 11.65
-2 3 -5 91.24 7.47
-2 -3 -5 68.89 15.49
2 3 -5 89.55 7.75
2 -3 -5 88.73 7.55
-2 -3 -5 86.53 8.39
2 3 5 71.18 4.9
2 -3 -5 67.61 5.08
-2 3 -5 75.64 8.19
-2 3 5 86.92 16.38
-2 3 -5 108.13 18.63
-2 -4 5 1.23 1.27
2 -4 5 2.1 0.88
-2 -4 -5 0.91 0.83
-2 4 -5 0.68 1.39
2 4 -5 -0.54 1.11
-2 -4 -5 1.48 0.45
2 4 -5 2.56 1.49
2 -4 5 4.34 4.47
-2 4 5 0.69 0.61
-2 -4 -5 0.92 0.95
-2 4 -5 2.04 1.03
-2 4 5 2.89 1.72
2 4 5 1.7 1.01
2 -4 -5 1.1 0.54
-2 -4 5 1.73 0.94
2 -4 -5 1.49 1.02
2 -4 5 -0.33 0.89
2 4 -5 1.19 0.81
-2 -4 -5 1.17 0.8
2 4 5 -1.69 3.9
2 -4 5 0.49 1.01
-2 -4 -5 0.95 1.09
-2 4 5 3.2 2.2
-2 -4 -5 0.7 2.04
-2 -4 -5 -2.34 3.4
-2 4 -5 2.7 4.82
-2 4 -5 0.37 0.76
-2 -4 5 -3.02 5.38
-2 4 5 -2.81 5.02
-2 -4 5 0.62 1.43
-2 -4 -5 2.45 1.55
-2 4 -5 4.1 4.71
-2 4 5 2.09 4.31
-2 -4 -5 4.02 5.07
2 4 5 0.96 0.58
2 -4 -5 0.4 1.09
-2 4 -5 1.8 1.51
-2 -5 5 1.26 1.3
2 -5 5 0.64 0.73
-2 -5 -5 0.97 0.74
2 5 -5 2.06 1.3
2 -5 5 2 3.57
2 5 5 -2.03 4.68
2 -5 5 0.52 0.89
-2 5 -5 0.63 1.71
-2 5 5 1.37 0.71
-2 -5 -5 2.23 1.3
-2 -5 5 0.55 0.85
2 5 5 2.26 1.01
-2 5 -5 -0.44 1.01
2 -5 -5 -0.83 1.2
-2 5 5 2.1 1.62
2 -5 5 1.12 0.86
2 5 -5 0.33 0.67
-2 -5 -5 0.28 0.64
2 5 5 3.12 3.21
2 -5 5 1.69 2.46
-2 -5 -5 0.97 1.23
2 -5 5 1.98 1.25
-2 -5 -5 4.26 3.8
-2 5 5 1.2 1.75
-2 5 -5 -2.38 4.24
-2 -5 5 2.74 4.89
-2 5 5 -2.56 3.73
-2 -5 -5 0.69 1.59
-2 5 -5 2.14 1.22
-2 5 -5 0.6 1.08
-2 -5 -5 0.69 1.43
-2 5 5 0.55 0.98
-2 -5 -5 1.8 4.89
-2 5 -5 -1.81 4.57
-2 -5 5 1.93 2.81
-2 5 5 1.9 2.77
2 5 5 1.43 0.64
2 -5 -5 1.62 1.18
2 6 5 62.29 12.14
2 -6 5 54.42 11.44
2 -6 5 61.46 6.18
2 -6 5 57.18 5.18
-2 -6 5 58.46 7.08
2 -6 5 52.34 5.3
-2 6 -5 65.17 7.49
2 6 -5 71.94 7.01
-2 6 5 75.06 7.61
2 6 -5 62.27 5.78
-2 -6 5 63.41 5.17
2 -6 -5 62.82 6.48
-2 6 5 62.51 4.77
2 6 5 69.09 5.45
-2 -6 -5 52.48 4.97
-2 -6 -5 53.11 5.86
-2 6 -5 62.01 6.44
2 6 5 53.95 10.11
2 -6 5 75.04 12.15
2 -6 5 66.06 6.73
-2 6 5 57.09 13.02
-2 -6 5 60.89 13.85
-2 -6 -5 63.87 7.59
-2 6 5 78.2 11.46
-2 -6 -5 77.22 13.8
-2 6 -5 75.47 14.31
-2 6 -5 66.3 5.8
-2 -6 -5 53.09 6.25
-2 -6 -5 63.09 8.1
-2 -6 5 54.59 4.99
-2 6 5 59.03 6.77
2 -6 -5 53.93 5.72
2 6 5 56.32 4.72
-2 -6 -5 64.16 11.45
-2 6 -5 63.96 7.34
-2 6 -5 54.5 10.84
-2 -6 5 53.75 11.11
-2 6 5 67.12 12.1
-2 -7 5 101.14 9.89
2 7 5 96.02 15.4
2 -7 5 90.69 14.74
2 -7 5 103.17 9.1
2 -7 5 83.05 7.58
2 7 -5 83.82 8.46
-2 7 -5 95.31 9.43
2 -7 5 97.9 7.6
-2 7 5 95.78 9.66
2 -7 -5 113.71 9.43
-2 7 5 94.24 5.8
2 7 -5 97.96 8.34
-2 -7 -5 98.22 7.39
-2 -7 -5 94.33 8.36
-2 7 -5 83.28 8.47
2 7 5 89.09 7.19
-2 -7 5 95.42 7.03
-2 7 5 91.91 7.06
2 7 5 89.54 13.63
2 -7 5 97.29 8.89
-2 -7 -5 89.16 9.56
-2 7 -5 107.05 8.02
-2 7 5 130.96 16.7
-2 -7 5 69.38 15.13
-2 7 5 96 16.62
-2 7 -5 80.04 14.33
-2 -7 -5 91.62 15.3
2 -7 5 104.08 14.48
-2 -7 -5 90.14 8.97
-2 7 5 89.4 9.08
-2 7 5 108.2 15.4
-2 -7 -5 107.11 11.55
2 -7 -5 95.62 8.22
2 7 5 89.68 7.11
-2 -7 5 86.57 7.34
-2 -7 -5 87.93 13.57
-2 7 -5 86.18 13.36
-2 7 -5 91.65 9.58
-2 7 -5 79.6 5.76
-2 -7 5 79.43 13.76
2 -8 5 444.51 27.53
2 -8 5 541.99 30.7
2 8 -5 493.19 29.3
2 -8 5 474.28 28.06
-2 -8 5 463.2 30.53
-2 8 -5 514.32 30.45
2 -8 5 488.89 27.83
-2 -8 -5 497.02 26.22
-2 8 5 521.35 27.65
-2 -8 5 360.57 25.92
2 -8 -5 519.66 30.27
-2 -8 -5 481.71 28.71
2 8 -5 504.98 29
-2 8 5 460.59 25.13
2 8 -5 404.25 25.23
2 8 5 522.56 27.39
-2 8 -5 438.97 29.18
2 -8 5 475.99 29.26
-2 -8 -5 494.97 30.76
-2 8 5 473.9 39.86
-2 8 -5 447.93 39.3
-2 -8 5 622.28 46.77
-2 8 5 458.08 41.45
-2 8 -5 507.85 27.77
2 8 5 427.29 35.16
2 -8 5 464.58 36.3
-2 -8 -5 471.58 39.2
2 -8 5 447.05 38.22
-2 -8 -5 405.03 32.26
-2 -8 5 493.26 38.5
-2 8 5 428.27 36.96
-2 -8 -5 493.49 37.38
-2 8 -5 488.62 37.29
-2 8 5 483.38 30.04
-2 8 -5 451.57 25.73
2 8 5 500.54 27.59
-2 -8 5 441.28 27.32
-2 8 -5 518.77 31.02
2 8 5 473.37 38.85
2 -9 5 2.03 1.33
-2 -9 5 3.55 2.07
-2 9 -5 2.82 1.84
2 9 -5 2.55 1.39
2 9 5 3.23 3.32
2 -9 5 2.99 1.28
2 -9 5 3.52 1.45
2 -9 5 1.63 2.9
-2 -9 -5 2.64 1.03
-2 9 5 3.15 1.57
2 9 5 2.45 1.18
2 9 -5 2.5 0.83
-2 -9 -5 -0.46 1.25
2 -9 -5 1.96 1.91
-2 9 -5 0.58 1.04
-2 9 -5 3.06 0.95
2 -9 5 0.69 2.35
2 9 -5 3.49 1.99
-2 9 5 2.26 0.63
-2 -9 5 0.81 0.78
2 9 5 2.5 2.88
2 -9 5 1.33 2.38
2 -9 5 0.52 0.77
-2 9 5 2.03 3.62
-2 -9 5 4.37 4.5
-2 -9 -5 2.02 1.55
-2 9 -5 3.61 4.55
-2 -9 -5 1.72 3.96
-2 9 5 2.09 3.04
-2 -9 -5 2.27 2.34
-2 -9 -5 2.79 3.21
-2 9 -5 1.38 2.84
-2 9 5 2.51 1.94
-2 -9 5 1.55 2.76
-2 9 5 -1.52 3.5
-2 9 -5 1.56 0.95
2 9 5 1.59 1.16
-2 -9 5 2.27 1.41
-2 -10 5 12.41 3.47
-2 -10 -5 6.74 1.53
-2 10 -5 10.08 3.03
2 -10 5 3.14 3.64
2 10 -5 9.83 2.65
2 -10 5 7.98 2.18
2 -10 5 8.73 2.24
2 10 5 17.06 5.99
2 -10 5 7.41 2.15
-2 10 5 7.79 2.44
-2 -10 -5 11.85 2.66
2 10 -5 10.61 1.76
2 10 5 10.28 2.19
-2 10 -5 7.02 1.31
2 -10 -5 13.4 3.62
-2 -10 5 9.01 1.41
-2 10 5 7.82 1.25
-2 10 5 11.7 5.69
-2 10 -5 5.21 4.75
-2 -10 -5 4.99 3.85
-2 -10 -5 6.8 2.66
-2 -10 5 16.9 6.54
2 -10 5 6.46 2.26
2 10 5 13.28 4.84
2 -10 5 8.95 4.58
2 10 5 10.84 2.72
-2 -10 5 8.64 2.39
-2 10 5 9.22 2.83
-2 -10 -5 6.72 3.29
-2 -10 -5 8.04 4.39
-2 10 -5 6.59 3.35
-2 10 -5 8.32 1.94
-2 -10 5 7.5 3.81
-2 10 5 7.37 4.57
-2 -11 -5 8.82 1.69
-2 11 -5 10.12 2.75
2 11 -5 11.56 2.79
2 -11 5 9.91 2.47
2 -11 5 11.96 2.98
2 11 5 7.48 4.1
2 -11 5 4.58 4.18
2 -11 5 8.5 2.37
-2 -11 5 10.55 3.23
-2 11 5 8.15 1.39
2 11 -5 8.55 1.85
2 11 5 8.43 2.04
2 -11 -5 11.82 3.5
-2 11 -5 9.15 1.47
-2 -11 -5 5.79 2.15
-2 -11 5 7.03 1.03
-2 11 5 5.88 2.53
-2 -11 -5 9.67 5
-2 -11 5 2.05 3.68
-2 -11 -5 8.84 3
-2 11 5 5.65 4.77
2 -11 5 11.16 2.73
-2 11 -5 6.71 3.88
2 11 5 12.87 4.84
2 -11 5 4.96 3.16
2 11 5 8.56 2.85
-2 -11 5 5.85 4.28
-2 11 5 10.04 4.45
-2 -11 5 7.44 2.38
-2 -11 -5 5.15 3.77
-2 11 -5 3.78 3.46
-2 11 5 9.75 3.07
-2 11 -5 15.09 2.88
-2 -12 -5 17.5 2.62
-2 12 -5 24.28 4.24
2 12 -5 21.95 3.92
2 12 5 30.49 7.24
2 -12 5 25.71 4.05
2 -12 5 32.67 7.72
2 -12 5 19.55 3.7
-2 -12 5 24.6 5.01
2 12 -5 16.95 2.93
2 -12 -5 28.56 5.81
-2 12 5 18.46 2.24
2 12 5 24.7 3.37
-2 12 -5 23.04 2.4
-2 -12 -5 21.1 3.77
-2 12 5 14.89 4
-2 -12 5 19.94 8.02
2 -12 5 12.03 4.91
-2 12 -5 14.66 6.14
-2 -12 -5 23.53 7.12
-2 12 5 27.34 8.25
-2 -12 -5 15.73 4.06
2 -12 5 24.63 4.31
2 12 5 9.03 4.16
-2 12 -5 28.4 4.2
2 12 5 21.86 4.64
-2 -12 5 26.58 4.61
-2 -12 5 15.77 5.62
-2 12 5 19.66 6.22
-2 -12 -5 18.66 5.82
-2 12 -5 10.92 4.62
-2 12 5 16.88 4.13
-2 13 -5 23.96 4.24
2 13 -5 25.88 4.3
2 -13 5 22.4 4
2 13 5 32.51 7.52
-2 -13 -5 27.53 3.28
2 -13 5 26.84 4.56
-2 -13 5 26.1 5.34
2 13 -5 21.37 3.58
2 -13 -5 6.44 3.53
2 13 5 35.89 4.12
-2 13 5 21.86 2.72
-2 13 -5 28.45 2.75
-2 -13 -5 28.27 4.49
-2 13 5 13.04 5.3
-2 13 5 22.94 7.14
2 -13 5 12.84 5.24
-2 13 -5 20.68 6.66
-2 -13 5 17.46 7.57
-2 -13 -5 22.99 6.8
2 -13 5 25.47 4.59
2 13 5 20.74 5.41
-2 13 -5 22.39 4.3
2 13 5 16.48 4.58
-2 -13 5 27.96 5.16
-2 -13 5 26.61 7.31
-2 13 5 31.52 7.16
-2 13 -5 29.13 6.57
-2 -13 -5 21.61 6.05
2 13 -5 21.58 2.38
-2 13 5 27.31 5.28
-2 14 -5 6.37 2.32
-2 -14 -5 7.47 1.74
2 14 -5 2.3 1.69
2 -14 -5 8.8 3.93
2 14 5 5.47 3.99
2 -14 5 5.71 2.37
-2 -14 5 5.4 3.08
2 14 -5 5.43 2.42
2 14 5 7.61 2.19
2 14 -5 5.8 2.4
-2 14 5 5.5 1.41
2 -14 -5 4 2.53
-2 -14 -5 4.54 2.28
-2 -14 5 5.65 4.35
-2 14 5 5.12 4.31
-2 14 5 2.78 3.51
2 14 -5 8.55 3.4
-2 -14 5 3.32 0.92
-2 -14 5 3.65 0.93
-2 -14 -5 4.42 4.02
2 -14 5 5.98 2.38
-2 14 -5 4.62 3.55
2 -14 -5 5.28 2.87
-2 14 -5 0.68 1.85
2 14 5 2.89 2.98
-2 -14 -5 12.03 3.86
-2 14 -5 3.34 3.45
-2 -14 -5 8.07 3.57
-2 14 5 5.87 2.87
-2 -14 5 1.37 2.46
-2 14 5 9.41 4.16
-2 15 -5 -0.59 1.7
2 15 -5 3.59 1.74
2 15 -5 -1.17 2.96
2 -15 5 2.13 1.79
-2 -15 5 0.97 2
2 15 5 2.6 1.61
-2 -15 -5 1.19 1.51
-2 15 5 1.36 0.97
2 15 -5 2.52 1.94
2 -15 -5 0.95 1.69
-2 -15 -5 -2.33 3.17
2 -15 5 2.14 1.8
-2 15 -5 1.48 3.06
-2 -15 5 -1.8 3.21
-2 -15 5 0.19 0.67
-2 15 5 4.87 3.74
2 -15 -5 5.92 2.75
-2 15 5 2.7 2.78
-2 -15 5 -0.77 1.07
-2 15 -5 1.3 1.64
2 15 5 -0.89 2.6
-2 -15 -5 1.1 3.58
-2 -15 5 3.99 3.06
-2 15 5 2.6 2.68
-2 -15 -5 1.66 2.27
-2 15 5 2.73 2.48
2 16 -5 436.34 26.04
2 -16 5 419.65 27.33
-2 16 -5 392.88 24.74
-2 -16 5 452.59 29.92
-2 -16 -5 391.22 25.33
2 -16 -5 391.09 27.47
2 16 5 443.58 24.37
-2 16 5 353.65 21.84
2 -16 5 394.55 26.57
-2 16 5 358.56 29.94
-2 -16 5 349.72 21.27
-2 16 5 333.29 30.73
-2 16 -5 287.68 29.04
-2 -16 5 358.7 32.44
2 -16 -5 315.4 25.64
-2 -16 5 258.01 20.79
-2 -16 -5 406.78 26.86
-2 -16 -5 348.49 27.84
2 16 -5 339.74 28.31
-2 16 5 363.21 29.42
-2 -16 5 348.2 29.4
-2 16 -5 402.12 25.37
2 16 5 420.43 27.54
2 17 -5 46.71 6.79
-2 -17 5 55.72 8.95
2 -17 5 55.26 8.21
-2 17 -5 36.07 5.63
-2 17 5 33.58 4.53
-2 -17 -5 52.84 7.01
2 -17 5 48.52 7.53
-2 -17 5 38.01 4.63
-2 -17 5 42.28 9.85
-2 17 5 31.73 8.27
-2 17 5 27.57 7.46
-2 17 -5 43.45 8.98
-2 17 -5 46.97 6.35
2 17 5 44.83 7.21
-2 17 5 32.35 7.5
-2 -17 5 33.01 7.74
-2 -17 -5 50.23 7.28
2 18 -5 250.09 19.07
2 -18 5 274.56 21.97
-2 -18 5 297.57 24.34
-2 18 -5 217.15 17.02
-2 -18 -5 228.77 18.73
-2 18 5 205.73 15.47
2 -18 5 277.41 21
-2 18 5 217.35 21.68
-2 -18 5 195.92 22.5
-2 -18 5 157.65 14.93
-2 -18 -5 241.48 18.82
-2 18 -5 251.22 17.94
2 18 5 276.74 20.13
-2 -18 5 225.03 21.24
2 19 -5 0.89 1.83
-2 19 -5 -0.62 2.12
2 -19 5 2.49 2.57
-2 -19 5 7.33 4
-2 -19 -5 2.74 2.49
-2 19 5 1.95 1.67
-2 -19 -5 6 2.91
2 -19 5 2.12 2.44
-2 -19 5 0.55 1.69
-2 19 5 5.19 3.54
2 19 5 6.52 3.14
-2 -19 -5 3.1 2.4
-2 19 -5 2.56 2.47
2 20 -5 168.65 15.75
2 -20 5 111.82 15.79
-2 -20 5 156.84 18.92
-2 -20 -5 146.51 14.69
-2 -20 -5 118.95 14.12
2 -20 5 154.07 16.49
-2 20 5 118.66 15.39
-2 -20 -5 113.56 12.52
-2 20 -5 135.99 12.46
2 20 5 139.05 13.68
2 21 -5 11.41 4.57
2 -21 5 6.78 4.29
-2 -21 5 11.42 5.56
-2 -21 -5 4.74 3.54
2 -21 -5 10.2 3.52
-2 21 5 2.58 3.53
2 -21 5 9.43 4.62
-2 -21 -5 6.07 3.24
-2 21 -5 9.86 3.2
2 21 5 4.12 2.96
2 22 -5 14.41 5.13
2 -22 5 10.94 4.92
-2 -22 5 19.57 7.81
-2 -22 -5 25.62 5.96
2 -22 -5 23.77 5.18
2 -22 5 7.59 5.27
-2 22 5 7.7 5.03
-2 -22 -5 27.08 5.16
-2 22 -5 22.18 4.69
2 22 5 25.87 5.45
2 -23 5 7.13 4.65
2 -23 5 1.5 2.68
-2 23 5 1.28 1.33
-2 -23 -5 6.7 2.87
2 23 5 5.11 2.48
2 -24 5 59.98 11.03
2 -24 5 49.01 9.96
-2 24 5 25.43 9.34
-2 0 -6 380.89 21.46
2 0 -6 373.37 24.21
-2 0 -6 402.47 19.67
-2 0 -6 363.64 20.89
-2 0 -6 441.42 24.28
-2 0 6 402.88 25.17
-2 0 -6 371.04 21.42
2 0 -6 359.6 19.88
2 0 6 191.07 32.55
-2 0 -6 395.12 22.53
-2 0 6 402.85 26.78
2 0 -6 294.39 18.72
-2 0 6 206.9 43.07
2 0 -6 285.53 18.88
2 0 6 361.35 23.19
2 0 6 312.35 43.17
-2 0 -6 353.46 22.48
2 0 -6 354.99 22.14
-2 0 -6 376.31 24.62
-2 0 6 203.74 37.64
-2 -1 -6 7.63 1.84
-2 1 -6 7.25 1.42
-2 -1 -6 8.04 1.27
-2 -1 6 6.92 2.58
-2 1 -6 8.42 1.91
2 -1 6 18 9.81
2 1 -6 6.44 2.31
-2 -1 -6 8.55 2
-2 -1 -6 12.88 2.61
2 1 6 -3.82 10.41
-2 1 -6 7.92 3.49
2 -1 -6 5.97 2.38
-2 1 -6 9.19 1.84
2 1 -6 6.23 1.43
2 -1 -6 8.73 1.43
-2 -1 -6 6.92 1.72
-2 1 -6 6.57 1.86
-2 -1 6 2 3.23
2 -1 -6 7.35 1.81
-2 1 6 0.68 3.38
2 1 6 5.56 8.59
2 1 -6 2.83 0.56
-2 1 6 4.76 8.49
-2 -1 -6 6.39 2.07
2 -1 6 13.25 10.79
-2 -1 6 5.98 3.31
-2 1 6 9.32 3.47
-2 -1 6 15.72 10.79
2 1 -6 4.73 0.63
-2 1 -6 8.46 2.2
2 -1 6 9.26 2.65
-2 1 -6 6.02 2.14
-2 -1 -6 6.73 2.34
2 1 -6 5.36 1.8
2 -1 -6 7.76 2.15
-2 1 -6 10.32 3.18
-2 -1 6 18.76 11.6
-2 1 6 3.67 5.35
2 2 -6 501.55 31.24
-2 2 -6 466.47 27.01
-2 2 -6 476.86 27.61
-2 -2 -6 498.19 26.04
-2 -2 -6 486.03 28.17
-2 -2 -6 518.43 27.5
-2 -2 6 532.04 31.97
-2 2 -6 431.46 33.4
2 2 -6 440.96 29.87
-2 -2 6 351.22 29.85
-2 2 6 531.16 32.33
-2 -2 -6 463.33 27.78
-2 2 -6 444.79 28.3
2 -2 -6 454.47 27.97
2 2 -6 466.81 27.21
-2 -2 -6 485.7 29.64
2 -2 -6 422.44 26.05
-2 -2 -6 499.12 29.58
-2 -2 6 519.76 57.57
-2 -2 6 531.12 33.53
-2 2 -6 497.01 28.96
-2 2 6 572.38 35.22
2 2 6 536.44 45.58
2 -2 6 495.42 30.2
2 -2 6 524.71 49.74
-2 -2 -6 452.54 30.05
-2 2 6 482.27 48.9
-2 2 -6 431.56 28.4
-2 2 -6 493.99 31.36
2 -2 -6 488.91 29.04
2 2 -6 464.46 29.05
2 -2 -6 533.68 26.38
-2 3 -6 1.07 1.03
-2 -3 -6 1.4 1.45
-2 -3 6 -0.7 1.78
-2 -3 -6 0.78 0.94
-2 -3 -6 0.56 0.76
2 3 -6 0.64 1.31
2 -3 6 2.8 7.05
2 3 -6 2.29 1.77
-2 3 -6 -0.81 3.66
-2 3 -6 2.38 1.16
-2 -3 -6 1.8 1.35
-2 3 -6 1.62 1.38
2 -3 -6 0.74 0.54
-2 3 6 -0.72 3.98
-2 -3 -6 1.49 1.91
2 -3 -6 0.74 1.32
-2 -3 6 -4.58 5.76
2 3 -6 0.55 0.9
2 3 6 -8.6 12.52
-2 -3 6 3.93 8.09
2 -3 6 1.07 1.23
-2 3 -6 0.81 1.26
-2 -3 -6 1.98 2.39
-2 -3 6 0.8 2.18
-2 3 6 1.06 2.89
2 -3 -6 1.28 0.91
-2 -3 -6 -0.64 2.17
2 3 -6 1.85 1.84
2 -3 -6 1.71 1.76
-2 3 -6 2.7 2.09
-2 3 6 2.76 6.35
2 4 -6 2726.79 138.37
2 4 -6 2608.83 137.29
-2 4 -6 2557 134.86
-2 -4 -6 2509.59 135.04
-2 -4 -6 2439.19 132.43
-2 -4 6 2577.96 138.77
-2 4 -6 2786.22 140.1
2 4 -6 2501.01 134.4
-2 4 6 2640.67 139.68
2 -4 -6 2577.48 135.55
-2 -4 -6 2602.27 134.32
-2 4 -6 2379.81 135.51
-2 -4 -6 2492.19 136.14
-2 -4 6 2258.37 135.85
-2 -4 -6 2531.67 136.67
-2 4 6 3407.16 146.96
-2 4 -6 2693.46 135.65
-2 -4 6 2863.92 169.06
-2 4 6 2642.37 164.03
2 4 6 2571.61 151
2 -4 6 2632.53 136.98
2 4 -6 2546.83 136.19
2 4 6 2739.08 158.55
2 -4 6 2491.76 156.3
-2 -4 -6 2689.65 139.2
-2 -4 6 2745.86 157.99
-2 4 6 2874.91 158.79
2 -4 -6 2594.76 135.86
-2 4 -6 2704.45 138.76
2 4 6 2343.58 132.48
2 -5 6 27.95 11.91
2 5 -6 35.8 5.34
2 5 6 40.15 12.31
-2 5 -6 48.48 7.16
-2 -5 6 50.7 6.79
-2 -5 -6 41.83 4.86
-2 -5 -6 38.49 3.16
2 -5 6 42.47 4.91
-2 5 -6 33.37 4.67
2 -5 -6 40.06 5.11
2 5 -6 40.82 4.5
-2 -5 -6 30.22 3.72
-2 -5 -6 36.59 4.96
-2 -5 6 39.23 5.17
-2 5 6 42.93 7.66
-2 5 -6 35.5 4.95
-2 5 -6 43.1 4.8
-2 5 6 26.74 11.61
2 -5 6 37.19 5.29
-2 5 6 45.46 8.65
-2 -5 6 35.17 13.71
2 5 6 23.4 10.17
2 -5 6 33.37 11.95
-2 5 -6 41.47 6.29
-2 -5 -6 37.8 6.76
2 5 6 36.43 3.45
2 5 -6 31.45 4.7
-2 -5 6 34.2 10.68
-2 5 6 27.02 10.29
-2 -6 6 1420.57 80.52
2 6 -6 1471.68 78.91
2 -6 6 1446.94 77.18
-2 -6 -6 1347.14 76.77
-2 6 -6 1531.21 80.39
-2 -6 6 1494.78 75.96
2 -6 -6 1495.2 78.21
-2 -6 -6 1372.03 75.46
-2 -6 -6 1311.93 77.31
-2 6 6 1194.43 74.7
-2 6 -6 1269.68 77.42
2 6 6 1496.19 75.85
2 6 -6 1381.9 76.56
2 -6 6 1514.58 78.7
-2 6 -6 1475.54 76.75
-2 6 6 1571.3 88.26
-2 6 6 1475.98 99.43
-2 -6 6 1426.17 100.62
2 6 6 1404.8 89.48
2 -6 6 1524.34 91.73
2 6 6 1388.36 93.44
-2 -6 -6 1549.85 83.09
2 -6 6 1368.79 93.56
-2 -6 6 1470.56 94.32
-2 6 6 1367.05 92.66
-2 6 6 1449.42 79.36
2 6 6 1337.23 74.89
-2 6 -6 1578.35 80.78
-2 -7 6 0.76 1.57
2 -7 6 -0.43 1.26
-2 -7 -6 0.84 1.29
2 7 -6 -0.57 1.43
2 7 6 -4.12 6
2 -7 6 -6.22 6.04
2 -7 6 0.71 1.09
-2 7 -6 -1.28 2.81
-2 -7 -6 1.89 1.61
-2 7 6 0.25 0.84
2 7 6 -0.28 0.81
-2 7 -6 -1.59 1.54
-2 -7 -6 -0.52 1
2 7 -6 0.41 1.03
2 -7 -6 1.12 1.52
-2 7 -6 0.35 1.03
2 -7 6 -0.55 1.69
-2 7 6 -1.59 4.62
-2 -7 6 2.8 5.78
2 7 6 -1.6 5.22
2 -7 6 1.71 6.1
-2 -7 6 -2.01 2.07
-2 7 6 -1.98 4.08
-2 7 -6 0.72 1.67
-2 -7 -6 -1.03 3.01
-2 7 6 0.64 1.99
2 7 6 -0.26 0.89
2 8 -6 430.77 25.96
-2 -8 6 421.56 27.84
2 -8 6 418.36 24.89
2 8 -6 424.41 25.84
2 -8 6 393.73 23.92
-2 8 -6 432.97 26.78
-2 -8 -6 405.15 25.02
2 -8 -6 477.61 27.21
2 8 -6 396.81 24.77
-2 8 6 361.7 22.78
2 8 6 461.37 23.39
-2 8 -6 361.88 25.34
2 -8 6 445.97 26.16
-2 8 6 411.97 35.89
-2 -8 6 355.78 38.75
-2 8 -6 428.47 23.9
-2 8 6 441.79 40.61
2 8 6 381.8 32.97
2 -8 6 387.55 33.65
2 8 6 406.04 23.28
-2 -8 -6 414.37 30.97
2 8 6 404.65 36.36
-2 -8 6 399.82 35.98
-2 8 6 342.5 34.07
2 -8 6 443.51 38.02
-2 8 6 454.05 27.18
-2 -8 6 366.63 23.63
-2 8 -6 301.75 20.96
-2 8 -6 436.13 27.58
-2 -9 6 16.85 4.18
2 -9 6 17.87 3.25
2 9 -6 12.47 3.11
-2 9 -6 13.56 3.65
2 9 6 16.99 6.48
2 -9 6 18.32 3.25
2 -9 6 24.93 7.93
-2 -9 -6 17.57 3.32
-2 9 6 10.99 2.3
2 9 -6 9.08 1.3
2 9 6 16.97 2.51
-2 9 -6 13.46 3.46
-2 9 -6 15.69 1.84
2 9 -6 18.29 3.64
2 -9 -6 14.08 3.76
2 -9 6 17.08 3.53
2 9 6 16.14 5.69
-2 9 6 18.47 7.35
-2 -9 6 7.71 6.52
-2 9 6 28.56 9.51
2 -9 6 13.98 5.81
-2 -9 6 5.57 3.88
-2 9 6 9.12 5.35
-2 -9 -6 19.64 5.76
-2 9 6 13.07 3.6
-2 -9 6 12.87 2.67
2 9 6 12.84 2.47
-2 9 -6 9.83 1.7
2 -10 6 23.23 3.97
-2 -10 6 21.61 4.8
-2 -10 -6 23.1 2.8
2 10 6 7.29 5.07
2 10 -6 24.7 4.23
-2 10 -6 20.2 4.35
2 -10 6 23.22 3.75
2 -10 6 7.43 4.8
-2 10 6 24.76 3.52
2 10 6 18.05 2.77
-2 10 -6 20.56 4.44
-2 10 -6 19.09 2.08
2 10 -6 22.98 4.16
2 -10 -6 20.79 4.84
2 10 -6 14.39 1.99
-2 -10 -6 26.49 4.15
2 -10 6 25.18 4.34
-2 -10 6 14.92 7.75
-2 10 6 16.06 7.54
2 10 6 14.16 5.92
2 -10 6 35.93 7.93
-2 -10 6 18.03 6.77
-2 10 6 8.86 5.57
-2 -10 -6 17.3 5.49
-2 10 -6 24.26 2.83
-2 10 6 30.66 5.19
-2 -10 6 20.64 3.6
2 10 6 24.08 3.62
2 -11 6 3.32 1.71
-2 -11 6 1.75 1.81
2 11 -6 0.58 0.85
-2 11 -6 1.22 1.66
2 -11 6 0.97 1.49
2 11 6 5.3 3.64
-2 -11 -6 1.68 1.02
-2 11 6 2.2 1.11
2 11 -6 1.23 0.88
2 11 6 1.84 1.18
2 11 -6 0.6 1.39
2 -11 -6 1.81 2.08
-2 11 -6 1.51 0.67
-2 -11 -6 4.61 1.9
2 -11 6 2.4 1.51
-2 -11 6 2.42 4.31
2 -11 6 4.35 3.34
-2 11 6 -2.22 4.57
-2 -11 6 3.52 3.63
-2 11 6 1.73 4.35
-2 -11 -6 -1.12 2.59
-2 11 6 -0.75 1.54
-2 -11 6 2.42 1.41
2 11 6 1.44 1.31
-2 11 -6 2.59 1.45
2 -12 6 276.83 19.44
2 12 -6 308.99 20.44
2 -12 6 278.23 19.92
-2 -12 6 297.32 22.8
-2 12 -6 283.39 20.39
2 12 6 311.14 18.09
-2 -12 -6 277.13 19.52
-2 12 6 270.81 19.63
2 -12 -6 259.45 22.79
-2 12 6 271.37 29.61
2 -12 6 268.46 20.11
-2 -12 6 293.23 31.45
-2 12 6 308.96 22.07
-2 -12 6 256.82 26.95
-2 12 6 237.89 25.98
2 12 6 285.74 20.03
-2 12 -6 269.28 18.57
-2 -12 6 269.09 19.64
-2 -13 6 0.94 1.68
2 13 -6 -0.6 1.52
-2 13 -6 -1.23 2.37
2 -13 6 1.23 1.79
2 13 6 -0.34 1.1
-2 -13 -6 1.16 2.07
2 -13 -6 -1.14 2.04
-2 -13 -6 -0.56 1.53
2 -13 6 0.64 1.33
-2 13 6 2.07 4.25
-2 13 6 1.77 3.65
-2 -13 6 2.26 5.2
-2 -13 6 -1.68 3
-2 13 6 1.64 3.38
-2 13 6 -0.84 2.28
2 13 6 0.67 1.7
-2 13 -6 1.58 1.96
2 14 -6 1026.78 58.43
2 -14 6 1018.98 58.7
-2 -14 6 1132.77 62.91
-2 14 -6 978.53 58.09
-2 -14 -6 803.25 61.77
2 14 6 1113.02 56.05
-2 -14 -6 1046.97 58.28
2 -14 -6 896.7 61.58
2 -14 6 1142.11 59.59
-2 14 6 839.08 65.31
-2 -14 6 973.42 71.43
-2 14 6 906.34 68.81
-2 14 6 912.05 65.93
-2 -14 6 908.89 66.22
-2 14 6 1178.27 62.2
-2 14 -6 770.88 57.05
2 14 6 1164.99 61.33
-2 -15 6 9.42 3.79
-2 15 -6 10.63 3.53
2 15 -6 19.51 4.07
2 -15 6 18.74 4.19
-2 -15 -6 16.04 4.91
2 -15 -6 11.12 4.59
-2 -15 -6 18.05 3.96
2 -15 6 16.44 4.02
-2 15 6 17.45 6.15
-2 -15 6 6.33 4.9
-2 15 6 13.33 6.82
-2 15 6 13.34 4.44
-2 -15 -6 7.3 3.82
-2 15 6 15.48 6.21
-2 -15 6 7.93 5.46
2 15 6 12.58 4.62
-2 15 -6 11.03 3.41
2 16 -6 520.98 32.11
2 16 -6 464 31.5
2 -16 6 529.75 33.09
-2 -16 6 524.33 35.84
-2 16 -6 454.52 30.68
-2 -16 -6 468.99 34.45
-2 -16 -6 486.1 31.37
2 -16 -6 514.61 34.44
2 -16 6 507.99 32.44
-2 16 6 501.17 38.96
-2 -16 6 435.07 40.58
-2 16 6 410.08 38.62
-2 -16 -6 491.07 33.25
-2 16 6 399.65 36.23
-2 -16 6 415.68 36.75
-2 16 6 648.79 36.83
2 16 6 350.63 32.85
-2 16 -6 437.97 30.25
-2 17 -6 -0.64 1.61
2 17 -6 1.39 1.89
2 -17 6 5.26 2.85
2 17 -6 -0.77 1.38
-2 -17 6 -1.21 1.76
-2 -17 -6 -1.05 1.87
2 -17 -6 4.68 2.89
-2 -17 -6 -0.73 2.25
2 -17 6 0.82 1.69
-2 17 6 -1.72 3.06
-2 -17 6 -1.93 3.44
-2 17 6 -1.49 3.43
-2 -17 -6 -1.75 2.38
-2 17 6 2.87 2.56
-2 -17 6 -1.47 3.38
-2 17 6 -3.37 2.83
2 17 6 -1.23 2.82
-2 17 -6 2.39 2.54
2 18 -6 112.15 12.13
-2 -18 6 117.48 14.89
2 18 -6 103.18 11.51
2 -18 6 128.7 13.6
-2 18 -6 76.11 9.76
-2 -18 -6 99.83 12.56
2 -18 -6 114.54 12.45
-2 -18 -6 112.68 11.87
-2 18 6 114.23 15.29
2 -18 6 124.01 12.74
-2 -18 -6 115.17 12.29
-2 18 6 146.51 15.51
2 18 6 94.1 12.72
-2 18 -6 107.95 10.43
2 19 -6 10.76 3.94
2 19 -6 14.89 4.42
2 -19 6 15.6 4.9
-2 19 -6 7.17 2.82
2 -19 -6 7.21 3.39
-2 -19 -6 13.97 4.53
-2 19 6 7.21 4.48
2 -19 6 15.87 4.93
-2 -19 -6 8.49 3.54
-2 19 6 16.65 5.74
2 19 6 9.57 3.98
-2 20 -6 4.61 2.66
2 -20 6 2.55 3.24
2 20 -6 8.3 3.4
2 20 -6 10.19 3.59
-2 -20 -6 9.51 4.23
-2 20 6 8.56 4.66
2 -20 6 4.43 3.04
-2 20 6 10.98 5.37
-2 -20 -6 7.54 3.47
2 20 6 18.34 4.93
2 21 -6 -1.18 3.84
2 -21 6 1.47 2.15
-2 21 6 1.41 2.51
2 -21 6 1.24 2.55
-2 -21 -6 0.83 2.41
-2 21 6 1.78 3.67
2 21 6 -1.98 2.69
2 -22 6 109.91 17.15
2 -22 6 147.67 18.06
-2 22 6 71.33 15.54
2 22 6 189.22 17.06
2 -23 6 1.85 3.31
2 -23 6 6.26 4.27
-2 0 -7 0.77 0.56
-2 0 -7 0.41 0.95
2 0 -7 -0.74 0.76
2 0 7 -4.82 9.92
-2 0 -7 2.39 2.32
-2 0 -7 1.76 1.09
2 0 -7 0.75 0.64
-2 0 -7 -0.36 0.9
2 0 -7 0.35 0.54
2 0 -7 0.29 0.44
-2 0 7 6.36 6.55
-2 0 7 -1.06 3.62
-2 0 -7 0.46 1.17
2 0 7 -3.63 6.48
-2 0 7 -5.07 9.05
-2 0 -7 1.07 1.35
-2 0 -7 -0.77 1.77
-2 1 -7 3.25 1.11
-2 -1 -7 3.11 0.98
-2 1 -7 5.12 1.68
2 1 -7 2.19 1.69
-2 -1 -7 1.28 1.09
2 -1 -7 5.98 2.32
2 1 7 -4.33 7.73
2 -1 7 4.14 7.39
2 1 -7 3.18 1.86
-2 -1 -7 8.01 2.64
-2 1 -7 2.17 3.36
-2 1 -7 2.75 1.24
-2 -1 -7 4.04 1.43
2 1 -7 4.86 1.22
-2 -1 -7 3.68 1.39
2 -1 -7 3.13 0.91
-2 1 -7 3.41 1.47
2 -1 -7 4.63 1.61
-2 -1 -7 5.28 2.18
-2 -1 7 -5.93 6.1
-2 -1 7 5.11 3.5
-2 1 7 4.41 2.79
-2 1 7 5.34 7.78
2 -1 -7 2.71 0.97
2 -1 7 3.78 5.51
-2 1 -7 4.51 1.75
-2 -1 7 -4.31 8.88
-2 1 7 -4.25 6.19
-2 1 -7 6.84 2.26
-2 -1 -7 2.94 1.82
-2 -1 -7 3.88 2.65
-2 1 -7 3.75 2.19
-2 -2 -7 257.2 16.77
2 2 -7 271.63 19.89
-2 2 -7 273.09 15.53
-2 -2 -7 277.13 17.52
2 -2 -7 269.5 20.15
-2 -2 -7 282.73 14.77
-2 2 -7 261.97 16.35
-2 -2 7 289.77 20.69
-2 2 -7 241.32 21.56
2 2 -7 272.86 18.93
-2 -2 -7 295.55 17.27
2 2 -7 254.34 15.44
-2 -2 -7 275.37 18.2
2 -2 -7 240.2 16.3
-2 -2 -7 251.73 15.96
-2 2 -7 236.39 16.56
2 -2 -7 188.42 13.69
-2 2 7 298.12 23.56
-2 2 -7 264.63 17.23
-2 -2 7 317.12 44.7
2 -2 -7 214.63 14.93
2 -2 7 294.52 18.97
2 2 7 270.57 32.13
2 -2 7 261.69 35.69
-2 -2 -7 257.26 18.93
-2 2 -7 255.94 17.3
-2 2 7 301.06 37.75
-2 2 -7 301.8 20.44
2 -2 -7 289.94 15.17
-2 -3 7 36.97 6.4
2 3 -7 35.96 5.79
-2 3 -7 31.14 3.74
-2 3 -7 36.53 7.51
2 3 -7 34.81 5.45
2 -3 7 35.67 13.48
-2 3 -7 42.36 4.39
-2 -3 -7 35.78 3.13
-2 -3 -7 40.65 4.81
-2 -3 -7 33.02 3.74
-2 3 -7 25.84 4.11
2 -3 -7 37.02 4.53
2 3 -7 32.93 3.76
-2 -3 -7 36.67 4.02
-2 -3 -7 38.44 5.11
-2 3 -7 37.68 4.71
-2 3 7 64.34 9.85
-2 -3 7 4.52 14.07
2 -3 7 41.04 5.66
2 3 7 22.18 10
-2 3 7 35.54 13.01
-2 -3 -7 32.23 5.86
-2 3 -7 36.77 4.59
-2 3 -7 49.13 6.88
2 -3 -7 34.91 3.38
2 4 -7 226.02 16.96
-2 4 -7 220.57 13.62
-2 -4 -7 204.47 11.78
-2 -4 7 198.54 16.93
-2 -4 -7 135.05 11.25
-2 -4 -7 203.43 14.23
2 4 -7 215.31 16
-2 4 -7 262.83 19.3
2 -4 -7 224.05 14.58
-2 -4 -7 208.41 12.93
-2 -4 -7 199.35 14.7
2 4 -7 204.72 13.19
-2 4 -7 194.32 14.21
2 -4 7 203.36 15.34
-2 4 7 204.86 31.16
-2 -4 7 250.87 35.83
-2 4 7 237.05 21.13
-2 4 -7 217.09 14.34
2 4 7 185.92 24.67
2 4 7 265.4 31.61
-2 -4 -7 230.61 17.84
-2 -4 7 220.48 29.39
-2 4 7 206.55 28.5
2 -4 7 226.46 29.71
2 -4 -7 200.39 12.42
-2 4 -7 213.76 16.94
-2 -5 -7 -0.44 1
-2 -5 7 -0.83 1.2
-2 -5 -7 0.33 0.56
2 5 -7 -0.64 1.13
2 5 7 -2.73 7.43
2 -5 7 8.16 7.41
-2 5 -7 -1.64 2.54
-2 5 -7 -0.38 1.23
-2 -5 -7 1.47 1.34
-2 5 -7 -0.48 1.21
2 -5 -7 -0.48 1.22
2 5 -7 0.34 0.85
-2 -5 -7 0.52 0.65
-2 5 -7 0.4 1.23
-2 5 7 2.76 3.18
-2 -5 7 3.7 7.62
-2 5 7 6.84 7.87
2 -5 7 -0.57 1.18
2 5 7 -2.07 4.77
2 -5 7 2.27 6.19
-2 5 -7 0.75 1.09
-2 -5 7 5.37 4.79
-2 5 7 2.66 6.12
2 -5 -7 0.51 0.88
-2 -5 -7 -0.9 2.46
2 6 7 53.34 13.15
2 -6 7 66.22 14.43
2 6 -7 61.17 7.29
2 -6 7 52.74 6.15
-2 -6 -7 60.91 6.39
-2 -6 7 54.46 7.85
-2 -6 -7 61.14 4.59
-2 6 -7 64.78 8.49
2 -6 -7 59.3 6.78
-2 -6 -7 55.19 6.38
2 6 -7 48.1 5.55
-2 6 -7 47.9 6.12
-2 -6 -7 58.37 5.02
-2 6 7 76.69 12.06
-2 6 -7 54.86 5.84
-2 -6 7 44.79 14.49
-2 6 7 57.44 15.34
2 -6 7 65.21 7.15
2 6 7 52.47 11.7
2 -6 7 67.22 13.66
-2 -6 7 62.57 14.19
-2 6 7 39.55 11.48
-2 -6 -7 66.52 9.71
2 6 7 52.99 4.73
-2 6 -7 71.36 8.59
-2 -7 7 46.18 7.14
-2 7 -7 33.34 5.27
2 7 -7 38.15 5.68
2 7 -7 40.4 5.74
-2 -7 -7 41.82 5.32
2 -7 7 56.55 6.09
-2 7 -7 52.12 7.16
-2 -7 -7 32.92 3.48
2 7 7 47.88 12.5
-2 -7 -7 39.51 5.29
2 -7 -7 47.5 6.17
2 7 -7 30.93 4.76
-2 7 -7 35.37 5.33
-2 7 7 51.24 13.69
2 7 7 35.02 9.34
-2 7 7 39.87 9.29
-2 7 -7 50.03 5.1
-2 -7 7 48.78 14.36
2 -7 7 43.2 5.83
2 -7 7 51.28 11.32
-2 7 -7 40.5 6.66
-2 -7 7 38 10.86
-2 7 7 44.54 11.26
2 7 7 43.05 4.19
-2 -7 -7 61.15 9.29
-2 -8 7 8.76 3.14
2 -8 7 4.2 1.9
2 8 -7 8.06 2.49
2 8 7 2.28 4.7
-2 8 -7 8.33 3.13
-2 -8 -7 7.01 2.33
-2 8 -7 6.52 2.39
-2 8 7 5.64 1.59
2 8 -7 3.08 2.03
2 -8 -7 7.26 2.57
2 -8 7 9.32 2.64
-2 8 7 22.96 8.87
-2 8 7 5.55 4.27
-2 -8 7 6.2 7.83
-2 8 -7 7.81 1.96
-2 8 -7 4.58 2.1
-2 -8 7 11.4 6.65
-2 8 7 6.73 4.63
-2 -8 -7 6.49 4.02
-2 8 7 8.7 3
2 8 7 6.34 1.73
-2 9 -7 0.68 2.21
-2 -9 7 1.8 1.61
2 -9 7 3.3 1.7
2 9 -7 1.86 1.43
-2 -9 -7 2.57 1.4
2 -9 -7 0.75 1.54
-2 9 7 1.68 1.25
-2 9 -7 0.64 1.32
2 9 -7 3.77 1.83
2 -9 7 3.56 1.83
-2 -9 7 2.97 6.12
-2 9 7 -2.76 2.84
-2 -9 7 2.2 3.21
-2 9 7 4.33 4.98
-2 -9 -7 1.46 2.6
-2 9 7 0.75 1.72
2 9 7 -0.69 1.12
-2 9 -7 0.9 0.54
-2 -10 7 43.66 6.94
-2 10 -7 30.1 5.29
2 -10 7 37.67 5.23
2 10 -7 42.67 5.7
-2 10 7 23.63 3.76
-2 10 -7 33.07 5.62
2 10 -7 32.44 5.32
2 -10 -7 36.42 6.42
-2 -10 -7 23.82 5.81
-2 -10 -7 34.97 4.93
2 -10 7 31.76 5.03
-2 10 7 32.74 9.45
-2 -10 7 19.95 8.44
-2 10 7 31.63 9.91
-2 -10 7 31.73 9.62
-2 10 7 12.45 7.56
-2 -10 -7 27.19 6.74
2 10 7 30.89 4.18
-2 10 -7 25.34 2.71
-2 10 7 36.67 6
2 -11 7 7.94 2.61
2 11 -7 7.62 2.63
-2 11 -7 7.3 3.22
-2 -11 -7 1.21 3.31
-2 11 7 8.36 2.46
2 11 7 10.71 1.99
-2 11 -7 7.49 2.8
2 11 -7 11.15 3.32
2 -11 -7 3.8 3.11
-2 -11 -7 5.36 2.16
2 -11 7 5.69 2.45
-2 11 7 2.53 5.23
-2 -11 7 16.47 8.49
-2 -11 7 4.09 2.19
-2 -11 7 4.1 4.23
-2 11 7 -4.02 3.6
-2 -11 -7 4.94 4.23
-2 11 7 11.28 3.72
2 11 7 10.68 2.73
2 12 -7 760.28 43.13
2 12 -7 664.59 42.17
2 -12 7 706.27 42.41
-2 -12 -7 567.71 45.39
-2 -12 -7 677.12 41.7
-2 12 -7 646.2 43.71
2 -12 -7 636 45.45
2 -12 7 799.99 43.36
-2 -12 7 624.51 56.55
-2 12 7 566.74 53.58
2 12 7 760.83 41.55
-2 -12 -7 689.91 46.8
-2 12 7 624.59 52.08
-2 -12 7 614.12 52.11
-2 12 7 792.55 45.11
2 -13 7 16.41 3.93
2 13 -7 18.84 4.03
-2 13 -7 17.86 4.16
-2 -13 -7 12.67 4.81
-2 13 -7 6.36 3.46
2 13 -7 14.64 3.67
2 -13 -7 5.99 3.98
-2 -13 -7 15.94 3.53
2 -13 7 14.87 3.7
-2 -13 7 25.82 9.98
-2 13 7 23.59 8.79
-2 -13 -7 25.98 5.95
-2 13 7 9.54 5.61
-2 -13 7 25.41 8.34
-2 13 7 16.73 4.6
2 13 7 20.94 4.18
2 14 -7 110.36 11.26
2 14 -7 112.28 10.91
2 -14 7 122.41 11.62
-2 14 -7 101.66 10.59
-2 -14 -7 105.9 13.11
-2 -14 -7 103.7 10.54
2 -14 -7 83.77 12.37
2 -14 7 127.03 11.62
-2 14 7 107.9 17.37
-2 -14 7 110.12 19.09
-2 14 7 106.88 18.28
-2 14 7 134.17 13.3
2 14 7 123.51 11.36
-2 14 7 81.57 14.78
-2 -14 7 102.61 16.54
2 -15 7 0.79 1.63
2 15 -7 1.38 1.59
-2 15 -7 1.33 1.53
2 -15 -7 4.35 2.97
-2 -15 -7 1.06 1.9
-2 -15 -7 0.64 1.62
-2 15 7 -1.84 3.79
2 -15 7 0.74 1.52
-2 -15 7 2.42 4.98
-2 15 7 8.74 6.36
-2 15 7 1.8 3.71
-2 -15 7 3.7 3.81
-2 15 7 1.98 2.5
2 15 7 -0.79 1.62
2 -16 7 17.69 4.49
2 16 -7 14.29 3.9
-2 16 -7 9.37 3.32
-2 -16 -7 26.89 6.07
2 -16 -7 13.46 4.46
-2 -16 -7 17.3 4.22
-2 16 7 12.53 6.5
2 -16 7 17.84 4.44
-2 16 7 22.77 7.02
-2 -16 7 6.98 6.39
-2 -16 -7 13.5 4.51
-2 16 7 8.68 5.11
-2 16 7 23.43 5.53
-2 -16 7 5.35 5.25
2 16 7 19.55 5.04
2 -17 7 29.79 5.78
2 17 -7 26.88 5.27
-2 17 -7 18.24 4.4
2 -17 -7 26.04 5.87
-2 -17 -7 25.28 6.1
-2 -17 -7 18.15 4.89
-2 17 7 21.92 6.83
2 -17 7 26.4 5.31
-2 -17 -7 22.66 5.46
-2 17 7 28.72 6.48
2 17 7 19.86 5.58
2 -18 7 3.95 2.5
-2 18 -7 4.75 2.53
2 18 -7 1.56 1.8
-2 -18 -7 0.99 2.05
2 -18 -7 4.85 2.65
-2 -18 -7 10.17 3.7
2 -18 7 10.69 3.44
-2 18 7 8.22 4.15
-2 -18 -7 0.93 1.36
-2 18 7 3.76 3.42
2 18 7 10.46 4.67
2 -19 7 2.16 2.23
2 19 -7 1.69 1.95
2 19 -7 -0.99 2.03
-2 19 -7 0.68 2.54
-2 -19 -7 -0.97 1.72
2 -19 -7 -0.95 1.96
-2 -19 -7 1.92 2.42
-2 19 7 1.61 2.86
2 -19 7 5.81 2.99
-2 -19 -7 0.91 2.11
-2 19 7 1.39 3.19
2 19 7 -4.66 6.78
2 -20 7 200.55 19
2 -20 7 220.07 18.81
2 -21 7 5.43 3.71
2 21 7 3.88 4.62
2 -22 7 282.97 28.85
-2 0 -8 2302.02 120.57
2 0 -8 2296.72 124.2
-2 0 -8 2404.22 117.98
-2 0 -8 2418.89 119.97
2 0 -8 2087.84 122.05
-2 0 -8 2050.86 120.73
-2 0 -8 2027.64 118.74
-2 0 -8 2209.38 121.51
-2 0 -8 2382.68 124.38
-2 1 -8 8.23 2.24
-2 -1 -8 5.03 1.53
-2 1 -8 12.24 2.86
2 1 -8 4.08 2.67
-2 -1 -8 7.86 2.55
2 -1 -8 3.32 2.58
2 1 -8 8.28 3.11
-2 -1 -8 -0.69 4.31
-2 1 -8 -5.23 9.04
-2 1 -8 12.55 2.73
-2 -1 -8 7.06 2.28
-2 -1 -8 3.31 1.43
-2 1 -8 6.17 1.93
-2 -1 -8 7.6 2.81
2 -1 -8 3.92 1.07
-2 1 8 12.71 4.9
-2 -1 8 -6.65 24.69
-2 -1 8 14.71 12.37
-2 1 8 4.85 11.17
-2 1 -8 7.59 2.97
-2 -1 -8 4.53 2.92
-2 -1 -8 8.41 3.78
-2 1 -8 25.22 5.3
2 2 -8 599.1 36.96
-2 -2 -8 553.16 33.7
2 -2 -8 558.97 36.85
-2 2 -8 538.48 31.48
-2 -2 -8 589.21 30.81
-2 2 -8 595.3 32.81
-2 -2 -8 577.91 33.17
2 2 -8 534.42 35.08
-2 2 -8 544.36 39.46
2 -2 -8 502.47 32.19
-2 -2 -8 509.75 31.51
-2 -2 -8 538.31 33.71
-2 2 -8 500.03 32.34
-2 2 8 678.81 43.32
-2 -2 8 629.83 71.93
-2 -2 -8 539 35.43
-2 2 -8 563.23 33.67
-2 2 8 726.09 67.12
-2 -2 -8 536.34 36.5
-2 2 -8 607.58 37.07
-2 -3 -8 0.46 1.15
-2 3 -8 0.3 1.25
-2 -3 -8 -0.19 0.89
-2 3 -8 -1.03 3.53
2 3 -8 -0.8 0.82
-2 -3 -8 0.53 1.22
-2 -3 -8 -0.31 1.58
2 3 -8 -2.06 2.45
2 -3 -8 -0.86 1.77
-2 3 -8 1.46 1.3
-2 3 -8 1.31 1.35
-2 -3 -8 2.06 1.59
2 -3 -8 0.42 0.97
-2 -3 -8 -0.56 0.96
-2 3 8 -1.39 3.79
-2 -3 8 -5.11 10.52
2 -3 -8 0.7 1.05
-2 3 8 3.75 6.68
-2 -3 -8 0.79 2.29
-2 3 -8 0.46 1.5
-2 3 -8 -4.03 3.1
-2 4 -8 99.61 8.03
2 4 -8 98.41 10.53
2 4 -8 88.9 9.64
-2 -4 -8 105.1 6.7
-2 4 -8 99.59 11.78
-2 -4 -8 94.96 8.8
2 -4 -8 81.33 8.17
-2 -4 -8 79.05 6.8
-2 4 -8 81.39 8.13
2 -4 8 99.35 9.57
-2 4 8 100.23 14.07
-2 -4 8 96.17 24.06
-2 4 8 113.07 24.1
-2 -4 -8 106.69 11.44
-2 -4 8 104.96 21.46
-2 4 8 100.75 20.43
2 -4 -8 92.29 7.05
-2 4 -8 82.96 10.07
2 5 -8 27.59 4.94
-2 -5 -8 29.99 3
-2 5 -8 34.13 6.44
-2 5 -8 25.8 3.9
-2 -5 -8 23.85 4.11
-2 5 -8 32.15 4.51
2 -5 -8 31.61 4.6
-2 -5 -8 26.96 3.13
-2 5 8 34.3 8.47
2 -5 8 26.65 4.73
-2 5 8 34.59 13.21
-2 -5 8 37.63 14.35
-2 5 -8 32.48 5.68
-2 -5 -8 30.45 6.56
-2 -5 8 24.73 10.66
-2 5 8 36.74 12.3
2 -5 -8 26.42 3.34
2 6 -8 17.02 3.87
-2 6 -8 22.38 4.98
-2 -6 -8 17.97 2.3
-2 6 -8 17.45 3.46
-2 -6 -8 20.39 3.7
-2 6 -8 13.23 3.2
-2 -6 -8 14.41 4.71
2 -6 -8 14.03 3.38
2 6 -8 21.26 4.18
-2 -6 -8 19.5 2.45
-2 6 8 14.97 6
-2 6 8 7.15 7.41
2 -6 8 11.53 3.12
-2 6 -8 19.25 4.56
-2 -6 8 25.96 9.89
-2 6 8 22.84 9.79
-2 -6 -8 22.19 5.66
2 -6 -8 13.73 2.53
2 -7 8 -0.57 1.45
2 7 -8 0.67 1.54
-2 7 -8 -0.53 1.72
-2 7 -8 0.57 1.16
2 -7 -8 0.62 1.81
2 7 -8 0.66 1.51
-2 -7 -8 -2.48 4.94
-2 7 8 1.81 3.23
-2 -7 8 3.64 6.5
-2 7 8 -3.37 6.94
2 -7 8 1.83 1.54
-2 7 -8 0.84 1.5
-2 -7 8 -2.72 4.84
-2 7 8 -2.68 5.53
2 8 -8 878.02 51.67
2 8 -8 875.94 51.64
2 -8 8 900.25 51.12
-2 8 -8 866.43 52.5
-2 -8 -8 639.35 54.22
2 -8 -8 957.97 52.52
-2 8 -8 746.35 50.25
-2 -8 -8 898.61 50.46
-2 8 8 1148.44 68.09
-2 -8 8 829.95 73.55
-2 8 8 873.47 72.21
2 -8 8 929.1 51.53
-2 -8 -8 830.19 57.84
-2 -8 8 875.37 68.15
-2 8 8 842.09 67.33
2 8 8 867.56 47.94
-2 8 -8 878.65 53.79
2 -9 8 7.41 2.81
2 9 -8 10.7 3.19
-2 9 -8 6.56 3.93
2 9 -8 7.55 3.27
-2 9 -8 7.85 2.89
2 -9 -8 2.34 3.33
-2 -9 -8 7.23 4.49
-2 -9 -8 12.79 3.23
-2 9 8 -3.06 6.32
-2 -9 8 9.93 8.36
-2 9 8 8.83 6.45
2 -9 8 14.2 3.56
-2 9 8 2.46 6.22
-2 -9 8 12.52 6.84
-2 -9 -8 9.44 5.62
2 9 8 8.74 2.31
2 10 -8 1491.36 81.45
2 10 -8 1410.73 80.9
2 -10 8 1531.19 81.13
-2 10 -8 1387 81.22
-2 -10 -8 1302.54 84.9
-2 -10 -8 1372.94 79.52
2 -10 -8 1632.59 84.16
-2 10 -8 1305.57 80.76
-2 10 8 1863.68 103.73
-2 -10 8 1348.15 101.96
-2 10 8 1301.35 100.06
2 -10 8 1548.81 81.02
-2 -10 -8 1105 85.74
-2 10 8 1324.98 95.61
-2 -10 8 1207.06 94.3
-2 10 8 1583.11 83.27
2 10 8 1442.69 78.07
2 -11 8 0.67 2.18
2 11 -8 -0.68 2.51
-2 11 -8 -4.94 3.64
-2 11 -8 0.76 2.36
2 -11 -8 -3.94 4.18
-2 -11 -8 -2.21 4.11
-2 -11 -8 -0.56 1.82
2 11 -8 -0.71 2.53
2 -11 8 -0.64 2.37
-2 11 8 -2.73 5.62
-2 -11 8 -3.09 7.11
-2 11 8 2.84 6.55
-2 -11 -8 -1.35 5.72
-2 11 8 -2.3 5.29
-2 -11 8 -4.69 5.92
-2 11 8 -1.71 3.29
2 11 8 -0.43 2.02
2 12 -8 641.56 38.55
2 12 -8 615.66 37.96
2 -12 8 600.49 37.89
-2 12 -8 534.64 37.28
-2 -12 -8 601.85 41.15
-2 -12 -8 602.36 36.93
2 -12 -8 581.05 41.1
-2 12 -8 519.39 38.15
-2 -12 8 554.17 53.91
-2 12 8 590.47 53.24
2 -12 8 659.31 38.01
-2 -12 -8 583.27 42.33
-2 12 8 504.69 47.72
-2 -12 8 509.11 48.52
-2 12 8 703.17 40.63
2 12 8 612.05 35.98
2 -13 8 0.74 1.86
2 13 -8 0.69 1.43
-2 13 -8 0.7 2.28
-2 -13 -8 3.15 2.42
-2 13 -8 0.92 2.49
2 13 -8 -0.75 2.19
2 -13 -8 2.48 2.85
-2 -13 -8 -1.23 1.78
-2 -13 8 2.9 2.99
2 -13 8 1.35 1.56
-2 13 8 -2.65 5.46
-2 13 8 -2.18 5.01
-2 -13 -8 -1.17 3.81
-2 -13 8 2.23 3.25
-2 13 8 -1.87 2.36
2 13 8 0.53 1.55
2 -14 8 42.16 6.84
-2 14 -8 45.35 7.08
2 14 -8 52.93 7.36
2 14 -8 52.34 7.16
-2 -14 -8 63.6 9.21
-2 14 -8 50.81 8.51
-2 -14 -8 48.16 6.65
2 -14 -8 55.07 9.95
2 -14 8 55.55 7.24
-2 14 8 44.14 11.52
-2 -14 8 53.43 14.71
-2 14 8 30.64 11.75
-2 -14 -8 42.16 8.09
-2 14 8 57.82 8.48
-2 14 8 65.41 13.47
-2 -14 8 64.93 13.44
2 14 8 47.75 6.64
2 -15 8 12.37 3.75
2 15 -8 13.92 3.82
-2 15 -8 6.99 3.42
-2 15 -8 9.17 4.13
2 15 -8 9.54 3.42
2 -15 -8 9.47 4.26
-2 -15 -8 9.06 4.05
-2 -15 -8 8.08 3.15
2 -15 8 14.73 3.98
-2 -15 8 10.88 6.88
-2 15 8 9.83 6.72
-2 15 8 23.63 8.59
-2 15 8 28.79 5.92
2 15 8 11.46 3.52
2 -16 8 14.91 4.3
2 16 -8 18.81 4.44
-2 16 -8 9.1 3.54
-2 -16 -8 11.55 3.79
2 -16 -8 15.61 5.06
-2 16 -8 13.06 5.09
2 16 -8 23.55 5.1
-2 -16 -8 3.97 3.75
2 -16 8 21.73 4.65
-2 16 8 12.2 6.32
-2 16 8 20.66 5.53
2 16 8 17.67 4.6
2 -17 8 0.94 2.73
-2 17 -8 -1.41 2.81
-2 17 -8 3.02 3.47
2 -17 -8 -1.06 2.9
-2 -17 -8 -0.79 2.45
2 -17 8 -0.83 2.69
-2 17 8 -1.93 4.45
-2 17 8 1.16 2.93
2 17 8 0.89 2.73
2 -18 8 525.82 36.77
2 18 8 490.23 37.08
2 -19 8 12.06 4.81
2 19 8 4.83 4.99
2 -20 8 477.64 36.82
-2 0 -9 0.53 1.09
2 0 -9 -0.9 1.85
2 0 -9 0.74 1.08
-2 0 -9 0.91 2.65
-2 0 -9 -2.12 4.89
-2 0 -9 -0.34 0.86
-2 0 -9 1.65 1.39
-2 0 9 6.12 6.3
-2 0 -9 1.28 1.61
-2 0 -9 4.38 2.39
-2 -1 -9 3.29 1.79
2 1 -9 0.89 1.59
2 -1 -9 0.91 1.62
2 1 -9 1.48 1.52
2 -1 -9 0.75 1.89
-2 -1 -9 3.95 2.71
-2 1 -9 -1.21 5.96
-2 -1 -9 1.85 1.01
-2 1 -9 1.85 1.15
-2 -1 -9 -2.37 8.1
-2 -1 -9 7.45 2.57
-2 1 -9 2.26 1.65
-2 1 -9 4.5 4.64
-2 -1 9 7 12.49
-2 1 -9 2.35 2.01
-2 1 9 5.26 9.38
-2 -1 -9 0.7 2.16
-2 -1 9 -5.29 12.19
-2 -1 -9 3.55 2.42
-2 1 -9 0.87 2.01
2 2 -9 368.63 24.89
-2 -2 -9 330.36 21.66
2 -2 -9 326.72 24.51
2 2 -9 332.49 23
-2 2 -9 252.23 25.34
-2 2 -9 275.7 24.89
-2 -2 -9 386.2 33.15
2 -2 -9 280.4 19.62
-2 -2 -9 317.75 21.05
-2 2 -9 318.91 21.49
-2 2 -9 261.74 19.38
-2 -2 9 314.32 50.92
-2 -2 -9 334.98 23.38
-2 2 -9 310.89 21.14
-2 2 9 300.87 45.29
-2 -2 -9 338.06 24.53
-2 2 -9 343.36 24.36
-2 3 -9 11.58 2.62
2 3 -9 13.8 3.83
-2 -3 -9 11.67 3.14
2 -3 -9 13.98 4.01
2 3 -9 14 3.7
-2 3 -9 7.67 4.83
-2 3 -9 11.72 2.73
-2 -3 -9 14.94 3.17
2 -3 -9 10.92 2.67
-2 3 -9 15.78 4.72
-2 -3 -9 20.89 7.05
-2 -3 9 5.51 9.85
-2 3 -9 16.41 4.41
-2 3 9 8.25 8.52
-2 -3 -9 12.63 4.03
-2 3 -9 13.02 3.08
-2 -3 -9 22.12 5.15
-2 4 -9 30.22 4.23
2 4 -9 33.17 6.04
2 4 -9 36.78 5.85
-2 -4 -9 26.07 4.75
2 -4 -9 37.04 6.76
-2 4 -9 35.22 6.99
-2 -4 -9 28.79 4.48
-2 4 -9 24.2 4
2 -4 -9 29.72 4.39
-2 -4 -9 45.8 8.99
-2 -4 9 44.89 17.87
-2 4 9 40.79 14.85
-2 4 -9 46.91 7.18
-2 -4 9 37.53 14.03
-2 4 9 37.31 14.47
-2 -4 -9 37.37 6.66
2 -5 -9 1.93 2.23
-2 -5 -9 1.26 1.45
2 5 -9 -0.72 1.83
-2 5 -9 -1.83 3.27
-2 5 -9 -0.87 1.67
-2 -5 -9 0.51 1.06
-2 5 -9 -0.5 1.25
2 -5 -9 -1.05 1.62
2 5 -9 -0.68 1.4
-2 -5 -9 1.29 3.25
-2 5 9 1.73 3.09
-2 -5 9 -4.58 9.43
-2 5 9 8.38 8.63
-2 -5 -9 1.05 2.64
-2 5 -9 0.89 1.59
-2 5 9 3.42 7.05
-2 -5 9 3.45 6.16
-2 6 -9 129.46 13.37
2 6 -9 123.61 11.89
2 6 -9 128.08 12.05
-2 -6 -9 123.26 14.96
2 -6 -9 135.59 11.54
-2 -6 -9 117.46 10.61
-2 6 -9 102.2 10.22
-2 6 9 151.52 19.66
-2 -6 9 136.72 27.19
-2 6 9 105.98 23.43
-2 -6 -9 132.03 15.01
-2 6 9 182.54 27.37
-2 -6 9 145.49 25.32
-2 6 -9 158.97 14.38
2 7 -9 9.93 3.32
-2 7 -9 9.15 4.57
-2 7 -9 10.17 3.13
-2 -7 -9 14.81 3.41
-2 7 -9 14.85 3.53
-2 -7 -9 8.07 5.47
2 -7 -9 8.3 3.21
2 7 -9 17.62 4.45
2 -7 9 9.34 2.86
-2 7 9 15.96 7.14
-2 -7 9 12.09 10.99
-2 7 9 18.57 11.48
-2 7 -9 13.91 4.6
-2 7 9 9.05 8.24
-2 -7 9 12.22 8.92
-2 -7 -9 5.3 5.49
2 8 -9 618.05 37.67
2 8 -9 604.11 37.32
-2 -8 -9 588.17 40.89
2 -8 -9 613.89 37.54
-2 -8 -9 603.76 35.74
-2 8 -9 485.66 35.46
-2 8 9 688.83 51.67
-2 -8 9 541.07 57.86
-2 8 9 547.79 56.36
2 -8 9 615.87 36.8
-2 -8 -9 535.88 42.76
-2 8 9 610.81 54.35
-2 -8 9 526.11 52.36
2 -9 9 0.68 1.98
2 9 -9 0.71 1.79
-2 9 -9 1.52 2.71
-2 -9 -9 -1.07 2.7
2 9 -9 0.73 1.98
-2 9 -9 0.65 1.9
2 -9 -9 -0.79 2.83
-2 -9 -9 1.63 1.48
-2 9 9 -2.37 4.89
-2 -9 9 3.67 6.55
-2 9 9 -3.38 4.92
2 -9 9 3.8 2.26
-2 -9 -9 8.31 4.84
-2 9 9 2.77 5.7
-2 -9 9 2.81 5.02
-2 -10 9 8.91 3.98
2 -10 9 4.21 2.05
2 10 -9 3.57 2.33
-2 10 -9 2.98 2.55
-2 10 -9 2.82 2.31
2 -10 -9 3.57 2.6
2 10 -9 4.45 2.42
-2 -10 -9 3.91 1.92
-2 -10 -9 7.25 3.38
-2 -10 9 -3.54 5.16
-2 10 9 13.13 7.16
-2 10 9 -3.25 6.7
2 -10 9 6.42 2.57
-2 -10 -9 1.64 3.79
-2 10 9 -2.66 7.75
-2 -10 9 8.14 6.84
-2 -11 9 5.69 3.32
2 -11 9 3.64 2.12
2 11 -9 5.03 2.45
-2 11 -9 -0.73 1.85
-2 11 -9 0.76 1.57
2 -11 -9 4.03 2.93
2 11 -9 0.76 1.93
-2 -11 -9 2.31 1.88
-2 -11 -9 5.06 3.13
-2 -11 9 13.67 8.62
-2 11 9 5.81 5.18
-2 11 9 -3.14 7.22
2 -11 9 0.65 1.77
-2 -11 -9 1.47 2.14
-2 -11 9 -2.63 5.42
-2 -12 9 36.3 7.16
2 -12 9 28.76 5.34
2 12 -9 28.84 5.21
-2 12 -9 22.53 5.15
-2 12 -9 23.19 5.22
2 -12 -9 32.75 7.11
2 12 -9 29.68 5.56
-2 -12 -9 21.97 5.61
-2 -12 -9 24.77 4.69
-2 -12 9 9.93 8.46
-2 12 9 33.31 12.15
2 -12 9 28.51 5.06
-2 -12 -9 22.95 6.36
-2 12 9 27.47 9.72
-2 -12 9 25.54 9.58
-2 -13 9 1.21 3.05
2 -13 9 3.15 2.31
2 13 -9 6.55 2.6
-2 13 -9 4.35 2.49
-2 13 -9 6.34 3.37
2 13 -9 3.23 2.36
2 -13 -9 2.53 2.92
-2 -13 -9 2.96 2.88
-2 -13 -9 5.04 2.61
-2 -13 9 12.83 8.74
-2 13 9 2.92 6.74
2 -13 9 2.03 2.32
-2 13 9 10.64 3.73
-2 -13 -9 8.82 4.31
-2 14 -9 2 3.11
-2 -14 -9 8.66 3.85
-2 -14 -9 9.83 3.04
2 -14 -9 5.67 3.88
-2 -14 9 17.55 5.18
2 -14 9 9.86 3.51
2 14 -9 8.2 3.45
-2 14 -9 2.88 2.6
-2 14 9 14.07 4.53
-2 15 -9 -1.11 3.03
-2 -15 -9 -0.7 2.17
2 -15 9 0.86 1.78
-2 15 -9 -0.72 3.23
-2 15 9 2.11 2.66
2 -16 9 416.35 30.23
2 -17 9 8.66 3.86
-2 0 -10 282.3 18.36
2 0 -10 252.82 20.98
2 0 -10 253.94 19.5
-2 0 -10 232.77 17.3
-2 0 10 120.22 37.62
-2 0 -10 227.16 18.25
-2 0 10 116.86 34.45
-2 0 -10 264.51 20.84
-2 -1 -10 8.87 2.84
2 1 -10 15.27 4.43
2 -1 -10 6.86 3.07
2 1 -10 10.13 3.54
2 -1 -10 10.99 3.47
-2 -1 -10 9.86 2.77
-2 1 -10 12.53 3.26
-2 -1 -10 5.97 4.29
-2 -1 10 7.45 13.3
-2 -1 -10 7.36 3.26
-2 1 -10 11.24 3.32
-2 1 10 11.32 13.04
-2 -1 -10 13.04 4.92
-2 1 -10 19.19 5.01
2 2 -10 218.17 19.86
-2 -2 -10 263.67 18.46
2 -2 -10 266.36 21.32
2 2 -10 246.54 19.27
2 -2 -10 253.76 19.53
-2 -2 -10 242.91 17.37
-2 2 -10 212.87 17.09
-2 -2 -10 230.3 24.73
-2 -2 10 218.3 45.39
-2 -2 -10 259.56 19.93
-2 2 -10 230.43 17.7
-2 -2 -10 276.42 21.3
-2 2 10 216.06 37.63
-2 2 -10 247 20.36
2 3 -10 1.84 2.51
-2 -3 -10 2.53 2.25
2 -3 -10 2 2.52
2 3 -10 -0.77 2.98
2 -3 -10 4.79 2.85
-2 -3 -10 0.51 2.79
-2 3 -10 1.15 1.88
2 3 -10 2.83 2.82
-2 -3 -10 -10.17 13.41
-2 3 10 32.01 14.53
-2 -3 10 -29.76 22.09
-2 3 -10 -1.83 2.98
-2 3 10 4.51 11.38
-2 -3 -10 0.96 5.39
-2 -4 -10 1124.89 62.42
2 -4 -10 1078.99 65.85
2 4 -10 1065.44 62.7
2 4 -10 1097.09 63.24
-2 4 -10 915.74 64.93
-2 4 -10 1047.7 61.42
2 -4 -10 929.95 59.92
-2 -4 -10 1079.89 60.8
-2 -4 -10 1097.32 72.04
-2 4 10 1045.59 95.64
-2 -4 10 1152.95 103.05
-2 -4 -10 1154.37 66.05
-2 4 10 1065.25 91.03
-2 -4 10 979.24 88.68
-2 -4 -10 1167.14 66.2
-2 4 -10 1307.54 66.86
2 5 -10 30.58 5.75
-2 -5 -10 30.89 5.38
2 -5 -10 22.7 5.68
-2 5 -10 19.83 7.33
-2 -5 -10 25.85 4.62
2 -5 -10 22.89 4.61
2 5 -10 39.19 6.35
-2 -5 -10 6.76 7.61
-2 -5 10 39.87 18.55
-2 5 10 -9.07 18.71
-2 5 -10 36.22 7.59
-2 -5 10 18.99 12.44
-2 5 10 41.5 16.07
-2 -5 -10 29.91 6.94
-2 -5 -10 27.21 7.88
-2 -6 -10 631.6 37.95
2 -6 -10 631.25 41.46
2 6 -10 596.41 37.88
2 6 -10 624.79 38.23
-2 6 -10 472.07 38.45
2 -6 -10 537.26 36
-2 -6 -10 585.23 35.89
-2 -6 -10 630.64 43.29
-2 -6 10 636.82 66.63
-2 6 10 624.47 63.82
-2 -6 -10 653.81 43.25
-2 6 10 578.99 57.79
-2 -6 10 559.43 58.18
-2 6 -10 614.89 40.01
-2 -7 10 -1.13 2.86
2 7 -10 1.47 2.28
-2 -7 -10 2.9 2.24
-2 7 -10 -2.47 5.94
2 -7 -10 0.64 2.19
2 7 -10 0.75 2.17
-2 -7 -10 -0.53 2.17
-2 -7 10 4.39 6.39
-2 7 10 -8.05 10.15
-2 7 10 -3.33 6.86
-2 -7 -10 -6.88 4.48
-2 -7 10 -3.37 6.94
2 8 -10 241.61 18.07
2 8 -10 227.94 17.49
-2 8 -10 132.59 17.05
-2 -8 10 255.91 21.16
2 -8 -10 215.89 17.59
-2 -8 -10 210.66 15.84
-2 -8 -10 219.62 20.42
-2 -8 10 225.6 36.07
-2 8 10 168.68 30.95
-2 -8 -10 226.93 23.26
-2 8 10 168.34 27.73
-2 -8 10 199.57 29.57
-2 -9 10 24.54 6.07
2 9 -10 11.86 3.66
-2 9 -10 6.94 3.64
-2 9 -10 19.87 4.19
-2 -9 -10 15.17 4.83
2 -9 -10 14.21 4.66
2 9 -10 16.22 4.49
-2 -9 -10 20.36 4.16
-2 -9 10 28.03 13.06
-2 9 10 18.37 10.73
-2 9 10 21.27 9.42
-2 -9 10 9.26 8.45
-2 -9 -10 8.64 5.95
2 10 -10 37.78 5.99
-2 10 -10 13.63 5.14
-2 10 -10 28.98 5.28
-2 -10 -10 27.52 6.24
2 -10 -10 33.53 6.52
2 10 -10 30.68 5.68
-2 -10 -10 28.54 4.7
-2 -10 10 42.36 15.42
-2 10 10 21.2 12.15
-2 -10 -10 27.34 8.52
-2 11 -10 -5.21 3.67
-2 11 10 -3.4 8.58
-2 -11 10 3.71 7.65
-2 -11 -10 0.95 2.78
-2 11 -10 1.48 1.53
2 -11 -10 0.99 2.51
-2 -11 -10 8.34 2.67
-2 12 -10 101.23 12.58
-2 -12 -10 159.2 12.71
2 -12 -10 163.48 16.77
-2 12 -10 67.25 12.4
2 -12 10 184.77 14.77
-2 13 -10 -1.74 2.69
-2 -13 -10 0.64 2.56
2 -13 10 0.83 1.9
2 0 -11 -0.72 1.66
2 0 -11 1.62 1.66
-2 0 -11 2.1 2.16
-2 0 -11 0.95 1.7
2 1 -11 5.1 2.71
2 1 -11 4.02 2.49
2 -1 -11 3.25 2.38
-2 1 -11 3.8 2.94
-2 -1 -11 6.07 2.71
-2 1 -11 1.29 2.32
-2 -1 -11 6.73 4.2
2 2 -11 155.11 14.35
2 -2 -11 173.05 15.12
2 2 -11 160.52 14.3
-2 -2 -11 151.56 14.78
-2 -2 -11 157.43 15.51
-2 2 -11 159.08 15.5
2 3 -11 3.71 2.67
2 3 -11 9.33 3.12
2 -3 -11 4.11 2.26
-2 3 -11 7.76 3.75
-2 -3 -11 9.02 3.73
-2 -3 -11 6.88 3.66
2 4 -11 127.58 12.28
2 4 -11 100.07 11.32
2 -4 -11 136.95 12.94
-2 -4 -11 111.13 13.25
-2 -4 -11 140.15 14.08
-2 4 -11 116.86 13.05
2 -5 -11 0.84 1.73
-2 5 -11 0.94 2.17
-2 -5 -11 1.1 2.27
-2 -5 -11 -1.01 2.76
2 -6 -11 42.54 6.73
-2 -6 -11 40.52 7.34
-2 -7 -11 12.45 4.67
-2 -8 -11 11.23 4.36
3 0 0 0.27 0.44
3 0 0 -0.35 0.72
3 0 0 -0.39 0.89
-3 0 0 1.22 0.89
3 0 0 -0.32 0.73
3 -1 0 145 9.16
3 -1 0 137.9 9.02
-3 -1 0 153.79 9.57
-3 -1 0 144.17 10.88
3 1 0 153.6 10.95
3 -1 0 149.39 10.87
3 1 0 154.83 11.25
3 -1 0 148.01 11.04
-3 -1 0 148.36 10.48
-3 1 0 150.62 10.46
3 1 0 151.66 10.68
3 -1 0 152.62 10.57
-3 1 0 151.92 10.48
3 -2 0 -0.16 0.43
-3 -2 0 0.41 0.52
3 -2 0 0.68 0.52
3 2 0 1.07 0.98
3 -2 0 0.35 0.73
-3 -2 0 0.37 0.54
3 2 0 1.57 1.14
-3 -2 0 0.31 0.79
-3 2 0 0.59 0.96
3 -2 0 -0.38 0.68
3 -2 0 0.61 0.82
-3 2 0 -0.29 0.74
-3 -3 0 1596.94 86.22
-3 -3 0 1579.52 86.34
3 -3 0 1545.44 85.86
3 3 0 1651.08 86.54
-3 -3 0 1652.12 87.95
3 3 0 1731.53 88
3 -3 0 1687.59 87.96
-3 -3 0 1604.91 87.29
3 -3 0 1612.01 88.08
-3 3 0 1577.39 87.04
3 3 0 1683.7 88.27
3 -3 0 1652.83 87.16
-3 3 0 1609.66 87.11
3 -4 0 0.58 0.75
-3 -4 0 0.46 0.86
3 4 0 0.47 0.81
-3 -4 0 0.24 0.78
3 4 0 -0.74 1.26
-3 -4 0 -0.34 1.54
3 -4 0 1.44 1.43
-3 -4 0 0.39 1.12
3 -4 0 0.81 1.1
-3 -4 0 0.99 1.13
3 4 0 1.21 1.31
-3 4 0 -2.16 1.59
-3 4 0 -0.35 1.02
3 -4 0 0.3 1.18
-3 -5 0 4791.62 257.72
3 5 0 4913.33 257.54
-3 -5 0 4777.21 257.84
-3 5 0 4755.47 258.01
-3 -5 0 4849.37 259.28
-3 -5 0 4976.98 258.64
3 5 0 5111.38 259.32
3 -5 0 5134.01 259.18
-3 -5 0 5017.26 258.89
3 -5 0 4929.88 259.63
3 5 0 5071.47 259.64
-3 5 0 4873.49 258.92
3 -5 0 4958.04 258.29
-3 -6 0 -0.27 0.73
3 6 0 -0.23 0.63
-3 -6 0 0.29 0.9
3 6 0 1.18 1.21
-3 -6 0 1.93 1.24
-3 6 0 0.41 1.75
-3 6 0 0.29 0.94
-3 -6 0 -0.82 1.12
3 -6 0 1.33 1.44
-3 -6 0 0.37 0.92
3 6 0 -1.29 1.41
-3 6 0 -0.38 1.34
3 -6 0 -1.8 2.03
3 -6 0 0.59 1.05
-3 -7 0 1042.06 56.4
3 7 0 999.44 55.39
-3 7 0 1008.93 56.08
-3 -7 0 1028.65 57.35
-3 -7 0 1046.5 56.38
3 7 0 1045.78 57.38
-3 7 0 989.85 57.33
-3 -7 0 1039.36 57.04
3 -7 0 1039.67 58.01
3 7 0 998.96 56.35
-3 7 0 993.95 56.91
3 -7 0 1048.75 56.93
3 -7 0 1007.65 56.01
3 8 0 0.74 0.62
-3 -8 0 -0.36 0.73
-3 -8 0 0.33 0.76
-3 8 0 -0.45 0.8
-3 8 0 -0.31 0.83
-3 -8 0 -0.4 0.83
3 -8 0 -0.49 0.88
3 -8 0 0.62 0.95
3 8 0 -0.34 0.87
-3 8 0 0.42 0.97
3 -8 0 0.4 1.17
3 9 0 99.53 7.84
-3 -9 0 98.45 8.75
-3 -9 0 118.52 8.78
-3 9 0 110.48 8.33
-3 9 0 111.99 9.75
-3 -9 0 104.05 9.09
3 -9 0 109.86 9.9
3 9 0 108.77 8.73
-3 9 0 103.08 9.08
3 -9 0 103.87 8.37
3 -9 0 105.78 9.1
3 10 0 -0.29 0.6
-3 10 0 0.51 0.75
3 10 0 0.8 0.95
-3 10 0 -0.33 0.9
-3 -10 0 -1.06 1.15
-3 -10 0 0.45 1.13
3 -10 0 -0.56 1
-3 -10 0 -0.92 0.76
3 -10 0 -0.67 0.91
-3 10 0 -0.48 1.2
3 -10 0 -0.47 1.08
3 10 0 1.14 1.24
3 11 0 14.57 2.56
-3 -11 0 15.35 2.85
-3 11 0 19.36 2.9
-3 11 0 17.06 3.56
3 11 0 12.05 2.16
-3 -11 0 12.78 2.65
3 -11 0 21.27 4.01
-3 -11 0 16.21 3.21
-3 -11 0 8.3 1.26
3 -11 0 18.58 2.99
3 11 0 13.24 2.67
-3 11 0 15.43 3.2
3 -11 0 21.67 3.82
3 12 0 1.9 1.35
-3 -12 0 0.42 1.3
-3 12 0 0.37 0.85
-3 12 0 -0.6 1.37
3 12 0 1.16 0.99
-3 -12 0 0.4 1.02
3 -12 0 2 1.54
-3 -12 0 -1.03 1.67
3 -12 0 1.14 1.55
3 -12 0 -0.37 1.37
3 12 0 -0.42 1.15
-3 12 0 0.56 1.29
3 13 0 1461.12 78.2
3 13 0 1347.24 79.88
-3 -13 0 1496.27 79.96
-3 -13 0 1377.94 79.33
-3 13 0 1391.86 81.81
-3 -13 0 1496.66 81
3 -13 0 1454.12 82.99
3 13 0 1463.84 79.69
-3 13 0 1489.35 81.56
3 -13 0 1496.66 81.8
3 14 0 1.05 1.29
-3 -14 0 -0.52 1.68
3 14 0 -1.1 1.61
-3 14 0 0.72 1.95
-3 -14 0 0.47 1.09
3 -14 0 1.65 1.9
-3 -14 0 0.61 1.77
3 14 0 -0.47 1.29
-3 14 0 0.69 2.12
3 15 0 1611.7 89.11
-3 -15 0 1595.89 90.44
-3 15 0 1612.21 93.32
3 -15 0 1629.8 94.77
-3 15 0 1778.96 93.61
3 16 0 -1.01 2.01
-3 16 0 0.9 2.26
-3 -16 0 -0.62 2.12
3 -16 0 3.16 2.65
3 -16 0 0.85 2.47
-3 16 0 0.88 2.03
3 17 0 411.7 32.92
-3 -17 0 570.83 35.66
-3 17 0 688.59 40.19
3 -17 0 574.99 34.86
3 17 0 523.23 34.06
3 -17 0 503.88 35.2
-3 17 0 743.34 40.51
3 -18 0 0.64 2.1
3 18 0 1.1 1.7
-3 18 0 -1.16 2.07
-3 -18 0 2.56 1.96
3 -18 0 0.59 2.28
3 18 0 0.53 1.64
-3 18 0 1.17 2.69
3 18 0 0.79 1.81
3 19 0 16.38 3.38
-3 19 0 21.13 6.16
3 -19 0 23.63 4.06
3 19 0 17.7 4.27
-3 19 0 21.46 6.26
3 20 0 0.84 0.96
3 20 0 -1.1 1.96
-3 20 0 -1.5 3.1
3 -20 0 -1.62 1.67
-3 20 0 -0.6 2.32
3 20 0 2.77 2.12
-3 20 0 -1.54 3.89
3 21 0 14.71 3.09
-3 -21 0 23.3 5.68
-3 21 0 7.52 4.46
3 -21 0 32.94 7.26
3 21 0 19.36 4.69
-3 21 0 12.2 5.27
3 22 0 -1.15 1.77
-3 22 0 2.77 4.03
-3 -22 0 -0.89 2.91
3 -22 0 -1.18 2.43
3 22 0 0.85 2.14
-3 22 0 -1.42 2.92
-3 -23 0 381.36 27.89
-3 23 0 341.54 31.04
3 -23 0 382.1 30.8
-3 23 0 421.76 32.45
3 23 0 389.18 27.83
-3 24 0 2.45 3.79
-3 -24 0 0.75 2.04
-3 24 0 1.28 3.49
-3 25 0 406.57 35.51
-3 -25 0 467.77 30.99
-3 0 1 0.27 0.62
3 0 -1 -0.25 0.44
3 0 -1 0.22 0.56
-3 0 -1 0.77 0.79
3 0 -1 0.34 0.7
3 0 1 0.36 0.65
-3 0 1 0.26 0.7
3 0 1 -0.44 0.79
3 0 -1 0.34 0.7
3 0 -1 0.73 0.99
3 0 1 -0.27 0.83
-3 0 1 0.43 0.63
-3 -1 1 13.16 2.22
3 1 -1 13.58 2.12
3 -1 -1 16.6 2.38
3 1 -1 14.75 2.14
3 -1 -1 16.88 2.31
-3 -1 -1 15.21 1.51
-3 1 1 15.13 2.6
-3 -1 -1 18.72 2.96
-3 1 -1 16.54 2.84
3 1 1 20.72 3.06
3 -1 -1 13.22 2.46
3 -1 1 15 2.69
3 1 -1 19.36 2.9
3 1 1 18.56 3.2
3 1 -1 20.28 2.93
-3 -1 1 17.93 2.49
3 -1 1 15.18 2.88
-3 1 1 15.95 2.32
3 -1 -1 13.59 2.49
3 1 1 19.48 2.68
-3 1 1 13.06 1.98
3 1 -1 22.09 3.21
3 -1 -1 20.27 3
3 -1 1 16.57 2.38
-3 1 -1 16.9 2.87
3 2 -1 59.19 5.01
-3 -2 -1 61.36 4.37
3 -2 -1 66.24 5.38
-3 -2 1 67.25 5.71
3 2 1 61.82 4.66
3 -2 1 59.29 5.95
-3 2 -1 58.7 5.97
-3 -2 -1 56.58 5.9
-3 2 1 64.6 5.98
3 2 -1 62.88 5.92
3 2 1 63.66 6.06
3 -2 -1 65.36 5.97
-3 2 1 59.91 5.26
3 2 -1 70.68 6.13
3 -2 1 65.5 6.45
-3 -2 -1 58.04 5.81
3 -2 -1 63.23 5.91
-3 -2 1 56.73 5.26
3 2 1 61.6 6.4
3 -2 -1 61.53 5.89
3 -2 1 53.91 5.05
-3 2 -1 67.11 6.27
-3 2 1 66.85 5.11
3 3 1 193.11 11.63
-3 -3 -1 183.53 11.53
-3 -3 -1 189.22 11.54
3 -3 1 174.46 10.87
-3 -3 1 197.07 12.99
3 -3 -1 200.06 12.68
3 3 -1 187.7 12.94
-3 -3 1 204.43 12.91
-3 3 1 192.4 12.7
-3 -3 -1 193.72 13.56
3 3 -1 203.45 13.56
-3 3 1 203.43 13.51
-3 3 -1 208.79 13.98
3 -3 -1 203.58 13.42
3 -3 1 207.14 13.73
-3 -3 -1 195.93 13.58
3 -3 1 207.44 14.16
-3 -3 1 197.74 12.72
3 -3 -1 209.39 13.64
3 3 1 203.93 14.29
3 3 -1 208.18 13.47
3 3 1 191.99 13.08
3 -3 -1 209.6 13.48
3 -3 1 206.71 12.58
-3 3 -1 189.17 13.51
-3 -4 -1 169.96 10.74
-3 -4 1 164.86 11.71
3 -4 1 162.68 10.21
-3 -4 -1 172.61 10.83
3 4 1 170.77 10.53
-3 -4 1 164.77 11.93
3 -4 -1 170.38 11.69
3 4 -1 172.79 11.95
-3 -4 -1 181.2 12.79
-3 4 1 175.62 11.76
-3 -4 -1 180.25 12.67
-3 -4 1 186.84 11.83
3 4 -1 178.46 12.48
-3 4 1 175.59 12.46
-3 4 -1 173.78 12.71
3 -4 -1 178.78 12.36
3 -4 1 193.68 12.82
-3 -4 -1 176.41 12.64
-3 -4 1 170.89 11.66
3 -4 1 188.83 13.25
3 -4 -1 182.23 12.71
3 4 1 203.59 13.65
3 4 -1 175.29 12.25
3 4 1 178.28 12.2
-3 4 1 184.79 12.91
3 -4 -1 171.34 12.18
3 -4 1 191.59 11.63
-3 4 -1 179.53 12.68
3 -5 -1 -0.28 0.83
3 5 1 2.43 0.73
3 -5 1 0.26 0.75
-3 -5 1 0.93 0.91
3 5 -1 0.94 0.79
-3 -5 -1 -0.21 0.52
-3 -5 1 0.67 0.77
3 5 -1 1.9 1.11
-3 5 1 -0.37 0.77
-3 -5 1 -0.27 0.61
-3 -5 -1 1.19 1.08
3 -5 -1 1.36 0.99
-3 5 1 0.88 0.8
-3 -5 -1 0.4 0.71
3 -5 1 0.45 0.93
-3 5 -1 0.32 0.75
-3 -5 -1 1.19 1
3 5 1 -0.47 0.96
-3 -5 1 1.16 0.79
3 -5 -1 0.4 0.58
3 5 -1 0.69 0.79
3 -5 -1 -0.35 1.12
-3 5 -1 0.41 0.95
3 5 1 0.69 0.87
-3 5 -1 0.31 0.84
-3 5 1 0.85 0.98
3 -5 1 0.48 0.75
3 6 1 19.81 2.25
-3 -6 1 22.16 3.14
3 -6 1 24.31 3.07
3 6 -1 21.91 2.99
-3 -6 1 19.11 2.98
3 6 -1 21.96 3.39
-3 6 1 18.44 3.13
-3 -6 1 17.23 2.57
-3 6 -1 17.3 2.6
-3 6 1 26.86 3.23
-3 -6 -1 24.77 3.54
-3 -6 -1 22.04 3.33
-3 -6 1 16.38 3.03
3 -6 1 20.24 3.56
-3 -6 -1 22.01 3.51
3 -6 -1 19.22 3.23
-3 -6 1 17.45 2.76
-3 6 -1 21 3.04
-3 6 -1 20.24 2.93
3 -6 -1 24.64 3.35
-3 6 1 25.68 3.77
3 -6 -1 21.99 3.04
3 -6 1 23.22 2.82
3 6 1 19.02 3.08
-3 6 -1 24.39 3.59
-3 -7 1 53.46 5.41
3 7 1 49.08 4.25
-3 -7 1 55.71 5.68
3 7 -1 55.52 5.14
3 -7 1 60.18 5.42
-3 7 -1 47.8 4.77
-3 -7 1 49.2 4.77
-3 7 1 56.12 5.23
-3 -7 -1 37.98 5.19
-3 -7 -1 50.04 5.35
3 7 -1 59.3 5.94
-3 7 1 50.28 5.57
-3 -7 -1 52.93 5.82
3 -7 1 52.73 6.18
3 -7 -1 46.4 5.66
-3 -7 1 56.94 5.37
3 7 1 54.4 5.53
-3 7 1 46.08 5.62
3 -7 1 57.76 6.04
3 -7 -1 54.72 5.37
3 -7 1 51.84 4.77
3 -7 -1 56.84 5.31
-3 7 -1 56.99 5.45
3 -8 1 8.84 2.17
3 8 -1 14.99 2.36
-3 -8 1 13.42 2.55
3 8 1 15.51 2.08
-3 -8 1 6.64 2.08
3 8 1 10.15 2.41
-3 -8 -1 9.86 2.18
-3 8 1 8.35 2.18
-3 8 -1 12.1 2.16
-3 8 1 10.02 2.08
-3 -8 -1 11.68 2.54
-3 -8 1 11.6 2.03
3 8 -1 10.83 2.47
-3 -8 -1 13.07 2.76
-3 -8 1 14.24 2.49
3 -8 -1 10.41 2.45
3 -8 1 9.32 2.62
3 -8 1 8.91 1.97
3 8 -1 11.65 2.25
3 8 1 11.41 2.4
-3 8 1 7.13 2.26
-3 8 -1 9.53 2.14
3 -8 1 14.82 2.96
3 -8 -1 14.7 2.59
3 -8 -1 9.67 2.15
3 9 1 30.04 3.47
3 9 1 30.39 3.06
3 9 -1 30.02 3.73
-3 -9 1 32.49 4.48
-3 9 -1 33.5 3.74
-3 -9 -1 27.53 3.92
3 9 -1 34.12 4.65
-3 9 1 34.89 4.07
3 9 1 31.63 4.33
-3 9 1 32.99 4.54
-3 -9 1 30.32 3.59
-3 -9 1 30.2 4.03
3 -9 -1 25.98 4.37
3 -9 1 24.2 4.35
-3 -9 -1 31.16 4.58
3 9 1 33.99 4.46
3 9 -1 32.13 3.87
-3 9 1 35.5 4.77
-3 9 -1 25.52 3.83
3 -9 1 31.72 4.58
3 -9 -1 33.16 4.09
3 -9 1 31.83 3.69
3 -9 -1 32.52 4.15
3 10 1 37.53 3.69
3 10 1 47.35 4.88
3 10 -1 46.52 4.83
-3 -10 1 36.11 5.17
3 10 -1 46.54 4.84
-3 -10 -1 46.67 4.58
-3 -10 1 41.03 4.51
-3 -10 -1 44.95 5.11
-3 10 -1 47.08 4.65
3 10 -1 43.84 5.62
-3 10 1 40.22 4.71
-3 10 1 46.47 5.62
3 10 1 47.54 5.57
-3 -10 1 37.12 4.86
-3 -10 -1 47.58 4.69
3 -10 1 47.16 6.11
3 -10 -1 45.6 5.84
-3 -10 -1 44.9 5.76
3 10 1 45.39 5.39
3 10 -1 46.93 4.86
-3 10 1 41.23 5.49
-3 10 -1 37.12 4.81
3 -10 -1 42.1 4.81
3 -10 1 45.17 5.64
3 -10 1 34.16 4.25
3 -10 -1 48.12 5.43
3 11 1 151.49 10.26
3 11 -1 163.55 11.64
3 11 -1 155.81 11.46
-3 -11 1 165.84 13.22
-3 -11 -1 162.19 11.42
-3 -11 1 164.13 11.69
-3 -11 -1 153.68 11.92
-3 11 -1 155.83 11.24
3 11 1 164.02 12.74
-3 11 1 167.23 11.89
-3 11 1 158.2 12.7
-3 11 -1 180.39 13.86
-3 -11 -1 145.74 10.69
3 -11 1 167.21 13.87
3 -11 -1 185.59 14.06
-3 -11 -1 157.46 13.24
-3 -11 1 154.58 12.02
3 11 1 172.57 12.6
3 11 -1 172.29 11.75
-3 11 1 170.28 13.37
3 -11 -1 159.28 11.86
3 -11 1 173.51 13.38
3 -11 1 143.18 11.24
-3 11 -1 163.19 12.48
3 -11 -1 157.61 12.52
3 12 1 50.1 4.49
3 12 -1 45.02 5.1
3 12 -1 50.33 5.14
-3 -12 1 54.23 6.71
-3 -12 -1 46.03 5.05
-3 -12 1 45.93 5.55
-3 12 -1 48.86 4.99
-3 -12 1 47.86 5.33
-3 -12 -1 41.86 5.23
3 12 -1 47.89 5.73
-3 12 1 45.02 5.96
-3 12 -1 44.62 6.38
-3 -12 -1 34.25 3.91
3 -12 -1 51.74 6.85
-3 -12 -1 45.43 6.14
-3 -12 1 45.64 5.6
3 12 1 40.87 5.45
3 12 -1 46 5.07
-3 12 1 43.23 6.09
-3 12 -1 49.04 6.01
3 -12 1 50.81 6.49
3 -12 1 46.6 5.27
3 -12 -1 52.37 6.41
3 13 1 211.02 14.05
3 13 -1 198.66 14.77
3 13 -1 215.05 14.6
-3 -13 1 224.52 17.54
-3 -13 -1 228.17 15.23
-3 -13 1 215.14 15.7
-3 -13 1 196.53 14.92
-3 -13 -1 226.18 15.64
3 13 -1 231.46 16.23
-3 13 -1 204.13 14.36
-3 13 1 224.93 16.7
-3 13 -1 228.27 17.82
3 -13 -1 226.45 18.14
-3 -13 1 200.01 15.47
3 -13 1 183.52 17.12
-3 13 -1 214.28 16.24
3 13 1 234.56 16.14
3 13 -1 208.95 14.68
3 -13 1 182.17 18.8
-3 13 1 236.56 17.32
3 -13 1 193.93 15.05
3 -13 -1 235.7 17.23
3 14 -1 23.6 3.99
3 14 -1 29.35 3.99
3 14 1 24.87 3.88
-3 -14 -1 35.69 4.77
-3 -14 1 30.73 5.71
-3 14 1 28.46 5.21
-3 14 -1 35.86 6.09
-3 -14 1 31.87 4.74
-3 -14 -1 27.54 4.38
3 -14 1 19.34 4.82
3 14 1 27.25 5.44
3 -14 -1 28.41 5.87
-3 -14 1 31.87 4.86
3 -14 -1 36.15 6.1
3 14 -1 27.61 3.97
3 -14 1 26.13 6.22
-3 14 1 43.73 6.46
-3 14 -1 35.06 5.39
3 15 -1 83.39 7.61
3 15 -1 81.37 8.37
-3 -15 1 64.76 9.44
-3 -15 -1 84.66 8.41
3 15 1 66.33 6.92
-3 -15 1 73.33 8.4
-3 -15 -1 78.07 8.07
-3 15 1 99.71 10.15
-3 15 -1 102.72 11.37
3 -15 -1 72.19 10.66
-3 -15 1 89.7 9.01
3 -15 1 61.4 8.62
3 15 1 80.9 9.24
3 -15 1 74.57 10.09
3 15 -1 89.03 7.85
-3 15 1 97.89 10.48
-3 15 -1 75.48 9.17
3 15 1 69.26 10.11
3 16 -1 43.66 5.29
3 -16 1 27.98 5.93
3 16 -1 45.69 6.34
3 16 1 34.89 4.28
-3 -16 1 36.2 7.26
-3 16 -1 41.17 7.38
-3 -16 -1 41.29 5.61
-3 -16 1 23.13 5.07
-3 16 1 48.32 7.19
3 16 1 23.03 5.04
3 -16 -1 31.7 7.01
3 -16 1 36.15 6.15
-3 16 -1 52.17 7.5
3 16 1 36.82 7.06
-3 16 1 45.44 7.13
3 17 -1 155.96 12.25
-3 -17 1 127.36 15.99
-3 -17 -1 147.84 12.89
-3 17 1 152.26 14.83
-3 17 -1 139.42 15.75
3 -17 -1 75.04 13.41
3 -17 1 167.35 16.87
3 -17 1 127.23 12.83
3 17 1 136.53 12.48
3 17 1 135.56 13.88
3 -17 1 120 12.9
-3 17 1 182.91 16.29
-3 17 -1 171.28 15.71
3 18 -1 58 7.39
3 18 1 56.67 8.02
3 -18 1 39.21 6.61
3 18 1 44.34 4.96
-3 -18 1 53.01 10.27
-3 18 1 51.94 8.8
-3 18 -1 59.67 10.08
-3 -18 -1 65.04 8.35
3 -18 -1 32.95 8.2
3 -18 1 58.24 10.05
-3 -18 1 60.04 9.37
3 -18 1 53.5 7.12
3 18 1 53.98 6.88
-3 -18 1 64.11 7.95
-3 18 1 55.46 7.43
-3 18 -1 72.12 10.37
3 18 1 56.48 7.94
-3 18 1 73.46 10.64
3 19 -1 54.7 7.76
3 19 1 38.82 4.7
-3 -19 1 37.46 8.71
3 19 1 42.19 6.95
-3 19 1 53.27 9.4
-3 19 -1 47.53 9.83
-3 -19 -1 64.24 8.75
3 -19 -1 53.82 9.4
3 -19 1 66.45 7.35
3 -19 1 36.94 8.66
-3 19 1 47.28 7.59
3 -19 -1 46.72 6.01
-3 -19 1 55.99 6.95
3 19 1 61.48 8.03
-3 19 1 77.28 11.2
-3 19 -1 47.48 9.36
3 20 -1 0.71 2.18
3 20 1 1.17 1.91
-3 -20 1 1.29 2.65
3 20 1 1.99 1.28
-3 20 1 4.04 3.1
-3 20 -1 1.65 3.39
-3 -20 1 4.28 2.5
3 -20 1 4.59 1.95
3 -20 1 1.44 2.1
3 -20 -1 2.3 2.9
3 20 1 3.07 2.1
3 20 -1 1.82 2.16
-3 20 1 6.21 4.52
-3 20 -1 1.47 3.39
-3 -21 1 284.54 24.77
3 21 -1 251.57 18.63
-3 -21 1 248.88 20.39
-3 -21 -1 242.01 22.05
-3 21 1 199.9 23.16
-3 21 -1 222.2 24.51
3 -21 1 218.57 23.32
-3 21 1 232.15 25.29
-3 21 -1 318.75 25.67
3 21 1 277.69 20.32
3 22 -1 7.96 2.64
-3 -22 1 4.71 3.22
-3 -22 1 2.97 2.55
-3 22 1 9.5 5.42
-3 22 -1 7.11 4.4
-3 -22 -1 2.05 2.81
3 -22 1 10.26 4.77
3 22 1 10.5 3.47
-3 22 1 11.15 5.69
-3 22 -1 1.28 3.24
-3 -23 1 108.17 13.46
3 23 -1 77.84 8.9
-3 -23 1 88.75 10.12
-3 -23 -1 95.22 11.45
-3 23 1 83.09 12.85
-3 23 -1 84.16 13.11
3 -23 1 74.32 11.88
-3 23 -1 107.42 13.61
-3 23 1 110.06 14.65
3 23 1 109.21 11.06
-3 -24 1 0.61 1.9
-3 24 1 -1.18 3.22
-3 24 -1 -1.27 2.92
-3 -24 -1 0.85 2.64
3 24 -1 1.42 1.69
-3 -24 1 1.13 2.02
-3 24 -1 1.18 2.97
-3 25 1 146.67 16.51
-3 -25 -1 146.41 13.93
-3 26 1 13.3 5.39
-3 0 2 6.93 2.05
3 0 -2 6.18 2.03
3 0 2 15.53 2.46
3 0 -2 7.87 1.98
-3 0 -2 9.95 2.49
3 0 -2 4.36 1.76
-3 0 2 7.45 1.95
-3 0 2 4.03 1.55
-3 0 2 7.98 1.8
-3 0 -2 6.88 2.08
3 0 2 8.83 2.65
3 0 -2 6.24 1.79
3 0 2 5.23 1.56
3 1 -2 3906.34 202.08
3 -1 -2 3840.67 202.24
3 1 -2 3859.9 201.69
3 -1 -2 3955.68 201.93
-3 -1 2 3911.29 202.54
-3 1 2 3607.46 201.16
-3 -1 2 3855.23 202.1
-3 1 2 3831.53 201.97
-3 -1 -2 3921.76 202.66
3 1 -2 3929.86 202.16
-3 1 -2 3897.02 202.78
3 -1 -2 3988.07 202.12
3 -1 2 3926.5 203.72
3 1 -2 3831.4 201.6
3 -1 -2 3767.04 201.64
-3 1 -2 3975.03 202.69
-3 -1 2 3813.23 200.69
3 1 2 3944.93 203.8
3 -1 2 3859.66 202.07
3 1 2 3883.63 200.94
-3 -1 2 3538.75 199.75
-3 1 -2 3862.76 203.56
3 -1 2 3818.98 200.54
3 -2 -2 4.23 1.68
3 -2 2 6.61 1.89
-3 -2 2 1.53 1.25
3 2 2 1.87 0.46
3 2 -2 0.33 0.9
-3 -2 -2 0.84 0.34
3 2 -2 2.07 1.26
-3 -2 -2 0.96 0.35
-3 2 2 2.36 1.25
-3 -2 -2 2.78 1.36
3 2 -2 1.38 1.12
-3 2 -2 4.16 1.66
3 -2 -2 2.59 1.33
-3 -2 2 1.41 0.96
3 2 2 1.49 1.35
3 -2 -2 2.24 1.32
3 2 -2 2.36 1.22
-3 -2 2 3 1.11
3 -2 2 2.91 1.8
-3 2 -2 3.75 1.64
3 -2 2 3.55 1.22
3 3 2 482.12 25.35
-3 -3 -2 427.4 25.72
3 3 -2 484.55 27.8
3 -3 2 530.04 28.01
-3 -3 2 453.41 28.51
3 -3 -2 479.9 28.13
-3 3 -2 482.14 28.91
-3 -3 2 453.45 28.28
-3 -3 -2 505.07 28.98
-3 -3 2 468.13 26.89
-3 3 2 479.6 28.15
3 3 -2 486.39 28.41
3 3 2 485.62 28.57
3 -3 -2 499.03 28.21
3 -3 2 502.12 28.8
3 -3 2 510.84 29.83
3 -3 -2 440.3 27.92
-3 -3 2 467.56 27
-3 3 -2 510.48 28.69
3 3 2 502.31 29.9
3 3 -2 501.63 27.81
3 3 2 489.63 28.56
3 -3 2 476.25 26.65
-3 3 -2 491.77 29.44
-3 -4 2 12.27 2.51
3 -4 -2 11.33 2.27
3 -4 2 12.57 2.36
3 4 2 11.1 1.21
3 4 -2 15.21 2.69
3 4 -2 7.73 2.01
-3 4 2 11.2 2.22
3 4 2 12.31 2.47
-3 -4 2 9.19 1.62
-3 4 -2 13.5 2.75
3 -4 -2 9.02 2.01
-3 -4 2 9.51 2.18
-3 -4 -2 7.11 1.9
-3 4 -2 6.85 1.86
-3 -4 2 10.84 1.81
3 -4 2 13.05 2.78
3 -4 -2 9.93 2.14
3 4 2 11.91 2.72
3 4 -2 10.51 1.99
3 4 2 11.12 2.43
-3 4 2 8.95 2.39
3 -4 2 12.83 1.75
-3 4 -2 10.74 2.6
-3 -5 2 10.65 2.43
3 -5 -2 11.4 2.44
3 -5 2 10.16 2.28
-3 -5 2 11.5 2.37
3 5 -2 10.96 2.28
3 5 -2 12.35 2.45
-3 -5 2 8 1.47
-3 5 2 8.93 2.07
3 5 2 9.71 2.22
-3 5 -2 11.7 2.51
3 -5 -2 14.45 2.47
-3 -5 -2 11.18 2.36
3 -5 -2 10.85 2.35
-3 -5 2 11.84 1.89
-3 5 -2 11.79 2.33
3 -5 2 8.8 2.37
3 5 -2 7.53 1.74
3 5 2 10.48 2.65
3 -5 2 11.96 1.77
-3 5 -2 14.25 2.82
3 5 2 12.78 2.63
-3 5 -2 10.61 1.85
-3 5 2 12.99 2.77
3 -6 -2 9.24 2.26
3 6 -2 8.62 2.06
-3 -6 2 8.29 1.99
3 -6 2 11.44 2.63
-3 -6 2 5.62 1.83
-3 -6 2 7.76 1.46
3 6 2 6.72 2
-3 6 2 7.08 1.91
-3 6 -2 10.31 2.45
-3 6 2 8.31 1.85
-3 -6 -2 8.16 2.18
3 6 -2 10.82 2.34
3 -6 -2 7.94 2.09
-3 -6 2 8.48 1.69
3 -6 2 8.06 2.36
-3 6 -2 10.92 2.16
3 -6 2 9.12 1.59
-3 6 -2 9.08 2.42
3 6 2 5.85 1.97
-3 6 2 6.46 2.15
-3 6 -2 8.49 1.74
3 -6 -2 6.77 1.48
-3 -7 2 306.28 20.77
3 7 2 319.36 17.99
-3 -7 2 297.72 20.95
3 7 -2 344.09 20.8
3 -7 2 355.48 21.88
-3 7 -2 320.29 19.62
-3 -7 2 325.63 19.16
-3 -7 -2 329.4 21.04
-3 7 2 336.07 20.32
3 7 -2 358.34 21.38
3 7 2 338.59 21.06
-3 7 2 341.8 20.7
-3 7 -2 348.37 21.92
-3 -7 -2 306.21 21.39
-3 -7 2 330.6 19.52
3 -7 -2 355.48 21.4
-3 7 -2 322.47 20.42
3 7 2 349.21 21.48
-3 7 2 303.13 21.4
-3 7 -2 307.91 19.66
3 -7 -2 307.91 19.48
3 -7 2 330.2 19.22
-3 7 -2 327.55 21.82
3 8 -2 6.48 1.88
-3 -8 2 7.4 2.22
3 -8 2 5.47 2.48
-3 -8 2 10.55 2.68
3 8 2 6.73 1.97
-3 8 2 9.2 2.23
-3 8 -2 5.74 1.97
-3 8 -2 6.52 1.67
3 8 2 6.21 1.12
-3 -8 -2 12.44 2.67
-3 -8 2 3.19 1.24
3 8 -2 8.33 2.29
-3 8 2 6.32 1.84
-3 -8 -2 7.43 2.42
3 -8 -2 8.37 2.28
-3 -8 2 10.05 2.08
-3 -8 2 8.22 1.53
3 -8 2 8.98 1.79
3 8 2 9.19 2.48
-3 8 2 3.18 1.85
-3 8 -2 10.07 2.08
3 -8 2 7.42 2.59
3 -8 -2 10.81 2.38
3 -8 -2 7.26 1.74
3 9 2 3353.61 169.5
-3 -9 2 3424.93 173.36
3 9 -2 3376.9 172.52
-3 -9 2 3282.95 173.89
3 -9 2 3272.99 172.8
3 -9 2 3143.12 174.8
-3 -9 2 3285.03 171.15
-3 9 -2 3473.06 171.52
3 9 -2 3361.28 173.83
3 9 2 3599.43 173.41
-3 9 2 3363.58 172.34
-3 9 2 3402 172.8
-3 9 -2 3309.6 174.34
-3 -9 2 3354.62 171.58
-3 -9 -2 3334.46 172.99
-3 -9 2 2601.44 169.2
3 -9 -2 3424.2 174.19
3 -9 2 3351.7 179.04
-3 -9 -2 3163.12 173.98
3 9 2 3370.42 173.67
-3 9 2 3507.11 174.47
-3 9 -2 3230.5 171.84
3 -9 2 3470.07 174.49
3 -9 2 3306.3 171.32
3 -9 -2 3378.52 172.02
3 -9 -2 3353.36 172.55
3 -9 2 3379.47 183.18
3 -10 2 2.83 2.83
3 10 -2 5.12 1.87
-3 -10 2 7.81 2.37
3 10 2 3.17 1.21
-3 -10 -2 2.25 1.2
-3 -10 2 6.65 2.36
3 -10 2 1.25 1.56
3 10 2 3.2 1.95
-3 10 2 5.96 2.06
-3 10 -2 3.54 1.56
-3 -10 2 4.62 1.57
-3 -10 -2 1.64 1.7
-3 -10 -2 4.62 1.85
3 -10 2 3.84 3.43
3 10 2 0.9 3.23
-3 -10 2 5.95 1.88
3 -10 -2 6.17 2.24
3 -10 -2 6.02 1.95
3 -10 -2 7.66 2.36
3 -10 2 5.54 1.85
3 -10 2 -1.29 4.22
3 10 2 6.09 2.57
3 10 -2 4.98 1.74
-3 10 2 2.36 1.93
-3 10 -2 2.64 1.71
3 -10 2 5.2 2.31
3 -11 2 1484.24 81.79
-3 -11 2 1662.52 83.38
3 11 -2 1492.64 81.7
-3 -11 2 1578.95 84.08
3 11 -2 1520.05 81.71
-3 -11 -2 1557.62 80.48
3 11 2 1179.29 79.03
-3 -11 2 1565.41 81.41
-3 11 -2 1519.05 80.55
3 11 2 1686.82 83.02
-3 11 2 1476.59 82.14
-3 -11 2 1550.19 81.27
-3 -11 -2 1443.66 81.31
3 -11 -2 1627.46 84.44
3 -11 2 1419.35 86.72
3 11 2 1443.08 86.42
3 -11 2 1470 89.89
3 11 -2 1532 80.78
-3 11 -2 1523.11 81.83
-3 11 2 1590.72 84.14
3 -11 2 1497.15 81.67
3 -11 -2 1579.3 82.67
3 11 2 1515.95 90.65
3 -12 2 0.83 1.22
3 12 -2 -0.84 1.23
3 12 2 -0.31 0.92
-3 -12 -2 1.66 1.33
-3 -12 2 0.65 1.16
-3 12 2 1.94 1.12
3 12 -2 -1.31 1.42
3 12 -2 0.43 1.07
-3 -12 2 -0.44 1.2
-3 12 -2 0.63 1.02
-3 -12 2 -0.38 1.04
3 -12 2 0.93 2.36
3 12 2 -1.74 2.37
-3 -12 -2 -0.38 1.02
3 -12 -2 -0.7 1.44
3 -12 -2 -0.54 1.85
3 12 2 1.2 2.48
3 12 -2 0.66 1.08
-3 12 2 0.66 1.66
-3 12 -2 0.47 1.37
3 13 -2 390.53 22.67
3 13 -2 345.38 22.49
-3 -13 2 357.89 25.24
-3 -13 -2 380.61 22.13
-3 -13 2 280.55 22.39
-3 -13 -2 301.73 22.43
-3 13 -2 345.45 21.24
3 13 -2 349.82 22.81
-3 13 2 363.99 23.46
-3 -13 -2 304.17 21.16
3 -13 2 393.08 25.74
3 -13 -2 405.34 26.69
3 -13 2 326.79 26.05
3 13 2 320.55 25.38
-3 -13 2 343.86 22.19
3 13 2 335.48 27.73
3 -13 2 324.47 27.25
3 13 -2 347.79 21.45
-3 13 -2 379.35 23.56
-3 13 2 368.12 24.85
3 -13 -2 399.95 24.9
3 14 2 3.48 1
3 14 -2 4.24 1.69
-3 -14 -2 5.39 2.13
3 -14 2 1.09 1.95
-3 -14 2 3.2 2.03
-3 14 2 4.61 2.15
-3 14 -2 3.84 1.45
3 14 -2 2.14 1.75
3 14 -2 5.83 2.12
-3 -14 -2 4.18 1.88
-3 -14 2 5.07 1.97
3 -14 -2 4.53 2.47
3 -14 2 2.75 2.32
3 14 2 1.68 2.3
3 -14 2 0.8 1.66
3 -14 -2 7.89 2.77
3 14 -2 5.46 1.73
3 14 2 2.21 2.79
-3 14 2 7.72 2.76
-3 14 -2 3.66 1.89
3 15 2 54.96 8.87
3 15 -2 49.02 5.89
3 -15 2 45.99 8.1
-3 -15 2 53.12 8.18
-3 -15 -2 63.74 7.03
3 15 -2 60.93 6.71
3 -15 -2 54.14 8.09
-3 -15 -2 58.49 6.76
-3 15 2 49.98 6.93
-3 15 -2 66.54 9.16
3 -15 2 43 7.55
3 15 2 48.69 7.63
-3 -15 2 45.59 9.9
3 -15 2 47.6 7.82
3 -15 -2 41.99 8.16
-3 -15 2 48.64 6.14
-3 15 2 40.84 7.53
3 15 -2 60.18 5.81
-3 15 -2 69.65 7.99
3 15 2 51.96 7.22
-3 -15 2 55.52 8.5
-3 15 2 60.11 8.18
3 16 -2 1.14 1.44
-3 -16 -2 4.91 2.19
3 16 2 1.01 1.81
3 -16 2 2.97 2.7
-3 -16 2 4.11 2.59
3 -16 -2 2.01 2.07
-3 16 2 2.82 2.18
-3 16 -2 3.18 2.44
3 16 -2 5.98 2.18
-3 -16 -2 2.35 1.71
3 -16 -2 4.62 2.92
3 -16 2 6.08 3.1
3 16 2 2.36 2.44
-3 -16 2 5.44 3.43
-3 16 2 2.52 2.91
3 -16 2 0.97 2.01
-3 -16 2 0.57 1.56
3 16 2 1.36 1.57
3 16 -2 4.82 1.76
-3 -16 2 7.59 3.53
-3 16 2 0.93 1.66
-3 16 2 0.94 2.16
-3 16 -2 1.63 2.38
3 17 -2 319.23 19.95
3 17 -2 278.68 20.73
-3 -17 2 328.7 25.91
3 -17 -2 193.23 20.86
-3 -17 -2 314.45 20.81
-3 17 2 330.26 22.57
-3 17 -2 318.37 25.55
3 -17 2 304.99 24.67
-3 -17 2 245.4 23.84
-3 17 2 226.39 22.8
3 -17 -2 162.51 21.21
3 17 2 275.64 20.81
3 -17 2 252.5 21
-3 -17 2 297.98 20.82
-3 -17 2 278.12 22.16
-3 17 2 263.06 21.53
3 17 2 268.62 22.4
-3 17 2 319.32 24.14
3 -17 2 235.04 21.22
3 17 2 244.87 19.95
-3 17 -2 365.55 24.47
3 18 -2 4.38 2.33
3 18 2 4.49 2.78
3 -18 2 5.8 3.09
-3 -18 2 5.45 3.98
3 18 -2 3.82 2.5
3 -18 -2 7.86 3.79
-3 -18 -2 4.35 2.6
-3 18 2 6.31 3.48
-3 18 -2 2.73 3.45
3 -18 -2 3.46 3.15
3 -18 2 0.74 2.66
-3 -18 2 2.32 4.15
3 -18 2 6.13 4
-3 18 2 5.34 3.49
3 18 2 10.01 3.23
-3 -18 2 4.87 3.02
-3 18 2 0.79 2.32
-3 18 2 8.37 4.61
-3 18 -2 8.85 4.42
3 19 -2 1058.59 57.39
-3 -19 2 926.41 64.53
-3 -19 -2 1060.06 58.49
-3 19 2 1032.48 60.53
-3 19 -2 826.78 62.72
3 -19 2 961.75 62.75
-3 19 2 913.39 58.13
3 -19 -2 934.3 60.54
3 -19 2 777.75 54.83
-3 -19 2 877.3 55.84
-3 19 -2 986.98 62.13
-3 19 2 1268.28 66.03
3 19 2 1002.9 56.26
3 19 2 871.59 56.72
3 20 2 3.39 2.42
3 20 -2 6 3.3
-3 -20 2 5.28 4.43
-3 20 2 -1.17 3.19
-3 20 -2 -1.77 6.04
-3 -20 2 0.76 2.58
-3 -20 -2 -1.92 2.62
3 -20 2 4.6 3.86
3 -20 -2 3.24 3.14
3 -20 2 1.12 2.3
3 20 2 4.68 2.67
-3 20 2 7.78 5.31
-3 20 -2 2.64 4.51
-3 -21 2 618.45 45.64
3 21 -2 479.63 37.73
-3 -21 2 627.77 37.13
-3 -21 -2 592.48 41.26
-3 21 2 496.08 40.78
-3 -21 -2 466.81 38.78
-3 21 -2 621.76 45.63
3 -21 -2 692.58 42.53
3 -21 2 382.33 40.56
-3 21 2 628.48 46.54
-3 21 -2 721.35 43.98
3 21 2 670.37 37.7
3 22 -2 -2.41 2.62
-3 22 2 2.69 2.4
-3 22 -2 1.48 3.73
-3 -22 2 -0.57 0.83
-3 -22 -2 7.74 3.41
3 -22 2 -1.44 3.32
3 -22 -2 -2.09 3.04
3 22 2 -0.7 1.9
-3 22 2 -1.82 4.18
-3 22 -2 -1.16 3.6
3 23 -2 15.14 4.27
-3 -23 2 23.74 6.52
-3 -23 2 22.03 4.06
-3 -23 -2 26.13 6.3
-3 23 2 33.03 7.32
-3 23 -2 16.67 6.33
3 -23 -2 16.61 5.45
3 -23 2 25.83 7.35
3 23 2 18.16 4.56
3 23 -2 16.95 5.23
-3 23 2 25 7.56
-3 23 -2 32.46 7
3 24 -2 5.5 2.68
-3 24 2 -1.13 2.87
-3 -24 -2 6.55 3.05
-3 24 2 3.49 2.4
-3 24 -2 2.17 2.96
3 25 -2 14.92 4.16
-3 25 2 22.1 6.06
-3 25 2 22.35 6.46
3 26 -2 0.55 1.59
3 0 3 -0.8 2.48
-3 0 3 0.46 1.06
3 0 -3 -0.44 0.78
3 0 -3 -0.38 0.77
-3 0 -3 0.83 0.96
3 0 -3 0.33 0.75
3 0 3 -0.39 0.99
-3 0 3 0.56 0.71
-3 0 3 1.3 0.82
3 0 3 -0.54 1.11
3 0 3 2.65 4.73
3 0 -3 -0.26 0.6
-3 0 -3 0.42 0.97
3 0 3 3.86 7.95
3 0 3 -0.41 1.25
3 0 -3 -0.44 1.11
3 0 3 0.94 0.59
3 1 -3 118.45 9.38
3 -1 -3 100.13 9.04
3 1 -3 111.03 8.79
3 -1 -3 99.63 8.74
-3 -1 3 109.5 9.35
3 -1 3 96.97 6.08
3 1 3 77.8 9.73
3 -1 3 91.75 10.74
-3 -1 3 102.3 7.88
-3 1 3 110.17 8.12
-3 -1 3 116.78 8.65
-3 1 3 101.05 8.14
-3 1 -3 105.92 8.98
-3 -1 -3 114.84 9.14
3 1 -3 106.92 8.43
3 -1 -3 117.46 8.54
3 1 3 106.59 8.78
3 -1 3 110.31 8.93
3 -1 3 109.58 9.9
3 1 -3 103.05 7.77
-3 -1 -3 113.08 9.16
3 -1 3 131.05 20.63
3 1 3 86.88 15.98
3 -1 -3 102.74 7.88
-3 1 -3 119.24 9.26
3 1 3 110.46 9.94
3 1 3 59.55 16.55
3 -1 3 144.5 23.96
3 1 3 117.22 9.34
3 -1 3 112.96 9.05
3 1 -3 118.28 9.52
3 1 3 113.59 7.14
3 -1 -3 115.25 9.3
3 -1 3 107.87 6.7
3 2 -3 356.45 21.69
3 -2 3 361.19 18.42
3 2 -3 380.53 21.32
3 -2 -3 348.04 21.36
-3 -2 -3 245.54 17.68
-3 -2 3 352.52 21.99
3 2 3 326.15 21.57
3 -2 3 296.59 23.69
-3 -2 3 330.9 19.91
-3 2 3 349.98 20.32
-3 2 3 352.22 20.51
-3 -2 3 348.54 18.7
-3 -2 -3 360.89 21.44
3 2 -3 372.62 21.03
-3 2 -3 352.27 21.63
3 -2 -3 379.17 20.73
3 2 3 385.89 21.48
3 -2 3 361.58 21.42
-3 -2 3 350.61 20.86
3 2 -3 342.02 19.78
-3 -2 -3 366.73 21.83
-3 2 -3 388.32 21.77
3 -2 -3 346.42 20.26
3 2 3 394.08 23.3
3 2 3 347.61 32.4
3 -2 3 358.54 21.35
3 2 -3 383.56 22.08
3 -2 -3 364.26 21.69
3 -2 3 350.84 18.42
3 -2 3 468.22 41.65
3 -3 -3 -0.41 0.73
3 3 3 0.3 1.42
-3 -3 3 0.49 1
3 -3 3 1.16 0.68
3 -3 3 -0.73 2.62
3 3 -3 -0.42 0.96
3 3 -3 -0.37 0.84
-3 -3 -3 0.41 0.85
3 3 -3 0.71 0.9
-3 -3 3 1.27 0.58
-3 3 -3 0.45 0.92
-3 -3 3 -0.26 0.76
3 3 3 1.15 1.12
3 -3 -3 0.92 0.77
-3 3 3 0.92 1
-3 3 3 0.31 0.55
3 3 -3 0.23 0.7
3 3 3 -1.62 3.73
-3 3 -3 2.04 1.19
-3 -3 -3 -0.46 0.81
-3 -3 3 -0.16 0.7
3 -3 -3 0.94 0.86
3 3 3 -0.56 1.16
3 -3 3 1.02 0.56
3 -3 3 -2.29 5.26
3 -3 3 0.78 1.55
3 -3 -3 0.85 1.16
3 -4 3 379.35 21.01
3 4 -3 372.66 22.18
-3 -4 3 372.12 23.38
3 -4 -3 352.96 22.48
3 4 -3 383.64 23.11
3 4 3 364.09 20.03
3 -4 3 294.18 23.89
-3 -4 3 336.61 19.72
-3 4 3 319.86 21.32
-3 -4 -3 376.18 22.6
-3 4 3 373.6 21.69
3 4 -3 347.76 22.03
-3 -4 -3 377.55 23.38
3 4 3 375.8 22.41
-3 4 -3 353.3 22.77
3 -4 -3 337.94 21.35
3 4 3 417.09 32.17
-3 -4 -3 376.41 23.17
-3 -4 3 332.33 22.94
-3 4 -3 358.02 22.29
3 -4 -3 347.92 21.65
-3 -4 3 348.31 20.04
3 4 3 362.24 23.86
3 4 -3 336.35 20.64
3 -4 3 386.92 22.6
3 -4 -3 358.31 22.54
3 -4 3 350.61 19.74
3 -4 3 381.58 35.25
-3 -5 3 0.51 1.06
3 -5 3 0.39 0.31
3 -5 3 0.64 0.81
3 -5 -3 1.7 1.16
3 -5 3 0.64 2.08
3 5 -3 1.85 1.26
3 5 -3 1.06 0.82
-3 5 3 1.26 0.8
3 5 3 0.78 1.07
-3 5 -3 0.95 1.3
-3 -5 -3 -0.5 1.15
3 -5 -3 0.3 0.81
-3 -5 3 1.88 0.73
-3 -5 -3 1.62 1.02
3 5 -3 -0.39 0.8
-3 -5 3 0.98 0.56
3 -5 3 1.42 3.59
3 5 3 4.03 3.09
-3 -5 -3 1.95 1.42
-3 5 -3 0.77 0.8
3 -5 -3 1.07 0.9
3 5 3 0.58 1.03
-3 -5 3 1.71 1.08
3 -5 3 1.2 0.69
3 5 3 0.48 1.2
3 5 3 -1.87 1.93
3 -5 3 1.18 0.99
-3 5 3 2.18 1.48
3 -6 3 82.61 8.88
3 -6 3 64.62 5.33
-3 -6 3 74.49 7.65
3 -6 3 84.19 7.73
3 -6 3 76.39 5.44
-3 -6 3 93.14 8.73
3 6 -3 102.58 8.44
3 -6 -3 82.74 7.79
-3 -6 3 87.58 5.98
-3 -6 -3 98.62 8.01
3 6 -3 92.86 7.79
-3 -6 -3 88.15 8.15
-3 6 3 83.41 7.02
3 6 3 105.96 8.19
-3 6 -3 85.02 8.28
-3 -6 3 72.68 7.08
-3 -6 3 91.9 6.09
3 -6 -3 88.88 7.68
-3 6 -3 96.52 7.79
3 -6 3 90.55 12.78
3 6 3 96.31 13.02
3 6 3 87.64 8.39
3 -6 3 87.72 13.94
3 -6 3 105.81 8.19
-3 6 3 82.87 8.42
3 -6 -3 70.9 5.76
3 -6 3 91.11 6.3
3 6 3 113.87 16.18
-3 6 -3 81.72 6.17
3 -7 3 398.09 24.61
3 -7 3 296.87 19.77
-3 -7 3 387.82 23.29
3 -7 3 220.79 21.78
3 -7 3 350.55 20.07
-3 -7 3 366.05 23.71
3 7 -3 388.36 23.16
3 -7 -3 359.16 22.88
-3 -7 3 363.5 20.58
-3 -7 -3 371.2 22.6
-3 -7 -3 349.69 22.86
3 7 -3 391.96 22.86
-3 7 3 365.47 21.77
3 7 3 401.7 22.88
-3 7 -3 358.24 23.52
-3 7 -3 373.79 22.33
-3 -7 3 367.17 20.34
-3 -7 3 344.97 21.49
3 -7 -3 360.8 22.74
3 -7 3 436.1 31.18
3 7 3 378.74 29.43
3 7 3 361.34 32
3 -7 3 371.52 32.11
3 7 3 366.15 23.59
3 -7 3 422.67 23.28
-3 7 -3 344.67 20.63
-3 7 3 372.08 24.02
3 -7 -3 339.55 20.49
3 -7 3 364.24 21.15
3 -8 3 177.11 13.67
-3 -8 3 165.51 12.75
3 -8 3 140.94 12.2
3 -8 3 148.48 10.27
-3 -8 3 163.29 13.2
3 8 -3 171.97 12.54
3 -8 -3 136.71 12.12
-3 8 -3 175.63 11.16
-3 -8 3 153.26 10.86
-3 -8 -3 161.8 12.21
-3 -8 -3 176.35 12.87
3 8 -3 163.26 12.43
-3 8 3 166.69 11.66
3 8 3 187.68 12.57
-3 8 -3 160.54 13.11
-3 -8 3 155.31 10.26
-3 -8 -3 164.94 13.2
-3 -8 3 164.98 10.96
3 -8 -3 161.22 12.53
-3 8 -3 166.19 12.02
3 -8 3 162.72 17.65
3 8 3 172.25 17.43
3 8 3 141.16 18.3
3 -8 3 170.31 19.49
3 8 3 165.29 13.23
3 -8 3 191.06 12.98
-3 8 3 172.33 13.63
-3 8 -3 153.73 10.77
3 -8 -3 156.93 10.85
3 -9 3 104.4 9.9
-3 -9 3 107.07 9.59
3 -9 3 94.17 8.98
3 -9 3 96.91 7.56
3 9 -3 104.27 9.12
-3 -9 3 91.12 9.54
-3 -9 3 85.76 7.99
-3 9 -3 110.62 8
-3 -9 -3 106.81 9.08
-3 -9 -3 118.6 9.69
3 9 3 116.01 9.29
-3 9 3 102.37 8.53
-3 9 -3 113.47 10.31
3 -9 -3 110.72 9.76
-3 -9 3 99.06 7.33
-3 -9 -3 117.16 10.04
3 -9 3 104.96 10.09
3 -9 3 109.27 13.49
3 9 3 113.77 13.46
3 9 3 137.58 16.3
3 -9 3 108.59 14.64
3 -9 3 117.92 9.69
-3 9 3 107.62 10.21
-3 9 -3 98.42 7.83
3 -9 -3 109.49 8.43
3 -10 3 18.3 3.35
3 10 3 7.03 4.44
3 10 -3 19.74 3.37
3 -10 3 21.15 6.4
3 -10 3 17.73 2.68
-3 -10 -3 15.69 2.15
-3 -10 3 20.51 4
3 10 3 23.29 3.66
-3 10 3 20.27 3.24
3 -10 -3 16.85 3.71
-3 10 -3 15.86 3.7
-3 10 -3 16.23 2.54
3 -10 3 18.7 3.91
3 -10 3 18.56 5.8
3 10 3 17.37 5.08
-3 -10 3 16.04 2.36
3 -10 -3 24.63 4.27
-3 -10 -3 22.49 3.92
3 -10 -3 19.89 3.24
-3 10 3 15.52 3.64
-3 10 -3 20.61 2.97
3 -11 3 30.19 4.35
3 -11 3 28.68 7.3
3 11 3 29.71 7.36
3 11 -3 31.77 4.39
3 11 -3 28.69 4.24
-3 -11 -3 29.73 3.2
-3 -11 3 31.65 5.22
3 11 3 27.38 4.22
3 -11 -3 24.45 4.7
-3 11 -3 30.01 5.25
-3 11 -3 26.04 3.26
-3 11 3 20.63 3.97
-3 11 3 24.53 3.69
-3 -11 3 22.64 3.06
3 -11 3 18.16 5.78
3 11 3 23.31 5.94
3 -11 3 30.18 5.02
3 -11 -3 28.54 5.01
-3 -11 -3 25.75 4.23
3 11 3 21.77 4.05
3 11 -3 31.42 3.64
-3 11 -3 27.76 3.82
3 -11 -3 32.9 4.49
-3 11 3 24.58 4.76
3 -12 3 168.31 12.88
3 12 -3 177.02 13.11
3 12 -3 190.06 13.44
-3 -12 3 189.02 15.16
-3 -12 -3 159.68 11.35
-3 12 3 140.36 12.73
-3 12 -3 181.83 11.68
3 12 -3 166.66 12.31
-3 12 3 180.89 12.85
-3 12 -3 181.74 15.38
-3 -12 3 172.45 11.65
-3 -12 3 175.56 21.78
-3 -12 -3 137.91 12.49
3 -12 3 165.11 14.54
3 -12 3 158.82 17.06
3 12 3 163.68 16.67
3 -12 -3 192.06 15.78
-3 -12 3 155.36 17.57
-3 12 3 165.39 17.65
3 12 3 150.29 17.6
3 12 -3 172.99 11.65
3 -12 3 147.58 17.35
-3 12 3 186.27 15.14
-3 12 -3 159.07 12.35
3 12 3 172.01 13.59
3 -12 -3 169.34 13.48
3 13 -3 26.14 4.24
3 13 3 28 7.06
3 -13 3 24.51 6.77
-3 -13 -3 26.79 3.59
-3 -13 3 23.82 5.05
-3 13 3 24.45 3.97
3 13 -3 27.43 4.08
-3 13 -3 29.06 5.61
3 13 -3 29.8 4.39
-3 13 -3 26.07 3.36
-3 -13 3 25.12 3.46
3 -13 3 24.03 5.88
3 13 3 26.51 6.26
3 -13 3 32.15 5.49
-3 -13 -3 22.93 3.94
-3 -13 3 27.87 8.51
-3 13 3 11.31 5.91
3 13 3 31.89 4.81
3 13 -3 21.29 3.09
-3 -13 3 23.01 6.25
-3 13 3 30.94 7.16
-3 13 3 28.27 5.38
-3 13 -3 23.22 4.02
3 14 -3 86.13 8.81
3 14 -3 89.73 8.83
3 -14 3 83.56 12.35
-3 -14 3 96.54 11.03
-3 -14 -3 101.38 8.55
3 14 -3 94.94 9.01
-3 14 -3 101.38 7.79
-3 14 3 93.38 8.79
-3 14 -3 101.36 11.42
-3 -14 3 89.49 7.96
3 -14 3 117.88 11.62
-3 -14 -3 83.81 8.54
-3 14 3 95.2 14.39
-3 -14 3 86.03 14.21
3 -14 3 74.23 11.03
3 14 3 88.49 11.42
-3 -14 3 106.05 13.14
3 14 -3 110.17 8.02
3 14 3 99.28 13.13
-3 14 3 101.56 10.95
-3 14 3 61.2 10.49
3 14 3 87.33 9
-3 14 -3 110.67 9.75
3 15 -3 91.8 8.69
3 -15 3 68.17 11
3 15 -3 78.23 8.36
-3 -15 3 99.73 11.55
-3 -15 -3 88.75 8.45
3 15 -3 92.47 9.01
-3 15 3 95.39 8.99
-3 15 -3 80.46 7.14
3 -15 3 63.02 10.02
3 -15 3 106.03 11.33
-3 -15 3 74.54 12.92
-3 15 3 79.21 12.8
3 15 3 79.44 10.27
-3 -15 3 72.57 7.52
-3 -15 3 84.85 11.61
3 15 -3 89.94 7.41
3 -15 3 95.83 7.44
-3 15 3 91.54 10.6
3 15 3 78.28 11.27
-3 15 -3 102.95 9.87
-3 15 3 66.19 10.41
3 15 3 82.68 8.59
3 16 -3 60.82 7.04
3 16 -3 56.82 7.15
3 -16 3 59.27 9.61
3 16 3 56.69 9.44
-3 -16 3 67.73 9.66
3 -16 -3 37.64 7.77
-3 16 3 70.95 7.81
3 16 3 52.94 8.21
3 -16 3 51.4 8.45
3 -16 3 62.81 9.09
-3 -16 3 57.21 10.77
-3 16 3 80.71 11.98
-3 -16 3 56.35 6.55
3 -16 3 66.25 5.6
-3 16 3 68.09 9.43
-3 16 -3 74.16 8.76
3 16 3 60.51 7.2
-3 -16 3 53.81 8.99
-3 16 3 51.52 8.81
3 17 -3 444.75 26.52
3 17 -3 406.85 26.72
-3 -17 3 430.73 31.56
3 -17 -3 337.31 28.63
-3 17 3 424.22 27.33
-3 -17 3 354.9 31.68
-3 17 3 354.08 30.9
3 -17 3 447.3 31.15
-3 17 -3 307.16 29.65
3 17 3 356.35 27.33
3 -17 3 329.24 27.66
-3 -17 3 389.57 25.65
-3 -17 3 325.33 28.23
-3 17 3 391.24 29.32
3 -17 3 404.73 22.67
-3 -17 -3 334.03 28.41
-3 17 3 520 32.4
3 17 3 387.29 29.97
3 17 3 408.21 26.04
-3 17 -3 464.55 29.81
3 -17 3 334.31 28.7
3 18 -3 168.41 13.62
3 18 -3 140.12 13.77
-3 -18 3 158.97 17.79
3 -18 -3 149.54 15.13
-3 18 3 169.16 14.56
-3 18 3 116.6 15.2
3 -18 3 171.5 17.45
-3 -18 3 114.27 15.64
3 -18 3 119.87 13.5
-3 -18 3 142.78 14.82
-3 18 3 157.17 15.22
-3 18 3 182.77 17.7
-3 18 -3 148.73 15.94
3 18 3 161.33 13.12
3 18 3 163.85 16.21
3 19 -3 119.89 11.39
3 19 -3 105.11 11.88
-3 -19 3 130.98 16.1
-3 -19 3 87.82 9.68
3 -19 -3 124.45 12.99
-3 19 3 122.1 12.64
-3 19 3 86.07 12.23
3 -19 3 140.87 15.8
3 -19 3 96.21 11.15
3 19 3 111.88 12.53
-3 -19 3 93.41 11.52
-3 19 3 152.23 16.38
-3 19 -3 110.27 13.74
3 19 3 98.38 10.22
-3 -20 3 1.72 2.51
3 20 -3 -0.94 2.36
-3 -20 3 0.51 1.49
-3 20 3 -1.97 3.05
3 -20 -3 -0.92 2.33
-3 -20 -3 3.73 2.56
-3 20 -3 -1.86 3.84
3 -20 3 -2.95 4.3
-3 20 3 -1.2 2.76
3 20 3 -1.29 2.1
-3 20 3 1.56 3.93
-3 20 -3 1.21 2.49
3 -20 -3 1.03 2.13
3 21 -3 105.66 12.44
-3 -21 3 98.67 16.54
-3 -21 -3 87.13 12.51
3 -21 -3 144.81 13.32
-3 21 3 93.6 12.68
-3 21 -3 120.48 16.71
-3 -21 3 114.16 9.68
3 -21 3 64.31 12.75
3 -21 -3 109.31 13.35
-3 21 3 71.25 12.83
-3 21 -3 126.12 14.47
3 21 3 124.25 11.49
-3 21 3 118.52 16.7
3 22 -3 18.77 5.7
-3 -22 3 27.98 8.01
3 -22 -3 26.22 5.68
-3 22 3 12.84 5.43
-3 22 -3 18.57 7.23
-3 -22 -3 29.5 6.62
3 -22 3 16.42 6.44
-3 22 3 29.21 7.51
3 -22 -3 30.5 6.81
3 22 3 31.09 5.68
-3 22 3 16.11 7.57
-3 22 -3 31.4 6.98
3 23 -3 16.18 5.47
-3 -23 -3 22.24 5.86
3 -23 -3 33.5 6.09
-3 23 3 19.09 5.98
3 -23 3 10.62 5.73
-3 23 3 18.33 5.99
3 23 3 21.4 5.03
-3 23 -3 20.81 5.66
3 24 -3 13.75 4.1
-3 24 3 2.44 3.8
-3 24 -3 10.09 4.55
3 0 -4 8.97 2.4
3 0 4 7.91 7.06
3 0 -4 8.47 2.19
3 0 4 11.49 1.91
-3 0 -4 5.62 1.77
3 0 -4 10.44 2.07
3 0 4 6.78 1.97
-3 0 4 7.57 0.92
-3 0 4 7.25 1.8
-3 0 4 6.39 1.66
-3 0 4 14.89 3.83
3 0 -4 8.67 1.64
-3 0 -4 10.49 2.43
3 0 4 6.66 2.27
3 0 -4 4.75 1.87
3 -1 4 110.76 7.57
3 1 -4 95.77 8.77
3 -1 -4 101.95 9.11
3 1 4 91.04 6.18
3 1 4 66.09 17.39
3 -1 4 95.44 20.27
-3 -1 -4 84.4 5.14
3 1 -4 96.62 8.23
3 -1 -4 103.18 8.58
-3 -1 4 94.13 8.98
-3 -1 4 95.61 7.2
-3 1 4 98.72 7.42
-3 1 4 91.82 7.25
-3 -1 -4 103.12 8.32
3 1 -4 97.42 7.48
-3 1 -4 102.98 8.51
3 -1 -4 84.18 7.1
3 1 4 110.27 8.33
3 1 -4 90.24 6.49
3 -1 4 76.53 17.47
3 1 4 78.68 15.89
-3 -1 -4 93.66 8.33
-3 1 -4 104 8.55
3 -1 -4 83.56 6.65
-3 -1 4 112.62 10.78
-3 1 4 89.02 11.2
3 1 4 87.85 8.58
3 -1 4 91.79 8.72
3 -1 -4 91.13 8.32
3 1 4 66.4 4.94
3 1 4 89.61 5.13
3 1 -4 102.97 8.71
-3 -2 -4 8.17 1.2
3 -2 -4 10.81 2.55
-3 -2 4 2.29 1.5
3 2 -4 6.21 2.17
3 -2 4 11.29 7.13
3 -2 4 8.46 1.06
3 2 -4 8.74 2.33
-3 -2 -4 11.3 2.47
3 2 -4 9.52 2.14
-3 2 -4 9.64 2.44
3 -2 -4 9.46 1.89
3 2 4 7.92 2.12
3 -2 4 13.49 2.78
3 2 4 8.91 1.37
-3 -2 4 6.53 1.73
-3 2 4 5.22 1.66
-3 2 4 6.48 1.63
3 2 -4 6.8 1.42
3 2 4 -2.18 7.46
-3 2 -4 6.68 2.04
3 -2 -4 6.34 1.55
-3 2 4 10.79 4.32
-3 -2 -4 7.15 2.28
-3 -2 4 11.28 3.64
3 2 4 6.91 1.46
3 2 4 6.36 2.92
3 -2 4 9.11 2.74
3 2 4 8.72 1.21
3 2 -4 9.32 2.51
3 -2 -4 7.91 2.23
3 -3 4 1432.03 70.86
3 3 -4 1359.14 70.85
3 3 -4 1381.89 70.09
3 -3 -4 1292.84 70.22
3 -3 4 1131.38 66.42
-3 -3 -4 1124.95 66.66
-3 -3 4 1290.5 71.2
-3 -3 4 1300.75 68.22
-3 3 4 1277.69 68.23
3 3 -4 1272.69 69.02
-3 3 4 1250.53 68.76
-3 -3 -4 1325.64 69.7
-3 3 -4 1229.99 69.93
3 -3 -4 1330.01 68.39
3 3 4 1390.77 69.74
-3 -3 -4 1283.39 70.36
3 3 -4 1214.69 66.78
-3 -3 4 1292.59 71.46
-3 3 -4 1373.3 70.11
3 -3 -4 1176.35 68.03
3 3 4 1408.86 85.4
3 3 4 1351.39 71.47
3 -3 4 1441.62 71.25
3 -3 4 1539.86 92.67
3 3 -4 1308.47 70.45
3 -3 -4 1271.21 69.98
3 3 4 1167.73 67.84
3 -4 -4 16.51 3.54
-3 -4 4 13.63 3.58
3 -4 4 22.26 4.49
3 -4 4 17.81 8.91
3 -4 4 14.2 1.92
3 4 -4 13.29 2.92
3 4 -4 19.16 3.18
-3 4 4 15.11 2.92
-3 4 -4 16 3.28
3 4 4 16.96 3.26
3 -4 -4 16.97 2.64
-3 -4 -4 15.23 3.75
-3 -4 4 14.37 2.5
-3 4 4 20.37 3.31
-3 4 4 18.59 2.67
-3 -4 -4 16.57 3.13
3 4 4 13.82 9.44
3 -4 4 14.86 3.54
3 -4 -4 16.9 2.75
-3 -4 -4 16.87 3.72
-3 -4 4 12.19 3.5
3 4 4 19.39 4.14
-3 4 -4 22.43 3.66
3 4 4 6.81 2.74
3 -4 4 15.45 3.79
-3 -4 4 9.61 1.3
3 -4 -4 20.25 3.71
3 5 -4 3961.67 190.18
3 -5 4 3524.58 187.23
-3 -5 4 3808.13 191.96
3 -5 -4 3761.98 190.64
-3 5 4 3749.88 189.09
-3 -5 4 3742.89 188.1
-3 -5 -4 3785.72 189.68
-3 5 4 3780.76 188.27
-3 -5 -4 3730.81 191
3 5 -4 3888.85 189.63
-3 5 4 3665.76 189.4
3 5 4 3955.74 189.76
-3 5 -4 3704.88 190.58
3 -5 -4 3832.15 188.27
-3 -5 -4 3829.74 191.12
3 -5 4 3805.92 191.81
-3 -5 4 3734.45 190.59
3 -5 -4 3630.37 188.85
3 5 4 3909.94 203.22
3 -5 4 3811.04 203.91
-3 5 -4 3963.98 190.08
3 -5 4 4056.42 191.61
3 5 4 4218.65 209.58
3 -5 4 3963.66 208.25
3 -5 -4 3766.37 190.22
3 5 4 3010.36 188.65
-3 -5 4 2865.36 186.32
-3 -6 4 19.32 4.06
3 -6 -4 24.77 4.26
3 -6 4 13.78 4.76
3 6 4 26.68 8.65
3 -6 4 34.43 10.31
3 -6 4 31.28 3.31
3 -6 4 26.84 2.68
3 6 4 24.45 3.75
-3 6 -4 30.68 4.67
-3 -6 -4 30.04 4.56
-3 6 4 26.02 3.99
-3 -6 4 26.31 3.19
-3 -6 -4 28.24 3.98
-3 6 4 33.47 3.62
-3 6 4 19.1 3.58
3 6 -4 22.83 3.76
3 -6 4 40.8 5.64
3 -6 4 20.88 8.53
3 6 4 25.44 7.96
-3 -6 4 30.46 4.43
-3 6 -4 30.38 4.29
3 -6 -4 20.51 3.49
3 6 4 29.23 4.17
3 -6 4 27.94 5.11
-3 -6 4 25.43 8.46
-3 6 4 18 8.39
-3 6 4 39.57 5.59
-3 -6 4 25.92 2.87
3 -6 -4 16.08 2.06
3 -7 4 788.95 48.47
3 -7 4 851.18 45.71
3 -7 4 763.15 44.41
-3 -7 4 797.08 48.76
3 -7 -4 796.49 47.69
-3 -7 4 832.33 45.27
-3 7 4 889.92 46.48
-3 -7 -4 871.36 46.94
3 7 -4 886.12 47.24
-3 -7 -4 802.79 47.58
-3 7 4 870.95 45.69
3 7 4 895.75 46.99
-3 7 -4 847.19 48.33
3 -7 4 856.9 48.8
-3 -7 -4 920.11 49.71
-3 -7 4 875.69 47.03
-3 -7 4 941.77 67.47
-3 7 -4 879.69 46.95
3 -7 -4 833.94 46.81
3 -7 4 882.7 57.69
3 7 4 836.64 56.34
-3 -7 4 878.79 59.28
-3 7 4 826.59 58.52
3 -7 4 840.13 48.52
3 7 4 892.25 60.6
3 -7 4 795.51 58.97
-3 7 -4 742.43 43.98
-3 7 4 881.33 49.12
3 7 4 878.87 46.88
3 -7 -4 682.74 43.92
-3 -8 4 5.4 2.51
3 -8 -4 5.34 1.91
3 -8 4 5.2 1.76
3 8 -4 4.21 1.73
3 -8 4 6.77 1.47
3 8 4 3.42 3.53
3 -8 4 1.74 4
3 -8 4 3.53 1.13
-3 8 4 2.98 1.32
3 8 4 2.52 1.32
-3 -8 -4 3.6 1.6
3 -8 -4 4.22 1.97
-3 8 -4 6.46 2.35
3 -8 4 3.43 2.29
-3 8 4 4.35 1.88
-3 -8 -4 3.76 1.44
3 8 -4 5.06 1.91
3 -8 4 1.45 3.66
3 8 4 -1.37 3.47
3 -8 -4 3.26 1.74
-3 -8 4 4.34 0.75
-3 -8 4 2.63 1.46
-3 -8 -4 5.22 2.24
3 -8 4 5.54 2.29
-3 -8 4 2.35 4.85
-3 8 4 4.4 5.07
3 -8 -4 4.53 1.4
3 8 4 4.91 1.8
3 -8 4 3.01 2.33
-3 8 4 1.61 3.72
-3 -8 4 6.52 5.04
-3 8 4 8.56 2.63
-3 8 -4 3.16 1.1
3 -9 4 74.82 6.42
3 -9 4 83.67 13.39
3 -9 4 100.38 8.55
3 -9 4 81.85 6.65
3 9 -4 89.43 8.43
-3 -9 4 83.91 9.2
3 -9 -4 80.09 8.44
-3 9 4 85.99 7.5
-3 9 -4 84.21 6.68
-3 -9 -4 84.58 7.76
-3 -9 -4 105.6 9.02
-3 9 4 102.5 7.41
3 9 4 97.39 8.22
-3 9 -4 75.55 8.64
3 -9 4 78.4 12.24
3 -9 4 82.16 8.98
-3 -9 -4 96.85 9.48
-3 -9 4 82.53 5.31
3 -9 -4 79.78 8.33
-3 -9 4 97.11 16.68
-3 9 4 73.83 15.36
3 9 4 108.67 13.65
-3 9 4 101.42 9.82
-3 9 4 97.6 14.03
3 9 4 123.39 15.94
3 -9 4 44.54 7.35
-3 9 -4 76.68 6.27
-3 -9 4 84.65 13.33
3 9 4 80.97 7.73
3 -9 -4 84.23 6.86
-3 -10 4 9.21 3.13
3 -10 4 8.37 2.61
3 10 -4 13.66 2.95
3 -10 4 14.06 2.29
3 10 4 17.52 6.37
-3 -10 -4 7.35 1.24
3 -10 4 6.47 4.43
3 -10 4 8.34 1.97
-3 -10 -4 5.21 2.2
-3 10 4 11.32 2.18
3 10 4 11.53 2.55
3 -10 -4 12.05 3.1
-3 10 -4 10.01 3.11
-3 10 -4 10.34 1.96
-3 10 4 10.36 2.36
3 -10 4 8.15 4.45
3 10 4 3.85 3.27
-3 -10 4 10.34 1.34
-3 -10 4 4.36 3.92
-3 10 4 10.16 5.94
3 -10 4 11.08 3.04
-3 -10 -4 16.05 3.46
3 10 4 11.81 2.89
3 -10 4 8.33 2.78
-3 -10 4 10.62 4.96
-3 10 4 11.97 5.13
-3 10 4 9.14 2.93
-3 10 -4 4.33 1.52
3 -11 4 24.26 4.69
3 11 -4 12.79 3.01
3 -11 4 10.24 2.18
3 11 4 15.48 5.78
-3 -11 -4 11.68 1.82
3 -11 4 14.11 5.39
3 -11 4 12.11 2.4
-3 -11 4 11.1 3.2
-3 -11 -4 12.3 3.17
-3 11 4 15.05 2.59
3 11 4 12.83 2.78
3 -11 -4 19.01 4.08
-3 11 -4 5.75 2.53
3 11 -4 11.37 2.91
-3 11 -4 14.14 2.27
-3 11 4 14.34 2.76
3 -11 4 20.94 5.9
3 11 4 19.81 5.59
-3 -11 -4 8.53 2.66
-3 -11 4 8.44 5.35
-3 11 4 1.96 4.99
-3 -11 4 9.47 1.52
3 -11 4 10.87 3.11
3 11 4 13.56 2.89
-3 -11 4 5.87 4.04
-3 11 4 15.89 5.6
3 -11 4 10.78 2.8
-3 11 4 14.02 3.77
-3 11 -4 10.68 2.25
3 -12 4 4.56 4.15
3 12 -4 5.35 2
3 12 4 6.02 4.11
3 -12 4 5.93 1.8
-3 -12 -4 3.44 1.31
3 -12 4 8.12 2.1
-3 -12 4 7.81 2.91
-3 12 4 6.22 1.74
3 -12 -4 7.1 3.16
-3 12 -4 7.78 3.11
3 12 -4 2.77 1.72
-3 12 -4 4.89 1.47
-3 12 4 2.71 1.7
-3 -12 -4 6.56 2.59
3 -12 4 3.8 3.46
3 12 4 2.38 3.01
-3 -12 -4 8.44 2.72
-3 -12 4 6.12 4.7
-3 12 4 13.26 6.17
-3 -12 4 5.75 1.2
3 -12 4 11.44 3.22
3 12 4 3.29 1.76
3 -12 4 4.83 1.85
-3 -12 4 -2.85 4.15
-3 12 4 2.8 2.5
-3 12 4 5.46 2.55
-3 12 -4 4.02 1.57
3 13 -4 1212.95 63.88
3 13 -4 1168.29 63.56
3 -13 4 1104.27 62.47
-3 -13 4 1167.17 66.55
-3 -13 -4 1142.12 60.88
3 -13 -4 1260.21 67.54
-3 -13 -4 1170.21 63.82
-3 13 4 1143.9 61.86
-3 13 -4 1155.11 60.63
3 13 -4 1059.66 61.55
-3 13 -4 1254.73 67.4
-3 -13 4 938.45 59.51
3 -13 4 1154.14 65.7
-3 -13 -4 891.73 62.78
-3 -13 4 933.09 73.63
-3 13 4 1117.88 75.56
3 13 4 1070.61 68.61
3 -13 4 1050.08 69.27
-3 -13 4 1037.92 70.27
-3 13 4 1073.69 70.43
3 -13 4 1161.63 61.11
3 13 -4 1147.29 60.71
-3 13 4 1265.69 66.97
3 13 4 1084.61 71.63
3 -13 4 1102.71 71.84
3 13 4 1171.61 62.96
-3 13 -4 1183.9 62.24
3 14 -4 2.25 1.74
3 14 4 -2.84 4.13
3 -14 4 -1.43 3.9
3 -14 4 -0.54 1.46
-3 -14 4 1.78 2.43
-3 14 4 0.42 1.38
3 -14 -4 -0.98 2.68
-3 14 -4 0.93 2.54
-3 -14 -4 0.58 1.79
3 14 -4 2.3 2.05
3 14 4 -1.1 3.93
-3 -14 -4 -1.5 3.45
3 -14 4 2.37 3.45
3 -14 4 3.22 2.48
-3 -14 4 0.99 1.24
-3 -14 -4 0.58 1.99
-3 -14 4 -1.91 5.21
-3 14 4 -1.27 3.68
-3 14 4 1.76 3.13
3 14 4 -1.52 2.6
3 -14 4 -0.26 1.22
-3 -14 4 2.67 2.38
-3 14 4 -1.3 3.8
-3 14 4 0.88 2.4
-3 14 -4 1.5 1.78
3 15 -4 1439.81 71.35
3 15 -4 1304.8 70.78
3 -15 4 1305.88 71.22
-3 -15 4 1325.22 74.88
-3 -15 -4 1249.45 70.72
-3 15 4 1268.93 69.18
-3 15 -4 1405.63 76.29
-3 -15 4 1078.96 67.02
-3 -15 4 1155.47 80.95
3 -15 4 1426.67 74.36
-3 15 4 1056.52 78.44
3 15 4 1112.91 74.06
3 -15 4 1153.07 75.05
3 -15 4 1234.73 66.66
-3 -15 4 1214.61 76.89
-3 15 4 1136.9 75.82
-3 -15 -4 1063.05 75.2
-3 15 4 1452.12 75.3
-3 15 -4 1376.53 71.03
3 15 4 1307.03 70.24
3 15 4 1163.35 77.09
3 -15 4 1081.7 76.53
3 16 -4 11.54 3.41
3 -16 4 9.2 4.52
3 16 4 13.25 5.48
3 -16 4 11.09 3.77
-3 -16 4 12.56 4.61
-3 16 4 12.5 3.05
-3 16 -4 8.21 4.55
3 16 -4 11.76 3.3
-3 -16 -4 12.15 3.53
3 16 4 9.04 4.3
3 -16 4 15.39 5.09
3 -16 4 14.9 4.83
-3 -16 4 8.94 2.33
-3 16 4 8.06 5.01
-3 -16 4 15.99 6.36
-3 16 4 16.4 5.39
3 16 4 10.2 3.25
-3 -16 -4 5.73 3.95
-3 16 4 6.09 3.67
-3 -16 4 13.73 4.84
-3 16 -4 10.52 3.65
-3 16 4 19.46 5.49
3 17 -4 566.32 33.44
3 17 -4 552.89 33.57
3 -17 4 512.35 35.12
-3 -17 4 615.57 39.09
-3 -17 -4 540.52 33.71
-3 17 4 551.52 32.6
-3 17 -4 557.3 39.94
3 -17 4 632.42 38.25
-3 17 4 513.56 38.93
-3 -17 4 475.25 40.67
-3 17 4 488.55 39.64
3 17 4 389.1 33.92
3 -17 4 409.95 34.97
3 17 4 433.11 36.69
-3 -17 4 421.13 36.11
-3 17 4 476 36.74
3 -17 4 425.04 36.57
-3 17 4 644.44 38.95
-3 17 -4 608.84 35.98
3 17 4 543.14 33.04
3 18 -4 1.4 1.44
3 18 -4 -0.69 1.58
3 18 4 -1.18 3.22
3 -18 4 1.02 1.49
-3 -18 4 3.88 2.98
-3 18 4 2.46 1.9
3 -18 -4 2.08 3.39
-3 18 -4 1.51 2.2
-3 -18 -4 2.91 1.98
-3 -18 4 1.25 1.29
3 -18 4 1.12 3.06
3 -18 4 1.98 2.89
-3 18 4 1.43 2.09
-3 18 4 2.55 2.93
3 18 4 2.47 2.01
-3 -18 4 3.42 2.88
-3 18 4 3.69 2.83
-3 18 -4 1.96 2.85
3 19 -4 9.3 3.62
3 19 -4 8.93 3.3
3 19 4 7.71 3.63
3 -19 4 8.39 3.95
-3 -19 4 8.75 4.29
-3 19 4 19.43 4.21
3 -19 -4 14.93 4.51
-3 -19 -4 13.93 4.92
-3 -19 4 13.89 2.64
-3 -19 -4 12.78 3.81
3 -19 4 13.75 5.18
-3 19 4 9.25 4.34
-3 19 4 10.22 4.2
3 19 4 7.79 2.82
-3 -19 4 10.73 4.03
-3 19 4 17.91 5.7
-3 19 -4 13.75 4.61
3 20 -4 11.67 3.65
3 -20 4 6.12 3.35
-3 -20 4 6.67 4.55
3 20 -4 7.04 3.02
-3 20 4 7.09 3.05
-3 -20 -4 6.67 3.9
3 -20 -4 0.96 2.23
-3 -20 -4 2.73 2.66
3 -20 4 2.81 3.24
-3 20 4 6.41 3.5
3 20 4 7.46 2.63
-3 20 4 12.46 5.33
-3 20 -4 6.72 3.66
3 21 -4 25.72 5.6
3 -21 4 29.38 6.73
-3 -21 4 5.69 4.84
3 21 -4 14.11 4.82
-3 -21 -4 8.68 4.3
-3 21 4 8.08 3.66
3 -21 -4 18.62 4.76
3 -21 4 12.53 5.4
-3 21 4 21.83 5.96
3 21 4 23.92 4.59
-3 21 4 21.14 7.06
-3 21 -4 8.42 4.12
3 22 -4 4.32 3.33
3 -22 4 -1.08 2.72
-3 -22 -4 1.14 3.89
3 -22 4 -1.75 4.41
-3 22 4 3.86 2.96
3 22 4 -0.73 2.25
3 -23 4 270.94 23.79
3 23 -4 227.79 22.71
3 -23 4 206.78 24.78
-3 23 4 170.09 21.78
3 23 4 318.38 21.36
3 -24 4 1.01 2.55
3 0 5 4.36 7.78
3 0 -5 0.62 0.9
-3 0 -5 -0.11 0.39
-3 0 5 -1.06 1.26
-3 0 -5 0.9 1.03
3 0 -5 0.31 0.71
3 0 5 0.6 0.72
3 0 5 6.83 7.87
-3 0 5 -0.88 1.8
3 0 -5 0.39 0.57
3 0 5 1.3 1.5
3 0 5 -0.68 2.52
-3 0 5 -4.7 8.39
-3 -1 5 1.33 1.19
-3 -1 -5 3.19 0.83
3 1 -5 3.07 1.68
3 -1 -5 3.14 1.59
3 1 5 -3.88 4
3 -1 5 -3.67 8.46
-3 -1 -5 2.26 0.79
-3 -1 5 3.37 1.4
-3 -1 -5 3.93 1.63
3 1 -5 3.21 1.41
-3 1 -5 4.66 1.74
3 -1 -5 3.24 1.18
-3 1 5 3.7 1.38
3 -1 5 3.35 1.16
3 -1 5 -3.42 7.05
3 1 5 5.81 6.69
-3 -1 5 4.85 2.5
-3 1 5 0.95 1.97
3 -1 -5 2.28 1.03
3 1 -5 1.94 0.78
-3 -1 5 5.73 11.81
-3 1 5 5.04 8.99
3 1 5 4.61 2.15
3 -1 5 1.28 1.75
3 -1 5 9.6 3
-3 -1 5 15.72 9.91
-3 1 5 11.44 8.78
-3 1 -5 6.56 2.71
-3 -2 5 25.48 4.7
3 2 -5 35.25 5.05
-3 -2 -5 23.21 2.57
3 -2 -5 23.11 4.27
3 -2 5 31.84 11.43
3 -2 5 27.61 3.27
-3 -2 -5 26.71 2.67
-3 2 -5 20.14 3.65
3 2 5 26.07 3.84
-3 -2 5 26.67 3.5
-3 -2 -5 28.71 4
3 2 -5 22.59 3.23
-3 2 5 30.54 3.95
3 -2 -5 24.37 3.16
3 -2 5 25.45 4.53
3 2 5 25.17 10.76
-3 2 -5 31.75 4.39
3 -2 -5 20.99 2.84
-3 2 5 32.63 6.54
3 2 5 25.18 4.55
3 2 -5 19.33 2.05
-3 -2 5 32.14 5.59
3 -2 5 27.91 5.14
-3 2 5 22.41 10.5
-3 2 -5 27.88 4.94
3 3 -5 376.26 24.55
3 -3 5 384.12 22.18
-3 -3 -5 336.05 20.62
-3 -3 5 397.53 25.51
-3 3 5 309.75 19.46
-3 3 -5 373.24 23.54
-3 -3 5 409.96 22.16
-3 -3 -5 361.38 22.77
3 3 -5 368.79 22.24
-3 -3 -5 379.96 24.34
-3 3 5 402.46 23.08
3 -3 -5 379.03 21.46
3 3 5 390.35 22.86
-3 -3 5 360.1 25.07
-3 3 5 497.7 32
-3 -3 5 452.99 50.19
3 3 5 342.08 35.83
3 -3 -5 336.33 21.3
3 -3 5 364.51 24.61
-3 3 5 409.17 40.44
3 -3 5 414.45 26.23
3 -3 5 346.35 38.82
-3 3 -5 403.8 25.94
3 4 -5 57.78 6.87
3 -4 5 62.73 6.1
3 -4 5 53.39 14.1
-3 -4 -5 46.91 4.44
-3 -4 5 57.18 7.2
3 -4 5 46.53 4.09
-3 4 5 52.06 3.98
-3 4 5 52.74 4.76
-3 -4 5 56.37 5.17
-3 -4 -5 55.6 5.77
3 4 -5 61.15 5.8
-3 -4 -5 46.6 6.19
-3 4 -5 62.63 6.58
-3 4 5 54.88 5.83
3 -4 -5 54.56 4.78
3 4 5 53.84 5.64
3 -4 5 59.59 7.11
3 4 5 78.37 14.13
-3 -4 5 52.92 6.77
3 -4 -5 53.28 5.12
-3 4 5 56.73 10.28
-3 -4 5 64.63 17.15
-3 4 5 62.75 16.17
3 -4 5 58.17 7.86
3 4 5 39.91 3.45
-3 -4 5 54.76 13.33
-3 4 5 44.16 12.65
-3 4 -5 50.47 7.02
-3 -5 5 0.7 1.25
-3 -5 -5 1.05 0.71
3 5 5 2.36 4.21
3 -5 5 0.87 0.78
3 -5 5 -2.34 5.9
-3 5 -5 1.59 1.22
-3 -5 -5 0.57 1.32
3 5 5 0.4 1.09
3 -5 -5 0.23 0.72
3 -5 5 0.93 1.44
-3 -5 5 0.89 0.96
-3 5 5 1 0.73
-3 5 5 1.02 0.76
-3 -5 -5 1.22 1.18
3 5 -5 1.18 0.99
3 -5 5 -2.01 3.58
3 5 5 5.56 3.81
-3 -5 5 1.21 1.25
3 -5 5 0.65 0.95
3 -5 -5 1.03 1
-3 5 5 1.57 2.8
-3 -5 5 6.5 6.69
-3 5 5 3 5.36
3 -5 5 2.33 2.26
-3 -5 5 -2.25 4.01
-3 5 5 -2.22 3.23
3 5 5 0.65 0.64
-3 5 -5 1.43 1.47
-3 -6 5 4.32 2.24
3 -6 5 4.13 1.17
3 -6 5 5.33 1.38
3 6 5 -2.19 3.2
3 -6 5 6.57 4.52
-3 -6 -5 7.26 2.24
-3 6 -5 7.19 2.29
3 6 5 5.66 1.83
3 -6 5 4.47 1.93
-3 -6 5 6.11 1.58
-3 6 5 8.97 1.84
-3 6 5 5.35 1.37
-3 -6 -5 5.66 1.74
3 6 -5 7.44 2.06
3 -6 -5 3.78 1.48
3 -6 5 7.4 5.05
3 6 5 1.73 3.98
3 -6 5 5.23 2.25
-3 -6 5 8.63 2.46
-3 6 5 5.5 4.63
-3 -6 5 8.98 6.17
-3 6 5 2.79 5.75
3 6 5 6.78 1.46
-3 6 -5 4.33 2.12
3 -6 5 2.44 2.79
-3 -6 5 10.43 5.69
-3 6 5 4.12 4.25
-3 -6 5 3.56 1.1
-3 -7 5 6.65 2.42
3 -7 5 4.5 1.28
3 -7 5 6.42 1.63
3 7 5 8.25 4.76
3 -7 5 4.15 3.7
-3 -7 -5 2.21 1.52
3 -7 -5 5.24 2.03
3 7 5 4.46 1.74
-3 7 -5 3.52 1.72
3 -7 5 5.32 2.38
-3 -7 5 5.17 1.52
-3 7 5 4.09 1.73
-3 -7 -5 4.04 1.73
-3 7 5 5.06 1.36
3 7 -5 4.84 1.71
3 -7 5 1.73 3.57
3 7 5 1.63 2.38
3 -7 -5 5.91 1.91
3 -7 5 2.65 1.68
-3 -7 5 3.26 1.79
-3 7 5 -2.14 4.93
-3 -7 5 2.82 4.11
-3 7 5 2.62 3.83
3 7 5 10.91 2.01
-3 7 -5 4.48 2.18
3 -7 5 5.28 2.7
-3 -7 -5 6.39 2.74
-3 -7 5 5.87 4.51
-3 7 5 7.73 4.45
-3 -7 5 4.25 1.28
3 -7 -5 2.92 0.94
-3 -8 5 0.76 1.57
3 -8 5 1.99 0.93
3 -8 5 1.64 0.9
3 8 5 1.97 4.05
3 -8 5 1.98 4.57
-3 -8 -5 1.09 1.38
3 8 5 2.06 1.35
3 -8 -5 3.99 1.76
-3 8 -5 1.85 1.56
-3 -8 5 2.85 1.18
-3 -8 -5 1.22 1.11
-3 8 5 0.48 1.21
-3 8 5 2.42 0.94
3 8 5 3.11 3.93
3 -8 5 3.3 3.4
3 -8 -5 1.9 1.47
3 -8 5 3.35 1.95
-3 8 5 4.84 6.1
-3 -8 5 -2.67 4.76
-3 8 5 2.49 3.62
3 8 5 2.02 1.77
3 -8 -5 1.75 0.83
-3 8 -5 2.22 1.71
3 -8 5 1.82 1.53
-3 -8 -5 1.79 2.26
-3 -8 5 5.58 4.28
-3 8 5 1.83 4.22
-3 -8 5 1.9 1.12
3 -9 5 1.59 1.09
-3 -9 5 3.14 1.98
3 -9 5 3.37 1.55
3 9 5 -3.77 4.76
3 -9 5 3.81 4.81
-3 -9 -5 5.51 2.05
3 9 5 2.11 1.45
-3 9 -5 2.09 0.98
3 -9 -5 3.12 1.7
-3 9 -5 1.31 1.35
-3 -9 5 2.57 1.25
-3 -9 -5 1.23 1.04
-3 9 5 1.19 1.73
-3 9 5 1.73 0.92
3 9 5 5.96 3.76
3 -9 5 4.73 3.63
3 -9 5 1.36 1
-3 9 5 -2.03 2.96
-3 -9 5 -2.55 5.26
-3 9 5 -2.39 3.48
-3 -9 5 1.3 1.12
3 9 5 2.61 1.62
3 -9 5 2.53 1.73
-3 -9 -5 7.02 3.1
-3 -9 5 1.78 3.67
-3 9 5 1.75 4.04
-3 9 -5 2.32 0.8
-3 -10 5 22.96 4.79
3 -10 5 27.67 8.16
3 -10 5 28.56 4.08
3 -10 5 22.9 3.22
3 10 5 27.32 8.27
3 -10 5 27.4 3.64
-3 -10 -5 27.28 4.44
3 10 5 21.26 3.63
-3 10 -5 21 4.68
3 -10 -5 37.23 5.69
-3 10 -5 29.62 3.28
-3 -10 5 28.08 3.47
3 10 -5 25.48 4.45
-3 10 5 28.17 3.18
-3 10 5 14.32 3.64
3 10 5 22.95 6.89
3 -10 5 24.3 7.28
3 -10 5 31.45 5.19
-3 -10 5 19.67 8.11
-3 10 5 25.21 8.92
-3 10 5 30.63 8.59
3 10 5 15.83 3.87
-3 -10 5 22.01 3.51
3 -10 5 28.25 3.97
-3 10 -5 20.13 2.59
-3 -10 -5 25.78 6.34
-3 -10 5 20.6 7.4
-3 10 5 30.36 7.87
3 -11 5 211.46 14.81
3 -11 5 217.16 15.11
3 11 -5 216.68 16.77
-3 -11 5 247.68 19.32
3 -11 5 260.28 16.98
3 -11 -5 253.46 18.71
-3 -11 5 267.2 15.01
-3 11 5 191.36 15.82
-3 11 -5 247.9 14.27
-3 -11 -5 252.83 17.24
-3 11 5 220.28 14.18
3 11 5 238.14 15.94
-3 11 -5 197.08 17.6
3 -11 5 247.19 18.4
-3 11 5 181.49 22.41
-3 -11 5 226.19 27.63
-3 11 5 172.24 24.03
3 11 5 238.25 22.65
3 -11 5 199.68 21.75
3 -11 5 244.23 15.36
-3 -11 5 182.84 22.33
-3 11 5 238.25 24
-3 11 -5 206.99 13.79
3 11 5 126.15 15.79
3 11 5 206.02 23.66
-3 -11 5 225.26 16.19
3 -11 5 247.17 25.35
-3 -12 5 24.66 5.28
3 -12 5 19.18 3.26
3 12 5 20.58 6.95
3 -12 5 27.85 8.31
3 -12 5 29.24 4.05
-3 12 -5 17.05 4.67
3 -12 -5 29.09 5.64
-3 -12 5 26.95 3.47
3 12 -5 25.85 4.65
-3 12 5 25.86 3.23
-3 12 5 21.37 4.13
-3 -12 -5 25.52 4.4
3 12 5 22.77 7.01
3 -12 5 22.8 7.29
3 -12 5 23.83 4.89
-3 -12 5 18.49 7.99
-3 12 5 25.57 8.86
3 12 5 21.3 4.5
-3 -12 5 27.31 4.8
-3 12 -5 23.38 3.18
-3 -12 5 22.64 7.36
-3 12 5 28.52 7.58
3 -13 5 310.42 21.37
3 13 -5 351.39 23.32
3 -13 5 314.43 21.55
-3 -13 5 357.43 25.98
3 -13 -5 330.61 25.67
-3 -13 5 323.2 20.39
-3 -13 -5 363.85 23.27
-3 13 5 333.88 20.29
-3 13 -5 333.84 25.48
3 -13 5 397.64 25.5
-3 -13 5 349.87 34.45
-3 13 5 381.19 34.59
3 13 5 312.18 27.64
3 -13 5 284.26 27.54
3 -13 5 292.93 29.49
-3 -13 5 320.31 29.56
-3 13 5 323.83 29.42
-3 13 -5 329.04 20.7
3 13 5 370.94 24.23
-3 -13 5 326.99 23.98
3 13 5 276.66 29.1
3 14 -5 9.23 2.71
3 -14 5 5.75 2.24
3 14 5 14.55 6.01
3 -14 5 11.38 5.56
3 -14 5 7.85 2.44
-3 -14 5 7.77 3.34
-3 14 5 7.45 1.86
-3 14 -5 1.94 2.26
3 -14 -5 5.32 3.31
-3 -14 5 6.54 1.88
3 14 -5 10.83 3.03
-3 -14 -5 6.72 2.76
3 14 5 8.69 4.44
3 -14 5 8.04 4.59
-3 -14 5 4.36 5.51
-3 14 5 11.97 6.17
3 -14 5 8.15 3.27
3 14 5 8.04 3.18
-3 -14 -5 4.19 3.07
-3 14 -5 7.16 2.24
-3 -14 5 9.21 4.75
-3 14 5 10.49 5.36
3 15 -5 49.81 6.75
3 15 5 51.34 10.26
3 15 -5 65.72 7.61
3 -15 5 53.56 10.63
3 -15 5 62.92 7.25
-3 -15 5 57.67 8.99
-3 15 -5 64.63 9.69
3 -15 -5 55.48 9.36
-3 -15 -5 53.24 7.17
-3 15 5 51.16 5.42
3 -15 5 52.77 7.81
-3 -15 5 33.83 10.13
-3 15 5 65.29 12.5
-3 15 5 41.09 8.83
3 15 5 47.91 8.73
3 -15 5 43.92 9.06
-3 -15 5 56.81 10.59
-3 15 5 49.76 9.82
-3 -15 -5 67.73 9.41
-3 15 -5 52.05 6.41
3 15 5 56.99 7.32
3 16 -5 26.1 4.76
3 16 5 22.47 7.16
3 -16 5 19.79 6.56
3 -16 5 26.07 4.8
-3 -16 5 25.44 6.13
-3 16 5 24.83 3.57
-3 16 -5 31.42 7.24
3 -16 -5 14.81 5.21
-3 -16 5 13.66 2.57
3 16 -5 38.6 5.65
-3 -16 -5 18.92 4.33
-3 -16 5 20.46 7.96
-3 16 5 27.7 8.37
-3 16 5 22.44 6.4
3 -16 5 25.9 5.75
3 16 5 16.08 5.41
3 -16 5 16.24 5.57
3 16 5 28.94 5.12
-3 -16 5 29.13 7.73
-3 16 5 21.3 6.3
-3 -16 -5 39.03 6.79
-3 16 -5 21.18 4.33
3 17 -5 21.19 4.62
3 17 5 27.39 7.35
3 -17 5 19.11 4.64
-3 -17 5 20.37 5.88
-3 17 5 15.14 3.17
-3 17 -5 21.93 6.7
3 -17 -5 17.22 5.12
3 17 -5 24.89 4.78
-3 -17 -5 26.7 5.07
-3 -17 5 15.73 7.91
-3 17 5 10.6 5.25
-3 17 5 16.65 5.81
3 17 5 20.72 5.48
3 -17 5 21.01 5.35
3 -17 5 23.99 6.14
3 17 5 22.61 4.52
-3 -17 5 19.76 6.25
-3 17 5 16.5 5.21
-3 -17 -5 25.83 5.52
-3 17 -5 20.98 4.71
3 18 -5 40.89 6.24
3 -18 5 26.37 5.82
-3 -18 5 10.52 4.89
-3 18 5 28.61 4.35
-3 18 -5 17.12 6.36
3 18 -5 32.35 5.48
-3 -18 -5 32 5.69
-3 18 5 20.09 7.03
-3 18 5 26.31 7.12
3 -18 5 29.44 6.5
3 18 5 32 5.44
-3 -18 5 25.92 7.02
3 19 -5 23.42 5.16
3 19 -5 40.26 6.25
3 -19 5 17.33 5.17
-3 -19 5 34.99 8.17
-3 -19 -5 30.38 7.21
-3 19 -5 33.61 9
-3 -19 -5 24.37 5.29
-3 19 5 29.14 8.14
-3 19 5 22.13 7.08
3 -19 5 30.02 7.09
3 19 5 13.56 4.06
-3 -19 5 11.46 5.21
3 20 -5 3.44 2.35
3 20 -5 3.46 2.52
3 -20 5 -1.18 2.44
-3 -20 5 3.27 2.92
-3 -20 -5 5.16 3.25
-3 20 -5 -2.01 5.87
-3 -20 -5 5.44 2.95
3 -20 5 1.33 2.75
3 20 5 1.46 2.25
3 21 -5 417.75 27.18
3 -21 5 219.36 25.53
3 -21 5 352.64 29.86
-3 21 5 244.66 26.2
3 21 5 333.45 23.9
3 -22 5 4.39 3.7
3 -22 5 1.65 3.41
3 22 5 9.21 3.54
3 -23 5 105.43 16.01
3 0 -6 7.08 3.42
3 0 6 38.56 21.06
-3 0 -6 3.09 1.29
-3 0 -6 8.28 2.33
3 0 -6 2.06 1.4
-3 0 6 1.36 3.98
3 0 6 29.52 16.12
-3 0 6 5.78 4.21
3 0 -6 1.8 0.92
-3 0 6 6.59 15.16
3 0 6 9.8 3.53
-3 0 -6 29.31 5.81
-3 -1 -6 1877.38 80.47
3 -1 -6 1787.27 86.42
-3 -1 -6 1831.69 80.22
-3 -1 -6 1783.23 83.05
3 1 -6 1817.87 81.45
-3 1 -6 1844.36 83.65
3 -1 -6 1800.08 80.97
-3 -1 6 2019.59 83.85
-3 1 6 1995.78 84.14
3 1 6 2008.07 87.13
-3 -1 6 2169.39 90.47
3 -1 -6 1467.78 79.59
-3 1 6 1720.06 89.57
-3 -1 6 1574.57 131.64
-3 1 6 1141.44 115.5
3 1 6 1693.6 109.95
3 -1 6 1954.66 120.09
3 -1 6 2004.18 87.08
-3 -1 6 1445.31 115.43
-3 1 6 1773.43 120.88
-3 1 -6 1911.82 87.84
3 1 6 1394.03 113.66
3 -1 6 1976.26 123.82
-3 -2 6 -0.77 1.78
-3 -2 -6 -0.25 1.07
3 -2 -6 -0.73 1.51
3 2 -6 4.03 2.4
-3 -2 -6 1.82 1
-3 -2 -6 3.05 1.62
3 2 -6 2.34 1.24
-3 2 -6 0.5 1.36
3 -2 -6 0.75 0.9
-3 -2 -6 3.1 2.02
-3 -2 6 -0.43 3
-3 2 6 -1.47 5.07
3 2 6 8.29 7.53
-3 -2 6 2.56 2.91
-3 2 6 1.12 4.9
3 -2 -6 1.42 1.01
3 2 6 2.84 2.31
-3 -2 6 5.23 13.18
3 -2 6 6.21 2.75
-3 2 6 10.6 10.29
-3 2 -6 18.96 5.33
-3 -3 -6 351.49 20.67
-3 -3 -6 341.45 20.4
-3 -3 6 353.46 24.97
3 3 -6 358.49 24.08
-3 -3 -6 346.13 21.94
3 3 -6 341.43 21.23
-3 -3 -6 341.45 23.46
-3 3 -6 325.46 22.39
-3 -3 6 379.56 22.43
3 -3 -6 330.99 20.01
-3 -3 6 381.04 25.9
-3 3 6 407.64 29.74
3 -3 -6 290.15 20.05
-3 -3 6 361.59 46.9
3 3 6 359.35 37
3 -3 6 368.69 24.45
-3 3 6 350.65 39.23
-3 3 -6 358.68 25.1
3 -3 6 470.9 44.97
-3 -4 -6 8.56 1.91
-3 -4 6 11.85 3.58
3 4 6 11.66 6.73
3 -4 6 17.3 9.4
3 4 -6 10 3.03
3 4 -6 9.83 2.44
-3 4 -6 7.44 2.49
-3 -4 -6 7.35 2.4
3 -4 -6 9.57 1.68
-3 -4 6 11.35 2.74
3 -4 6 5.81 2
-3 -4 -6 7.1 2.02
3 -4 6 12.32 3.18
3 4 6 6.68 7.96
-3 4 6 14.95 5.62
-3 -4 6 11.71 3.35
3 -4 -6 8.41 1.96
-3 -4 6 4.01 5.86
-3 4 6 10.99 8.45
-3 -4 6 2.78 4.99
-3 4 6 21.94 8.94
-3 4 -6 9.44 3.27
3 -5 6 95.67 17.97
3 5 6 90.77 16.74
-3 -5 -6 69.46 5.75
-3 -5 6 76.3 8.91
3 5 -6 60.88 7.37
-3 5 6 49.43 3.99
-3 -5 -6 73.87 6.57
3 5 -6 74.02 6.64
-3 -5 -6 71.58 7.6
-3 -5 6 77.41 6.85
-3 5 -6 59.15 6.77
3 5 6 67.52 6.28
3 5 6 59.69 13.04
3 -5 6 85.32 15.6
-3 -5 6 75.93 8.92
3 -5 6 72.88 8.06
3 -5 -6 57.39 5.62
-3 5 6 84.08 12.63
-3 -5 6 98.21 20.71
-3 5 6 97.25 19.74
-3 -5 -6 80.52 8.81
-3 5 -6 65.46 8.23
-3 -5 6 98.57 18.07
-3 5 6 74.72 15.44
-3 -6 6 12.24 3.69
-3 -6 -6 8.67 2.08
3 6 6 9.93 6.28
3 -6 6 14.93 7.7
3 6 -6 13.36 3.4
-3 6 6 6.07 1.31
-3 -6 -6 11.73 2.93
-3 6 -6 9.25 2.7
-3 -6 6 8.73 2.5
3 6 6 11.28 2.56
3 -6 6 8.47 2.6
-3 -6 -6 13.52 2.66
3 6 -6 8.34 2.19
3 6 6 7.7 6.59
3 -6 6 6.22 5.25
3 -6 6 8.33 2.71
3 -6 -6 9.01 2.13
-3 6 6 6.96 4.41
-3 -6 6 3.37 6.02
-3 6 6 3.11 4.56
-3 6 -6 13.54 3.69
-3 -6 -6 12.93 3.93
-3 -6 6 7.04 5.93
-3 6 6 6.94 4.78
3 6 6 7.2 1.35
-3 -7 6 282.25 20.61
3 7 -6 273.41 19.08
-3 -7 -6 225.16 16.22
3 -7 6 261.21 15.89
3 -7 6 232.23 15.6
3 -7 -6 280.32 18.43
-3 7 6 214.35 14.74
-3 -7 -6 254.36 16.8
-3 -7 -6 251.99 18.07
-3 -7 6 223.44 16.57
-3 7 -6 247.6 18.39
3 7 6 299.69 17.31
3 -7 6 268.5 19.38
3 -7 -6 215.36 16.4
-3 7 6 410.48 33.5
-3 -7 6 284.46 34.79
-3 7 6 217.61 30.83
3 7 6 229.87 25.96
3 -7 6 243.52 27.38
-3 -7 6 234.35 27.81
-3 7 6 252.51 28.2
-3 -7 -6 287.53 21.41
3 7 6 224.2 14.71
-3 7 -6 307.79 21.15
3 7 6 274.02 30.3
3 -7 6 262.07 29.82
-3 -8 6 12.01 3.88
3 -8 6 10.69 2.17
-3 -8 -6 6.54 2.03
3 8 -6 11.13 3.34
3 8 6 13.39 6.91
3 -8 6 10.26 2.38
3 -8 6 4.51 5.22
-3 8 6 9.22 1.99
-3 -8 -6 12.12 3.23
-3 -8 6 3.72 2.8
-3 8 -6 13.53 3.54
3 -8 -6 6.08 2.55
3 8 6 11.87 2.77
-3 -8 -6 7.45 2.3
3 8 6 3.48 6.96
3 -8 6 7.4 5.74
3 -8 6 8.66 3.01
-3 8 6 13.74 7.09
-3 -8 6 3 8.19
-3 8 6 16.77 8.64
-3 8 -6 12.4 4.02
-3 -8 -6 7.06 3.91
-3 8 6 7.84 3.16
-3 -8 6 6.32 6.15
-3 8 6 6.23 5.67
3 8 6 10 2.15
3 9 -6 1807.65 93.54
-3 -9 6 1917.62 96.57
3 -9 6 1717.01 90.16
3 -9 6 1706.3 90.37
3 -9 -6 1849.95 93.86
-3 9 6 1712.62 89.93
-3 -9 -6 1781.86 92.68
3 9 6 2012.1 91.51
-3 9 -6 1751.17 93.63
3 -9 6 1918.75 94.83
-3 9 6 1758.46 112.99
-3 -9 6 1712.79 114.6
-3 9 6 1985.1 116.06
3 9 6 1658.59 103.1
3 -9 6 1629.95 103.52
-3 -9 6 1641.7 105.95
-3 9 6 1645.26 105.77
-3 -9 -6 1870.69 99.18
-3 9 6 1954.69 95.8
3 9 6 1780.05 89.82
-3 -9 6 1383.26 89.02
-3 9 -6 2042.2 96.76
3 9 6 1722.75 108.12
3 -9 6 1689.26 107.77
-3 -10 6 0.91 1.88
3 -10 6 0.8 1.36
3 -10 6 2.56 1.76
3 10 6 2.06 4.75
3 -10 6 -4.18 6.09
-3 10 6 1.66 1.76
-3 -10 -6 2.93 2.34
-3 -10 6 -0.29 1.81
3 10 6 1.27 1.38
-3 10 -6 2.91 2.48
3 -10 -6 2.21 2.63
-3 10 6 2.49 1.08
3 10 6 -4.82 6.19
3 -10 6 -5.13 6.34
3 -10 6 0.75 1.89
-3 -10 6 2.78 4.96
-3 10 6 -5.14 7.49
-3 10 6 -2.35 7.26
-3 -10 -6 -1.26 4.1
-3 10 6 1.66 2.71
-3 -10 6 2.5 1.8
-3 -10 6 1.96 4.51
-3 10 6 -1.92 4.43
3 10 6 0.4 1.91
-3 -11 6 864.59 49.83
3 -11 6 784.22 44.17
3 -11 -6 852.51 48.61
-3 -11 -6 787.96 45.89
-3 11 6 770.59 45.22
-3 11 6 687.83 41.19
-3 -11 6 789.7 42
3 11 6 915.73 44.9
-3 11 -6 776.41 47.58
3 -11 6 865.55 48.07
-3 11 6 593.51 54.88
-3 -11 6 745.57 62.41
-3 11 6 831.9 62.93
3 11 6 768.88 54.08
3 -11 6 783.84 55.48
3 11 6 745.94 57.26
3 -11 6 774.53 58.21
-3 -11 6 727.56 56.17
-3 11 6 748.59 56.08
-3 -11 -6 500.66 48.79
-3 11 6 893.15 49.28
3 11 6 888.71 45.36
-3 -11 6 653.14 43.46
3 -12 6 0.94 1.38
-3 -12 6 0.98 2.02
3 12 6 1.93 4.43
3 -12 6 3.93 4.95
-3 -12 6 0.44 0.85
-3 12 -6 -0.84 1.5
3 -12 -6 -0.92 2.67
-3 12 6 -0.83 1.06
-3 -12 -6 3.06 2.09
3 -12 6 0.79 2.14
-3 12 6 -7.59 3.38
-3 -12 6 2.61 4.66
-3 12 6 -4.81 6.55
3 12 6 1.5 4.09
3 -12 6 -1.59 4.34
-3 12 6 -1.81 3.08
-3 -12 6 0.93 1.35
3 12 6 0.61 1.87
-3 -12 6 -1.85 4.27
-3 12 6 1.81 3.23
3 13 -6 321.1 20.72
3 -13 6 276.25 18.73
-3 -13 6 292.59 23.08
3 -13 -6 310.3 23.47
-3 -13 -6 282.8 19.75
-3 13 6 210.14 15.14
-3 13 -6 247.64 21.24
3 -13 6 324.91 22.08
-3 13 6 244.81 29.22
3 13 6 261.07 25.18
3 -13 6 259.17 25.79
-3 -13 6 295.37 32.95
3 13 6 264.87 27.51
-3 -13 6 297.54 28.45
-3 13 6 265.71 27.27
3 -13 6 252.55 27.7
3 13 6 294.69 20.99
-3 13 6 338.91 23.38
3 -14 6 2.81 1.83
-3 -14 6 2.18 1.95
3 14 6 7.26 4.94
3 -14 6 5.58 5.75
-3 14 -6 6.98 3.4
3 -14 -6 1.14 2.62
3 14 -6 0.7 1.44
-3 -14 -6 1.28 1.62
-3 14 6 1.84 0.92
3 -14 6 2.54 2.14
-3 -14 6 12.4 6.76
-3 14 6 2.26 4.65
3 14 6 1.41 3.25
3 -14 6 1.51 3.1
-3 -14 6 1.78 3.18
-3 14 6 1.74 3.1
-3 14 6 5.9 3.2
3 14 6 0.91 2.48
3 -15 6 6.02 2.24
-3 -15 6 2.28 2.04
3 15 6 1.77 3.64
-3 15 -6 4.41 3.01
3 -15 -6 7.56 3.9
3 15 -6 5.72 2.76
-3 -15 -6 2.01 1.7
3 -15 6 6.22 2.9
-3 -15 6 7.23 6.57
-3 15 6 2.19 3.19
-3 15 6 6.53 4.12
3 15 6 2.72 3.97
3 -15 6 7.31 4.52
-3 -15 6 1.74 4.39
-3 15 6 3.39 3.03
-3 -15 -6 2.1 2.42
-3 15 6 6.23 3.21
3 15 6 2.16 2.95
-3 -16 6 12.11 4.14
3 16 6 8.54 4.97
3 -16 6 3.29 2.35
-3 16 -6 -1.23 2.84
3 -16 -6 -1.3 3.28
3 16 -6 9.58 3.31
-3 -16 -6 3.46 2.14
-3 -16 6 -2.34 5.38
-3 16 6 4.22 3.77
3 -16 6 4.71 2.75
-3 16 6 4.78 3.28
-3 -16 6 3.41 4.3
-3 16 6 4.97 3.82
-3 -16 -6 7.95 3.39
-3 16 6 2.22 2.8
3 16 6 0.97 2.83
3 17 -6 240.88 18.91
3 -17 6 225.8 18.72
-3 -17 6 251.21 23.04
-3 -17 -6 190.71 21.37
3 -17 -6 220.89 21.48
-3 -17 -6 248.82 19.18
-3 17 -6 275.1 24.87
3 -17 6 277.88 21.71
-3 17 6 202.05 23.23
-3 -17 6 198.06 26.17
-3 17 6 218.51 25.54
-3 -17 -6 236.03 20.27
-3 -17 6 205.32 23.87
-3 17 6 293.72 23.32
3 17 6 240.99 20.32
-3 -18 6 12.46 4.97
3 -18 6 7.31 3.29
-3 18 -6 11.09 5.44
3 -18 -6 9.11 4.43
3 18 -6 12.65 3.95
-3 -18 -6 10.74 3.83
-3 18 6 18.85 6.75
-3 18 6 7.72 4.53
3 -18 6 17.19 5.1
-3 -18 6 6.29 4.62
-3 -18 -6 9.24 4.08
-3 18 6 20.69 6.27
3 18 6 14.93 4.65
3 19 -6 678.79 40.88
3 19 -6 619.62 40.03
3 -19 6 595.56 41.35
-3 -19 6 751.8 48.09
-3 -19 -6 593.68 40.11
3 -19 -6 630.37 42.73
-3 19 -6 466.39 45.87
3 -19 6 697.35 44.56
-3 19 6 520.42 44.89
-3 -19 -6 591.85 40.42
-3 19 6 730.36 46.79
3 19 6 559.56 40.14
3 -20 6 3.12 3.03
-3 20 6 3.03 3.82
3 -20 6 10.29 4.59
3 20 6 0.84 3.47
3 -21 6 363.18 31.78
3 -21 6 451.92 35.11
3 21 6 392.61 29.36
3 22 6 1.68 2.12
3 0 7 -5.36 11.03
-3 0 -7 0.93 1.36
-3 0 7 2.19 3.18
3 0 7 12.07 10.96
-3 0 7 1.08 1.58
-3 0 7 14.02 12.5
3 0 7 2.22 2.16
-3 0 -7 4.4 2.72
-3 0 7 5.51 5.67
-3 -1 -7 137.91 9.25
3 1 7 124.02 26.76
3 -1 7 160.56 30.18
-3 -1 -7 128.93 10.37
3 1 -7 138.77 9.36
-3 1 -7 130.78 10.58
-3 -1 -7 134.48 11.79
-3 -1 7 152.55 13.3
3 1 7 93.91 21.24
3 -1 7 138.6 28.09
-3 -1 7 127.67 34.49
3 -1 -7 89.4 7.53
-3 -1 7 154.08 15.18
-3 1 7 154.38 15.55
3 -1 7 135.21 12.37
-3 -1 -7 181.91 14.93
-3 1 -7 164.96 14.14
-3 -1 7 117.55 26.84
-3 1 7 105.58 24.93
3 -2 7 68.04 19.05
-3 -2 -7 47.28 4.84
3 2 -7 61.45 7.54
-3 -2 7 47.15 7.41
-3 -2 -7 44.93 5.42
3 2 -7 43.77 4.76
-3 -2 -7 67.74 7.44
-3 2 -7 55.61 6.22
3 2 7 58.03 15.61
3 -2 -7 39.39 4.01
-3 -2 7 62.82 9.13
-3 2 7 42.54 8.59
-3 -2 7 40.29 18.91
3 -2 7 68.51 8.07
-3 2 -7 63.06 8.3
-3 2 7 39.45 14.29
-3 -3 -7 59.82 5.59
3 -3 7 53.52 15.83
-3 -3 7 71.24 8.8
3 3 -7 59.8 7.54
-3 -3 7 33.19 6.86
-3 -3 -7 55.8 5.92
3 3 -7 50.45 5.27
-3 -3 -7 58.37 7.11
-3 3 -7 60.43 6.71
3 3 7 81.62 16.33
-3 -3 7 72.59 9.55
3 -3 -7 40.2 4.41
-3 3 7 66.49 10.6
-3 -3 7 55.25 19.55
3 -3 7 63.3 7.79
-3 3 -7 67.23 8.73
-3 3 7 65.69 18.02
-3 -4 -7 49.85 5.42
3 4 7 52.21 14.53
3 -4 7 67.98 16.57
-3 -4 7 76.36 9.26
3 4 -7 56.83 7.48
-3 -4 7 36.7 6.83
-3 -4 -7 67.81 6.27
-3 -4 -7 56.06 6.93
3 4 -7 44.28 5.28
-3 4 -7 55.94 6.59
3 4 7 56.96 13.31
-3 -4 7 47.4 7.94
3 -4 -7 46.36 4.87
-3 4 7 79.06 11.97
-3 -4 7 53.74 17.49
-3 4 7 73.19 18.94
3 -4 7 60.03 7.62
-3 -4 -7 75.66 8.53
-3 4 -7 75.62 8.99
-3 -4 7 59.62 15.42
-3 4 7 83.53 18.52
-3 -5 7 2.7 2.08
3 5 -7 1.46 1.5
3 5 7 2.99 5.33
3 -5 7 2.98 5.32
3 5 -7 0.8 1.24
-3 -5 7 0.56 1.72
-3 5 -7 0.57 1.32
-3 -5 -7 3.66 1.78
-3 -5 -7 1.17 0.99
3 5 7 2.29 4.72
3 -5 7 -2.52 6.35
3 -5 -7 0.65 1.01
-3 5 7 3.72 6.64
-3 5 7 4.67 3.2
-3 -5 7 -4.07 5.93
3 -5 7 0.73 0.76
-3 5 -7 1.73 1.99
-3 -5 -7 0.81 2.21
-3 -5 7 11.44 6.58
-3 5 7 2.82 4.11
-3 -6 7 10.09 3.55
3 6 -7 8.02 2.92
3 6 7 8.35 8.11
3 -6 7 16.75 9.09
-3 6 -7 -0.66 3.95
-3 -6 -7 9.02 2.72
-3 -6 7 3.51 2.8
-3 6 -7 8.97 2.84
-3 -6 -7 7.26 2.07
3 -6 7 8.8 3.22
3 6 7 -2.13 6.96
3 -6 7 11.56 6.74
3 -6 -7 7.01 1.89
-3 6 7 -1.74 3.59
-3 -6 7 7.56 8.7
-3 6 7 10.42 7.16
-3 6 -7 8.79 3.52
-3 -6 -7 11.64 4.24
-3 -6 7 2.66 5.48
-3 6 7 15.73 7.64
3 7 -7 485.61 29.91
-3 -7 7 514.8 32.15
3 -7 -7 500.32 28.9
-3 -7 -7 445.2 26.48
-3 -7 -7 520.98 29.19
-3 7 -7 427.56 28.45
-3 -7 7 488.51 26.6
-3 7 7 534.09 50.19
-3 7 7 695.82 45.47
-3 -7 7 479.39 49.83
3 -7 -7 453.97 26.9
3 7 7 457.54 39.94
3 -7 7 471.08 41.21
3 -7 7 513.83 30.51
3 7 7 444.78 43.23
3 -7 7 440.32 43.3
-3 -7 7 464.94 43.55
-3 7 7 470.46 43.23
-3 -7 -7 580.78 34.32
3 7 7 322.9 23.6
-3 7 -7 527.01 32.44
-3 -8 7 18.11 4.65
3 8 -7 21.18 4.35
3 8 7 32.4 9.96
3 -8 7 2.52 5.84
-3 8 -7 9.73 4.13
-3 -8 -7 16.23 3.57
-3 8 -7 13.95 3.55
-3 8 7 8.27 1.87
3 -8 -7 19.88 4.13
3 8 7 12.23 2.53
-3 -8 7 16.96 2.75
-3 -8 -7 14.96 2.79
3 -8 7 16.48 4.14
-3 8 7 19.97 8.57
-3 -8 7 10.13 6.99
-3 8 7 9.37 6.47
3 8 7 15.49 6.94
3 -8 7 8.25 7.39
-3 -8 7 21.57 8.58
-3 8 7 21.23 8.08
-3 8 -7 17.66 4.6
-3 -8 -7 14.57 5.08
3 8 7 10.61 1.98
3 -9 7 92.3 17.5
3 9 7 135.8 20.41
-3 9 -7 91.71 11.47
3 9 -7 140.65 12.16
-3 -9 7 136.77 13.68
3 9 -7 129.03 11.7
3 -9 7 125.02 9.93
-3 -9 7 109.04 8.23
3 -9 -7 129.58 11.93
-3 -9 -7 124.91 11.14
-3 9 7 110.51 8.62
-3 9 -7 125.44 11.83
3 9 7 126.21 9.85
3 -9 7 140.27 12.69
-3 9 7 172.08 23.81
-3 -9 7 133 23.46
-3 9 7 92.89 19.73
3 9 7 128.58 18.21
3 -9 7 114.77 17.4
-3 -9 7 85.56 16.76
-3 9 7 104.5 18.09
-3 -9 -7 134.14 15.18
3 9 7 99.32 8.31
-3 9 -7 154.91 14.07
-3 -10 7 6.04 2.95
3 -10 7 6.23 1.91
3 10 -7 13.36 3.48
3 10 7 9.2 5.81
-3 10 -7 0.75 2.05
3 -10 7 2.35 4.85
-3 -10 -7 7.36 2.62
-3 10 -7 2.99 2.45
3 -10 -7 10.83 3.3
3 10 -7 13.45 3.8
3 -10 7 3.13 2.29
-3 10 7 5.76 5.14
-3 -10 7 9.39 7.9
-3 10 7 8.65 6.65
3 10 7 3.59 3.71
3 -10 7 9.54 5.9
-3 -10 7 -2.24 5.17
-3 10 7 6.6 5.07
-3 -10 -7 9.79 5
-3 10 7 7.14 3.06
3 10 7 8.71 2.12
-3 -11 7 5.2 2.62
3 -11 7 0.48 1.1
3 11 -7 1.41 1.46
3 11 7 2.23 3.98
3 -11 7 2.29 4.08
-3 11 -7 1.43 1.8
-3 -11 -7 3.76 2.04
-3 11 -7 3.98 2.32
3 -11 -7 2.57 1.98
3 -11 7 2.41 2.48
-3 11 7 2.61 5.38
-3 -11 7 9.1 7.65
-3 11 7 2.79 5.75
3 11 7 -3.48 5.37
3 -11 7 11.05 5.36
-3 -11 7 -2.18 3.89
-3 11 7 2.14 3.81
-3 -11 -7 1.56 2.78
-3 11 7 4.6 2.68
3 11 7 0.77 1.19
-3 -12 7 40.81 7.43
3 -12 7 33.74 4.92
3 12 -7 30.57 5.57
3 12 7 21.68 8.79
3 -12 7 17.78 7.76
-3 12 -7 29.13 5.87
3 -12 -7 28.71 6.28
-3 -12 -7 29.07 5.25
3 -12 7 31.47 5.75
-3 12 7 18.59 8.44
-3 -12 7 29.5 10.64
-3 12 7 35.19 10.91
3 12 7 28.64 8.65
3 -12 7 35.72 9.33
-3 -12 7 23.46 8.66
-3 12 7 37.57 9.98
-3 -12 -7 27.26 7.11
3 12 7 42.24 5.17
-3 12 7 30.54 6.19
-3 -13 7 3.34 2.57
3 -13 7 2.2 1.7
3 13 -7 2.85 1.94
3 13 7 12.65 5.74
-3 13 -7 2.78 2.53
3 -13 -7 5.33 3.3
-3 -13 -7 -0.64 1.63
3 -13 7 5.11 2.78
-3 -13 7 5.74 5.92
-3 13 7 -2.63 4.68
3 -13 7 5.21 5.06
-3 -13 7 -2.09 4.81
-3 13 7 4.08 4.7
-3 -13 -7 5.19 3.27
-3 13 7 10.01 3.72
3 13 7 3.81 2.24
-3 -14 7 19.73 5.43
3 -14 7 24.85 4.45
3 14 -7 14.37 3.89
-3 14 -7 23.28 5.6
3 -14 -7 17.77 5.26
-3 -14 -7 13.92 3.92
-3 -14 7 11.18 7.67
3 -14 7 21.2 4.99
-3 14 7 7.65 6.5
-3 -14 7 24.54 7.65
-3 14 7 19.95 7.18
-3 14 7 17.79 5.03
3 14 7 21.41 4.38
3 15 -7 74.74 8.93
3 15 -7 81.45 9.36
-3 -15 7 69.35 10.62
3 -15 7 66.89 8.02
-3 15 -7 65.63 10.4
3 -15 -7 52.5 10.27
-3 -15 -7 79.49 8.93
-3 -15 -7 68.15 10.98
3 -15 7 77.42 9.8
-3 -15 7 37.6 12.24
-3 15 7 61.17 14.01
-3 -15 7 53.78 12.29
-3 15 7 52.39 11.66
-3 15 7 88.78 11.09
3 15 7 60.25 8.71
3 -16 7 13.12 3.67
-3 -16 7 18 5.33
-3 -16 -7 9.86 5.06
-3 16 -7 3.72 3.43
3 -16 -7 12.3 5.3
3 16 -7 13.53 3.97
-3 -16 -7 12.92 3.88
3 -16 7 13.48 4.36
-3 16 7 8.95 5.56
-3 -16 7 15.49 7.06
-3 16 7 4.68 4.85
-3 -16 7 11.55 6.89
-3 16 7 11.24 6.71
-3 -16 -7 22.35 5.72
-3 16 7 11.53 4.48
3 16 7 5.67 4.16
3 17 -7 512.23 33.75
3 -17 7 497.18 33.37
-3 -17 7 637.56 40.57
-3 -17 -7 435.21 36.92
3 -17 -7 463.77 36.78
-3 -17 -7 504.13 33.44
-3 17 -7 508.74 39.22
3 -17 7 640.2 37.88
-3 17 7 430.99 39.72
-3 17 7 446.25 42.95
-3 -17 -7 542.35 36.3
-3 -17 7 391.28 39.83
-3 17 7 627.2 39.13
3 17 7 360.37 34.55
3 -18 7 39.14 7.46
3 18 7 29.79 8.24
3 -19 7 137.67 14.96
3 19 7 76.87 12.25
3 -20 7 -1.28 3.22
3 -21 7 30.88 7.81
3 0 8 46.93 18.2
3 0 -8 28.69 5.45
-3 0 -8 42.82 6.17
-3 0 -8 36.84 4.85
-3 0 8 39.79 8.17
3 0 8 17.44 14.3
-3 0 8 42.36 19.77
-3 0 -8 38.59 6.78
-3 -1 -8 113.19 8.92
3 1 8 93.53 26.89
3 -1 8 95.98 25.12
3 1 -8 124.17 12.07
-3 -1 -8 118.13 9.72
-3 -1 -8 113.76 11.07
-3 1 -8 109.19 9.79
-3 -1 8 121.9 14.46
-3 1 8 120.43 14.75
-3 -1 8 109.64 32.49
3 1 8 109.96 24.5
3 -1 8 106.66 25.97
-3 -1 8 119.32 28.9
-3 1 8 106.96 26.9
-3 -1 -8 111.7 12.45
-3 1 -8 141.73 13.62
-3 -2 -8 13.94 2.72
3 -2 8 35.55 14.49
3 2 -8 14.18 4.04
-3 -2 -8 13.72 2.79
-3 2 -8 16.3 3.19
-3 -2 -8 21.94 4.28
-3 -2 8 1.08 5.94
-3 -2 8 10.39 4.66
-3 2 8 13.6 5.29
-3 -2 8 12.64 13.04
3 -2 8 11.54 3.53
3 2 8 33.49 15.82
-3 2 8 17.65 12.04
-3 -2 -8 22.39 5.72
-3 2 -8 13.01 4.24
-3 -3 -8 661.85 37.07
3 3 -8 647.05 40.64
-3 -3 8 486.53 40.41
-3 -3 -8 616.38 36.85
-3 -3 -8 660.14 39.41
-3 3 -8 566.63 37.62
-3 3 8 784.85 48.74
-3 -3 8 627.7 73.02
3 -3 8 692.63 40.88
3 3 8 593.02 56.23
-3 3 8 688.66 65.49
-3 -3 -8 663.38 40.4
3 -3 8 817.06 68.8
-3 3 -8 656.95 41.97
-3 -4 8 60.19 8.69
-3 -4 -8 48.57 5.64
3 4 -8 40.09 6.8
3 4 8 76.09 21.58
3 -4 8 54.28 18.04
-3 4 -8 41.84 5.95
-3 -4 -8 48.27 5.35
-3 -4 -8 63.63 7.84
-3 -4 8 34.84 20.01
-3 4 8 49.12 11.12
-3 4 8 35.92 15.54
3 -4 8 53.87 7.48
3 4 8 81.94 21.19
3 -4 8 58.48 17.54
-3 4 -8 44.41 7.85
-3 -4 8 28.29 14.78
-3 4 8 31.46 14.61
-3 -4 -8 52.4 8.51
-3 -5 -8 1490.91 83.79
3 5 -8 1671.22 87.85
-3 -5 8 1761.91 90.64
-3 -5 -8 1480.76 82.83
-3 -5 -8 1637.45 85.94
-3 5 -8 1431.03 84.74
-3 5 8 1763.34 97.92
-3 -5 8 1673.46 122.59
-3 5 8 1690.96 119.98
3 -5 -8 1237.92 81.77
3 5 8 1569.95 103.86
3 -5 8 1623.68 107.52
3 -5 8 1773.12 88.22
-3 -5 -8 1670.15 89.16
-3 -5 8 1487.77 109.43
-3 5 8 1690.66 112.29
3 5 8 1841.8 114.56
3 -5 8 1670.68 112.89
-3 5 -8 1715.38 89.8
-3 -6 8 57.77 8.65
3 6 8 49.53 15.45
3 -6 8 50.14 18.11
3 6 -8 59.41 7.76
-3 6 -8 13.08 6.05
-3 6 -8 41.62 6.24
-3 -6 -8 52.69 5.19
-3 -6 -8 53.28 6.74
-3 6 8 61.07 13.27
3 -6 -8 36.84 4.9
-3 -6 8 42.2 16.42
-3 6 8 57.96 19.21
3 -6 8 47.98 7.18
3 6 8 61.75 14.85
3 -6 8 51.74 18.01
-3 6 -8 49.89 8.28
-3 -6 8 57.44 16.33
-3 6 8 38.78 15.83
-3 -6 -8 35.03 7.77
3 7 -8 464.79 30.41
-3 -7 8 464.15 32.61
-3 7 -8 379.62 28.39
-3 -7 -8 438.38 26.43
-3 -7 -8 462.87 29.3
-3 7 8 460.36 49.97
-3 7 8 560.97 42.88
-3 -7 8 516.55 54.22
3 -7 -8 391.72 26.74
3 7 8 448.39 41.21
3 -7 8 397.45 41.31
3 -7 8 472.96 30.72
-3 -7 -8 524.31 34.29
-3 -7 8 416.39 43.8
-3 7 8 423.99 43.9
3 7 8 409.3 43.98
3 -7 8 436.22 45.5
-3 7 -8 554.91 34
-3 -8 8 24.17 5.7
3 8 -8 22.73 4.64
3 8 8 13.92 7.64
3 -8 8 11.35 8.81
-3 8 -8 3.59 3.91
-3 -8 -8 20.43 4.08
-3 8 -8 19.56 4.09
3 -8 -8 19.3 4.37
3 8 -8 22.91 4.78
3 -8 -8 20.96 3.73
-3 8 8 11.12 6.93
-3 -8 8 26.46 11.71
-3 8 8 6.96 8.07
3 8 8 8.61 6.71
3 -8 8 20.71 9.52
3 -8 8 21.13 4.65
-3 8 -8 14.16 4.65
-3 -8 8 19.14 8.49
-3 8 8 16.15 7.89
-3 -8 -8 32.85 7.67
3 9 8 98.77 18.83
3 -9 8 122.75 21.34
3 9 -8 127.62 12.03
3 9 -8 127.95 12.17
-3 -9 8 144.04 14.49
-3 9 -8 63.65 11.1
3 -9 -8 130.73 12.21
-3 -9 -8 126.42 11.39
-3 9 -8 95.93 10.82
-3 9 8 142.24 21.74
-3 -9 8 130.59 24.68
-3 9 8 143.61 25.07
3 -9 8 138.76 12.74
3 9 8 117.93 18.59
3 -9 8 94.65 17.88
-3 -9 8 150.36 22.24
-3 9 8 111.53 19.84
-3 -9 -8 144.12 16.32
-3 -10 8 64.77 9.43
3 10 8 54 13.15
3 10 -8 53.33 7.12
3 -10 8 42.55 5.4
-3 10 -8 24.52 5.92
-3 10 -8 35.77 6.19
3 -10 -8 39.08 6.61
-3 -10 -8 47.48 6.35
3 10 -8 42.43 6.55
-3 10 8 42.18 12.47
-3 -10 8 31.48 12.66
-3 10 8 32.19 13.02
3 -10 8 52.98 12.34
3 -10 8 55.3 7.41
-3 -10 8 23.05 10.1
-3 10 8 35.17 11.48
-3 -10 -8 34.88 8.39
-3 -11 8 41.68 7.63
3 -11 8 25.87 4.27
3 11 -8 25.57 5.19
-3 11 -8 14.64 4.78
-3 11 -8 29.11 5.62
3 -11 -8 24.81 5.48
3 11 -8 33.29 5.79
-3 -11 -8 25.7 4.77
3 -11 8 38.45 6.33
-3 11 8 15.92 8.78
-3 -11 8 20.33 11.11
-3 11 8 24.92 10.72
-3 -11 8 19.86 9.65
-3 11 8 26.75 9.46
-3 -11 -8 18.58 6.64
-3 -12 8 5.8 3.38
3 -12 8 4.95 2.12
3 12 -8 2.28 2.6
-3 12 -8 5.68 3.58
-3 -12 -8 -1.32 4.08
-3 12 -8 0.87 2.36
3 -12 -8 7.89 3.8
3 12 -8 9.3 3.39
-3 -12 -8 3.9 2.22
3 -12 8 6.72 3.12
-3 12 8 -2.78 5.72
-3 -12 8 9.79 8.23
-3 12 8 6 6.17
-3 -12 8 12.05 7.02
-3 12 8 -2.36 5.95
-3 -12 -8 1.54 4.48
3 13 -8 650.72 38.93
-3 -13 8 648.96 42.76
3 -13 8 616.44 36.99
-3 -13 -8 464.46 41.58
3 -13 -8 665.76 42.57
-3 -13 -8 636.26 37.93
-3 13 -8 530.02 39.33
3 -13 8 677.02 40.4
-3 13 8 386.97 46.05
-3 -13 8 525.64 54.68
-3 13 8 536.62 52.38
-3 -13 -8 602.17 43.8
-3 -13 8 554.88 50.33
-3 13 8 498.24 48.11
-3 13 8 687.43 41.9
-3 -14 8 26.21 6.72
3 -14 8 13.61 3.64
3 14 -8 16.78 4.3
-3 14 -8 12.12 5.16
3 -14 -8 15.83 5.93
-3 -14 -8 8.3 5.39
-3 -14 -8 17.18 4.2
3 -14 8 19.72 5.2
-3 14 8 27.78 10.73
-3 -14 8 3.04 7.71
-3 -14 8 11.44 7.11
-3 14 8 8.93 6.55
-3 -14 -8 15.32 5.48
-3 14 8 24.87 6.15
3 -15 -8 374.77 37.92
-3 -15 -8 610.59 36.38
-3 15 -8 480.68 38.62
3 -15 8 705.11 39.64
-3 -15 8 547.73 52.4
-3 15 8 478.87 48.89
-3 15 8 452.49 45.48
-3 -15 8 506.79 47.41
-3 15 8 683.65 40.88
3 -16 8 18.56 5.29
-3 16 8 12.83 7.04
-3 -16 8 15.05 7.39
-3 17 8 229.81 32.01
-3 -17 8 278 31.21
3 0 -9 0.96 1.7
3 0 9 6.46 9.41
3 0 -9 0.84 1.74
-3 0 -9 0.45 1.13
-3 0 -9 0.69 1.88
-3 0 9 7.97 14.21
3 0 9 -4.71 10.85
-3 0 9 6.62 9.63
-3 0 -9 -1 2.71
3 1 -9 23.61 5.41
3 -1 -9 26.05 5.52
3 1 -9 23.51 5.14
3 1 9 -5.68 10.22
3 -1 9 33.54 15.29
3 -1 -9 32.33 5.83
-3 -1 -9 26.86 3.96
-3 1 -9 22.82 3.9
-3 -1 -9 30.83 5.11
-3 1 -9 25.82 4.85
3 1 9 20.58 14.74
-3 1 9 36.47 8.34
-3 -1 9 31.69 18.29
3 -1 9 30.59 14.91
-3 -1 9 22.8 13.19
-3 1 9 39.37 17.43
-3 -1 -9 28.17 6.19
-3 1 -9 24.81 5.66
3 2 -9 80.14 9.98
3 -2 -9 75.11 10
3 -2 9 64.13 20.59
3 2 -9 67.76 8.66
-3 -2 -9 66.42 7.94
-3 2 -9 47.38 6.22
-3 2 -9 70.41 8.18
-3 2 9 79.66 12.57
-3 -2 9 48.38 22.75
3 2 9 47.45 18.71
-3 2 9 54 19.21
-3 -2 -9 77.61 10.57
-3 2 -9 67.04 9.52
3 3 -9 456.14 30.02
3 -3 -9 401.51 29.7
3 3 -9 385.25 28.05
-3 -3 -9 384.06 26.59
-3 3 -9 354.5 25.29
-3 3 9 483.36 36.79
-3 3 9 400.59 54.87
-3 -3 9 378.35 56.53
-3 3 9 378.82 49.42
-3 -3 -9 445.29 31.08
-3 3 -9 427.45 30.12
3 4 -9 49.04 7.23
-3 4 -9 34.68 5.35
-3 -4 -9 42.18 5.98
-3 4 9 47.28 10.66
-3 4 9 34.46 16.18
-3 -4 9 43.93 18.01
-3 4 -9 49.15 8.07
-3 -4 9 51.75 16.54
-3 4 9 23.67 13.03
-3 -4 -9 37.75 6.9
-3 -4 -9 53.87 8.56
3 5 -9 0.83 1.71
-3 5 -9 0.63 1.71
-3 -5 -9 1.25 1.7
-3 5 -9 -0.59 1.21
-3 5 9 -1.81 3.72
-3 -5 9 5.03 10.35
-3 5 9 4.55 6.62
3 -5 9 0.79 1.82
-3 5 -9 2 2.05
-3 -5 9 -3.65 6.51
-3 5 9 3.61 7.44
-3 -5 -9 0.94 2.37
-3 -6 9 9.96 4.12
3 6 -9 13.05 3.77
-3 6 -9 -1.5 4.1
-3 -6 -9 5.02 2.43
-3 6 -9 3.06 2.02
-3 6 9 11.58 6.89
-3 -6 9 9.32 9.6
-3 6 9 17.02 10.73
3 -6 9 9.54 3.19
-3 6 -9 13.44 4.53
-3 -6 9 3.4 7.01
-3 6 9 6.72 6.93
-3 -6 -9 7.23 3.84
-3 -7 9 61.64 9.47
3 7 -9 62.38 8.21
3 7 -9 53.45 7.7
-3 7 -9 18.72 7.51
-3 7 -9 43.85 6.64
-3 -7 -9 67.52 7.63
-3 7 9 101.19 15.92
-3 -7 9 56.85 18.24
-3 7 9 48.06 17.25
3 -7 9 70.4 8.81
-3 -7 9 67.57 16.82
-3 7 9 76.17 17.53
-3 -7 -9 74.69 10.65
-3 7 -9 63.69 9.24
-3 -8 9 20.53 5.58
3 8 -9 26.07 5.03
-3 8 -9 6.46 4.02
-3 -8 -9 18.19 3.92
-3 8 -9 15.59 4.17
3 8 -9 17.26 4.37
-3 -8 -9 9.26 5.18
-3 8 9 30.07 9.27
-3 -8 9 28.92 13.48
-3 8 9 41.83 14.68
3 -8 9 17.75 4.49
-3 8 -9 18.69 5.24
-3 -8 9 21.35 9.97
-3 8 9 12.02 8.23
-3 -8 -9 29.56 7.3
-3 -9 9 1.16 1.71
3 9 -9 2.37 2.16
-3 9 -9 0.84 2.6
-3 -9 -9 4.45 2.37
-3 9 -9 8.58 2.86
3 -9 -9 7.41 3.06
-3 -9 -9 4.12 4
3 9 -9 3.97 2.46
-3 9 9 5.15 6.5
-3 -9 9 3.94 8.12
-3 9 9 3.63 6.47
3 -9 9 6.52 2.79
-3 -9 9 2.93 5.23
-3 9 9 11.52 7.27
-3 -9 -9 5.74 4.43
-3 -10 9 9.51 4.42
3 10 -9 2.37 2.31
-3 10 -9 0.79 4.58
-3 10 -9 2.27 1.91
3 -10 -9 7.3 3.13
-3 -10 -9 5.69 4.63
3 10 -9 4.85 2.89
-3 -10 -9 5.14 2.39
-3 10 9 8.65 7.86
-3 -10 9 -3.78 8.7
-3 10 9 -3.48 6.2
3 -10 9 4.95 2.69
-3 -10 9 8.49 5.83
-3 10 9 2.78 5.72
-3 -10 -9 4.79 4.35
3 11 -9 220.37 17.44
3 11 -9 266.69 18.43
-3 -11 9 284.53 22.01
-3 -11 -9 168.52 19.62
3 -11 -9 234.61 18.59
-3 -11 -9 219.32 16.22
-3 11 -9 189.54 17.03
-3 11 9 244.5 32.46
-3 -11 9 211.11 32.68
-3 11 9 157.16 26.97
3 -11 9 231.71 18.1
-3 -11 -9 173.87 21.67
-3 -11 9 192.21 28.33
-3 11 9 188.25 27.12
-3 12 -9 6.52 5.46
-3 -12 -9 27.26 7.37
-3 12 -9 21.57 5.7
3 -12 -9 56.63 8.7
-3 -12 -9 36.19 5.81
-3 -12 9 45.83 15.05
-3 12 9 25.84 11.14
3 -12 9 56.22 7.56
-3 12 9 54.76 13.52
-3 -12 9 39.99 12.07
-3 -13 -9 366.98 24.26
-3 13 -9 283.52 25.5
-3 -13 9 337.61 41.83
-3 13 9 280.82 37.68
3 -13 9 371.15 26.1
-3 13 9 264.71 34.12
-3 -13 9 363.08 38.82
-3 -14 9 19.77 8.99
-3 14 9 3 10.26
3 -14 9 5.37 3.22
-3 14 9 7.36 5.66
-3 -14 9 17.61 7.78
-3 -15 9 12.72 8.07
-3 15 9 17.32 9.44
-3 -15 9 24.37 9.09
-3 16 9 5.53 4.95
-3 -16 9 16.45 8.04
3 0 -10 11.2 4.27
3 0 -10 11.47 4.7
-3 0 -10 23.23 4.99
-3 0 10 -8.09 20.42
-3 0 10 -6.94 18.91
-3 0 -10 31.36 7.65
3 1 -10 822.9 51.12
3 -1 -10 817.84 51.21
3 1 -10 810.18 49.71
3 -1 -10 838.56 50.04
-3 -1 -10 766.88 47.23
-3 1 -10 754.64 47.54
-3 -1 10 580.48 86.96
-3 1 10 598.25 78.71
-3 -1 -10 803.32 51.24
-3 1 -10 812.25 51.18
3 2 -10 5.89 3.38
3 -2 -10 10.45 4.83
3 2 -10 9.63 3.95
3 -2 -10 15.21 4.81
-3 -2 -10 8.93 3.11
-3 2 -10 14.7 4.96
-3 -2 -10 -4.61 10.35
-3 -2 10 -7.2 16.58
-3 2 -10 16.52 6.03
-3 2 10 -5.27 19.58
-3 -2 -10 10.61 4.26
3 -3 -10 227.41 19.66
3 3 -10 196.62 17.54
3 -3 -10 206.97 17.97
-3 -3 -10 146.77 22.46
-3 -3 -10 213.33 16.21
-3 3 -10 209.72 16.84
-3 -3 10 115.46 34.05
-3 3 10 170.03 36.12
-3 -3 10 184.64 34.72
-3 3 10 249.42 38.7
-3 -3 -10 191.13 18.6
-3 3 -10 253.22 20.23
3 -4 -10 29.85 6.41
3 4 -10 29.43 5.82
-3 -4 -10 16.26 3.98
-3 4 -10 28.05 5.36
-3 -4 -10 10.26 6.69
-3 -4 10 34.79 16.92
-3 4 10 31.07 16.04
-3 4 -10 20.85 5.89
-3 -4 10 12.87 9.94
-3 4 10 12.78 13.21
-3 -4 -10 28.37 6.36
3 -5 -10 116.95 13.53
3 5 -10 98.78 11.25
3 5 -10 100.63 11.16
-3 -5 -10 105.71 15.7
-3 -5 -10 111.97 10.59
-3 5 10 97.22 16.85
-3 -5 10 117.01 29
-3 5 10 124.64 27.61
-3 -5 -10 133.93 13.76
-3 -5 10 98.51 23.62
-3 5 10 105.51 23.09
-3 -5 -10 98.17 12.73
-3 5 -10 110.07 13.12
3 6 -10 25.83 5.47
-3 -6 -10 28.51 5.17
-3 -6 -10 34.28 8.31
3 6 -10 28.17 5.42
-3 6 10 31.21 10.37
-3 -6 10 44.46 18.39
-3 6 10 17.94 13.92
-3 6 -10 31.58 6.56
-3 -6 10 14.78 10.85
-3 -6 -10 17.22 6.03
-3 6 10 29.26 12.56
-3 -6 -10 27.16 6.53
-3 -7 -10 138.06 17.54
-3 -7 -10 155.53 13.34
-3 7 10 173.99 30.71
-3 -7 -10 167.52 17.46
-3 -8 -10 6.94 3.51
-3 -8 -10 1.27 7.31
-3 -9 -10 776.37 46.07
3 -9 10 835.25 48.42
-3 10 -10 7.42 3.17
-3 11 -10 257.71 21.17
4 0 0 5533.68 287.94
4 0 0 5413.79 288.59
-4 0 0 5368.25 286.99
4 0 0 5561.85 287.37
-4 0 0 5412.42 287.25
4 -1 0 6.69 1.82
4 1 0 5.61 2.92
4 -1 0 8.83 2.98
4 1 0 5.36 2.63
-4 1 0 8.68 2.81
4 -1 0 12.9 3.61
-4 -1 0 7.49 2.44
4 1 0 7.17 2.71
4 -1 0 8.48 3.6
4 -2 0 1730.98 92.69
4 -2 0 1724.04 92.58
-4 -2 0 1662.12 93.35
-4 -2 0 1638.77 95.65
4 2 0 1873.95 96.13
4 -2 0 1877.22 96.13
4 -2 0 1774.26 96.49
-4 -2 0 1779.65 95.13
-4 2 0 1743.82 94.8
4 2 0 1802.92 96.57
4 2 0 1812.81 95.5
4 -2 0 1809.57 95.1
-4 2 0 1739.09 94.8
-4 -3 0 0.8 0.68
4 -3 0 0.78 0.83
4 3 0 0.31 0.71
4 -3 0 1.43 1.03
4 3 0 0.48 1.48
4 -3 0 0.47 1.53
-4 -3 0 0.5 1.15
4 3 0 1.6 1.55
-4 -3 0 0.4 1.31
4 -3 0 1.62 1.24
-4 3 0 0.74 1.21
-4 3 0 0.75 1.93
4 -3 0 3.08 1.94
4 -4 0 78.92 6.27
4 -4 0 76.39 6.1
-4 -4 0 85.01 6.89
4 4 0 86.14 6.92
-4 -4 0 77.37 8.04
-4 -4 0 81.06 7.79
4 4 0 92.36 8.36
4 -4 0 93.59 8.46
4 -4 0 82.51 8.38
-4 -4 0 91.32 7.85
-4 4 0 86.43 7.44
4 4 0 91.42 8.79
4 -4 0 90.6 7.69
-4 4 0 90.92 7.77
-4 -5 0 0.98 0.75
4 -5 0 -0.23 0.58
4 5 0 0.29 0.79
-4 -5 0 0.3 0.87
-4 5 0 -0.52 1.07
-4 -5 0 1.31 1.1
4 -5 0 -0.47 0.97
-4 -5 0 0.52 0.92
4 5 0 1.09 1.12
-4 -5 0 -0.42 0.96
4 -5 0 1.12 1
4 -5 0 0.38 0.96
4 -6 0 13.82 2.23
-4 -6 0 16.81 2.61
4 6 0 16.84 2.49
-4 -6 0 12.95 2.45
-4 6 0 13.88 3.11
-4 -6 0 13.87 2.85
-4 -6 0 17.91 3.48
4 -6 0 12.17 2.97
4 6 0 15.72 3.3
-4 -6 0 14.14 2.9
4 6 0 15.26 2.95
4 -6 0 18.84 3.15
4 -7 0 -0.28 0.75
4 7 0 -0.28 0.82
-4 -7 0 -0.68 1.32
-4 -7 0 0.37 1.19
-4 7 0 -0.55 1.27
-4 -7 0 -0.82 1.41
-4 -7 0 0.54 1.25
4 -7 0 0.6 1.24
-4 -7 0 -0.89 1.59
-4 7 0 -1.5 1.45
4 -7 0 2.22 1.48
-4 -8 0 1727.34 92.6
4 8 0 1730.62 91.73
-4 -8 0 1646.27 92.74
4 -8 0 1632.59 91.86
-4 -8 0 1687 94.69
-4 -8 0 1722.93 93.12
-4 8 0 1720.64 94.78
-4 -8 0 1779.01 93.8
4 -8 0 1763.72 95.52
-4 8 0 1718.52 94.13
4 -8 0 1739.16 92.78
4 9 0 0.29 1.21
-4 -9 0 -0.4 1.42
-4 -9 0 -0.88 1.75
-4 -9 0 2.08 1.76
-4 9 0 0.59 1.82
4 -9 0 0.66 1.81
-4 -9 0 -0.49 1.88
4 -9 0 2.29 1.88
-4 9 0 -0.54 2.31
-4 -10 0 2428.61 127.85
4 10 0 2353.15 126.57
-4 -10 0 2320.06 128.29
-4 -10 0 2352.12 127.71
-4 10 0 2370.82 129.89
-4 -10 0 2407.9 128.77
4 -10 0 2400.45 130.89
-4 10 0 2338.54 129.1
4 -10 0 2437.21 129.02
4 11 0 1.33 1.33
-4 -11 0 0.47 1.27
-4 -11 0 1.06 1.45
-4 11 0 -0.64 1.75
4 11 0 0.64 1.24
-4 -11 0 0.87 1.48
4 -11 0 1.49 2.02
-4 11 0 -0.6 2.54
4 -11 0 0.57 1.93
4 12 0 689.77 41.64
4 12 0 733.29 41.24
-4 -12 0 757.28 44.04
-4 -12 0 734.54 42.6
-4 12 0 713.93 44.69
4 -12 0 791.36 46.58
-4 12 0 734.73 44.3
4 13 0 0.84 1.15
-4 13 0 -0.72 1.66
4 13 0 1.64 1.12
-4 -13 0 -0.47 1.09
4 -13 0 2.57 1.97
-4 13 0 -0.68 1.71
-4 -14 0 7.44 2.88
4 14 0 5.99 2.13
-4 14 0 6.17 2.76
4 14 0 3.37 1.53
-4 -14 0 6.98 2.31
4 -14 0 8.3 3.3
-4 14 0 2.2 2.01
4 15 0 -0.73 1.06
-4 -15 0 -0.85 1.52
-4 15 0 0.83 2.1
-4 -15 0 0.53 1.09
4 -15 0 -1 1.79
-4 15 0 -1.57 2.43
4 16 0 46.45 5.26
-4 -16 0 45.69 7.61
-4 16 0 35.46 6.72
-4 -16 0 36.96 5.69
4 -16 0 46.49 8.27
-4 16 0 43.62 7.11
4 17 0 -0.49 1.94
-4 -17 0 -1.12 1.16
-4 17 0 -2 3.25
-4 -17 0 -0.65 1.64
4 -17 0 -1.23 3.1
4 -17 0 1.21 3.3
-4 17 0 -1.89 2.57
-4 -18 0 641.39 45.92
4 18 0 510.51 38.57
-4 -18 0 661.49 41.38
-4 18 0 814.75 46.93
4 -18 0 705.53 47.65
4 -18 0 638.13 42.38
-4 18 0 784.16 45.35
-4 -19 0 1.49 3.42
4 19 0 1.7 2.19
-4 19 0 2.5 3.16
-4 -19 0 0.87 3.1
4 -19 0 1.51 3.48
4 -19 0 2.51 2.59
4 19 0 6.74 4.17
-4 19 0 1.19 3.86
-4 -20 0 636.69 49.71
4 20 0 620.04 41.23
-4 21 0 -1.58 2.81
-4 -21 0 1.33 2.75
-4 21 0 3.04 4.69
-4 -22 0 257.13 24.6
-4 22 0 276.82 27.54
4 22 0 300.48 23.04
-4 23 0 -1.65 3.79
-4 -23 0 1.16 2.66
-4 -23 0 1.22 2.51
-4 -24 0 17.35 5.53
4 0 -1 0.24 0.71
-4 0 -1 0.51 1.05
4 0 -1 0.45 0.94
4 0 1 0.48 0.85
-4 0 1 0.48 0.98
4 0 1 0.59 1.22
4 0 -1 1.47 1.13
-4 0 -1 -0.43 0.99
-4 0 1 0.34 0.85
4 0 -1 2.27 1.4
4 0 1 0.36 0.98
-4 0 -1 -0.5 0.88
-4 0 1 1.15 0.89
4 -1 -1 52.17 4.9
4 1 -1 48.25 4.48
4 -1 -1 53.62 4.78
-4 1 1 46.01 5.71
-4 -1 -1 58.18 6.44
-4 1 -1 54.23 6.14
4 1 -1 53.61 5.9
4 1 1 58.47 6.27
4 -1 -1 50.01 5.72
4 -1 1 53.95 6.08
4 1 1 53.19 6.6
4 1 -1 48.88 5.88
4 -1 1 51.26 6.45
4 -1 -1 52.83 5.99
-4 -1 -1 58.36 6.01
-4 1 -1 40.95 5.16
-4 -1 1 51.08 5.22
-4 1 1 59.6 5.45
4 1 1 43.01 5.03
4 1 -1 61.5 6.31
4 -1 -1 45.89 5.59
4 -1 1 49.07 5.13
-4 -1 1 44.35 4.83
-4 1 -1 54.18 6.06
-4 1 1 48.76 4.73
-4 -2 1 3.75 1.43
4 -2 -1 2.93 1.12
4 2 1 6.4 1.4
4 -2 -1 4.18 1.23
-4 2 1 4.79 1.73
-4 2 -1 3.63 1.71
4 2 -1 5.14 1.82
4 2 1 6.23 2.17
4 -2 -1 6.79 2.05
4 -2 1 9.62 2.34
-4 -2 -1 4.1 1.77
4 2 1 3.51 1.83
4 2 -1 7.18 2.11
-4 -2 -1 5.27 1.88
-4 2 -1 3.74 1.56
4 -2 1 7.65 2.51
-4 2 1 8.36 1.93
4 -2 -1 7.36 2.16
-4 -2 1 4.88 1.7
-4 2 1 5.9 1.58
4 2 1 3.44 1.74
4 2 -1 3.77 1.7
4 -2 -1 6.6 2.04
4 -2 1 8.07 1.98
-4 2 -1 3.29 1.55
4 -3 -1 195.91 12.99
4 -3 -1 194.59 12.66
-4 -3 -1 181.87 11.62
-4 -3 1 205.87 13.52
4 3 1 186.07 12.05
4 3 -1 196.43 13.61
-4 3 1 187.95 13.22
-4 -3 -1 198.71 14.59
-4 3 1 194.31 14.27
-4 3 -1 194.01 14.56
-4 -3 1 187.23 13.46
4 3 -1 204.27 14.43
4 3 1 212.89 14.66
4 -3 -1 185.48 13.98
4 -3 1 208.67 14.69
4 -3 1 203.6 15.28
4 -3 -1 184.24 14.19
-4 -3 -1 202.01 14.22
-4 -3 1 191.2 13.27
-4 3 -1 193.19 13.75
4 3 1 189.99 15.05
4 3 -1 182.65 14.13
4 3 1 186.1 13.71
4 -3 -1 193.96 13.94
4 -3 1 189.29 13.02
-4 3 -1 195.9 14.28
-4 -4 -1 14.7 2.18
-4 -4 1 21.8 3.26
4 4 -1 18.16 3.02
4 -4 1 18.47 1.64
4 4 1 21.83 2.51
4 -4 -1 20.5 2.94
-4 4 1 22.49 3.74
4 4 -1 24.76 3.87
-4 -4 1 18.64 3.05
4 -4 -1 22.7 3.67
-4 4 1 22.05 3.28
-4 -4 -1 22.9 3.81
4 -4 1 21.27 3.76
-4 -4 -1 19.46 3.57
-4 -4 1 19.6 3.05
4 -4 1 18.9 3.74
4 4 1 20.99 3.94
-4 -4 -1 19.97 3.39
4 4 -1 20.05 3.59
4 -4 -1 21.03 3.69
-4 4 -1 15.53 3.16
4 4 1 21.21 3.51
4 -4 1 23.52 3.25
4 -4 -1 18.52 3.36
-4 -5 1 1.61 1.1
4 5 1 0.2 0.49
-4 -5 -1 -0.23 0.71
4 -5 1 -0.13 0.45
4 5 -1 -0.76 0.96
-4 -5 -1 0.24 0.56
4 -5 1 0.24 0.41
-4 5 1 0.49 0.88
-4 -5 1 -0.36 0.99
-4 -5 -1 1.01 1.16
4 -5 -1 1.36 0.93
-4 -5 -1 -1.05 1.43
4 -5 -1 1.06 1.09
-4 -5 1 0.74 1
4 -5 1 -1.2 1.51
-4 -5 -1 -0.46 1.07
4 5 1 0.6 0.62
4 5 -1 0.48 0.85
-4 5 -1 -0.5 1.02
4 -5 -1 0.86 0.99
4 -5 1 0.64 1
-4 -6 1 10.79 2.42
4 -6 1 9.78 1.55
4 -6 -1 12.89 2.33
4 6 1 12.93 1.86
-4 -6 -1 15.02 2.21
4 6 -1 11.94 2.44
-4 -6 1 8.47 2.18
4 -6 1 14.76 2.67
-4 -6 -1 10.86 2.04
-4 6 1 10.56 2.75
-4 -6 1 8.45 2.04
-4 -6 -1 13.16 2.9
4 -6 -1 12.14 2.68
-4 -6 -1 7.93 2.45
4 -6 -1 12.71 3.01
-4 -6 -1 11.52 2.77
4 6 -1 10.89 2.82
4 6 1 14.53 3.29
4 -6 1 10.41 2.88
-4 -6 1 12.09 2.47
-4 6 -1 10.99 2.76
4 -6 -1 11.17 2.61
4 -6 1 11.08 2.26
-4 -7 -1 181.56 12.44
-4 -7 1 179.45 13.32
4 7 1 186.63 11.79
-4 -7 -1 189.39 12.72
4 -7 1 193.57 13.3
-4 -7 1 186.81 13.76
4 7 -1 189.85 13.17
4 -7 -1 191.43 13.13
4 -7 1 175.69 11.61
-4 -7 1 178.19 12.92
-4 -7 -1 191.5 14.68
-4 -7 -1 176.29 13.76
-4 7 1 204.91 14.71
-4 -7 -1 202.59 14.57
-4 -7 1 183.32 13.36
4 -7 1 194.43 15.38
4 -7 -1 191.6 14.95
-4 7 -1 205.55 14.06
-4 7 1 190.19 14.71
4 -7 -1 203.65 13.87
4 -7 1 200.82 12.96
-4 -8 -1 200.51 14.02
-4 -8 1 207.96 14.97
4 8 1 214.85 13.41
-4 -8 -1 195.94 14.2
4 8 -1 222.06 14.7
-4 -8 1 220.77 15.49
4 -8 -1 207.78 14.66
-4 -8 1 219.39 14.58
-4 -8 -1 216.3 16.23
-4 -8 -1 223.19 15.56
-4 8 1 219.32 16.08
-4 -8 1 234.66 15.29
4 -8 1 238.48 17.43
4 -8 -1 215.4 16.57
-4 8 -1 209.03 15.24
-4 8 1 230.62 16.6
4 -8 1 220.25 14.4
-4 -9 1 27.96 4.14
4 9 1 30.43 3.36
-4 -9 -1 30.52 4.03
4 9 -1 27.14 3.74
4 -9 -1 31.68 4.13
-4 -9 1 27.5 4.36
-4 -9 -1 26.36 4.19
-4 9 1 30.69 4.67
-4 9 -1 33.04 5.12
-4 -9 1 29.05 3.8
-4 -9 -1 26.56 4.65
4 -9 1 23.3 4.71
-4 -9 1 34.39 4.44
4 -9 -1 28.93 5.09
4 -9 1 29.27 3.81
-4 9 1 29.72 4.91
-4 9 -1 30.27 4.41
4 10 1 16.23 2.77
-4 -10 1 19.22 3.47
4 10 -1 22.99 3.29
4 10 1 23.23 2.78
-4 -10 -1 19.57 3.29
-4 -10 1 19.91 3.81
-4 -10 -1 20.37 3.6
-4 10 1 16.16 3.8
-4 10 -1 23.4 4.46
-4 -10 1 18.52 3.08
-4 -10 1 21.87 3.62
4 -10 1 13.67 3.7
4 -10 -1 19.18 4.12
4 -10 1 17.65 3.06
-4 10 1 22.04 4.32
-4 10 -1 18.63 3.55
4 -10 -1 22.64 3.8
4 11 1 44 5.01
4 11 1 54.44 4.43
4 11 -1 49.92 5.21
-4 -11 -1 60.9 6.37
-4 -11 1 54.27 6.53
-4 -11 1 48.96 5.29
-4 -11 -1 48.12 5.69
-4 11 1 50.03 6.34
-4 11 -1 56.01 7.13
-4 -11 1 56.22 6.08
-4 -11 -1 42.06 5.06
4 -11 1 56.4 7.48
4 -11 -1 50.95 7.01
-4 11 1 40.74 6.07
-4 11 -1 46.6 5.83
4 -11 -1 47.2 5.73
4 -11 1 54.16 5.4
4 12 1 160.95 10.34
4 12 -1 148.25 11.5
-4 -12 -1 159.96 12.89
4 12 -1 155.99 11.56
-4 -12 1 146.24 13.09
-4 -12 1 148.42 11.67
-4 -12 -1 150.87 12.19
-4 12 1 165.35 13.54
-4 12 -1 155.18 13.99
-4 -12 1 152.11 12.41
-4 -12 -1 141.46 10.71
4 -12 1 148.35 14.37
4 -12 -1 148.73 14.41
-4 12 1 161.85 13.74
-4 12 -1 164.98 13.04
4 -12 -1 137.72 12.27
4 13 1 99.87 7.42
4 13 -1 97.42 8.41
4 13 -1 91.91 8.44
-4 -13 -1 101.12 10.11
-4 -13 1 107.27 10.46
-4 -13 1 91.06 8.59
-4 -13 -1 99.45 9.19
-4 13 1 85.27 9.54
-4 13 -1 91.39 10.56
4 -13 1 92.06 11.14
4 -13 -1 100.96 11.41
-4 13 1 108.73 10.86
-4 13 -1 94.82 9.59
4 14 -1 19.17 3.47
4 14 1 15.42 2.62
-4 -14 -1 15.55 4.27
-4 -14 1 22.3 4.9
-4 14 1 17.88 4.07
-4 14 -1 17.38 4.52
4 14 -1 18.97 3.25
-4 -14 1 13.86 3.12
-4 -14 -1 20.79 3.83
4 -14 -1 21.18 5.01
4 -14 1 26.82 5.62
-4 14 1 11.85 3.66
-4 14 -1 15.34 3.8
4 15 -1 2.05 1.4
4 15 1 2.21 1.52
-4 -15 1 1.72 2.34
-4 15 1 1.54 1.58
-4 15 -1 -0.9 2.27
4 15 -1 1.7 1.16
-4 -15 1 1.61 1.83
-4 -15 -1 0.57 1.43
4 -15 -1 -1.01 1.8
4 -15 1 3.07 2.98
4 -15 1 1 2.31
4 -15 1 -1.38 2.84
-4 15 1 0.85 1.96
-4 15 -1 1.45 1.83
4 16 -1 206.51 14.25
4 16 -1 195.71 15.59
-4 -16 1 225.93 18.86
4 16 1 121.3 13.19
-4 -16 1 183.28 15.49
-4 -16 -1 199.44 15.59
-4 16 1 221.16 17.92
-4 16 -1 250.11 19.78
4 -16 -1 227.98 20.2
4 -16 1 199.75 18.47
4 16 1 182.59 17.56
4 -16 1 197.81 20.13
-4 16 1 210.36 17.85
-4 16 -1 244.39 18
4 16 1 193.72 20.24
4 17 -1 111.46 9.51
4 17 -1 102.86 10.72
-4 -17 1 100.61 12.78
-4 -17 1 89.28 10.22
-4 -17 -1 89.59 9.85
-4 17 1 107.44 12.12
-4 17 -1 102.8 12.8
4 -17 -1 98.89 13.55
4 -17 1 96.85 12.03
4 17 1 116.18 12.3
4 -17 1 71.62 11.49
4 17 1 80.77 12.64
-4 17 1 126.84 13.33
-4 17 -1 131.34 12.58
4 18 -1 126.22 10.69
-4 -18 1 139.26 15.48
-4 -18 1 77.93 10.67
-4 -18 -1 99.57 11.12
-4 18 1 122.05 13.59
-4 18 -1 102.56 13.95
4 -18 -1 94 13.95
4 -18 1 94.68 12.22
4 18 1 97.69 13.66
-4 18 1 140.88 14.62
-4 18 -1 158.53 14.65
4 19 1 5.07 1.69
4 19 1 6.69 3.65
4 19 -1 7.11 2.93
-4 -19 1 4.34 4.23
-4 19 1 11.27 4.36
-4 19 -1 9.47 4.64
-4 -19 -1 9.64 3.43
4 -19 1 14.8 4.28
4 -19 -1 7.68 4.49
-4 19 1 9.94 4.45
-4 19 -1 13.48 4.79
-4 -20 1 115.94 17.87
4 20 -1 115.51 12.89
-4 -20 -1 165.59 15.65
-4 20 1 162.65 17.83
-4 20 -1 155.19 18.7
4 -20 -1 82.4 15.64
4 -20 1 137.66 18.76
-4 20 1 237.85 21.06
-4 20 -1 227.03 19.67
4 20 1 163.11 15.29
4 21 -1 22.7 5.1
-4 -21 1 37.1 9.46
-4 21 1 35.66 8.68
-4 21 -1 23.93 8.19
-4 -21 -1 27.3 6.64
4 -21 -1 27.66 7.39
4 -21 1 12.76 6.66
4 21 1 45.58 7.08
-4 21 1 39.36 9.28
-4 21 -1 21.73 6.98
-4 22 1 62.5 12.09
-4 22 -1 55.32 12.58
-4 -22 -1 73.07 11.64
4 22 -1 72.29 8.7
-4 -22 1 74.41 12.57
4 22 1 91.68 10.6
-4 22 1 95.89 14.92
-4 22 -1 88.95 13.92
-4 23 1 35.17 8.58
-4 -23 -1 26.33 7.4
-4 -23 1 38.6 7.42
-4 -23 -1 31.21 7.55
-4 23 -1 45.42 10.11
4 0 -2 162.95 12.03
4 0 -2 161.6 11.64
-4 0 2 155.69 11.67
-4 0 2 159.73 12.53
-4 0 -2 170.77 13.22
4 0 -2 176.54 12.78
4 0 2 155.57 13.68
4 0 -2 169.51 12.6
-4 0 2 167.02 11.42
4 0 -2 180.07 13.16
4 0 2 164.48 12.56
4 0 2 180.82 11.68
-4 0 -2 155.99 13.38
-4 0 2 170.93 10.34
-4 -1 2 8.06 2.14
4 -1 -2 7.73 1.96
4 1 2 8.72 1.36
4 1 -2 14.5 2.5
4 -1 2 9.63 1.93
4 -1 -2 7.03 1.88
-4 -1 -2 7.35 2.28
-4 1 -2 7.98 2.43
4 1 -2 7.71 2.14
4 -1 -2 10.98 2.52
-4 1 2 7.39 1.87
-4 -1 2 13.05 2.79
-4 1 2 9.08 2.38
4 1 2 8.29 2.58
4 -1 2 12.21 3.07
4 1 -2 6.55 2.01
4 -1 -2 8 2.24
-4 -1 2 8.5 1.82
4 1 -2 10.57 2.63
4 1 2 9.05 2.03
4 -1 -2 10.33 2.77
4 -1 2 8.74 1.93
-4 1 -2 15.49 3.37
-4 -1 2 7.72 1.43
4 -2 -2 147.59 11.39
4 2 -2 146.9 10.77
4 -2 2 157.57 10.78
4 -2 -2 150.48 11.03
4 2 2 147.96 9.02
-4 -2 2 149.49 11.65
-4 2 2 150.62 11.09
-4 -2 2 155.91 12
-4 2 2 140.46 11.56
-4 -2 -2 153.72 12.39
-4 2 -2 148.09 12.32
4 2 -2 164.99 12.12
4 -2 -2 156.94 11.82
4 2 -2 159.42 11.8
4 -2 2 163.35 13.42
4 -2 -2 143.11 11.59
-4 -2 -2 145.81 11.92
-4 -2 2 153.06 10.6
4 2 2 158.92 13.27
4 2 2 148.5 10.87
4 2 -2 158.41 12.35
4 -2 -2 156.41 12.1
4 -2 2 156.63 10.5
-4 -2 2 147.28 9.89
-4 2 -2 167.85 12.95
4 -3 -2 0.37 1.07
4 -3 2 0.65 1.65
-4 -3 -2 1.22 0.41
-4 -3 2 3.18 2.04
4 3 2 1.99 1
4 -3 -2 1.24 1.2
4 3 -2 3.31 1.69
-4 3 2 0.46 1.07
-4 3 -2 2.18 1.49
4 3 -2 4.17 1.85
4 -3 -2 1.3 1.35
-4 -3 2 4.12 1.96
-4 -3 2 1.45 1.65
-4 -3 -2 3.65 2.01
4 3 -2 2.5 1.82
-4 -3 2 1.19 1.63
4 -3 2 1.92 1.75
4 -3 -2 1.86 1.44
-4 -3 -2 1.46 1.81
4 3 2 3.9 2.32
4 3 -2 7.28 3.51
4 -3 -2 0.95 1.39
4 -3 2 1.07 1.03
-4 3 -2 1.12 1.63
4 4 2 2507.57 126.79
-4 -4 -2 2026 126.9
4 -4 2 2654.45 129.88
4 -4 -2 2484.98 129.81
-4 -4 2 2428.81 130.71
4 4 -2 2533.19 130.75
-4 -4 2 2389.67 130.85
-4 -4 -2 2446.42 131.17
-4 -4 2 2470.75 128.89
-4 4 2 2487.08 130.71
4 4 -2 2584.46 130.98
-4 -4 -2 2493.54 131.73
-4 4 -2 2431.99 131.56
4 -4 -2 2615.47 130.71
4 -4 2 2435.88 132.48
4 -4 -2 2337.14 130.59
-4 -4 2 2450.69 128.98
4 4 2 2659.41 133.23
4 4 -2 2409.08 130.1
4 -4 -2 2551.27 130.9
4 -4 2 2459.46 128.49
-4 4 -2 2456.2 131.77
4 5 2 13.46 1.74
4 -5 -2 13.73 3.26
-4 -5 2 17.66 3.46
4 -5 2 17.86 3.67
-4 -5 -2 9.87 1.74
4 5 -2 13.89 3.06
-4 -5 -2 14.17 2.01
-4 5 2 13.51 3.08
-4 5 -2 15.57 3.58
-4 -5 2 13.64 2.55
-4 -5 -2 15.67 3.71
4 -5 -2 16.47 3.29
-4 -5 2 13.77 3.23
-4 -5 -2 12.06 3.09
4 -5 -2 5.54 2.48
-4 -5 2 15.41 2.78
4 -5 2 16.2 3.9
4 5 2 18.57 4.04
4 5 -2 15.11 3.11
-4 5 -2 15.42 4.13
4 -5 2 16.76 2.71
-4 -6 -2 1386.29 86.96
4 6 2 1737.16 86.85
-4 -6 -2 1499.81 87.2
-4 -6 2 1605.57 90.3
4 -6 2 1741.61 89.93
4 -6 -2 1648.73 89.41
4 6 -2 1693.27 90.01
-4 -6 2 1646.44 88.08
-4 -6 -2 1648.09 90.8
-4 -6 -2 1708.08 91.07
-4 6 2 1687.21 90.24
-4 6 -2 1627.59 91.22
4 -6 -2 1755.43 89.99
4 -6 2 1700.53 92.19
-4 -6 2 1689.16 88.59
4 -6 -2 1634.67 90.68
4 6 2 1737.32 92.41
4 -6 2 1695.96 87.96
-4 6 -2 1833.51 92.29
-4 -7 2 2.17 1.37
4 -7 2 0.1 0.59
4 -7 -2 0.42 1.68
4 7 -2 0.45 1.04
-4 -7 2 1.41 1.37
4 -7 2 -1.4 2.45
-4 -7 -2 1.29 0.8
-4 -7 2 -0.29 1.02
-4 7 2 0.48 1.11
-4 7 -2 1.21 1.65
-4 -7 -2 1.59 1.22
-4 -7 -2 -0.54 1.36
-4 -7 2 1.32 1.13
4 -7 -2 0.56 1.15
4 -7 2 3.34 2.06
4 -7 2 -0.54 1.51
-4 7 -2 -0.57 1.32
-4 7 2 -0.63 2.41
-4 -8 2 283.91 19.65
-4 -8 -2 285.83 18.07
4 8 -2 291.81 19.37
-4 -8 2 289 20.3
4 -8 -2 296.31 19.48
-4 -8 2 286.66 18.06
-4 -8 -2 305.41 20.61
-4 -8 -2 299.22 20.24
-4 8 2 293.44 19.84
-4 8 -2 271.86 20.7
4 -8 2 282.05 21.26
-4 -8 2 295.06 18.51
4 -8 -2 301.44 20.86
-4 8 -2 298.01 18.96
-4 8 2 313.92 21.32
4 -8 2 291.47 18.06
4 -9 -2 11.51 2.68
4 9 -2 7.49 2.22
-4 -9 2 5.59 2.08
-4 -9 -2 10.37 2.18
-4 -9 2 9.83 2.7
-4 9 2 9.28 2.42
-4 -9 -2 12.53 2.83
4 9 2 8.15 1.37
-4 -9 -2 8.97 2.75
-4 -9 2 12.29 2.31
-4 -9 2 8.65 1.87
-4 -9 2 9.22 2.21
4 -9 -2 6.87 2.45
4 -9 2 5.72 2.48
4 -9 2 8.57 2.09
-4 9 -2 10.83 2.43
-4 9 2 10.74 3.2
4 10 2 50.99 3.88
4 10 -2 50.82 5.81
-4 -10 2 49.26 6.5
4 -10 -2 49.52 6.13
-4 -10 2 54.75 5.27
-4 -10 -2 57.75 6.54
-4 10 2 46.46 6.12
-4 -10 2 49.58 5.31
4 -10 2 54.28 7.43
-4 -10 2 42.56 3.97
4 -10 -2 51.87 6.91
-4 10 2 47.31 6.71
-4 10 -2 46.77 5.58
4 -10 -2 52.27 5.58
4 -10 2 48.19 5.2
4 11 -2 5.38 1.85
4 11 2 2 0.94
-4 -11 2 5.82 2.31
-4 -11 -2 8.51 2.46
-4 11 2 5.07 2.18
-4 -11 2 6.04 1.84
4 -11 -2 3.57 2.21
4 -11 2 1.21 3.06
4 11 2 5.73 3.74
-4 -11 -2 5.81 2.06
-4 -11 2 1.98 1.43
4 -11 2 3.14 1.57
-4 11 2 2.88 2.23
-4 11 -2 4.24 1.95
4 -11 2 -1.67 3.45
4 -11 -2 5.74 1.99
4 12 -2 437.24 26.28
-4 -12 2 441.55 28.48
4 12 -2 428.12 26.31
4 12 2 351.05 23.33
-4 -12 2 420.41 25.54
-4 -12 -2 437.99 27.04
-4 12 2 451.09 27.68
-4 -12 2 462.67 26.17
-4 -12 -2 393.36 25.68
4 -12 -2 418.31 29.24
4 -12 2 461.51 33.15
4 12 2 455.23 32.82
-4 12 2 459.24 29.17
-4 12 -2 438.65 26.72
4 -12 -2 378.6 26.09
4 -12 2 411.08 26.04
4 12 2 432.46 35.85
4 -12 2 432.51 35.85
4 13 -2 0.48 1.39
4 13 2 -0.83 1.77
-4 -13 2 1.49 2.03
-4 13 2 -0.62 1.27
4 13 -2 2.42 1.86
-4 -13 2 -0.45 1.53
-4 -13 -2 2.75 2.12
4 -13 2 -1.19 3.46
4 13 2 1.11 3.6
4 -13 -2 0.84 2.28
-4 -13 2 1.8 1.79
4 -13 2 1.54 4.19
-4 13 2 3.19 2.6
-4 13 -2 -1.11 2.28
4 13 2 3.12 3.93
4 -13 -2 3.21 2.06
4 14 -2 1496.42 82.01
4 14 -2 1425.1 82.08
-4 -14 2 1552.31 85.67
-4 -14 2 1398.77 82.36
-4 -14 -2 1486.79 82.92
-4 14 2 1504.98 83.92
-4 14 -2 1523.29 86.34
-4 -14 2 1518.58 82.19
4 -14 -2 1579.15 87.19
4 -14 2 1357.3 87.88
4 14 2 1424.17 87.69
4 -14 2 1359.33 91.03
-4 14 2 1647.73 86.44
-4 14 -2 1531.63 83.33
4 14 2 1393.51 91.33
4 15 2 2.05 1.15
4 15 -2 8.2 2.44
4 -15 2 7.08 4.62
-4 -15 2 16.04 4.6
-4 15 2 9.13 3.33
-4 15 -2 9.54 4.06
4 15 -2 10.37 2.94
-4 -15 2 3.15 2.45
-4 -15 -2 7.17 2.7
4 -15 2 9.27 4.14
4 15 2 8.55 4.93
-4 -15 2 11.44 3.14
4 -15 -2 8.18 3.95
4 15 2 1.44 3.93
-4 15 2 8.18 3.76
-4 15 -2 10.5 3.39
4 16 -2 1033.2 55.41
4 16 -2 894.47 55.33
-4 -16 2 1029.46 60.29
-4 -16 -2 979.45 56.42
-4 16 2 942.45 57.45
-4 16 -2 1047.74 61.19
4 -16 2 978.14 60.86
4 -16 -2 970.06 61.5
4 -16 2 782.33 59.34
4 16 2 889.37 59.64
4 16 2 872.7 62.17
4 -16 2 818.79 61.25
-4 16 2 1129.91 60.92
-4 16 -2 1036.53 57.64
4 17 -2 1.26 1.94
4 17 2 2.63 3.32
4 -17 2 2.59 3.26
-4 -17 2 -1.1 1.97
-4 17 2 -0.82 1.7
-4 17 -2 1.16 2.38
4 17 -2 -0.53 1.32
-4 -17 -2 0.66 2.03
4 -17 2 -1.11 3.03
4 17 2 1.02 3.31
4 -17 2 1.19 2.44
4 -17 -2 5.09 3.71
4 17 2 -0.83 2.69
-4 17 2 1.2 3.48
-4 17 2 3.2 2.69
-4 17 -2 -2.44 2.64
4 18 -2 127.13 10.8
4 18 -2 115.02 11.56
-4 -18 2 128.53 15.22
-4 -18 -2 116.13 11.38
-4 18 2 107.86 12.36
-4 18 -2 127.82 15.27
4 -18 2 138.71 15.74
4 -18 -2 62.33 12.44
-4 18 2 48.18 12.5
4 -18 2 118.82 13.83
-4 -18 2 118.81 14.3
4 18 2 107.75 14.02
-4 18 2 137.33 14.7
-4 18 -2 130.48 13.05
4 18 2 116.03 12.21
4 19 2 4.76 4.07
4 19 -2 3.78 2.06
-4 -19 2 9.96 4.4
4 19 -2 1.66 1.93
-4 19 2 6.05 3.45
-4 19 -2 7.24 3.95
-4 -19 -2 6.91 2.86
4 -19 2 4.01 2.93
4 -19 2 4.35 3.95
4 -19 -2 3.14 2.81
-4 19 2 7.24 4.48
4 19 2 9.96 3.26
-4 -19 2 1.09 3.72
-4 19 2 15.55 5.17
-4 19 -2 7.36 4.06
4 20 -2 5.79 2.72
-4 -20 2 8.09 4.1
-4 20 2 10.16 4.05
-4 20 -2 1.63 3.77
-4 -20 -2 11.25 3.91
4 -20 2 6.42 3.33
4 -20 -2 9.16 4.46
4 20 2 12.79 3.89
-4 20 2 4.36 4.51
-4 20 -2 10.79 4.3
4 21 -2 0.84 2.45
-4 -21 2 -1.84 3.79
-4 21 2 5.06 3.69
-4 21 -2 -1.83 4.21
-4 -21 -2 0.99 3.05
4 -21 2 3.55 4.09
4 -21 -2 2.88 2.57
4 21 2 1.48 2.29
-4 21 2 1.63 4.12
-4 21 -2 2.74 4.23
-4 22 2 177.63 20.09
-4 -22 2 142.07 21.48
4 22 -2 136.72 15.98
-4 22 -2 201.98 21.85
4 22 2 222.22 16.89
-4 23 2 3.09 3.9
4 23 -2 -0.79 2.68
-4 23 -2 1.56 5.81
-4 24 2 201.53 22.4
4 0 -3 0.48 0.69
4 0 3 1.48 1.69
4 0 -3 0.81 1.02
-4 0 -3 1.09 1.12
4 0 -3 -0.43 1.26
-4 0 3 0.36 1.04
-4 0 3 0.89 0.92
4 0 3 2.75 1.74
4 0 3 3.37 6.95
4 0 -3 0.79 0.81
-4 0 -3 3.39 2.09
4 0 3 0.44 0.64
4 1 -3 77.32 7.58
4 -1 -3 63.36 7.16
4 -1 3 66.12 4.63
4 1 -3 72.05 6.87
4 -1 -3 69.89 6.89
4 1 3 84.61 8.07
4 -1 3 89.39 8.26
-4 -1 3 74.77 6.67
-4 1 3 74.69 6.7
-4 -1 3 74.46 7.26
-4 1 3 74.26 7.15
-4 -1 -3 64.62 7.32
-4 1 -3 82.14 8.07
4 1 -3 77.59 7.33
4 -1 -3 73.95 7.14
4 -1 3 83.24 8.93
4 1 -3 76.44 6.94
4 -1 -3 83.37 7.25
4 -1 3 68.9 17.78
4 1 3 85.23 17.17
4 1 3 68.49 8.29
4 1 3 76.79 6.02
4 -1 3 74.96 5.68
-4 1 -3 74.75 8.6
-4 -2 3 27.86 4.4
4 2 3 18.99 4.28
4 -2 -3 22.23 3.93
4 -2 3 26.87 2.62
4 2 -3 25.93 3.72
4 -2 3 34.49 5.16
4 -2 -3 25.38 3.8
-4 -2 -3 17.24 3.53
-4 2 -3 27.24 4.37
4 -2 -3 24.76 3.77
-4 -2 3 24.3 3.51
-4 2 3 31.13 4.17
-4 -2 3 24.99 2.98
4 2 -3 34.21 4.37
-4 -2 3 22 3.78
4 2 -3 26.28 3.61
4 -2 3 26.42 4.93
4 2 3 18.54 8.37
4 -2 -3 25.75 3.83
4 2 3 30.75 5.3
4 -2 3 23.94 3.95
4 -2 3 23.88 2.74
-4 2 -3 22.8 4.49
4 2 3 24.58 3.16
4 -3 -3 257.32 17.54
4 -3 3 249.08 15.18
4 3 -3 250.56 16.25
4 -3 -3 254.04 16.78
-4 -3 3 240.17 17.44
4 -3 3 261.72 18.38
4 3 -3 241.97 17.38
-4 -3 3 225.56 15.63
-4 -3 3 228.33 16.73
-4 -3 3 235.86 14.61
-4 3 3 223.85 16.22
-4 -3 -3 241.58 17.31
4 3 -3 250.99 16.86
-4 3 -3 218.9 17.16
4 -3 -3 262.74 16.69
4 -3 3 252.25 18.75
4 -3 -3 226.31 16.28
-4 -3 3 250.5 14.93
4 3 3 239.55 18.57
4 3 -3 242.6 15.88
4 3 3 263.51 27.64
4 -3 3 241.35 17.17
4 3 3 219.37 15.12
4 -3 3 234.62 14.29
-4 3 -3 244.05 18.26
4 -3 3 250.51 32.42
4 -4 3 104.28 8.1
4 4 -3 104.71 8.18
4 -4 -3 101.35 8.59
-4 -4 3 103.58 9.3
4 4 -3 118.88 9.61
4 -4 3 125.88 10.7
-4 -4 3 101.04 6.73
-4 -4 -3 101.87 9.05
-4 4 3 107.4 8.6
-4 4 -3 98.59 9.27
4 -4 -3 116.45 8.71
4 -4 3 107.79 10.26
4 -4 -3 99.99 8.49
-4 -4 3 110.91 7.11
4 4 3 132.41 11.22
4 4 -3 100.64 7.79
4 4 3 113.91 16.01
4 -4 3 106.84 9.13
4 -4 3 100.5 6.52
-4 4 -3 110.23 10.1
4 -4 3 135.44 21.31
4 -5 3 8.33 2.86
4 -5 3 1.94 1.5
4 -5 -3 0.46 0.83
-4 -5 3 -0.58 1.03
-4 -5 -3 0.13 0.4
4 5 3 0.46 1.03
4 5 -3 0.54 0.96
-4 -5 -3 0.53 0.51
-4 5 3 0.44 0.91
-4 -5 3 0.21 0.64
-4 5 -3 -0.6 1.24
4 -5 -3 0.82 0.84
-4 -5 -3 -1.06 1.22
4 -5 3 -1.76 3.63
4 5 3 3.31 3.4
4 -5 -3 -0.48 0.99
4 -5 3 0.7 1.45
-4 -5 3 0.49 0.76
4 5 -3 0.33 0.96
4 5 3 0.72 1.29
-4 5 -3 -0.65 1.34
4 -5 3 -0.19 0.8
4 -5 3 -2.55 2.04
4 5 3 9.66 6.09
4 -5 3 2.41 4.29
4 -6 3 10.21 2.58
-4 -6 3 9.63 2.75
4 -6 -3 6.2 2.15
4 -6 3 7.53 3.5
4 6 3 7.04 1.56
4 6 -3 11.32 2.77
-4 -6 -3 7.89 1.52
-4 6 3 15.55 2.97
-4 6 -3 11.68 3.14
4 -6 -3 16.09 2.91
-4 -6 -3 13.38 3.11
-4 -6 3 9.97 1.73
-4 -6 3 10.44 1.85
4 -6 3 6.52 4.78
4 6 3 9.32 5.08
4 -6 -3 10.67 2.72
-4 -6 3 8.68 2.73
-4 6 -3 10.12 3.07
4 -6 3 12.68 1.92
4 -6 3 6.72 5.67
4 -6 3 12.67 3.02
4 6 3 26.81 8.62
4 7 3 210.9 11.58
4 -7 3 205.5 15.06
-4 -7 3 255.41 17.27
4 7 -3 246.83 16.4
4 -7 -3 207.11 15.62
4 7 3 176.88 11.94
-4 -7 3 228.01 13.42
-4 -7 -3 233.04 16.36
-4 7 3 235.74 15.55
-4 7 -3 225.3 16.96
-4 -7 3 196.57 14.79
4 -7 -3 200.51 15.66
-4 -7 3 236.94 13.78
4 -7 3 214.25 22.57
4 7 3 244.5 23.32
4 -7 3 269.4 17.14
4 -7 3 208.9 13.28
-4 7 -3 238.38 17.52
4 7 3 235.61 26.58
4 -7 3 232.47 26.5
4 -8 3 32.96 4.55
4 -8 3 25.46 2.36
-4 -8 3 42.63 6
4 8 -3 38.4 5.11
4 -8 -3 37.04 5.06
-4 -8 3 43.5 4.01
-4 -8 -3 49.73 5.91
-4 8 3 43.55 5.14
-4 8 -3 42.26 6.08
4 -8 3 40.42 8.9
4 8 3 48.02 9.37
-4 -8 3 32.87 4.3
-4 -8 3 42.2 4.03
4 -8 -3 35.25 5.35
-4 8 -3 39.79 5.91
4 8 3 45.25 10.49
4 -8 3 49.97 6.19
4 -8 3 31.75 10.17
4 -8 3 42.48 4.13
-4 8 3 35.51 5.76
-4 -9 3 36.24 5.87
4 -9 3 33.04 3.16
4 -9 3 38.92 4.96
4 -9 3 34.85 3.2
4 9 -3 58.62 6.2
-4 9 -3 36.47 5.81
-4 -9 3 45.72 4.41
-4 -9 -3 50.62 6.22
-4 9 3 38.25 5.02
4 -9 -3 40.67 5.95
4 -9 3 30.21 7.83
4 9 3 53.53 10
-4 -9 3 33.1 4.04
-4 -9 3 51.04 4.56
4 -9 3 66.3 12.2
4 -9 3 47.11 6.39
4 9 3 41.49 10.3
-4 9 -3 45.36 4.74
-4 9 3 45.31 6.49
4 -9 3 35.99 4.46
-4 -10 3 22.4 4.52
4 -10 3 28.91 4.15
4 10 -3 27.42 4.36
4 -10 3 22.08 2.7
-4 10 -3 30.96 5.3
-4 -10 3 28.18 3.65
-4 10 3 28.8 4.41
4 -10 3 23.87 6.91
4 -10 -3 26.03 4.92
4 10 3 26.71 7
-4 -10 3 28.58 3.37
-4 -10 -3 32.5 4.99
-4 -10 3 19.51 2.59
4 -10 3 20.01 7.13
-4 10 -3 32.46 3.95
4 -10 3 26.03 4.01
4 10 3 32.55 8.63
-4 10 3 30.48 5.54
4 -10 -3 21.7 3.37
4 -11 3 48.51 6.03
4 -11 3 54.67 5.06
4 11 -3 55.62 6.56
-4 -11 3 73.58 8.4
-4 -11 3 66.24 6.3
-4 11 3 59.44 6.65
-4 11 -3 65.29 8.21
4 -11 3 76.7 11.68
4 11 3 54.86 9.77
-4 -11 3 60.94 5.58
-4 -11 -3 72.03 7.5
4 -11 -3 53.36 7.43
4 -11 3 64.87 11.93
4 11 3 55.73 11.58
-4 11 3 60.81 8.01
-4 11 -3 50.32 5.75
4 -11 -3 41.45 5.44
4 -12 3 267.04 17.97
4 12 -3 309.14 20.2
-4 -12 3 310.89 22.2
4 12 -3 327.82 20.61
-4 -12 3 238.68 18.91
-4 -12 -3 304.43 20.69
-4 12 3 326.13 20.56
-4 12 -3 257.82 21.62
-4 -12 3 291.66 18.27
4 -12 3 286.61 22.52
4 -12 -3 281.59 21.73
4 -12 3 295.83 26.4
4 12 3 285.83 25.4
4 12 3 297.64 28.38
4 -12 3 293.87 28.41
-4 12 3 314.59 22.64
-4 12 -3 279.19 19.09
4 -13 3 94.77 15.19
4 13 -3 126.99 11.04
4 -13 3 110.2 9.59
4 13 -3 128.54 11.03
-4 -13 3 118.75 12.35
-4 -13 -3 126.9 11.22
-4 13 3 128.13 11.26
-4 -13 3 131.76 9.69
4 -13 3 132.95 13.45
4 -13 -3 124.88 12.87
4 -13 3 102.44 14.31
4 13 3 140.46 15.79
4 13 3 121.5 16.49
-4 13 3 127.99 12.92
-4 13 -3 126.04 10.52
4 14 3 66.01 11.8
4 -14 3 77.88 12.79
4 14 -3 75.9 7.94
4 14 -3 70.25 7.76
-4 -14 3 65.24 9
-4 -14 -3 73.91 8.11
-4 14 3 68.07 7.89
4 -14 3 69.36 11.34
4 14 3 63.18 10.7
-4 -14 3 69.52 6.71
4 -14 3 83.49 10.34
4 -14 -3 75.63 10.02
-4 14 3 72.49 9.45
-4 14 -3 79.94 7.88
4 14 3 58.87 7.84
4 15 -3 3.46 2.14
4 15 3 3.05 3.84
4 -15 3 -1.54 2.75
-4 -15 3 -0.94 1.37
-4 15 3 -0.64 2.07
4 15 -3 0.56 1.65
-4 -15 -3 0.63 1.59
4 -15 3 2 2.3
4 -15 3 -1.3 3.55
4 15 3 1.21 3.31
4 -15 -3 1.04 2.15
-4 -15 3 2.06 3.68
4 15 3 -1.3 2.23
-4 -15 3 1.44 2.96
-4 15 3 1.41 2.51
-4 15 3 2.9 2.81
-4 15 -3 -0.59 1.81
4 16 -3 96.87 9.34
4 16 3 91.77 13.88
4 -16 3 68.46 12.05
4 16 -3 78.78 9.03
-4 -16 3 88.82 11.37
-4 -16 -3 92.65 9.75
-4 16 3 99.48 10.04
4 -16 3 83.99 12.32
4 -16 3 108.63 12.72
4 -16 -3 89.55 12.39
-4 -16 3 99.83 16.38
-4 16 3 92.8 16.14
4 16 3 96.54 12.64
-4 -16 3 93.39 13.4
-4 16 3 99.61 13.75
-4 16 3 102.72 12.29
-4 16 -3 101.39 10.01
4 16 3 93.91 9.77
4 17 -3 120.63 10.78
4 17 3 101.84 14.67
4 17 -3 95.15 10.33
-4 -17 3 124.33 14.06
-4 -17 -3 122.84 11.66
-4 17 3 125.87 11.91
-4 -17 3 120.44 17.69
4 -17 3 130.47 14.67
4 -17 -3 114.17 14.64
-4 17 3 99.55 15.55
4 -17 3 118.17 14.39
4 17 3 102.54 13.13
-4 -17 3 97.65 13.77
-4 17 3 129.91 14.15
-4 17 -3 117.46 11.6
4 -17 3 102.36 14.48
-4 17 3 92.74 13.5
4 17 3 112.86 11.09
4 18 -3 25.44 4.85
4 18 3 20.58 6.73
-4 -18 3 34.82 7.56
-4 18 3 14.38 4.12
-4 18 -3 21.9 6.42
4 18 -3 28.29 4.85
-4 -18 -3 29.41 5.36
4 -18 3 33.44 7.32
4 -18 3 29.29 6.92
-4 18 3 23.42 7.79
4 -18 -3 11.54 6.24
4 18 3 13.41 3.96
-4 -18 3 25.36 6.64
-4 18 3 31.71 7.09
-4 18 -3 32.36 5.79
4 19 3 14.21 5.55
-4 -19 3 18.24 6.02
4 19 -3 23.2 4.72
4 19 -3 18.5 4.06
-4 19 3 18.53 4.97
-4 19 -3 10.79 5.34
-4 -19 -3 20.76 4.63
4 -19 3 18.37 5.29
4 -19 3 16.9 5.86
-4 19 3 15.54 5.84
4 -19 -3 12.22 5.05
4 19 3 12.27 3.63
-4 -19 3 18.91 5.9
-4 19 3 21.52 6.41
-4 19 -3 17.14 5.08
4 20 -3 225.42 17.36
4 20 -3 202.62 18.04
-4 -20 3 188.62 21.88
-4 -20 -3 220.74 18.24
-4 20 3 197.14 18.54
-4 20 -3 152.55 21.44
4 -20 3 193.17 21.83
4 -20 -3 153.59 19.85
-4 20 3 277.59 24.05
-4 20 -3 177.87 18.66
4 20 3 197.4 16.34
4 21 -3 39.65 6.58
-4 -21 3 35.87 9.56
-4 21 3 39.73 7.8
4 -21 3 13.77 6.36
4 21 3 36.7 6.06
-4 22 3 126.32 16.33
4 22 -3 179.66 16.5
4 22 3 154.82 14.39
4 23 -3 33.99 6.91
4 0 4 3475.37 160.56
4 0 -4 3039.73 161.45
4 0 -4 3121.87 160.44
-4 0 4 2954.18 159.86
-4 0 4 2832.71 157.12
-4 0 -4 2893.92 160.94
4 0 -4 3125.05 159.92
4 0 -4 2841.94 158.74
4 0 4 3092.36 163.24
4 0 4 3027.31 203.2
4 0 4 3019.25 156.46
-4 0 -4 3061.59 163.48
4 -1 4 12.48 5.98
4 1 -4 16.33 3.7
4 -1 -4 24.93 4.61
4 1 4 18.95 3.75
4 1 -4 11.31 3.12
4 -1 -4 20.71 4.13
-4 -1 -4 13.22 3.39
-4 1 -4 19.2 3.93
4 1 -4 15.28 3.26
4 -1 -4 13.22 2.98
-4 -1 4 10.72 2.89
-4 -1 4 13.07 2.1
-4 -1 4 14.3 3.18
-4 1 4 14.84 3.29
4 -1 4 49.05 18.41
4 1 4 21.15 12.47
4 1 -4 11.94 2.64
4 -1 -4 14.18 2.8
-4 -1 4 17.83 5.68
4 1 4 17.97 4.42
-4 1 -4 49.35 7.89
4 1 4 -4.29 12.53
4 1 4 11.72 1.78
4 -1 4 57.87 21.71
4 -2 4 862.77 63.76
4 2 4 1241.36 60.37
4 2 -4 1092.23 63.42
4 -2 -4 1135.35 64
4 -2 -4 1102.55 62.86
-4 -2 4 1117.84 64.22
-4 -2 4 1100.32 61.52
-4 -2 4 1048.99 59
-4 2 4 1125.97 62.1
-4 -2 -4 1138.6 63.5
-4 2 -4 1064.04 63.43
4 2 -4 1155.06 62.5
4 -2 -4 1187.16 62.21
4 -2 -4 1038.63 61.44
-4 -2 4 1002.9 65.45
4 2 4 1132.01 65.67
4 2 4 1253.45 84.67
4 2 -4 1087.32 60.88
4 -2 4 1358.72 94.03
4 2 4 1119.73 59.62
-4 2 -4 1182.04 65.63
4 -2 4 1157.59 58.74
4 -3 -4 7.2 2.75
-4 -3 4 3.23 2.11
4 -3 4 -1.8 4.64
4 -3 4 1.23 0.56
4 -3 -4 1.82 1.77
4 3 4 -0.15 0.99
4 3 -4 3.73 2.02
-4 -3 -4 1.65 1.7
4 3 -4 1.81 1.32
-4 3 -4 2.95 1.92
4 -3 -4 2.38 1.48
-4 -3 4 1.44 1.34
-4 3 4 1.64 1.27
-4 -3 4 1.39 0.86
4 -3 -4 0.41 1.18
4 3 4 4.56 5.25
-4 -3 4 -1.5 2.19
4 3 4 5.36 2.62
4 3 -4 1.13 0.97
4 -3 4 0.99 1.28
4 -3 4 -3.1 10.08
4 3 4 0.83 1.16
-4 3 -4 10.29 3.55
4 -4 4 229.9 18.46
4 4 4 201.99 12.49
4 -4 4 200.64 13.02
-4 -4 4 244.47 17.8
4 4 -4 236.65 17.22
-4 -4 4 236.52 15.23
-4 -4 4 227.87 13
-4 4 4 239.76 15.62
-4 -4 -4 236.75 16.74
-4 -4 -4 267.95 18.24
-4 4 -4 251.79 17.55
4 -4 -4 258.93 15.84
4 -4 -4 202.56 15.4
-4 -4 4 221 17.47
4 4 -4 221.73 14.17
4 4 4 254.32 18.97
4 4 4 262.46 27.8
4 -4 4 262.55 31.52
-4 4 -4 256.7 18.61
4 -4 4 239.44 13.3
-4 -5 4 18.21 4.07
4 -5 4 29.41 5.56
4 -5 4 27.87 10.16
4 5 -4 29.49 4.77
4 -5 4 23.07 2.63
-4 -5 -4 16.44 1.93
-4 5 -4 15.02 3.58
-4 -5 -4 15.74 3.85
4 -5 -4 22.21 3.43
-4 -5 4 25.55 2.46
-4 -5 4 25.75 3.54
-4 5 4 21.77 3.44
-4 -5 -4 21.34 3.84
4 -5 4 24.45 8.19
4 5 4 24.77 8.16
4 -5 -4 16.1 3.32
-4 -5 4 22.54 4.34
4 5 4 26.36 5.1
-4 5 -4 15.36 4.2
4 -5 4 23.05 4.39
4 5 4 38.12 11.75
-4 -6 4 30.49 5.4
4 -6 4 30.59 10.15
4 -6 4 35 5.58
4 -6 4 38.91 3.88
4 6 -4 39.27 5.51
-4 -6 4 33.43 3.37
-4 -6 4 30.86 4.08
-4 -6 -4 36.42 5.07
-4 6 4 36.71 4.55
-4 -6 -4 37.9 5.59
-4 6 -4 39.7 5.77
4 -6 -4 35.27 4.38
4 -6 4 28.31 8.88
4 6 4 46.26 10.36
-4 -6 4 40.56 5.39
4 -6 -4 36.85 4.92
-4 6 -4 22.48 4.72
4 6 4 44.54 11.46
4 -6 4 32.01 5.43
-4 -7 4 2.15 2.21
4 -7 4 2.6 1.3
4 7 4 -2.21 7.53
4 7 -4 1.84 1.67
4 -7 4 2.22 4.57
-4 7 -4 1.99 1.81
-4 -7 -4 2.48 1.69
-4 -7 4 -0.35 1.2
-4 -7 4 0.73 1.6
-4 -7 -4 2.15 1.66
-4 7 4 1.24 1.2
4 -7 4 -1.79 4.52
4 -7 4 0.77 1.78
-4 -7 4 -2.96 2.16
4 -7 -4 3.11 1.6
-4 7 -4 0.78 1.79
4 -7 4 0.69 1.89
4 -8 4 1214.49 68.74
-4 -8 4 1233.47 71.89
4 8 -4 1307.88 70.76
-4 -8 -4 1280.66 70.23
-4 -8 -4 1193.84 70.47
-4 8 4 1259.46 68.86
-4 8 -4 1239.3 71.51
4 -8 4 1240.5 72.41
-4 -8 4 1231.94 68.85
4 -8 -4 1168.09 69.91
-4 -8 4 1273.67 66.31
4 -8 4 1290.05 81.76
4 8 4 1223.56 80.31
4 8 4 1248.53 84.71
4 -8 4 1156.01 83.53
4 -8 4 1243.2 72.39
-4 8 -4 1211.48 72.37
-4 -9 4 8.4 3.18
4 -9 4 9.12 1.34
4 -9 4 9.74 3.11
4 9 -4 12.34 3.23
4 9 4 4 6.84
4 -9 4 14.21 7.83
-4 9 4 11.56 2.79
-4 9 -4 13.64 3.87
-4 9 4 6.47 2.93
-4 -9 -4 9.36 2.87
4 -9 4 11.69 5.46
4 9 4 4.71 6.07
4 -9 -4 10.72 3.16
-4 -9 4 7.32 2.21
-4 -9 4 10.8 1.77
4 -9 4 6.4 3
4 9 4 2.87 2.87
4 -9 4 2.39 2.88
-4 9 4 7.18 3.21
4 -10 4 966.57 70.32
4 10 -4 1481.99 72.01
4 -10 4 1074.68 66.59
-4 -10 4 1437.33 74.15
-4 10 4 1112.63 69.66
-4 -10 -4 1375.31 71.32
-4 10 4 1456.81 70.23
-4 10 -4 1340.01 73.21
4 -10 4 1383.43 74.18
-4 -10 4 1383.12 67.08
4 -10 -4 1356.86 72.13
4 -10 4 1354.06 82.2
4 10 4 1376.9 81.56
-4 10 4 1261.81 82.76
4 10 4 1346.6 84.7
4 -10 4 794.75 70.88
4 -10 4 1230.89 83.77
-4 10 -4 1260.55 67.97
-4 10 4 1434.67 74.3
4 10 4 1365.85 70.51
-4 -11 4 1.68 1.95
4 -11 4 1.51 2.35
4 11 -4 5.31 2.2
4 -11 4 4.94 1.37
4 11 4 5.6 4.71
4 -11 4 1.9 5.55
4 -11 4 5.11 1.49
-4 11 4 7.69 2.04
-4 11 -4 5.55 2.72
4 -11 4 4.77 4.33
4 11 4 2.99 4.07
4 -11 -4 5.59 2.89
4 -11 4 1.69 2.14
-4 -11 4 5.09 5.24
-4 -11 4 4.84 1.4
4 11 4 2.44 2.26
-4 -11 4 1.76 4.46
4 -11 4 2.86 3.13
-4 11 4 -1.74 4.02
-4 11 -4 4.23 1.69
-4 11 4 3.43 2.8
4 -12 4 360.3 25.81
4 12 -4 512.32 30.05
4 -12 4 413.83 26.16
-4 -12 4 490.91 32.28
4 12 -4 519.75 30.12
-4 12 4 480.55 28.43
-4 12 -4 498.53 32.13
4 -12 4 481.85 32.2
-4 -12 4 439.69 25.67
-4 -12 4 440.19 42.91
4 -12 -4 500.85 31.51
4 -12 4 470.38 37.3
4 12 4 406.53 35.18
-4 -12 4 484.54 38.96
-4 12 4 435.18 37.4
4 -12 4 497.73 29.83
4 12 4 486.52 39.59
4 -12 4 438.15 38.74
-4 12 4 551.27 33.15
-4 12 -4 440.49 27.02
4 12 4 508.19 29.07
-4 -13 4 -0.91 1.32
4 13 -4 0.59 1.37
4 13 4 -1.77 3.65
4 -13 4 1.81 3.72
4 -13 4 1.01 0.92
-4 13 4 0.98 1.52
-4 13 -4 1.81 2.46
4 13 -4 2.47 1.8
4 -13 4 1.52 2.71
4 13 4 2.85 2.94
4 -13 4 2.72 2.09
-4 -13 4 -2.41 4.95
-4 13 4 -2.24 4
4 -13 -4 -0.85 1.75
4 13 4 1.01 1.47
4 -13 4 0.5 1.85
-4 -13 4 8.38 4.57
-4 13 4 -1.65 4.49
-4 13 4 1.85 2.33
-4 13 -4 1.2 1.55
-4 -14 4 19.95 5.18
4 14 -4 18.7 3.96
4 14 4 20.76 6.97
4 -14 4 15.79 6.34
4 -14 4 21.63 3.43
-4 14 4 20.17 3.79
-4 14 -4 23.25 5.56
4 14 -4 27.46 4.61
4 -14 4 14.73 6.34
4 14 4 23.43 6.58
-4 -14 4 7.01 5.98
-4 14 4 8.7 5.58
4 -14 4 23.85 5.47
4 -14 -4 26.54 5.7
4 14 4 19.11 3.89
-4 -14 4 17.9 6.78
-4 14 4 12.77 5.55
-4 14 4 22.28 5.28
-4 14 -4 18.86 3.58
4 15 -4 8.73 2.71
4 -15 4 5.09 3.95
4 15 4 11.78 5.23
4 -15 4 8.91 2.57
-4 -15 4 8.1 3.5
-4 15 4 13.71 3.14
-4 15 -4 11.54 4.08
4 15 -4 14.47 3.65
4 15 4 9.25 4.55
4 -15 4 7.1 4.88
4 -15 -4 6.39 3.68
-4 -15 4 13.55 7
-4 15 4 8.38 5.74
4 -15 4 20.19 5.02
4 15 4 13.83 3.29
-4 -15 4 15.78 5.66
-4 15 4 16.99 5.98
-4 15 4 13.31 4.26
-4 15 -4 12.59 2.9
4 16 -4 4.56 2.03
4 16 4 9.78 5.04
4 -16 4 8.19 4.77
4 -16 4 2.75 1.97
-4 -16 4 1.08 1.94
-4 16 4 6.44 2.19
-4 16 -4 8.04 3.75
4 16 -4 5.14 2.3
4 16 4 5.05 3.91
4 -16 4 4.12 4
4 -16 -4 5.91 3.23
-4 -16 4 6.52 5.49
-4 16 4 2.02 4.16
4 -16 4 3.23 2.72
4 16 4 5.49 2.47
-4 -16 4 7.61 4.96
-4 16 4 5.94 3.75
-4 16 4 3.26 2.97
-4 16 -4 4.5 2.1
4 17 -4 -1.33 1.94
4 17 4 4.71 3.23
4 -17 4 -0.65 2
-4 -17 4 1.17 2.41
-4 17 4 3.16 1.95
-4 17 -4 1.27 2.62
4 17 -4 -0.66 2.25
4 -17 4 -1.32 3.83
4 -17 -4 -1.32 2.71
-4 -17 4 -2.09 3.05
-4 17 4 1.92 3.95
4 -17 4 1.16 2.07
4 17 4 0.57 1.65
-4 -17 4 -4.38 4.25
-4 17 4 4.27 3.27
-4 17 4 1.17 2.95
4 18 -4 541.27 34.22
4 18 -4 614.52 34.48
4 -18 4 449.36 34.16
-4 -18 4 666.29 41.28
-4 18 4 511.22 33.87
4 -18 4 659.14 41.35
-4 18 4 544.6 40.52
-4 18 4 460.01 41.34
4 -18 -4 290.16 35.77
4 -18 4 424.01 37.37
-4 -18 4 496.5 39.43
-4 18 4 708.43 41.65
4 18 4 519.9 32.98
4 18 4 510.7 40.62
4 19 -4 4.56 2.73
4 19 -4 10.67 3.61
4 19 4 9.94 5.08
4 -19 4 6.25 3.33
-4 -19 4 8.49 4.85
-4 19 4 6.82 3.59
4 -19 4 7.1 4.23
4 -19 4 12.36 5.3
4 -19 -4 4.35 3.97
-4 19 4 11.32 5.06
4 19 4 3.12 2.51
-4 19 4 11.06 5.7
4 20 -4 542.48 33.42
4 20 -4 503.63 33.99
-4 -20 4 545.54 41.07
4 -20 4 546.59 40.62
-4 20 4 423 37.46
4 20 4 483.6 31.99
4 21 -4 3.38 3.26
4 21 4 2.72 2.11
4 0 -5 -0.67 1.19
-4 0 -5 0.57 1.18
4 0 -5 0.41 1.03
4 0 5 0.24 0.87
4 0 5 -3.96 5.77
4 0 -5 0.89 0.87
-4 0 5 -1.04 1.51
-4 0 5 5.57 8.11
4 1 5 27.98 3.05
4 1 -5 32.78 5.33
4 -1 -5 24.89 4.9
4 -1 5 27.16 3.61
4 1 5 54.21 18.67
4 -1 5 60.91 17.42
-4 -1 -5 26.39 4.38
-4 1 -5 20.86 4.13
4 1 -5 39.55 4.71
4 -1 -5 39.55 4.53
4 1 -5 33.66 3.59
4 -1 5 35.63 14.21
4 1 5 26.94 12.6
4 -1 -5 34.98 3.96
-4 -1 5 27.35 6.26
-4 1 5 30.03 6.8
-4 -1 5 13.87 12.69
-4 1 5 35.96 13.97
4 2 -5 109.16 10.39
4 -2 -5 101.04 10.31
4 -2 5 101.07 8.4
4 -2 5 127.88 24.73
-4 -2 5 110.92 10.82
-4 2 5 102.55 6.38
-4 2 5 99.79 8.43
-4 -2 -5 108.17 9.71
-4 2 -5 84.09 9.08
4 2 -5 101.68 8.75
4 -2 -5 103.8 8.5
4 2 5 96.51 19.96
4 -2 -5 87.96 7.88
-4 -2 5 98.74 11.26
-4 2 5 130.24 14.92
4 2 -5 88.47 7.03
4 -2 5 113.87 11.35
-4 2 5 97.77 22.83
4 -3 -5 117.74 10.37
4 -3 5 103.31 8.37
4 -3 5 89.73 19.73
-4 -3 5 113.83 10.5
4 3 -5 96.74 9.43
-4 3 5 109.28 6.47
-4 3 5 111.09 7.98
-4 -3 5 109.7 7.96
-4 -3 -5 112.24 9.27
-4 -3 -5 116.94 10.27
-4 3 -5 104.84 9.35
4 -3 -5 110.45 7.83
4 3 5 98.38 18.09
4 -3 -5 84.79 7.2
-4 -3 5 114.32 10.97
-4 3 5 111.67 14.64
4 3 -5 88.2 5.78
4 -3 5 108.52 10.6
-4 3 5 136.01 23.65
-4 -4 5 4.55 2.22
4 -4 -5 4.28 2.09
4 4 5 6.03 6.21
4 -4 5 -3 5.36
4 4 -5 2.75 1.88
-4 4 -5 5.04 2.26
4 -4 -5 4.34 1.64
-4 -4 -5 8.36 2.79
4 -4 5 3.16 2.31
-4 -4 5 4.93 1.67
-4 4 5 2.24 1.59
-4 4 5 5.36 1.68
-4 -4 -5 4.32 1.85
4 -4 5 6.36 2.84
4 4 5 7.03 6.82
4 -4 -5 4.9 1.84
-4 -4 5 5.18 2.3
-4 4 5 1.74 5.06
-4 -4 5 17.07 10.76
4 4 5 4.31 1.08
-4 -4 5 2.9 2.99
-4 4 5 5.73 5.9
4 4 5 2.74 0.89
-4 -5 -5 -0.28 0.56
-4 -5 5 0.77 1.59
4 5 5 2.75 4.9
4 -5 5 -2.76 6.35
4 -5 5 0.17 0.66
4 5 -5 -0.68 1
-4 5 -5 -0.65 0.94
-4 -5 -5 3.45 1.88
4 -5 -5 0.35 0.95
4 -5 5 3.13 2.23
-4 -5 5 0.38 1.23
-4 5 5 -0.44 1.57
-4 5 5 0.37 0.86
-4 -5 -5 2.67 1.55
4 -5 5 2.35 5.92
4 5 5 -4.34 6.71
4 -5 5 -0.81 1.66
4 -5 -5 1.75 1.28
-4 -5 5 -0.68 1.57
-4 5 5 -2.05 2.98
-4 -5 5 -3.84 5.59
-4 5 5 -3.52 6.28
4 5 5 0.67 0.87
-4 -5 5 -2.63 4.68
-4 5 5 2.6 5.35
4 6 5 115.1 19.4
4 -6 5 98.26 18.47
4 -6 5 94.54 7.31
-4 -6 5 119.11 11.62
4 6 -5 103.35 10.43
-4 6 5 72.22 8.21
-4 -6 5 124.62 9.21
-4 6 5 112.12 8.74
-4 -6 -5 116.51 10.04
-4 -6 -5 115.64 10.78
-4 6 -5 119.55 10.9
4 -6 5 109.62 11.5
4 -6 5 125.97 18.96
4 6 5 107.69 17.22
-4 -6 5 115.67 10.56
4 -6 -5 100.14 9.18
-4 6 5 118.47 19.87
-4 -6 5 60.13 17.55
-4 6 5 62.18 17.7
-4 -6 5 124.07 20.15
-4 6 5 98.76 17.5
4 6 5 114.27 8.57
4 7 5 115.67 19.44
4 -7 5 88.06 16.76
4 -7 5 89.42 7.42
-4 -7 5 110.64 11.32
4 7 -5 111.25 10.56
-4 7 5 88.42 8.44
-4 -7 5 112.87 8.83
-4 -7 -5 116.37 9.84
-4 7 5 116.72 8.7
-4 -7 -5 98.99 10.21
-4 7 -5 109.46 10.65
4 -7 5 108.27 11.52
4 -7 5 92.42 17.44
4 7 5 85 15.52
-4 -7 5 95.21 9.52
4 -7 -5 96.87 9.15
-4 7 5 120.21 21.68
-4 -7 5 116.01 22.97
-4 7 5 107.87 21.45
-4 -7 5 98.4 17.77
-4 7 5 88.39 16.33
4 7 5 85.22 8.59
4 -8 5 396.99 22.05
4 8 -5 415.83 25.65
-4 -8 5 442.35 27.5
-4 8 5 382.17 22.99
-4 -8 5 489.65 23.8
-4 -8 -5 430.28 24.57
-4 -8 -5 470.74 26.18
-4 8 5 448.83 23.02
-4 8 -5 415.52 26.09
4 -8 5 445.05 27.83
-4 -8 5 379.25 24.01
-4 8 5 210.76 31.48
4 -8 -5 373.87 24.01
-4 -8 5 377.66 42
-4 8 5 375.44 41.95
4 -8 5 360.5 34.18
4 8 5 358.04 33.45
-4 -8 5 516.42 40.5
-4 8 5 398.81 36.49
4 8 5 400.51 37.74
4 -8 5 393.04 37.76
-4 -8 5 242.87 19.88
4 8 5 249.59 22.66
-4 -9 5 18.06 4.51
4 -9 5 17.92 3.03
4 9 -5 25.08 4.49
4 9 5 19.92 7.26
4 -9 5 4.5 5.25
-4 -9 -5 13.62 3.51
-4 9 -5 20.89 4.49
-4 -9 5 20.19 3.34
-4 9 5 17.34 3.18
-4 -9 -5 20.44 3.69
-4 9 5 19.2 3.14
4 -9 5 22.58 8.26
4 9 5 24.91 7.6
4 -9 -5 15.18 3.61
4 -9 5 28.25 5.43
-4 9 5 10.39 6.11
-4 -9 5 30.15 11.64
-4 9 5 11.25 7.71
4 9 5 17.21 3.67
-4 9 -5 21.58 5.27
4 -9 5 7.03 3.33
-4 -9 5 18.84 7.2
-4 9 5 8.27 5.7
-4 -9 5 12.72 2.29
-4 -10 5 5.32 3.03
4 -10 5 3.09 0.98
4 -10 5 5.97 2.16
4 10 -5 3.91 2.02
4 10 5 14.97 6.61
4 -10 5 8.7 5.49
-4 -10 -5 4.55 2.22
-4 10 -5 0.78 1.14
-4 -10 5 7.59 2.14
-4 10 5 1.58 1.41
-4 -10 -5 1.07 1.24
-4 10 5 4.16 1.52
4 -10 5 3.62 4.17
4 10 5 6.85 4.67
4 -10 5 6.1 2.84
4 -10 -5 1.91 1.61
-4 10 5 -1.87 2.73
-4 -10 5 2.9 4.22
-4 10 5 -2.71 6.24
-4 -10 5 0.93 1.07
4 10 5 5.93 2.42
4 -10 5 5.85 2.42
-4 -10 5 8.06 5.49
-4 10 5 3.97 4.57
-4 10 5 0.89 1.83
-4 -11 5 29.43 5.74
4 11 -5 33.98 5.27
4 -11 5 36.44 5.31
4 11 5 24.86 8.93
4 -11 5 31.61 9.59
4 -11 5 24.42 3.08
-4 11 -5 30.42 5.83
-4 -11 5 39.23 4.65
-4 -11 -5 39.17 5.68
-4 11 5 30.88 4.15
4 -11 5 21 7.38
4 11 5 37.99 8.81
4 -11 5 42.66 6.97
4 -11 -5 29.88 5.39
-4 -11 5 14 7.79
-4 11 5 26.18 8.19
-4 11 5 41.85 11.84
4 11 5 30.41 4.95
4 -11 5 31.07 5.06
-4 -11 5 27.25 8.88
-4 11 5 17.24 7.55
-4 11 5 33.82 6.3
4 -12 5 11.87 2.17
-4 -12 5 16.3 4.57
4 12 -5 13.78 3.38
4 12 5 22.13 7.78
4 -12 5 8.19 6
-4 12 5 13.78 2.76
-4 -12 -5 13.92 3.55
-4 12 -5 17.5 4.37
4 12 -5 14.19 3.74
4 12 5 17.54 6.4
4 -12 5 6.77 4.98
4 -12 5 20.14 4.95
-4 -12 5 16.28 7.93
-4 12 5 22.77 9.05
-4 12 5 26.52 7.27
4 -12 -5 15.34 3.85
4 12 5 10.93 3.06
-4 -12 5 24.56 8.05
-4 12 5 1.85 3.38
-4 12 5 16.14 4.43
4 13 5 48.88 11.37
4 -13 5 47.66 11.17
4 13 -5 62.31 7.55
4 13 -5 66.88 7.82
4 -13 5 44.39 5.14
-4 -13 5 61.51 8.89
-4 -13 -5 54.27 7.22
-4 13 5 56.54 6.08
-4 13 -5 58.91 8.69
4 13 5 50.91 10.55
4 -13 5 59.15 11.31
4 -13 -5 48.74 7.93
4 -13 5 59.03 8.61
-4 -13 5 42.09 11.82
-4 13 5 39.14 12.14
-4 13 5 38.44 9.45
-4 13 5 62.74 8.96
4 13 5 65.2 7.11
-4 -13 5 51.36 11.04
-4 13 5 46.79 10.53
4 -14 5 1.92 1.48
-4 -14 5 1.07 1.91
4 14 -5 3.34 2.06
4 14 5 5.7 4.79
4 -14 5 3.87 4.45
-4 14 5 1.3 1.1
-4 14 -5 1 1.79
4 14 -5 4.13 2.35
-4 -14 -5 4.06 2.09
4 14 5 1.49 3.42
4 -14 5 1.59 4.33
4 -14 -5 0.95 2.6
4 -14 5 2.97 2.5
-4 -14 5 7.64 5.25
-4 14 5 2.36 4.85
4 14 5 1.14 1.67
-4 -14 5 1.78 1.84
-4 14 5 3.49 3.59
-4 14 5 3.11 2.83
-4 -15 5 1.13 2.32
4 15 -5 -0.68 1.56
4 15 5 -5.54 5.37
4 -15 5 3.75 4.73
4 -15 5 0.86 1.18
-4 15 5 1.83 1.49
-4 15 -5 1.08 1.93
4 15 -5 0.69 1.75
-4 -15 -5 -0.69 2.14
4 15 5 5.74 3.31
4 -15 5 -1.54 4.2
4 -15 -5 -1.07 2.21
4 -15 5 1.04 1.85
-4 -15 5 -2.47 5.09
-4 15 5 2.28 3.32
4 15 5 4.09 2.33
-4 15 5 1.09 2.51
-4 -15 5 1.73 3.08
-4 15 5 1.69 3.01
4 16 -5 400.25 25.2
4 16 -5 367.09 24.79
4 -16 5 306.21 22.19
-4 -16 5 406.4 29.25
-4 -16 -5 387.82 25.13
-4 16 5 341.12 22.49
-4 16 -5 404.57 29.7
4 -16 5 379.34 28.01
-4 16 5 274.65 28.6
-4 -16 5 308.14 34.27
-4 16 5 317.12 33.63
4 -16 -5 306.92 27.72
4 16 5 285.2 28.22
4 -16 5 285.83 29.03
-4 -16 5 348.99 31.51
-4 16 5 307.44 29.89
-4 16 5 375.38 28.31
4 16 5 347.18 23.8
4 16 5 289.91 30.45
4 -16 5 282.82 30.42
-4 -17 5 72.73 10.94
4 17 -5 59.39 8
4 17 5 48.25 11.17
-4 17 -5 73.23 11.45
-4 -17 -5 71.19 8.73
4 17 -5 52.98 7.81
4 -17 5 58.81 11.36
4 -17 5 90.62 11.66
4 -17 -5 46.77 10.02
-4 17 5 90.21 15.19
-4 17 5 68.05 11.62
-4 17 5 84.02 11.64
4 17 5 66.93 8.14
-4 -17 5 63.1 11.91
4 18 -5 228.37 17.94
4 18 -5 222.44 17.99
-4 -18 5 277.45 23.78
-4 -18 -5 229.9 18.5
-4 18 -5 312.29 26.03
4 -18 5 266.17 22.95
-4 18 5 257.93 24.29
-4 18 5 163.39 23.67
4 -18 -5 102.85 18.66
4 -18 5 170.87 21.02
4 18 5 193.16 22.9
-4 -18 5 204.43 22.84
-4 18 5 326.9 24.82
4 18 5 215.25 17.46
4 19 -5 10.09 3.59
4 19 -5 7.64 3.54
4 -19 -5 4.23 3.57
4 -19 5 4.05 4.19
4 19 5 7.24 2.82
4 20 5 58 8.18
4 21 5 11.81 4.22
4 0 -6 43.85 6.48
4 0 6 44.46 17.26
-4 0 -6 36.12 5.22
4 0 -6 33.83 4.29
4 0 -6 30.96 3.4
4 0 6 25.61 13.3
-4 0 6 29.56 6.52
-4 0 6 45.41 23.44
4 0 6 43.67 6.83
-4 0 6 41.01 18.18
4 1 -6 25.35 4.83
4 -1 -6 16.78 4.12
4 1 6 4.9 5.14
4 -1 6 18.93 12.93
-4 -1 -6 19.3 3.69
-4 1 -6 20.67 3.83
4 1 -6 21.72 3.38
4 -1 6 30.6 13.54
4 1 6 14.66 9.3
4 -1 -6 21.91 2.86
-4 -1 6 17.23 5.1
-4 1 6 19 5.42
-4 -1 6 51.32 23.89
4 1 6 28.3 5.39
4 -1 6 19.57 4.82
4 1 -6 15.58 2.08
-4 -1 6 29.69 14.44
-4 1 6 28.87 13.14
4 2 -6 104.43 10.7
4 -2 -6 99.82 10.62
4 -2 6 103.07 24.15
4 -2 6 87.66 7.48
-4 -2 -6 101.55 9.41
-4 2 -6 91.3 9.32
-4 -2 -6 102.58 10.49
4 2 6 60.72 17.49
4 -2 -6 88.18 7.45
-4 -2 6 90.59 11.16
-4 2 6 103.58 13.65
-4 -2 6 122.83 30.73
4 2 6 108.37 11.35
4 -2 6 111.85 11.45
-4 2 6 114.24 24.27
-4 -3 6 4.23 3.59
4 3 -6 3.6 2.97
4 -3 -6 3.14 2.29
4 -3 6 10.99 9.98
-4 -3 -6 6.12 2.5
-4 3 -6 3.12 2.23
-4 -3 -6 10.31 4.02
4 -3 6 0.7 1.53
4 -3 -6 1.71 1.5
4 3 6 -11.39 14.95
-4 -3 6 8.81 4.97
-4 3 6 1.43 3.62
-4 -3 6 -10.59 23.12
4 -3 6 1.69 2.13
-4 3 6 -3.55 9.66
4 -4 -6 1837.04 103.04
4 -4 6 1740.32 98.85
-4 -4 6 1910.09 103.71
-4 -4 -6 1854.25 100.16
-4 -4 -6 1876.77 102.28
-4 4 -6 1815.18 101.22
-4 -4 6 1847.74 103.12
4 -4 -6 1569.18 97.95
-4 -4 6 2065.39 141.43
-4 4 6 1944.51 135.67
4 4 6 1804.09 119.66
4 -4 6 1980.18 103.81
-4 -4 6 1936.09 126.51
-4 4 6 1952.64 126.43
4 4 6 1992.93 128.5
4 -4 6 1838.99 126.29
-4 -5 6 38.37 6.79
4 -5 -6 42.69 6.89
4 5 6 24.39 13.41
4 -5 6 51.9 17.29
-4 5 -6 38.03 6.04
-4 -5 -6 44.39 6.66
-4 5 6 26.2 2.59
-4 -5 6 31.82 5.19
-4 -5 -6 35.92 5.29
4 -5 6 40.67 7.05
4 -5 6 10.4 13.21
4 5 6 38.18 14.41
4 -5 -6 24.83 4.17
-4 -5 6 31.05 6.44
-4 5 6 58.75 13.72
-4 -5 6 46.37 19.47
-4 5 6 26.9 14.89
-4 -5 6 40.53 15.57
-4 5 6 8.57 11.12
-4 -6 6 1345.49 59.39
-4 6 6 1085.1 49.06
-4 -6 -6 1271.46 54.28
-4 -6 6 1469.11 54.47
-4 -6 -6 1376.28 57.16
-4 6 -6 1327.95 56.68
-4 -6 6 1356.39 57.66
-4 6 6 1386.99 75.2
4 -6 -6 1120.74 52.59
-4 -6 6 1356.56 91.54
-4 6 6 1338.36 88.21
4 -6 6 1282.54 75.93
4 6 6 1286.17 73.83
4 -6 6 1410.91 59.48
-4 -6 6 1207.86 77.29
-4 6 6 1256.91 78.1
4 6 6 1379.84 81.56
4 -6 6 1265.03 80.01
-4 -7 6 0.91 2.09
4 7 -6 0.75 1.33
4 7 6 2.67 7.28
4 -7 6 -5.4 8.35
4 -7 6 0.74 1.22
-4 7 -6 -0.71 1.79
-4 -7 -6 2.06 2.45
-4 -7 6 -0.45 2.13
-4 7 6 0.99 1.52
-4 -7 -6 -0.52 1.31
-4 7 6 1.64 1.3
4 7 6 -4.22 5.32
4 -7 6 -11.26 11.36
4 -7 6 -0.87 2.18
-4 -7 6 1.4 1.61
-4 7 6 -2.47 11.07
-4 -7 6 3.64 9.17
-4 7 6 3.36 7.74
4 -7 -6 -0.48 1.65
-4 -7 6 5.03 4.49
-4 7 6 -2.49 7.24
4 7 6 0.34 0.9
4 8 -6 217.98 17.64
-4 -8 6 259.33 19.99
-4 8 6 247.73 14.99
-4 -8 -6 225.79 16.35
-4 -8 -6 231.62 17.74
-4 -8 6 265.48 16.8
-4 8 -6 224.73 17.96
4 -8 6 226.47 19.05
-4 8 6 307.03 34.23
4 -8 -6 197.58 15.96
-4 -8 6 299.14 36.56
-4 8 6 262.76 33.36
4 8 6 198.87 24.75
4 -8 6 222.04 26.61
-4 -8 6 246.07 28.69
-4 8 6 235.63 28.25
4 8 6 216.11 27.88
4 8 6 186.34 13.59
4 -8 6 195.88 27.05
-4 -9 6 24.72 5.38
4 9 -6 20.79 4.56
4 9 6 24.39 8.76
4 -9 6 9.92 6.84
-4 -9 -6 23.06 4.49
-4 9 -6 25.4 5.12
-4 -9 -6 22.19 3.87
-4 9 6 21.8 3.09
4 9 6 21.15 8.7
4 -9 6 18.35 7.93
4 -9 6 22.54 5.11
4 -9 -6 22.76 4.16
-4 9 6 10.89 8
-4 -9 6 19.71 10.2
-4 9 6 21.42 10.02
-4 -9 6 32.13 9.8
-4 9 6 31.67 9.94
4 9 6 14.82 2.84
-4 -10 6 12.76 4.07
4 10 -6 12.17 3.42
4 10 6 11.75 6.86
4 -10 6 16.78 7.42
-4 -10 -6 8.81 2.84
-4 10 -6 4.03 2.67
-4 10 6 11.39 2.29
4 10 6 11.11 5.07
4 -10 6 13.73 6.41
4 -10 6 15.6 4.36
4 -10 -6 11.83 3.43
-4 10 6 -2.34 4.21
-4 -10 6 15.84 8.01
-4 10 6 5.88 6.08
-4 -10 6 4.42 5.11
-4 10 6 13.03 6.73
4 10 6 12.41 2.81
-4 -11 6 8.12 3.66
4 -11 6 10.58 1.91
4 11 -6 18.63 4.07
4 11 6 6.83 7.8
4 -11 6 20.91 8.3
-4 -11 -6 8.85 2.94
-4 11 -6 9.32 3.19
4 11 -6 8.73 3.31
-4 11 6 11.09 2.27
4 11 6 7.15 5.55
4 -11 6 11.39 6.21
4 -11 6 18.78 4.66
-4 11 6 4.21 3.79
-4 -11 6 15.31 9.47
-4 11 6 22.69 9.7
4 -11 -6 9.63 3.13
4 11 6 8.56 2.8
-4 -11 6 4.27 4.94
-4 11 6 6.29 4.85
4 12 -6 231.18 17.99
4 12 -6 273.18 19.07
-4 -12 6 259.23 20.97
-4 -12 -6 277.68 18.87
-4 12 6 206.29 14.78
-4 12 -6 214.01 19.31
4 -12 6 252.69 20.43
-4 12 6 202.1 24.85
-4 -12 6 234.18 31.38
-4 12 6 230.4 29.92
4 -12 -6 214.18 18.35
4 12 6 219.83 24.25
4 -12 6 204.37 24.44
-4 -12 6 213.69 25.64
-4 12 6 241.84 26.58
4 12 6 189.13 17.32
4 12 6 230 27.37
4 -12 6 216.71 26.75
-4 -13 6 9.81 4.05
4 13 -6 0.72 2.22
4 13 6 -2.15 6.26
4 -13 6 6.58 5.53
-4 13 -6 4.79 2.96
4 13 -6 3.72 2.76
-4 -13 -6 2.1 2.39
4 13 6 1.67 5.72
4 -13 6 1.79 3.68
4 -13 -6 0.85 2.76
4 -13 6 4.96 3.23
-4 13 6 7.33 4.63
-4 -13 6 -2.88 5.13
-4 13 6 -2.65 7.23
4 13 6 5.06 3.25
-4 -13 6 2.02 5.1
-4 13 6 -1.98 4.99
4 14 -6 1253.93 61.7
4 14 -6 1149.1 60.71
-4 -14 6 1201.74 65.47
-4 -14 -6 1201.36 60.95
-4 14 -6 1057.04 63.4
4 -14 6 1271.93 65.29
-4 -14 6 1043.11 78.29
-4 14 6 1058.35 76.57
4 -14 -6 1025.1 62.55
4 14 6 891.79 67.23
4 -14 6 881.69 68.29
4 -14 6 813.99 69.65
-4 -14 6 929.46 69.78
-4 14 6 877.02 69.14
4 14 6 610.65 58.61
4 14 6 990.66 71.73
-4 -15 6 22.64 6.33
4 15 -6 18.9 4.59
4 15 6 24.17 8.85
4 -15 6 10.22 7.04
-4 15 -6 14.41 5.31
4 15 -6 21.08 4.93
-4 -15 -6 20.16 4.78
4 -15 -6 19.34 5.82
4 -15 6 19.3 5.71
-4 -15 6 10.84 7.44
-4 15 6 19.87 8.91
4 15 6 13.99 6.85
4 -15 6 21.7 8.3
4 15 6 12.39 4.67
-4 -15 6 30.68 8.88
-4 15 6 16.83 7.27
4 16 -6 853.9 47.47
4 16 -6 832.64 47.22
-4 -16 6 867.51 52.47
-4 -16 -6 855.81 47.46
-4 16 -6 798.91 51.44
4 -16 6 886.24 51.66
-4 -16 6 764 62.68
-4 16 6 713.15 59.48
4 -16 -6 600.17 49.4
4 -16 6 569.85 52.09
4 16 6 602.7 54.21
-4 -16 6 632.83 54.35
-4 16 6 632.88 53.54
4 -16 6 660.39 56.11
4 16 6 740.71 47.31
-4 -17 6 1.34 2.77
4 17 -6 -1.54 2.1
4 17 6 3.74 4.3
4 17 -6 -0.79 3.02
4 -17 6 1.19 2.99
4 -17 -6 1.34 2.38
-4 17 6 2.3 5.8
4 -17 6 4.69 3.6
4 17 6 0.77 2.36
-4 -17 6 5.45 4.18
4 18 6 104.21 16.14
4 -18 6 120.04 14.22
4 -18 -6 48.99 11.08
4 -18 6 65.88 13.03
4 18 6 90.22 10.71
4 0 -7 -0.84 2.12
4 0 7 5.99 8.73
-4 0 -7 1.16 1.69
4 0 7 4.49 9.25
-4 0 7 -1.16 2.68
-4 0 7 -7.82 11.39
4 0 7 3.59 2.44
-4 0 7 -6.14 10.95
-4 0 -7 0.99 1.76
4 1 -7 25.77 5.23
4 -1 -7 27.24 5.42
4 1 7 31.7 16.37
4 -1 7 20.55 14.06
4 1 -7 19.05 4.55
-4 -1 -7 22.7 4.18
-4 1 -7 26.31 4.51
-4 -1 -7 28.54 5.19
4 1 7 15.57 10.68
4 -1 7 28.18 14.57
-4 -1 7 24.12 6.01
-4 1 7 24.98 6.44
4 1 7 26.02 5.55
-4 -1 7 23.12 17.8
4 -1 7 32.25 5.98
-4 -1 7 31.48 16.26
-4 1 7 30.66 15.84
-4 -1 -7 41.24 7.37
-4 1 -7 22.44 5.29
4 2 -7 140 13.18
4 -2 -7 121.48 12.8
4 -2 7 144.1 28.24
4 2 -7 146.32 13.44
-4 -2 -7 124.88 11.16
-4 2 -7 116.34 11.22
-4 -2 -7 144.5 13
4 2 7 109.5 22.46
-4 -2 7 132.23 14.31
-4 2 7 152.18 17.07
-4 -2 7 111.33 30.89
4 -2 7 107.69 12.46
-4 -2 -7 154.92 15.06
-4 2 -7 131.29 13.8
-4 2 7 100.75 23.96
4 -3 -7 89.9 10.16
4 -3 7 48.19 16.95
-4 -3 -7 71.19 7.6
-4 -3 -7 71.63 8.67
-4 3 -7 58.74 7.53
4 3 7 73.44 17.65
-4 -3 7 91.09 10.84
-4 3 7 60.06 11.18
-4 -3 7 56.83 24.41
4 -3 7 74.29 9.49
-4 3 -7 75.33 9.93
-4 3 7 68.84 18.42
4 -4 -7 164.33 15.76
4 -4 7 204.18 30.91
-4 -4 7 194.96 17.12
-4 -4 -7 166.59 13.44
-4 -4 -7 196.46 15.77
-4 4 -7 169.51 14.47
4 4 7 167.17 25
-4 -4 7 188.77 16.97
4 -4 -7 136.39 11.61
-4 4 7 231.79 22.77
-4 -4 7 202.12 36.43
-4 4 7 185.55 32.54
4 -4 7 261.45 31.88
4 -4 7 203.68 16.98
-4 4 -7 198.31 17.21
4 4 7 215.17 31.37
-4 -4 7 197.73 30.39
-4 4 7 174.14 28.48
-4 -5 7 -0.97 1.41
4 -5 -7 -0.91 2.29
4 5 7 3.34 5.96
4 -5 7 -3.36 9.79
-4 -5 -7 0.72 1.49
-4 -5 -7 -0.51 0.92
4 5 7 2.57 5.3
4 -5 7 -2.83 6.51
4 -5 -7 0.38 0.96
-4 -5 7 -0.91 2.48
-4 5 7 3.59 4.13
-4 -5 7 -4.58 6.67
-4 5 7 -8.31 10.48
4 -5 7 2.69 2.06
-4 5 -7 0.97 2.23
-4 -5 7 -3.16 6.51
-4 5 7 -3.12 8.49
-4 -6 7 50.17 7.97
4 -6 -7 45.4 7.56
4 6 7 77.86 17.76
4 -6 7 34.6 11.98
-4 -6 -7 60.53 6.61
-4 -6 -7 44.02 6.6
-4 6 -7 46.51 6.71
4 6 7 53.05 13.41
4 -6 7 54.91 13.99
4 -6 -7 51.49 5.87
-4 -6 7 41.27 7.62
-4 6 7 58.8 12.11
-4 -6 7 59.16 18.14
-4 6 7 46.53 15.69
4 -6 7 70.72 8.86
-4 6 -7 65.78 9.15
-4 -6 7 43.96 13.76
-4 6 7 52.03 14.52
4 7 7 79.25 18.01
4 -7 7 47.67 14.86
-4 -7 7 86.31 10.69
-4 -7 -7 70.22 7.39
-4 -7 -7 80.43 8.93
-4 7 -7 81.96 8.99
4 7 7 73.08 14.78
4 -7 7 71.12 15.4
4 -7 -7 64.85 6.99
-4 7 7 79.11 15.78
-4 -7 7 111.07 23.76
-4 7 7 54.73 15.93
4 -7 7 69.5 9.3
-4 7 -7 69.31 10.04
-4 -7 7 85.52 16.74
-4 7 7 48.95 14.21
-4 -8 7 8.19 3.51
4 8 7 8.39 5.76
4 -8 7 5.68 6.55
-4 -8 -7 5.61 2.51
-4 8 -7 4.53 2.47
-4 -8 -7 5.44 2.17
4 8 7 2.18 5.03
4 -8 7 18.62 7.19
4 -8 7 7.3 2.98
4 -8 -7 2.52 1.89
-4 8 7 13.33 9.11
-4 -8 7 -3.76 7.74
-4 8 7 3.48 5.07
-4 8 -7 3.93 3.05
-4 -8 7 2.63 3.83
-4 8 7 2.59 3.77
-4 -9 7 16.72 5.09
4 9 7 24.12 9.17
4 -9 7 8.2 6.32
-4 -9 -7 7.7 2.95
-4 9 -7 15.77 4.11
-4 -9 -7 15.58 3.2
4 9 7 20.92 7.79
4 -9 7 11.11 6.9
4 -9 7 13.89 4.21
4 -9 -7 9.39 2.75
-4 9 7 36.75 12.23
-4 -9 7 17.97 9.81
-4 9 7 23.28 11.38
-4 9 -7 11.68 4.06
-4 -9 7 7.57 6.4
-4 9 7 14.89 7.26
-4 -10 7 20.36 5.12
4 10 7 15.49 8.01
4 -10 7 7.87 7.19
-4 -10 -7 21.68 4.57
-4 10 -7 14.01 3.97
4 10 7 6.03 6.26
4 -10 7 17.08 7.66
4 -10 7 17.98 4.84
4 -10 -7 18.2 3.84
-4 10 7 9.09 7.02
-4 -10 7 13.86 9.47
-4 10 7 12.8 7.41
-4 -10 7 14.62 7.14
-4 10 7 14.35 7.83
-4 -11 7 23.13 5.88
4 11 7 32.26 10.59
4 -11 7 12.67 7.46
-4 -11 -7 20.49 4.44
-4 11 -7 15.57 4.32
4 11 -7 24.21 5.01
4 11 7 15.44 7.77
4 -11 7 35.11 10.25
4 -11 7 21.33 5.39
-4 11 7 23.5 9.38
-4 -11 7 43.47 13.81
-4 11 7 18.51 10.1
4 -11 -7 20.08 4.44
-4 -11 7 14.14 8.12
-4 11 7 32.34 9.87
4 12 -7 385.02 26.1
4 12 -7 407.75 26.67
-4 -12 7 435.28 30.16
-4 -12 -7 396.98 26
-4 12 -7 341.29 26.72
4 -12 7 425.69 28.84
-4 12 7 288.43 33.84
-4 -12 7 356.17 41.67
-4 12 7 370.03 40.38
4 -12 -7 305.7 25.23
4 12 7 312.57 32.95
4 -12 7 341.97 33.93
4 12 7 336.08 36.31
4 -12 7 298.93 35.45
-4 -12 7 330.28 34.88
-4 12 7 296.51 34.29
-4 -13 7 47.16 8.46
4 13 -7 45.45 6.69
4 13 7 25.54 9.46
4 -13 7 38.12 11.67
-4 13 -7 35.84 7.04
4 13 -7 41.63 6.83
-4 -13 -7 45.97 6.66
4 -13 -7 35.66 6.63
4 -13 7 49.47 8.18
-4 13 7 23.74 9.1
-4 -13 7 28.32 11.85
-4 13 7 46.27 14.41
4 13 7 45.43 10.43
4 -13 7 13.52 8.19
-4 -13 7 31.35 9.71
-4 13 7 43.8 11.88
4 14 -7 139.57 13.05
4 14 7 103.77 18.81
4 -14 7 104.37 18.68
4 14 -7 135.42 12.7
-4 -14 7 152.09 15.85
-4 -14 -7 147.23 12.87
-4 14 -7 96.65 13.09
4 -14 7 136.66 14.62
4 -14 -7 122.3 14.04
-4 14 7 81.06 15.94
-4 -14 7 107.06 20.92
-4 14 7 97.97 19.95
4 14 7 108.83 17
4 -14 7 116.52 17.73
-4 14 7 100.31 17.78
-4 -14 7 153.05 20.76
-4 14 7 142.03 15.17
4 15 7 -2.19 5.53
4 -15 7 4.51 5.19
-4 15 -7 -1.12 1.63
4 -15 7 3.31 3.01
4 -15 -7 -1.05 2.17
-4 15 7 -2.71 3.95
4 15 7 1.7 2.47
4 -15 7 5.46 5.3
-4 -15 7 -2.13 6.21
-4 15 7 6.24 4.79
4 16 7 27.57 8.79
4 -16 7 35.69 7.19
4 -16 -7 12.87 5.74
-4 16 7 20.93 9.77
4 -16 7 17.6 6.86
-4 -16 7 12.52 6.53
4 -17 7 46.15 8.97
4 -17 -7 23.51 7.28
-4 -17 7 50.62 11.7
4 0 -8 1345.91 76.5
4 0 -8 1332.39 75.88
-4 0 -8 1271.93 72.5
-4 0 -8 1344.59 75.13
-4 0 8 1416.18 80.69
-4 0 8 675.56 105.14
4 0 8 795.26 95.1
4 0 8 1100.41 112.91
-4 0 8 885.91 106.46
-4 0 -8 1478.66 78.73
4 -1 -8 50.39 8.52
4 1 -8 41.81 7.66
4 1 8 11.32 13.24
4 -1 8 27.77 20.74
4 1 -8 47.62 7.51
-4 -1 -8 35.39 5.45
-4 1 -8 37.59 5.76
-4 -1 -8 44.26 6.8
4 1 8 37.45 19.29
4 -1 8 30.42 22.87
-4 -1 8 51.64 9.83
-4 1 8 79.5 11.91
-4 -1 8 8.15 14.71
4 -1 8 68.56 9.29
-4 1 -8 81.11 10.79
-4 -1 -8 42.35 8.33
-4 -1 8 61.66 23.2
-4 1 8 27.4 19.68
4 2 -8 562.21 36
4 -2 -8 532.59 36.02
4 2 -8 555.22 35.53
-4 -2 -8 495.76 32.04
-4 -2 -8 495.76 34.06
-4 2 -8 494.76 32.58
-4 -2 8 553.84 38.6
-4 2 8 568.61 40.69
-4 -2 8 643.76 77.26
4 -2 8 504.3 35.47
4 2 8 418.13 50.39
4 -2 8 586.25 63.38
-4 2 8 445.14 57.4
-4 -2 -8 540.95 37.29
-4 2 -8 517.98 36.45
4 -3 -8 4.76 2.81
4 3 -8 9.6 3.84
4 -3 8 8.74 12.74
-4 3 -8 8.21 3.01
-4 -3 -8 10.73 3.47
-4 -3 -8 10.39 2.66
4 3 8 3.29 10.19
-4 -3 8 7.97 4.08
-4 3 8 16.82 6.88
-4 -3 8 -12.23 14.09
-4 3 8 -5.39 12.42
4 -3 8 17.67 5.08
-4 -3 -8 9.86 4.67
-4 3 8 4.17 9.61
-4 3 -8 10.33 4.77
4 -4 -8 250.68 21.03
4 4 -8 286.83 21.01
-4 -4 -8 239.8 17.35
-4 -4 -8 245.83 19.23
-4 4 -8 222.15 18.13
-4 -4 8 161.97 19.74
-4 4 8 313.16 27.71
-4 -4 8 300.81 45.8
-4 4 8 287.51 42.72
4 4 8 243.37 32.89
4 -4 8 277.6 36.46
4 -4 8 268.56 21.04
4 4 8 288.6 38.8
4 -4 8 266.12 37.65
-4 -4 8 257.67 36.75
-4 4 8 287.77 37.51
-4 4 -8 264.24 21.69
4 -5 -8 72.89 9.85
4 5 8 65.33 17.94
4 -5 8 54.85 17.67
4 5 -8 81.47 9.87
-4 -5 -8 73.35 7.5
-4 -5 -8 82.46 9.14
-4 5 -8 61.96 7.96
4 5 8 85.67 17.73
4 -5 8 58.08 17.09
-4 5 8 73.86 13.79
-4 -5 8 64.67 20.2
-4 5 8 85.23 22
4 -5 8 75.81 9.86
-4 5 -8 91.07 11.17
-4 -5 8 69.26 17.88
-4 5 8 71.76 19.01
4 -6 -8 99.6 11.94
4 6 8 111.24 22.72
4 -6 8 95.76 20.78
4 6 -8 95.06 10.8
-4 -6 8 118.86 12.93
-4 -6 -8 84.13 8.34
-4 -6 -8 103.21 10.4
-4 6 -8 66.87 8.88
4 6 8 103.7 19.28
4 -6 8 76.34 18.1
-4 6 8 97.69 16.08
-4 -6 8 68.95 21.69
-4 6 8 104.7 23.7
4 -6 8 101.63 11.58
-4 6 -8 124.52 13.5
-4 -6 8 57.95 16.25
-4 6 8 79.54 18.56
-4 -7 8 1.09 2.99
4 7 -8 6.79 3.16
4 -7 -8 8.21 3.67
4 7 8 6.35 9.82
4 -7 8 3.22 6.64
-4 -7 -8 5.01 2.96
-4 7 -8 5.17 2.64
-4 7 8 4.49 5.67
-4 -7 8 -4.32 9.94
-4 7 8 -3.95 8.14
4 -7 8 8.49 3.23
4 7 8 4.92 9.13
4 -7 8 2.65 6.69
-4 7 -8 6.49 3.86
-4 -7 8 -3.04 6.26
-4 7 8 11.98 8.72
4 8 -8 648.77 39.93
-4 -8 8 716.22 43.28
-4 -8 -8 629.9 38.77
-4 8 -8 522.41 38.06
-4 8 8 750.42 56.71
-4 -8 8 589.62 62.23
-4 8 8 538.46 58.16
4 8 8 563.95 50.61
4 -8 8 560.65 52.04
4 -8 8 660.82 41.26
4 8 8 530.12 53.92
4 -8 8 529.03 54.94
-4 -8 8 558.41 53.86
-4 8 8 537.4 53.11
-4 8 -8 645.26 42.43
-4 -9 8 50.1 8.3
4 9 8 31.75 13.72
4 -9 8 44.41 15.33
-4 -9 -8 30 5.71
-4 9 -8 23.89 5.39
-4 9 8 60.63 16.9
-4 -9 8 31.37 15.2
-4 9 8 28.86 14
4 9 8 38.41 12.64
4 -9 8 19.26 11.49
4 -9 8 47.8 7.68
-4 -9 8 25.07 11.95
-4 9 8 19.17 10.68
-4 -10 8 689.95 42.35
-4 -10 -8 584.75 37.15
-4 10 -8 502.91 37.24
-4 10 8 660.33 59.31
-4 -10 8 528.38 57.57
-4 10 8 583.44 57.57
4 10 8 503.83 47.31
4 -10 8 488.54 48.45
4 -10 8 704.96 40.89
4 10 8 626.18 54.47
-4 -10 8 541.62 51.43
-4 10 8 592.51 52.53
4 -10 8 480.55 51.06
-4 -11 8 31.01 7.08
4 11 8 -2.69 6.83
4 -11 8 27.7 11.07
-4 -11 -8 10.11 3.39
-4 11 -8 17.47 4.72
4 -11 8 21.72 5.51
-4 11 8 12.71 10.37
-4 -11 8 14.58 11.28
-4 11 8 6.71 8.48
4 11 8 4.2 7.2
4 -11 8 8.92 7.98
-4 -11 8 15.7 8.96
-4 11 8 10.26 7.95
4 -12 8 201.5 28.62
-4 12 -8 209.68 19.23
-4 -12 8 194.1 31.86
-4 12 8 191.42 30.56
4 12 8 176.58 25.15
4 -12 8 211.45 27.69
4 -12 8 287.06 21.64
-4 -12 8 239.79 29.7
-4 12 8 242.19 29.84
4 12 8 208.55 28.03
4 13 8 5.06 6.38
4 -13 8 -2.6 7.59
4 -13 8 5.19 3.21
-4 -13 8 13.7 10.58
-4 13 8 9.43 6.47
4 13 8 1.96 5.35
4 -13 8 2.09 5.27
-4 -13 8 -2.49 6.78
-4 13 8 14.6 7.09
4 14 8 39.22 11.73
4 -14 8 47.04 8.1
-4 -14 8 43.23 13.84
-4 14 8 48.68 13.44
-4 -14 8 9.73 9.57
-4 14 8 52.2 13.3
4 -15 8 36.69 7.57
-4 15 8 29.33 10.19
-4 -15 8 44.96 11.84
-4 16 8 16.79 8.19
-4 -16 8 15.96 7.83
4 0 -9 2.97 2.5
4 0 9 6.89 10.03
4 0 -9 0.93 1.67
-4 0 -9 1.61 2.2
-4 0 9 2.85 3.59
-4 0 9 8.46 12.32
4 0 9 5.04 7.33
-4 0 9 13.89 10.11
-4 0 -9 1.1 2.27
4 1 -9 19.4 5.36
4 -1 -9 19.06 5.03
4 1 -9 12.98 4.25
4 1 9 18.06 10.77
4 -1 9 35.91 17.45
4 -1 -9 21.65 5.02
-4 1 -9 17.87 3.62
-4 -1 -9 15.07 4.01
-4 1 -9 17.1 4.36
-4 -1 9 13.66 5.86
-4 1 9 8.92 4.92
-4 -1 9 17.19 17.72
4 1 9 13.26 11.18
4 -1 9 10.93 13.81
-4 1 9 11.79 12.17
-4 -1 -9 25.54 6.01
-4 1 -9 19.74 5.37
4 2 -9 84.06 10.34
4 -2 -9 88.51 10.82
4 -2 9 68.7 22.74
4 2 -9 72.93 9.43
-4 -2 -9 68.98 8.66
-4 2 -9 67.43 7.9
-4 2 -9 76.34 9.32
-4 2 9 65.37 12.25
-4 -2 9 44.72 23.32
4 2 9 50.82 17.94
-4 2 9 46.23 17.94
-4 -2 -9 75.17 10.55
-4 2 -9 73.9 10.45
4 -3 -9 47.33 8.08
4 3 -9 42.35 7.06
4 -3 9 33.16 16.35
-4 -3 -9 53.53 7.35
-4 3 -9 42.77 6.13
-4 3 9 54.55 11.03
-4 -3 9 78.95 25.46
-4 3 9 46.03 19.79
4 3 9 59.8 16.77
-4 3 -9 48.86 8.56
-4 3 9 59.22 20.04
-4 -3 -9 37.58 7.79
4 -4 -9 7.29 3.4
4 4 -9 6.4 2.98
4 4 9 4.26 10.75
4 -4 9 -4.31 4.44
-4 4 -9 4.5 2.31
-4 -4 -9 2.21 2.29
-4 4 9 7.03 4.79
-4 -4 9 5.91 10.54
-4 4 9 20.92 13.19
4 -4 9 4.75 2.95
4 4 9 6.43 8.77
4 -4 9 3.65 5.32
-4 4 -9 2.18 2.26
-4 -4 9 20.73 12.08
-4 4 9 16.4 10.34
-4 -4 -9 15.12 4.94
4 -5 -9 -1.05 1.88
4 5 -9 0.91 2.3
4 5 9 11.74 9.01
4 -5 9 3.98 8.2
-4 5 -9 0.67 1.83
-4 -5 -9 1.46 2.26
-4 5 9 3.76 3.88
-4 -5 9 -5.39 12.4
-4 5 9 4.82 9.93
4 -5 9 -0.96 3.11
4 5 9 2.98 6.87
4 -5 9 6.64 7.65
-4 5 -9 -2.2 2.77
-4 -5 9 -3.81 5.55
-4 5 9 7.54 8.68
-4 -5 -9 -2.36 3.43
4 -6 -9 85.7 11.3
4 6 9 127.64 23.91
4 -6 9 74.46 20.1
4 6 -9 90.19 10.6
-4 -6 -9 101.16 10.24
-4 6 -9 75.59 9.26
-4 6 9 139.54 19
-4 -6 9 89.78 25.07
-4 6 9 90.21 23.69
4 -6 9 100.89 11.55
4 6 9 39.14 14
4 -6 9 113.45 21.69
-4 -6 9 81.59 20.22
-4 6 9 91.06 21.24
-4 6 -9 110.34 13.2
4 7 9 24.07 12.94
4 -7 9 52.77 16.33
-4 -7 -9 43.8 6.61
-4 7 -9 35.96 6.17
-4 7 9 36.04 11.78
-4 -7 9 65.51 20.55
-4 7 9 42.68 15.36
4 -7 9 36.79 7.28
4 7 9 37.12 13.81
4 -7 9 43.07 14.63
-4 -7 9 50.37 15.98
-4 7 9 62.93 17.18
4 -8 9 241.68 35.77
-4 -8 -9 342.56 22.32
-4 8 -9 252.91 21.15
-4 8 9 276.39 40.22
4 8 9 306.07 34.64
4 -8 9 290.92 23.52
-4 -8 9 230.01 34.65
-4 8 9 254.89 34.38
4 8 9 294.24 37.19
-4 9 -9 7.13 3.2
4 -9 9 18.79 5.02
-4 10 -9 0.83 2.09
4 -10 9 3.01 2.92
4 -11 9 13.2 4.49
4 -12 9 1.03 2.38
4 -7 10 5.8 3.46
5 0 0 1.38 1.42
-5 0 0 0.92 1.26
5 -1 0 87.41 9.39
5 1 0 92.3 9.54
-5 -1 0 81.26 7.93
-5 1 0 78.39 7.68
5 2 0 3.39 1.56
5 2 0 5.4 2.7
5 -2 0 -0.7 1.78
-5 2 0 3.09 1.88
-5 -2 0 7.55 3.32
5 3 0 897.29 49.99
-5 3 0 865.7 52.38
-5 -3 0 861.99 51.7
5 -3 0 866.92 53.27
5 3 0 901.27 53.15
-5 3 0 945.43 51.3
-5 -4 0 4.85 2.32
5 4 0 8.41 2.64
5 -4 0 2.54 1.41
-5 4 0 1.27 2.08
-5 -4 0 6.55 4.02
-5 -4 0 6.96 3.58
5 -4 0 4.27 3.2
5 4 0 10.19 4.32
-5 4 0 4.82 3.2
5 -5 0 2835.85 149.86
5 -5 0 2834.37 149.7
5 5 0 2905.42 151.27
-5 -5 0 2768.73 151.14
5 -5 0 2765.6 155.11
5 5 0 2993.67 155.26
-5 -5 0 2886.61 154.6
-5 -5 0 2900.34 153.4
-5 5 0 2820.79 154.41
-5 -6 0 -0.37 1.21
5 6 0 0.32 1.51
5 -6 0 1.66 1.54
5 -6 0 2.15 1.77
5 -6 0 -4.39 3.53
5 6 0 2.02 2.5
-5 6 0 1.31 2.52
-5 -6 0 0.51 2.02
-5 -6 0 1.3 1.89
5 -7 0 561.06 33.62
5 7 0 610.97 34.27
5 -7 0 598.46 33.56
-5 -7 0 583.31 34.96
5 -7 0 632.37 38.69
-5 -7 0 600.5 37.53
-5 -7 0 606.64 36.01
-5 7 0 631.16 37.79
-5 -8 0 0.44 1.02
5 -8 0 0.28 1.18
5 8 0 0.31 0.86
5 -8 0 -0.77 1.95
-5 8 0 0.69 1.41
-5 -8 0 -0.49 1.6
-5 -8 0 -0.67 1.2
5 9 0 58.95 5.56
-5 -9 0 61.25 6.44
5 -9 0 52.58 5.29
5 -9 0 57.08 7.98
-5 -9 0 53.38 6.37
-5 9 0 65.79 7.9
5 -10 0 -0.34 1.1
5 10 0 2.01 1.24
-5 -10 0 1 1.15
-5 -10 0 0.99 1.14
-5 10 0 0.73 1.07
5 -10 0 0.84 1.22
5 11 0 13.91 2.56
5 -11 0 15.6 2.8
-5 -11 0 17.86 3.51
-5 11 0 14.52 3.68
5 11 0 13.06 2.65
-5 -11 0 15.45 3.17
5 -11 0 8.76 3.21
-5 11 0 15.76 3.74
5 12 0 0.38 1.5
-5 -12 0 -0.59 2.01
-5 12 0 -0.8 1.16
5 12 0 1.1 1.41
-5 -12 0 -2.02 1.56
5 -12 0 -1.84 2.51
-5 12 0 -0.71 2.21
5 13 0 824.31 45.29
5 13 0 748.27 45.88
-5 -13 0 767.3 47.7
-5 -13 0 827.83 46.97
-5 13 0 805.81 49.86
5 -13 0 771.32 50.86
-5 13 0 852.49 49.34
-5 -14 0 0.7 2.17
5 14 0 0.5 2.1
-5 14 0 0.87 2.19
5 14 0 -0.36 1.56
-5 -14 0 2.19 2.18
5 -14 0 -1.04 2.83
-5 14 0 2.4 2.6
5 15 0 1052.79 61.28
-5 -15 0 1148.84 65.96
-5 -15 0 1104.8 63.56
-5 15 0 1124.4 67.16
5 -15 0 1166.02 69.58
-5 15 0 1193.14 66.77
5 16 0 0.77 1.63
-5 -16 0 4.34 2.82
-5 16 0 1.96 2.26
-5 -16 0 1.19 2.04
5 -16 0 -1.21 4.12
-5 16 0 -1.8 3.2
5 17 0 472.98 29.25
-5 -17 0 435.19 33.73
-5 -17 0 450.85 31.03
-5 17 0 493.39 34.89
5 -17 0 527.88 37.81
-5 17 0 526.24 34.5
-5 -18 0 -1.11 1.61
-5 18 0 1.15 2.05
-5 -18 0 -0.72 1.96
5 -18 0 1.14 2.36
5 -18 0 1.43 2.95
-5 18 0 2.09 2.63
-5 19 0 11.35 4.36
-5 -19 0 13.84 4.07
-5 -19 0 8.82 4.73
-5 19 0 20.52 5.79
-5 20 0 -1.4 2.49
-5 -20 0 2.8 2.54
-5 -20 0 1.43 2.08
-5 20 0 1.26 3.18
-5 -21 0 11.33 5.8
-5 0 -1 -0.65 0.94
-5 0 1 0.6 1.23
5 0 1 0.74 1.7
5 0 -1 -0.64 1.47
5 0 1 1.31 1.35
-5 0 -1 -0.57 1.43
-5 0 1 0.34 1.06
5 1 1 12.15 2.23
5 -1 -1 11.99 2.12
-5 1 -1 12.91 3.25
-5 -1 1 9.6 2.84
-5 1 1 14.43 3.28
-5 -1 -1 17.79 3.76
5 1 1 11.73 3.6
5 1 -1 9.38 3.02
5 -1 1 13.46 3.59
5 -1 -1 10.96 3.11
-5 1 1 13.55 2.55
5 1 1 10.86 2.63
5 -1 1 11.82 2.58
-5 -1 -1 13.57 3.28
-5 -1 1 16.2 2.97
-5 1 -1 17.24 3.45
5 -2 -1 274.31 17.39
5 2 1 289.25 17.63
5 2 -1 295.86 19.34
-5 -2 1 283.9 20.39
-5 -2 -1 274.14 20.38
-5 2 1 292.05 20.56
5 -2 1 305.96 21.91
5 -2 -1 285.97 20.73
5 2 1 289.86 21.53
5 2 -1 277.55 20.35
5 2 1 302.64 19.47
5 -2 1 289.43 18.88
-5 -2 1 282.83 18.53
-5 2 -1 288.25 20
-5 2 1 289.36 18.24
5 -3 -1 73.56 6.26
5 -3 -1 70.71 6.02
5 3 1 70.91 5.96
-5 -3 1 75.39 6.87
5 3 -1 74.53 7.24
-5 -3 -1 69.67 8.02
-5 3 1 66.97 7.83
-5 -3 1 69.92 7.27
5 -3 1 75.72 9
5 -3 -1 62.31 7.93
5 3 1 70.59 8.72
5 3 -1 70.46 8.04
5 3 1 88.12 7.97
5 -3 1 74.58 7.06
-5 3 -1 76.47 7.94
5 -4 -1 55.89 5.37
5 -4 -1 50.93 5.02
5 4 1 55.98 4.86
-5 -4 1 56.31 5.91
5 4 -1 52.88 5.86
-5 -4 -1 54.44 6.98
-5 4 1 50.35 6.56
-5 -4 1 53.83 6.13
-5 -4 -1 54.36 6.83
5 -4 1 52.64 7.47
5 -4 -1 59.23 7.33
5 4 1 66.12 8.1
5 4 -1 56.48 7.06
5 4 1 60.67 6.64
5 -4 1 56.68 5.93
-5 4 -1 56.3 6.77
-5 -5 -1 1.17 0.84
-5 -5 1 1.74 1.18
5 5 1 0.45 0.71
5 -5 -1 0.34 0.7
5 5 -1 3.06 1.49
5 -5 -1 2.1 1.2
-5 5 1 3.1 1.56
-5 -5 1 2.68 1.38
-5 -5 -1 1.2 1.38
-5 -5 -1 1.29 1.49
5 -5 1 1.54 1.94
5 -5 -1 0.68 1.39
5 5 1 2.23 1.87
-5 5 -1 1.64 1.49
5 -5 1 2.36 1.34
5 -6 -1 152.28 11.54
5 6 1 158.27 10.5
5 -6 -1 150.4 11.22
5 6 -1 164.52 12.09
-5 -6 -1 145.18 10.74
-5 -6 1 145.97 12.13
-5 -6 -1 166.49 13.92
-5 -6 1 174.7 12.39
-5 -6 -1 173.57 13.63
-5 6 1 183.74 14.11
5 -6 1 157.15 14.45
5 -6 -1 150.06 13.74
5 6 -1 172.9 13.73
5 6 1 189.8 15.14
5 -6 1 176.87 12.12
5 -7 1 27.96 2.71
5 7 1 42.95 3.95
5 -7 1 31.48 2.73
5 7 -1 45.81 4.99
5 -7 -1 44.37 4.8
-5 -7 -1 39.2 4.28
-5 -7 1 40.83 5.32
5 -7 1 52.3 7.23
5 -7 -1 45.75 6.49
-5 -7 -1 60.62 7.12
-5 -7 1 43.36 4.99
-5 -7 -1 48.82 6.03
-5 7 1 47.41 6.23
5 -8 1 227.81 16.31
5 8 1 316.61 17.75
5 8 -1 343.86 19.47
5 -8 1 245.63 16.34
-5 -8 -1 317.97 18.79
-5 -8 1 334.21 20.47
5 -8 -1 308.04 18.97
5 -8 1 302.67 22.51
5 -8 -1 288.44 21.65
-5 -8 1 343.39 19.68
-5 -8 -1 325.95 21.72
-5 -8 -1 353.84 21.15
-5 8 1 310.02 21.2
-5 8 -1 336.45 22.28
-5 -9 1 22.89 4.11
5 9 -1 24.19 3.67
5 9 1 23.23 3.07
5 -9 1 23.39 2.75
5 -9 -1 30.11 4.11
-5 -9 -1 25.05 3.73
5 -9 -1 39.52 6.22
5 -9 1 20.86 4.73
-5 9 1 18.76 4.29
-5 -9 -1 28.16 4.49
-5 9 -1 30.65 5.55
-5 -9 1 35.48 4.44
-5 -9 -1 24.64 4.65
5 10 1 5.63 1.56
-5 -10 1 2.96 2.03
5 -10 1 2.94 1.19
5 -10 -1 2.1 1.31
5 10 -1 2.41 1.38
-5 -10 -1 4.32 1.79
-5 -10 -1 1.1 1.39
-5 10 1 4.15 2.36
-5 10 -1 4.64 2.52
-5 -10 1 2.6 1.62
5 -10 -1 2.43 1.87
5 -10 1 1.73 1.55
5 11 1 79.43 7.12
5 11 1 78.58 6.38
5 11 -1 78.44 7.37
-5 -11 -1 66.75 7.29
-5 -11 1 83.35 8.68
5 -11 -1 77.09 7.58
5 -11 1 60.72 6.14
-5 -11 1 83.35 7.61
-5 -11 -1 78.41 8.16
-5 11 1 80.99 9.17
-5 11 -1 80.99 9.51
5 -11 1 81.31 10.01
5 -11 -1 68.43 9.36
-5 11 -1 78.18 8.46
-5 11 1 85.56 9.56
5 12 1 187.36 12.13
5 12 -1 173.36 13.42
-5 -12 -1 173.06 14.09
-5 -12 1 176.73 14.92
5 12 -1 198.98 13.8
5 -12 -1 174.31 13.84
-5 -12 1 171.43 13.41
-5 -12 -1 198.21 14.81
-5 12 1 176.16 15.64
-5 12 -1 169.54 15.91
5 -12 1 192.68 17.4
5 -12 -1 192.82 17.18
-5 12 -1 187.45 15.04
-5 12 1 197.33 16.21
5 13 1 113.17 8.38
5 13 -1 115.81 9.85
5 13 -1 133.65 10.12
-5 -13 -1 100.12 10.3
-5 -13 1 98.74 10.81
-5 -13 1 113.29 9.96
-5 -13 -1 118.89 10.66
-5 13 1 116.93 11.95
-5 13 -1 106.99 11.91
5 -13 1 106.24 12.79
5 -13 -1 120.53 13.19
-5 13 -1 117.04 11.28
-5 13 1 124.45 12.26
5 14 1 48.57 4.55
5 14 -1 49.3 5.5
5 14 -1 47.24 5.75
-5 -14 -1 35 5.82
-5 -14 1 39.58 6.39
-5 14 1 46.12 7.21
-5 14 -1 51.32 7.77
-5 -14 1 38.82 5.37
-5 -14 -1 46.64 6.22
5 -14 1 29.44 6.71
5 -14 -1 41.23 7.47
-5 14 1 61.08 8.21
-5 14 -1 39.75 6.29
5 15 1 65.68 6.09
5 15 -1 67.32 6.84
5 15 -1 51.88 7.03
-5 -15 1 67.87 9.04
-5 -15 -1 58.52 8.34
-5 -15 1 70.66 7.59
-5 -15 -1 60.37 7.57
-5 15 1 80.8 9.67
-5 15 -1 70.12 9.82
5 -15 1 79.88 11.95
5 -15 1 79.5 10.88
5 -15 -1 73.25 10.61
-5 15 -1 87.49 9.46
5 -15 1 55.75 12.07
-5 15 1 61.57 9.09
5 16 -1 80.68 7.4
5 16 -1 64.52 7.88
-5 -16 -1 78.03 9.62
-5 -16 1 70.62 9.49
-5 -16 1 50.73 7.26
-5 -16 -1 74.89 8.33
-5 16 1 85.9 10.33
-5 16 -1 63.61 9.66
5 -16 1 66.09 10.8
5 -16 1 51.26 9.72
5 16 1 57.27 10.23
5 -16 -1 79.43 11.51
5 -16 1 68.24 12.68
-5 16 1 67.98 9.68
-5 16 -1 78.52 9.37
5 17 -1 126.46 10.49
5 17 -1 96.16 11.73
-5 -17 -1 127.73 14.11
-5 -17 1 122.04 14.02
-5 -17 1 120.58 12.03
-5 -17 -1 118.54 11.65
-5 17 1 144.67 14.32
-5 17 -1 138.31 15.07
5 -17 1 126.3 15.5
5 -17 -1 156.59 17.04
5 -17 1 102.62 14.58
-5 17 1 129.86 14.13
-5 17 -1 120.52 13.05
5 17 1 123.32 17.23
5 18 -1 95.86 8.76
-5 -18 -1 104.43 12.69
-5 -18 1 79.65 11.84
-5 18 -1 72.2 11.68
-5 -18 1 65.84 9.41
-5 -18 -1 72.54 9.51
-5 18 1 94.91 12.11
5 -18 1 73.05 12
5 -18 1 92.18 13.84
5 -18 -1 96.79 13.75
-5 18 1 109.49 12.93
-5 18 -1 99.63 11.35
5 18 1 50.44 12.16
-5 19 1 57.09 9.51
-5 19 -1 55.15 9.98
-5 -19 1 32.52 6.67
-5 -19 -1 42.31 7.04
-5 -19 -1 54.01 9.88
-5 -19 1 27.74 8.04
-5 19 1 70.57 10.45
-5 19 -1 55.71 8.91
-5 20 1 -1.29 3.97
-5 -20 -1 3.48 3.11
-5 -20 1 5.7 4.4
-5 20 1 8.02 4.57
-5 20 -1 2.34 3.8
-5 21 -1 214.89 21.85
5 0 2 11.46 2.12
5 0 2 13.22 3.68
5 0 -2 18.13 3.32
-5 0 -2 18.46 4.42
-5 0 2 12.77 3.42
5 0 2 13.41 4.14
5 0 -2 18.79 4.14
5 0 2 23.21 3.95
5 -1 -2 1736.79 92.74
5 1 2 1674.38 90.82
-5 -1 2 1679.42 94.93
-5 1 2 1561.55 94.44
-5 -1 -2 1748.95 95.96
-5 1 -2 1768.86 95.96
5 -1 2 1680.46 97
5 1 -2 1677.84 94.84
5 -1 -2 1735.6 95.19
-5 -1 2 1717.73 92.8
5 1 2 1725.29 97.22
5 1 2 1783.49 93.3
5 -1 2 1752.74 92.84
-5 -1 -2 1739.44 96.35
-5 1 -2 1748.41 96.03
-5 -1 2 1747.69 91.38
5 -2 2 12.04 3.61
5 -2 -2 14.89 3.17
5 2 2 3.92 1.13
5 -2 -2 14.45 2.96
-5 2 -2 4.64 2.38
-5 -2 2 4.6 2.03
-5 -2 2 1.19 1.86
-5 2 2 5.76 2.79
-5 -2 -2 5.18 2.33
5 2 -2 2.78 1.83
5 -2 2 8.84 4.31
5 -2 -2 6.62 2.72
-5 -2 2 4.38 1.93
5 2 2 7.11 3.55
5 2 2 3.23 1.83
5 -2 2 8.97 2.65
-5 -2 2 3.2 1.5
5 -3 -2 347.99 23.11
5 3 2 360.93 20.49
5 -3 -2 389.64 22.94
-5 -3 2 368.41 23.92
5 3 -2 369.74 24.3
-5 -3 2 362.47 24.79
-5 -3 -2 374.1 25.27
-5 3 2 370.47 24.66
-5 -3 2 371.77 23.19
-5 3 -2 343.33 25.09
5 -3 2 385.61 26.93
5 -3 -2 364.88 24.92
-5 -3 2 397.82 23.1
5 3 2 388.51 26.98
5 3 -2 354.7 24.26
5 3 2 420.19 23.88
5 -3 2 378.09 22.68
-5 -3 2 353.51 21.86
-5 3 -2 381.32 25.39
5 4 2 4.67 0.94
-5 -4 2 1.53 1.3
5 -4 -2 5.64 1.95
5 4 -2 4.25 1.74
5 -4 -2 2.24 1.5
-5 4 2 2.38 1.63
-5 4 -2 2.04 1.73
-5 -4 2 4.15 1.56
-5 -4 -2 -0.67 1.39
-5 -4 2 3.72 2.12
-5 -4 -2 6.45 2.31
5 -4 2 1.63 2.23
-5 -4 2 4.48 1.6
5 -4 -2 5.6 2.4
5 4 2 4.83 2.2
5 4 -2 5.98 2.17
-5 4 -2 6.42 2.73
5 4 2 6.61 2.28
5 -4 2 5.23 1.97
5 -5 -2 38.41 5.05
5 5 2 45.12 3.37
5 -5 -2 43.07 4.98
-5 -5 2 43.06 5.57
5 5 -2 44.6 5.64
-5 -5 -2 36.4 5.77
-5 -5 2 42.7 5.99
-5 -5 2 40.24 4.67
-5 -5 -2 38.5 5.9
-5 5 2 42.85 5.82
-5 5 -2 40.22 6.17
5 -5 2 46.75 7.16
5 -5 -2 42.01 6.03
-5 -5 2 47.21 5.03
5 5 2 53.08 7.42
5 5 -2 39.47 5.48
5 5 2 42.31 5.38
5 -5 2 45.55 4.65
-5 5 -2 44.72 6.31
5 -6 -2 3.37 1.58
-5 -6 -2 1.79 0.87
-5 -6 2 5.54 2.14
5 6 -2 6.21 2.33
5 -6 -2 3.34 1.48
5 6 2 3.37 1.07
-5 6 2 2.4 1.65
-5 -6 2 5.29 1.71
-5 6 -2 4.97 2.32
-5 -6 -2 4.45 2.08
-5 -6 -2 6.58 2.54
5 -6 2 9.14 2.97
5 6 -2 4.68 2.15
5 6 2 4.02 2.35
-5 -6 2 2.73 1.67
5 -6 -2 3.95 1.93
-5 6 -2 7.76 2.59
5 -6 2 3.83 1.48
-5 -7 -2 231.68 16
5 -7 -2 281.25 18.22
5 7 -2 282.35 18.7
-5 -7 2 259.31 19.04
-5 -7 2 264.47 17.29
-5 -7 -2 268.58 19.85
-5 -7 -2 275.43 19.61
-5 7 2 260.1 19.23
5 -7 2 274.97 21.37
5 -7 -2 294.08 20.48
-5 -7 2 295.41 18.08
5 -7 2 285.54 17.35
5 -8 -2 0.45 1.47
-5 -8 2 -2.44 2.17
5 8 -2 0.97 1.5
-5 -8 -2 -0.85 1.59
-5 8 2 -0.62 1.8
-5 -8 -2 1.22 2.43
-5 -8 -2 1.35 2.2
-5 -8 2 -1.43 2.18
-5 -8 2 2.05 1.84
5 -8 2 0.86 1.77
5 -8 2 0.66 1.77
5 9 -2 1792.12 94.78
-5 -9 -2 1507.17 92.51
5 9 2 1743.61 91.69
-5 -9 2 1722.32 96.18
5 -9 -2 1701.98 94.67
-5 -9 2 1730.16 93.36
-5 -9 -2 1763.8 96.88
-5 -9 -2 1771.04 95.97
-5 9 2 1804.8 96.37
5 -9 2 1856.99 99.3
5 -9 -2 1711.47 97.21
-5 -9 2 1884.35 94.31
5 -9 2 1690.05 93.37
5 -10 2 1.86 0.93
-5 -10 2 4.03 2.5
5 10 -2 3.87 1.99
5 -10 2 0.39 0.91
-5 -10 -2 4.1 1.8
-5 10 2 1.3 2.12
-5 -10 -2 7.28 2.79
5 10 2 1.42 1.24
-5 -10 2 3.36 1.92
-5 -10 2 6.48 2.36
5 -10 -2 5.56 3.17
5 -10 2 10.83 3.83
5 11 2 727.31 39.33
5 11 -2 771.43 42.83
-5 -11 -2 607.74 41.35
-5 -11 2 733.35 44.89
-5 -11 2 725.25 41.69
-5 -11 -2 763.07 43.99
-5 11 2 732.44 44.31
5 -11 2 700.2 46.45
5 -11 -2 731.3 46.08
5 -11 2 802.58 53.17
-5 11 2 832.13 46.61
5 -11 2 686.92 56.22
-5 -12 2 2.26 2.19
5 12 -2 0.49 1.24
5 12 2 -0.33 0.98
-5 -12 -2 1.93 1.72
-5 -12 -2 0.61 1.67
-5 12 2 1.39 1.43
-5 12 -2 -0.87 2.19
5 12 -2 2.12 1.73
-5 -12 2 -0.41 1.42
5 -12 2 4.43 4.56
5 12 2 1.41 4.58
5 -12 -2 0.89 2.24
5 -12 2 0.97 2.23
-5 12 -2 1.13 2.17
-5 12 2 0.86 2.65
5 -12 2 -2.05 5.96
5 13 -2 298.14 20.55
-5 -13 -2 286.71 20.66
5 13 -2 307.24 20.62
-5 -13 2 309.77 22.98
-5 -13 2 285.28 19.85
-5 -13 -2 302.83 21.51
-5 13 2 355.12 23.12
-5 13 -2 305.52 23.96
5 -13 2 308.37 24.52
5 -13 -2 293.26 24
5 -13 2 261.33 26.42
5 13 2 286.31 26.97
-5 13 -2 298.69 21.09
-5 13 2 327.95 23.88
5 13 2 322.75 31.74
5 -13 2 265.68 29.17
5 14 -2 1.05 1.44
-5 -14 -2 1.87 1.81
-5 -14 2 0.83 2.28
-5 14 2 2.28 1.92
-5 14 -2 1.93 2.22
5 14 -2 2.1 2.1
-5 -14 2 0.5 1.27
-5 -14 -2 3.15 1.84
5 -14 2 1.45 3.94
5 -14 -2 1.02 2.1
5 14 2 1.9 3.91
-5 14 -2 2.54 2.36
-5 14 2 1.87 2.55
5 -14 2 -1.88 4.34
5 15 -2 9.73 2.81
-5 -15 -2 7.13 2.68
-5 -15 2 11.59 3.58
-5 15 2 6.41 3
-5 15 -2 7.16 3.19
5 15 -2 9.97 2.68
-5 -15 2 7.56 2.78
-5 -15 -2 8.39 3
5 -15 2 5.68 4.16
5 15 2 8.01 4.58
5 -15 -2 6.63 3.44
5 -15 2 5.44 4.59
5 15 2 9.1 4.98
-5 15 2 8.92 3.56
-5 15 -2 8.2 2.93
5 16 -2 3.43 1.96
5 -16 2 8.66 5.35
-5 -16 -2 2.47 2.4
-5 -16 2 3.85 2.43
-5 16 2 3.42 2.5
-5 16 -2 1.09 2.76
5 16 -2 2.11 1.81
-5 -16 2 2.72 2.21
-5 -16 -2 4.04 2.41
5 -16 2 1.41 3.25
5 16 2 1.3 2.68
5 -16 -2 2.41 2.78
5 16 2 1.75 3.61
-5 16 2 1.05 2.16
-5 16 -2 6.58 2.92
5 17 -2 225.35 16.94
5 17 -2 208.51 17.61
-5 -17 2 227.84 20.9
-5 -17 -2 267.03 18.98
-5 17 2 230.39 20.08
-5 17 -2 236.54 22
5 -17 -2 246.45 23.14
5 -17 2 192.83 21.94
5 17 2 194.28 23.37
-5 17 2 289.71 22.54
-5 17 -2 241.65 19.19
5 18 2 1.6 3.29
-5 -18 2 -1.16 2.92
5 18 -2 1.43 2.08
-5 18 2 -2.96 2.49
-5 18 -2 6.45 4.2
5 18 -2 1.11 2.28
-5 -18 -2 0.72 2.67
5 -18 2 4.06 3.41
5 -18 -2 -1.46 3.36
5 18 2 0.9 3.22
-5 18 2 -1.19 3.47
-5 18 -2 -0.86 3.66
-5 -19 -2 611.13 39.32
-5 19 2 566.59 41.78
5 19 -2 670.46 37.92
5 19 -2 467.02 39.18
-5 -19 2 643.26 44.69
-5 19 2 785.86 46.2
5 19 2 542.57 39.68
-5 20 2 10.63 4.39
-5 -20 2 1.44 3.64
5 20 2 3.28 2.81
-5 21 2 301.21 27.75
5 0 3 -0.56 2.23
5 0 -3 0.83 1.28
-5 0 -3 2.69 1.83
-5 0 3 0.57 0.82
5 0 3 0.84 1.73
5 0 -3 2.13 1.65
5 0 3 0.86 1.07
-5 0 -3 -0.76 1.36
5 -1 -3 37.31 4.93
5 1 3 37.97 5.5
5 -1 3 30.57 2.57
5 -1 3 42.74 5.94
5 1 -3 39.04 4.62
5 -1 -3 36.51 4.63
5 -1 3 27.82 2.55
-5 1 -3 29.07 5.23
-5 1 3 34.31 5.02
-5 -1 -3 47.07 6.21
-5 -1 3 35.65 4.22
-5 -1 3 31.63 4.91
5 1 -3 35.74 5.02
5 -1 3 31.21 5.9
5 -1 -3 40.31 5.34
5 1 3 42.24 6.63
5 1 3 39.7 4.23
5 -1 3 44.05 4.2
-5 -1 -3 32.04 5.9
-5 1 -3 34.31 5.71
5 -2 -3 85.36 8.33
5 -2 3 82.12 6.15
5 2 -3 83.82 7.76
5 -2 -3 83.24 7.77
5 2 3 100.87 9.41
5 -2 3 104.04 9.7
-5 -2 3 77 8.47
-5 2 3 84.2 8.51
-5 -2 -3 92.98 9.45
-5 -2 3 89.5 7.25
-5 2 -3 81.08 9.07
5 -2 3 98.29 10.67
5 -2 -3 80.28 8.43
5 2 3 88.55 10.42
5 2 -3 90.56 8.42
5 2 3 98.39 7.59
5 -2 3 77.92 6.67
-5 2 -3 88.91 9.79
5 -3 3 2.59 1.33
-5 -3 3 2.95 1.72
5 3 3 -0.52 2.01
5 -3 -3 0.52 0.94
5 3 -3 3.72 1.69
5 -3 3 1.92 1.86
5 -3 -3 1.32 1.36
-5 3 -3 1.39 1.24
-5 -3 3 1.76 0.91
-5 -3 3 0.6 1.51
-5 3 3 0.55 1.27
-5 -3 -3 1.96 1.9
5 -3 3 -1.72 1.53
5 -3 -3 2.27 1.76
5 3 3 2.58 2.17
5 3 -3 2.4 1.71
5 3 3 1.05 1.4
5 -3 3 1.48 1.11
-5 3 -3 2.93 2.27
5 -4 3 6.36 1.94
-5 -4 3 1.82 1.56
5 4 3 7.28 2.53
5 -4 -3 7 2.24
5 4 -3 6.12 2.38
5 -4 -3 6.81 2.11
-5 4 -3 9.14 2.82
-5 -4 3 5.32 1.5
-5 -4 -3 3.6 2.24
-5 -4 3 6.7 2.52
-5 -4 -3 2.62 1.81
-5 4 3 6.07 2.15
5 -4 3 12.19 3.49
5 -4 -3 6.41 2.27
5 4 3 7.75 3.09
-5 -4 3 6.61 1.71
5 4 -3 7.46 2.32
-5 4 -3 8.75 3.02
5 -4 3 6.6 6.8
5 4 3 7.17 2.11
-5 -4 3 4.64 1.06
5 -4 3 7.59 1.7
5 -5 -3 0.95 1.09
5 -5 3 -0.5 1.62
-5 -5 3 1.88 1.71
5 5 3 -0.35 1.4
5 -5 -3 0.56 0.99
5 5 -3 2.43 1.77
-5 -5 3 -0.27 0.89
-5 5 -3 0.72 1.48
-5 -5 -3 2.85 2.2
-5 -5 -3 1.31 1.35
-5 5 3 -1.12 1.15
5 -5 3 -2.15 3.84
5 5 3 -2.04 5.57
5 -5 3 -0.88 1.8
-5 -5 3 -0.31 0.91
5 5 -3 0.9 1.13
5 5 3 2.59 2.51
5 -5 -3 -0.6 1.07
5 -5 3 0.74 1.17
-5 5 -3 2.97 2.42
5 -5 3 3.01 5.36
5 5 3 0.8 1.36
5 -6 -3 71.36 7.92
5 -6 3 62.27 7.14
-5 -6 3 79.75 8.63
5 6 -3 85.79 8.54
-5 -6 3 74.12 6.25
-5 -6 -3 75.45 8.56
-5 6 3 83.43 8.3
-5 -6 -3 76.66 8.8
-5 6 -3 73.61 8.82
5 -6 3 61.96 8.92
5 -6 3 71.69 14.31
5 6 3 108.34 16.62
5 -6 -3 79.21 8.5
-5 -6 3 84.61 6.84
5 6 3 93.71 18.38
5 -6 3 75.17 6.28
-5 6 -3 85.43 9.64
5 -6 3 74.95 16.89
5 -7 3 153.29 13.23
5 7 -3 181.27 14.49
-5 -7 3 178.64 14.93
-5 -7 3 176.42 12.11
-5 -7 -3 216.18 15.79
-5 -7 -3 203.99 15.61
-5 7 3 182.71 14.43
-5 7 -3 179.49 15.65
5 -7 3 212.23 17.56
5 -7 -3 170.14 14.73
-5 -7 3 145.68 13.75
-5 -7 3 198.98 12.76
5 -7 3 162.43 21.72
5 7 3 214.72 23.41
5 -7 3 156.72 24.42
5 -7 3 195.23 12.42
-5 7 -3 200.33 16.3
5 7 3 212.13 27.77
5 8 3 106.06 6.58
5 -8 3 88.43 9.1
5 8 -3 121.38 10.66
-5 -8 3 123.12 11.54
5 8 3 100.85 7.03
-5 -8 3 116.22 8.5
-5 -8 -3 123.98 11.37
-5 -8 -3 138.33 11.63
-5 8 3 121.64 10.74
-5 8 -3 123.26 12.03
5 -8 3 132.02 13.14
5 -8 3 101.73 16.48
5 -8 -3 124.63 11.48
-5 -8 3 104.58 9.67
-5 -8 3 133.57 9.15
5 8 3 127.2 17.5
5 -8 3 120.96 20.37
5 -8 3 116.37 8.48
5 8 3 158.58 21.8
5 -9 3 45.62 5.78
5 9 -3 47.93 6.2
-5 -9 3 49.58 6.99
-5 -9 3 49.94 5.04
-5 -9 -3 45.43 6.57
-5 -9 -3 52.97 6.89
-5 9 3 62.76 7.09
-5 9 -3 46.16 7.19
5 -9 3 60.11 8.56
5 -9 3 47.09 10.95
5 9 3 56.73 10.92
5 -9 -3 61.37 7.77
-5 -9 3 56.01 5.45
5 9 3 44.39 12.55
5 -9 3 68.21 14.77
5 -9 3 49.56 5.12
-5 -10 3 3.03 1.75
5 10 -3 0.56 1.16
-5 10 3 1.82 1.65
-5 -10 -3 3.27 1.9
-5 10 -3 -0.83 1.49
-5 -10 3 1.98 1.27
-5 -10 -3 0.68 1.57
5 -10 3 1.71 3.93
5 10 3 1.63 4.74
5 -10 -3 2.31 1.94
5 10 3 4.47 4.6
5 -10 3 -2.25 5.19
-5 -11 3 23.01 4.97
5 11 -3 25.24 4.28
-5 11 3 27.37 4.84
-5 -11 -3 28.08 4.84
-5 11 -3 18.19 4.69
-5 -11 3 16.24 3.23
5 -11 3 26.71 7.77
5 11 3 7.94 5.54
5 -11 -3 30.23 5.63
5 11 3 32.25 9.46
5 -11 3 34.7 10.05
5 12 -3 68.87 7.57
-5 -12 3 70.54 8.98
5 12 -3 81.05 8.27
-5 -12 3 70.22 7.11
-5 -12 -3 87.87 8.92
-5 12 3 69.91 8.22
5 -12 3 72.22 12.38
5 12 3 43.54 10.88
5 -12 -3 60.12 9.04
5 12 3 80.86 14.62
-5 12 3 67.57 9.42
5 -12 3 66.94 14.1
-5 -13 3 30.29 5.77
5 -13 3 26.27 8.95
5 13 -3 36.22 5.16
-5 -13 -3 21.27 4.57
-5 13 3 25.94 4.82
5 13 -3 32.05 5
-5 -13 3 23.5 4.49
5 -13 3 17.79 6.82
5 13 3 36.64 8.73
5 -13 -3 33.67 6.41
5 13 3 26.03 8.38
-5 13 3 37.53 6.73
-5 -14 3 3.73 2.56
5 14 -3 6.92 2.54
5 -14 3 9.78 6.05
-5 14 3 8.33 2.79
5 14 -3 7.27 2.88
-5 -14 -3 3.38 2.11
5 -14 3 11.23 5.73
5 14 3 8.96 5.11
5 -14 -3 5.07 2.97
-5 14 3 8 3.43
5 14 3 7.75 4.9
-5 -15 3 61.42 9.14
5 15 3 54.29 12.17
5 -15 3 56.74 12.44
5 15 -3 64.81 7.54
5 15 -3 53.97 7.12
-5 -15 -3 71.29 8.31
-5 15 3 64.87 8.29
5 -15 3 67.72 11.92
5 15 3 43.78 10.6
5 -15 -3 63.48 9.92
5 -15 3 68.87 10.28
-5 15 3 76.75 10.16
5 15 3 68.89 8.6
-5 -16 3 35.6 6.97
5 16 -3 32.91 5.48
5 16 3 32.51 9.65
5 -16 3 18.29 8.41
-5 16 3 39.26 6.54
-5 16 -3 35.47 7.48
5 16 -3 37.49 5.55
-5 -16 -3 40.84 6.2
5 -16 3 33.85 9
5 16 3 20.05 6.67
-5 -16 3 38.75 12.35
5 -16 -3 43.17 8.3
5 -16 3 32.84 7.52
5 16 3 31.94 6.06
-5 -16 3 45.6 10.15
-5 16 3 29.87 8.39
-5 16 3 51.39 8.57
5 17 -3 262.31 18.94
5 17 -3 245.19 19.19
-5 -17 3 260.46 22.8
-5 -17 -3 274.56 20.34
-5 17 3 284.73 21.16
-5 17 -3 253.84 23.56
5 -17 3 289.68 24.88
5 -17 -3 261.26 24.68
-5 17 3 188.4 26.66
5 -17 3 214.93 23.96
-5 -17 3 227.05 25.43
5 17 3 172.91 23.59
-5 17 3 304.78 24.18
5 17 3 252.66 19.81
5 18 -3 34.62 5.86
5 18 3 16.87 7.29
-5 -18 3 26.72 6.15
-5 18 3 38.78 6.5
5 18 -3 22.66 4.58
5 -18 3 30.32 7.56
-5 18 3 23.03 8.99
5 -18 -3 17.33 6.28
5 18 3 24.25 5.27
-5 -18 3 21.98 7.18
-5 18 3 37.93 8.03
-5 19 3 60.38 9.86
5 19 -3 76.08 8.61
5 19 -3 64.36 8.75
-5 -19 3 71.63 11.56
5 19 3 66.79 8.74
5 20 -3 14.45 3.72
5 20 3 6.76 2.99
5 0 -4 26.24 4.58
5 0 4 21.64 5.2
-5 0 -4 34.79 5.46
-5 0 4 25.65 3.22
-5 0 4 23.37 4.2
5 0 4 17.22 13.38
5 0 -4 28.34 4.39
5 0 4 33.19 6.17
5 0 4 36.74 3.19
-5 0 -4 26.32 5.73
5 0 4 30.81 16.85
5 1 4 151.68 11.9
5 -1 -4 139.85 11.84
5 -1 4 85.15 12.32
-5 -1 4 137.34 11.46
-5 1 4 134.11 11.22
-5 -1 4 128.49 8.75
-5 -1 -4 131.22 12.04
-5 1 -4 135.36 12.19
5 -1 -4 113.41 10.37
5 -1 4 180.91 31.65
5 1 4 129.28 25.69
5 1 4 144.67 13.78
5 -1 4 143.37 13.8
5 1 -4 112.45 10.13
5 -1 4 167.17 33.26
5 1 4 136.77 8.72
-5 -1 -4 119.94 12.79
5 -1 4 126.6 8.25
-5 1 -4 148.55 13.61
5 1 4 104.89 27.29
5 2 4 -1.53 3.54
5 -2 -4 6.74 2.53
5 2 -4 5.64 3.25
5 -2 4 1.13 3.09
-5 -2 -4 6.8 2.63
-5 2 -4 3.52 2.3
-5 -2 4 4.47 1.82
-5 2 4 2.67 1.84
5 -2 4 2.69 2.27
5 2 4 -6.21 11.97
5 -2 -4 4.05 1.74
5 2 4 7.29 3.64
5 2 -4 2.93 1.89
5 -2 4 3.17 1.21
5 -2 4 12.96 8.89
5 2 4 5.4 1.76
-5 2 -4 8.3 3.32
5 -3 4 631.08 44.87
5 3 4 700.62 39.02
5 -3 -4 673.79 42.22
5 3 -4 712.95 43.07
-5 -3 4 666.9 37.96
-5 3 4 672.94 41.22
-5 -3 -4 710.22 42.73
-5 3 -4 652.04 42.64
5 -3 -4 629.36 40.86
-5 -3 4 687.64 44.9
5 3 4 722.17 45.23
5 3 -4 701.88 40.25
5 3 4 719.23 59.62
5 -3 4 761.43 45.48
5 -3 4 839.01 70.91
5 3 4 713.56 38.9
5 -3 4 734.11 37.8
-5 3 -4 727.76 44.45
-5 -4 4 14.15 4.42
5 -4 4 9.51 1.55
5 -4 -4 14.68 3.84
5 4 -4 20.64 4.8
5 4 4 16.4 2.95
-5 4 -4 13.01 3.78
-5 -4 4 14.48 3.07
-5 4 4 11.62 3.38
-5 -4 -4 13.11 3.94
5 -4 4 19.14 5.43
5 4 4 -2.45 13.35
5 -4 -4 11.38 3.37
-5 -4 4 22.14 6.36
5 4 -4 17.54 3.71
5 4 4 18.33 5.7
-5 4 -4 13.95 4.68
5 -4 4 14.37 2.66
5 4 4 13.51 15.57
5 -4 4 23.68 13.51
5 4 4 12.95 2.84
5 5 4 1546.79 95.2
5 -5 -4 1922.32 101.82
5 -5 4 1708.23 96.17
-5 -5 4 2039.34 102.77
5 5 -4 2044.56 102.19
-5 -5 4 1940.07 96.57
-5 5 4 2043.65 100.46
-5 -5 -4 2055.94 102.1
-5 5 -4 1958.57 102.59
5 -5 -4 1813.24 100.24
-5 -5 4 1869.62 102.18
5 5 4 2024.89 104.72
5 -5 4 2187.66 122.37
5 5 4 2095.06 119.57
5 5 4 2250.33 129.37
5 -5 4 1983.11 127.01
5 5 4 1971.75 98.27
5 -5 4 2018.96 96.68
-5 5 -4 2081.58 104.07
-5 -6 4 14.17 3.62
5 -6 4 6.42 1.96
5 -6 -4 12.88 4.15
5 6 -4 10.85 3.37
-5 6 -4 8.34 3.51
-5 -6 4 6.11 1.95
-5 -6 -4 11.9 3.49
-5 6 4 7.35 3.08
5 -6 -4 4.18 2.84
5 -6 4 -6.72 9.52
5 6 4 8.46 8.15
-5 -6 4 8.56 3.41
-5 6 -4 8.47 4.95
5 6 4 2.83 8.25
5 6 4 5.98 2.32
5 -6 4 -2.87 13.21
5 -7 4 418.15 27.49
5 7 -4 511.33 31.28
-5 -7 4 520.17 32.29
-5 -7 4 492.94 26.88
-5 -7 -4 467.96 30.8
-5 7 4 502.85 29.89
-5 7 -4 464.97 31.77
5 -7 -4 431.87 30.07
-5 -7 4 424.36 29.76
5 -7 4 438.95 41.29
5 7 4 499.28 42.11
5 7 4 476.2 45.31
5 -7 4 541.05 48.7
-5 7 -4 538.55 33.58
-5 -8 4 0.79 2
5 8 -4 4.57 2.34
5 -8 4 -2.55 6.96
-5 8 -4 2.43 2.37
-5 -8 4 2.65 1.5
-5 -8 -4 6.64 2.74
-5 8 4 4.83 2.15
5 -8 4 -2.03 6.26
5 8 4 5.78 6.27
5 -8 -4 9.3 3.07
-5 -8 4 3.09 1.92
5 8 4 12.58 7.33
-5 8 -4 6.6 3.07
5 -9 4 105.39 17.99
5 9 -4 92.97 9.59
-5 -9 4 115.22 11.58
-5 -9 4 88.9 7.79
-5 -9 -4 88.17 9.65
-5 9 4 105.78 9.48
-5 9 -4 105.45 11.16
5 -9 4 80.4 14.83
5 9 4 74.58 14.19
5 -9 -4 100.21 10.3
5 9 4 84.36 16.45
-5 -10 4 18.68 4.55
5 10 -4 17.16 3.87
5 10 4 39.31 10.95
5 -10 4 7.08 6.03
-5 10 4 18.64 3.75
-5 -10 -4 18.07 4.09
-5 10 -4 22.4 5.03
-5 -10 -4 24.25 4.54
5 -10 4 9.56 5.98
5 10 4 26.97 8.12
5 -10 -4 15.72 4.32
5 -10 4 14.95 4.57
-5 -11 4 33.57 6.05
5 11 -4 35.6 5.53
5 11 4 44.65 11.61
5 -11 4 31.88 9.8
-5 -11 -4 30.01 5.34
-5 11 -4 33.13 6.2
-5 11 4 36.08 5.2
5 -11 4 31.8 9.38
5 11 4 17.57 7.2
5 -11 -4 26.33 5.51
5 -11 4 36.74 7
5 11 4 29.96 4.97
-5 -12 4 2.76 3.28
5 12 -4 -0.63 1.45
5 12 4 -2.16 5.88
5 -12 4 2.21 4.55
-5 12 4 -0.59 1.35
-5 -12 -4 0.7 1.61
-5 12 -4 -0.94 1.36
5 12 -4 -0.67 2.4
5 -12 4 1.83 5.66
5 12 4 1.72 4.68
5 -12 4 2.1 1.87
5 -12 -4 -0.86 1.97
5 12 4 0.56 2.57
-5 12 4 4 4.61
5 13 -4 679.15 39.92
5 13 -4 683.58 40.32
-5 -13 4 699.25 43.22
-5 -13 -4 665.05 40.54
-5 13 4 683.62 39.82
-5 13 -4 614.15 42.61
5 -13 4 703.57 44.59
5 -13 -4 621.41 42.31
-5 -13 4 579.19 56.15
5 -13 4 555.9 48.03
5 13 4 548.75 46.87
-5 -13 4 552.26 49.3
-5 13 4 593.32 49.7
5 13 4 621.62 51.28
5 -13 4 576.27 51.04
-5 13 4 736.96 44.22
5 13 4 596.44 38.89
-5 -14 4 17.19 5.16
5 14 -4 19.21 4.25
5 14 4 8.18 6.37
5 -14 4 8.38 5.35
-5 14 4 16.96 3.8
-5 14 -4 10.41 4.36
5 14 -4 21.6 4.58
-5 -14 -4 17.8 4.59
5 -14 4 17.53 7.04
5 14 4 14.81 6.83
5 -14 4 18.09 5.52
-5 -14 4 22.09 9.03
-5 14 4 5.17 4.68
5 -14 -4 15.91 5.18
5 14 4 15.01 4.13
-5 -14 4 26.9 8.66
-5 14 4 11.35 6.51
-5 14 4 27.84 6.48
5 15 -4 800.21 45.62
5 15 -4 792.79 45.35
-5 -15 4 813.39 49.59
-5 -15 -4 785.22 45.9
-5 15 4 827.71 45.71
-5 15 -4 726.16 49.14
5 -15 4 823.81 50.93
5 -15 -4 720.06 49.06
-5 -15 4 737.03 62.07
-5 15 4 581.2 58.29
5 -15 4 619.52 52.62
5 15 4 649.88 52.5
-5 -15 4 722.19 55.76
-5 15 4 650.08 54.01
5 15 4 646.09 54.85
-5 15 4 854.89 50.23
5 -15 4 532.3 53.38
5 15 4 676.42 43.83
-5 -16 4 2.28 3.32
5 16 -4 6.74 2.69
5 16 4 1.94 5.64
-5 16 4 4.16 2.48
5 16 -4 4.7 2.85
-5 -16 -4 2.96 2.64
5 -16 4 9.9 5.1
5 -16 4 -1.24 3.62
-5 -16 4 -2.58 5.32
-5 16 4 16.9 8.25
5 -16 -4 1.19 3.46
5 16 4 -1.13 2.92
-5 -16 4 3.62 4.17
-5 16 4 17.72 6.32
-5 16 4 2.34 3.41
5 17 -4 388.96 24.64
5 17 -4 355.02 24.34
-5 -17 4 417.51 30.27
-5 17 4 336.98 24.63
5 -17 -4 330.28 29.77
-5 17 4 303.27 34
5 -17 4 271.18 29.11
-5 -17 4 284.51 30.23
5 17 4 280.96 30.87
5 17 4 311.29 22.96
5 18 -4 2.83 2.19
5 18 4 8.99 4.9
5 18 -4 5.46 2.54
5 -18 4 3.03 3.49
5 18 4 2.94 2.19
5 19 -4 6.3 2.62
5 19 4 6.13 2.55
5 0 -5 0.68 1.41
-5 0 -5 0.69 1.42
5 0 5 -0.29 1.11
-5 0 5 0.22 0.39
5 0 -5 -0.4 1.01
5 0 5 4.59 8.18
-5 0 5 -1.22 2.18
-5 0 -5 -0.93 2.35
5 1 -5 3.33 2.06
5 -1 -5 1.39 1.25
5 -1 5 5.17 7.52
5 1 5 10.6 10.92
-5 -1 -5 2.75 2.01
-5 1 -5 2.81 2.17
-5 1 5 2.58 0.85
5 -1 5 3.62 1.63
5 1 -5 2.54 1.45
5 -1 5 4.58 10.55
5 1 5 3.9 8.97
5 -1 -5 5.59 1.83
-5 -1 5 6.63 3.94
-5 1 5 2.75 3.47
5 1 5 5.76 3.13
-5 -1 -5 9.52 4.16
-5 1 -5 4.6 3
5 -2 -5 203.5 16.2
5 -2 5 199.79 14.52
5 -2 5 191.65 33.97
5 2 -5 219.96 17.02
-5 2 5 215.05 14.95
-5 -2 -5 219.98 16.39
-5 2 5 163.46 11.54
-5 2 -5 194.85 16.01
5 -2 -5 184.72 14
5 2 5 219.89 31.41
-5 -2 5 194.96 18.11
-5 2 5 202.71 21.61
5 2 5 218.6 18.4
5 2 -5 193.65 13.14
-5 -2 -5 213.31 18.38
-5 2 -5 239.48 18.58
5 -3 -5 246.96 18.52
5 -3 5 225.64 17.31
5 -3 5 270.72 37.59
5 3 -5 271.01 19.22
-5 3 5 249.35 16.82
-5 -3 -5 240.45 17.97
-5 3 -5 231.52 18.05
-5 -3 -5 245.91 18.97
5 -3 -5 220.41 16.16
-5 -3 5 262.02 20.28
5 3 5 268.42 20.8
5 3 5 257.35 32.57
5 3 5 202.25 13.02
-5 3 -5 237.77 19.65
-5 -4 5 42.01 6.57
5 -4 -5 40.35 6.4
5 4 5 49.48 15.15
5 -4 5 35.31 14.69
5 4 -5 48.65 6.83
-5 4 -5 36.93 6.02
-5 -4 -5 51.34 7.23
-5 4 5 42.74 5.42
-5 -4 -5 43.91 6.14
5 -4 5 47.78 14.9
5 4 5 57.28 14.47
5 -4 -5 42.99 5.49
-5 -4 5 43.19 7.02
5 4 5 20.28 5.31
-5 4 5 42.66 12.41
-5 4 -5 50.69 7.58
5 4 5 39.14 4.1
-5 -5 5 1.65 1.7
5 -5 -5 2.25 1.89
5 5 5 12.86 7.4
5 -5 5 12.97 8.18
5 5 -5 6.05 2.58
-5 5 -5 0.76 1.74
-5 -5 -5 -0.79 1.64
-5 5 5 -0.49 1.14
-5 -5 -5 1.96 1.5
5 -5 5 -0.96 2.43
5 -5 5 10.84 7.89
5 5 5 2.51 6.33
-5 -5 5 1.56 2.27
-5 5 5 2.54 5.23
5 -5 -5 3.18 1.64
-5 5 -5 -0.91 2.1
5 5 5 -0.36 1.78
5 -6 -5 107.33 11.22
5 6 5 83.57 18.46
5 -6 5 72.7 17.36
5 6 -5 133.48 11.94
-5 -6 5 120.43 11.88
-5 6 5 123.02 9.82
-5 -6 -5 114.8 10.83
-5 -6 -5 134.08 11.99
-5 6 -5 113.5 11.39
5 -6 5 135.83 13.34
5 -6 5 116.26 20.21
5 6 5 112.65 19.18
5 -6 -5 97.3 9.6
-5 -6 5 98.58 10.57
-5 6 5 123.68 22.4
-5 -6 5 124.01 21.22
-5 6 5 131.61 21.86
5 6 5 56.5 8.04
-5 6 -5 115.91 12.42
-5 -7 5 6.9 3.35
5 7 -5 9.68 3.09
5 -7 -5 11.11 3.49
5 7 5 -2.81 8.2
5 -7 5 17.16 9.32
-5 7 -5 10.5 3.35
-5 -7 -5 9.04 3.13
-5 -7 -5 7.17 2.72
-5 7 5 10.31 2.61
5 -7 -5 7.76 2.71
5 -7 5 18.99 8.82
5 7 5 13.41 7.98
5 -7 5 14.9 4.36
-5 -7 5 10.81 3.43
-5 7 5 3.16 6.52
-5 7 -5 8.55 3.68
5 7 5 2.69 2.16
-5 -7 5 2.65 5.47
-5 7 5 10.52 7.67
5 8 -5 269.23 18.98
-5 -8 5 255.36 19.9
-5 -8 -5 239 17.95
-5 8 5 261.33 16.94
-5 8 -5 238.86 19.21
5 -8 5 270.44 21.35
5 -8 -5 225.64 17.54
-5 -8 5 325.14 38.74
-5 8 5 79.68 20.39
5 -8 5 190.66 25.83
5 8 5 200.38 25.56
-5 -8 5 271.72 30.57
-5 8 5 234.71 29.04
5 8 5 203.1 27.91
5 -8 5 232.01 29.62
5 8 5 202 16.03
-5 8 -5 284.91 21.42
-5 -9 5 4.54 2.65
5 9 -5 0.71 1.64
5 9 5 5.13 5.9
5 -9 5 5.26 6.05
-5 9 -5 3.44 2.17
-5 -9 -5 5.93 2.45
-5 9 5 4.42 1.9
5 -9 5 2.18 4.49
5 9 5 -2.06 4.75
5 -9 5 3.08 2.12
5 -9 -5 0.68 1.57
-5 9 5 2.24 3.26
-5 -9 5 6.99 7.19
-5 9 5 6.53 6.72
5 9 5 5.85 2.86
-5 -9 5 12.07 6.58
-5 9 5 4.78 6.52
-5 -10 5 8.44 3.21
5 10 -5 3.51 1.92
5 10 5 -2.47 5.7
5 -10 5 -2.54 4.54
-5 10 -5 5.31 2.89
-5 -10 -5 4.59 2.35
-5 10 5 3.49 1.63
5 -10 5 2.11 3.77
5 10 5 2 4.6
5 -10 5 5.23 3.05
5 -10 -5 5.79 2.36
-5 10 5 2.04 2.97
-5 -10 5 3.36 6.92
-5 10 5 9.43 6.47
5 10 5 2.74 2.11
-5 -10 5 -2.33 4.16
-5 10 5 4.61 4.75
5 11 5 122.41 20.57
5 -11 5 118.18 20.87
5 11 -5 157.72 13.57
-5 -11 5 158.26 15.15
-5 11 5 178.88 12.61
-5 11 -5 152.79 14.98
5 -11 5 167.08 16.08
5 -11 5 125.1 19.2
5 11 5 122.04 18.94
5 -11 -5 144.27 13.92
-5 11 5 119.62 18.83
-5 -11 5 77.96 20.36
-5 11 5 167.09 25.75
-5 -11 5 128.61 20.32
-5 11 5 135.93 20.36
5 11 5 138.72 11.72
5 -12 5 119.29 20.02
5 12 -5 135.82 12.36
-5 -12 5 126.18 13.88
5 12 -5 141.7 12.81
-5 12 5 143.77 11.48
-5 12 -5 112.71 13.25
5 -12 5 151.11 15.47
5 -12 5 119.07 18.47
5 12 5 91.61 16.68
5 -12 -5 145.68 13.8
-5 -12 5 109.92 22
-5 12 5 101.17 16.53
-5 12 5 99.97 20.95
5 12 5 170.26 22.75
-5 -12 5 124.95 19.65
-5 12 5 118.84 18.75
5 12 5 128.17 11.16
5 13 -5 232.14 18.5
5 13 -5 229.77 18.52
-5 -13 5 279.77 21.9
-5 13 5 265.73 17.89
-5 13 -5 266.25 21.72
5 -13 5 288.8 22.85
-5 13 5 176.31 23.65
5 -13 -5 242.98 20.44
-5 -13 5 228.16 31.25
-5 13 5 199.21 29.26
5 -13 5 226.74 26.32
5 13 5 193.17 24.17
-5 -13 5 248.61 27.75
-5 13 5 248.64 28.21
5 13 5 251.69 28.97
5 -13 5 219.9 27.77
5 13 5 218.35 17
-5 -14 5 38.33 7.56
5 14 -5 35.08 5.79
5 14 5 50.68 11.95
5 -14 5 51.64 12.17
-5 14 -5 38.47 7.55
5 14 -5 41.41 6.48
5 14 5 27.88 8.82
5 -14 5 53.96 11.81
5 -14 5 46.83 8.23
-5 -14 5 41.23 12.28
-5 14 5 35.75 11.49
-5 14 5 17.06 7.7
5 -14 -5 32.33 7.18
5 14 5 36.13 5.6
-5 -14 5 41.2 10.57
-5 14 5 42.28 10.54
-5 -15 5 55.01 9.19
5 15 -5 46.6 6.76
5 15 5 17.1 9.08
5 15 -5 50.26 7.09
5 -15 5 34.74 10.72
5 15 5 30.21 9.73
5 -15 5 59.45 11.8
5 -15 5 54.68 9.3
-5 -15 5 31.33 11.94
-5 15 5 61.05 14.63
5 -15 -5 39.45 7.85
5 15 5 45.41 6.09
-5 -15 5 31.8 10.07
-5 15 5 46.75 11.03
-5 -16 5 45.86 8.65
5 16 -5 41.8 6.33
5 16 5 14.46 8.98
5 16 -5 44.27 6.69
5 -16 5 31.23 9.31
-5 16 5 45.79 12.44
5 -16 -5 32.91 7.71
-5 -16 5 36.51 9.88
5 17 5 7.97 6.81
5 -17 5 -1.67 5.97
-5 17 5 17.09 7.54
-5 -17 5 3.7 4.67
5 0 -6 95.92 10.92
5 0 6 115.12 34.6
-5 0 -6 93.4 10.27
5 0 6 78.17 28.48
-5 0 6 99.52 13.78
-5 0 6 60.45 33.67
5 0 6 102.95 12.24
-5 0 6 80.98 31.5
-5 0 -6 125.75 13.7
5 1 -6 1293.49 71.55
5 -1 -6 1288.93 71.87
5 1 -6 1202.47 71.67
-5 -1 -6 1195.7 70.27
-5 1 -6 1183.83 70.46
-5 -1 6 1220.04 74.79
-5 1 6 1373.23 78.05
-5 -1 6 1269.74 130.31
5 -1 6 1259.96 73.75
5 -1 6 1079.68 102.55
5 1 6 1082.88 95.92
-5 -1 6 1084.31 105.52
-5 1 6 1161.69 108.69
5 1 6 853.12 98.3
5 -1 6 1178.84 108.02
-5 -1 -6 1177.52 73.31
-5 1 -6 1304.16 74.03
5 -2 -6 12 4.49
5 -2 6 47.52 23.48
5 2 -6 10.9 3.92
-5 2 -6 13.04 3.64
-5 -2 -6 12.69 3.76
-5 -2 -6 10.16 3.34
5 2 6 22.12 12.02
-5 -2 6 7.33 4.23
-5 2 6 38.31 9.74
-5 -2 6 21.4 20.78
5 -2 6 16.04 5.41
-5 2 6 4.68 15.25
-5 -2 -6 13.58 5.09
-5 2 -6 40.62 8
5 -3 -6 265.77 20.41
5 3 -6 255.5 20.14
-5 -3 -6 235.16 18.52
-5 3 -6 233.11 19.08
-5 -3 -6 262.79 20.52
-5 -3 6 222.95 20.57
-5 3 6 275.76 26.56
-5 -3 6 226.55 43.81
5 3 6 256.21 34.64
5 -3 6 244.45 21.03
-5 3 6 259.62 37.54
5 -3 6 295.42 40.54
-5 -3 -6 298.09 22.96
-5 3 -6 259.78 21.5
5 -4 -6 42.81 6.96
5 4 6 57.02 16.35
5 -4 6 22.86 13.84
5 4 -6 49.6 7.29
-5 4 -6 44.27 6.75
-5 -4 -6 50.88 6.72
-5 -4 -6 57.23 7.79
5 -4 6 26.36 13.39
5 4 6 44.67 13.27
-5 -4 6 59.45 8.34
-5 4 6 75.12 13.51
-5 -4 6 26.89 15.88
-5 4 6 62.32 20.52
5 -4 6 56.23 8.48
-5 4 -6 55.03 8.86
-5 -4 6 69.26 18.19
-5 4 6 64.81 17.58
-5 -5 6 46.99 7.3
5 -5 -6 50.41 7.6
5 5 6 38.25 13.09
5 -5 6 52.63 15.48
5 5 -6 38.68 6.37
-5 5 -6 42.3 6.55
-5 -5 -6 49.8 7.16
-5 -5 -6 36.1 5.81
5 -5 6 40.26 7.28
5 -5 6 32.92 12.13
5 5 6 46.71 13.44
-5 -5 6 40.85 6.78
-5 5 6 50.26 11.67
-5 -5 6 53.3 19.44
-5 5 6 61.36 19.27
5 -5 -6 32.02 4.89
-5 5 -6 49.41 7.98
-5 -5 6 59.53 15.75
-5 5 6 42.54 14.46
-5 -6 6 45.02 7.63
5 -6 -6 49.86 7.49
5 6 6 48.45 15.44
5 -6 6 42.58 14.52
5 6 -6 50.64 7.4
-5 6 -6 52.26 7.3
-5 6 6 49.15 5.76
-5 -6 -6 54.76 6.88
-5 -6 -6 49.15 7.21
5 -6 -6 38.15 5.54
5 -6 6 49.76 7.93
5 -6 6 44.17 12.95
5 6 6 23.08 11.47
-5 -6 6 49.51 7.24
-5 6 6 40.87 12.02
-5 -6 6 44.58 18.53
-5 6 6 24.48 12.84
-5 -6 6 48.97 13.95
-5 6 6 75.73 16.68
-5 6 -6 58.87 8.96
5 -7 -6 184.39 16.86
5 -7 6 170.18 26.84
5 7 -6 196.4 16.45
-5 -7 6 214.39 17.92
-5 7 6 195.66 13.88
-5 -7 -6 192.98 15.22
-5 -7 -6 174.23 15.61
-5 7 -6 160.96 15.55
5 -7 6 181.45 26.39
5 7 6 147.93 22.97
5 -7 -6 149.1 13.75
-5 7 6 209.35 29.31
-5 -7 6 253.75 36.58
-5 7 6 172.52 30.53
5 -7 6 197.18 17.9
5 7 6 203.95 28.6
-5 -7 6 186.08 27.25
-5 7 6 181.23 26.68
-5 7 -6 222.54 19.12
-5 -8 6 3.92 3.91
5 8 -6 9.46 3.63
5 -8 -6 1.81 2.64
5 8 6 -14.48 11.55
5 -8 6 -5.9 6.8
-5 8 -6 0.85 2.48
-5 -8 -6 8.43 3.79
-5 8 6 3.65 2.26
-5 -8 -6 3.18 2.7
5 -8 6 2.45 7.14
5 8 6 -6.91 11.13
5 -8 6 4.16 3.22
5 -8 -6 6.66 2.65
-5 8 6 3.53 8.13
-5 8 6 -3.65 6.51
-5 8 -6 8.94 3.83
-5 -8 6 -2.72 7.41
-5 8 6 -2.69 8.76
5 9 -6 1282.26 70.14
-5 -9 6 1249 72.23
-5 -9 -6 1141.96 68.23
-5 9 6 1274.07 66.85
-5 -9 -6 1298.04 70.08
-5 9 -6 1204.7 70.78
5 -9 6 1339.4 73.5
5 -9 -6 1108.17 68.1
-5 9 6 925.79 83.71
-5 -9 6 1278.74 96.76
-5 9 6 1185.94 93.23
5 -9 6 1065.66 82.6
5 9 6 1029.16 81.21
-5 -9 6 1078.2 84.19
-5 9 6 1105.81 84.53
5 9 6 1062.85 85.89
5 -9 6 1093.22 86.65
-5 -10 6 55.57 8.62
5 10 6 29.39 11.96
5 -10 6 40.96 14.57
5 10 -6 67.24 8.29
-5 10 -6 62.37 8.78
-5 -10 -6 64 8.23
-5 -10 -6 41.59 6.44
5 10 6 42.47 12.26
5 -10 6 42.76 13.17
5 -10 6 63.96 9.95
5 -10 -6 57.56 7.87
-5 10 6 14.98 10.61
-5 -10 6 39.56 14.58
-5 10 6 53.72 16.06
-5 -10 6 42.42 12.33
-5 10 6 51.7 13.67
5 11 -6 609.56 36.12
-5 -11 6 617.54 38.93
-5 -11 -6 597.94 35.96
-5 11 -6 532.16 36.87
5 -11 6 629.69 39.58
-5 11 6 558.63 47.18
5 -11 -6 479.66 34.86
-5 -11 6 515.21 53.58
-5 11 6 494.42 52.12
5 11 6 396.67 43.24
5 -11 6 457.9 45.14
-5 -11 6 483.4 46.55
-5 11 6 519.01 47.25
5 11 6 485.66 47.89
5 -11 6 495.89 48.25
-5 -12 6 1.09 2.52
5 12 -6 5.33 2.83
5 12 6 7.5 5.15
5 -12 6 -5.12 7.91
-5 -12 -6 3.82 2.61
-5 12 -6 -1.96 3.35
5 12 -6 9.51 3.56
5 12 6 1.97 6.42
5 -12 6 -2.1 7.16
5 -12 6 4.57 3.53
5 -12 -6 4.04 2.88
-5 12 6 -4.14 5.63
-5 -12 6 -6.68 7.69
-5 12 6 3.12 7.86
-5 -12 6 2.34 5.38
-5 12 6 2.3 4.1
5 13 6 186.52 27
5 13 -6 246.31 18.44
5 13 -6 267.1 19.15
-5 -13 6 253.79 21.3
-5 13 -6 196.67 19.16
5 13 6 179.05 24.23
5 -13 6 162.37 24.08
5 -13 6 250.57 21.61
5 -13 -6 185.43 18.33
-5 -13 6 239.36 32.52
-5 13 6 207.55 29.72
-5 -13 6 237.56 27.48
-5 13 6 155.41 23.98
5 -13 6 211.19 27.46
-5 -14 6 30.65 7.04
5 14 6 49.4 12.45
5 -14 6 50.61 11.74
5 14 -6 42.34 6.46
5 14 6 18.4 8.19
5 -14 6 23.62 8.26
5 -14 6 42.3 8.12
-5 -14 6 31.32 11.73
-5 14 6 8.72 7.5
5 -14 -6 25.5 6.35
-5 -14 6 35.09 9.97
-5 14 6 27.89 8.97
5 15 6 6.84 6.65
5 -15 6 -1.91 7.08
-5 -15 6 9.09 7.65
-5 15 6 2.8 5.01
5 -15 -6 6.22 3.03
-5 -15 6 6.38 4.9
-5 15 6 10.4 6.06
5 16 6 19.83 9.44
5 -16 6 46.02 10.62
-5 16 6 18.85 9.68
-5 -16 6 18.55 7.14
5 -17 6 101.99 17.13
5 0 -7 -0.85 1.52
5 0 7 -6.73 9.8
5 0 -7 0.91 2.49
-5 0 -7 -0.69 1.43
5 0 7 5.05 11.63
-5 0 7 5.09 3.21
-5 0 7 8.74 12.72
5 0 7 1.05 2.16
-5 0 7 6.91 10.05
5 1 -7 57.72 7.99
5 -1 -7 64.48 8.53
5 1 7 41.19 21.17
5 -1 7 57.8 20.8
5 1 -7 79.63 9.44
-5 -1 -7 46.63 6.7
-5 1 -7 48.05 6.79
-5 -1 -7 61.42 8.29
5 1 7 26.25 15.19
5 -1 7 21.09 15.6
-5 -1 7 61.53 9.75
-5 1 7 38.39 8.67
-5 -1 7 35.31 22.43
5 -1 7 38.73 7.42
5 1 7 73.2 9.72
-5 -1 7 47.14 19.38
-5 1 7 74.69 22.3
5 -2 -7 83.05 9.99
5 -2 7 60.74 21.23
5 2 -7 76.22 9.59
-5 -2 -7 84.2 8.92
-5 2 -7 79.89 9.06
-5 -2 -7 97.42 10.53
5 2 7 23.11 13.75
-5 -2 7 72.93 10.58
-5 2 7 63.94 11.75
-5 -2 7 126.64 32.79
5 -2 7 84.06 10.86
-5 2 7 78.65 22.99
5 -3 -7 17.98 4.83
5 -3 7 22.58 13.99
5 3 -7 18.72 4.61
-5 3 -7 16.99 4.15
-5 -3 -7 25.97 5.52
-5 -3 -7 16.83 3.85
5 3 7 20.69 10.09
-5 -3 7 18.71 5.12
-5 3 7 22.78 7.56
-5 -3 7 6.43 11.51
-5 3 7 16.86 14.21
5 -3 7 29.44 6.11
-5 3 7 25.78 13.31
5 -4 -7 14.55 4.33
5 4 7 12.22 9.39
5 -4 7 12.27 9.44
5 4 -7 15.11 4.03
-5 4 -7 12.82 3.6
-5 -4 -7 13.5 3.93
-5 -4 -7 12.12 3.27
5 4 7 12.55 7.93
5 -4 7 3.5 8.09
-5 -4 7 13.76 4.67
-5 4 7 18.12 6.75
-5 -4 7 17.07 11.73
-5 4 7 -5.04 5.22
5 -4 7 7.38 3.48
-5 -4 7 15.48 10.56
-5 4 7 3.82 5.59
5 -5 -7 -0.92 1.9
5 5 7 -7.46 9.41
5 -5 7 -3.76 9.49
-5 5 -7 0.77 1.78
-5 -5 -7 2.45 1.88
-5 -5 -7 0.63 1.45
5 5 7 2.9 6.68
5 -5 7 -3.19 9.28
-5 5 7 -2.04 5.14
-5 -5 7 15.44 12.98
-5 5 7 -4.63 6.74
5 -5 7 1.05 1.87
-5 5 -7 1.06 2.18
-5 -5 7 -3.52 7.25
-5 5 7 6.96 7.16
-5 -6 7 64.98 9.42
5 -6 -7 60.17 8.85
5 6 7 45.03 15.07
5 -6 7 80.9 19.44
5 6 -7 71.85 9.17
-5 6 -7 55.77 8
-5 -6 -7 54.12 7.23
-5 -6 -7 80.19 9.24
5 6 7 67.63 16.8
5 -6 7 58.68 15.46
-5 6 7 77.31 15.04
-5 -6 7 66.21 20.35
-5 6 7 56.1 19.14
5 -6 7 70.66 9.85
-5 -6 7 65.26 17.45
-5 6 7 41.93 14.47
-5 6 -7 72.67 10.52
5 -7 -7 297.38 23.29
5 -7 7 239.28 34.54
5 7 -7 289.02 22.05
-5 -7 7 322.71 24.22
-5 -7 -7 271.03 20
-5 -7 -7 260.97 21.05
-5 7 -7 241.12 20.96
-5 7 7 321.55 35.63
-5 -7 7 278.75 40.77
-5 7 7 267.76 38.51
5 7 7 279.09 32.73
5 -7 7 228.3 31.42
5 -7 7 335.52 24.74
-5 -7 7 317.43 36.54
-5 7 7 229.11 32.51
5 7 7 286.96 36.87
-5 7 -7 291.12 24.43
5 -8 -7 143.04 13.98
5 8 7 96.1 20.26
5 -8 7 72.87 19.06
5 8 -7 111.55 11.8
-5 -8 7 110.11 13.05
-5 -8 -7 106.2 10.41
-5 -8 -7 120.89 11.88
-5 8 -7 110.7 12.04
5 8 7 92.5 17.95
5 -8 7 80.6 17.89
-5 8 7 159.41 26.58
-5 -8 7 66.86 20.09
-5 8 7 127.42 25.18
5 -8 7 152.44 14.88
-5 -8 7 66.75 17.36
-5 8 7 91.66 19.52
-5 8 -7 139.97 14.73
5 -9 -7 65.71 9.28
5 9 7 68.35 16.51
5 -9 7 54.76 14.71
5 9 -7 65.41 8.62
-5 -9 7 75.5 10.15
-5 9 -7 62.99 8.97
-5 -9 -7 55.94 7.17
-5 -9 -7 64.39 8.32
5 9 7 44.31 13.11
5 -9 7 34.82 12.7
-5 9 7 90.3 20.28
-5 -9 7 35.92 14
-5 9 7 77.55 18.52
5 -9 7 79.46 10.53
-5 -9 7 66.54 15.18
-5 9 7 60.12 14.97
-5 -10 7 -1.12 1.63
5 10 -7 2.46 2.53
5 10 7 -2.86 6.59
5 -10 7 11.73 6.75
-5 10 -7 -0.92 1.89
5 10 7 4.49 5.17
5 -10 7 -2.39 4.26
5 -10 7 1.11 2.55
-5 10 7 -6.22 7.84
-5 -10 7 3.83 6.82
-5 10 7 10.66 7.32
-5 -10 7 10.67 6.73
-5 10 7 7.88 6.62
-5 -11 7 1.15 2.05
5 11 7 -2.76 6.97
5 -11 7 8.5 5.83
5 11 7 2.16 5.46
5 -11 7 6.91 5.3
5 -11 7 4.51 3.67
-5 -11 7 3.68 8.48
-5 11 7 6.84 6.1
-5 -11 7 10.32 6.51
-5 11 7 10.14 6.39
5 12 7 29.42 10.57
5 -12 7 43.85 13.14
5 12 7 43.84 12.2
5 -12 7 57.77 13.15
-5 -12 7 32.03 13.42
-5 12 7 56.02 17.46
-5 -12 7 60.01 14.3
-5 12 7 56.41 13.57
5 13 7 2.59 6.52
5 -13 7 -10.55 9
5 13 7 2.01 5.49
5 -13 7 2.15 5.41
-5 -13 7 3.44 6.13
-5 13 7 3.18 5.68
-5 -13 7 4.85 4.99
-5 13 7 -2.38 6.48
5 0 -8 39.77 6.92
5 0 8 35.54 20.8
-5 0 -8 41.81 6.18
-5 0 -8 43.22 7.19
5 0 8 10.46 17.15
-5 0 8 49.47 9.86
-5 0 8 35.42 22.43
-5 0 8 14.18 19.43
5 -1 -8 128.45 13.47
5 1 8 80.68 27.21
5 -1 8 98.27 29.76
-5 -1 -8 125.61 11.88
-5 1 -8 126.08 12.08
-5 -1 -8 134.62 13.39
-5 1 -8 143.24 13.84
5 1 8 136.98 30.13
5 -1 8 100.31 28.92
-5 1 8 183.36 19.11
-5 -1 8 110.09 15.2
-5 -1 8 181.59 47.23
5 -1 8 147.18 15.07
-5 1 8 125.34 32.65
5 -2 -8 3.84 2.98
5 -2 8 5.4 12.45
-5 2 -8 6.41 2.56
-5 -2 -8 17.57 4.71
-5 -2 -8 5.12 2.49
5 2 8 -4.04 14.99
-5 -2 8 15.63 5.82
-5 2 8 10.63 5.86
-5 -2 8 -7.75 19.55
5 -2 8 4.31 3.52
-5 2 8 5.15 10.62
5 -3 -8 440.16 30.18
5 -3 8 386.9 53.45
-5 -3 -8 380.88 26.4
-5 -3 -8 420.98 28.84
-5 3 -8 353.97 26.88
5 3 8 319.15 44.28
-5 3 8 440.3 36.24
-5 -3 8 542.26 69.01
-5 3 8 381.73 54.65
5 -3 8 431.95 30.78
-5 -3 8 423.45 51.92
-5 3 8 362.62 49.3
5 -4 -8 34.53 6.88
5 4 8 8.69 17.35
5 -4 8 26.32 16.93
-5 4 -8 9.01 3.74
-5 -4 -8 25.04 5.45
-5 -4 -8 24.46 4.5
5 4 8 -6.61 17.05
5 -4 8 26.06 14.37
-5 4 8 16.11 9.26
-5 -4 8 30.07 23.18
-5 4 8 5.31 12.27
5 -4 8 11.92 5.08
-5 -4 8 28.81 18
-5 4 8 32.47 15.67
5 -5 -8 938.45 58.46
-5 5 8 1101.46 70.22
5 5 8 847.49 74.83
5 -5 8 976.58 59.61
-5 5 -8 874.23 55.74
5 -6 -8 15.24 5.68
5 -6 8 19.67 6.4
-5 6 -8 12.68 4.22
5 -7 -8 264.88 22.11
-5 7 -8 225.97 19.89
5 -7 8 298.18 23.45
-5 8 -8 2.54 2.47
-5 0 9 1.44 3.33
-5 1 9 7.58 4.15
-5 3 -9 206.54 16.93
-5 4 -9 2.2 1.52
6 0 0 1385.98 79.33
-6 0 0 1355.31 76.04
6 1 0 7.29 2.37
-6 1 0 8.88 3.54
6 1 0 10.66 3.82
6 -1 0 19.31 5.57
-6 -1 0 11.91 3.89
6 2 0 465.96 28.26
-6 2 0 435.85 30.86
-6 -2 0 437.71 30.07
6 -2 0 460.64 32.11
6 2 0 498.46 32.24
-6 -2 0 435.39 29.25
-6 2 0 550.03 30.16
6 3 0 1.18 1.34
-6 3 0 1.53 1.77
-6 -3 0 1.91 1.97
6 -3 0 4.35 3.11
6 3 0 2.45 2.66
-6 3 0 8.15 3.35
-6 -3 0 2.23 2.16
6 4 0 171.72 12.28
-6 4 0 173.88 15.08
-6 -4 0 166.3 14.07
6 -4 0 163.29 15.65
6 4 0 179.53 15.68
-6 -4 0 179.98 14.19
6 5 0 1.39 0.95
6 -5 0 1.79 2.6
6 5 0 -1.61 2.02
-6 5 0 -0.77 1.78
-6 -5 0 -0.59 1.82
6 6 0 66.79 6.13
6 -6 0 63.12 8.89
6 6 0 58.77 8.2
-6 -6 0 64.07 8.32
-6 -6 0 73.39 7.74
-6 6 0 67.87 8.43
6 7 0 2.66 1.78
6 -7 0 -0.92 2.32
-6 7 0 -0.79 1.41
-6 -7 0 3.37 2.71
-6 -7 0 1.56 1.97
6 8 0 849.64 46.74
6 -8 0 824.5 52.48
-6 -8 0 771.7 50.65
-6 -8 0 837.22 48.9
-6 8 0 872.05 51.61
6 9 0 -0.66 1.63
6 -9 0 -0.96 3.69
-6 -9 0 -2.19 2.71
-6 9 0 1.65 2.69
6 10 0 885.87 50.78
6 -10 0 903.54 57.05
-6 -10 0 963 53.21
-6 10 0 906.12 55.59
6 11 0 0.35 1.53
6 -11 0 -1.02 3.31
-6 11 0 3.47 2.53
6 11 0 0.41 1.46
-6 -11 0 0.55 1.8
6 12 0 414.21 25.89
6 12 0 439.35 25.98
6 -12 0 439.86 31.72
-6 -12 0 392.35 27.09
-6 12 0 436.41 30.53
6 13 0 -1.33 1.58
-6 13 0 0.93 2.34
-6 -13 0 0.56 1.74
6 -13 0 -1.11 3.6
-6 -14 0 84.75 9.25
-6 14 0 101.72 11.91
6 -14 0 104.49 12.96
-6 15 0 -1.02 2.09
-6 -15 0 0.6 1.38
-6 16 0 59.93 9.46
-6 -16 0 46.44 6.92
-6 -17 0 -0.66 2.72
6 -17 0 4.27 3.59
6 0 1 1.03 0.94
-6 0 1 2.88 2.23
6 0 1 4.42 2.73
6 0 -1 1.54 1.59
-6 0 1 6.68 2.4
-6 0 -1 3.72 2.3
6 1 1 133.01 10.24
6 1 -1 144.18 11.97
-6 -1 1 154.54 13.51
-6 1 1 156.44 13.45
-6 -1 -1 136.18 13.14
6 -1 -1 165.98 14.34
6 1 1 137.9 13.96
6 1 -1 143.46 13.38
6 -1 1 146.25 14.29
-6 -1 -1 148.48 12.81
-6 1 -1 136.92 12.35
-6 -1 1 153.37 11.22
-6 1 1 156.55 11.02
6 2 1 3.52 1.46
6 2 -1 1.53 1.58
-6 -2 1 2.3 2.22
-6 -2 1 1.46 1.51
-6 -2 -1 1.51 2.2
-6 2 1 2.88 1.96
6 -2 1 3.61 2.63
6 -2 -1 2.42 2.04
6 2 1 0.88 2.03
6 2 -1 5.25 2.79
-6 2 -1 1.81 2.06
-6 -2 -1 5.21 2.69
-6 -2 1 10.12 2.86
6 3 1 234.74 14.91
6 3 -1 231.78 16.72
-6 -3 1 210.8 18.04
-6 -3 -1 216.36 18.41
-6 3 1 228.57 18.39
-6 -3 1 247.84 17.53
-6 -3 -1 245.71 18.69
6 -3 1 231.7 19.9
6 -3 -1 256.06 19.68
6 3 1 246.7 19.96
6 3 -1 244.94 18.91
-6 -3 -1 246.96 18.54
-6 -3 1 245.78 16.44
-6 3 -1 264.62 18.42
6 4 -1 19.71 3.53
6 4 1 20.41 2.71
-6 -4 1 27.63 4.34
-6 -4 -1 22.95 4.43
-6 -4 1 16.34 4.19
-6 -4 -1 20.65 4.45
-6 4 1 19.94 4.37
6 -4 1 22.41 5.38
6 -4 -1 24.02 5.09
6 4 1 22.86 5.16
6 4 -1 25.18 4.77
-6 4 -1 22.66 4.6
-6 -4 -1 16.17 4.18
-6 -4 1 20.97 3.59
6 5 1 1.17 0.72
6 5 -1 1.85 1.43
-6 5 1 0.75 1.73
-6 -5 1 -0.51 1.38
-6 -5 -1 1.35 1.7
-6 -5 1 0.76 1.35
-6 -5 -1 1.53 1.58
6 -5 1 -0.94 1.94
6 -5 -1 0.84 2.11
6 5 1 4.36 2.2
6 5 -1 0.73 1.5
-6 -5 1 0.49 1.43
6 6 1 8.69 1.77
6 -6 -1 8.55 1.92
6 6 -1 10.55 2.52
6 -6 1 5.74 2.82
6 -6 -1 10.24 3.86
6 6 -1 11.43 3.48
6 6 1 9.53 3.48
-6 6 1 6.04 2.62
-6 6 -1 11.26 3.44
-6 -6 1 7.91 2.48
-6 -6 -1 10.31 3.34
-6 -6 -1 5.41 2.43
6 -7 -1 182.23 13.13
6 7 1 202.28 12.61
6 7 -1 198.27 14.22
6 -7 1 204.63 18.1
6 -7 -1 175.8 16.67
-6 -7 -1 212.42 17.08
-6 -7 1 207.22 14.86
-6 -7 -1 185.18 15.35
-6 7 1 222.97 17.21
-6 7 -1 208.07 17.23
6 -8 -1 75.69 7.2
6 8 1 83.01 6.6
6 8 -1 91.37 8.11
6 -8 1 95.36 11.4
6 -8 -1 83.76 10.5
-6 -8 1 86.88 8.36
-6 -8 -1 95.9 10.43
-6 -8 -1 91.65 9.28
-6 8 1 97.66 10.4
-6 8 -1 92.29 10.51
6 -9 -1 71.56 7.45
6 9 1 92.73 7.28
6 9 -1 103.87 8.48
6 -9 1 105.69 11.96
6 -9 -1 88.02 10.87
-6 -9 1 97.04 8.84
-6 -9 -1 96.03 10.73
-6 -9 -1 92.21 9.35
-6 9 1 96.45 10.47
-6 9 -1 106.08 11.33
6 10 -1 10 2.25
6 -10 -1 4.92 1.81
6 10 1 6.2 1.91
6 -10 1 1.03 2.14
6 -10 -1 11.35 4.25
-6 10 1 4.04 2.64
-6 -10 -1 3.67 2.2
-6 10 -1 10.54 3.39
-6 -10 1 3.87 1.95
6 11 -1 100.79 8.73
6 -11 1 86.94 11.81
6 -11 -1 93.35 11.65
-6 -11 1 102.9 9.29
-6 -11 -1 104.53 10.1
-6 11 1 107.69 11.42
-6 11 -1 88.57 10.91
6 12 -1 91.48 8.46
6 12 -1 96.38 8.78
6 -12 1 97.45 12.24
6 -12 -1 93.43 11.64
-6 -12 1 85.33 8.7
-6 -12 -1 95.52 9.61
-6 12 1 91.61 10.88
-6 12 -1 86.1 11.13
6 13 -1 167.9 13.26
6 13 -1 181.9 13.67
6 -13 1 209.76 19
6 -13 -1 183.6 18.1
-6 -13 1 167.84 13.85
-6 -13 -1 161.23 14.38
-6 13 1 199.28 16.78
-6 13 -1 192.93 17.54
6 14 -1 20.64 3.94
6 14 -1 34.32 4.53
-6 14 1 13.75 4.7
-6 14 -1 34.65 6.92
-6 -14 1 25.48 4.49
-6 -14 -1 25.06 5.15
6 -14 -1 23.89 6.1
6 -14 1 22.55 5.87
6 15 -1 5.86 2.49
-6 15 1 9.58 3.45
-6 15 -1 7.48 3.84
-6 -15 1 10.71 3.1
-6 -15 -1 10.37 3.37
6 -15 1 4.68 4.56
6 15 1 16.07 6.22
6 -15 1 12.94 6.67
-6 -16 1 139.19 12.63
-6 -16 -1 141.75 12.86
-6 16 1 147.98 15.33
6 -16 1 91.44 15.8
6 16 1 109.98 18.75
-6 -17 1 101.83 10.79
6 -17 1 83.65 14.02
6 17 1 75.81 16.35
-6 -18 1 54.11 8.44
6 0 2 119.6 8.13
-6 0 2 127.81 11.79
-6 0 -2 118.73 11.95
6 0 2 110.95 12.5
6 0 -2 111.98 11.39
-6 0 -2 123.01 11.82
6 1 2 3.99 1.17
6 -1 2 3.39 1.29
6 1 -2 7.41 2.78
-6 1 -2 3.18 2.47
-6 -1 2 4.54 1.89
-6 -1 2 9.2 3.01
-6 1 2 4.21 2.51
-6 -1 -2 3.07 2.38
6 1 -2 2.08 2.38
6 -1 2 4.72 2.76
6 -1 -2 4.37 2.38
6 1 2 7.53 3.36
-6 -1 -2 10.37 3.97
-6 1 -2 5.72 2.86
6 2 2 196.49 12.24
6 2 -2 213.83 16.23
-6 -2 2 214.08 17.05
-6 2 2 218.04 16.99
-6 -2 -2 204.1 17.22
-6 2 -2 204.16 17.34
-6 -2 2 204.28 15.21
6 -2 2 217.81 18.76
6 -2 -2 228.13 17.74
6 2 2 203.95 18.41
6 2 -2 216.07 16.91
-6 -2 -2 214.13 17.49
-6 2 -2 223.64 17.35
-6 -2 2 235.63 13.7
6 3 -2 12.93 3.95
-6 3 -2 2.4 2.52
-6 -3 2 21.97 4.45
-6 -3 -2 17.59 6.02
-6 -3 2 10.17 4.26
-6 -3 -2 10.71 3.81
-6 3 2 2.1 2.44
6 -3 2 9.64 4.35
6 -3 -2 3.05 2.41
6 3 2 31.11 6.81
6 3 -2 22.95 5.13
-6 3 -2 11.25 4.12
-6 -3 -2 36.89 7.77
-6 -3 2 24.86 3.96
6 4 2 1750.13 90.94
6 4 -2 1756.6 95.88
-6 -4 2 1747.62 97.42
-6 -4 -2 1714.47 97.67
-6 -4 2 1682.51 94.23
-6 4 2 1659.63 96.73
-6 4 -2 1670.98 97.79
-6 -4 -2 1760.17 97.6
6 -4 2 1763.16 99.95
6 -4 -2 1718.7 97.67
6 4 2 1850.17 100.09
6 4 -2 1776.57 96.85
-6 -4 2 1655.1 92.84
-6 4 -2 1847.51 98.13
6 -5 -2 14.05 3.88
6 5 -2 11.28 3.7
-6 -5 2 7.1 3.34
-6 -5 -2 14.66 5.14
-6 -5 2 4.46 3.19
-6 -5 -2 8.51 3.68
-6 5 2 4.26 3.68
6 -5 2 6.97 5.35
6 -5 -2 3.94 3.92
6 5 -2 18.04 4.57
6 5 2 8.43 5.13
-6 5 -2 20.32 5.97
-6 -5 2 10.39 3.36
6 -6 -2 1190.97 63.61
6 6 -2 1191.83 64.65
-6 -6 2 1153.12 64.66
-6 -6 2 1160.38 63.21
-6 -6 -2 1179.86 67.03
-6 -6 -2 1151.02 66.15
-6 6 2 1122.77 66.05
6 -6 2 1165.01 69.07
6 -6 -2 1112.22 66.82
6 6 2 1168.9 68.54
-6 -6 2 995.73 62.43
-6 -7 2 0.59 2.17
6 7 -2 -0.52 1.42
6 -7 -2 0.46 2.53
6 -7 2 -1.02 3.48
6 -7 -2 -0.82 2.94
-6 7 2 4.43 3.23
-6 -7 2 0.81 1.61
-6 -7 -2 -0.69 2.36
-6 -7 -2 3.91 2.28
6 -8 -2 198.56 14.92
6 8 -2 220.43 15.6
-6 -8 2 183.58 15.6
6 -8 2 201.73 18.74
6 -8 -2 197.82 17.46
-6 -8 2 199.66 14.46
-6 -8 -2 202.85 17.26
-6 -8 -2 230.38 17.08
-6 8 2 230.25 17.44
-6 -9 2 1.29 1.16
6 9 -2 5.06 2.21
6 -9 -2 1.52 1.56
6 -9 2 3.17 3.26
6 -9 -2 -0.88 1.81
-6 9 2 2.26 1.9
-6 -9 -2 2.69 1.96
-6 -9 -2 5.58 2.72
-6 -9 2 2.83 1.72
-6 -10 2 9.51 2.82
6 10 -2 6.02 2.1
6 -10 -2 6.45 2.24
-6 10 2 9.2 3.08
-6 -10 -2 8.02 2.78
-6 10 -2 5.46 2.83
-6 -10 2 5.37 2.16
6 -10 2 1.81 4.58
6 -10 2 11.86 4.17
6 -10 -2 13.66 4.31
-6 -11 2 -0.72 2.22
6 11 -2 4.5 1.93
-6 11 2 3.92 2.56
-6 -11 -2 1.33 2.06
-6 11 -2 7.51 2.9
-6 -11 2 4.75 1.94
6 -11 2 7.11 5.49
6 11 2 1.69 4.92
6 -11 2 1.11 1.98
6 -11 -2 0.95 2.19
6 -11 2 5.04 5.19
6 12 -2 134.81 11.19
-6 -12 2 125.06 12.47
6 12 -2 133.24 11.57
-6 -12 2 119.68 10.62
-6 -12 -2 152.58 12.82
-6 12 2 136.81 13.13
-6 12 -2 135.34 14.14
6 -12 2 126.46 14.46
6 -12 2 92.84 16.09
6 -12 -2 115.8 13.59
6 12 2 125.75 17.72
6 -12 2 129.11 21.13
6 12 2 112.32 20.33
6 13 -2 0.52 1.91
-6 13 2 3.35 2.73
-6 13 -2 -2.03 2.34
6 13 -2 0.56 2.32
-6 -13 2 1.41 1.94
-6 -13 -2 2.71 2.31
6 -13 -2 -1.05 2.42
6 -13 2 -1.73 3.99
6 13 2 3.25 5.29
6 -13 2 1.18 2.98
6 -13 2 11.77 6.41
6 13 2 -9.25 7.53
6 14 -2 737.16 42.49
6 14 -2 769.22 42.56
-6 -14 2 631.89 41.66
-6 -14 -2 729.69 43.65
-6 14 2 801.18 46.35
-6 14 -2 707.34 47.07
6 -14 -2 717.22 47.74
6 -14 2 562.27 50.59
6 14 2 572.27 50.11
6 -14 2 683.14 57.72
6 14 2 661.81 56.24
6 15 -2 3.23 2.36
-6 15 2 1.8 2.28
6 15 -2 3.25 2.09
-6 -15 2 2.31 2.86
-6 -15 -2 1.38 2.46
6 -15 2 -1.69 3.89
6 15 2 1.59 5.42
6 -15 2 4.36 5.49
6 15 2 6.49 4.46
6 16 -2 448.97 28.48
-6 16 2 443.17 31.64
6 -16 2 383.22 36.67
6 16 2 354.78 38.59
6 17 -2 -1.29 2.57
-6 17 2 1 2.05
6 -17 2 4.91 4.77
6 17 2 3.99 4.1
-6 0 3 2.55 1.58
-6 0 3 0.68 1.58
-6 0 -3 2.38 2.32
6 0 -3 3.21 2.1
6 0 3 0.99 2.29
-6 0 -3 7.42 3.29
6 1 -3 90.84 9.61
-6 -1 3 71.58 8.81
-6 1 3 82.74 9.15
-6 -1 -3 90.1 9.98
-6 1 -3 83.86 9.94
-6 -1 3 95.76 8.03
6 -1 -3 100.08 9.82
6 -1 3 80.93 18.61
6 1 3 59.91 16.86
6 1 3 81.9 10.62
6 -1 3 102.79 11.66
6 1 -3 82.3 8.86
-6 -1 -3 102.98 10.94
-6 1 -3 92.05 10.36
6 2 -3 31.47 5.39
-6 2 -3 28.4 5.54
-6 -2 -3 34.55 6.16
-6 -2 3 33.55 4.22
-6 -2 3 38.79 6.04
-6 2 3 24.35 4.81
-6 -2 -3 25.54 5.13
6 -2 3 46.09 7.48
6 2 3 45.71 13.9
6 -2 -3 35.31 5.63
6 2 3 42.1 7.12
6 2 -3 28.53 4.89
-6 -2 -3 25.7 5.48
-6 2 -3 41.85 6.68
6 3 -3 147.95 12.65
-6 -3 3 116.56 12.02
-6 -3 3 124.55 9.97
-6 3 3 132.19 12.21
-6 -3 -3 154.54 13.54
-6 3 -3 132.78 13.07
-6 -3 -3 160.12 14.03
6 -3 -3 139.84 12.68
6 3 3 96.7 19.75
6 3 3 130.32 14.07
6 3 -3 135.71 11.97
6 -3 3 132.38 14.15
-6 -3 -3 141.97 13.96
6 -3 3 130.16 26.01
-6 3 -3 168.14 14.26
6 -4 -3 76.73 7.81
6 4 -3 70.28 8.3
-6 -4 3 71.26 6.59
-6 -4 -3 77.14 9.11
-6 4 3 82.5 8.82
-6 4 -3 68.55 8.98
-6 -4 -3 74.28 9.2
6 -4 3 88.9 10.8
6 -4 -3 74.63 8.79
6 -4 3 58.54 14.39
6 4 3 70.67 15.74
6 4 3 79.86 10.49
6 4 -3 64.52 7.62
6 4 3 67.67 18
6 -4 3 72.82 18.77
-6 4 -3 91.2 9.99
6 -5 -3 1.07 1.45
6 5 -3 3.25 1.9
-6 -5 3 0.97 1.05
-6 5 -3 4.22 2.46
-6 -5 -3 3.14 2.14
-6 -5 -3 1.56 1.6
-6 5 3 1.35 1.7
6 -5 3 -1.04 2.14
6 -5 3 -4.75 6.47
6 5 3 4.56 5.25
6 -5 -3 0.74 1.53
6 5 -3 2.19 1.96
6 5 3 -1.99 3.08
-6 5 -3 0.83 1.92
6 5 3 9.96 8.38
6 -5 3 10.2 8.58
-6 -6 3 3.31 2.06
6 -6 -3 4.43 2.07
6 6 -3 6.41 2.57
-6 6 -3 0.85 1.98
-6 -6 -3 8.35 2.93
-6 -6 -3 6.22 2.66
-6 6 3 4.05 1.98
-6 -6 3 5.48 1.92
6 -6 3 9.06 7.37
6 6 3 2.16 4.97
6 -6 3 2.11 2.18
6 -6 -3 3.04 2.36
-6 6 -3 3.19 2.47
6 6 3 6.26 5.58
6 -6 3 9.55 6.56
6 -7 -3 116.1 10.32
6 7 -3 120.35 10.63
-6 -7 3 102.96 10.59
-6 -7 3 95.75 8.32
-6 -7 -3 118.71 11.8
-6 -7 -3 110.5 11.03
-6 7 3 93.52 10.16
-6 7 -3 99.04 11.47
6 -7 3 119.59 13.25
6 -7 -3 98.33 11
6 -7 3 107.74 17.64
6 7 3 115.86 18.17
6 -7 3 154.37 24.57
6 7 3 123.99 21.77
-6 -8 3 14.99 3.81
6 8 -3 22.08 4.05
6 -8 -3 15.43 3.58
-6 8 -3 9.79 3.73
-6 -8 -3 9.53 3.19
-6 -8 -3 12.65 3.97
-6 -8 3 14.03 2.8
-6 8 3 12.51 3.43
6 -8 3 6.27 5.32
6 8 3 35.69 9.82
6 -8 3 11.94 4.53
6 -8 -3 16.95 4.45
6 8 3 14.11 9.22
6 -8 3 14.41 10.3
6 -9 -3 51.41 6.65
6 9 -3 56.59 6.72
-6 -9 3 51.26 7.15
-6 9 -3 51.97 7.92
-6 -9 3 53.23 5.5
-6 -9 -3 50.7 7.42
-6 -9 -3 47.17 6.88
-6 9 3 58.28 7.3
6 -9 3 38.37 10.94
6 9 3 42.57 10.88
6 -9 3 63.08 9.29
6 -9 -3 50.36 7.52
6 9 3 37.79 11.77
6 -9 3 52.51 13.91
-6 -10 3 16.2 4.04
6 10 -3 22.21 3.97
6 -10 -3 12.97 3.55
-6 10 3 14.64 3.69
-6 -10 -3 15.86 3.93
-6 -10 3 10.35 2.6
-6 -10 -3 19.11 4.48
6 -10 3 11.92 6.82
6 10 3 24.66 8.09
6 -10 3 12.39 4.98
6 -10 -3 13.14 3.9
6 10 3 2.61 6.63
6 -10 3 21.3 9.12
6 11 -3 73.59 8.03
-6 -11 3 66.84 8.74
-6 -11 3 61.19 6.82
-6 -11 -3 77.41 8.89
-6 11 3 88.55 9.4
6 -11 3 86.38 11.46
6 -11 3 76.18 13.83
6 11 3 46.49 12.2
6 -11 -3 68.99 9.46
6 -11 3 66.85 15.41
6 11 3 52.98 14.22
6 12 -3 210.3 16.06
-6 -12 3 209.01 17.98
-6 -12 -3 203.9 16.87
-6 12 3 217.24 17.55
6 -12 3 235.09 20.99
6 -12 -3 206.82 18.76
6 -12 3 173.52 23.27
6 12 3 215.16 24.38
6 12 3 187.87 25.91
6 -12 3 191.11 26.41
6 -13 3 93.31 18.36
6 13 -3 99.44 10
6 13 -3 107.26 10.46
-6 -13 3 104.75 11.78
-6 -13 -3 107.26 10.95
-6 13 3 104.34 11.23
6 -13 3 104.81 16.67
6 13 3 78.24 14.68
6 -13 -3 104.12 12.48
6 13 3 87.35 17.64
-6 -14 3 55.86 8.61
6 -14 3 50.88 12.98
6 14 -3 58.9 7.29
6 14 -3 78.21 8.17
-6 14 3 77.23 9.12
6 -14 -3 58.46 9.38
6 -14 3 43 11.65
6 14 3 36.95 10.71
6 14 3 59.26 13.02
-6 -15 3 9.81 3.68
6 15 -3 12.01 3.48
6 15 3 -2.2 6.42
-6 15 3 10.87 3.59
6 15 -3 11.81 3.37
6 -15 3 18.33 7.08
6 16 -3 76.54 8.13
6 16 3 50.89 12.61
6 16 -3 69.54 8.16
-6 16 3 63.96 9.19
6 -16 3 57.74 12.49
6 16 3 54.58 8.38
-6 17 3 71.86 9.95
6 17 3 55.14 13.73
6 17 3 65.61 8.84
-6 0 4 1365.45 74.56
-6 0 4 1288.06 70.52
-6 0 -4 1371.61 76.03
6 0 4 1362.48 78.43
6 0 -4 1290.45 73.31
6 0 4 1131.07 113.89
-6 0 -4 1408.8 77.42
6 1 -4 28.65 5.76
-6 1 -4 46.58 7.08
-6 -1 4 31.69 3.85
-6 1 4 41.74 5.02
-6 -1 4 24.31 5.15
-6 1 4 44.33 6.43
-6 -1 -4 30.06 5.93
6 -1 -4 35.26 5.53
6 -1 4 45.56 23.04
6 1 4 25.83 15.31
6 1 4 48.63 8.35
6 -1 4 40.03 8.18
6 1 -4 31.46 5.05
-6 1 -4 70.77 10.23
6 1 4 32.24 17.59
-6 -1 -4 32.47 7
6 -1 4 31.85 23.26
6 2 -4 426.08 29.05
-6 -2 4 425.83 24.52
-6 2 4 428.11 28.17
-6 -2 -4 445.16 29.56
-6 2 -4 417.07 29.51
-6 -2 -4 401.96 29.47
6 -2 -4 391.8 27.58
6 2 4 459.9 32.12
6 2 4 334.62 42.99
6 -2 4 441.93 31.72
6 -2 4 394.33 52.46
-6 -2 -4 422.09 30.65
-6 2 -4 488.78 31.36
6 -3 -4 12.07 3.66
6 3 -4 6.01 2.62
-6 -3 4 9.13 2.05
-6 3 -4 13.26 4.13
-6 -3 -4 7.77 2.99
-6 3 4 11.61 3.55
-6 -3 -4 9.32 3.24
6 -3 4 12.7 5.02
6 3 4 5.98 7.55
6 -3 -4 13.62 3.51
-6 -3 4 10.42 4.19
6 3 4 10.54 3.79
-6 3 -4 23.11 5.88
6 -3 4 12.65 12.29
-6 -3 -4 9.72 4.04
6 -4 -4 93.77 9.49
6 4 -4 86.89 9.88
-6 4 4 101.52 9.82
-6 -4 -4 99.66 10.49
-6 4 -4 89.71 10.4
-6 -4 -4 97.26 10.84
6 -4 -4 84.62 9.42
6 -4 4 108.14 20.76
6 4 4 73.83 17.11
-6 -4 4 81 10.7
6 4 4 117.77 12.8
6 -4 4 98.08 12.19
6 4 4 79.44 21.17
6 -4 4 103.86 22.92
-6 -4 -4 90.94 11.31
-6 4 -4 91.75 10.99
6 -5 -4 21.18 4.14
6 5 -4 31.42 5.33
-6 5 -4 16.34 4.46
-6 -5 -4 28.22 5.44
-6 5 4 27.7 4.83
-6 -5 -4 25.66 5.12
6 -5 4 30.13 6.69
6 -5 4 32.33 12.48
6 5 4 27.96 9.88
6 -5 -4 33.83 5.49
-6 5 -4 27.35 6.02
6 5 4 27.93 13.03
6 -5 4 31.93 13.24
-6 -6 4 35.85 5.92
6 -6 -4 38.24 5.61
6 6 -4 37.49 5.86
-6 6 -4 30.55 5.82
-6 -6 -4 26.49 5.26
-6 -6 -4 20.9 4.77
-6 6 4 34.07 5.35
6 -6 4 40.42 7.37
6 -6 4 20.42 9.23
6 6 4 21.78 9.77
6 -6 -4 23.54 4.78
-6 6 -4 30.86 6.25
6 6 4 26.14 11.76
6 -6 4 26.71 12.01
-6 -7 4 13.34 4.64
6 -7 -4 2.7 1.85
6 7 -4 6.26 3.04
-6 7 -4 -0.89 2.24
-6 -7 -4 2.36 2.8
-6 -7 -4 4.64 2.76
-6 7 4 5.14 2.48
6 -7 4 2.42 5.58
6 7 4 -2.3 7.87
6 -7 4 4.44 2.8
6 -7 -4 1.47 2.15
6 7 4 -3.08 8.39
-6 7 -4 6.15 3.27
6 -7 4 9.46 7.96
6 -8 -4 763.41 44.34
6 8 -4 717.02 43.7
-6 -8 4 735.93 45.16
-6 -8 -4 741.53 45.06
-6 -8 -4 719.23 44.61
-6 8 4 717.11 43.41
-6 8 -4 729.64 46.05
6 -8 -4 700.48 44.47
6 -8 4 630.18 56.71
6 8 4 646.45 55.76
6 8 4 650.58 60.93
6 -8 4 562.87 59.5
-6 -9 4 27.65 5.87
6 9 -4 22.64 4.7
6 -9 -4 23.84 5.19
6 -9 4 5.74 8.41
-6 9 -4 11.22 4.62
-6 -9 -4 20.74 4.97
-6 -9 -4 25.75 5.6
-6 9 4 21.62 4.53
6 -9 4 11.44 8.55
6 9 4 19.39 11.78
6 -9 -4 11.99 4.47
6 9 4 19.7 11.27
6 -10 -4 952.03 56.58
6 10 -4 989.08 55.78
-6 -10 4 1013.18 58.08
-6 -10 -4 964.56 57.03
-6 -10 -4 983.24 56.78
-6 10 4 1001.94 55.92
-6 10 -4 932.08 58.28
6 -10 -4 822.19 56.57
6 -10 4 761.03 67.46
6 10 4 846.75 67.42
6 10 4 896.92 72.71
6 -10 4 885.45 73.08
-6 -11 4 21.51 5.08
6 11 -4 22.91 4.44
6 11 4 5.2 8.1
6 -11 4 15.94 8.72
-6 -11 -4 28.02 5.61
-6 11 -4 19.92 5.53
-6 11 4 30.41 5.13
6 -11 -4 16.79 5.01
6 -11 4 8.63 9.22
6 11 4 10.21 7.36
6 12 -4 403.04 26.59
-6 -12 4 376.83 28.5
6 12 -4 428.43 27.35
-6 12 4 419.94 27.13
6 -12 -4 367.71 28.75
6 -12 4 307.72 35.69
6 12 4 364.52 36.04
6 12 4 328.96 38.02
6 -12 4 352.44 39.41
-6 -13 4 11.63 4.14
6 13 -4 10.38 3.23
6 13 4 16.98 6.62
6 -13 4 12.47 7.28
6 13 -4 8.54 3.22
-6 13 4 10.07 3.58
6 -13 -4 5.93 3.55
6 -13 4 8.25 6.02
6 13 4 3.89 6.02
-6 -13 4 4.52 4.67
-6 13 4 4.48 6.11
-6 -14 4 64.8 9.2
6 14 4 75.33 15.03
6 -14 4 21.81 11.53
6 14 -4 68.23 7.95
6 14 -4 66.32 7.96
-6 14 4 58.51 8
6 -14 4 56.42 12.78
6 14 4 45.39 11.06
-6 -14 4 63.12 16.51
-6 14 4 47.61 15.29
-6 -14 4 74.66 14.94
-6 14 4 23.86 10.16
-6 -15 4 19.13 5.44
6 15 4 16 7.12
6 15 -4 23.71 4.58
6 -15 4 9.82 6.77
-6 15 4 11.51 8.94
-6 -15 4 19.19 9.1
-6 16 4 38.86 11.52
-6 -16 4 22.7 7.5
6 0 5 7.18 16.53
-6 0 -5 2.45 2.06
6 0 5 -5.32 10.95
-6 0 5 -1.37 4.69
6 0 5 6.64 3.6
-6 0 -5 4 2.91
6 1 5 67.56 24.97
6 -1 5 96.41 29.51
6 1 -5 87.71 10.34
-6 -1 -5 96.73 10.45
-6 1 -5 95 10.52
6 -1 5 74.47 23.74
6 1 5 49.68 19.79
-6 -1 5 83.11 12.36
-6 1 5 93.87 14.13
6 1 5 103.84 12.38
6 -1 5 102.06 12.37
-6 -1 -5 115.43 12.47
-6 1 -5 99.16 11.9
6 -2 -5 24.69 4.88
6 2 -5 29.08 5.69
-6 2 -5 29.75 5.72
-6 2 5 35.06 5.18
-6 -2 -5 29.63 5.54
6 2 5 23.52 14.06
-6 -2 5 28.13 6.73
-6 2 5 17.4 7.32
6 2 5 39.68 7.34
6 -2 5 29.79 6.6
-6 -2 -5 31.83 6.78
-6 2 -5 26.56 5.93
6 -3 -5 156.26 13.88
6 -3 5 141.75 30.87
6 3 -5 158.55 14.45
-6 3 5 162.64 13.4
-6 -3 -5 148.82 14.02
-6 3 -5 150.67 14.51
6 3 5 169.73 28.58
-6 -3 5 136.14 15.05
-6 3 5 190.26 23.39
6 3 5 164.95 16.48
-6 -3 -5 154.75 15.8
-6 3 -5 177.39 16.18
6 -4 -5 9.41 3.07
6 4 5 -4.08 8.39
6 -4 5 -4.11 10.36
6 4 -5 -0.81 1.68
-6 4 -5 1.7 1.75
-6 4 5 1.85 1.8
-6 -4 -5 3.07 2.5
6 -4 5 3.42 8.63
6 4 5 6.25 5.57
-6 4 5 -7.01 8.67
-6 4 -5 0.98 2.85
-6 -4 -5 2.14 2.7
6 -5 -5 1.48 1.53
6 5 5 11.14 7.65
6 5 -5 1.61 2.03
-6 5 -5 0.87 1.56
-6 5 5 0.61 1.54
-6 -5 -5 0.77 1.77
6 -5 5 -3.13 5.58
6 5 5 -2.87 7.24
-6 5 5 2.73 5.63
-6 5 -5 1 2.06
6 -6 -5 27.26 5.37
6 6 -5 41.27 6.23
6 6 5 17.16 10.1
6 -6 5 6.99 8.93
-6 6 -5 22.14 5.28
-6 6 5 29.12 4.93
-6 -6 -5 29.81 5.42
6 -6 5 34.66 11.98
6 6 5 27.04 10.52
-6 6 5 38.21 13.19
-6 6 -5 28.87 6.23
6 -7 -5 134.84 12.98
6 7 5 148.32 25.82
6 -7 5 98.91 22.59
6 7 -5 142.56 13.25
-6 -7 5 134.01 13.8
-6 -7 -5 150.55 13.42
-6 7 5 143.93 12.24
-6 -7 -5 130.69 13.09
-6 7 -5 157.93 14.49
6 -7 5 143.48 23.05
6 7 5 114.69 21.35
6 -7 -5 117.23 12.09
-6 7 5 114.29 22.65
-6 7 5 132.14 23.38
-6 7 -5 137.18 14.39
6 -8 -5 155.6 14.12
6 8 5 110.12 22.04
6 -8 5 119.23 23.44
6 8 -5 179.14 14.47
-6 -8 5 165.31 15.1
-6 -8 -5 162.08 14.27
-6 8 5 167.2 13.32
-6 -8 -5 150.19 14.08
-6 8 -5 157.1 14.99
6 -8 5 168.66 16.95
6 -8 5 129.36 22.5
6 8 5 127.21 22.15
6 -8 -5 119.78 12.91
-6 8 5 67.64 17.53
-6 -8 5 171.64 26.32
-6 8 5 165.11 25.7
6 -9 -5 70.16 8.78
6 9 5 41.01 14.83
6 -9 5 93.24 21.03
6 9 -5 67.08 8.27
-6 -9 5 82.66 10.07
-6 9 -5 61.78 8.99
-6 -9 -5 67.07 8.54
-6 -9 -5 65.9 8.59
-6 9 5 67.7 7.65
6 -9 5 47.34 13.97
6 9 5 46.86 12.73
6 -9 5 73.51 10.66
-6 9 5 23.83 10.64
-6 -9 5 75.46 21.11
6 -9 -5 59.59 8.11
-6 -9 5 60.2 15
-6 9 5 73.43 15.93
-6 -10 5 1.91 2.21
6 10 -5 3.65 2.38
6 -10 -5 2.53 1.75
6 10 5 11.28 7.68
6 -10 5 5.81 7.33
-6 -10 -5 7.6 3.13
-6 10 5 6.79 2.3
6 -10 5 11.98 7.41
6 10 5 6.81 6.61
-6 -10 5 3.81 7.85
-6 10 5 -7.15 9.01
6 -10 -5 2.39 2.33
-6 -10 5 2.63 5.43
-6 10 5 -2.61 5.38
-6 -11 5 58.24 8.72
6 -11 -5 62.81 8.81
6 11 5 54.45 15.16
6 -11 5 42.12 15.07
6 11 -5 76.6 8.58
6 -11 -5 47.08 8.04
6 -11 5 55.85 13.49
6 11 5 74.77 15.67
-6 -11 5 62.41 19.16
-6 11 5 75.78 18.69
-6 -11 5 56 13.98
-6 11 5 75.61 16.51
-6 -12 5 28.58 6.05
6 -12 5 29.88 10.89
6 -12 -5 29.39 6.12
6 12 5 14.92 8.29
-6 -12 5 28.36 12.16
-6 12 5 19.97 9.76
-6 -12 5 14.79 7.27
-6 12 5 7.31 8.4
6 -13 -5 114.61 13.09
6 0 6 314.62 54.78
6 0 -6 238.62 20.13
-6 0 -6 261.84 19.99
6 0 6 149.9 35.7
-6 0 6 269.15 24.79
-6 0 6 252.34 57.95
-6 0 6 99.68 36.71
-6 0 -6 281.33 22.46
6 1 6 25.25 16.13
6 -1 6 24.88 18.3
6 1 -6 65.14 8.64
-6 -1 -6 54.73 8.15
-6 -1 -6 47.25 7.05
-6 1 -6 53.4 7.55
6 -1 6 68.24 24.28
6 1 6 14.29 14.95
-6 -1 6 45.91 9.49
-6 1 6 54.4 11.13
-6 -1 6 78.93 36.72
-6 1 6 50.11 24.27
-6 -1 -6 56.41 9.25
-6 1 -6 50.08 8.69
6 -2 -6 237.16 18.53
6 -2 6 216.25 40.69
6 2 -6 241.48 19.38
-6 -2 -6 225.28 18.17
-6 2 -6 204.36 18.07
-6 -2 -6 221.25 19.16
6 2 6 162.5 32.52
-6 -2 6 232.77 21.45
-6 2 6 243.21 24.9
-6 -2 6 260.72 51.68
-6 2 6 190.3 37.56
-6 -2 -6 215.42 20.34
-6 2 -6 251.87 21
6 -3 -6 14.36 4.58
6 -3 6 23.95 15.62
6 3 -6 26.57 5.9
-6 3 -6 9.24 3.66
-6 -3 -6 38.01 6.87
-6 -3 -6 13.77 4.25
6 3 6 -3.71 16.21
-6 3 6 14.68 7.37
-6 -3 6 -6.96 22.68
-6 3 6 -6 12.39
6 -3 6 17.39 5.79
-6 3 -6 17.98 5.29
-6 3 6 13.72 13.34
-6 -3 -6 44.72 9.39
6 -4 -6 983.51 56.98
6 4 -6 987.34 57.44
-6 -4 -6 880.05 55.73
-6 -4 -6 965.26 57.64
-6 4 -6 874.35 56.4
-6 4 6 974.74 69.57
-6 -4 6 1157.68 103.04
-6 4 6 1030.87 93.81
6 -4 6 824.69 78.74
6 4 6 731.71 74.04
6 -4 6 1047.52 60.79
-6 -4 6 854.69 81.28
-6 4 6 919.17 82.68
6 4 6 839.48 82.26
6 -4 6 824.79 83.65
-6 -4 -6 879.7 59.38
-6 4 -6 1027.76 59.87
6 -5 -6 44.86 7.56
6 5 -6 52.91 7.72
6 5 6 50.82 19.83
6 -5 6 19.86 17.48
-6 5 -6 50.82 7.95
-6 -5 -6 37.77 6.29
6 -5 6 23.67 17.88
6 5 6 12.36 12.91
-6 5 6 14.68 14.85
-6 -5 6 38.27 20.41
-6 5 6 4.91 16.13
-6 5 -6 61.5 9.92
-6 -5 6 55.53 20.63
-6 5 6 47.74 18.64
-6 -5 -6 34.88 8.81
6 -6 -6 570.56 37.41
6 6 -6 613.52 37.86
-6 -6 -6 513.1 35.84
-6 6 -6 536.65 37.35
-6 6 6 735.87 59.56
-6 6 6 543.16 61.71
6 6 6 504.31 51.72
6 -6 6 440.25 55.4
-6 6 -6 626.64 40.42
6 -7 -6 7.77 3.46
6 7 -6 5.8 3.1
-6 -7 -6 8.16 3.76
6 -8 -6 201.95 17.97
-6 -8 6 215.94 18.92
-6 -8 -6 205.02 17.07
6 -9 -6 27.06 6.13
-6 -9 -6 30.9 5.58
6 -10 -6 46.4 7.72
6 -11 -6 44.96 7.92
-6 0 7 -1.36 3.7
-6 0 -7 -0.79 2
-6 1 7 54.31 10.52
-6 1 -7 38.11 6.57
-6 -1 -7 50.7 7.24
6 -2 -7 64.09 8.54
-6 2 7 54.37 11.22
-6 -2 -7 57.35 7.68
6 -3 -7 100.03 11.1
-6 3 7 79.62 14.39
-6 -3 -7 98.97 10.39
-6 -4 -7 70.82 8.88
6 -4 -7 93.04 10.51
-6 -5 -7 0.73 1.68
6 -5 -7 -0.91 1.88
-6 -6 -7 18.67 4.16
7 0 0 1.79 1.79
-7 0 0 0.85 1.97
7 0 0 3.83 3.12
-7 0 0 4.18 2.75
7 -1 0 129.42 11
-7 -1 0 135.34 13.49
-7 1 0 106.22 12.46
-7 -1 0 144.06 12.99
7 1 0 145.48 14.53
7 -1 0 145.85 14.63
-7 -1 0 155.2 12.05
-7 1 0 154.88 11.74
-7 -2 0 9.19 4.07
-7 -2 0 3.42 3.06
-7 2 0 2.57 2.18
7 -2 0 2.94 2.86
7 2 0 16.95 5.23
-7 -2 0 19.88 4.77
-7 3 0 486.35 33.78
-7 -3 0 513.55 32.64
7 -3 0 549.32 35.81
7 3 0 486.95 34.42
-7 -3 0 484.64 31.3
-7 -4 0 17.56 5.27
-7 4 0 4.32 3.27
7 -4 0 8.12 4.48
7 4 0 26.63 6.58
-7 -4 0 31.68 6.42
-7 -5 0 947.24 55.68
-7 5 0 949.67 58.12
7 -5 0 1007.94 59.99
7 5 0 959.79 58.47
-7 -5 0 918.27 55.65
-7 6 0 0.9 4.27
-7 -6 0 6.12 3.28
7 -6 0 1.06 4.5
-7 -7 0 328.18 22.76
-7 7 0 333.46 25.23
7 -7 0 330.41 26.43
-7 8 0 -1.84 2.68
-7 -8 0 4.14 2.36
7 -8 0 2.19 2.98
-7 -9 0 135.15 11.93
-7 -10 0 0.59 1.91
-7 -11 0 52.17 6.66
-7 -12 0 -1.74 2.46
7 0 -1 0.56 1.28
-7 0 1 1.98 2.04
-7 0 1 -0.84 2.11
7 0 1 1.02 2.58
7 0 -1 -0.89 2.42
-7 0 -1 1.92 2.28
7 1 -1 6.44 2.55
7 -1 -1 2.91 1.91
-7 -1 1 6.4 2.73
-7 -1 -1 7.93 3.28
-7 -1 1 6.68 2.99
-7 1 1 3.34 2.59
7 -1 1 5.13 3
7 -1 -1 2.71 2.64
7 1 1 11.15 4.05
7 1 -1 7.02 3.62
-7 -1 -1 12.31 4.07
-7 1 -1 2.58 2.41
7 2 -1 247.48 17.78
-7 -2 1 232.33 19.76
-7 2 1 241.77 19.93
-7 -2 1 268.77 18.88
-7 -2 -1 257.69 19.87
7 2 1 236.46 21.06
7 2 -1 230.32 20.02
7 -2 1 260.84 21.8
7 -2 -1 274.76 21.37
-7 -2 -1 258.86 19.17
-7 2 -1 271.3 19.1
7 3 -1 42.81 5.62
-7 -3 1 51.22 6.42
-7 -3 -1 50.22 7.14
-7 -3 1 44.98 7.12
-7 -3 -1 46.1 7.38
-7 3 1 52.49 7.7
-7 3 -1 42.47 7.33
7 -3 1 51.35 8.69
7 -3 -1 37.54 7.36
7 3 1 40.03 7.38
7 3 -1 43.68 7.12
-7 -3 -1 47.84 6.76
7 4 -1 47.86 5.79
-7 -4 1 51.44 7.76
-7 -4 1 47.09 6.3
-7 4 1 62.11 8.24
-7 -4 -1 65.63 8.06
-7 -4 -1 49.6 7.71
-7 4 -1 51.23 7.88
7 -4 -1 67.22 9.02
7 -4 1 50.99 8.53
7 4 1 59.38 8.87
7 4 -1 68.73 8.67
-7 -4 -1 58.31 7.67
7 5 -1 -0.44 1.12
-7 5 -1 0.92 1.64
-7 -5 1 1.09 1.77
-7 -5 -1 3.52 2.61
-7 -5 1 0.86 1.77
-7 -5 -1 -1.75 2.01
-7 5 1 1.69 2.13
7 -5 1 -1.08 3.35
7 -5 -1 0.99 2.49
7 5 -1 7.39 3.27
7 5 1 2.94 2.47
-7 -5 -1 3.63 2.59
-7 6 -1 30.58 6.02
-7 -6 1 29.22 4.66
-7 -6 -1 29.35 5.27
-7 -6 1 28.56 5.58
-7 6 1 43.69 6.68
7 -6 1 27.66 6.13
7 -6 -1 33.08 6.56
-7 -6 -1 29.68 5.71
-7 -7 1 17.2 3.72
-7 -7 -1 16.07 4.01
-7 7 1 20.08 4.68
7 -7 1 18.07 5.53
7 -7 -1 25.54 5.64
-7 -7 -1 14.18 4.54
-7 -8 1 103.03 9.91
-7 -8 -1 120.11 11.3
-7 8 1 124.35 12.75
7 -8 -1 120.74 13.5
-7 9 1 9.05 3.42
-7 -9 -1 12.43 3.62
-7 -9 1 14.95 3.2
-7 -10 -1 2.59 2.12
-7 -10 1 4.6 2.24
-7 -11 1 63.07 7.06
-7 -11 -1 51.93 7.1
7 0 -2 29.39 5.8
-7 0 2 37.27 6.21
-7 0 2 21.94 5.7
-7 0 -2 21.14 5.36
7 0 2 36.78 7.63
7 0 -2 27.73 6.42
7 1 -2 954.67 55.9
7 -1 -2 946.89 56.15
-7 -1 2 944.54 57.58
-7 1 2 960.89 57.61
-7 -1 -2 994.32 58.49
-7 1 -2 910.72 57.82
-7 -1 2 928.28 54.86
-7 1 2 952.86 55.38
-7 -1 -2 920.94 57.61
7 1 2 969.97 60.26
7 1 -2 929.02 57.33
7 -1 2 1007.88 60.55
7 -1 -2 954.2 57.84
-7 -1 -2 989.96 57.41
-7 1 -2 1005.65 57.47
7 2 -2 2.47 2.12
-7 -2 2 7.07 2.86
-7 -2 -2 3.36 3.35
-7 -2 2 1.66 2.96
-7 2 2 8.12 4.19
-7 -2 -2 -0.88 2.72
-7 2 -2 8.06 4.13
7 -2 -2 13.64 4.57
7 2 2 2.15 3.32
7 2 -2 7.09 3.15
-7 -2 -2 10.94 4.48
7 3 -2 194.37 14.78
-7 -3 2 172.83 15.87
-7 -3 -2 165.45 15.93
-7 3 2 173.39 15.7
-7 -3 2 168.51 13.45
-7 -3 -2 182.43 16.05
7 -3 -2 180.49 16.41
7 3 2 211.55 18.55
7 3 -2 187.81 15.83
7 -3 2 179.16 17.63
-7 -3 -2 176.3 15.89
-7 3 -2 193.51 16.01
7 4 -2 10.51 2.86
-7 -4 2 10.16 2.89
-7 -4 -2 8.02 3.23
-7 -4 2 5.86 3.26
-7 -4 -2 14.9 4.36
-7 4 2 11.32 3.84
7 -4 2 14.46 5.01
7 -4 -2 6.32 3.75
7 4 2 7.38 3.47
-7 4 -2 10.02 4.13
-7 -4 -2 8.16 3.6
7 5 -2 49.96 6.44
-7 -5 2 49.49 5.97
-7 5 2 75.48 8.92
-7 -5 -2 65.54 8.27
7 -5 2 58.56 9.26
7 -5 -2 59.42 8.65
7 5 2 67.9 9.73
-7 -5 -2 62.25 8.54
7 6 -2 3.18 1.83
-7 -6 2 8.37 2.58
-7 -6 -2 6.75 3.1
-7 6 2 5.74 2.81
7 -6 -2 2.84 2.59
-7 -6 -2 5.23 3.49
7 7 -2 152.22 12.17
-7 -7 -2 143.52 13.54
-7 7 2 148.32 14.03
7 -7 -2 158.09 15.48
-7 -7 -2 145.31 14.64
7 8 -2 11.17 3.28
-7 -8 -2 10.14 3.81
-7 8 2 4.17 2.74
7 -8 -2 0.99 2.89
-7 9 2 898.28 53.74
7 -9 -2 831.55 54.78
7 0 -3 -1.48 2.15
-7 0 3 -0.8 2.17
7 0 3 1.14 2.87
-7 0 -3 3.41 2.49
7 1 -3 26.69 4.96
7 -1 -3 21.98 4.76
-7 -1 -3 31.65 6.19
-7 -1 3 20.75 4.72
-7 1 3 25.94 5.25
7 1 3 30.58 7.14
7 -1 3 29.54 6.45
-7 1 -3 28.78 5.75
-7 -1 -3 46.04 7.87
7 2 -3 356.47 24.68
-7 -2 3 337 25.29
-7 2 3 352.36 25.23
-7 -2 -3 353.82 26.08
7 2 3 324.45 27.43
-7 -2 -3 350.98 26.18
-7 2 -3 383.82 26.46
7 3 -3 8.3 3.04
-7 -3 -3 6.17 3.16
-7 3 3 7.79 3.22
7 -3 -3 0.81 2.37
7 3 3 10.07 4.17
-7 3 -3 8.72 4.32
-7 -3 -3 8.08 3.93
7 4 -3 96.02 9.96
-7 4 3 110.03 11.18
-7 -4 -3 102.41 11.18
7 -4 -3 90.47 10.71
7 4 3 96.66 12.24
-7 -4 -3 85.28 10.79
-7 4 -3 103.03 11.28
7 5 -3 3.91 2.02
-7 -5 -3 0.82 2.24
-7 5 3 0.78 2.14
7 -5 -3 1.72 2.51
-7 5 -3 9.77 3.65
-7 -5 -3 3.76 2.91
7 6 -3 52.01 6.82
-7 6 3 52.55 7.42
7 -6 -3 61.08 8.45
-7 -6 -3 45.63 7.9
7 7 -3 96.53 9.5
-7 7 3 91.1 10.33
7 -7 -3 82.44 10.46
-7 -7 -3 93.44 11.77
7 8 -3 198.95 15.22
7 -8 -3 183.63 17.31
-7 8 3 183.79 16.14
7 9 -3 48.6 6.07
7 -9 -3 28.78 6.39
-7 9 3 33.73 6.22
7 10 -3 -0.58 1.68
-7 0 4 56.6 7.6
7 0 -4 60.28 8.11
-7 0 -4 54.07 8.47
-7 1 4 96.37 10.46
7 1 -4 98.28 10.7
7 -1 -4 89.9 10.5
-7 -1 -4 90.28 11.21
-7 1 -4 122.63 12.52
-7 2 4 -1.52 2.59
7 2 -4 7.85 4.28
-7 2 -4 8.41 4.2
-7 3 4 430.45 31.14
7 3 -4 473.21 31.76
-7 -3 -4 482.47 33.9
-7 3 -4 540.45 34.48
-7 4 4 26.86 6.09
7 4 -4 43.91 7.09
-7 4 -4 33.98 7.38
-7 -4 -4 48.34 9.79
-7 5 4 901.72 56.38
7 5 -4 990.08 56.89
-7 -5 -4 874.39 58.81
-7 5 -4 1041.64 59.38
7 6 -4 19.23 4.75
-7 6 4 19.35 5.01
7 7 -4 310.12 21.98
-7 7 4 288.46 22.1
7 8 -4 3.37 1.97
-7 8 4 3.77 2.58
-7 9 4 102.31 10.99
-7 1 5 1.58 2.82
-7 2 5 161.43 20.83
-7 4 5 33.51 5.67
-7 5 5 3.55 2.08

_cod_database_fobs_code 2243689
