#------------------------------------------------------------------------------
#$Date: 2020-08-01 08:04:11 +0300 (Sat, 01 Aug 2020) $
#$Revision: 254731 $
#$URL: file:///home/coder/svn-repositories/cod/cif/2/24/35/2243520.cif $
#------------------------------------------------------------------------------
#
# This file is available in the Crystallography Open Database (COD),
# http://www.crystallography.net/. The original data for this entry
# were provided by IUCr Journals, http://journals.iucr.org/.
#
# The file may be used within the scientific community so long as
# proper attribution is given to the journal article from which the
# data were obtained.
#
data_2243520
loop_
_publ_author_name
'Medjroubi, Mohamed Larbi'
'Boudjada, Ali'
'Hamdouni, Noudjoud'
'Brihi, Ouarda'
'Jeannin, Olivier'
'Meinnel, Jean'
_publ_section_title
;
 Crystal structure and Hirshfeld surface analysis of
 2,6-diiodo-4-nitrotoluene and 2,4,6-tribromotoluene
;
_journal_coeditor_code           DJ2011
_journal_issue                   8
_journal_name_full               'Acta Crystallographica Section E'
_journal_page_first              1391
_journal_page_last               1397
_journal_paper_doi               10.1107/S2056989020010270
_journal_volume                  76
_journal_year                    2020
_chemical_compound_source        'see text'
_chemical_formula_iupac          'C7 H5 Br3'
_chemical_formula_moiety         'C7 H5 Br3'
_chemical_formula_sum            'C7 H5 Br3'
_chemical_formula_weight         328.84
_chemical_name_systematic
;
2,4,6-Tribromotoluene
;
_space_group_crystal_system      monoclinic
_space_group_IT_number           14
_space_group_name_Hall           '-P 2yn'
_space_group_name_H-M_alt        'P 1 21/n 1'
_atom_sites_solution_hydrogens   geom
_atom_sites_solution_primary     direct
_atom_sites_solution_secondary   difmap
_cell_angle_alpha                90
_cell_angle_beta                 110.519(2)
_cell_angle_gamma                90
_cell_formula_units_Z            4
_cell_length_a                   14.3484(11)
_cell_length_b                   3.9955(3)
_cell_length_c                   15.6975(12)
_cell_measurement_reflns_used    2989
_cell_measurement_temperature    150(2)
_cell_measurement_theta_max      27.51
_cell_measurement_theta_min      2.38
_cell_volume                     842.83(11)
_computing_cell_refinement
;
SAINT (Bruker, 2006)
;
_computing_data_collection
;
APEX2 (Bruker, 2006)
;
_computing_data_reduction
;
SAINT (Bruker, 2006)
;
_computing_molecular_graphics
;
ORTEP-3 for Windows (Farrugia, 2012) and Mercury (Macrae <i>et al.</i>,
2020)
;
_computing_publication_material
;
WinGX publication routines (Farrugia, 2012)
;
_computing_structure_refinement
;
SHELXL2018/3 (Sheldrick, 2015)
;
_computing_structure_solution
;
SIR2004 (Burla <i>et al.</i>,  2005)
;
_diffrn_ambient_temperature      150(2)
_diffrn_detector                 'CCD plate'
_diffrn_measured_fraction_theta_full 0.999
_diffrn_measured_fraction_theta_max 0.991
_diffrn_measurement_device_type  'Bruker APEXII'
_diffrn_measurement_method       'CCD rotation images, thin slices'
_diffrn_radiation_type           MoK\a
_diffrn_radiation_wavelength     0.71073
_diffrn_reflns_av_R_equivalents  0.0271
_diffrn_reflns_av_unetI/netI     0.0299
_diffrn_reflns_limit_h_max       18
_diffrn_reflns_limit_h_min       -18
_diffrn_reflns_limit_k_max       5
_diffrn_reflns_limit_k_min       -4
_diffrn_reflns_limit_l_max       20
_diffrn_reflns_limit_l_min       -18
_diffrn_reflns_number            6197
_diffrn_reflns_theta_full        25.242
_diffrn_reflns_theta_max         27.534
_diffrn_reflns_theta_min         2.385
_diffrn_standards_interval_count 0
_diffrn_standards_interval_time  0
_diffrn_standards_number         0
_exptl_absorpt_coefficient_mu    14.277
_exptl_absorpt_correction_T_max  0.746
_exptl_absorpt_correction_T_min  0.496
_exptl_absorpt_correction_type   multi-scan
_exptl_absorpt_process_details
;
(SADABS; Bruker, 2006)
;
_exptl_crystal_colour            colourless
_exptl_crystal_density_diffrn    2.592
_exptl_crystal_density_method    'not measured'
_exptl_crystal_description       prism
_exptl_crystal_F_000             608
_exptl_crystal_size_max          0.340
_exptl_crystal_size_mid          0.210
_exptl_crystal_size_min          0.120
_refine_diff_density_max         0.703
_refine_diff_density_min         -0.679
_refine_ls_extinction_coef       0.00060(17)
_refine_ls_extinction_expression Fc^*^=kFc[1+0.001xFc^2^\l^3^/sin(2\q)]^-1/4^
_refine_ls_extinction_method
;
SHELXL-2018/3 (Sheldrick 2015)
;
_refine_ls_goodness_of_fit_ref   1.076
_refine_ls_hydrogen_treatment    constr
_refine_ls_matrix_type           full
_refine_ls_number_parameters     93
_refine_ls_number_reflns         1928
_refine_ls_number_restraints     0
_refine_ls_restrained_S_all      1.076
_refine_ls_R_factor_all          0.0337
_refine_ls_R_factor_gt           0.0250
_refine_ls_shift/su_max          0.001
_refine_ls_shift/su_mean         0.000
_refine_ls_structure_factor_coef Fsqd
_refine_ls_weighting_details
'w=1/[\s^2^(Fo^2^)+(0.0154P)^2^+1.1776P] where P=(Fo^2^+2Fc^2^)/3'
_refine_ls_weighting_scheme      calc
_refine_ls_wR_factor_gt          0.0470
_refine_ls_wR_factor_ref         0.0489
_reflns_number_gt                1657
_reflns_number_total             1928
_reflns_threshold_expression     I>2\s(I)
_cod_data_source_file            dj2011sup1.cif
_cod_data_source_block           TBT
_cod_original_sg_symbol_H-M      'P 21/n'
_cod_database_code               2243520
_shelx_estimated_absorpt_t_min   0.085
_shelx_estimated_absorpt_t_max   0.279
_shelx_hkl_file
;
   1   0   0   -0.56    0.12
  -1   0   0   -0.49    0.13
   1   0   0   -0.42    0.11
  -1   0   0   -0.29    0.13
  -2   0   0  311.46    9.07
   2   0   0  310.59    9.06
  -2   0   0  312.54    9.09
   2   0   0  314.63    9.07
  -3   0   0   -0.11    1.31
   3   0   0   -0.95    1.13
  -3   0   0    0.39    1.21
   3   0   0   -2.20    1.03
   4   0   0 5009.90  137.65
  -4   0   0 5107.65  137.94
   4   0   0 4879.19  138.02
  -4   0   0 5167.87  137.04
  -5   0   0   -2.33    2.14
   5   0   0    1.27    1.75
  -5   0   0    0.52    1.74
   5   0   0    1.06    1.49
  -6   0   0 3728.24  101.52
   6   0   0 3662.71  101.50
  -6   0   0 3734.42  101.63
   6   0   0 3765.92  101.62
   7   0   0    1.23    1.91
  -7   0   0   -0.60    3.14
  -7   0   0    0.43    2.34
   7   0   0    0.56    2.57
  -8   0   0    0.77    2.68
   8   0   0   -1.43    3.05
   8   0   0   -1.69    2.05
  -8   0   0    0.01    3.64
   9   0   0    3.11    3.60
  -9   0   0    4.63    4.34
  10   0   0  618.32   19.71
 -10   0   0  610.71   20.17
  11   0   0   -2.51    4.74
 -11   0   0   -3.36    5.70
  12   0   0   11.30    5.75
 -12   0   0   10.13    6.83
 -13   0   0    2.53    7.48
  13   0   0   -1.18    5.84
 -14   0   0  446.24   19.48
  14   0   0  435.87   18.20
  15   0   0    8.67    7.62
 -15   0   0   10.54    9.55
 -16   0   0  141.41   13.45
  16   0   0  169.17   14.05
  17   0   0   -2.76    8.61
 -17   0   0    9.55   11.41
   0  -1   0    1.48    1.23
   0   1   0    0.18    1.42
  -1  -1   0    7.53    1.67
  -1  -1   0   12.07    1.58
   1  -1   0    8.97    1.53
   1   1   0    3.42    1.06
   1   1   0   15.92    1.70
   1   1   0   10.08    1.64
  -1   1   0    9.60    1.64
   2  -1   0 9775.85  261.03
  -2  -1   0 8994.88  261.53
  -2  -1   0 9999.99  262.00
   2   1   0 9895.07  262.21
  -2   1   0 9862.22  261.15
   2   1   0 9179.97  260.23
   3  -1   0 1978.65   53.16
   3  -1   0 1944.71   53.07
  -3  -1   0 1940.05   53.31
  -3  -1   0 1909.56   53.45
   3   1   0 2001.48   53.50
  -3   1   0 1931.37   53.19
   3   1   0 1931.74   53.29
  -3   1   0 1907.47   53.04
  -4  -1   0 3011.57   79.38
  -4  -1   0 2882.85   79.50
   4  -1   0 2831.74   79.05
   4  -1   0 2949.19   79.23
  -4   1   0 2848.87   79.08
   4   1   0 2943.25   79.51
   4   1   0 2847.65   79.31
  -4   1   0 2920.92   79.27
  -5  -1   0  720.50   20.86
   5  -1   0  706.53   20.37
   5  -1   0  722.52   20.65
  -5  -1   0  692.53   20.84
  -5   1   0  724.85   20.72
   5   1   0  751.96   20.93
   5   1   0  713.36   20.72
  -5   1   0  692.12   20.40
   6  -1   0  374.48   11.83
  -6  -1   0  370.55   12.20
  -6  -1   0  386.80   12.00
   6  -1   0  351.65   11.37
   6   1   0  367.43   11.92
  -6   1   0  372.46   12.04
   6   1   0  362.98   11.95
  -6   1   0  363.00   11.51
  -7  -1   0 1738.11   48.44
   7  -1   0 1696.40   48.27
  -7   1   0 1685.29   48.00
   7   1   0 1736.54   48.35
   7   1   0 1724.30   48.45
  -7   1   0 1777.16   48.44
   8  -1   0  813.29   23.76
  -8  -1   0  808.30   24.04
  -8   1   0  787.49   23.29
   8   1   0  770.02   23.68
   8   1   0  774.93   23.70
  -8   1   0  807.49   23.97
  -9  -1   0    7.00    4.93
   9  -1   0    0.67    3.95
  -9   1   0   -3.84    4.42
   9   1   0   -0.26    3.81
   9   1   0    4.77    3.22
  -9   1   0    4.53    3.19
 -10  -1   0  110.46    7.89
  10  -1   0   91.24    7.92
 -10   1   0  107.12    9.26
  10   1   0   95.75    6.90
 -10   1   0   88.12    6.53
  11  -1   0  849.01   27.24
 -11  -1   0  896.49   27.63
  11   1   0  880.54   27.26
 -11   1   0  877.57   27.93
  12  -1   0  113.49   10.09
 -12  -1   0  136.65   11.53
 -12   1   0  143.82   12.08
  12   1   0  126.19   10.25
  13  -1   0  230.82   12.92
 -13  -1   0  229.33   14.04
  13   1   0  222.51   13.09
 -13   1   0  235.73   14.86
 -14  -1   0   78.08    9.98
  14  -1   0   78.11    8.79
 -14   1   0   71.71   10.22
  14   1   0   79.49    8.99
 -15  -1   0   15.34    9.58
  15  -1   0   30.01    8.13
 -15   1   0   16.05    9.71
  15   1   0   38.88    8.71
  16  -1   0  246.40   15.90
 -16  -1   0  226.61   17.55
 -16   1   0  253.22   18.14
  16   1   0  263.44   16.38
  17  -1   0  126.28   11.56
 -17  -1   0  122.16   13.18
  17   1   0  128.95   12.22
 -17   1   0  121.99   13.65
   0  -2   0 1263.10   34.98
   0   2   0 1282.64   35.27
   1  -2   0  533.00   15.98
  -1  -2   0  545.02   15.93
  -1   2   0  540.35   16.28
   1   2   0  537.51   16.34
   2  -2   0  564.90   16.41
  -2  -2   0  539.26   16.53
  -2  -2   0  557.01   16.45
   2   2   0  541.15   16.48
   2   2   0  548.46   16.47
   2   2   0  548.44   16.68
   3  -2   0 1122.22   30.27
  -3  -2   0 1068.29   30.32
   3  -2   0 1049.02   29.81
   3  -2   0 1080.43   30.03
  -3  -2   0 1045.13   30.66
   3   2   0 1068.70   30.58
   3   2   0 1068.10   30.35
  -3   2   0 1037.58   30.31
   3   2   0 1070.69   30.21
   4  -2   0  330.16   11.41
  -4  -2   0  347.72   11.39
   4   2   0  333.76   11.20
  -4   2   0  335.52   11.23
   4   2   0  318.90   11.62
  -4   2   0  334.15   10.50
   4   2   0  339.79   11.82
   5  -2   0 1254.69   36.61
  -5  -2   0 1341.29   36.87
  -5   2   0 1303.90   36.32
  -5   2   0 1346.47   37.06
   5   2   0 1330.11   36.85
   5   2   0 1318.21   36.87
   5   2   0 1198.96   37.31
  -6  -2   0  426.75   14.63
   6   2   0  437.31   15.07
  -6   2   0  431.22   13.67
   6   2   0  438.96   14.38
  -6   2   0  465.03   14.76
  -7  -2   0  210.02    9.84
   7  -2   0  214.39    9.12
   7   2   0  212.26    9.31
   7   2   0  216.19    9.86
  -7   2   0  209.11    9.70
  -7   2   0  211.12    8.20
  -8  -2   0  183.71    9.83
   8  -2   0  186.09    8.98
  -8   2   0  196.13    9.89
  -8   2   0  186.07    8.13
   8   2   0  194.98    9.56
   8   2   0  183.67    9.36
   9  -2   0 2713.51   75.52
  -9  -2   0 2752.06   75.55
  -9   2   0 2794.59   75.96
  -9   2   0 2663.98   74.85
   9   2   0 2555.26   75.98
   9   2   0 2727.51   75.52
 -10  -2   0    0.15    6.10
  10  -2   0   10.65    5.30
  10   2   0    4.44    5.47
 -10   2   0   11.44    5.96
 -10   2   0   14.27    4.19
 -11  -2   0  191.34   12.22
  11  -2   0  195.69   11.23
  11   2   0  195.54   11.75
 -11   2   0  202.21   12.82
 -12  -2   0   46.46    8.45
  12  -2   0   55.88    7.40
  12   2   0   44.77    7.65
 -12   2   0   46.76    8.21
 -13  -2   0  387.76   17.64
  13  -2   0  390.55   16.98
 -13   2   0  410.22   18.79
  13   2   0  397.14   17.64
  14  -2   0    3.61    7.38
 -14  -2   0    9.69    9.14
 -14   2   0    2.25    8.52
  14   2   0    8.19    8.29
 -15  -2   0  566.62   24.03
 -15   2   0  594.62   24.64
  15   2   0  599.00   23.74
 -16  -2   0   -3.44   10.58
 -16   2   0   -1.99   10.20
  16   2   0    5.92    9.42
   0   3   0   -6.33    4.25
   1   3   0  196.51   10.07
  -1   3   0  200.22    9.83
   2   3   0   -0.48    4.49
  -3  -3   0   59.47    5.28
   3   3   0   69.27    6.61
  -4  -3   0   -0.25    4.39
   4   3   0   -3.70    4.34
   4   3   0    6.97    3.96
   4   3   0   -3.78    4.63
  -5  -3   0  568.56   18.52
   5  -3   0  569.69   18.78
   5   3   0  585.69   20.03
   5   3   0  578.76   18.68
  -5   3   0  594.74   19.43
   6  -3   0  313.92   12.87
  -6  -3   0  317.57   12.69
   6   3   0  326.83   14.52
   6   3   0  318.36   12.86
  -6   3   0  319.83   11.07
  -6   3   0  323.03   13.53
   7  -3   0  805.64   25.86
  -7  -3   0  806.99   25.49
   7   3   0  841.55   27.24
  -7   3   0  835.63   26.62
   7   3   0  858.77   25.76
  -8  -3   0    6.49    5.73
  -8   3   0    7.40    6.20
   8   3   0    8.99    6.09
   8   3   0   14.19    6.93
  -9  -3   0    0.82    6.33
  -9   3   0   15.50    6.81
   9   3   0   18.65    6.68
   9   3   0   14.94    7.20
 -10  -3   0  168.57   12.20
  10   3   0  188.46   12.32
  10   3   0  175.18   13.68
 -10   3   0  178.10   13.34
  11   3   0  775.59   28.66
 -11   3   0  817.13   28.77
  11   3   0  902.53   27.86
 -12   3   0  139.52   11.63
  12   3   0  129.98   11.39
  12   3   0  155.62   13.47
  13   3   0  491.23   20.32
 -13   3   0  439.10   21.52
  14   3   0   28.48    9.69
 -14   3   0   28.66   10.27
   0   4   0  127.79    9.66
   1   4   0   58.04    7.68
   2   4   0   36.37    7.13
   3   4   0   43.22    7.83
   4   4   0   89.63    9.31
   5   4   0   13.05    7.50
   6   4   0  129.98   11.35
   7   4   0  136.61   12.10
   7   4   0  141.01   11.45
   8   4   0  168.79   13.39
   8   4   0  186.49   12.67
   9   4   0  213.18   17.14
   9   4   0  228.83   13.91
 -10   4   0    0.67    9.25
  10   4   0   14.21    9.53
  10   4   0   16.14    8.44
 -11   4   0   66.02   11.09
  11   4   0   94.93   10.35
   1   5   0   31.08    9.22
   2   5   0   60.59   10.07
   3   5   0   98.16   10.99
   4   5   0   63.73   11.00
  17   0  -1   -1.83    8.59
 -17   0   1   -4.98   11.22
 -16   0   1    2.44   10.32
  16   0  -1   13.40    8.34
 -15   0   1 1054.97   34.68
  15   0  -1 1044.74   33.83
 -14   0   1    1.70    8.35
  14   0  -1    3.31    6.57
 -13   0   1 1616.89   48.36
  13   0  -1 1654.44   48.09
 -12   0   1    1.51    6.66
  12   0  -1    1.16    5.38
 -11   0   1   44.12    6.81
  11   0  -1   42.82    5.75
  10   0  -1   -1.60    4.03
 -10   0   1    3.69    5.08
  -9   0   1 1899.41   53.07
   9   0  -1 1926.58   52.95
  -9   0   1 1819.01   52.63
   8   0  -1   -2.42    2.90
  -8   0   1    2.15    2.63
  -8   0   1    0.82    3.74
   8   0  -1    1.80    2.17
   7   0  -1 2006.08   57.63
  -7   0   1 2181.41   57.97
   7   0  -1 2097.30   57.84
  -7   0   1 2064.23   57.72
   6   0  -1    6.81    1.82
  -6   0   1   -1.42    2.61
  -6   0   1    2.71    2.13
   6   0  -1    5.16    2.31
  -5   0   1  228.77    7.68
   5   0  -1  226.92    7.47
  -5   0   1  222.30    7.39
   5   0  -1  218.10    7.23
  -4   0   1   -2.24    1.78
   4   0  -1   -0.27    1.18
   4   0  -1    2.70    1.50
  -4   0   1   -0.35    1.42
   3   0  -1  284.12    8.31
  -3   0   1  292.21    8.47
  -3   0   1  277.39    8.34
   3   0  -1  277.83    8.36
   2   0  -1    2.51    0.83
   2   0  -1   -0.37    0.70
  -2   0   1   -0.38    0.81
  -2   0   1    2.46    0.84
   1   0  -1   -1.04    0.22
  -1   0   1   -0.84    0.22
   0   0  -1   -0.35    0.12
   0   0   1   -0.18    0.12
   0   0   1   -0.25    0.12
   0   0  -1   -0.26    0.11
  -1   0  -1   42.98    1.68
   1   0   1   43.72    1.68
   1   0   1   43.34    1.66
  -1   0  -1   42.92    1.62
   2   0   1    1.93    1.08
  -2   0  -1   -0.25    1.07
   2   0   1   -1.96    0.98
  -2   0  -1   -3.25    0.95
  -3   0  -1 1821.02   49.81
  -3   0  -1 1806.30   49.81
   3   0   1 1835.96   49.82
   3   0   1 1812.40   49.80
  -4   0  -1    2.79    1.56
   4   0   1    0.03    1.37
   4   0   1   -0.03    1.56
  -4   0  -1   -0.58    1.71
   5   0   1 1673.03   46.92
  -5   0  -1 1651.69   46.91
   5   0   1 1726.56   46.88
  -5   0  -1 1723.66   46.89
  -6   0  -1    1.30    2.17
   6   0   1    2.68    2.33
  -6   0  -1   -0.91    2.64
   6   0   1    0.41    1.81
  -7   0  -1  751.82   22.10
  -7   0  -1  767.54   22.31
   7   0   1  730.99   21.96
   7   0   1  763.86   22.19
  -8   0  -1    0.29    3.01
  -8   0  -1    0.61    3.74
   8   0   1    0.01    3.31
   8   0   1    0.64    2.56
  -9   0  -1  888.94   26.57
   9   0   1  874.63   26.35
 -10   0  -1    8.27    5.18
  10   0   1    5.73    4.22
 -11   0  -1  596.06   20.42
  11   0   1  589.97   19.84
  12   0   1    4.78    5.51
 -12   0  -1    0.97    6.64
 -13   0  -1    3.16    7.49
  13   0   1    4.41    6.11
  14   0   1    1.52    6.79
 -14   0  -1   14.30    8.96
  15   0   1  112.95   10.16
 -15   0  -1  106.71   11.75
  16   0   1    2.42    8.19
 -16   0  -1   -6.07   10.14
  17   0   1  151.70   12.25
 -17   0  -1  123.31   13.69
 -17  -1   1  417.75   21.61
  17  -1  -1  428.33   20.58
 -17   1   1  421.09   22.56
  17   1  -1  439.45   20.61
  16  -1  -1   79.33   10.08
 -16  -1   1   88.96   11.95
 -16   1   1   85.49   12.25
  16   1  -1   89.51   10.31
  15  -1  -1  370.22   17.63
 -15  -1   1  363.32   18.67
  15   1  -1  372.32   17.93
 -15   1   1  386.74   19.70
  14  -1  -1   13.21    7.18
 -14  -1   1    6.81    8.80
 -14   1   1   -0.26    8.64
  14   1  -1   -3.73    7.11
 -13  -1   1  366.86   17.10
  13  -1  -1  394.03   16.24
 -13   1   1  411.16   17.75
  13   1  -1  366.64   16.18
  12  -1  -1   98.34    7.85
 -12  -1   1  102.14    9.15
  12   1  -1   92.23    7.95
 -12   1   1  109.34    9.22
  11  -1  -1 1595.09   46.84
 -11  -1   1 1597.85   47.14
 -11   1   1 1723.15   47.53
  11   1  -1 1577.67   46.88
 -10  -1   1   25.60    6.08
  10  -1  -1   22.87    4.96
 -10   1   1   40.56    6.08
  10   1  -1   25.28    5.05
 -10   1   1   26.86    3.91
  -9  -1   1  674.36   21.62
   9  -1  -1  706.27   21.18
   9   1  -1  667.99   21.05
  -9   1   1  659.15   20.52
  -9   1   1  712.67   21.57
   9   1  -1  682.69   21.29
  -8  -1   1  825.59   24.63
   8  -1  -1  818.11   24.16
   8   1  -1  796.59   24.24
  -8   1   1  816.84   23.77
  -8   1   1  813.25   24.34
   8   1  -1  813.92   24.38
  -7  -1   1  344.64   12.08
  -7  -1   1  339.40   11.68
   7  -1  -1  338.49   11.30
  -7   1   1  341.38   11.56
   7   1  -1  323.95   11.56
  -7   1   1  349.16   10.95
   7   1  -1  328.35   11.42
   6  -1  -1   25.63    2.94
  -6  -1   1   26.90    3.25
  -6  -1   1   28.16    3.96
   6  -1  -1   24.37    2.39
  -6   1   1   28.84    3.36
   6   1  -1   24.76    3.03
  -6   1   1   27.74    2.68
   6   1  -1   24.33    3.15
   5  -1  -1 1549.96   43.04
   5  -1  -1 1507.23   42.85
  -5  -1   1 1604.42   43.60
  -5  -1   1 1561.73   43.40
  -5   1   1 1610.38   43.16
   5   1  -1 1543.34   43.37
  -5   1   1 1518.41   42.88
   5   1  -1 1558.46   43.55
  -4  -1   1  482.28   14.79
   4  -1  -1  485.04   14.04
   4  -1  -1  502.22   14.23
  -4  -1   1  488.70   14.79
  -4   1   1  512.19   14.33
   4   1  -1  486.65   14.78
   4   1  -1  485.76   14.64
  -4   1   1  481.27   14.06
  -3  -1   1  366.49   11.63
   3  -1  -1  385.91   10.94
  -3  -1   1  386.39   11.76
   3  -1  -1  397.21   11.08
   3   1  -1  381.09   11.77
   3   1  -1  402.91   11.67
  -3   1   1  347.79   10.90
  -3   1   1  395.84   11.14
  -2  -1   1 2510.51   67.24
  -2  -1   1 2438.94   67.31
   2  -1  -1 2575.44   65.54
   2   1  -1 2423.85   67.24
   2   1  -1 2347.77   67.22
   1  -1  -1  285.31    8.57
  -1  -1   1  284.74    8.74
  -1  -1   1  291.84    8.79
  -1   1   1  282.29    8.61
   1   1  -1  274.64    8.74
   1   1  -1  284.03    8.65
   1   1  -1  284.92    8.42
   0  -1  -1   27.12    2.25
   0  -1   1   30.54    2.10
   0  -1   1   24.88    2.17
   0  -1   1   26.08    2.04
   0   1  -1   28.59    2.04
   0   1   1   23.87    2.07
   0   1  -1   30.07    2.32
   0   1  -1   27.82    2.18
   1  -1   1  847.77   23.14
   1  -1   1  845.82   23.17
  -1  -1  -1  828.57   22.70
   1  -1   1  819.73   22.54
   1   1   1  829.81   22.78
  -1   1  -1  802.58   23.20
  -2  -1  -1 1342.34   36.84
   2  -1   1 1302.89   36.74
  -2  -1  -1 1383.45   36.70
  -2   1  -1 1347.15   36.76
   2   1   1 1332.17   36.10
   2   1   1 1333.88   36.85
   2   1   1 1313.24   36.64
  -2   1  -1 1328.76   36.91
   3  -1   1    7.03    1.84
  -3  -1  -1    8.38    2.04
   3  -1   1    9.61    1.64
  -3  -1  -1    8.40    1.93
   3   1   1    8.99    1.76
  -3   1  -1    8.36    1.87
  -3   1  -1    6.73    1.59
   3   1   1    6.77    1.70
   4  -1   1   20.54    2.51
   4  -1   1   25.37    2.25
  -4  -1  -1   24.43    2.53
  -4  -1  -1   25.17    2.80
   4   1   1   19.90    2.24
  -4   1  -1   23.17    2.62
  -4   1  -1   20.05    2.18
   4   1   1   20.57    2.31
  -5  -1  -1  808.00   22.77
   5  -1   1  807.60   22.81
  -5  -1  -1  803.32   22.81
   5  -1   1  767.77   22.49
   5   1   1  763.71   22.77
  -5   1  -1  809.77   22.91
  -5   1  -1  774.53   22.55
   5   1   1  781.06   22.64
  -6  -1  -1   25.66    3.11
  -6  -1  -1   31.17    3.72
   6  -1   1   28.77    2.74
   6  -1   1   33.23    3.43
  -6   1  -1   26.73    3.55
  -6   1  -1   25.72    2.80
   6   1   1   23.80    2.91
   6   1   1   30.05    3.20
   7  -1   1  921.41   26.20
  -7  -1  -1  892.80   26.16
   7   1   1  894.21   26.01
  -7   1  -1  880.57   25.82
   7   1   1  880.35   26.05
  -7   1  -1  889.75   26.31
   8  -1   1    1.64    3.62
  -8  -1  -1   -2.44    4.28
   8   1   1    3.48    2.87
  -8   1  -1    0.40    2.90
  -8   1  -1    2.97    3.98
   8   1   1    0.85    3.37
  -9  -1  -1  168.74    9.41
   9  -1   1  161.70    8.77
   9   1   1  156.63    7.74
  -9   1  -1  178.54    9.55
   9   1   1  153.12    8.57
  -9   1  -1  165.35    7.77
 -10  -1  -1  116.98    8.03
  10  -1   1  101.64    8.34
 -10   1  -1  117.43    8.03
  10   1   1  108.85    8.32
 -11  -1  -1  125.09   10.52
  11  -1   1  124.90    9.31
  11   1   1  115.49    9.43
 -11   1  -1  128.88   10.84
  12  -1   1   19.57    6.16
 -12  -1  -1    6.06    7.13
  12   1   1    5.77    6.09
 -12   1  -1   13.30    7.10
 -13  -1  -1  601.29   21.96
  13  -1   1  593.23   21.43
  13   1   1  611.28   21.59
 -13   1  -1  574.28   22.48
 -14  -1  -1  176.99   14.16
  14  -1   1  160.26   12.61
  14   1   1  179.09   13.24
 -14   1  -1  194.25   15.02
 -15  -1  -1  176.78   14.90
  15  -1   1  157.32   13.33
  15   1   1  168.05   14.06
 -15   1  -1  158.22   12.81
  16  -1   1   28.50    8.42
 -16  -1  -1   24.58   10.52
  16   1   1   40.12    9.34
 -16   1  -1   27.39   10.47
 -16  -2   1    4.67   10.98
 -16   2   1   16.42   10.51
  16   2  -1   13.55    9.78
 -15  -2   1   71.04   11.39
 -15   2   1   71.77   10.90
  15   2  -1   84.27   10.46
  14  -2  -1    3.29    7.25
 -14  -2   1   18.04    9.31
  14   2  -1   21.02    8.19
 -14   2   1   31.98    9.21
  13  -2  -1  431.22   17.77
 -13  -2   1  401.41   18.62
 -13   2   1  455.42   19.42
  13   2  -1  456.03   18.41
 -12  -2   1   -4.81    7.45
  12  -2  -1    0.83    6.01
  12   2  -1    0.15    6.59
 -12   2   1    3.41    7.13
 -11  -2   1  128.32    9.63
  11  -2  -1  133.13    9.60
  11   2  -1  125.08   10.59
 -11   2   1  140.09   11.55
  10  -2  -1  341.11   13.52
 -10  -2   1  335.60   14.51
 -10   2   1  327.44   12.32
  10   2  -1  349.94   14.30
 -10   2   1  355.90   14.82
   9  -2  -1  152.68    8.87
  -9  -2   1  154.74   10.28
   9   2  -1  168.90    9.89
  -9   2   1  165.52   10.15
  -9   2   1  168.12    7.83
   9   2  -1  180.27    9.73
  -8  -2   1    2.98    5.35
   8  -2  -1   12.70    4.01
   8   2  -1    2.36    4.33
  -8   2   1    7.08    3.02
   8   2  -1    6.44    4.28
  -8   2   1    4.34    4.47
   7  -2  -1 1312.97   37.47
  -7  -2   1 1325.32   37.98
  -7   2   1 1293.98   36.97
  -7   2   1 1346.83   37.79
   7   2  -1 1299.18   38.55
   7   2  -1 1306.96   37.84
   6  -2  -1 1043.56   29.26
  -6  -2   1 1018.31   29.69
  -6   2   1  993.39   28.72
   6   2  -1  937.56   30.07
   6   2  -1 1038.16   29.71
  -6   2   1 1058.48   29.52
   5  -2  -1  647.09   20.60
  -5  -2   1  695.33   20.70
   5   2  -1  675.76   21.00
  -5   2   1  687.12   19.57
   5   2  -1  688.37   20.57
  -5   2   1  674.45   20.21
  -4  -2   1 1786.83   48.94
   4  -2  -1 1762.48   48.17
   4   2  -1 1767.56   48.97
   4   2  -1 1775.22   48.11
   4   2  -1 1652.46   49.12
  -3  -2   1 1049.41   30.99
  -3  -2   1 1036.12   30.75
   3  -2  -1 1119.71   30.44
   3   2  -1 1100.32   30.92
   3   2  -1 1073.20   30.84
   3   2  -1 1081.56   30.31
   2  -2  -1  479.63   14.49
  -2  -2   1  470.32   14.59
  -2  -2   1  473.93   14.70
   2   2  -1  462.40   14.72
   2   2  -1  462.92   14.49
   2   2  -1  472.51   14.57
  -1  -2   1  343.77   11.27
  -1  -2   1  362.62   10.95
   1  -2  -1  365.42   11.31
  -1  -2   1  343.04   11.10
   1   2  -1  345.18   11.01
   1   2  -1  333.45   11.36
  -1   2   1  338.56   11.52
   1   2  -1  342.79   11.39
   0  -2   1 1494.48   41.21
   0  -2  -1 1488.56   40.44
   0  -2   1 1472.80   41.08
   0  -2   1 1503.87   40.22
   0   2  -1 1391.94   41.27
   0   2  -1 1477.75   40.96
   0   2   1 1480.63   40.67
   0   2  -1 1504.59   40.50
  -1  -2  -1   16.76    2.68
   1  -2   1   13.10    2.86
   1  -2   1   15.36    2.51
   1  -2   1   10.59    2.23
  -1   2  -1   14.90    3.06
  -1   2  -1    7.72    2.61
   1   2   1   11.50    3.18
   2  -2   1  645.92   18.85
   2  -2   1  650.56   18.85
   2  -2   1  661.55   19.26
  -2   2  -1  653.13   19.41
   2   2   1  642.94   19.38
  -2   2  -1  655.28   18.83
  -3  -2  -1   50.96    4.06
   3  -2   1   58.67    4.10
  -3  -2  -1   57.95    3.84
   3  -2   1   51.80    4.42
  -3   2  -1   57.09    4.10
   3   2   1   53.69    4.41
   3   2   1   53.90    4.53
   3   2   1   42.77    3.81
  -3   2  -1   48.92    3.64
   4  -2   1  103.39    6.18
   4  -2   1  106.09    5.96
  -4  -2  -1  106.96    5.86
   4   2   1  139.87    5.86
   4   2   1  100.42    6.85
  -4   2  -1  114.71    6.30
  -4   2  -1  104.06    5.27
   4   2   1   95.65    6.09
   5  -2   1   -4.55    2.97
  -5  -2  -1   -1.47    3.43
   5   2   1   -0.58    2.94
  -5   2  -1    1.76    2.40
  -5   2  -1    1.64    3.21
   5   2   1    2.21    3.36
   5   2   1    2.78    3.73
  -6  -2  -1   42.62    4.67
  -6   2  -1   45.33    4.92
   6   2   1   34.80    4.21
   6   2   1   35.39    4.49
  -6   2  -1   42.22    3.57
  -7  -2  -1  163.90    8.54
  -7   2  -1  161.28    8.81
   7   2   1  156.40    8.49
  -7   2  -1  165.35    7.38
   7   2   1  153.73    8.22
  -8  -2  -1   24.08    5.41
   8  -2   1   21.28    4.94
  -8   2  -1   24.39    5.26
  -8   2  -1   15.99    3.58
   8   2   1   14.98    4.20
   8   2   1   19.83    4.62
  -9  -2  -1   77.88    6.93
   9  -2   1   90.74    6.83
   9   2   1   75.30    6.47
  -9   2  -1   83.50    6.74
   9   2   1   61.82    5.97
  -9   2  -1   91.93    7.40
  10  -2   1   87.50    7.25
 -10  -2  -1   85.92    7.84
  10   2   1   78.48    7.22
 -10   2  -1   87.38    7.92
 -11  -2  -1  719.91   24.63
  11  -2   1  748.13   24.66
  11   2   1  754.74   24.55
 -11   2  -1  761.20   25.65
  12  -2   1  187.22   12.24
 -12  -2  -1  192.30   13.03
 -12   2  -1  186.43   13.99
  12   2   1  190.50   12.71
 -13  -2  -1   61.19    9.54
  13  -2   1   67.30    8.43
  13   2   1   69.48    9.13
 -13   2  -1   69.75    9.69
 -14  -2  -1    2.00    9.02
  14  -2   1    0.98    7.40
 -14   2  -1    4.83    8.79
  14   2   1    3.94    8.13
 -15  -2  -1  139.59   12.58
  15   2   1  149.34   11.96
 -15   2  -1  131.96   12.83
 -14   3   1   23.86   10.10
  14   3  -1   34.58   10.03
  13   3  -1   65.54    9.68
 -13   3   1   51.79   10.15
 -12   3   1   15.01    8.55
  12   3  -1   23.09    8.38
 -11  -3   1   23.65    7.85
 -11   3   1   35.19    8.23
  11   3  -1   20.85    8.01
 -10  -3   1    2.24    6.82
 -10   3   1   -6.29    6.66
  10   3  -1   10.33    7.30
  10   3  -1   -5.20    7.13
  -9  -3   1  430.67   16.77
  -9   3   1  445.71   17.60
   9   3  -1  412.54   18.50
   9   3  -1  445.66   17.16
  -8  -3   1  168.00   10.92
  -8   3   1  183.88   11.53
   8   3  -1  194.38   12.97
   8   3  -1  183.05   11.25
  -7  -3   1  283.54   12.65
   7  -3  -1  281.71   12.06
   7   3  -1  279.00   14.07
   7   3  -1  285.06   12.74
  -6  -3   1  304.07   12.84
   6   3  -1  304.33   12.95
   6   3  -1  328.15   14.26
  -5  -3   1  879.02   26.68
   5   3  -1  879.54   26.87
   5   3  -1  883.01   27.42
  -4  -3   1  270.04   11.36
   4   3  -1  286.19   11.80
   4   3  -1  271.78   12.30
  -3  -3   1  433.32   14.96
   3   3  -1  457.89   15.46
   3   3  -1  444.21   15.72
   3   3  -1  418.93   14.56
  -2  -3   1 1064.61   31.14
   2   3  -1 1083.20   31.22
   2   3  -1 1041.98   31.34
  -1  -3   1   27.69    4.72
  -1   3   1   29.81    5.11
   1   3  -1   39.45    5.37
   0  -3   1  542.39   17.50
   0   3  -1  540.33   16.63
   0   3   1  570.76   18.43
   0   3  -1  547.97   17.98
  -1   3  -1  518.32   17.31
   1   3   1  531.16   17.77
   2  -3   1   96.71    7.04
  -2   3  -1  107.37    5.61
   2   3   1  108.87    8.39
   3  -3   1   -1.92    4.07
  -3   3  -1    0.31    4.64
   3   3   1   -1.65    4.62
  -3   3  -1    2.25    2.51
   4  -3   1 1043.25   31.14
  -4   3  -1 1052.77   30.12
  -4   3  -1 1077.69   31.75
   4   3   1 1029.39   31.59
  -5  -3  -1  141.32    8.01
   5  -3   1  138.59    9.16
  -5   3  -1  132.52    6.91
   5   3   1  138.47    8.36
  -5   3  -1  134.88    9.54
   5   3   1  139.18   10.27
  -6  -3  -1  272.96   11.27
   6  -3   1  274.76   12.32
   6   3   1  276.83   13.59
  -6   3  -1  279.69   12.86
   6   3   1  271.27   11.66
   7  -3   1   24.94    5.81
  -7  -3  -1   26.31    5.54
   7   3   1   20.33    6.65
   7   3   1   24.12    5.80
  -7   3  -1   23.09    6.58
  -8  -3  -1    2.50    5.67
   8  -3   1   -1.50    5.41
   8   3   1   -0.96    5.77
   8   3   1    1.71    6.41
  -8   3  -1    0.71    6.38
  -9  -3  -1  388.78   15.72
   9   3   1  408.49   16.08
   9   3   1  382.72   17.86
  -9   3  -1  421.70   17.67
  10   3   1   35.31    7.33
 -10   3  -1   39.37    8.09
  10   3   1   33.00    8.11
  11   3   1   50.55    8.27
 -11   3  -1   28.27    8.62
  11   3   1   30.49    8.50
  12   3   1   88.06    9.81
  12   3   1   72.32   10.12
 -12   3  -1   84.86   10.29
 -13   3  -1  247.44   17.40
  13   3   1  188.08   15.90
  13   3   1  246.03   15.65
  11   4  -1   94.09   10.47
  11   4  -1   73.66   11.73
  10   4  -1   40.92   10.51
  10   4  -1   39.18    9.21
   9   4  -1   48.51    8.99
   9   4  -1   50.02   10.16
   8   4  -1   22.39    7.92
   8   4  -1   24.88    9.20
   7   4  -1   85.35    8.52
   7   4  -1   81.56   10.32
   6   4  -1   10.34    7.82
   6   4  -1   22.50    7.14
   5   4  -1   97.42    9.95
   5   4  -1  103.25    8.36
   4   4  -1  270.99   14.75
   3   4  -1   36.22    7.37
   2   4  -1  316.51   15.01
   1   4  -1  166.17   12.09
  -1   4   1  186.34   12.12
   0   4  -1  293.22   14.04
   0   4   1  260.67   14.12
   1   4   1    7.79    6.48
   2   4   1 1081.15   33.82
   3   4   1  155.22   11.22
   4   4   1  291.25   15.63
   5   4   1   27.86    8.18
   6   4   1  325.54   17.54
   7   4   1   80.88   10.52
   8   4   1  519.65   18.66
   8   4   1  523.09   22.60
  -8   4  -1  438.67   21.58
   9   4   1   35.30    7.98
   9   4   1   21.68    9.78
  -9   4  -1   21.96    9.98
 -10   4  -1   29.00    9.98
  10   4   1   33.29   10.46
  10   4   1   37.52    8.62
   4   5  -1   64.53   10.73
   3   5  -1   10.14    8.89
   2   5  -1  168.73   12.90
   1   5  -1   20.27    8.54
   1   5   1   16.64    8.75
   2   5   1   24.76    9.35
   3   5   1   12.14    8.94
   4   5   1  417.74   21.95
  18   0  -2   58.92   10.53
 -18   0   2   55.46   13.26
 -17   0   2   -3.49   11.25
  17   0  -2   -0.58    8.69
  16   0  -2   65.78    9.55
 -16   0   2   70.30   11.46
 -15   0   2   -0.69    9.47
  15   0  -2    0.28    7.44
 -14   0   2  555.05   21.99
  14   0  -2  571.08   21.10
 -13   0   2    4.87    7.77
  13   0  -2    3.33    6.16
  12   0  -2  874.27   27.47
 -12   0   2  878.47   28.01
 -11   0   2   -0.77    5.94
  11   0  -2   -3.38    4.48
  10   0  -2   63.10    5.73
 -10   0   2   57.24    6.44
   9   0  -2    0.85    3.52
  -9   0   2    2.06    4.33
  -9   0   2    3.81    3.14
  -8   0   2  987.73   27.42
  -8   0   2  893.93   26.82
   8   0  -2  927.09   26.78
   8   0  -2  904.07   26.98
  -7   0   2    1.51    2.40
   7   0  -2    0.61    1.89
   7   0  -2   -1.97    2.52
  -7   0   2    1.34    3.32
  -6   0   2  187.40    6.88
   6   0  -2  194.98    7.09
  -6   0   2  193.76    7.54
   6   0  -2  181.96    6.74
  -5   0   2   -0.51    2.39
  -5   0   2    2.77    1.92
   5   0  -2   -0.62    1.79
   5   0  -2    0.74    1.46
   4   0  -2    0.61    1.60
  -4   0   2    1.75    1.57
   4   0  -2    2.13    1.33
  -4   0   2   -0.12    1.72
   3   0  -2    1.50    1.28
  -3   0   2    0.73    1.31
  -3   0   2   -1.63    1.47
   3   0  -2    3.58    1.15
  -2   0   2  953.61   25.86
  -2   0   2  949.97   25.88
   2   0  -2  906.76   25.85
   2   0  -2  937.48   25.85
  -1   0   2    1.11    0.80
  -1   0   2    0.81    0.87
   1   0  -2    0.45    0.73
   1   0  -2    0.40    0.72
   0   0  -2   70.97    2.59
   0   0   2   72.56    2.61
   0   0   2   71.95    2.60
   1   0   2    0.45    0.84
  -1   0  -2    3.01    0.91
  -1   0  -2    0.09    0.75
   1   0   2    0.85    0.81
   2   0   2    9.46    1.33
   2   0   2    9.92    1.35
  -2   0  -2   11.38    1.31
  -2   0  -2   13.02    1.47
   3   0   2    1.25    1.47
   3   0   2    1.32    1.34
  -3   0  -2    2.66    1.63
  -3   0  -2    0.56    1.27
   4   0   2 5579.14  154.71
  -4   0  -2 5675.26  152.16
  -4   0  -2 5533.31  152.08
   4   0   2 5647.91  154.98
  -5   0  -2    2.86    2.34
   5   0   2   -0.75    1.70
   5   0   2    4.64    2.13
  -5   0  -2    3.99    1.93
  -6   0  -2 2941.27   80.93
   6   0   2 2916.50   80.91
  -6   0  -2 2935.31   81.01
   6   0   2 3011.17   81.04
   7   0   2    0.40    2.87
   7   0   2    0.54    2.24
  -7   0  -2    1.72    2.65
  -7   0  -2    3.93    3.27
   8   0   2  835.09   25.13
  -8   0  -2  856.85   25.31
   9   0   2   -0.12    3.83
  -9   0  -2    2.68    4.51
 -10   0  -2 3297.49   89.85
  10   0   2 3158.43   89.60
  11   0   2    8.57    5.12
 -11   0  -2   15.01    6.45
  12   0   2  502.96   18.63
 -12   0  -2  523.00   19.60
 -13   0  -2   11.75    7.90
  13   0   2    0.71    6.28
 -14   0  -2  261.06   16.07
  14   0   2  285.34   14.97
 -15   0  -2    9.13    9.61
  15   0   2    0.80    7.45
  16   0   2  347.82   18.07
 -16   0  -2  343.61   19.88
 -17  -1   2   30.38   11.77
  17  -1  -2   26.49    9.70
  17   1  -2   36.72    9.96
 -17   1   2   28.33   12.23
  16  -1  -2  278.07   16.45
 -16  -1   2  247.74   18.10
  16   1  -2  286.36   16.93
 -16   1   2  287.99   18.92
  15  -1  -2    5.88    7.61
 -15  -1   2   -1.58    9.52
 -15   1   2   21.46   10.23
  15   1  -2   24.23    8.28
 -14  -1   2   12.39    8.77
  14  -1  -2   14.98    7.01
 -14   1   2   -1.84    8.86
  14   1  -2   17.01    7.29
 -13  -1   2   -1.40    8.00
  13  -1  -2    1.31    6.17
 -13   1   2    7.83    7.96
  13   1  -2   -0.49    6.19
  12  -1  -2  296.79   13.57
 -12  -1   2  323.17   14.91
 -12   1   2  317.12   15.06
  12   1  -2  307.60   13.73
 -11  -1   2    6.48    6.58
  11  -1  -2    8.08    4.99
 -11   1   2   13.28    6.18
  11   1  -2   10.24    5.28
 -11   1   2   14.82    3.89
 -10  -1   2  732.56   22.73
  10  -1  -2  709.69   21.99
 -10   1   2  666.53   21.23
 -10   1   2  712.26   22.47
  10   1  -2  691.29   22.28
   9  -1  -2    2.12    3.66
  -9  -1   2    4.97    5.17
  -9   1   2    7.15    4.32
   9   1  -2    2.07    3.46
  -9   1   2    5.09    3.00
   9   1  -2    2.75    3.88
   8  -1  -2    9.56    3.35
  -8  -1   2   10.07    4.70
   8   1  -2    8.32    3.55
  -8   1   2    9.73    2.83
   8   1  -2    4.55    2.90
  -8   1   2    4.46    3.71
  -7  -1   2  442.61   14.44
  -7  -1   2  444.17   14.90
   7  -1  -2  449.83   13.91
  -7   1   2  430.33   13.54
  -7   1   2  448.60   14.15
   7   1  -2  457.27   14.54
   7   1  -2  451.82   14.43
  -6  -1   2    7.98    3.46
   6  -1  -2   10.68    1.86
   6  -1  -2   12.15    2.53
  -6  -1   2   13.00    2.92
   6   1  -2    9.83    2.61
   6   1  -2   14.29    3.07
  -6   1   2   14.18    2.26
  -6   1   2    7.52    2.70
  -5  -1   2  287.73    9.76
   5  -1  -2  278.83    8.60
   5  -1  -2  273.68    8.82
  -5  -1   2  277.18    9.85
  -5   1   2  281.40    8.96
   5   1  -2  299.10    9.77
  -5   1   2  270.67    8.68
   5   1  -2  267.64    9.57
   4  -1  -2  126.46    4.49
  -4  -1   2  123.87    5.52
  -4  -1   2  124.30    5.66
   4  -1  -2  122.04    4.28
  -4   1   2  116.77    4.35
   4   1  -2  113.57    5.36
   4   1  -2  121.84    5.51
  -3  -1   2  206.08    7.35
  -3  -1   2  196.35    7.18
   3   1  -2  209.26    7.18
   3   1  -2  194.23    7.11
  -2  -1   2  142.69    5.53
  -2  -1   2  142.35    5.67
   2  -1  -2  144.36    5.29
   2   1  -2  150.74    5.52
   2   1  -2  143.14    5.50
   1  -1  -2 2921.87   74.98
  -1  -1   2 2744.41   77.06
  -1  -1   2 2896.67   77.05
   1   1  -2 2749.21   76.97
   1   1  -2 2812.88   74.57
   1   1  -2 2723.13   77.08
  -1   1   2 2918.17   74.96
   0  -1   2  948.40   26.58
   0  -1  -2  965.27   25.97
   0  -1   2  939.18   26.58
   0  -1   2  948.33   25.52
   0   1  -2  908.42   26.62
   0   1   2  965.97   26.00
   0   1  -2  965.49   25.61
   0   1  -2  968.42   26.53
   1  -1   2    4.60    1.78
   1  -1   2    3.23    1.22
   1  -1   2    1.54    1.50
  -1  -1  -2    0.90    1.43
  -1   1  -2    1.15    1.52
   1   1   2   -0.34    1.58
  -2  -1  -2 2243.58   59.60
  -2  -1  -2 2224.10   59.70
   2  -1   2 2181.85   59.91
  -2   1  -2 2192.93   59.87
   2   1   2 2139.09   58.43
   2   1   2 2182.38   59.57
  -2   1  -2 2176.83   60.08
   2   1   2 2173.54   59.70
   3  -1   2  472.33   13.96
  -3  -1  -2  471.14   13.88
  -3  -1  -2  471.96   13.78
  -3   1  -2  467.74   13.95
   3   1   2  483.83   13.92
  -3   1  -2  486.32   14.22
   3   1   2  469.19   13.74
   4  -1   2   54.23    3.61
  -4  -1  -2   55.53    3.74
   4  -1   2   61.02    4.02
  -4  -1  -2   57.57    3.88
   4   1   2   50.80    3.63
  -4   1  -2   55.16    3.55
   4   1   2   53.92    3.65
  -4   1  -2   61.90    4.18
  -5  -1  -2  419.23   12.81
  -5  -1  -2  412.61   12.82
   5  -1   2  401.92   12.64
   5  -1   2  416.81   13.02
   5   1   2  421.60   12.72
   5   1   2  410.20   12.78
  -5   1  -2  405.42   12.67
  -5   1  -2  407.51   13.10
   6  -1   2 2295.90   62.57
  -6  -1  -2 2287.21   62.33
  -6   1  -2 2237.09   62.62
   6   1   2 2213.63   62.43
  -6   1  -2 2257.63   62.32
   6   1   2 2236.20   62.29
   7  -1   2   82.40    5.94
  -7  -1  -2   93.42    6.47
   7   1   2   81.95    5.34
   7   1   2   88.04    5.78
  -7   1  -2   85.24    6.59
  -7   1  -2   83.46    5.40
   8  -1   2 2730.40   74.71
  -8  -1  -2 2682.99   74.51
   8   1   2 2709.00   74.61
  -8   1  -2 2692.76   74.82
  -8   1  -2 2636.51   74.33
   8   1   2 2671.40   74.50
  -9  -1  -2  121.55    8.41
   9  -1   2  103.19    7.70
  -9   1  -2  117.33    8.87
   9   1   2  106.03    7.59
   9   1   2  102.16    6.71
  10  -1   2    4.49    4.63
 -10  -1  -2   11.11    5.79
 -10   1  -2   14.72    5.61
  10   1   2    2.03    4.87
 -11  -1  -2  137.00   10.68
  11  -1   2  144.23    9.86
  11   1   2  139.92   10.00
 -11   1  -2  156.51   11.14
  12  -1   2  829.56   26.84
 -12  -1  -2  820.44   27.13
  12   1   2  841.35   26.91
 -12   1  -2  833.46   27.61
  13  -1   2  106.97    9.04
 -13  -1  -2  114.28    9.96
  13   1   2  135.90    9.84
 -13   1  -2  112.45   10.12
  14  -1   2  402.27   17.39
 -14  -1  -2  376.02   18.31
  14   1   2  411.81   17.84
 -14   1  -2  375.80   18.64
  15  -1   2   61.85    8.78
 -15  -1  -2   72.32   10.72
  15   1   2   65.48    9.43
 -15   1  -2   64.04   10.52
  16  -1   2    1.93    7.92
 -16  -1  -2   -1.47   10.23
 -16   1  -2   -6.80    9.82
  16   1   2    5.18    8.82
 -16  -2   2  125.99   13.12
  16   2  -2  123.92   11.90
 -16   2   2  107.85   12.51
 -15  -2   2   29.65   10.54
  15   2  -2   24.99    9.25
 -15   2   2   23.13    9.69
 -14  -2   2  163.94   14.55
  14  -2  -2  176.09   12.97
 -14   2   2  184.62   15.32
  14   2  -2  177.66   14.10
 -13  -2   2    3.62    8.49
  13  -2  -2    6.63    6.41
  13   2  -2    5.64    7.54
 -13   2   2    2.71    7.71
  12  -2  -2    0.06    5.75
 -12  -2   2  -10.36    7.72
 -12   2   2    9.44    7.23
  12   2  -2    6.23    6.91
 -11  -2   2  115.68    9.33
  11  -2  -2  130.62    9.29
 -11   2   2  112.06    8.88
  11   2  -2  134.57   10.96
  10  -2  -2   67.46    6.23
 -10  -2   2   65.97    7.71
  10   2  -2   65.75    6.98
 -10   2   2   64.41    7.01
 -10   2   2   68.75    5.93
   9  -2  -2  162.19    8.68
  -9  -2   2  175.30   10.70
   9   2  -2  164.64    9.75
   9   2  -2  162.84    9.98
  -9   2   2  170.20    7.67
  -9   2   2  172.50   10.07
  -8  -2   2   17.32    5.70
   8  -2  -2   16.95    3.99
   8   2  -2   12.84    4.75
  -8   2   2   19.75    4.69
   8   2  -2   15.24    4.40
  -8   2   2   19.64    3.27
  -7  -2   2   17.76    5.19
   7  -2  -2   13.43    3.44
  -7   2   2   12.30    2.79
   7   2  -2   13.97    4.39
   7   2  -2    9.76    4.08
  -7   2   2   16.08    4.05
  -6  -2   2   78.14    5.97
   6  -2  -2   77.68    5.11
   6   2  -2   68.14    5.33
   6   2  -2   61.68    5.32
  -6   2   2   76.62    5.79
  -5  -2   2 1301.31   36.29
   5  -2  -2 1268.13   35.83
   5   2  -2 1222.38   36.43
   5   2  -2 1252.28   36.23
  -4  -2   2  457.29   15.03
   4  -2  -2  461.46   14.88
   4   2  -2  462.89   14.82
   4   2  -2  470.61   15.00
   4   2  -2  455.58   15.00
  -3  -2   2 1446.49   39.49
   3  -2  -2 1428.81   38.30
  -3  -2   2 1388.73   39.04
   3   2  -2 1359.65   37.93
   3   2  -2 1277.45   38.99
   3   2  -2 1344.05   38.92
  -2  -2   2  922.61   26.93
   2  -2  -2  945.36   26.46
  -2  -2   2  933.10   26.99
  -2   2   2  944.96   26.59
   2   2  -2  898.37   27.01
   2   2  -2  918.48   26.23
   2   2  -2  939.08   26.80
  -1  -2   2  202.87    8.06
  -1  -2   2  202.22    7.74
   1  -2  -2  214.02    7.91
   1   2  -2  215.12    7.94
   1   2  -2  203.62    8.00
   1   2  -2  204.68    7.55
  -1   2   2  210.38    8.36
   0  -2   2   39.19    3.05
   0  -2   2   32.31    3.09
   0  -2   2   39.59    3.80
   0  -2  -2   37.05    3.33
   0   2  -2   41.31    3.69
   0   2  -2   33.76    3.01
   0   2  -2   31.55    3.31
   0   2   2   40.64    4.07
   1  -2   2 1757.67   48.14
  -1  -2  -2 1819.45   48.61
   1  -2   2 1792.49   49.49
   1  -2   2 1811.67   49.72
  -1   2  -2 1825.56   48.39
   1   2   2 1761.56   48.81
  -1   2  -2 1719.08   49.82
   2  -2   2 1266.26   34.84
   2  -2   2 1294.82   36.02
  -2   2  -2 1252.05   36.13
   2   2   2 1268.61   35.51
   3  -2   2  574.22   17.37
   3  -2   2  552.68   16.63
  -3  -2  -2  568.24   16.50
   3   2   2  565.56   17.41
  -3   2  -2  548.40   16.69
  -3   2  -2  562.94   17.45
   4  -2   2  980.37   28.21
  -4  -2  -2 1000.42   27.53
   4  -2   2  954.54   27.44
  -4   2  -2  978.08   27.70
  -4   2  -2 1001.30   28.49
   4   2   2  901.81   28.09
   4   2   2  957.27   28.05
   4   2   2  960.33   27.50
  -5  -2  -2  379.44   11.99
   5  -2   2  324.54   12.22
  -5   2  -2  374.57   12.87
  -5   2  -2  373.14   11.93
   5   2   2  366.14   11.88
   5   2   2  343.34   12.51
   5   2   2  366.61   13.21
  -6  -2  -2   51.13    4.80
   6   2   2   46.65    4.41
  -6   2  -2   57.96    4.29
   6   2   2   61.53    5.81
  -6   2  -2   52.86    5.21
   6   2   2   32.89    4.33
  -7  -2  -2   95.88    7.22
   7   2   2   93.61    7.04
  -7   2  -2   92.87    8.03
  -7   2  -2   91.23    6.15
   7   2   2   91.39    6.82
  -8  -2  -2  415.53   14.64
   8   2   2  403.89   14.42
   8   2   2  388.90   14.74
  -8   2  -2  418.89   15.34
  -8   2  -2  396.17   13.73
   9  -2   2   90.64    7.41
  -9  -2  -2   87.17    7.16
   9   2   2   77.45    6.68
  -9   2  -2   97.88    7.83
  -9   2  -2   75.50    5.70
   9   2   2   65.40    6.19
  10  -2   2  431.05   16.49
 -10  -2  -2  402.69   16.16
  10   2   2  409.23   15.87
 -10   2  -2  426.48   17.13
  11  -2   2   44.97    7.12
 -11  -2  -2   42.12    7.71
  11   2   2   34.53    6.99
 -11   2  -2   33.96    7.63
  12  -2   2   16.58    7.06
 -12  -2  -2   11.20    7.77
 -12   2  -2   20.12    7.81
  12   2   2   -5.54    6.69
 -13  -2  -2  312.86   16.08
  13  -2   2  302.58   15.90
 -13   2  -2  303.83   17.25
  13   2   2  301.89   15.72
  14  -2   2   17.46    8.15
 -14  -2  -2    6.73    9.30
 -14   2  -2   24.98    9.26
  14   2   2   13.23    8.39
  15   2   2  236.84   16.64
 -15   2  -2  219.30   17.76
 -14   3   2   51.76   10.22
  14   3  -2   64.92   10.36
  13   3  -2   97.18   10.31
 -13   3   2   80.01   10.40
 -12  -3   2   26.04    8.88
  12   3  -2   17.45    8.48
 -12   3   2   10.90    8.14
 -11  -3   2   32.57    8.27
  11   3  -2   25.87    8.17
 -11   3   2   23.78    7.73
 -10  -3   2  121.51    9.70
  10   3  -2  127.16    9.55
 -10   3   2  138.67   11.71
  -9  -3   2  565.13   20.47
   9   3  -2  559.85   21.75
  -9   3   2  603.37   20.66
   9   3  -2  583.85   20.65
  -8  -3   2   27.66    6.81
   8   3  -2   38.07    7.30
   8   3  -2   30.57    6.73
  -7  -3   2  687.54   22.83
   7   3  -2  698.14   23.74
   7   3  -2  705.11   22.96
  -6  -3   2  273.70   12.40
   6   3  -2  254.71   12.16
   6   3  -2  276.87   12.68
   6   3  -2  275.53   13.10
  -5  -3   2   28.06    5.80
   5   3  -2   24.59    5.03
   5   3  -2   27.90    5.75
   5   3  -2   14.78    5.54
  -4  -3   2  443.04   15.81
   4   3  -2  440.56   15.56
   4   3  -2  473.48   16.38
   4   3  -2  447.08   16.26
  -3  -3   2  897.00   26.98
   3   3  -2  862.09   26.57
   3   3  -2  916.23   26.94
   3   3  -2  884.42   27.24
  -2  -3   2  230.18   10.50
   2   3  -2  239.59    9.35
   2   3  -2  242.31   10.71
   2   3  -2  226.81   11.22
  -1  -3   2  649.97   20.71
   1   3  -2  644.86   21.16
  -1   3   2  689.32   21.17
   1   3  -2  677.35   20.80
   1   3  -2  639.84   19.92
   0  -3   2 1078.83   32.07
   0   3  -2 1084.08   32.52
   0   3  -2 1087.13   31.74
   0   3   2 1125.16   32.32
   1  -3   2   13.07    3.35
   1  -3   2    6.74    4.31
  -1   3  -2   19.79    4.86
  -1   3  -2    1.19    4.97
   1   3   2   15.47    4.92
   2  -3   2   -2.16    4.20
  -2   3  -2    2.50    2.97
   2   3   2   -0.52    4.52
  -2   3  -2   -7.07    4.66
   3  -3   2  324.22   12.76
   3   3   2  340.78   13.76
  -3   3  -2  336.48   13.64
  -3   3  -2  331.22   11.28
   4  -3   2  317.65   13.24
  -4   3  -2  348.23   14.07
   4   3   2  340.47   14.12
  -4   3  -2  338.96   11.62
   5  -3   2   45.41    6.03
  -5  -3  -2   50.22    4.94
  -5   3  -2   44.06    6.30
   5   3   2   47.64    5.14
  -5   3  -2   46.23    4.45
   5   3   2   59.08    7.07
  -6  -3  -2  286.79   11.22
   6  -3   2  254.90   12.74
   6   3   2  279.85   13.92
   6   3   2  281.10   11.42
  -6   3  -2  288.68   13.40
  -7  -3  -2    0.97    5.03
   7  -3   2    0.53    5.61
  -7   3  -2    3.55    6.29
   7   3   2   -3.84    5.14
   7   3   2    4.99    6.36
   8  -3   2   17.75    6.25
  -8  -3  -2   14.93    5.85
   8   3   2   20.54    7.22
  -8   3  -2   41.64    7.52
   8   3   2   25.89    6.15
   9  -3   2   63.79    7.71
   9   3   2   54.38    8.71
  -9   3  -2   62.87    8.72
   9   3   2   70.63    7.60
  10   3   2   80.99    9.74
  10   3   2   68.67    8.15
 -10   3  -2   66.37    9.34
  11   3   2  121.00    9.59
  11   3   2   93.03   10.58
 -11   3  -2  102.73   10.69
 -12   3  -2   -2.60    8.62
  12   3   2   -9.60    7.85
  12   3   2    8.28    8.31
  13   3   2   -0.09    8.60
  13   3   2    3.26    8.37
 -13   3  -2    2.98    9.38
  11   4  -2  518.65   21.99
  10   4  -2    5.63    8.89
  10   4  -2   -1.75    9.02
   9   4  -2    7.41    8.85
   9   4  -2   20.01    8.52
   8   4  -2   61.49    8.89
   8   4  -2   49.44    9.70
   7   4  -2  773.95   28.50
   7   4  -2  840.30   26.90
   6   4  -2   98.58    9.02
   6   4  -2   80.77    9.71
   5   4  -2  501.31   18.77
   5   4  -2  457.72   19.78
   4   4  -2  111.12    9.28
   4   4  -2  126.32    9.96
   3   4  -2  -18.86    6.94
   3   4  -2   -0.27    6.08
   2   4  -2  152.47   10.46
   2   4  -2  164.53   11.62
  -1   4   2  202.29   12.96
   1   4  -2  205.03   12.39
   0   4  -2   70.77    7.63
   0   4   2   84.83    8.55
   0   4  -2   51.25    8.78
   1   4   2  113.10    9.64
   2   4   2  125.90   10.22
   3   4   2    3.84    7.06
  -4   4  -2    8.46    8.32
   4   4   2    6.32    7.40
   5   4   2   40.67    8.69
  -5   4  -2   29.48    9.26
  -6   4  -2  105.49   11.17
   6   4   2  103.73   10.97
  -7   4  -2   97.16   11.46
   7   4   2  116.01   11.85
  -8   4  -2   13.79    9.79
   8   4   2   34.52    9.83
   9   4   2    2.31    7.61
   9   4   2    2.66    9.37
  -9   4  -2  -16.60    9.71
  10   4   2   47.39    8.57
 -10   4  -2   30.08   10.69
   4   5  -2   -0.45    8.62
   3   5  -2  206.68   16.60
   2   5  -2    6.41    8.35
   1   5   2   24.12    9.20
   2   5   2   47.48   10.21
   3   5   2   11.23    9.24
  18   0  -3    4.27    9.04
 -18   0   3   -4.45   12.14
 -17   0   3   27.26   11.66
  17   0  -3   16.25    8.98
  16   0  -3   -5.82    7.97
 -16   0   3    9.65   10.47
  15   0  -3  245.64   14.93
 -15   0   3  247.54   16.57
  14   0  -3    0.40    6.81
 -14   0   3   -1.79    8.57
 -13   0   3  303.74   15.73
  13   0  -3  331.94   14.44
 -12   0   3   -1.34    6.83
  12   0  -3   10.07    5.46
  11   0  -3  877.70   27.33
 -11   0   3  905.70   27.97
 -10   0   3    3.22    3.49
 -10   0   3    0.22    5.22
  10   0  -3    5.18    4.14
  -9   0   3 5057.37  140.78
   9   0  -3 5097.85  140.93
  -9   0   3 5303.35  141.06
   8   0  -3    0.38    3.04
  -8   0   3    0.63    4.10
   8   0  -3   -0.44    2.16
  -8   0   3    1.14    2.72
  -7   0   3  197.18    7.56
   7   0  -3  201.79    7.79
   7   0  -3  192.01    7.35
  -7   0   3  203.33    8.50
   6   0  -3   -0.43    2.31
  -6   0   3   -3.59    3.03
  -6   0   3    0.41    2.32
   6   0  -3   -1.72    1.75
   5   0  -3 8444.88  238.65
  -5   0   3 9079.54  236.61
   5   0  -3 8617.02  238.01
   4   0  -3    1.52    2.01
  -4   0   3   -4.09    1.92
  -4   0   3   -3.86    2.15
   4   0  -3   -3.17    1.54
   3   0  -3 7923.23  221.03
  -3   0   3 8114.95  219.43
  -3   0   3 8046.63  220.01
   3   0  -3 8260.39  221.48
   2   0  -3    0.49    1.17
   2   0  -3    3.09    1.33
  -2   0   3   -0.15    1.31
  -2   0   3    1.20    1.48
  -1   0   3  185.86    5.88
   1   0  -3  180.30    5.81
  -1   0   3  188.25    5.89
   1   0  -3  190.49    5.88
   0   0   3    0.51    1.05
   0   0   3    2.19    1.14
   0   0  -3    0.64    0.98
  -1   0  -3 6035.50  168.10
   1   0   3 6121.45  168.43
  -1   0  -3 6396.14  168.40
  -2   0  -3    1.27    1.27
  -2   0  -3    1.66    1.45
   2   0   3   -0.71    1.37
   2   0   3    0.56    1.44
  -3   0  -3 1009.31   28.04
  -3   0  -3  991.92   27.97
   3   0   3 1003.11   28.01
   3   0   3  994.05   27.96
   4   0   3    0.49    1.75
  -4   0  -3    4.13    2.17
  -4   0  -3    1.49    1.75
   4   0   3    3.06    2.02
   5   0   3  516.60   15.94
  -5   0  -3  516.22   15.90
  -5   0  -3  555.36   16.21
   5   0   3  547.06   16.14
  -6   0  -3    2.84    2.36
   6   0   3    1.07    2.20
   6   0   3    0.74    2.79
  -6   0  -3    2.12    3.06
   7   0   3   57.32    4.75
  -7   0  -3   54.41    4.88
   7   0   3   53.13    4.06
   8   0   3   -1.13    3.66
  -8   0  -3   -0.82    4.14
   9   0   3  718.17   22.46
  -9   0  -3  719.02   22.73
 -10   0  -3    6.94    5.53
  10   0   3    1.75    4.69
 -11   0  -3   85.75    8.10
  11   0   3   79.97    7.44
 -12   0  -3    6.16    7.12
  12   0   3   -5.01    5.70
 -13   0  -3  777.70   26.84
  13   0   3  770.12   26.03
 -14   0  -3    2.73    8.49
  14   0   3    6.47    6.94
 -15   0  -3  742.30   27.46
  15   0   3  742.77   26.45
  16   0   3    6.55    8.09
 -16   0  -3    4.91   10.28
 -17  -1   3   17.43   11.82
  17  -1  -3   32.05    9.47
  17   1  -3   19.77    9.47
 -17   1   3   13.58   11.99
  16  -1  -3  434.16   19.31
 -16  -1   3  414.69   21.15
  16   1  -3  418.24   19.58
 -16   1   3  423.17   22.00
 -15  -1   3    1.38    9.70
  15  -1  -3    6.64    7.39
  15   1  -3   -5.16    7.67
 -15   1   3   10.60    9.93
  14  -1  -3  152.37   12.15
 -14  -1   3  164.40   12.04
 -14   1   3  169.21   14.83
  14   1  -3  159.78   12.54
  13  -1  -3  503.29   18.68
 -13  -1   3  491.79   19.85
  13   1  -3  496.14   19.05
 -13   1   3  504.18   20.14
 -12  -1   3  389.59   16.78
  12  -1  -3  380.92   15.24
 -12   1   3  406.78   16.53
  12   1  -3  393.04   15.77
 -12   1   3  372.85   14.31
  11  -1  -3  894.41   27.32
 -11  -1   3  870.14   28.18
 -11   1   3  846.41   26.47
  11   1  -3  921.40   27.87
 -11   1   3  920.39   27.89
  10  -1  -3  576.80   18.52
 -10  -1   3  559.26   19.50
 -10   1   3  600.58   19.19
 -10   1   3  538.76   17.64
  10   1  -3  572.16   18.93
  -9  -1   3  287.08   12.50
   9  -1  -3  315.69   11.27
   9   1  -3  291.00   11.71
  -9   1   3  294.55   10.38
  -9   1   3  302.15   11.83
  -8  -1   3   39.23    5.20
   8  -1  -3   45.95    4.13
   8   1  -3   43.89    4.17
  -8   1   3   47.50    3.77
  -8   1   3   42.96    4.59
   8   1  -3   53.83    5.02
   7  -1  -3 5115.43  133.84
  -7  -1   3 4773.63  134.38
  -7  -1   3 4919.49  134.21
   7  -1  -3 4979.00  133.64
   7   1  -3 4793.72  134.30
  -7   1   3 4740.04  133.42
  -7   1   3 5056.19  133.74
   7   1  -3 4885.38  134.18
  -6  -1   3  534.20   16.86
   6  -1  -3  523.08   15.67
   6  -1  -3  548.74   15.96
  -6  -1   3  530.01   16.95
   6   1  -3  552.27   16.82
  -6   1   3  546.73   16.10
  -6   1   3  527.02   15.75
   6   1  -3  558.53   16.89
   5  -1  -3 2028.08   54.74
  -5  -1   3 1976.32   55.81
  -5  -1   3 1949.98   55.61
   5  -1  -3 2044.06   54.83
   5   1  -3 2030.46   55.78
  -5   1   3 1959.69   54.73
  -5   1   3 2055.38   54.87
   5   1  -3 1963.39   55.63
  -4  -1   3   50.31    3.82
  -4  -1   3   48.34    3.95
   4   1  -3   55.59    3.70
   4   1  -3   44.43    4.06
  -3  -1   3 1865.13   52.26
  -3  -1   3 1936.79   52.23
   3   1  -3 1881.53   52.13
   3   1  -3 1846.20   52.20
  -2  -1   3 1092.14   30.64
  -2  -1   3 1070.84   30.67
   2  -1  -3 1106.51   29.78
   2   1  -3 1057.20   30.63
   2   1  -3 1107.03   30.57
  -1  -1   3 5375.96  143.35
   1  -1  -3 5399.61  139.28
  -1  -1   3 5084.21  143.36
   1   1  -3 5136.59  143.26
  -1   1   3 5597.04  139.32
   1   1  -3 5080.09  143.40
   0  -1   3    0.09    1.92
   0  -1  -3    1.63    1.54
   0  -1   3   -1.43    1.64
   0   1  -3    0.09    1.59
   0   1   3    2.64    1.83
   0   1  -3    1.43    1.62
  -1  -1  -3  613.53   17.21
   1  -1   3  625.46   17.77
   1  -1   3  609.24   17.65
   1   1   3  608.08   17.28
  -1   1  -3  596.41   17.76
  -2  -1  -3 2302.12   61.00
   2  -1   3 2212.17   61.44
  -2  -1  -3 2330.33   61.12
  -2   1  -3 2141.87   61.37
  -2   1  -3 2225.29   61.64
   2   1   3 2310.70   61.02
   2   1   3 2214.17   59.87
   2   1   3 2180.24   61.08
  -3  -1  -3  806.11   22.39
  -3  -1  -3  795.97   22.26
   3  -1   3  774.38   22.58
   3   1   3  796.02   22.39
  -3   1  -3  772.16   22.57
  -3   1  -3  795.92   22.88
   3   1   3  793.65   22.26
   4  -1   3  721.03   21.08
   4  -1   3  729.00   21.33
  -4  -1  -3  715.06   20.95
  -4  -1  -3  741.12   20.87
  -4   1  -3  723.10   21.35
   4   1   3  731.90   20.85
   4   1   3  738.89   20.97
  -4   1  -3  725.09   21.08
  -5  -1  -3  404.41   12.78
   5  -1   3  409.54   12.83
   5  -1   3  397.91   13.09
  -5  -1  -3  441.47   13.32
   5   1   3  408.83   12.70
  -5   1  -3  407.75   13.25
   5   1   3  391.32   12.72
  -5   1  -3  408.63   12.84
   6  -1   3  617.38   18.98
  -6  -1  -3  613.48   18.66
  -6   1  -3  622.88   18.61
  -6   1  -3  628.95   19.13
   6   1   3  610.12   18.56
   6   1   3  628.72   18.65
  -7  -1  -3  102.03    6.70
   7  -1   3   98.89    6.68
  -7   1  -3   94.32    5.95
  -7   1  -3  107.56    7.13
   7   1   3  101.88    6.41
   7   1   3   98.16    5.80
   8  -1   3  998.04   30.26
  -8  -1  -3 1057.18   30.12
   8   1   3 1010.65   30.00
   8   1   3 1007.92   29.96
  -8   1  -3 1036.81   30.52
   9  -1   3    4.98    4.46
  -9  -1  -3    3.61    4.97
   9   1   3    2.33    4.24
   9   1   3    6.56    3.49
  -9   1  -3    1.48    4.87
 -10  -1  -3   23.04    6.08
  10  -1   3   16.75    5.15
  10   1   3   11.88    5.15
 -10   1  -3   12.43    5.85
  11  -1   3  498.35   17.92
 -11  -1  -3  493.02   18.21
 -11   1  -3  485.21   18.65
  11   1   3  470.54   17.78
 -12  -1  -3  209.66   12.97
  12  -1   3  208.68   12.05
 -12   1  -3  213.26   13.51
  12   1   3  193.82   12.25
 -13  -1  -3  226.87   14.42
  13  -1   3  226.60   13.19
  13   1   3  223.44   13.55
 -13   1  -3  237.28   14.98
  14  -1   3   53.19    8.17
 -14  -1  -3   51.50    9.83
 -14   1  -3   52.32    9.47
  14   1   3   45.30    8.44
 -15  -1  -3  100.24   11.54
  15  -1   3  104.27    9.96
  15   1   3  108.73   10.59
 -15   1  -3   85.85   11.04
  16  -1   3    8.59    8.07
  16   1   3   16.96    9.11
 -16  -2   3    5.51   10.90
 -16   2   3   12.89   10.14
  16   2  -3    2.41    9.53
 -15  -2   3    6.78    9.83
 -15   2   3   22.80    9.66
  15   2  -3   21.27    9.05
  14  -2  -3  804.58   27.86
 -14  -2   3  845.64   29.05
 -14   2   3  834.26   29.26
  14   2  -3  847.88   28.79
 -13  -2   3    0.12    8.58
  13  -2  -3    2.20    6.51
  13   2  -3    0.32    7.54
 -13   2   3   14.52    7.95
 -12  -2   3  755.49   25.46
  12  -2  -3  717.99   24.08
  12   2  -3  704.23   25.03
 -12   2   3  750.45   25.27
  11  -2  -3  336.27   13.52
 -11  -2   3  322.09   15.37
  11   2  -3  322.83   14.61
 -11   2   3  318.31   14.97
  10  -2  -3  181.37    9.61
 -10  -2   3  179.43   12.02
  10   2  -3  185.51   10.96
 -10   2   3  196.41    8.42
 -10   2   3  191.72   11.16
   9  -2  -3  360.83   12.81
  -9  -2   3  335.84   14.73
  -9   2   3  373.84   13.87
  -9   2   3  346.51   11.85
   9   2  -3  345.15   14.26
  -8  -2   3  741.94   23.78
   8  -2  -3  762.66   22.39
   8   2  -3  766.46   23.52
  -8   2   3  711.71   21.74
   8   2  -3  704.23   23.65
  -8   2   3  786.43   22.88
   7  -2  -3    3.55    3.10
  -7  -2   3   -3.50    4.90
   7   2  -3    0.13    3.90
   7   2  -3    1.40    4.10
  -6  -2   3   37.22    5.29
   6   2  -3   27.14    4.04
   6   2  -3   26.29    4.41
   5  -2  -3  624.22   19.62
  -5  -2   3  644.37   19.92
   5   2  -3  628.93   19.91
   5   2  -3  633.22   19.89
   4  -2  -3  445.92   14.61
  -4  -2   3  431.70   14.90
   4   2  -3  458.92   14.78
   4   2  -3  455.81   14.33
   4   2  -3  440.44   14.85
   3  -2  -3  804.15   22.78
  -3  -2   3  765.36   23.23
   3   2  -3  767.79   22.25
   3   2  -3  769.80   23.28
   3   2  -3  756.85   23.00
  -2  -2   3   86.58    6.22
  -2  -2   3   91.06    5.66
   2  -2  -3   90.99    5.38
   2   2  -3   86.20    5.37
   2   2  -3   84.29    5.31
   2   2  -3   77.22    5.74
  -2   2   3   91.40    6.08
  -1  -2   3  188.67    7.49
   1  -2  -3  200.98    7.64
  -1  -2   3  194.78    8.00
  -1   2   3  195.57    8.12
   1   2  -3  176.29    7.24
   1   2  -3  186.49    7.85
   1   2  -3  184.82    7.32
   0  -2   3 2615.84   66.21
   0  -2   3 2361.53   63.55
   0  -2   3 2277.75   65.83
   0  -2  -3 2377.04   64.25
   0   2  -3 2317.08   66.07
   0   2   3 2358.39   64.41
   0   2  -3 2347.19   65.61
   0   2  -3 2381.83   63.82
  -1  -2  -3  285.13    9.82
   1  -2   3  279.04   10.19
   1  -2   3  279.39    9.05
   1   2   3  280.20   10.34
  -1   2  -3  288.95   10.23
   2  -2   3  214.84    7.38
   2  -2   3  204.31    8.57
   2   2   3  198.72    8.69
  -2   2  -3  207.92    8.38
   3  -2   3  712.37   21.28
   3  -2   3  694.61   20.06
   3   2   3  679.62   21.03
  -3   2  -3  682.43   20.56
  -3   2  -3  728.45   21.40
   4  -2   3 2383.90   67.07
  -4  -2  -3 2507.47   66.19
   4  -2   3 2326.22   64.86
   4   2   3 2454.75   66.18
  -4   2  -3 2358.29   66.53
   4   2   3 2372.03   65.63
  -4   2  -3 2456.82   67.34
  -5  -2  -3  105.45    6.03
  -5   2  -3  110.46    7.26
   5   2   3  102.32    7.76
   5   2   3  101.67    6.44
  -5   2  -3   98.84    6.04
   5   2   3  106.67    6.06
  -6  -2  -3 1964.11   53.85
   6   2   3 2013.31   53.97
   6   2   3 1932.79   53.85
   6   2   3 1825.56   54.35
  -6   2  -3 1881.56   54.00
  -6   2  -3 1968.07   54.95
  -7  -2  -3   20.13    4.73
   7   2   3   21.48    4.45
   7   2   3   15.89    3.90
  -7   2  -3   19.76    3.78
  -7   2  -3   21.64    4.97
  -8  -2  -3   29.05    5.34
  -8   2  -3   28.53    4.36
   8   2   3   23.81    5.19
   8   2   3   16.74    4.32
  -8   2  -3   30.32    5.97
  -9  -2  -3   14.25    5.82
  -9   2  -3   11.01    6.02
   9   2   3   14.01    5.34
 -10  -2  -3  990.89   31.00
 -10   2  -3 1011.66   32.18
  10   2   3 1041.30   31.12
  11  -2   3   14.78    6.86
 -11  -2  -3    3.16    6.85
 -11   2  -3   13.12    7.15
  11   2   3   -6.78    6.38
  12  -2   3  260.69   14.58
 -12  -2  -3  250.15   14.07
 -12   2  -3  237.70   15.29
  12   2   3  249.58   14.20
 -13  -2  -3   24.01    8.98
  13  -2   3   40.77    8.76
 -13   2  -3   13.89    8.67
  13   2   3   24.98    8.12
  14  -2   3   42.86    9.22
  14   2   3   37.05    9.20
 -14   2  -3   31.39    9.69
  15   3  -3   97.64   11.91
 -14   3   3   81.72   10.60
  14   3  -3  123.23   11.55
 -13  -3   3   26.50    9.73
 -13   3   3  -10.33    7.97
  13   3  -3    5.80    9.15
 -12  -3   3  146.91   11.35
 -12   3   3  117.40   10.34
  12   3  -3  190.09   14.30
 -11  -3   3   35.23    8.67
  11   3  -3   38.69    8.55
 -11   3   3   31.18    7.76
 -10  -3   3  430.24   18.11
  10   3  -3  445.14   18.26
  -9  -3   3   41.63    7.77
   9   3  -3   47.84    7.83
   9   3  -3   39.73    7.84
  -8  -3   3    1.71    6.73
   8   3  -3    0.50    6.19
   8   3  -3    5.59    6.30
  -7  -3   3    2.66    6.16
   7   3  -3    6.61    6.11
   7   3  -3    8.23    6.11
  -6  -3   3   25.19    6.31
   6   3  -3    9.77    5.53
   6   3  -3   10.12    5.08
   6   3  -3    6.63    5.79
  -5  -3   3    1.32    5.63
   5   3  -3   -3.98    5.32
   5   3  -3   -0.93    4.88
   5   3  -3    4.41    4.66
  -4  -3   3    7.43    5.58
   4   3  -3   13.53    4.41
   4   3  -3   13.18    5.27
   4   3  -3   12.29    4.96
  -3  -3   3  176.27    9.84
   3   3  -3  166.34   10.43
   3   3  -3  184.32    8.81
   3   3  -3  147.63    9.30
  -2  -3   3  210.28   10.48
   2   3  -3  218.37   10.26
  -2   3   3  229.42   10.77
   2   3  -3  210.52    9.12
   2   3  -3  208.37   11.08
  -1  -3   3   -7.11    4.45
   1   3  -3   -5.66    4.85
   1   3  -3   -0.40    4.19
   1   3  -3   -1.65    3.29
  -1   3   3    0.44    4.54
   0  -3   3   56.17    6.10
   0  -3   3   62.39    4.55
   0   3  -3   58.22    5.41
   0   3  -3   48.14    6.06
   0   3   3   54.09    6.28
   1  -3   3  361.24   12.09
   1  -3   3  348.23   13.32
   1   3   3  357.99   14.21
  -1   3  -3  370.24   14.35
   2  -3   3 1150.50   34.80
   2  -3   3 1215.49   33.40
  -2   3  -3 1237.12   35.66
   2   3   3 1194.87   34.79
  -2   3  -3 1126.84   33.92
   3  -3   3  201.18    8.41
   3  -3   3  196.15   10.10
  -3   3  -3  175.07    8.13
   3   3   3  202.99   10.94
  -3   3  -3  200.58   10.90
   4  -3   3  598.48   20.18
  -4   3  -3  571.93   18.47
  -4   3  -3  625.89   20.79
   4   3   3  601.86   20.54
   5  -3   3  105.83    7.87
  -5   3  -3   94.02    7.95
   5   3   3  105.16    8.69
   6  -3   3  250.76   12.98
  -6  -3  -3  269.58   10.81
   6   3   3  271.69   14.08
   6   3   3  268.93   11.25
  -6   3  -3  277.85   13.59
   7  -3   3  342.50   15.50
  -7  -3  -3  361.48   13.68
   7   3   3  379.21   14.09
  -7   3  -3  384.28   16.56
   7   3   3  370.69   16.75
   8  -3   3 1074.32   34.98
   8   3   3 1139.18   33.63
   8   3   3 1149.48   35.71
  -8   3  -3 1145.18   35.86
   9  -3   3    6.33    6.57
   9   3   3    4.64    6.53
   9   3   3    4.03    7.51
  -9   3  -3   -0.48    7.12
  10  -3   3  266.42   15.94
  10   3   3  278.59   14.35
  10   3   3  283.21   16.50
 -10   3  -3  268.97   16.17
  11   3   3   82.56    8.94
  11   3   3   91.60   10.68
 -11   3  -3   84.62   10.48
 -12   3  -3   47.29   10.15
  12   3   3   54.15    8.98
  12   3   3   51.05    9.81
  13   3   3    4.53    8.71
 -13   3  -3   -1.03    9.42
  11   4  -3   -4.92    9.29
  11   4  -3   -2.54    9.24
  10   4  -3   20.04    9.10
  10   4  -3   13.24    9.46
   9   4  -3   39.70    9.81
   9   4  -3   68.59    9.50
   8   4  -3   -3.12    8.13
   8   4  -3   -5.49    7.93
   7   4  -3    1.87    8.23
   7   4  -3    2.48    7.75
   6   4  -3   24.32    7.85
   6   4  -3   37.85    8.49
   5   4  -3  171.19   13.54
   5   4  -3  165.58   12.89
   4   4  -3   71.89    8.39
   4   4  -3   59.57    8.89
   3   4  -3   38.53    8.73
   3   4  -3   47.83    7.42
   2   4  -3   89.70    8.39
   2   4  -3   88.49    9.89
  -1   4   3  106.17    9.22
   1   4  -3  110.14    8.84
   1   4  -3   75.90    9.75
   0   4  -3   16.54    8.34
   0   4   3   30.75    6.94
   0   4  -3   25.66    6.25
   1   4   3  159.55   10.86
  -1   4  -3  120.20   11.33
   2   4   3    3.93    6.84
  -2   4  -3  -17.59    8.39
  -3   4  -3   35.78    9.18
   3   4   3   31.44    7.84
  -4   4  -3  183.40   12.91
   4   4   3  161.45   12.12
   5   4   3  137.10   11.55
  -5   4  -3  124.49   11.99
   6   4   3  359.24   18.86
  -6   4  -3  348.60   19.27
  -7   4  -3    0.95    9.31
   7   4   3   -1.15    8.49
  -8   4  -3   75.67   11.44
   8   4   3   55.71   10.83
  -9   4  -3   85.99   12.39
   9   4   3  107.73   12.40
   9   4   3   94.83    8.97
   4   5  -3    2.62    8.18
   3   5  -3    5.17    8.23
   2   5  -3   85.46   10.42
   1   5   3    2.52    8.87
   2   5   3   17.56    9.35
 -18   0   4  642.96   28.19
  18   0  -4  671.07   26.14
 -17   0   4   -3.46   11.52
  17   0  -4    9.30    8.98
 -16   0   4  234.54   17.66
  16   0  -4  227.52   15.50
  15   0  -4    3.44    7.56
 -15   0   4   -5.32    9.56
 -14   0   4  412.19   19.01
  14   0  -4  434.01   17.54
  13   0  -4   -4.04    5.79
 -13   0   4    1.06    7.88
  12   0  -4  465.06   17.07
 -12   0   4  465.04   18.23
  11   0  -4    0.67    4.72
 -11   0   4   -2.22    6.19
 -10   0   4  153.13    9.97
  10   0  -4  151.19    8.71
 -10   0   4  158.16    7.82
  -9   0   4   -2.02    4.81
  -9   0   4   -2.18    3.13
   9   0  -4    0.05    3.70
  -8   0   4   25.75    3.53
   8   0  -4   29.38    3.99
  -8   0   4   20.32    4.76
   7   0  -4    1.64    2.00
   7   0  -4    0.11    2.76
  -7   0   4   -5.78    3.73
  -7   0   4    0.32    2.52
   6   0  -4   13.86    2.27
  -6   0   4   12.11    3.19
   6   0  -4   14.77    2.73
  -6   0   4    8.00    2.64
   5   0  -4   -1.43    1.61
   5   0  -4    0.41    2.19
  -5   0   4   -4.46    2.62
  -5   0   4    2.46    2.36
  -4   0   4   38.90    3.18
  -4   0   4   40.87    3.40
   4   0  -4   44.77    3.20
   4   0  -4   40.94    3.46
  -3   0   4   -0.75    1.75
  -3   0   4    1.67    2.03
   3   0  -4    1.95    1.47
   3   0  -4    0.75    1.69
   2   0  -4  858.85   24.88
   2   0  -4  913.66   25.01
  -2   0   4  897.66   24.97
  -2   0   4  861.73   24.98
   1   0  -4    1.47    1.48
  -1   0   4   -0.45    1.52
   1   0  -4   -0.15    1.29
  -1   0   4   -2.46    1.52
   0   0   4 2679.88   70.80
   0   0   4 2590.80   70.79
   0   0  -4 2519.21   70.79
   1   0   4    0.68    1.57
  -1   0  -4   -0.57    1.46
  -1   0  -4   -0.95    1.41
   2   0   4   13.83    1.95
  -2   0  -4   16.18    2.01
   2   0   4   12.67    1.98
  -2   0  -4   12.80    1.83
  -3   0  -4    0.45    1.60
   3   0   4   -2.18    1.88
  -3   0  -4   -0.45    1.96
   3   0   4    1.26    1.89
  -4   0  -4  382.85   12.30
   4   0   4  405.41   12.41
  -4   0  -4  406.41   12.59
   4   0   4  420.06   12.57
   5   0   4   -2.30    2.22
  -5   0  -4    3.80    2.82
   5   0   4    1.11    2.44
  -5   0  -4    2.68    2.19
   6   0   4  891.51   26.23
   6   0   4  913.17   26.09
  -6   0  -4  893.64   26.29
   7   0   4    1.65    2.65
  -7   0  -4    6.48    3.73
   7   0   4    3.53    3.36
   8   0   4  601.74   18.97
  -8   0  -4  582.23   19.07
  -9   0  -4    0.63    4.88
   9   0   4   -1.63    4.25
 -10   0  -4    9.38    5.77
  10   0   4    8.39    4.91
  11   0   4   -0.09    5.27
 -11   0  -4    4.49    6.35
 -12   0  -4  217.04   13.56
  12   0   4  219.87   12.27
 -13   0  -4   -2.79    7.69
  13   0   4   -6.05    6.25
 -14   0  -4  474.47   20.28
  14   0   4  434.10   18.84
  15   0   4    0.12    7.43
 -15   0  -4   -4.18    8.98
 -18  -1   4    5.24   12.13
  18   1  -4  -10.15    9.57
 -18   1   4  -12.90   12.78
  17  -1  -4   41.20    9.62
 -17  -1   4   48.36   12.39
  17   1  -4   50.76   10.07
 -17   1   4   59.69   13.05
  16  -1  -4  390.18   18.82
 -16  -1   4  378.57   20.68
  16   1  -4  410.97   19.29
 -16   1   4  406.59   21.35
 -15  -1   4   -5.98    9.44
  15  -1  -4   10.03    7.53
 -15   1   4    6.20    9.75
  15   1  -4   -1.41    7.66
  14  -1  -4  600.49   21.80
 -14  -1   4  549.80   22.98
 -14   1   4  638.68   23.41
  14   1  -4  605.98   22.19
 -13  -1   4  165.71   14.01
  13  -1  -4  176.06   11.48
  13   1  -4  167.39   12.20
 -13   1   4  180.52   13.34
  12  -1  -4   15.60    5.77
 -12  -1   4   20.57    7.92
 -12   1   4   16.94    7.15
 -12   1   4   28.13    4.71
  12   1  -4   21.38    6.45
  11  -1  -4  330.79   13.13
 -11  -1   4  321.79   14.91
 -11   1   4  323.50   12.01
 -11   1   4  346.27   14.42
  11   1  -4  319.64   13.65
  10  -1  -4  123.47    8.01
 -10  -1   4  130.43    8.75
 -10   1   4  131.04    9.11
 -10   1   4  114.83    6.78
  10   1  -4  118.93    8.70
   9  -1  -4  156.29    7.79
  -9  -1   4  148.02    9.61
  -9   1   4  166.71    8.57
   9   1  -4  151.04    8.84
  -9   1   4  154.23    7.01
   8  -1  -4  283.86   10.10
  -8  -1   4  283.91   11.59
  -8   1   4  285.65   10.66
   8   1  -4  270.22   10.69
   8   1  -4  273.60   10.95
  -8   1   4  271.32    9.62
  -7  -1   4  783.34   24.20
  -7  -1   4  804.85   24.32
   7  -1  -4  791.89   23.22
   7  -1  -4  840.73   23.41
   7   1  -4  798.29   24.15
  -7   1   4  826.47   23.54
   7   1  -4  797.94   24.15
  -7   1   4  772.64   23.05
   6  -1  -4  242.51    8.33
  -6  -1   4  246.42    9.48
   6  -1  -4  247.26    8.13
  -6  -1   4  243.64    9.70
  -6   1   4  264.08    8.81
   6   1  -4  261.02    9.52
   6   1  -4  245.57    9.50
  -6   1   4  234.00    8.21
  -5  -1   4   39.77    4.27
  -5  -1   4   52.34    4.23
   5   1  -4   43.83    3.75
   5   1  -4   49.34    4.15
  -4  -1   4  108.76    6.11
  -4  -1   4  110.81    5.61
   4   1  -4  102.75    5.60
   4   1  -4  106.24    5.51
  -3  -1   4  159.96    6.68
  -3  -1   4  155.23    6.48
   3  -1  -4  149.92    6.19
   3   1  -4  150.02    6.40
   3   1  -4  156.19    6.31
  -2  -1   4  114.52    5.55
   2  -1  -4  110.28    4.89
  -2  -1   4  114.40    5.26
   2   1  -4  109.31    5.15
   2   1  -4  102.52    4.94
   1  -1  -4    1.80    1.71
  -1  -1   4    7.82    2.49
  -1  -1   4    5.61    2.06
   1   1  -4    2.85    1.86
  -1   1   4    5.62    2.06
   1   1  -4    5.77    2.07
   0  -1   4  109.51    5.11
   0  -1   4  107.83    4.87
   0  -1  -4  105.75    4.61
   0   1  -4  105.11    4.67
   0   1   4  108.92    4.84
   0   1  -4  108.38    4.92
   1  -1   4   23.26    2.56
   1  -1   4   24.12    2.90
  -1  -1  -4   14.63    2.14
   1   1   4   17.82    2.46
  -1   1  -4   19.43    2.51
  -2  -1  -4  860.97   23.32
   2  -1   4  823.73   23.98
  -2  -1  -4  838.87   23.34
   2  -1   4  809.39   23.80
   2   1   4  841.78   23.37
   2   1   4  798.63   23.24
  -2   1  -4  807.23   23.75
  -2   1  -4  848.53   24.09
   2   1   4  862.32   23.33
   3  -1   4   13.36    2.38
  -3  -1  -4   13.21    2.43
  -3  -1  -4   15.74    2.18
   3   1   4    9.41    2.60
   3   1   4   11.17    2.20
   3   1   4   11.14    2.13
  -3   1  -4   13.63    2.68
  -3   1  -4    9.93    2.22
  -4  -1  -4  750.59   21.75
  -4  -1  -4  776.16   21.72
   4  -1   4  712.65   21.89
  -4   1  -4  717.51   21.90
   4   1   4  754.26   21.76
   4   1   4  780.78   21.75
  -4   1  -4  778.87   22.37
   5  -1   4  261.29    9.94
  -5  -1  -4  281.73    9.49
  -5   1  -4  251.06    9.30
  -5   1  -4  263.90    9.94
   5   1   4  272.27    9.33
   5   1   4  282.17    9.43
   6  -1   4   91.47    6.39
  -6  -1  -4   89.26    6.11
   6   1   4   92.88    5.93
  -6   1  -4   87.43    5.56
   6   1   4   94.86    5.46
  -6   1  -4   93.67    6.43
  -7  -1  -4    5.14    3.92
   7  -1   4    4.21    3.82
  -7   1  -4    4.26    3.89
   7   1   4    4.82    3.01
   7   1   4    4.25    3.59
  -8  -1  -4  191.70    9.44
   8  -1   4  185.31    9.40
   8   1   4  187.96    9.07
   8   1   4  183.91    8.52
  -8   1  -4  198.73    9.94
  -9  -1  -4  262.66   11.58
   9  -1   4  237.81   11.38
  -9   1  -4  257.55   12.02
   9   1   4  250.23   11.20
 -10  -1  -4  979.78   29.65
  10  -1   4  962.39   29.72
  10   1   4  959.36   29.43
 -10   1  -4  931.23   30.03
  11  -1   4  100.99    8.14
 -11  -1  -4   82.20    8.36
 -11   1  -4   82.42    8.35
  11   1   4   98.43    8.25
 -12  -1  -4  227.99   13.84
  12  -1   4  228.35   12.79
  12   1   4  236.28   13.21
 -12   1  -4  228.46   14.26
 -13  -1  -4   11.41    8.19
  13  -1   4    9.00    6.64
  13   1   4    0.68    7.08
 -13   1  -4    0.16    7.80
 -14  -1  -4   15.18    9.29
  14  -1   4    1.14    7.16
  14   1   4   16.47    7.93
 -14   1  -4    1.25    8.51
  15  -1   4   30.68    8.29
 -15  -1  -4   21.65   10.20
 -15   1  -4   23.71    9.48
  15   1   4   28.88    9.01
 -17  -2   4   -0.82   11.46
  17   2  -4   -2.41   10.01
 -17   2   4  -22.21   10.31
 -16  -2   4  152.12   13.19
 -16   2   4  146.10   13.36
  16   2  -4  156.90   12.54
 -15  -2   4  195.87   13.75
 -15   2   4  152.82   13.09
  15   2  -4  173.31   15.01
 -14  -2   4   27.84   10.01
  14   2  -4   35.45    9.09
 -14   2   4   25.51    9.16
 -13  -2   4   36.94    9.25
  13  -2  -4   48.34    7.38
  13   2  -4   41.22    8.55
 -13   2   4   38.00    8.46
  12  -2  -4  410.23   16.17
 -12  -2   4  420.25   18.28
 -12   2   4  426.95   17.67
  12   2  -4  402.14   17.40
  11  -2  -4  321.03   13.27
 -11  -2   4  330.06   15.78
 -11   2   4  325.32   14.69
  11   2  -4  323.52   14.80
 -10  -2   4  577.49   20.71
  10  -2  -4  583.35   18.76
 -10   2   4  582.75   19.61
 -10   2   4  546.98   17.76
  10   2  -4  578.25   20.31
   9  -2  -4  924.04   26.97
  -9  -2   4  907.42   28.53
  -9   2   4  836.31   26.21
   9   2  -4  910.72   28.21
  -9   2   4  964.78   27.59
  -8  -2   4   10.51    6.05
   8   2  -4   17.52    4.65
   8   2  -4   11.48    5.04
  -7  -2   4   34.38    6.01
   7   2  -4   25.58    4.37
   7   2  -4   38.13    5.19
  -6  -2   4  339.27   13.04
   6   2  -4  341.43   12.73
   6   2  -4  336.53   12.97
   5  -2  -4  502.60   16.41
  -5  -2   4  507.24   16.90
   5   2  -4  503.25   16.78
   5   2  -4  500.41   16.65
   4  -2  -4  179.07    8.24
  -4  -2   4  183.81    8.92
   4   2  -4  178.39    7.82
   4   2  -4  175.57    8.74
   4   2  -4  183.38    8.31
   3  -2  -4  424.98   13.53
  -3  -2   4  422.17   14.01
   3   2  -4  396.04   12.84
   3   2  -4  386.18   13.84
   3   2  -4  412.06   13.61
   2  -2  -4   50.50    4.18
  -2  -2   4   53.00    4.90
   2   2  -4   37.67    3.58
   2   2  -4   52.94    3.86
  -2   2   4   49.78    4.49
   2   2  -4   45.20    4.23
   1  -2  -4  118.20    6.06
  -1  -2   4  116.49    6.66
   1   2  -4  117.16    5.80
   1   2  -4  115.10    6.36
  -1   2   4  113.62    6.70
   1   2  -4  120.77    5.95
   0  -2  -4   10.06    2.78
   0  -2   4    9.66    2.04
   0  -2   4   10.21    3.71
   0   2  -4    9.19    2.76
   0   2  -4    7.44    2.76
   0   2   4    7.92    3.49
   0   2  -4    5.79    3.09
   1  -2   4    4.43    3.56
  -1  -2  -4    4.41    2.70
  -1   2  -4    4.37    3.01
   1   2   4    6.92    3.46
   2  -2   4  396.02   13.64
   2   2   4  397.54   13.59
  -2   2  -4  414.08   13.63
   3  -2   4    3.08    3.95
  -3   2  -4    3.05    3.36
  -3   2  -4   -1.34    2.51
   3   2   4    0.96    3.59
   4  -2   4   66.68    5.57
   4  -2   4   46.18    3.74
  -4  -2  -4   43.93    3.72
  -4   2  -4   39.78    3.84
  -4   2  -4   50.81    5.02
   4   2   4   52.32    5.28
   5  -2   4  181.64    9.26
   5  -2   4  171.64    7.81
  -5  -2  -4  189.02    7.69
  -5   2  -4  187.91    9.14
   5   2   4  186.79    9.60
   5   2   4  171.84    8.05
   5   2   4  185.26    7.77
  -5   2  -4  178.67    8.08
  -6  -2  -4  533.70   16.64
   6   2   4  567.29   18.21
  -6   2  -4  523.23   16.94
  -6   2  -4  547.95   18.11
   6   2   4  479.91   17.05
   6   2   4  525.61   16.65
  -7  -2  -4  291.91   11.43
   7   2   4  306.10   11.61
  -7   2  -4  289.65   11.36
  -7   2  -4  311.34   12.92
   7   2   4  261.49   11.49
   7   2   4  323.25   13.44
  -8  -2  -4  856.17   26.48
   8   2   4  809.47   27.45
  -8   2  -4  930.53   28.08
   8   2   4  909.28   26.72
  -9  -2  -4   88.20    7.32
   9   2   4   87.07    7.16
  -9   2  -4   83.36    8.13
 -10  -2  -4   24.48    6.66
 -10   2  -4   19.89    7.05
  10   2   4   17.49    6.27
 -11  -2  -4   87.20    8.67
  11   2   4   91.72    8.54
 -11   2  -4   80.78    9.30
 -12  -2  -4  602.17   21.84
 -12   2  -4  581.68   23.18
  12   2   4  575.69   21.57
 -13   2  -4   64.13   10.08
  13   2   4   58.01    8.95
  14   2   4  201.08   14.99
 -14   2  -4  162.61   13.50
 -15   3   4  -16.30    8.83
  15   3  -4    1.27   10.14
 -14  -3   4  101.13   12.52
 -14   3   4   76.77   10.23
  14   3  -4  129.90   12.10
 -13  -3   4  109.72   11.23
 -13   3   4   74.15    9.40
  13   3  -4  132.35   11.78
 -12  -3   4  331.48   17.30
  12   3  -4  329.26   17.27
 -11  -3   4  157.27   11.59
  11   3  -4  165.85   13.74
 -10  -3   4   23.22    8.12
  10   3  -4    9.36    7.67
  -9  -3   4    3.24    7.28
   9   3  -4  -12.29    6.65
   9   3  -4   -7.28    6.42
  -8  -3   4  626.35   21.60
   8   3  -4  615.34   21.77
   8   3  -4  571.36   21.61
  -7  -3   4  276.79   13.62
   7   3  -4  273.10   14.02
   7   3  -4  279.70   13.77
  -6  -3   4   43.10    7.10
   6   3  -4   40.58    7.06
   6   3  -4   42.84    6.29
   6   3  -4   31.69    5.75
  -5  -3   4  772.99   25.29
   5   3  -4  759.08   24.98
   5   3  -4  820.52   24.83
   5   3  -4  803.41   25.70
  -4  -3   4  304.46   13.38
   4   3  -4  318.66   12.64
   4   3  -4  303.10   13.96
   4   3  -4  304.79   12.42
  -3  -3   4  143.61    9.45
   3   3  -4  138.81    8.78
   3   3  -4  129.18   10.07
   3   3  -4  130.61    7.85
  -2  -3   4   97.30    8.45
   2   3  -4   97.51    7.04
  -2   3   4  105.78    8.84
   2   3  -4  109.93    7.88
   2   3  -4  100.48    7.66
  -1  -3   4  206.48   10.25
   1   3  -4  188.01   10.78
   1   3  -4  186.09    8.73
   1   3  -4  196.82    9.47
  -1   3   4  199.86   10.64
   0  -3   4  296.68   12.33
   0   3  -4  309.19   13.21
   0   3   4  287.07   12.97
   0   3  -4  299.30   11.55
   1  -3   4  859.82   26.59
   1  -3   4  889.20   24.81
   1   3   4  849.32   26.62
  -1   3  -4  845.99   27.23
   2  -3   4  100.92    8.48
   2  -3   4  112.41    6.23
  -2   3  -4   96.97    6.69
   2   3   4  117.23    8.28
  -2   3  -4  122.09    8.43
   3  -3   4  247.74   11.41
   3  -3   4  250.57    9.26
  -3   3  -4  243.83   12.23
  -3   3  -4  217.69    9.42
   3   3   4  217.42   12.00
   4  -3   4  277.89    9.97
   4  -3   4  249.46   12.53
   4   3   4  257.21   12.88
  -4   3  -4  231.76   10.00
  -4   3  -4  265.42   13.01
   5  -3   4    0.77    5.52
   5   3   4   11.64    6.09
  -5   3  -4    8.20    5.72
  -6  -3  -4  462.65   16.17
   6  -3   4  511.17   18.76
   6   3   4  503.43   19.37
  -6   3  -4  517.06   19.27
   7  -3   4  150.76   11.77
   7   3   4  151.40    9.72
  -7   3  -4  139.69   12.39
   7   3   4  167.06   12.86
   8  -3   4   63.68    8.21
   8   3   4   75.10    9.35
  -8   3  -4   80.29    9.39
   8   3   4   63.01    7.01
   9  -3   4   36.30    8.09
   9   3   4   45.00    7.20
   9   3   4   44.08    9.07
  -9   3  -4   51.90    9.11
  10   3   4  438.08   20.65
 -10   3  -4  461.88   20.57
  10   3   4  469.54   18.07
  11   3   4   37.75    9.49
  11   3   4   34.69    8.26
 -11   3  -4   44.42    9.55
 -12   3  -4   66.50   10.81
  12   3   4   73.51   10.59
  12   3   4   49.67    9.15
  11   4  -4    1.79    9.37
  11   4  -4  -10.05    9.07
  10   4  -4   46.72   10.44
  10   4  -4   91.26   10.66
   9   4  -4   69.19   10.37
   9   4  -4   93.85   10.37
   8   4  -4    1.37    8.62
   8   4  -4    6.58    8.09
   7   4  -4  290.89   16.36
   7   4  -4  263.18   16.22
   6   4  -4  152.77   11.30
   6   4  -4  171.92   14.17
   5   4  -4   93.57    9.04
   5   4  -4   98.83   10.44
   4   4  -4   -9.12    8.26
   4   4  -4   -4.95    6.14
   3   4  -4  704.26   25.29
   3   4  -4  673.87   23.37
   2   4  -4  129.33   11.11
   2   4  -4  104.16    8.41
   1   4  -4 1104.78   34.01
  -1   4   4 1161.77   35.30
   1   4  -4 1132.74   36.24
   0   4   4   73.48    8.46
   0   4  -4   46.11    9.52
   1   4   4   13.06    6.88
  -1   4  -4   -5.63    8.72
  -2   4  -4   73.79   10.46
   2   4   4   67.57    8.88
   3   4   4  651.67   24.39
  -3   4  -4  674.57   25.48
  -4   4  -4  102.81   11.35
   4   4   4   87.48   10.48
   5   4   4  314.60   17.51
  -5   4  -4  328.11   18.84
   6   4   4    3.67    8.61
  -6   4  -4    5.96    9.58
   7   4   4    0.09    8.76
  -7   4  -4   -2.92    9.59
   8   4   4   96.72   12.12
  -8   4  -4   77.27   11.85
  -9   4  -4   58.79   11.82
   4   5  -4    2.34    9.77
   4   5  -4   17.49    8.48
   3   5  -4  427.27   20.98
   3   5  -4  438.46   20.35
   2   5  -4    6.27   10.23
   2   5  -4   11.20    8.21
   1   5  -4  105.87   12.29
   1   5   4  675.55   27.67
 -18   0   5   -6.44   12.37
  18   0  -5    8.64    9.62
 -17   0   5  624.96   26.65
  17   0  -5  641.25   25.05
  16   0  -5   -1.11    7.94
 -16   0   5   -2.07   10.62
  15   0  -5  106.01    9.62
 -15   0   5  102.91   11.72
  14   0  -5   -8.47    6.68
 -14   0   5    2.02    8.93
 -13   0   5  252.45   14.70
  13   0  -5  232.35   12.94
 -12   0   5   -0.15    7.20
  12   0  -5    6.67    5.70
 -11   0   5  318.56   14.39
  11   0  -5  332.15   13.39
 -10   0   5    4.25    3.65
  10   0  -5    3.42    4.27
 -10   0   5   -0.47    5.68
   9   0  -5   28.91    4.54
  -9   0   5   30.07    4.07
  -9   0   5   22.26    5.53
   8   0  -5    3.04    3.42
  -8   0   5   -5.71    4.38
  -8   0   5   -0.77    3.05
  -7   0   5   58.44    4.38
  -7   0   5   49.82    4.77
   7   0  -5   48.67    4.21
   7   0  -5   47.85    4.21
   6   0  -5    2.25    2.01
   6   0  -5    2.45    2.70
  -6   0   5    8.31    3.47
  -6   0   5    3.38    2.73
   5   0  -5 2726.31   74.60
  -5   0   5 2771.48   74.75
   5   0  -5 2648.28   74.65
   4   0  -5   -1.08    2.05
   4   0  -5    1.91    1.73
  -4   0   5   -2.42    2.49
  -4   0   5    2.90    2.19
   3   0  -5 1049.20   29.44
  -3   0   5 1033.06   29.46
  -3   0   5 1082.94   29.46
   3   0  -5 1016.60   29.28
   2   0  -5    1.56    1.60
   2   0  -5    2.05    1.47
  -2   0   5    0.40    1.73
  -2   0   5    0.54    1.85
  -1   0   5 3025.51   82.56
   1   0  -5 3010.98   82.45
   1   0  -5 2999.45   82.55
  -1   0   5 3069.78   82.52
   0   0   5    1.59    1.71
   0   0   5    1.60    1.87
   0   0  -5    0.10    1.62
  -1   0  -5 9151.57  249.35
  -1   0  -5 9117.09  250.07
   1   0   5 9306.67  249.40
  -2   0  -5   -0.85    1.60
   2   0   5    2.38    1.89
  -2   0  -5    1.72    1.97
   3   0   5  277.20    9.23
  -3   0  -5  270.30    9.09
   3   0   5  278.20    9.29
  -3   0  -5  283.47    9.30
  -4   0  -5    1.72    2.51
   4   0   5    1.34    2.34
   4   0   5   -0.31    2.43
  -4   0  -5    0.29    2.12
   5   0   5 3645.34  102.57
   5   0   5 3837.64  102.75
  -5   0  -5 3763.47  102.72
  -6   0  -5    2.64    3.44
   6   0   5    1.43    3.26
   6   0   5    0.03    2.75
  -7   0  -5 3672.59  102.17
   7   0   5 3747.18  102.18
   8   0   5    1.18    3.84
  -8   0  -5    2.98    4.43
   9   0   5  250.23   11.20
  -9   0  -5  254.53   11.87
  10   0   5    4.39    5.00
 -10   0  -5   15.39    5.93
 -11   0  -5  412.72   16.88
  11   0   5  410.01   16.19
 -12   0  -5   -0.97    6.96
  12   0   5   -5.76    5.80
 -13   0  -5    3.10    7.71
  13   0   5   15.71    6.94
 -14   0  -5   -4.11    8.51
  14   0   5   -3.39    6.96
 -15   0  -5   17.12    9.60
  15   0   5   24.38    8.45
 -18  -1   5  -12.12   12.05
  18   1  -5    4.71    9.58
 -18   1   5  -13.55   12.60
 -17  -1   5    3.11   11.49
  17  -1  -5    5.31    8.65
  17   1  -5   -6.39    9.06
 -17   1   5   -9.14   11.76
 -16  -1   5   -9.65   10.29
  16  -1  -5    6.23    7.93
  16   1  -5    6.00    8.48
 -16   1   5  -22.46   10.38
  15  -1  -5  227.23   14.36
 -15  -1   5  202.19   16.73
 -15   1   5  239.81   16.81
  15   1  -5  233.92   15.03
  14  -1  -5   39.97    7.56
 -14  -1   5   46.10   10.05
 -14   1   5   50.27    9.66
  14   1  -5   37.05    8.15
  13  -1  -5  271.58   13.28
 -13  -1   5  241.42   15.51
  13   1  -5  247.10   13.97
 -13   1   5  275.59   15.27
 -12  -1   5   86.55    9.36
  12  -1  -5   97.69    7.61
 -12   1   5   89.35    7.08
  12   1  -5   85.75    7.91
 -12   1   5  106.58    9.16
 -11  -1   5   57.58    8.11
  11  -1  -5   52.05    5.70
 -11   1   5   43.41    4.68
  11   1  -5   51.94    6.56
 -11   1   5   62.92    7.27
  10  -1  -5  791.00   23.68
 -10  -1   5  739.20   24.79
 -10   1   5  840.94   24.35
  10   1  -5  739.37   24.42
 -10   1   5  740.43   23.06
  -9  -1   5    6.16    5.52
   9  -1  -5    6.84    3.71
   9   1  -5    6.66    4.34
  -9   1   5    4.57    4.71
  -9   1   5    5.99    3.06
  -8  -1   5   19.36    5.25
   8  -1  -5   20.29    3.49
   8   1  -5   24.83    4.48
  -8   1   5   20.71    4.44
   8   1  -5   24.36    4.09
  -8   1   5   22.76    3.28
   7  -1  -5  318.54   10.53
  -7  -1   5  321.16   11.69
  -7  -1   5  325.97   12.21
   7   1  -5  306.17   11.42
  -7   1   5  298.68   10.33
   7   1  -5  306.00   11.68
  -7   1   5  323.58   11.16
  -6  -1   5 1124.77   32.10
   6  -1  -5 1128.67   30.83
  -6  -1   5 1085.79   32.06
   6  -1  -5 1128.20   30.90
  -6   1   5 1041.85   30.83
   6   1  -5 1077.27   31.91
   6   1  -5 1098.08   31.88
  -5  -1   5   11.19    3.80
  -5  -1   5   17.91    3.41
   5   1  -5    8.17    3.08
   5   1  -5   14.25    2.94
  -4  -1   5  763.30   22.58
  -4  -1   5  741.33   22.56
   4   1  -5  760.36   22.39
   4   1  -5  762.57   22.53
  -3  -1   5 3257.23   91.78
   3  -1  -5 3359.21   89.05
  -3  -1   5 3464.80   91.76
   3   1  -5 3356.57   91.77
   3   1  -5 3257.68   91.57
  -2  -1   5  359.17   11.66
   2  -1  -5  361.31   11.09
  -2  -1   5  363.61   11.62
   2   1  -5  354.08   11.38
   2   1  -5  344.97   11.55
  -1  -1   5 1921.94   53.95
  -1  -1   5 1970.84   53.92
   1  -1  -5 1937.44   52.23
   1   1  -5 1878.17   53.76
  -1   1   5 2002.06   52.27
   1   1  -5 1945.91   54.00
   0  -1   5  917.15   26.55
   0  -1   5  939.09   26.54
   0  -1  -5  902.00   25.56
   0   1  -5  922.80   26.37
   0   1   5  941.48   25.71
   0   1  -5  907.63   26.58
   1  -1   5  331.96   11.04
   1  -1   5  335.20   10.84
   1   1   5  322.09   10.49
  -1   1  -5  341.27   10.95
  -2  -1  -5   15.72    2.19
   2  -1   5   11.03    3.15
  -2  -1  -5   16.10    2.02
   2  -1   5   15.03    2.72
  -2   1  -5   10.46    2.43
   2   1   5   12.18    2.12
   2   1   5    8.66    2.56
   2   1   5   12.17    2.18
  -2   1  -5   10.93    2.60
  -3  -1  -5 5715.85  155.47
   3  -1   5 5465.10  155.80
  -3  -1  -5 5838.02  155.42
   3   1   5 5794.46  155.51
   3   1   5 5863.98  155.43
   3   1   5 5805.64  151.50
  -3   1  -5 5667.09  155.85
  -3   1  -5 5666.53  156.14
   4  -1   5  571.13   17.75
  -4  -1  -5  611.80   17.53
  -4   1  -5  572.35   17.76
   4   1   5  590.21   17.51
   4   1   5  579.74   17.60
  -4   1  -5  595.02   18.20
   4   1   5  589.63   17.50
  -5  -1  -5 1227.45   34.18
  -5   1  -5 1174.24   34.35
   5   1   5 1232.47   34.23
   5   1   5 1184.83   34.24
  -5   1  -5 1197.44   34.80
  -6  -1  -5  246.36    9.65
   6   1   5  235.04    9.25
  -6   1  -5  248.42   10.20
   6   1   5  248.28    9.57
   7  -1   5  807.78   24.95
  -7  -1  -5  835.20   24.53
   7   1   5  826.44   24.54
   7   1   5  817.76   24.46
  -7   1  -5  779.48   24.96
  -8  -1  -5  295.11   11.89
   8  -1   5  293.19   12.16
  -8   1  -5  294.39   12.45
   8   1   5  282.05   11.32
   8   1   5  307.91   11.90
  -9  -1  -5  920.37   27.98
   9  -1   5  878.78   28.16
   9   1   5  952.30   28.07
  -9   1  -5  896.61   28.53
  10  -1   5    6.80    5.29
 -10  -1  -5   14.31    6.11
 -10   1  -5    4.15    5.81
  10   1   5   13.12    5.71
 -11  -1  -5   12.48    6.80
  11  -1   5    7.10    5.70
 -11   1  -5    8.98    6.56
  11   1   5    9.48    6.22
 -12  -1  -5  486.37   19.64
  12  -1   5  505.38   19.30
  12   1   5  497.35   19.39
 -12   1  -5  513.15   20.46
  13  -1   5   30.71    7.36
 -13  -1  -5   23.20    8.58
 -13   1  -5   25.79    8.43
  13   1   5   29.16    7.82
 -14  -1  -5  135.73   11.83
  14  -1   5  162.16   12.85
 -14   1  -5  111.74   11.33
  14   1   5  144.04   11.23
  15  -1   5   29.31    8.73
  15   1   5    7.78    8.69
 -17  -2   5  -13.09   10.85
  17   2  -5   -7.43    9.80
 -17   2   5   -5.88   10.99
 -16  -2   5   -4.06   10.62
  16   2  -5    3.50    9.54
 -16   2   5   -0.58   10.13
 -15  -2   5   -2.02   10.18
 -15   2   5   -6.72    9.18
  15   2  -5    3.64    9.22
 -14  -2   5  185.06   16.18
  14   2  -5  216.23   15.23
 -14   2   5  235.39   16.25
 -13  -2   5    3.22    8.92
  13  -2  -5   -4.98    6.24
 -13   2   5   -5.25    7.88
  13   2  -5    0.81    7.40
  12  -2  -5   95.82    7.64
 -12  -2   5  107.20   10.60
 -12   2   5   93.73    9.04
  12   2  -5  104.11    9.36
  11  -2  -5   -3.47    4.98
 -11  -2   5  -11.36    7.69
  11   2  -5   -3.93    6.62
 -11   2   5    9.66    6.51
 -10  -2   5  196.76   12.66
  10  -2  -5  176.48    9.28
 -10   2   5  175.78    8.25
  10   2  -5  199.67   11.75
 -10   2   5  197.44   11.08
   9  -2  -5   19.71    4.21
  -9  -2   5   27.23    7.27
  -9   2   5   31.36    5.39
   9   2  -5   27.25    6.12
  -8  -2   5 2163.35   61.65
   8   2  -5 2167.28   61.64
  -7  -2   5  750.63   23.48
   7   2  -5  755.66   23.42
   7   2  -5  681.88   23.04
  -6  -2   5  100.64    7.44
   6   2  -5   85.65    7.19
   6   2  -5   93.01    7.96
  -5  -2   5  674.03   21.76
   5   2  -5  689.47   21.42
   5   2  -5  673.31   21.65
  -4  -2   5 1285.04   36.61
   4  -2  -5 1256.07   35.61
   4   2  -5 1267.91   36.35
   4   2  -5 1238.18   34.79
   4   2  -5 1212.37   36.51
  -3  -2   5  178.40    8.86
   3  -2  -5  169.57    7.75
   3   2  -5  173.45    8.43
   3   2  -5  161.98    7.80
   3   2  -5  169.29    7.14
   2  -2  -5 1393.37   38.54
  -2  -2   5 1418.15   39.65
   2   2  -5 1325.60   39.66
   2   2  -5 1371.34   37.65
   2   2  -5 1379.40   39.31
  -2   2   5 1383.08   38.62
   1  -2  -5 1135.65   32.01
  -1  -2   5 1093.67   32.81
   1   2  -5 1137.19   33.06
   1   2  -5 1127.62   32.58
  -1   2   5 1163.54   32.19
   0  -2  -5  178.27    7.56
   0  -2   5  175.53    8.31
   0   2  -5  172.07    8.15
   0   2  -5  174.20    7.46
   0   2   5  167.51    8.22
   1  -2   5  701.74   21.54
  -1  -2  -5  700.00   20.68
   1   2   5  678.04   20.98
  -1   2  -5  706.06   21.58
   2  -2   5  325.95   12.27
  -2   2  -5  331.25   12.08
   2   2   5  332.51   12.06
   3  -2   5    7.87    4.28
  -3   2  -5    0.22    2.82
   3   2   5   -1.29    3.85
  -3   2  -5    0.88    3.36
   4  -2   5   99.10    7.96
  -4   2  -5  101.90    6.24
  -4   2  -5  116.25    7.54
   4   2   5  106.87    6.08
   4   2   5   95.71    7.84
  -5  -2  -5  961.09   26.90
   5  -2   5  947.32   28.31
   5   2   5  967.21   27.97
   5   2   5  967.45   26.95
  -5   2  -5  870.67   27.37
   5   2   5  837.05   27.20
  -5   2  -5  932.58   28.43
  -6  -2  -5  419.70   13.97
  -6   2  -5  432.14   15.57
   6   2   5  426.63   15.69
   6   2   5  362.11   14.08
   6   2   5  436.61   14.17
  -7  -2  -5  104.06    7.85
   7   2   5  124.66    8.12
   7   2   5  101.15    7.50
   7   2   5  119.90    8.54
  -7   2  -5  116.72    9.14
  -8  -2  -5  192.70   10.23
   8   2   5  208.20   12.29
  -8   2  -5  198.79   11.63
   8   2   5  206.69   10.43
  -9  -2  -5   -1.09    5.61
   9   2   5    8.74    5.78
  -9   2  -5   -3.48    5.73
   9   2   5    1.42    6.30
 -10  -2  -5 1091.28   33.68
 -10   2  -5 1073.95   34.96
  10   2   5 1144.67   33.87
 -11  -2  -5   10.58    7.17
 -11   2  -5    9.87    7.81
  11   2   5    3.56    6.98
 -12   2  -5   29.61    8.84
  12   2   5   35.74    8.14
  13   2   5    2.39    8.02
 -13   2  -5   -1.54    8.79
  15   3  -5   12.68   10.55
 -15   3   5   -6.66    8.44
 -14  -3   5   59.30   11.10
 -14   3   5   23.76    8.39
  14   3  -5   83.10   11.11
 -13  -3   5   52.16   10.85
  13   3  -5   75.86   10.59
 -12  -3   5  580.64   23.25
  12   3  -5  584.31   23.29
 -11  -3   5   91.37   10.34
  11   3  -5   68.90    9.55
 -10  -3   5  201.75   14.11
  10   3  -5  197.68   14.24
  -9  -3   5  260.33   14.69
   9   3  -5  260.48   14.92
  -8  -3   5   93.43    9.25
   8   3  -5   78.25    8.47
   8   3  -5   92.78    8.93
  -7  -3   5   62.22    8.03
   7   3  -5   64.91    8.00
   7   3  -5   63.04    7.53
  -6  -3   5 1257.77   37.20
   6   3  -5 1199.12   37.08
   6   3  -5 1226.31   36.19
   6   3  -5 1217.11   37.36
  -5  -3   5  770.07   25.75
   5   3  -5  786.39   25.38
   5   3  -5  813.23   26.15
   5   3  -5  799.10   24.74
  -4  -3   5  223.45   11.98
   4   3  -5  229.01   12.59
   4   3  -5  218.10   10.79
   4   3  -5  216.19   10.55
  -3  -3   5  285.69   13.02
   3   3  -5  288.28   11.81
   3   3  -5  307.66   13.50
   3   3  -5  270.68   11.56
  -2  -3   5  276.69   12.51
   2   3  -5  269.55   11.23
   2   3  -5  262.04   11.20
   2   3  -5  283.24   13.19
  -2   3   5  284.55   12.55
  -1  -3   5  132.74    9.49
   1   3  -5  143.32    8.12
   1   3  -5  121.53    7.64
  -1   3   5  144.08    9.75
   1   3  -5  126.09   10.03
   0  -3   5   76.71    7.12
   0   3  -5   60.66    6.76
   0   3   5   86.36    7.38
   1  -3   5  254.07   11.95
   1  -3   5  272.40    9.58
   1   3   5  261.02   12.60
  -1   3  -5  281.77   12.97
   2  -3   5   26.70    3.49
   2  -3   5   20.89    5.77
  -2   3  -5   16.80    3.94
   2   3   5   18.43    5.85
  -2   3  -5   24.61    6.11
   3  -3   5    7.47    5.61
   3  -3   5   10.52    3.04
  -3   3  -5    3.05    5.71
   3   3   5    5.59    5.70
  -3   3  -5    4.21    3.67
   4  -3   5   -3.80    5.78
   4   3   5   -2.48    5.75
  -4   3  -5    4.22    5.96
   5  -3   5   22.56    3.78
   5  -3   5   15.30    6.41
   5   3   5   21.14    6.81
  -5   3  -5   26.47    6.44
   6  -3   5  281.91   14.36
  -6   3  -5  311.70   14.98
   6   3   5  284.98   15.13
   7  -3   5   -1.77    6.91
   7   3   5    2.78    7.15
   7   3   5    7.14    5.61
  -7   3  -5    8.52    6.97
   8  -3   5  319.48   16.14
   8   3   5  338.59   13.94
   8   3   5  316.57   17.11
  -8   3  -5  293.45   16.40
   9  -3   5   17.78    8.07
   9   3   5   26.73    8.78
  -9   3  -5   33.78    8.56
   9   3   5   32.33    7.04
 -10   3  -5  111.88   11.33
  10   3   5  119.18   11.86
  10   3   5  106.89    9.17
  11   3   5    5.63    8.91
  11   3   5   -2.46    7.84
 -11   3  -5   -7.08    8.61
  12   3   5  634.53   23.79
  11   4  -5   93.54   11.21
  11   4  -5   49.98   10.75
  10   4  -5  341.87   20.48
  10   4  -5  487.31   20.50
   9   4  -5    6.38    9.39
   9   4  -5    1.27    8.44
   8   4  -5   89.34   10.44
   8   4  -5  120.94   11.43
   7   4  -5   95.48   10.02
   7   4  -5  121.54   11.12
   6   4  -5    9.49    8.80
   6   4  -5   15.56    7.17
   5   4  -5   -1.51    6.31
   5   4  -5    1.03    8.67
   4   4  -5  177.63   12.47
   4   4  -5  142.78   11.82
   3   4  -5  175.19   12.87
   3   4  -5  156.28   11.38
   2   4  -5    1.12    6.01
   2   4  -5   -9.59    8.70
   1   4  -5   42.70    6.47
   1   4  -5   29.91    9.58
  -1   4   5   43.11    7.96
   0   4  -5  -25.93    8.54
   0   4   5    1.79    6.57
   1   4   5  192.60   13.57
  -1   4  -5  180.81   15.51
   2   4   5  146.63   11.58
  -2   4  -5  149.31   12.53
  -3   4  -5   26.92    9.58
   3   4   5   23.96    8.22
  -4   4  -5   94.28   11.67
   4   4   5   92.35   10.64
   5   4   5   23.92    8.81
  -5   4  -5   26.27   10.29
  -6   4  -5   46.60   10.91
   6   4   5   39.91    9.77
   7   4   5   47.28   10.57
  -7   4  -5   44.95   11.11
  -8   4  -5  300.47   20.23
   8   4   5  317.41   19.85
   3   5  -5   30.31    8.65
   3   5  -5   57.03   11.57
   2   5  -5    8.37   11.11
   1   5  -5   32.32   11.55
   0   5  -5   36.08   11.90
 -18   0   6  262.48   20.83
  18   0  -6  258.18   17.87
 -17   0   6    3.24   11.80
  17   0  -6    9.39    8.74
 -16   0   6    4.20   10.74
  16   0  -6    5.52    8.12
  15   0  -6    2.78    7.57
 -15   0   6    5.91   10.23
 -14   0   6 1061.18   34.98
  14   0  -6 1093.23   34.12
  13   0  -6    4.37    6.40
 -13   0   6    1.77    8.25
  12   0  -6 3074.96   85.68
 -12   0   6 3029.24   85.87
  11   0  -6    3.58    4.82
 -11   0   6    0.76    6.71
 -11   0   6    5.19    4.31
 -10   0   6 1158.67   33.72
  10   0  -6 1133.09   33.75
 -10   0   6 1140.01   34.30
  -9   0   6   -0.53    5.15
   9   0  -6    2.07    4.05
  -9   0   6    2.87    3.63
   8   0  -6 6479.95  181.46
  -8   0   6 6697.01  181.63
  -8   0   6 6800.84  181.63
  -7   0   6   -0.53    3.03
   7   0  -6    3.24    2.37
  -7   0   6   -4.97    3.88
   7   0  -6    1.29    3.18
  -6   0   6  680.86   20.70
   6   0  -6  722.34   20.57
   6   0  -6  669.56   20.68
   5   0  -6   -1.82    1.96
  -5   0   6   -4.53    2.95
  -5   0   6    2.56    2.72
   5   0  -6    5.55    2.63
   4   0  -6 2065.79   58.00
  -4   0   6 2060.49   58.20
  -4   0   6 2238.25   58.32
   4   0  -6 2044.62   58.14
  -3   0   6   -0.61    2.30
   3   0  -6   -0.42    1.69
  -3   0   6    5.33    2.64
   3   0  -6    0.21    2.01
  -2   0   6 2028.11   55.53
   2   0  -6 1920.50   55.48
  -2   0   6 2038.35   55.49
   2   0  -6 2055.38   55.40
  -1   0   6   -0.99    2.20
   1   0  -6   -3.37    1.55
  -1   0   6   -0.51    1.99
   1   0  -6    0.77    1.82
   0   0   6   21.77    2.53
   0   0  -6   19.50    2.42
   0   0   6   21.59    2.75
  -1   0  -6    4.20    1.83
  -1   0  -6    2.50    2.05
   1   0   6   -0.49    2.10
   1   0   6    3.45    2.39
  -2   0  -6 1176.17   32.68
  -2   0  -6 1138.06   32.52
   2   0   6 1151.66   32.57
  -3   0  -6    0.94    2.10
  -3   0  -6    4.84    2.54
   3   0   6    2.24    2.43
   4   0   6 1181.12   33.64
  -4   0  -6 1207.11   33.63
   4   0   6 1145.22   33.49
   5   0   6    1.14    2.77
  -5   0  -6    0.83    3.14
   5   0   6   -1.24    3.10
   6   0   6 1235.37   35.15
  -6   0  -6 1220.39   35.18
   6   0   6 1192.69   34.93
  -7   0  -6    2.15    4.16
   7   0   6    2.77    4.07
  -8   0  -6  560.16   18.87
   8   0   6  570.72   18.79
   9   0   6    2.24    4.95
  -9   0  -6    1.65    5.20
  10   0   6 1556.44   45.28
 -10   0  -6 1526.94   45.40
 -11   0  -6    3.89    6.51
  11   0   6    2.45    5.87
 -12   0  -6  389.71   17.54
  12   0   6  393.47   16.81
  13   0   6    3.80    6.85
 -13   0  -6    1.62    7.78
 -14   0  -6  269.10   16.83
  14   0   6  283.81   15.83
 -18  -1   6   31.02   13.02
  18   1  -6   26.06   10.19
 -18   1   6   24.25   13.45
 -17  -1   6   -4.50   11.16
  17   1  -6   -0.66    8.95
 -17   1   6   -2.23   11.46
  16  -1  -6  439.57   19.72
 -16  -1   6  426.98   22.04
  16   1  -6  438.76   20.21
 -16   1   6  467.53   21.98
 -15  -1   6  470.26   22.08
  15  -1  -6  477.76   19.86
  15   1  -6  501.67   20.62
 -15   1   6  472.41   21.80
  14  -1  -6  213.29   12.96
 -14  -1   6  191.29   13.38
  14   1  -6  204.80   13.92
 -14   1   6  181.53   15.34
 -13  -1   6   -6.13    8.51
  13  -1  -6    2.96    5.92
 -13   1   6    0.99    7.88
  13   1  -6   -5.51    6.56
  12  -1  -6  920.66   29.01
 -12  -1   6  961.43   30.59
 -12   1   6  954.15   30.01
  12   1  -6  942.47   29.75
 -12   1   6  924.53   28.36
  11  -1  -6  109.79    8.51
 -11  -1   6  100.65    9.05
 -11   1   6  100.60    7.02
  11   1  -6  107.08    8.37
 -11   1   6  105.28    8.63
 -10  -1   6 3364.34   94.44
  10  -1  -6 3381.23   93.64
 -10   1   6 3237.54   93.39
  10   1  -6 3394.80   94.33
 -10   1   6 3564.17   94.02
   9  -1  -6  108.20    7.00
  -9  -1   6  117.26    9.80
  -9   1   6  109.11    6.39
  -9   1   6  113.22    8.82
   9   1  -6  105.74    8.57
  -8  -1   6   19.77    5.54
   8  -1  -6   19.85    3.64
   8   1  -6   16.14    4.56
  -8   1   6   15.77    3.33
  -8   1   6   13.58    4.72
   7  -1  -6  761.02   22.10
  -7  -1   6  750.21   23.53
  -7  -1   6  756.58   23.36
   7   1  -6  754.73   23.32
  -7   1   6  727.10   22.14
  -7   1   6  801.61   22.60
   7   1  -6  737.85   23.08
  -6  -1   6 3298.28   92.16
  -6  -1   6 3406.96   92.12
   6   1  -6 3305.97   92.02
   6   1  -6 3301.61   91.94
  -5  -1   6  522.88   16.88
  -5  -1   6  546.20   17.14
   5   1  -6  519.34   16.59
   5   1  -6  515.67   16.81
  -4  -1   6 1132.56   32.61
  -4  -1   6 1165.32   32.76
   4   1  -6 1101.08   32.58
   4   1  -6 1110.12   32.39
  -3  -1   6 1186.80   34.62
   3  -1  -6 1241.54   33.45
  -3  -1   6 1225.22   34.60
   3   1  -6 1159.85   34.34
   3   1  -6 1223.67   34.65
  -2  -1   6    7.39    2.78
   2  -1  -6    7.90    2.23
  -2  -1   6    6.47    3.04
   2   1  -6    6.50    2.40
   2   1  -6    7.95    2.59
  -1  -1   6 2246.72   62.62
  -1  -1   6 2305.22   62.73
   1  -1  -6 2272.18   60.60
   1   1  -6 2197.58   62.46
  -1   1   6 2308.04   60.61
   1   1  -6 2219.80   62.69
   0  -1   6  838.41   24.28
   0  -1  -6  835.69   23.26
   0  -1   6  839.82   24.34
   0   1  -6  812.88   24.29
   0   1  -6  815.15   24.02
   0   1   6  833.41   23.38
   1  -1   6   91.98    5.43
   1  -1   6   98.24    5.98
   1   1   6  104.52    5.36
  -1   1  -6   92.96    5.31
  -2  -1  -6   72.05    4.19
   2  -1   6   70.52    4.86
  -2  -1  -6   65.91    3.95
   2  -1   6   73.40    5.71
   2   1   6   71.82    4.20
  -2   1  -6   66.55    4.55
   2   1   6   67.20    5.02
  -2   1  -6   62.04    5.07
  -3  -1  -6 1071.02   28.88
   3  -1   6  954.60   29.24
   3  -1   6 1006.65   29.57
   3   1   6 1024.31   28.90
  -3   1  -6 1005.08   29.63
  -3   1  -6  971.80   29.22
   3   1   6 1056.19   28.88
   3   1   6 1035.63   28.56
  -4  -1  -6  251.43    9.16
   4   1   6  253.97    9.52
   4   1   6  249.48    9.25
  -4   1  -6  262.83   10.00
   4   1   6  252.50    9.07
  -4   1  -6  250.68    9.42
  -5  -1  -6  483.71   15.16
   5   1   6  455.82   15.06
  -5   1  -6  473.00   15.83
   5   1   6  491.66   15.22
  -6  -1  -6  410.17   13.93
   6   1   6  429.47   13.90
  -6   1  -6  414.09   14.64
   6   1   6  389.14   13.73
  -7  -1  -6  153.95    8.44
   7   1   6  137.06    7.67
  -7   1  -6  147.81    8.87
   7   1   6  142.08    8.29
  -8  -1  -6 1421.67   40.37
  -8   1  -6 1399.63   41.02
   8   1   6 1339.71   40.30
   8   1   6 1401.45   40.38
   9  -1   6  220.24   11.49
  -9  -1  -6  220.61   11.12
  -9   1  -6  203.26   11.66
   9   1   6  214.14   11.08
 -10  -1  -6    9.59    6.26
  10  -1   6   13.69    6.18
 -10   1  -6    9.76    6.13
  10   1   6    2.71    5.78
 -11  -1  -6   81.49    8.56
  11  -1   6   97.51    8.97
 -11   1  -6   76.29    8.46
  11   1   6   92.93    8.41
 -12  -1  -6  504.41   19.96
  12  -1   6  501.66   20.10
  12   1   6  501.14   19.70
 -12   1  -6  523.19   20.80
  13  -1   6   -4.78    7.36
 -13  -1  -6   -0.22    7.97
  13   1   6   -0.29    7.53
 -13   1  -6    1.48    7.89
  14  -1   6  421.41   19.66
 -14  -1  -6  423.62   19.98
  14   1   6  441.74   19.76
 -14   1  -6  396.25   20.19
 -17  -2   6  383.65   22.57
  17   2  -6  446.92   21.55
 -16  -2   6   10.66   10.97
  16   2  -6    4.59    9.86
 -16   2   6   -4.74   10.74
 -15  -2   6   42.73   10.93
 -15   2   6   36.43   10.50
  15   2  -6   35.58    9.84
 -14  -2   6  247.00   17.42
  14   2  -6  256.62   15.77
 -14   2   6  221.56   16.19
 -13  -2   6  339.74   18.01
  13   2  -6  354.11   17.01
 -13   2   6  332.20   17.18
 -12  -2   6  162.19   12.06
  12  -2  -6  145.56    9.98
  12   2  -6  146.58   12.89
 -12   2   6  147.47   12.72
  11  -2  -6   48.81    5.79
 -11  -2   6   56.88    8.92
 -11   2   6   65.34    7.64
  11   2  -6   65.37    8.13
 -10  -2   6   -4.74    7.54
  10  -2  -6   -1.83    4.17
 -10   2   6    7.61    5.73
  10   2  -6   -8.80    6.04
  -9  -2   6  478.31   18.33
   9   2  -6  463.73   17.90
  -8  -2   6  748.16   24.60
   8   2  -6  755.58   24.50
  -7  -2   6   70.23    7.47
   7   2  -6   65.23    6.47
   7   2  -6   43.99    5.37
  -6  -2   6  496.34   17.65
   6   2  -6  502.98   17.08
   6   2  -6  483.13   17.34
  -5  -2   6 1264.84   36.32
   5   2  -6 1188.01   35.86
   5   2  -6 1214.30   36.22
  -4  -2   6    4.80    4.82
   4   2  -6    3.19    3.29
   4   2  -6    0.27    3.67
   4   2  -6   -3.02    3.87
   3  -2  -6 2046.81   55.61
  -3  -2   6 2021.17   57.22
   3   2  -6 1995.62   56.94
   3   2  -6 2002.84   54.50
   3   2  -6 2044.57   57.31
  -2  -2   6  298.32   11.52
   2  -2  -6  289.87   10.61
   2   2  -6  281.74   11.24
   2   2  -6  277.38   10.64
  -2   2   6  295.71   11.19
  -1  -2   6  815.40   24.62
   1  -2  -6  812.38   23.71
   1   2  -6  804.21   24.13
   1   2  -6  801.56   24.63
  -1   2   6  795.01   23.88
   0  -2  -6  367.89   12.47
   0  -2   6  372.40   13.41
   0   2   6  371.98   13.07
   0   2  -6  370.06   12.62
   0   2  -6  365.91   13.26
   1  -2   6 2925.91   82.92
  -1  -2  -6 3062.16   80.96
   1   2   6 2977.07   80.68
  -1   2  -6 2980.12   83.17
   2  -2   6   -0.16    4.32
   2   2   6    3.25    4.10
  -2   2  -6    8.98    3.81
   3  -2   6  533.61   17.74
  -3   2  -6  498.85   16.61
   3   2   6  530.72   17.33
  -3   2  -6  529.99   17.59
   4  -2   6   62.19    6.21
  -4   2  -6   38.40    4.42
  -4   2  -6   47.27    5.59
   4   2   6   40.84    5.54
   5  -2   6  971.50   31.24
  -5  -2  -6 1037.35   29.79
   5   2   6 1002.38   30.62
   5   2   6 1070.51   29.95
  -5   2  -6 1064.84   31.58
   6  -2   6   88.23    7.33
  -6  -2  -6   81.68    6.86
   6   2   6   97.37    7.68
   6   2   6   81.55    6.16
  -6   2  -6   96.94    7.77
  -7  -2  -6  514.94   17.34
  -7   2  -6  517.94   18.88
   7   2   6  538.89   19.01
   7   2   6  522.08   17.60
  -8  -2  -6    6.11    5.37
  -8   2  -6    9.31    5.78
   8   2   6    6.34    5.57
   8   2   6    5.86    6.19
  -9  -2  -6    3.20    5.94
   9   2   6   -0.77    6.18
   9   2   6    8.85    6.60
  -9   2  -6    3.37    6.19
 -10  -2  -6  268.71   13.08
 -10   2  -6  254.13   14.81
  10   2   6  270.00   13.61
  10   2   6  270.48   14.81
  11   2   6   87.68    8.87
 -11   2  -6   83.67    9.55
  11   2   6   84.67    9.55
 -12   2  -6   36.41    9.11
  12   2   6   41.05    8.80
  12   2   6   42.68    8.48
  13   2   6   35.42    9.07
 -13   2  -6   39.77    9.86
  13   2   6   28.68    8.97
 -15  -3   6   95.84   12.71
  15   3  -6  115.70   12.79
 -14  -3   6    2.57   10.78
  14   3  -6    2.85    9.82
 -13  -3   6  134.42   12.79
  13   3  -6  116.93   11.71
 -12  -3   6   14.21    9.87
  12   3  -6    9.33    9.16
 -11  -3   6   30.86    9.67
  11   3  -6   42.76    9.20
 -10  -3   6    8.58    8.88
  10   3  -6    4.16    8.15
  -9  -3   6    0.74    8.15
   9   3  -6    8.32    8.10
  -8  -3   6   73.04    9.08
   8   3  -6   74.43    8.33
   8   3  -6   91.06    9.39
  -7  -3   6  345.32   15.74
   7   3  -6  318.03   14.65
   7   3  -6  346.51   16.06
  -6  -3   6  139.20    9.91
   6   3  -6  126.34    9.89
   6   3  -6  118.63    9.40
   6   3  -6  115.34    9.94
  -5  -3   6   58.70    7.97
   5   3  -6   53.73    7.70
   5   3  -6   56.99    6.22
   5   3  -6   39.17    6.07
  -4  -3   6  144.48   11.04
   4   3  -6  150.18   11.32
   4   3  -6  149.95    9.00
  -3  -3   6  435.77   16.96
   3   3  -6  456.90   15.30
   3   3  -6  453.99   17.57
   3   3  -6  429.45   15.78
  -2  -3   6  453.07   17.02
  -2   3   6  459.36   16.76
   2   3  -6  454.21   15.25
   2   3  -6  467.16   17.44
   2   3  -6  427.32   15.81
  -1  -3   6 1595.50   46.37
   1   3  -6 1570.36   43.81
   1   3  -6 1531.52   45.46
   1   3  -6 1591.75   46.78
  -1   3   6 1624.60   45.36
   0  -3   6   27.54    6.20
   0   3   6   19.81    5.83
   0   3  -6   21.62    6.05
   1  -3   6   63.65    7.19
  -1   3  -6   69.59    7.73
   1   3   6   54.81    6.95
   2  -3   6  585.29   20.82
  -2   3  -6  624.53   21.62
   2   3   6  593.52   20.85
   3  -3   6 1125.47   34.66
  -3   3  -6 1155.38   35.32
   3   3   6 1107.86   34.10
   4  -3   6   16.21    6.64
  -4   3  -6   23.28    6.55
   4   3   6   16.41    6.61
   5  -3   6  715.75   25.18
   5   3   6  756.51   25.28
  -5   3  -6  770.66   25.76
   6  -3   6   15.19    7.16
  -6   3  -6   22.94    7.17
   6   3   6   18.22    7.39
   7  -3   6    5.30    7.34
   7   3   6    2.39    7.40
  -7   3  -6   10.42    7.21
   7   3   6   14.42    6.00
   8  -3   6   46.81    8.80
   8   3   6   35.95    8.86
  -8   3  -6   46.04    9.14
   8   3   6   30.98    6.89
   9  -3   6  148.43   11.84
  -9   3  -6  147.61   12.24
   9   3   6  146.72   11.64
   9   3   6  153.49   12.36
  10   3   6   27.65    9.56
 -10   3  -6   34.92    9.31
  10   3   6   30.46    8.07
  11   3   6   85.19   11.36
 -11   3  -6   80.94   11.37
  11   3   6   84.07    9.76
  11   4  -6   -4.47    8.97
  11   4  -6   21.80   10.48
  10   4  -6   66.75   10.96
  10   4  -6   35.13    9.68
   9   4  -6   42.86   10.52
   9   4  -6   12.67    8.82
   8   4  -6   69.05   10.74
   8   4  -6   44.84    9.09
   7   4  -6    6.47    7.57
   7   4  -6    9.04    9.31
   6   4  -6    3.01    7.07
   6   4  -6    4.38    9.36
   5   4  -6   74.78    8.22
   5   4  -6   92.84   11.20
   4   4  -6  336.68   15.48
   4   4  -6  362.06   18.85
  -3  -4   6  106.39   11.34
   3   4  -6   79.89   11.10
   3   4  -6   73.63    7.72
   2   4  -6    4.19    5.52
   2   4  -6  -10.05    8.51
  -1   4   6    9.28    7.34
   1   4  -6   -9.40    9.10
   0   4   6  225.55   14.51
   0   4  -6  240.35   16.53
   1   4   6  455.45   19.57
  -1   4  -6  489.22   21.63
  -2   4  -6    7.35    9.34
   2   4   6   14.79    7.71
  -3   4  -6  348.32   19.31
   3   4   6  328.12   17.73
   4   4   6   74.05   10.22
  -4   4  -6   88.92   12.00
  -5   4  -6    8.45    9.86
   5   4   6    1.74    8.75
  -6   4  -6   53.58   11.11
   6   4   6   44.60   10.31
  -7   4  -6  352.37   21.46
   7   4   6  389.81   21.13
 -18   0   7   -6.57   12.50
  18   0  -7   -4.28    9.24
  17   0  -7  107.84   10.99
 -17   0   7   98.85   13.45
 -16   0   7   -2.02   11.02
  16   0  -7   -0.05    8.11
  15   0  -7  149.91   10.89
 -15   0   7  143.95   13.08
  14   0  -7   -0.24    7.05
 -14   0   7    1.17    9.52
  13   0  -7   45.86    7.33
 -13   0   7   51.20    9.39
  12   0  -7    0.90    5.62
 -12   0   7  -11.64    7.68
 -11   0   7   62.79    8.27
  11   0  -7   65.85    6.59
 -11   0   7   60.63    5.96
  10   0  -7    1.25    4.75
 -10   0   7    0.89    4.02
 -10   0   7   -6.70    6.22
  -9   0   7   24.22    5.61
   9   0  -7   25.99    4.66
  -9   0   7   24.33    4.40
  -8   0   7   -3.31    4.79
   8   0  -7    1.82    3.78
  -8   0   7   -3.30    3.44
  -7   0   7   32.81    5.01
  -7   0   7   30.59    4.05
   7   0  -7   31.50    4.23
   6   0  -7   -0.88    2.25
   6   0  -7   -7.88    2.96
  -6   0   7   -4.37    3.00
  -6   0   7    0.25    3.84
   5   0  -7 2277.76   65.66
  -5   0   7 2384.98   65.97
  -5   0   7 2441.87   66.07
   5   0  -7 2402.70   65.94
  -4   0   7   -1.14    2.69
  -4   0   7   -0.05    3.05
   4   0  -7    3.02    2.59
   4   0  -7   -1.53    1.94
  -3   0   7  173.58    7.29
   3   0  -7  172.50    6.90
  -3   0   7  171.63    7.05
   3   0  -7  169.43    6.58
   2   0  -7    2.96    2.24
  -2   0   7    1.08    2.68
   2   0  -7   -2.08    1.80
  -2   0   7   -2.23    2.38
   1   0  -7    1.70    2.11
   1   0  -7   -2.07    1.79
  -1   0   7    2.72    2.59
  -1   0   7   -0.41    2.34
   0   0  -7    1.63    2.05
   0   0   7   -1.32    2.28
   0   0   7    1.35    2.56
  -1   0  -7  478.77   14.71
  -1   0  -7  491.63   15.05
   1   0   7  468.12   14.87
   1   0   7  515.94   15.14
  -2   0  -7   -0.43    2.07
  -2   0  -7    0.62    2.42
   2   0   7    2.47    2.55
   3   0   7  802.47   23.67
  -3   0  -7  809.91   23.83
   4   0   7    0.46    3.00
  -4   0  -7    0.80    3.10
  -5   0  -7  589.17   18.27
   5   0   7  568.30   17.99
  -6   0  -7   -2.80    3.77
   6   0   7    0.45    3.35
   6   0   7    1.25    3.91
  -7   0  -7   27.40    5.00
   7   0   7   23.40    4.84
   8   0   7    2.91    4.61
  -8   0  -7   -1.60    4.83
  -9   0  -7  145.69   10.14
   9   0   7  138.21    9.72
 -10   0  -7    5.97    5.98
  10   0   7   -5.79    5.40
  11   0   7 1073.71   33.20
 -11   0  -7 1041.39   33.42
  12   0   7    6.32    6.74
 -12   0  -7    6.45    7.30
 -13   0  -7   63.93    9.19
  13   0   7   76.85    9.12
  14   0   7   -0.22    7.59
 -14   0  -7   -7.74    8.32
 -18  -1   7   44.36   13.14
 -18   1   7   67.49   13.76
  18   1  -7   59.70   10.75
 -17  -1   7  133.81   14.00
 -17   1   7  137.77   14.15
  17   1  -7  125.71   11.84
 -16  -1   7   62.81   12.37
  16  -1  -7   58.54    9.40
 -16   1   7   94.80   12.50
  16   1  -7   79.33   10.54
 -15  -1   7   40.22   10.85
  15  -1  -7   18.12    7.76
  15   1  -7   20.49    8.63
 -15   1   7   26.39   10.79
  14  -1  -7    8.52    6.53
 -14  -1   7   16.82    9.73
 -14   1   7   15.86    9.32
  14   1  -7   11.03    7.46
 -13  -1   7  185.80   14.90
  13  -1  -7  191.71   11.65
  13   1  -7  191.55   12.86
 -13   1   7  183.80   14.23
 -12  -1   7  183.18   14.14
  12  -1  -7  181.51   10.90
 -12   1   7  177.09   13.17
 -12   1   7  177.75    9.39
  12   1  -7  182.76   12.26
  11  -1  -7   30.10    5.42
 -11  -1   7   33.78    7.73
  11   1  -7   26.61    6.44
 -11   1   7   28.06    4.71
 -11   1   7   25.63    7.39
  10  -1  -7  274.09   11.44
 -10  -1   7  266.27   13.94
 -10   1   7  297.67   13.15
 -10   1   7  262.61   10.91
  10   1  -7  296.33   12.95
   9  -1  -7  106.68    7.10
  -9  -1   7  119.74    8.57
  -9   1   7   92.61    6.79
   9   1  -7  114.00    7.68
  -9   1   7  109.87    7.58
  -8  -1   7  103.38    8.78
   8  -1  -7  103.87    6.36
   8   1  -7  100.68    8.04
  -8   1   7  103.21    8.17
  -8   1   7   99.47    6.13
  -7  -1   7  285.48   11.28
   7  -1  -7  272.70    9.81
  -7  -1   7  280.44   11.92
  -7   1   7  259.21    9.72
  -7   1   7  279.97   10.86
   7   1  -7  270.49   11.35
  -6  -1   7   -2.00    4.39
  -6  -1   7    0.83    3.64
   6   1  -7    0.41    3.67
   6   1  -7    2.88    3.00
  -5  -1   7   17.22    4.00
  -5  -1   7   15.28    4.45
   5   1  -7   18.61    3.39
   5   1  -7   19.38    3.88
   4  -1  -7    0.30    2.55
  -4  -1   7    4.09    4.00
  -4  -1   7    5.51    3.39
   4   1  -7    5.15    3.25
   4   1  -7    5.72    2.77
  -3  -1   7  276.02   10.17
  -3  -1   7  262.80   10.37
   3  -1  -7  274.39    9.38
   3   1  -7  263.40   10.02
   3   1  -7  262.15    9.63
   2  -1  -7    2.01    2.24
  -2  -1   7    0.05    3.39
  -2  -1   7    1.13    2.94
   2   1  -7    1.11    2.54
   2   1  -7    1.08    2.40
   1  -1  -7  490.85   14.53
  -1  -1   7  489.88   15.46
  -1  -1   7  495.55   15.58
   1   1  -7  471.79   15.10
   1   1  -7  469.60   15.36
   0  -1   7  222.77    9.11
   0  -1  -7  246.48    8.37
   0  -1   7  250.79    9.47
   0   1   7  242.08    8.69
   0   1  -7  238.99    9.10
  -1  -1  -7  997.72   27.20
  -1  -1  -7  957.48   27.08
   1  -1   7  917.42   27.90
   1  -1   7  951.77   28.14
   1   1   7  987.86   26.99
  -1   1  -7  942.30   28.09
   2  -1   7  108.81    6.98
   2  -1   7  106.47    6.20
  -2  -1  -7  120.95    5.47
  -2   1  -7  107.75    5.75
   2   1   7  112.99    5.40
   2   1   7  114.10    6.29
  -2   1  -7  112.45    6.34
  -3  -1  -7    7.08    2.88
   3  -1   7    7.62    3.96
   3   1   7    5.09    3.31
   3   1   7    4.62    2.72
   3   1   7    0.56    2.93
  -3   1  -7    2.31    3.11
  -4  -1  -7   47.36    4.19
   4   1   7   43.50    4.47
  -4   1  -7   46.19    4.66
   4   1   7   32.50    3.84
   4   1   7   34.59    3.79
  -5  -1  -7  608.81   18.60
   5   1   7  616.05   18.56
   5   1   7  601.83   18.64
  -5   1  -7  589.41   19.27
   5   1   7  569.21   18.48
  -6  -1  -7  577.81   18.41
  -6   1  -7  564.90   19.03
   6   1   7  588.55   18.45
   6   1   7  564.68   18.28
   6   1   7  584.72   18.51
  -7  -1  -7  595.07   18.99
   7   1   7  603.76   19.12
   7   1   7  543.37   18.73
  -7   1  -7  575.98   19.68
  -8  -1  -7   12.37    5.28
  -8   1  -7   12.18    5.39
   8   1   7    6.43    5.27
  -9  -1  -7  301.57   13.57
  -9   1  -7  311.60   14.18
   9   1   7  314.14   13.66
 -10  -1  -7    5.02    6.38
 -10   1  -7    0.38    6.18
  10   1   7   -0.78    6.19
 -11  -1  -7   50.74    8.04
  11   1   7   49.96    8.00
 -11   1  -7   64.42    8.21
 -12  -1  -7    9.39    7.61
  12   1   7   15.63    7.73
 -12   1  -7    4.43    7.43
 -13  -1  -7  377.64   18.54
  13   1   7  399.90   18.43
 -13   1  -7  374.48   18.75
 -17  -2   7   -1.45   11.89
 -17   2   7  -10.57   11.08
  17   2  -7    2.16   10.54
 -16  -2   7    6.22   11.19
 -16   2   7    7.00   10.52
  16   2  -7   -2.46    9.69
 -15  -2   7  501.79   22.88
 -15   2   7  461.59   22.09
  15   2  -7  507.15   21.74
 -14  -2   7  382.91   20.06
  14   2  -7  413.48   19.06
 -14   2   7  379.51   19.21
 -13  -2   7  122.94   11.99
 -13   2   7  104.04   10.26
  13   2  -7  128.22   10.81
  12  -2  -7  123.94    9.64
 -12  -2   7  150.46   11.64
 -12   2   7  142.16   12.35
  12   2  -7  158.17   10.89
  11  -2  -7  128.72    8.92
 -11  -2   7  164.46   11.86
 -11   2   7  159.87   11.39
  11   2  -7  181.55   12.86
 -10  -2   7    0.83    7.98
  10   2  -7    8.32    6.78
  -9  -2   7   13.38    7.04
   9   2  -7   11.08    6.25
  -8  -2   7  300.70   14.32
   8   2  -7  305.17   13.95
  -7  -2   7    2.47    6.40
   7   2  -7    1.32    5.02
  -6  -2   7   85.41    7.87
   6   2  -7   77.67    6.94
  -5  -2   7   12.76    5.69
   5   2  -7    7.15    4.64
   5   2  -7   11.52    4.28
  -4  -2   7   98.11    8.51
   4   2  -7   96.90    7.03
   4   2  -7   93.99    7.88
  -3  -2   7  130.29    8.57
   3   2  -7  109.67    7.08
   3   2  -7  125.15    8.02
  -2  -2   7   17.12    4.64
  -2   2   7   17.86    4.33
   2   2  -7   19.53    4.13
   2   2  -7   20.01    3.95
  -1  -2   7  761.23   23.53
   1   2  -7  749.21   22.94
   1   2  -7  760.32   23.59
  -1   2   7  741.76   22.76
   0  -2   7   12.82    4.67
   0   2   7    6.47    4.32
   0   2  -7    7.00    3.94
   1  -2   7   73.25    6.29
  -1   2  -7   75.55    6.07
   1   2   7   66.01    5.85
   2  -2   7  420.08   15.36
  -2   2  -7  425.58   15.12
   2   2   7  453.30   14.98
  -2   2  -7  395.33   14.29
   3  -2   7 1499.83   44.73
   3   2   7 1568.02   43.57
  -3   2  -7 1559.89   44.94
   4  -2   7  364.91   14.65
   4   2   7  355.05   14.12
  -4   2  -7  370.83   14.39
  -5  -2  -7  251.48    9.66
   5  -2   7  238.46   12.12
  -5   2  -7  236.74   11.48
   5   2   7  192.74    9.45
   5   2   7  239.47   11.71
   5   2   7  252.29   10.13
   6  -2   7   11.24    6.16
  -6  -2  -7   13.52    4.58
   6   2   7   18.45    5.94
  -6   2  -7   18.43    5.51
   6   2   7   13.70    5.00
   7  -2   7   59.29    7.37
  -7  -2  -7   51.39    5.88
   7   2   7   54.16    6.20
   7   2   7   60.36    7.26
  -7   2  -7   46.29    6.76
  -8  -2  -7  113.17    8.81
  -8   2  -7  120.02    9.19
   8   2   7  113.15    8.14
   8   2   7  107.47    9.17
  -9  -2  -7  551.61   20.01
   9   2   7  572.58   21.49
   9   2   7  608.02   20.46
  -9   2  -7  571.68   21.69
  10   2   7   73.93    8.31
 -10   2  -7   56.50    8.46
  10   2   7   62.66    8.76
 -11   2  -7  101.42   10.46
  11   2   7  127.63    9.98
  11   2   7  119.53   10.62
  12   2   7    0.32    8.11
 -12   2  -7  -10.26    7.68
  12   2   7   -2.18    8.05
 -15  -3   7   12.27   11.59
  15   3  -7   20.02   10.67
 -14  -3   7   73.87   12.37
  14   3  -7   55.62   11.18
 -13  -3   7  185.96   14.51
  13   3  -7  169.88   13.33
 -12  -3   7   21.02   10.10
  12   3  -7    7.65    9.53
 -11  -3   7  160.70   12.98
  11   3  -7  163.18   12.30
 -10  -3   7  318.24   17.77
  10   3  -7  326.18   17.76
  -9  -3   7  150.26   11.58
   9   3  -7  144.03   11.28
  -8  -3   7  540.47   20.81
   8   3  -7  482.38   19.25
   8   3  -7  527.38   21.08
  -7  -3   7   80.57    9.26
   7   3  -7   46.08    6.91
   7   3  -7   77.08    9.11
  -6  -3   7    3.10    7.18
   6   3  -7    8.18    7.31
   6   3  -7    4.96    5.27
  -5  -3   7   24.54    7.57
   5   3  -7   24.80    5.26
   5   3  -7   33.36    7.45
  -4  -3   7  425.17   17.41
   4   3  -7  414.59   15.02
   4   3  -7  442.69   17.59
  -3  -3   7  460.07   17.68
   3   3  -7  445.12   15.35
   3   3  -7  438.03   16.42
   3   3  -7  481.68   18.32
  -2  -3   7  307.07   14.10
  -2   3   7  327.42   13.85
   2   3  -7  317.72   14.70
   2   3  -7  306.23   12.83
  -1  -3   7   38.10    6.81
   1   3  -7   23.05    5.06
   1   3  -7   37.25    6.91
  -1   3   7   33.24    6.29
   0  -3   7  118.37    9.81
   0   3   7  124.65   10.42
   0   3  -7  146.83   11.05
   1  -3   7  888.58   28.73
  -1   3  -7  924.56   29.62
   1   3   7  904.47   28.39
   2  -3   7   44.66    7.29
   2   3   7   45.26    7.07
  -2   3  -7   52.26    7.44
   3  -3   7   65.89    7.88
   3   3   7   46.66    7.45
  -3   3  -7   47.99    7.54
   4  -3   7   88.30    8.72
   4   3   7   89.71    8.90
  -4   3  -7  107.12    9.42
   5  -3   7  509.14   19.93
   5   3   7  490.07   19.84
  -5   3  -7  523.21   20.26
   6  -3   7   40.03    8.24
   6   3   7   38.74    8.12
  -6   3  -7   28.25    7.69
   7  -3   7  295.83   16.27
   7   3   7  309.20   13.43
  -7   3  -7  317.35   16.59
   7   3   7  302.48   16.65
   8  -3   7   63.38    9.96
  -8   3  -7   65.86    9.64
   8   3   7   63.50    9.73
   8   3   7   68.56    7.67
   9  -3   7   24.90    9.40
   9   3   7   26.95    7.57
   9   3   7   32.40    9.64
  -9   3  -7   24.64    9.11
  10   3   7    6.61    9.41
 -10   3  -7    9.08    9.08
  10   3   7   16.07    8.05
  11   4  -7   46.09   11.25
  11   4  -7    5.28    9.28
  10   4  -7  152.39   12.79
   9   4  -7    7.82    8.47
   9   4  -7   20.54   10.53
   8   4  -7   20.77    8.54
   8   4  -7   42.08   10.57
   7   4  -7   40.85   10.86
   7   4  -7   28.06    7.75
   6   4  -7 1068.49   35.20
   6   4  -7  978.34   32.38
   5   4  -7   90.44    8.74
   5   4  -7  125.01   12.58
  -4  -4   7  277.39   17.84
   4   4  -7  273.52   13.66
   4   4  -7  254.89   17.82
  -3  -4   7   -1.73    8.38
   3   4  -7   13.97    5.67
   3   4  -7    8.21    9.92
  -2  -4   7  161.60   13.28
   2   4  -7  184.20   13.77
   2   4  -7  149.18   10.71
   1   4  -7  131.04   12.72
  -1   4   7  111.93   10.38
   0   4  -7  478.91   21.99
   0   4   7  484.02   20.10
   1   4   7   51.53    8.79
  -1   4  -7   56.43   10.72
   2   4   7   13.88    8.25
  -2   4  -7   10.48    9.72
  -3   4  -7  209.85   17.42
   3   4   7  233.64   15.93
   4   4   7   19.92    9.17
  -4   4  -7   35.07   10.62
  -5   4  -7   -3.24   10.15
   5   4   7   11.29    9.39
  -6   4  -7   -0.40   10.45
   6   4   7   -2.44    9.30
  -7   4  -7   65.23   12.74
  18   0  -8   12.37    9.49
 -18   0   8   12.82   12.87
  17   0  -8   10.12    9.13
 -17   0   8   21.03   12.24
  16   0  -8  147.72   11.52
 -16   0   8  144.08   14.11
  15   0  -8   -1.08    7.72
 -15   0   8   -1.29   10.31
  14   0  -8  100.55    9.60
 -14   0   8  116.87   11.86
  13   0  -8    3.12    6.27
 -13   0   8    4.32    8.89
 -12   0   8   -0.13    8.03
  12   0  -8    4.57    5.82
  11   0  -8    2.77    5.42
 -11   0   8   -2.53    7.16
 -11   0   8    4.65    4.54
  10   0  -8  312.02   12.97
 -10   0   8  316.15   12.45
 -10   0   8  325.45   14.29
  -9   0   8    1.80    5.58
   9   0  -8    2.04    4.32
  -9   0   8   -1.30    3.73
  -8   0   8 1938.72   55.52
  -8   0   8 2004.88   55.47
   8   0  -8 1930.86   55.31
  -7   0   8    1.97    3.59
   7   0  -8    1.86    3.53
  -7   0   8   -8.07    4.30
  -6   0   8   -1.79    3.28
   6   0  -8    5.01    3.42
  -6   0   8   -0.39    3.96
  -5   0   8   -0.86    3.19
   5   0  -8    0.56    2.35
  -5   0   8   -1.77    3.83
   5   0  -8    4.59    3.08
   4   0  -8 5476.49  160.99
  -4   0   8 5927.29  161.33
  -4   0   8 6264.59  161.39
   4   0  -8 6011.24  161.32
  -3   0   8   -5.67    2.81
   3   0  -8   -0.18    2.51
   3   0  -8   -0.71    2.17
  -3   0   8   -1.86    3.19
  -2   0   8 3744.28  100.04
   2   0  -8 3518.62   99.93
  -2   0   8 3694.88   99.97
   2   0  -8 3637.52   99.80
  -1   0   8   -0.77    2.78
  -1   0   8    1.59    3.04
   1   0  -8    0.97    2.53
   0   0   8 1110.12   31.34
   0   0  -8 1095.21   31.33
   0   0   8 1075.69   31.23
   1   0   8    5.80    3.26
   1   0   8    1.63    2.73
  -1   0  -8    2.89    2.59
  -2   0  -8 3867.18  108.05
   2   0   8 3919.20  107.95
   2   0   8 4036.03  108.04
  -3   0  -8    2.97    3.04
   3   0   8    1.46    3.10
   4   0   8  503.69   16.56
  -4   0  -8  536.28   16.90
   5   0   8   -1.33    3.37
  -5   0  -8    5.20    3.89
  -6   0  -8  536.15   17.85
  -7   0  -8   -0.56    4.52
  -8   0  -8  322.11   13.63
   8   0   8  323.70   13.78
   9   0   8   -2.94    5.74
  -9   0  -8    0.95    5.50
  10   0   8  243.58   13.29
 -10   0  -8  250.24   13.34
 -11   0  -8    0.55    6.60
  11   0   8   12.56    7.01
 -12   0  -8    6.22    7.51
  12   0   8    3.75    7.38
 -13   0  -8   -9.95    7.79
  13   0   8    3.59    8.07
 -18  -1   8   50.41   13.38
 -18   1   8   58.55   13.52
  18   1  -8   56.33   10.88
 -17  -1   8   14.86   12.14
 -17   1   8   15.30   12.10
  17   1  -8   26.84   10.04
 -16  -1   8   12.22   11.34
  16   1  -8   16.34    9.46
 -16   1   8    3.40   11.30
 -15  -1   8  197.87   17.34
  15  -1  -8  193.09   13.54
 -15   1   8  199.25   14.23
  15   1  -8  209.65   15.03
 -14  -1   8    4.75    9.90
  14  -1  -8    1.52    6.55
  14   1  -8    4.37    7.77
 -14   1   8    5.43    9.58
  13  -1  -8  210.70   12.36
 -13  -1   8  231.27   15.78
  13   1  -8  229.79   13.99
 -13   1   8  211.62   15.20
  12  -1  -8  200.16   11.23
 -12  -1   8  213.43   14.32
  12   1  -8  196.93   12.98
 -12   1   8  238.45   14.26
 -11  -1   8  428.74   17.92
  11  -1  -8  397.01   15.06
 -11   1   8  390.27   14.54
  11   1  -8  427.38   16.60
 -11   1   8  401.26   17.07
  10  -1  -8  125.47    8.07
 -10  -1   8  127.77    9.71
 -10   1   8  107.23    7.37
 -10   1   8  116.22    8.90
  10   1  -8  111.34    8.40
  -9  -1   8  595.97   20.38
   9  -1  -8  540.44   18.07
  -9   1   8  549.41   19.28
   9   1  -8  594.28   19.65
   8  -1  -8  506.85   16.61
  -8  -1   8  568.53   18.72
  -8   1   8  493.25   16.52
   8   1  -8  532.41   18.05
  -8   1   8  531.07   17.62
  -7  -1   8   -1.67    5.13
   7  -1  -8    4.02    3.23
  -7  -1   8    1.77    4.11
   7   1  -8    6.69    4.34
  -7   1   8   -2.13    4.45
  -7   1   8   -1.40    3.11
  -6  -1   8 2601.02   71.26
  -6  -1   8 2558.90   71.27
   6   1  -8 2447.32   71.04
  -5  -1   8  550.73   18.22
  -5  -1   8  572.44   18.13
   5  -1  -8  536.75   17.11
   5   1  -8  543.75   17.92
  -4  -1   8  514.03   16.98
   4  -1  -8  531.14   15.85
  -4  -1   8  499.19   16.71
   4   1  -8  506.13   16.26
   4   1  -8  488.50   16.57
  -3  -1   8   53.08    4.80
  -3  -1   8   53.78    5.20
   3  -1  -8   55.88    4.71
   3   1  -8   63.99    4.84
   3   1  -8   52.19    4.37
   2  -1  -8 2938.66   77.90
  -2  -1   8 2976.06   80.74
  -2  -1   8 2962.51   80.65
   2   1  -8 2853.71   80.68
   2   1  -8 2810.34   80.34
   1  -1  -8  403.37   12.37
  -1  -1   8  402.68   13.64
  -1  -1   8  395.07   13.37
   1   1  -8  390.35   13.31
  -1   1   8  386.57   12.53
   1   1  -8  370.78   12.92
   0  -1  -8 2826.60   77.02
   0  -1   8 2966.12   79.96
   0  -1   8 2815.23   79.81
   0   1   8 2904.04   77.16
   0   1  -8 2899.41   80.00
   1  -1   8   30.58    4.19
   1  -1   8   38.81    4.67
  -1  -1  -8   32.36    3.23
   1   1   8   29.46    3.94
   1   1   8   24.14    3.14
  -1   1  -8   35.44    4.02
   1   1   8   39.16    3.80
  -2  -1  -8    9.05    2.84
   2  -1   8   10.55    4.25
   2   1   8    5.76    2.74
   2   1   8    4.59    3.36
  -2   1  -8   10.17    3.47
  -3  -1  -8  797.37   23.30
   3  -1   8  782.61   24.25
   3   1   8  809.05   23.13
  -3   1  -8  796.43   24.23
   3   1   8  761.07   23.25
   4  -1   8 1024.54   30.84
  -4  -1  -8 1056.98   30.02
  -4   1  -8  992.19   30.70
   4   1   8 1017.29   29.99
   4   1   8 1063.43   29.56
  -5  -1  -8  247.02   10.04
   5   1   8  239.21    9.84
  -5   1  -8  233.89   10.70
   5   1   8  244.16   10.33
   5   1   8  242.90   10.21
  -6  -1  -8  320.67   12.09
   6   1   8  302.78   12.18
   6   1   8  297.14   11.81
   6   1   8  304.95   12.09
  -6   1  -8  310.85   12.73
  -7  -1  -8  286.31   12.22
  -7   1  -8  282.31   12.81
   7   1   8  303.81   12.38
   7   1   8  296.28   12.36
  -8  -1  -8   22.48    5.74
  -8   1  -8   37.19    6.34
   8   1   8   26.50    5.94
  -9  -1  -8  556.31   19.58
  -9   1  -8  544.86   20.38
   9   1   8  543.70   19.65
 -10  -1  -8   36.32    7.17
 -10   1  -8   29.68    7.35
  10   1   8   32.31    7.20
 -11  -1  -8   23.90    7.45
  11   1   8   29.83    7.64
 -11   1  -8   30.23    7.75
 -12  -1  -8  164.12   13.48
 -12   1  -8  170.05   14.17
  12   1   8  168.92   13.61
 -13   1  -8  267.25   17.11
  13   1   8  293.64   16.69
 -17  -2   8  139.79   15.02
  17   2  -8  222.04   18.24
 -16  -2   8   40.53   11.79
  16   2  -8   50.10   10.67
 -16   2   8   25.37   11.02
 -15  -2   8    7.64   10.86
  15   2  -8   12.51    9.54
 -15   2   8    1.96   10.01
 -14  -2   8   47.58   11.08
 -14   2   8   23.01    9.29
  14   2  -8   34.54    9.45
 -13  -2   8  741.05   27.24
 -13   2   8  708.17   25.64
  13   2  -8  768.56   26.85
 -12  -2   8  104.27   11.40
  12   2  -8   99.01    9.89
 -12   2   8   98.73    9.01
 -11  -2   8  506.67   20.87
  11   2  -8  494.33   20.17
 -10  -2   8  641.12   23.47
  10   2  -8  636.92   23.00
  -9  -2   8  126.96   10.24
   9   2  -8  122.07    9.23
  -8  -2   8   54.42    8.14
   8   2  -8   48.41    7.12
  -7  -2   8 1180.01   35.12
   7   2  -8 1094.55   34.87
  -6  -2   8  248.44   12.68
   6   2  -8  239.45   12.09
  -5  -2   8    7.21    5.96
   5   2  -8    7.36    4.89
  -4  -2   8  904.86   27.76
   4   2  -8  864.40   27.58
  -3  -2   8  287.42   12.63
   3   2  -8  295.33   12.33
  -2  -2   8  194.98    9.99
   2   2  -8  176.13    9.40
  -1  -2   8    4.24    4.97
  -1   2   8    4.13    4.31
   1   2  -8    1.96    4.10
   0  -2   8  176.57   10.08
   0   2   8  189.21    9.52
   0   2  -8  185.17    9.51
   1  -2   8  859.71   26.71
   1   2   8  869.92   25.81
  -1   2  -8  838.70   26.63
   2  -2   8  291.02   12.88
   2   2   8  304.54   12.31
  -2   2  -8  294.11   12.44
   3  -2   8   12.70    5.72
   3   2   8   11.30    5.11
  -3   2  -8   11.28    4.69
   4  -2   8   42.90    6.52
   4   2   8   32.41    5.95
  -4   2  -8   38.60    6.06
   4   2   8   32.65    4.62
   5  -2   8  932.95   30.24
  -5  -2  -8  985.32   28.42
   5   2   8  989.37   28.49
  -5   2  -8  934.40   30.20
   5   2   8  951.26   29.30
   6  -2   8   26.95    6.85
  -6  -2  -8   19.18    5.01
   6   2   8   22.99    6.48
  -6   2  -8   27.94    6.17
   6   2   8   29.39    5.64
  -7  -2  -8 1041.11   31.13
   7  -2   8 1010.97   32.90
   7   2   8 1081.29   31.46
  -7   2  -8  992.52   32.79
   7   2   8 1051.16   32.15
   8  -2   8   11.55    6.92
   8   2   8   11.87    6.97
  -8   2  -8   12.62    6.58
   8   2   8   12.43    6.44
   9  -2   8  122.51   10.34
  -9   2  -8  118.61   10.13
   9   2   8  105.09    9.71
   9   2   8  113.91    9.21
  10   2   8   18.40    7.75
  10   2   8   15.51    7.73
 -10   2  -8    8.70    7.14
  11   2   8  799.64   27.36
 -11   2  -8  786.59   28.62
  12   2   8    2.56    8.40
  12   2   8    4.81    8.44
 -12   2  -8   -4.23    8.24
 -15  -3   8  302.11   20.45
  15   3  -8  352.70   20.58
 -14  -3   8  187.89   15.36
  14   3  -8  184.70   14.43
 -13  -3   8    3.99   10.44
  13   3  -8   -1.76    9.74
 -12  -3   8  163.11   13.70
  12   3  -8  151.86   12.97
 -11  -3   8  306.50   18.45
  11   3  -8  305.25   18.22
 -10  -3   8  216.51   15.87
  10   3  -8  230.95   16.23
  -9  -3   8  376.47   18.83
   9   3  -8  407.80   19.10
  -8  -3   8  221.01   15.38
   8   3  -8  219.79   12.98
   8   3  -8  233.96   15.22
  -7  -3   8    0.76    7.78
   7   3  -8   -4.31    7.57
   7   3  -8   -4.67    5.51
  -6  -3   8   -8.37    7.56
   6   3  -8    3.27    5.24
   6   3  -8    8.99    7.75
  -5  -3   8  130.27   10.50
   5   3  -8  124.24    9.92
   5   3  -8  102.23    8.75
  -4  -3   8  134.72   11.49
   4   3  -8  142.83   10.32
   4   3  -8  126.64    8.60
  -3  -3   8   21.22    7.27
   3   3  -8   23.07    7.08
  -2  -3   8   22.15    7.00
   2   3  -8   30.04    7.16
  -1  -3   8   34.19    6.98
  -1   3   8   34.34    6.65
   1   3  -8   33.84    6.96
   0  -3   8    9.67    6.42
   0   3   8    8.59    6.08
   0   3  -8   19.11    6.61
   1  -3   8  157.08   11.73
  -1   3  -8  177.04   12.30
   1   3   8  167.22   11.75
   2  -3   8   15.58    7.12
   2   3   8    9.73    6.47
  -2   3  -8   12.76    6.76
   3  -3   8  431.29   18.09
  -3   3  -8  445.80   18.62
   3   3   8  443.57   18.06
   4  -3   8  200.83   13.41
   4   3   8  190.25   13.02
  -4   3  -8  189.65   13.24
   5  -3   8  119.63   10.35
  -5   3  -8  117.59   10.42
   5   3   8  128.14   10.60
   6  -3   8    8.30    8.01
   6   3   8   -0.16    7.52
  -6   3  -8    8.08    7.24
   7  -3   8  466.96   21.09
  -7   3  -8  515.04   21.29
   7   3   8  484.91   20.78
   8  -3   8  108.10   11.33
   8   3   8   80.15   10.62
  -8   3  -8  107.09   10.96
   8   3   8   94.33    8.56
   9  -3   8  637.78   26.30
  -9   3  -8  689.40   26.72
   9   3   8  665.35   23.22
   9   3   8  655.27   26.08
  11   4  -8   12.29   11.03
  11   4  -8   -7.88    8.90
  10   4  -8   -2.50    8.85
  10   4  -8   18.50   11.28
   9   4  -8    6.19    8.18
   9   4  -8   46.58   11.63
   8   4  -8   76.48   12.02
   8   4  -8   56.84    9.07
   7   4  -8    6.48   10.38
   7   4  -8   -9.41    7.02
   6   4  -8   16.04   10.26
   6   4  -8   11.09    6.62
  -5  -4   8   -5.19    9.83
   5   4  -8   -8.39   10.14
   5   4  -8   -0.62    6.23
  -4  -4   8   20.30    9.75
   4   4  -8   23.47   10.25
   4   4  -8   18.50    6.24
  -3  -4   8   75.16   10.87
   3   4  -8   59.34    6.96
   3   4  -8   74.40   11.04
  -2  -4   8   77.92   11.75
   2   4  -8   72.94   11.25
  -1   4   8  228.92   14.51
   1   4  -8  207.97   17.13
   0   4   8    3.60    7.51
   0   4  -8   -2.77    9.69
  -1   4  -8   -1.45    9.49
   1   4   8    6.56    7.76
  -2   4  -8  200.57   15.22
   2   4   8  184.59   15.01
  -3   4  -8  103.08   12.37
   3   4   8   97.52   11.38
   4   4   8    2.14    9.05
  -4   4  -8   -3.79   10.19
  -5   4  -8  333.61   20.66
   5   4   8  295.49   19.17
  -6   4  -8   58.59   12.25
   6   4   8   54.21   12.07
  18   0  -9   14.39    9.72
 -18   0   9    8.58   12.93
 -17   0   9 1217.35   41.27
  17   0  -9 1245.71   39.90
 -16   0   9   20.83   11.62
  16   0  -9    5.51    8.56
 -15   0   9   46.02   11.41
  15   0  -9   29.08    8.61
 -14   0   9   10.95    9.98
  14   0  -9    6.62    7.07
 -13   0   9 1554.37   47.34
  13   0  -9 1567.89   46.37
  12   0  -9   -1.29    6.08
 -12   0   9   -4.90    8.14
 -11   0   9 1477.02   43.31
  11   0  -9 1478.28   42.77
 -11   0   9 1397.85   42.48
 -10   0   9   -0.11    4.42
  10   0  -9    2.87    5.09
 -10   0   9   -7.98    6.43
  -9   0   9   59.31    5.73
  -9   0   9   63.33    7.29
   9   0  -9   74.56    6.41
   8   0  -9    4.12    4.23
  -8   0   9   -7.12    5.20
  -8   0   9   -0.46    3.98
   7   0  -9 1011.76   30.69
  -7   0   9 1054.35   30.86
  -7   0   9 1049.05   31.14
   6   0  -9   -0.46    3.50
  -6   0   9   -3.86    3.61
  -6   0   9   -5.23    4.39
  -5   0   9   29.87    4.73
  -5   0   9   25.81    4.24
   5   0  -9   38.38    4.34
  -4   0   9   -1.44    3.96
   4   0  -9    0.41    3.11
  -4   0   9   -3.47    3.37
   3   0  -9  533.24   17.03
  -3   0   9  552.35   17.27
  -3   0   9  547.43   17.16
   2   0  -9    1.79    2.74
  -2   0   9   -2.70    3.39
  -2   0   9   -2.23    2.94
  -1   0   9  252.81    9.57
  -1   0   9  231.18    9.15
   1   0  -9  246.77    9.18
   0   0   9    1.12    3.28
   0   0  -9    1.33    2.67
   0   0   9    4.15    3.03
  -1   0  -9 1643.57   45.31
   1   0   9 1546.37   45.03
   1   0   9 1606.37   45.25
   2   0   9    1.66    3.06
   2   0   9    0.65    3.78
  -2   0  -9    4.94    3.00
   3   0   9   93.67    6.44
  -3   0  -9  112.07    6.78
   3   0   9   96.57    7.31
   4   0   9    2.89    3.75
  -4   0  -9   -2.18    3.48
  -5   0  -9 1367.39   39.81
  -6   0  -9    2.23    4.53
  -7   0  -9 1362.50   40.31
  -8   0  -9   -1.39    5.30
  -9   0  -9   39.13    6.78
 -10   0  -9    4.43    6.54
 -11   0  -9  488.14   19.76
 -12   0  -9    1.00    7.49
 -18  -1   9   56.68   13.95
 -18   1   9   31.60   13.27
  18   1  -9   31.70   10.92
 -17  -1   9   21.84   12.45
 -17   1   9   37.95   12.52
  17   1  -9   38.56   10.39
 -16  -1   9   49.17   12.22
  16   1  -9   52.68    9.78
 -16   1   9   60.78   12.16
  15  -1  -9 1084.80   34.85
 -15  -1   9 1077.22   36.94
 -15   1   9 1117.45   36.76
  15   1  -9 1117.23   35.97
 -14  -1   9   75.84   11.38
  14  -1  -9   67.69    8.33
  14   1  -9   70.94    9.37
 -14   1   9   73.24   11.03
  13  -1  -9  395.33   16.22
 -13  -1   9  412.20   19.51
 -13   1   9  382.49   19.04
  13   1  -9  425.04   18.00
  12  -1  -9  155.05   10.48
 -12  -1   9  168.42   12.25
 -12   1   9  157.51   11.41
  12   1  -9  157.03   12.39
 -11  -1   9  225.55   14.66
  11  -1  -9  212.63   10.83
 -11   1   9  236.16   13.86
  11   1  -9  221.45   13.02
 -10  -1   9  417.12   17.74
  10  -1  -9  427.35   15.07
 -10   1   9  417.45   16.93
  10   1  -9  429.55   16.90
   9  -1  -9  943.84   28.26
  -9  -1   9  975.94   30.12
  -9   1   9  969.96   29.12
   9   1  -9  906.72   29.56
  -8  -1   9   48.96    7.11
   8  -1  -9   44.03    4.75
   8   1  -9   46.08    5.98
  -8   1   9   33.75    4.50
  -8   1   9   42.52    6.06
  -7  -1   9  122.89    9.31
   7  -1  -9  141.65    7.18
  -7  -1   9  140.99   10.00
  -7   1   9  127.44    7.11
   7   1  -9  137.70    9.11
  -6  -1   9 1379.00   39.67
  -6  -1   9 1345.20   39.54
   6   1  -9 1308.47   39.34
  -5  -1   9  218.46   10.84
  -5  -1   9  215.28   10.21
   5  -1  -9  234.26    9.24
   5   1  -9  232.27   10.28
  -4  -1   9  192.10    9.45
  -4  -1   9  213.89   10.10
   4  -1  -9  206.00    8.42
   4   1  -9  204.84    9.42
  -3  -1   9    0.97    3.91
   3  -1  -9    4.55    2.79
  -3  -1   9   -4.99    3.62
   3   1  -9    6.03    3.43
   2  -1  -9  475.63   14.74
  -2  -1   9  494.90   16.35
  -2  -1   9  467.15   16.07
   2   1  -9  479.56   16.00
  -1  -1   9  318.29   12.41
  -1  -1   9  322.13   11.98
   1  -1  -9  323.49   10.76
   1   1  -9  314.14   11.85
  -1   1   9  338.41   11.18
   0  -1  -9  685.07   19.67
   0  -1  -9  662.95   19.34
   0  -1   9  649.56   20.91
   0  -1   9  672.05   20.70
   0   1   9  619.58   19.49
   0   1   9  683.73   19.75
   0   1   9  668.63   19.57
   0   1  -9  655.48   20.73
   1  -1   9   37.03    5.04
  -1  -1  -9   35.08    3.62
  -1   1  -9   39.99    4.63
   1   1   9   29.04    4.16
   1   1   9   32.11    3.59
   1   1   9   34.72    4.18
  -2  -1  -9    5.22    3.09
   2  -1   9    4.47    4.55
  -2   1  -9    7.29    3.72
   2   1   9    0.23    3.64
   2   1   9    2.56    3.12
  -3  -1  -9 1079.93   29.86
   3  -1   9 1015.33   30.69
  -3   1  -9 1000.87   30.58
   3   1   9  960.43   29.60
   3   1   9 1038.78   29.16
   4  -1   9  129.03    9.27
  -4  -1  -9  145.31    7.71
   4   1   9  120.67    7.40
   4   1   9  127.20    8.00
  -4   1  -9  121.35    8.23
   5  -1   9  544.52   18.75
  -5  -1  -9  551.59   17.65
   5   1   9  504.30   17.48
   5   1   9  550.01   17.48
  -5   1  -9  517.65   18.28
  -6  -1  -9   -0.92    4.41
  -6   1  -9    4.06    4.75
   6   1   9    1.65    4.67
  -7  -1  -9   53.99    6.22
   7   1   9   44.31    6.55
   7   1   9   57.13    6.38
  -7   1  -9   49.95    6.46
  -8  -1  -9   69.56    7.28
   8   1   9   80.79    7.38
   8   1   9   80.74    7.77
  -8   1  -9   69.22    7.50
  -9  -1  -9  908.57   29.38
   9   1   9  940.90   28.78
   9   1   9  949.61   29.60
  -9   1  -9  898.91   30.06
 -10  -1  -9    4.10    6.62
  10   1   9   13.31    7.26
  10   1   9    2.09    6.40
 -10   1  -9   17.34    6.95
 -11  -1  -9  268.93   15.17
  11   1   9  311.02   15.76
  11   1   9  301.80   14.86
 -11   1  -9  288.48   15.91
 -12   1  -9   67.89    9.46
  12   1   9   87.32    9.97
 -17  -2   9  131.26   14.28
  17   2  -9  122.57   12.85
 -17   2   9   89.09   13.15
 -16  -2   9   46.51   12.49
  16   2  -9   35.79   10.69
 -16   2   9    7.65   10.52
 -15  -2   9   17.70   11.33
 -15   2   9   13.90    9.59
  15   2  -9   34.92   10.13
 -14  -2   9   94.76   12.31
 -14   2   9   60.70   10.01
  14   2  -9   94.70   10.84
 -13  -2   9   42.19   10.81
 -13   2   9   37.01    8.68
  13   2  -9   49.12    9.45
 -12  -2   9  225.60   16.63
  12   2  -9  203.19   15.08
 -11  -2   9  312.37   17.29
  11   2  -9  313.03   16.43
 -10  -2   9  244.18   15.26
  10   2  -9  235.00   14.28
  -9  -2   9  202.85   14.23
   9   2  -9  236.27   13.57
  -8  -2   9 1480.25   44.49
   8   2  -9 1464.84   44.19
  -7  -2   9   38.13    7.98
   7   2  -9   34.61    6.84
  -6  -2   9   25.93    7.14
   6   2  -9   27.33    6.11
  -5  -2   9  289.94   13.61
   5   2  -9  294.31   13.23
  -4  -2   9 1522.06   44.85
   4   2  -9 1523.25   44.78
  -3  -2   9   38.23    6.67
   3   2  -9   44.52    5.93
  -2  -2   9 1140.05   33.99
   2   2  -9 1109.22   34.00
  -1  -2   9    6.94    5.46
  -1   2   9    2.39    4.63
   1   2  -9    0.25    4.44
   0  -2   9   38.98    6.25
   0   2  -9   28.55    5.35
   0   2   9   28.69    5.41
   1  -2   9   11.79    5.70
   1   2   9   11.42    5.05
  -1   2  -9   11.83    4.78
   2  -2   9  606.64   20.96
  -2   2  -9  607.96   20.68
   2   2   9  606.96   20.03
   3  -2   9   36.65    6.57
   3   2   9   27.06    5.99
  -3   2  -9   34.62    5.79
   4  -2   9  114.47    8.89
  -4  -2  -9  118.60    7.40
   4   2   9  121.00    8.46
  -4   2  -9  102.40    8.23
   5  -2   9    4.36    6.50
  -5  -2  -9    2.48    4.39
   5   2   9   -1.22    5.72
  -5   2  -9    4.30    5.31
  -6  -2  -9   36.56    5.85
   6  -2   9   52.60    7.95
  -6   2  -9   55.17    7.35
   6   2   9   50.87    6.32
   6   2   9   57.43    7.46
   7  -2   9  415.17   18.04
   7   2   9  418.75   16.13
  -7   2  -9  396.74   17.30
   7   2   9  424.06   17.37
   8  -2   9    3.19    7.60
  -8   2  -9   10.46    6.62
   8   2   9    4.55    6.57
   8   2   9    3.00    7.19
   9  -2   9  179.91   14.18
  -9   2  -9  155.30   12.96
   9   2   9  168.45   12.32
   9   2   9  164.47   13.50
  10  -2   9   62.11    9.64
  10   2   9   50.64    8.53
  10   2   9   53.98    9.17
 -10   2  -9   55.24    8.90
  11  -2   9   49.75    9.84
  11   2   9   44.68    8.83
  11   2   9   44.19    9.28
 -11   2  -9   35.60    8.72
 -14  -3   9   -1.31   11.48
  14   3  -9    4.32   10.47
 -13  -3   9   41.67   11.80
  13   3  -9   42.91   11.05
 -12  -3   9  109.27   12.87
  12   3  -9   97.63   11.95
 -11  -3   9  207.53   17.14
  11   3  -9  209.34   17.16
 -10  -3   9  192.90   13.99
  10   3  -9  182.09   15.97
  -9  -3   9   -3.54    9.15
   9   3  -9    8.74    9.09
   9   3  -9  -14.64    6.38
  -8  -3   9   30.93    9.52
   8   3  -9   37.50    9.19
   8   3  -9   15.84    6.47
  -7  -3   9  399.35   18.33
   7   3  -9  402.42   18.90
   7   3  -9  363.34   15.39
  -6  -3   9  866.06   29.32
   6   3  -9  820.39   26.32
   6   3  -9  897.12   29.82
  -5  -3   9  139.05   11.29
   5   3  -9  136.48   10.68
  -4  -3   9  454.42   18.60
   4   3  -9  435.74   18.98
  -3  -3   9  143.39   11.06
   3   3  -9  143.39   10.48
  -2  -3   9   80.25    9.07
   2   3  -9   67.41    8.48
  -1  -3   9  198.14   12.52
  -1   3   9  229.10   12.62
   1   3  -9  205.33   13.25
   0  -3   9  741.30   25.62
   0   3  -9  755.60   26.30
   0   3   9  765.34   25.02
   1  -3   9   15.54    7.36
  -1   3  -9   22.87    7.46
   1   3   9   18.30    6.81
   2  -3   9  337.77   16.51
  -2   3  -9  355.85   16.99
   2   3   9  370.59   16.11
   3  -3   9  117.40   10.58
  -3   3  -9  128.70   10.63
   3   3   9  110.49    9.78
   4  -3   9   22.47    8.28
   4   3   9   19.63    7.72
  -4   3  -9   30.01    7.97
   5  -3   9   31.04    8.79
  -5   3  -9   40.22    8.37
   5   3   9   25.24    8.27
   6  -3   9  126.71   11.36
   6   3   9  115.19   11.06
  -6   3  -9  129.59   11.22
   7  -3   9  128.58   11.81
  -7   3  -9  118.44   11.37
   7   3   9  115.89   11.45
   8  -3   9   18.31    9.63
  -8   3  -9   32.80    9.13
   8   3   9   32.62    9.35
   8   3   9   27.81    7.40
   9  -3   9   -0.26    9.77
  -9   3  -9    0.79    8.67
   9   3   9    3.01    7.61
   9   3   9    0.88    9.27
  10   4  -9    5.94    8.80
  10   4  -9   26.52   11.25
   9   4  -9   80.96   10.28
   9   4  -9  151.79   14.01
   8   4  -9   53.17    8.81
   8   4  -9  102.25   12.88
   7   4  -9   24.41    7.62
   7   4  -9   37.62   11.38
   6   4  -9   64.72   12.14
   6   4  -9   41.15    7.25
  -5  -4   9   87.12   12.08
   5   4  -9   56.91   11.57
   5   4  -9   36.46    7.13
  -4  -4   9   35.74   10.35
   4   4  -9   30.48   10.62
   4   4  -9   32.91    6.34
  -3  -4   9   75.54   11.00
   3   4  -9   69.17   11.45
  -2  -4   9  446.58   21.05
   2   4  -9  435.15   21.66
   1   4  -9   31.67   10.56
   0   4   9  237.00   15.48
   0   4  -9  209.68   17.80
  -1   4  -9   97.75   12.73
   1   4   9   93.89   10.40
  -2   4  -9   24.79   10.69
   2   4   9   24.59    8.79
   3   4   9    6.13    8.87
  -3   4  -9   10.90   10.58
   4   4   9  554.93   23.71
  -4   4  -9  521.54   25.13
  -5   4  -9   93.52   13.41
   5   4   9   76.25   12.48
 -18   0  10   23.51   13.34
  18   0 -10   22.92   10.64
  17   0 -10    4.56    9.30
 -17   0  10   10.26   12.56
  16   0 -10   93.75   10.50
 -16   0  10   97.72   13.24
 -15   0  10   -2.17   10.73
  15   0 -10   -2.31    7.45
 -14   0  10  108.30   12.01
  14   0 -10   97.42    9.37
 -13   0  10    1.13    9.15
  13   0 -10    3.96    6.73
 -12   0  10    8.52    8.66
  12   0 -10   14.58    6.56
  11   0 -10   -3.72    5.64
 -11   0  10    2.00    4.95
 -11   0  10   13.70    7.85
 -10   0  10  504.77   19.21
  10   0 -10  489.18   17.91
 -10   0  10  494.98   17.55
   9   0 -10   -0.44    4.77
  -9   0  10    0.43    4.48
  -9   0  10   -0.63    6.37
  -8   0  10  212.57   11.52
  -8   0  10  194.44    9.80
   8   0 -10  205.84   10.14
   7   0 -10    0.45    4.14
  -7   0  10   -4.89    5.15
  -7   0  10   -4.69    3.96
  -6   0  10   11.57    4.22
  -6   0  10   11.70    5.33
   6   0 -10   12.53    4.13
  -5   0  10    1.37    4.47
  -5   0  10    2.86    3.85
   5   0 -10    3.81    3.62
   4   0 -10   21.35    3.96
  -4   0  10   12.18    3.83
  -4   0  10   17.49    4.75
   3   0 -10   -1.86    3.14
  -3   0  10    0.99    3.81
  -3   0  10   -6.13    3.37
   2   0 -10  119.81    6.67
  -2   0  10  108.79    6.73
  -2   0  10  122.89    7.50
  -1   0  10   -3.47    3.31
   1   0 -10    2.08    2.98
  -1   0  10   -0.75    3.80
   0   0  10  793.88   24.66
   0   0  10  865.43   25.07
   0   0 -10  831.11   24.81
   1   0  10    4.65    4.21
   1   0  10    1.20    3.50
  -1   0 -10    3.14    3.21
   2   0  10  788.95   24.80
   2   0  10  846.25   25.33
  -2   0 -10  852.24   25.19
   3   0  10    0.08    3.80
   3   0  10   -1.83    4.57
  -3   0 -10    2.34    3.65
   4   0  10   39.13    5.16
  -4   0 -10   39.62    5.09
   4   0  10   54.69    6.19
  -5   0 -10   -2.15    4.22
  -6   0 -10 1274.56   37.99
  -7   0 -10   -1.65    5.09
  -8   0 -10  544.04   19.95
  -9   0 -10    3.25    6.27
 -10   0 -10   24.62    7.34
 -11   0 -10   -5.73    7.22
 -12   0 -10  171.59   14.71
 -18  -1  10   15.97   13.55
  18   1 -10   16.83   10.61
 -18   1  10    5.49   13.15
 -17  -1  10   44.00   13.06
  17   1 -10   51.22   10.40
 -17   1  10   22.61   12.47
 -16  -1  10   14.37   12.24
 -16   1  10    5.32   11.35
  16   1 -10   16.13    9.26
 -15  -1  10   84.17   12.28
  15   1 -10   77.03   10.06
 -15   1  10   67.24   11.95
 -14  -1  10   90.61   12.31
  14  -1 -10   72.13    8.10
  14   1 -10  105.01   10.26
 -14   1  10   98.28   11.94
  13  -1 -10    8.02    6.27
 -13  -1  10    8.04    9.52
 -13   1  10   10.02    9.53
  13   1 -10   -6.84    7.32
  12  -1 -10   92.80    7.77
 -12  -1  10  135.83   11.80
  12   1 -10  129.90    9.97
 -12   1  10  139.93   11.08
  11  -1 -10    4.14    5.11
 -11  -1  10   -1.81    8.48
  11   1 -10   -4.40    6.76
 -11   1  10   -1.75    8.08
 -10  -1  10   39.56    8.26
  10  -1 -10   29.10    5.40
  10   1 -10   29.57    6.77
 -10   1  10   35.29    7.77
 -10   1  10   27.12    4.96
  -9  -1  10   27.88    7.63
   9  -1 -10   23.77    4.73
  -9   1  10   18.16    7.01
   9   1 -10   20.22    6.05
  -9   1  10   11.47    4.38
  -8  -1  10    4.94    6.53
   8  -1 -10    9.17    4.10
  -8   1  10    2.15    5.96
  -8   1  10    1.28    3.89
   8   1 -10    3.82    5.36
  -7  -1  10   15.96    6.47
   7  -1 -10   13.67    3.85
   7   1 -10   15.35    5.22
  -6  -1  10   75.26    7.14
  -6  -1  10   62.31    7.06
   6  -1 -10   55.18    5.27
   6   1 -10   80.26    6.58
   5  -1 -10  166.08    8.04
  -5  -1  10  166.84   10.19
  -5  -1  10  162.09    9.44
   5   1 -10  174.14    9.42
  -4  -1  10  277.44   12.19
  -4  -1  10  284.90   11.73
   4  -1 -10  282.57   10.33
   4   1 -10  278.05   11.66
  -3  -1  10  420.42   15.30
   3  -1 -10  429.92   13.81
  -3  -1  10  433.07   15.48
   3   1 -10  437.97   15.18
  -2  -1  10  604.92   19.95
   2  -1 -10  620.11   18.26
  -2  -1  10  582.68   19.66
   2   1 -10  626.32   19.78
  -1  -1  10   50.72    5.72
   1  -1 -10   42.61    3.88
   1  -1 -10   50.60    4.05
  -1  -1  10   40.80    5.73
   1   1 -10   52.33    5.14
   0  -1 -10   11.70    3.19
   0  -1  10   10.13    4.94
   0   1  10    5.04    3.83
   0   1 -10   15.97    4.16
   0   1  10    6.00    3.13
   0   1  10   11.03    3.85
  -1  -1 -10  312.66   11.22
   1  -1  10  327.03   12.98
   1   1  10  320.59   11.73
   1   1  10  299.70   11.22
  -1   1 -10  324.71   12.34
   1   1  10  328.13   11.57
   2  -1  10  793.86   24.72
  -2  -1 -10  806.19   23.46
   2   1  10  718.57   23.21
  -2   1 -10  753.21   24.29
   2   1  10  780.73   23.08
   2   1  10  816.82   23.70
  -3  -1 -10   41.82    4.65
   3  -1  10   51.16    6.43
   3   1  10   40.89    5.16
   3   1  10   25.39    4.16
  -3   1 -10   39.61    5.45
  -4  -1 -10 1180.38   33.07
   4  -1  10 1100.95   33.92
  -4   1 -10 1104.75   33.75
   4   1  10 1048.95   32.75
   4   1  10 1148.77   32.13
  -5  -1 -10   24.38    5.15
   5  -1  10   18.07    6.29
   5   1  10   23.98    5.36
  -5   1 -10   20.47    5.25
  -6  -1 -10   25.72    5.48
   6  -1  10   38.29    7.01
   6   1  10   31.51    5.75
  -6   1 -10   28.61    5.81
  -7  -1 -10   -0.34    5.18
   7  -1  10    1.87    6.37
   7   1  10    1.99    5.43
  -7   1 -10    7.38    5.34
  -8  -1 -10  363.60   15.52
   8   1  10  397.52   15.41
  -8   1 -10  368.86   16.29
  -9  -1 -10    7.16    6.49
   9   1  10   11.72    6.55
  -9   1 -10   19.94    6.70
  10   1  10  294.26   14.66
 -10   1 -10  286.34   15.58
  11   1  10   -2.91    6.99
 -11   1 -10   -3.41    7.15
 -16  -2  10   17.19   12.04
 -16   2  10    1.67   10.33
  16   2 -10    5.10   10.27
 -15  -2  10    8.70   11.82
 -15   2  10   -9.38    9.25
  15   2 -10   15.95   10.20
 -14  -2  10   32.09   11.28
 -14   2  10   22.97    9.16
  14   2 -10   35.40    9.95
 -13  -2  10    4.90   10.68
  13   2 -10   13.91    9.03
 -12  -2  10   10.54   10.28
  12   2 -10    7.47    8.83
 -11  -2  10    9.67    9.17
  11   2 -10    8.32    8.02
 -10  -2  10   60.09   10.18
  10   2 -10   61.80    8.92
  -9  -2  10   84.47   10.19
   9   2 -10   75.44    9.03
  -8  -2  10    4.92    8.03
   8   2 -10   16.64    7.11
  -7  -2  10  217.25   13.96
   7   2 -10  228.06   13.24
  -6  -2  10  521.67   19.72
   6   2 -10  502.56   19.06
  -5  -2  10   21.89    7.15
   5   2 -10   36.05    6.46
  -4  -2  10  138.76   11.13
   4   2 -10  144.33   10.16
  -3  -2  10  260.93   13.26
   3   2 -10  266.53   12.55
  -2  -2  10  253.73   12.67
   2   2 -10  263.83   12.23
  -1  -2  10  612.99   20.95
  -1   2  10  595.29   19.57
   1   2 -10  588.53   20.58
   0  -2  10 1285.34   38.43
   0   2  10 1267.02   36.75
   0   2 -10 1270.36   38.33
   1  -2  10   -4.74    6.02
  -1   2 -10    0.00    4.86
   1   2  10   -4.49    5.21
   2  -2  10   82.35    8.11
  -2   2 -10   87.20    7.76
   2   2  10  105.88    7.77
   3  -2  10  117.22    8.97
   3   2  10  103.72    8.15
  -3   2 -10  110.10    9.43
   4  -2  10  387.83   16.89
  -4   2 -10  398.21   16.27
   4   2  10  407.54   16.02
   5  -2  10   10.98    7.01
  -5   2 -10    8.67    5.66
   5   2  10    6.50    6.35
   6  -2  10  375.25   17.82
  -6   2 -10  398.97   17.03
   6   2  10  409.61   16.67
   7  -2  10    0.67    7.65
  -7   2 -10   -7.32    5.93
   7   2  10   -3.88    7.01
   8  -2  10    6.11    7.94
   8   2  10    6.67    7.57
  -8   2 -10    9.40    6.87
   9  -2  10   75.11   10.31
  -9   2 -10   55.21    8.83
   9   2  10   57.58    8.94
   9   2  10   53.14    9.08
  10  -2  10   51.18   10.18
 -10   2 -10   41.62    8.81
  10   2  10   38.93    9.29
  10   2  10   44.47    9.12
 -14  -3  10    4.73   11.89
  14   3 -10   -3.48   10.75
 -13  -3  10  167.22   15.25
  13   3 -10  174.07   14.22
 -12  -3  10  146.78   14.21
  12   3 -10  130.84   13.32
 -11  -3  10  202.55   14.58
  11   3 -10  154.13   13.42
 -10  -3  10    0.13   10.06
  10   3 -10   -0.55    9.62
  -9  -3  10   -8.60    9.58
   9   3 -10   -7.54    8.96
   9   3 -10   -1.50    6.50
  -8  -3  10  338.54   18.14
   8   3 -10  290.17   14.76
   8   3 -10  366.36   18.64
  -7  -3  10  256.91   16.54
   7   3 -10  272.84   16.81
   7   3 -10  235.17   12.38
  -6  -3  10   63.57   10.00
   6   3 -10   75.31   10.03
  -5  -3  10  360.02   17.94
   5   3 -10  380.98   17.97
  -4  -3  10  497.26   20.51
   4   3 -10  509.49   20.82
  -3  -3  10   -7.65    7.76
   3   3 -10    6.75    7.31
  -2  -3  10  371.60   17.24
   2   3 -10  383.86   17.75
  -1  -3  10   80.57    9.55
  -1   3  10   69.47    8.05
   1   3 -10   78.11    9.10
   0  -3  10   60.82    9.14
   0   3  10   57.15    7.81
   0   3 -10   71.95    9.01
   1  -3  10   80.16    9.45
  -1   3 -10   68.95    9.34
   1   3  10   80.90    8.68
   2  -3  10  560.64   22.47
  -2   3 -10  617.30   23.00
   2   3  10  578.39   21.67
   3  -3  10   -3.69    8.02
  -3   3 -10   -5.63    7.36
   3   3  10    2.71    7.35
   4  -3  10   44.86    9.36
  -4   3 -10   32.00    8.51
   4   3  10   42.99    8.78
   5  -3  10   41.27    9.35
   5   3  10   38.38    9.02
  -5   3 -10   52.32    9.03
   6  -3  10  159.40   12.58
  -6   3 -10  168.87   14.40
   6   3  10  142.24   11.89
   7  -3  10  117.22   11.99
  -7   3 -10  125.35   11.90
   7   3  10   92.13   11.53
   8  -3  10   55.35   11.04
   8   3  10   48.73   10.71
  -8   3 -10   42.57    9.88
  10   4 -10  106.85   13.62
  10   4 -10   48.69    9.81
   9   4 -10  535.05   25.81
   8   4 -10    8.67   11.34
   8   4 -10   -0.48    7.38
   7   4 -10   15.00   11.26
   7   4 -10   11.90    7.03
  -6  -4  10   92.59   13.54
   6   4 -10  124.76   13.53
  -5  -4  10  211.00   18.07
   5   4 -10  226.60   18.20
  -4  -4  10   78.80   12.98
   4   4 -10   61.95   11.80
  -3  -4  10  200.40   15.65
   3   4 -10  217.77   17.65
  -2  -4  10   62.13   11.82
   2   4 -10   87.76   12.35
   1   4 -10   24.71   10.74
   0   4 -10   48.19   11.35
   0   4  10   43.37    9.31
  -1   4 -10   19.73   10.65
   1   4  10   35.08    9.27
  -2   4 -10    2.01   10.43
   2   4  10   11.37    8.97
   3   4  10  101.47   11.65
  -3   4 -10   93.75   13.06
 -18   0  11   19.33   13.69
 -17   0  11  122.69   14.85
 -16   0  11   17.04   11.96
  16   0 -11   14.09    8.51
  15   0 -11    1.20    7.70
 -15   0  11    7.53   11.11
 -14   0  11   14.95    9.99
  14   0 -11    7.65    7.33
 -13   0  11 1109.03   36.29
  13   0 -11 1129.02   35.05
 -12   0  11    9.20    8.83
  12   0 -11    6.83    6.60
 -11   0  11  792.73   27.39
  11   0 -11  817.38   26.24
 -11   0  11  801.47   26.05
  10   0 -11    9.76    5.84
 -10   0  11   -4.45    4.91
 -10   0  11    2.39    7.44
   9   0 -11 1148.76   34.87
  -9   0  11 1183.89   35.63
  -9   0  11 1151.74   34.95
  -8   0  11    1.80    6.27
  -8   0  11    0.87    4.54
   8   0 -11    6.65    4.93
  -7   0  11 4064.05  106.97
  -7   0  11 3649.39  106.56
   7   0 -11 3846.60  106.63
  -6   0  11    1.66    4.30
   6   0 -11    3.45    4.35
  -6   0  11    8.29    5.65
  -5   0  11  529.12   17.94
  -5   0  11  577.26   18.73
   5   0 -11  540.77   18.00
  -4   0  11    4.53    4.72
  -4   0  11    0.73    3.95
   4   0 -11    6.09    3.77
  -3   0  11 3786.89  103.88
   3   0 -11 3741.72  103.86
  -3   0  11 3765.76  103.82
  -2   0  11   -2.65    3.80
  -2   0  11    1.95    4.54
   2   0 -11   -2.76    3.29
  -1   0  11 1488.66   44.33
  -1   0  11 1590.23   44.62
   1   0 -11 1589.49   44.56
   0   0 -11    2.22    3.56
   0   0  11    1.46    4.35
   0   0  11    4.77    3.89
   1   0  11  323.18   12.64
  -1   0 -11  325.93   12.01
   1   0  11  292.39   11.60
   2   0  11    5.69    3.90
   2   0  11    6.05    4.99
  -2   0 -11    7.99    4.08
   3   0  11  503.83   17.24
   3   0  11  443.46   16.28
  -3   0 -11  495.76   16.73
  -4   0 -11    0.15    4.13
   4   0  11   -1.06    5.50
  -5   0 -11  155.97    9.72
   5   0  11  166.00   10.96
  -6   0 -11    4.90    5.04
  -7   0 -11  348.62   15.03
  -8   0 -11    1.93    5.77
  -9   0 -11   94.26    8.92
 -10   0 -11    1.89    6.82
 -11   0 -11  915.00   31.29
 -17  -1  11   31.96   13.33
 -17   1  11   25.69   12.63
  17   1 -11   19.61    9.72
 -16  -1  11    0.27   11.73
 -16   1  11   21.62   12.11
  16   1 -11   13.77    9.28
 -15  -1  11  302.42   19.86
  15   1 -11  309.23   18.22
 -15   1  11  350.45   20.37
 -14  -1  11  330.87   19.44
  14   1 -11  331.45   17.81
 -14   1  11  352.77   19.45
 -13  -1  11    4.88   10.15
  13  -1 -11    9.05    6.16
  13   1 -11    7.44    8.01
 -13   1  11    1.11    9.66
  12  -1 -11   83.78    7.57
 -12  -1  11  112.08   11.56
  12   1 -11  100.67    9.78
 -12   1  11  109.51   10.67
 -11  -1  11  993.66   33.07
  11  -1 -11  952.60   30.55
 -11   1  11 1057.24   32.27
  11   1 -11 1027.65   32.33
  10  -1 -11  181.08   10.16
 -10  -1  11  175.34   14.32
  10   1 -11  192.89   12.35
 -10   1  11  196.26   13.34
  -9  -1  11 1563.23   44.24
   9  -1 -11 1432.29   41.91
  -9   1  11 1573.70   43.01
   9   1 -11 1476.66   43.52
  -9   1  11 1246.94   41.75
  -8  -1  11  299.01   15.28
   8  -1 -11  287.77   11.46
  -8   1  11  326.42   13.64
  -8   1  11  240.20   11.24
   8   1 -11  315.90   13.82
  -7  -1  11   97.98    8.83
  -7   1  11  113.32    9.64
   7   1 -11  107.40    9.36
  -7   1  11   76.38    6.78
   6  -1 -11  406.18   14.45
  -6  -1  11  423.92   16.74
   6   1 -11  440.57   16.04
   5  -1 -11 2961.62   80.61
  -5  -1  11 2991.96   83.70
   5   1 -11 2988.49   83.61
   4  -1 -11  151.66    7.70
  -4  -1  11  163.01   10.62
   4   1 -11  159.36    9.32
  -3  -1  11  773.79   24.72
   3  -1 -11  762.37   22.74
   3   1 -11  793.89   24.57
   2  -1 -11  225.71    8.89
  -2  -1  11  226.01   11.41
   2  -1 -11  223.71    9.00
   2   1 -11  228.08   10.48
   1  -1 -11  592.39   18.13
   1  -1 -11  615.20   18.68
  -1  -1  11  614.14   20.42
  -1   1  11  631.65   19.08
   1   1 -11  575.09   19.85
   0  -1 -11  913.44   26.44
   0  -1  11  922.85   27.91
   0   1  11  948.19   26.72
   0   1  11  879.59   25.84
   0   1 -11  890.02   27.62
   0   1  11  823.75   26.27
  -1  -1 -11  636.86   19.20
   1  -1  11  611.23   20.70
   1   1  11  562.66   19.02
   1   1  11  619.93   18.81
   1   1  11  626.29   19.47
  -1   1 -11  601.15   20.16
  -2  -1 -11    6.83    3.76
   2  -1  11   -3.76    5.39
  -2   1 -11    0.13    4.13
   2   1  11    0.39    4.43
   2   1  11    1.69    4.93
   2   1  11    4.20    3.81
   3  -1  11   63.99    7.20
  -3  -1 -11   57.62    5.39
   3   1  11   59.81    5.73
   3   1  11   52.22    6.34
  -3   1 -11   57.29    6.23
   4  -1  11  970.83   30.16
  -4  -1 -11  982.04   29.00
  -4   1 -11  917.13   29.71
   4   1  11  935.26   28.06
   5  -1  11   95.88    8.55
  -5  -1 -11   76.37    6.90
  -5   1 -11   87.96    7.64
   5   1  11   85.72    6.96
   6  -1  11  221.37   13.28
  -6  -1 -11  216.95   11.52
  -6   1 -11  211.41   12.12
   6   1  11  228.06   11.50
   7  -1  11  133.96   10.30
  -7  -1 -11  121.28   10.41
   7   1  11  122.31   10.34
  -7   1 -11  122.73   10.71
  -8  -1 -11  180.53   11.87
   8  -1  11  160.59   13.43
  -8   1 -11  170.63   12.17
   8   1  11  172.69   11.75
   9  -1  11  429.36   19.13
  -9   1 -11  414.40   18.08
   9   1  11  413.44   17.01
 -10   1 -11  114.11   10.27
 -16  -2  11  436.41   24.17
  16   2 -11  486.09   22.98
 -15  -2  11  170.55   14.99
 -15   2  11  102.96   11.41
  15   2 -11  143.90   12.73
 -14  -2  11   35.89   11.98
  14   2 -11   27.60    9.99
 -13  -2  11  205.56   15.38
  13   2 -11  217.47   16.95
 -12  -2  11  495.82   22.62
  12   2 -11  506.32   21.96
 -11  -2  11    4.94    9.90
  11   2 -11   -5.18    8.19
 -10  -2  11  187.28   13.26
  10   2 -11  176.48   14.11
  -9  -2  11  172.99   15.09
   9   2 -11  195.18   14.05
  -8  -2  11  229.63   15.29
   8   2 -11  206.35   14.20
  -7  -2  11  595.11   22.58
   7   2 -11  585.37   21.94
  -6  -2  11  168.75   13.13
   6   2 -11  172.91   12.00
  -5  -2  11   -4.52    7.22
   5   2 -11    5.90    6.02
  -4  -2  11  558.10   20.82
   4   2 -11  570.36   20.56
  -3  -2  11  159.73   11.94
   3   2 -11  166.44   11.07
  -2  -2  11  699.50   24.13
   2   2 -11  723.85   24.01
  -1  -2  11  107.82    9.12
  -1   2  11  110.42    9.18
   1   2 -11  110.61    8.52
   0  -2  11  411.27   16.99
   0   2  11  418.59   15.52
   0   2 -11  408.02   16.41
   1  -2  11   16.24    6.96
   1   2  11   17.14    5.93
  -1   2 -11   16.42    5.79
   2  -2  11 1704.65   50.77
  -2   2 -11 1677.40   50.71
   2   2  11 1776.84   48.81
   3  -2  11    0.05    6.91
  -3   2 -11   -3.89    5.25
   3   2  11   -3.22    6.13
   4  -2  11  122.68    9.99
   4   2  11  123.10    9.19
  -4   2 -11  126.41    9.62
   5  -2  11   11.79    7.62
   5   2  11    4.30    6.83
  -5   2 -11    5.86    5.87
   6  -2  11  869.91   29.61
  -6   2 -11  857.56   29.15
   6   2  11  866.29   28.05
   7  -2  11    5.31    8.23
  -7   2 -11    0.06    6.58
   7   2  11   -3.27    7.11
   8  -2  11  429.01   20.06
  -8   2 -11  413.03   18.99
   8   2  11  419.81   18.53
   9  -2  11   42.12    9.97
  -9   2 -11   44.99    8.67
   9   2  11   34.82    8.87
 -14  -3  11  306.68   21.53
  14   3 -11  335.09   21.58
 -13  -3  11  138.74   14.76
  13   3 -11  143.24   13.86
 -12  -3  11   14.69   11.52
  12   3 -11   17.64   10.97
 -11  -3  11   45.09   11.74
  11   3 -11   29.02   10.78
 -10  -3  11   86.00   12.19
  10   3 -11   79.82   11.62
  -9  -3  11   51.18   11.28
   9   3 -11   19.00    7.26
   9   3 -11   45.02   10.56
  -8  -3  11    8.05   10.00
   8   3 -11    1.41    9.38
   8   3 -11   -8.56    5.74
  -7  -3  11   -0.28    9.58
   7   3 -11    0.64    9.02
  -6  -3  11   79.07   10.97
   6   3 -11   99.60   10.89
  -5  -3  11   17.70    9.08
   5   3 -11   15.74    8.40
  -4  -3  11   21.87    9.05
   4   3 -11   16.34    8.21
  -3  -3  11    1.86    8.24
   3   3 -11    9.92    7.85
  -2  -3  11  466.36   20.09
   2   3 -11  482.51   20.33
  -1  -3  11   54.95    9.11
   1   3 -11   70.13    9.39
  -1   3  11   44.76    7.51
   0  -3  11  744.58   26.51
   0   3 -11  737.29   26.99
   0   3  11  743.60   25.19
   1  -3  11   82.63   10.16
   1   3  11   81.62    9.04
  -1   3 -11  100.54   10.26
   2  -3  11  139.93   11.82
   2   3  11  115.84   10.47
  -2   3 -11  146.98   11.84
   3  -3  11  105.62   11.17
   3   3  11   72.46    9.54
  -3   3 -11  111.38   10.75
   4  -3  11  813.32   29.05
   4   3  11  787.00   27.81
  -4   3 -11  801.01   29.08
   5  -3  11   84.16   10.98
   5   3  11   71.38   10.15
  -5   3 -11   79.86   10.38
   6  -3  11  247.22   17.88
   6   3  11  241.79   16.76
  -6   3 -11  247.53   16.65
   7  -3  11  -10.21    9.66
   7   3  11   -4.52    9.00
  -7   3 -11    5.72    8.74
   9   4 -11   32.94   12.32
   8   4 -11    7.20   11.73
   7   4 -11  118.02   14.02
  -6  -4  11  106.67   14.71
   6   4 -11   99.14   13.61
  -5  -4  11   13.41   11.55
   5   4 -11    7.52   10.79
  -4  -4  11   98.08   13.57
   4   4 -11  124.64   13.74
  -3  -4  11   89.11   13.47
   3   4 -11  110.32   13.17
   2   4 -11    4.66   10.51
   1   4 -11   22.95   10.99
   0   4  11  134.47   11.95
   0   4 -11  197.01   15.59
   1   4  11   18.37    9.09
  -1   4 -11   14.68   11.08
  -2   4 -11  319.09   21.34
   2   4  11  315.36   18.52
 -17   0  12   12.59   12.74
  16   0 -12  741.73   26.41
 -16   0  12  699.12   28.74
 -15   0  12  -10.01   10.81
  15   0 -12   11.05    8.03
 -14   0  12   37.16   10.80
  14   0 -12   67.76    8.81
 -13   0  12   -1.14    9.62
  13   0 -12    5.59    7.19
 -12   0  12  177.28   14.99
  12   0 -12  183.82   12.57
 -11   0  12    5.62    8.43
  11   0 -12    7.81    6.58
 -10   0  12  178.54   11.11
  10   0 -12  216.40   11.81
 -10   0  12  206.53   13.57
  -9   0  12   -4.54    5.05
  -9   0  12   -4.41    7.46
   9   0 -12    0.61    5.30
   8   0 -12  311.30   13.24
  -8   0  12  292.21   12.87
  -8   0  12  304.28   14.90
   7   0 -12   -0.63    4.74
  -7   0  12   -4.50    4.76
  -7   0  12    0.35    6.56
  -6   0  12  117.10    8.52
   6   0 -12  102.73    8.43
  -6   0  12   99.89    7.49
   5   0 -12    3.22    4.41
  -5   0  12   -0.26    5.70
  -5   0  12   -6.65    4.28
   4   0 -12 1411.24   40.38
  -4   0  12 1348.91   40.30
  -4   0  12 1401.24   40.55
  -3   0  12   -1.93    4.04
   3   0 -12    1.76    3.96
  -3   0  12    1.75    4.79
   2   0 -12  758.32   24.10
  -2   0  12  758.32   24.07
  -2   0  12  825.56   24.65
  -1   0  12    9.65    5.13
   1   0 -12    8.01    3.94
  -1   0  12    3.81    4.30
   0   0  12  163.21    9.73
   0   0 -12  146.95    8.38
   0   0  12  144.41    8.31
   1   0  12   -1.66    3.86
  -1   0 -12    9.42    4.14
   1   0  12   -0.46    5.04
  -2   0 -12 1948.11   53.07
   2   0  12 1736.54   52.50
   2   0  12 1849.38   53.01
  -3   0 -12    2.45    4.37
   3   0  12    3.87    5.97
  -4   0 -12  384.54   15.30
   4   0  12  412.18   16.30
  -5   0 -12   -3.17    4.72
   5   0  12   -1.15    6.70
   6   0  12   60.87    8.47
  -6   0 -12   59.57    6.91
  -7   0 -12    1.13    5.61
   7   0  12   -0.30    7.22
  -8   0 -12  390.99   17.11
  -9   0 -12   -2.07    6.52
 -10   0 -12   65.65    8.99
 -17  -1  12   17.54   13.50
 -17   1  12    9.62   12.55
  17   1 -12   15.48   10.01
 -16  -1  12   11.23   12.07
  16   1 -12   10.01    9.48
 -16   1  12    2.91   11.79
 -15  -1  12  233.55   19.18
 -15   1  12  239.45   19.27
  15   1 -12  264.50   17.18
 -14  -1  12  229.22   18.32
 -14   1  12  248.55   18.14
  14   1 -12  241.61   16.34
 -13  -1  12   76.19   11.99
 -13   1  12   75.74   10.90
  13   1 -12   81.91    9.78
 -12  -1  12  221.16   16.78
  12  -1 -12  212.27   12.06
 -12   1  12  258.94   16.30
  12   1 -12  256.80   15.19
  11  -1 -12  483.32   17.81
 -11  -1  12  465.69   21.32
 -11   1  12  516.88   20.32
  11   1 -12  523.59   20.07
 -10  -1  12   20.22    9.25
  10  -1 -12   30.69    5.65
  10   1 -12   23.76    7.24
 -10   1  12   40.92    8.55
  -9  -1  12  370.81   17.98
   9  -1 -12  338.64   13.89
  -9   1  12  391.85   16.27
   9   1 -12  376.82   16.23
   8  -1 -12   34.95    5.07
  -8  -1  12   35.75    8.53
   8   1 -12   25.53    6.62
  -8   1  12   34.75    7.30
  -8   1  12   15.53    4.81
   7  -1 -12   14.64    4.44
  -7  -1  12   10.13    7.46
  -7   1  12   25.81    6.95
  -7   1  12   11.23    4.60
   7   1 -12   14.95    5.90
   6  -1 -12  172.01    8.67
  -6  -1  12  185.96   12.25
   6   1 -12  168.16   10.78
  -5  -1  12  468.35   17.83
   5  -1 -12  449.53   15.06
   5  -1 -12  429.41   14.97
   5   1 -12  457.12   16.87
  -4  -1  12  316.02   14.35
   4  -1 -12  314.93   11.43
   4   1 -12  308.66   13.44
  -3  -1  12  149.40   10.64
   3  -1 -12  143.72    7.36
   3  -1 -12  153.82    7.76
   3   1 -12  156.52    9.60
  -2  -1  12  589.31   20.31
   2  -1 -12  561.90   17.69
   2  -1 -12  581.00   18.30
  -2   1  12  589.38   18.93
   2   1 -12  584.27   19.77
   1  -1 -12  277.83   10.42
  -1  -1  12  282.72   12.92
   1  -1 -12  264.72    9.94
  -1   1  12  270.78   11.27
   1   1 -12  269.11   11.83
  -1   1  12  229.37   10.07
   0  -1  12  973.69   30.38
   0  -1 -12 1018.24   28.96
   0   1  12 1024.88   29.22
   0   1  12  884.70   28.70
   0   1 -12  975.70   30.11
   1  -1  12    6.68    6.03
  -1  -1 -12    0.39    3.84
  -1   1 -12    5.85    4.64
   1   1  12    1.86    5.12
   1   1  12   -3.51    4.03
   1   1  12   -4.21    4.30
  -2  -1 -12   84.97    7.29
   2  -1  12   92.04    8.17
  -2   1 -12   86.06    7.32
   2   1  12   93.00    7.33
   2   1  12   84.43    6.45
  -3  -1 -12   65.35    6.11
   3  -1  12   66.57    7.87
   3   1  12   60.21    7.12
   3   1  12   67.18    6.34
  -3   1 -12   64.16    6.92
   4  -1  12  360.08   16.06
  -4  -1 -12  376.56   14.33
  -4   1 -12  356.50   15.19
   4   1  12  368.06   14.02
   4   1  12  366.73   15.33
  -5  -1 -12    6.73    4.88
   5  -1  12   11.97    7.22
   5   1  12    5.31    6.72
  -5   1 -12    5.39    5.26
   5   1  12    7.27    5.63
  -6  -1 -12  647.68   21.77
   6  -1  12  594.71   23.00
  -6   1 -12  606.93   22.23
   6   1  12  635.63   20.77
   7  -1  12  127.55   10.96
  -7   1 -12  108.11    9.33
   7   1  12  108.98    8.55
   8  -1  12   90.90   10.46
   8   1  12   77.98    8.43
  -8   1 -12   66.99    8.37
   9  -1  12   72.21   10.44
  -9   1 -12   41.30    7.79
 -16  -2  12   77.47   14.25
  16   2 -12   96.58   12.31
 -16   2  12   45.52   10.74
 -15  -2  12   20.95   12.46
  15   2 -12    6.91   10.16
 -14  -2  12  131.76   14.66
  14   2 -12  143.18   12.83
 -13  -2  12  599.70   26.45
  13   2 -12  652.56   25.88
 -12  -2  12   23.26   10.84
  12   2 -12   36.42    9.77
 -11  -2  12  322.44   19.25
  11   2 -12  327.13   18.20
 -10  -2  12   53.10   10.91
  10   2 -12   54.10    9.60
  -9  -2  12  171.01   13.07
   9   2 -12  155.89   11.66
  -8  -2  12  176.88   13.05
   8   2 -12  176.17   13.99
  -7  -2  12 1291.30   40.52
   7   2 -12 1283.58   40.15
  -6  -2  12   29.26    8.51
   6   2 -12   39.25    7.57
  -5  -2  12   64.77    9.34
   5   2 -12   64.51    8.20
  -4  -2  12    1.89    7.43
   4   2 -12    6.31    6.28
  -3  -2  12  201.60   13.32
   3   2 -12  201.36   12.18
  -2  -2  12  274.43   14.59
   2   2 -12  278.63   13.91
  -1  -2  12  263.52   14.34
   1   2 -12  254.61   13.41
   0  -2  12   -1.15    6.96
   0   2 -12    5.69    5.81
   0   2  12    0.79    5.58
   1  -2  12   55.66    8.40
   1   2  12   53.96    7.01
  -1   2 -12   71.57    7.61
   2  -2  12   95.35    9.35
   2   2  12   82.40    8.05
  -2   2 -12   95.88    8.78
   3  -2  12   -5.26    7.23
  -3   2 -12   -0.20    5.70
   3   2  12   -6.34    6.29
   4  -2  12  374.96   18.16
   4   2  12  413.47   17.06
  -4   2 -12  424.31   17.54
   5  -2  12  121.68   10.90
   5   2  12  111.80    9.60
  -5   2 -12  121.41   10.07
   6  -2  12   87.99   10.36
  -6   2 -12   80.72    9.22
   6   2  12   75.34    9.08
   7  -2  12   39.56    9.54
  -7   2 -12   38.56    8.08
   7   2  12   22.06    8.22
   8  -2  12  246.64   17.25
   8   2  12  247.76   15.46
  -8   2 -12  237.78   15.57
 -13  -3  12   54.51   13.36
  13   3 -12   50.91   12.40
 -12  -3  12   63.13   12.70
  12   3 -12   51.60   11.94
 -11  -3  12  129.91   14.20
  11   3 -12  134.20   13.33
 -10  -3  12  329.90   20.41
  10   3 -12  332.31   20.53
  -9  -3  12  644.51   26.68
   9   3 -12  674.20   27.26
  -8  -3  12   42.50   11.28
   8   3 -12   60.08   11.06
  -7  -3  12   53.26   10.95
   7   3 -12   55.97   10.55
  -6  -3  12  159.14   13.40
   6   3 -12  156.51   12.68
  -5  -3  12  317.39   18.07
   5   3 -12  319.34   17.88
  -4  -3  12   -3.76    9.03
   4   3 -12   -1.47    8.32
  -3  -3  12  350.39   18.38
   3   3 -12  384.07   18.64
  -2  -3  12  175.55   13.26
   2   3 -12  167.68   14.32
  -1  -3  12   39.91    9.42
   1   3 -12   60.85    9.63
   0  -3  12    7.31    8.85
   0   3 -12    6.11    8.22
   0   3  12   11.26    7.43
   1  -3  12   72.76   10.51
  -1   3 -12   91.24   10.47
   1   3  12   76.15    9.12
   2  -3  12  131.22   11.96
  -2   3 -12  155.44   12.43
   2   3  12  121.75   10.63
   3  -3  12   14.30    9.57
   3   3  12   19.74    8.59
  -3   3 -12   18.96    8.88
   4  -3  12   77.03   11.34
   4   3  12   80.12   10.39
  -4   3 -12   95.34   11.28
   5  -3  12   -5.08    9.65
   5   3  12   -4.05    8.82
  -5   3 -12    4.40    8.71
   6   3  12  163.26   13.31
  -6   3 -12  170.16   13.95
   8   4 -12   79.70   13.59
   7   4 -12  124.98   14.41
  -6  -4  12   24.56   13.08
   6   4 -12   27.35   11.95
  -5  -4  12  485.54   25.77
   5   4 -12  478.76   24.35
  -4  -4  12   84.01   14.16
   4   4 -12   85.50   13.29
   3   4 -12   16.54   11.39
   2   4 -12   27.08   11.41
   1   4 -12  218.41   19.04
   0   4 -12   55.81   12.26
 -17   0  13   49.68   13.51
 -16   0  13   10.30   12.23
 -15   0  13   91.18   12.64
  15   0 -13   92.86    9.93
  14   0 -13    8.87    7.87
 -14   0  13   -7.39   10.50
 -13   0  13  110.19   12.19
  13   0 -13   91.19    9.20
 -12   0  13    2.95    9.58
  12   0 -13   18.22    7.08
  11   0 -13   26.79    7.14
 -11   0  13   24.64    9.21
  10   0 -13    2.65    6.13
 -10   0  13    2.29    8.56
   9   0 -13   58.53    6.96
  -9   0  13   53.41    9.11
  -8   0  13   -1.51    5.06
   8   0 -13   -0.66    5.48
  -8   0  13   -8.08    7.24
  -7   0  13  112.39    9.34
   7   0 -13   94.90    7.39
  -7   0  13   81.93    7.50
  -6   0  13   -8.15    4.77
  -6   0  13    5.57    6.68
   6   0 -13    3.79    4.89
  -5   0  13  493.44   18.08
  -5   0  13  524.78   19.11
   5   0 -13  552.59   18.22
   4   0 -13   10.47    4.65
  -4   0  13   -5.04    5.85
  -4   0  13   -5.81    4.41
   3   0 -13  498.93   17.09
  -3   0  13  463.65   16.87
  -3   0  13  497.61   17.72
   2   0 -13    4.76    4.27
  -2   0  13   -4.94    4.42
  -2   0  13   10.63    5.96
   1   0 -13  515.95   17.26
  -1   0  13  470.43   17.05
  -1   0  13  513.22   18.03
   0   0  13   -1.16    4.54
   0   0  13    2.88    5.72
   0   0 -13    2.68    4.24
  -1   0 -13  373.69   14.35
   1   0  13  373.15   15.24
  -2   0 -13   12.41    4.88
   2   0  13    9.66    6.23
   3   0  13 1686.51   48.67
  -3   0 -13 1625.04   48.44
   4   0  13    4.57    6.93
  -4   0 -13   -3.14    4.85
   5   0  13   36.97    8.14
  -5   0 -13   39.66    6.60
  -6   0 -13    4.01    5.70
   6   0  13    7.05    7.75
   7   0  13  208.92   14.91
  -7   0 -13  215.90   12.91
  -8   0 -13   -4.93    6.14
   8   0  13    3.89    8.65
   9   0  13   54.37   10.33
  -9   0 -13   40.82    8.42
 -17  -1  13   35.39   13.32
 -17   1  13   33.97   13.01
  17   1 -13   36.74   10.42
 -16  -1  13    2.92   12.28
  16   1 -13   25.33   10.10
 -16   1  13   23.65   12.61
 -15  -1  13   40.66   12.35
  15   1 -13   52.44   10.24
 -15   1  13   58.71   12.46
 -14  -1  13   27.74   11.94
  14   1 -13   22.63    9.25
 -14   1  13   28.04   11.34
 -13  -1  13   -1.88   10.81
  13   1 -13   -1.19    8.77
 -13   1  13   17.13   10.53
 -12  -1  13   47.65   10.92
 -12   1  13   43.12    9.87
  12   1 -13   42.79    8.69
  11  -1 -13   22.45    6.09
 -11  -1  13   11.20   10.02
 -11   1  13   28.36    9.52
  11   1 -13   14.44    7.90
 -10  -1  13   47.72   10.18
  10  -1 -13   46.73    6.20
 -10   1  13   66.98    9.11
  10   1 -13   57.23    8.57
   9  -1 -13   33.09    5.73
  -9  -1  13   30.40    9.27
  -9   1  13   39.00    8.10
   9   1 -13   35.97    7.75
  -8  -1  13  175.35   12.06
   8  -1 -13  146.71    9.13
   8   1 -13  147.57   11.87
  -7  -1  13  592.93   21.78
   7  -1 -13  560.28   18.41
  -7   1  13  623.58   20.28
  -7   1  13  461.05   18.21
   7   1 -13  592.25   20.63
  -6  -1  13  157.86   10.96
   6  -1 -13  150.95    8.44
   6   1 -13  144.23   10.95
  -5  -1  13  190.86   13.24
   5  -1 -13  206.28    9.45
   5   1 -13  175.47   11.38
  -5   1  13  204.44   11.62
   4  -1 -13  347.22   12.57
  -4  -1  13  362.96   15.69
   4  -1 -13  334.64   12.19
   4   1 -13  331.69   14.55
  -4   1  13  339.17   14.11
   3  -1 -13   29.98    4.21
   3  -1 -13   48.68    4.83
  -3  -1  13   31.49    6.90
  -3   1  13   35.22    6.00
  -3   1  13   15.95    4.58
   3   1 -13   44.65    6.34
   2  -1 -13   50.00    5.10
  -2  -1  13   58.21    7.56
   2  -1 -13   50.84    4.65
   2   1 -13   56.11    6.48
  -2   1  13   63.61    6.61
  -2   1  13   28.40    4.72
  -1  -1  13  828.66   26.57
   1  -1 -13  799.90   24.70
  -1   1  13  843.86   25.31
   1   1 -13  776.28   26.04
   0  -1  13   10.71    6.61
   0  -1 -13    9.94    4.22
   0   1 -13   14.11    5.18
   0   1  13   11.11    5.67
   1  -1  13  596.13   22.20
  -1  -1 -13  642.84   20.43
   1   1  13  664.16   21.06
  -1   1 -13  614.23   21.63
  -2  -1 -13   11.48    4.79
   2  -1  13   12.49    7.04
   2   1  13   16.61    6.45
  -2   1 -13   18.71    5.50
  -3  -1 -13   21.87    5.32
   3  -1  13   26.54    7.58
   3   1  13   25.30    5.73
   3   1  13   26.20    6.79
  -3   1 -13   28.28    6.03
  -4  -1 -13   15.20    5.52
   4  -1  13   21.23    7.78
  -4   1 -13   20.89    6.21
   4   1  13   29.11    7.52
   5  -1  13  605.45   22.89
  -5   1 -13  575.48   21.83
   5   1  13  613.89   20.26
   5   1  13  623.31   22.02
   6  -1  13   47.67    9.32
   6   1  13   50.20    8.82
   6   1  13   49.71    7.49
  -6   1 -13   51.52    7.75
   7  -1  13   27.65    9.33
   7   1  13   33.96    8.78
  -7   1 -13   27.90    7.08
   8  -1  13   48.35   10.01
  -8   1 -13   45.05    8.07
 -15  -2  13   11.02   12.72
  15   2 -13   11.60   10.76
 -14  -2  13   25.06   12.71
  14   2 -13   22.01   10.76
 -13  -2  13   61.53   12.78
  13   2 -13   44.00   10.84
 -12  -2  13  142.56   14.24
  12   2 -13  100.93   11.71
 -11  -2  13  109.26   13.05
  11   2 -13  129.13   11.62
 -10  -2  13  142.18   13.34
  10   2 -13  132.33   11.84
  -9  -2  13  544.48   23.92
   9   2 -13  581.13   23.43
  -8  -2  13   18.56    9.88
   8   2 -13   13.33    8.40
  -7  -2  13   29.45    9.59
   7   2 -13   30.37    8.16
  -6  -2  13  410.49   19.33
   6   2 -13  441.17   18.71
  -5  -2  13  523.10   21.44
   5   2 -13  512.95   20.42
  -4  -2  13   80.79    9.72
   4   2 -13   69.42    8.51
  -3  -2  13  415.93   18.53
   3   2 -13  420.44   17.75
  -2  -2  13   22.40    8.27
   2   2 -13   33.55    7.16
  -1  -2  13    7.89    7.92
   1   2 -13   12.76    6.55
   0  -2  13   74.07    9.25
   0   2  13   60.98    7.34
   0   2 -13   64.67    8.15
   1  -2  13  348.49   16.96
  -1   2 -13  327.08   15.67
   1   2  13  326.22   14.59
   2  -2  13   58.10    9.09
   2   2  13   40.83    7.30
  -2   2 -13   47.47    7.73
   3  -2  13  112.48   10.78
   3   2  13  109.40    9.29
  -3   2 -13  124.46   10.23
   4  -2  13    0.53    8.36
  -4   2 -13    9.35    6.74
   4   2  13   13.33    7.34
   5  -2  13    7.35    8.66
  -5   2 -13    3.02    6.62
   5   2  13    2.27    7.67
   5   2  13    3.46    7.41
   6  -2  13  113.60   11.46
   6   2  13  105.71   10.15
  -6   2 -13   98.61   10.02
   6   2  13   86.55    9.65
   7  -2  13    5.73    9.55
  -7   2 -13   11.56    7.64
   7   2  13    8.72    8.30
 -13  -3  13   95.20   14.42
  13   3 -13  115.40   13.73
 -12  -3  13   29.89   12.58
  12   3 -13   13.80   11.36
 -11  -3  13  224.70   16.91
  11   3 -13  230.42   19.43
 -10  -3  13  217.07   19.18
  10   3 -13  265.26   19.71
  -9  -3  13   63.41   12.25
   9   3 -13   73.18   11.89
  -8  -3  13   90.32   12.89
   8   3 -13   67.68   11.64
  -7  -3  13  554.18   24.62
   7   3 -13  556.07   24.33
  -6  -3  13   34.70   11.11
   6   3 -13   22.48    9.46
  -5  -3  13   18.66   10.24
   5   3 -13   11.03    9.06
  -4  -3  13   23.53   10.27
   4   3 -13   11.09    9.02
  -3  -3  13  328.10   18.45
   3   3 -13  327.65   18.22
  -2  -3  13   -4.73    9.43
   2   3 -13    6.36    8.56
  -1  -3  13   65.79   10.87
   1   3 -13   74.80   10.48
   0  -3  13    6.23    9.46
   0   3 -13   13.47    8.78
   0   3  13   12.26    7.64
   1  -3  13    6.20    9.67
  -1   3 -13   -4.04    8.33
   1   3  13   10.47    7.79
   2  -3  13   59.64   10.92
  -2   3 -13   66.25   10.48
   2   3  13   43.02    9.12
   3  -3  13  123.35   12.77
   3   3  13  112.24   11.05
  -3   3 -13  136.80   12.73
   4  -3  13   98.22   12.14
  -4   3 -13  103.47   11.87
   4   3  13   74.12   10.77
   4   4 -13   34.42   11.97
 -17   0  14   13.49   12.87
 -16   0  14  706.41   28.50
 -15   0  14   19.42   11.57
  14   0 -14   20.66    8.19
 -14   0  14    4.12   10.82
  13   0 -14   13.79    7.60
 -13   0  14   -0.76   10.35
  12   0 -14 1881.56   54.34
 -12   0  14 1802.07   55.03
  11   0 -14    6.13    6.61
 -11   0  14    6.03    8.99
 -10   0  14  967.00   32.47
  10   0 -14  999.32   31.18
  -9   0  14    4.77    8.28
   9   0 -14    5.69    6.02
  -8   0  14  403.54   18.20
   8   0 -14  409.08   16.51
   7   0 -14    9.08    5.72
  -7   0  14    5.52    7.97
   6   0 -14 1276.50   38.06
  -6   0  14 1261.13   38.75
   5   0 -14   11.63    5.12
  -5   0  14   -8.43    5.09
  -5   0  14   10.82    6.90
   4   0 -14   80.96    6.86
  -4   0  14   67.91    7.99
  -4   0  14   57.91    7.07
   3   0 -14    3.20    4.73
  -3   0  14    6.52    6.38
  -2   0  14  741.87   24.74
   2   0 -14  750.11   24.09
  -1   0  14    4.83    6.41
   1   0 -14    5.00    4.67
   0   0 -14    7.47    4.76
   0   0  14    4.05    6.54
  -1   0 -14    7.75    4.99
   1   0  14   -3.09    6.56
   2   0  14  646.82   22.41
  -2   0 -14  625.30   21.71
   3   0  14    8.14    7.20
  -3   0 -14    7.87    5.43
   4   0  14  119.31   10.39
  -4   0 -14  114.31    9.11
  -5   0 -14   -1.24    5.76
   5   0  14   -3.95    7.94
  -6   0 -14  897.40   30.33
   6   0  14  941.97   31.14
  -7   0 -14   -0.42    6.41
   7   0  14   -4.32    8.84
   8   0  14  546.36   23.21
 -16  -1  14   61.42   13.69
  16   1 -14   54.23   10.78
 -16   1  14   67.42   13.17
 -15  -1  14   24.56   12.54
  15   1 -14   24.77    9.92
 -15   1  14   54.53   12.47
 -14  -1  14  938.46   35.22
 -14   1  14 1011.97   34.43
  14   1 -14 1026.30   34.11
 -13  -1  14  155.68   14.49
 -13   1  14  170.76   13.34
  13   1 -14  134.47   11.82
 -12  -1  14  146.64   13.45
 -12   1  14  156.57   12.46
  12   1 -14  126.61   11.06
 -11  -1  14   26.80   10.75
  11   1 -14   26.03    8.21
 -11   1  14   35.06    9.75
 -10  -1  14  664.31   26.80
  10   1 -14  712.71   25.82
 -10   1  14  772.57   25.51
  -9  -1  14  325.61   18.46
   9  -1 -14  322.16   13.66
   9   1 -14  338.94   16.81
  -9   1  14  361.61   16.37
   8  -1 -14  873.20   27.99
  -8  -1  14  948.51   31.47
   8   1 -14  943.40   30.37
   7  -1 -14   15.40    5.03
  -7  -1  14   -1.26    8.33
   7   1 -14    7.27    6.53
   6  -1 -14   12.01    4.71
  -6  -1  14   12.26    8.21
  -6   1  14   17.21    7.52
   6   1 -14   24.19    6.81
   5  -1 -14  654.11   21.35
  -5  -1  14  688.41   24.50
   5   1 -14  671.77   23.30
   4  -1 -14  312.12   12.36
  -4  -1  14  316.94   15.83
  -4   1  14  324.65   14.25
   4   1 -14  301.68   14.43
  -3  -1  14  114.60    9.40
   3  -1 -14   94.79    6.97
   3  -1 -14  109.06    8.06
  -3   1  14  123.01   10.15
   3   1 -14  114.43    8.84
   2  -1 -14   50.21    4.89
  -2  -1  14   57.67    8.40
   2  -1 -14   55.72    5.60
   2   1 -14   65.21    7.25
  -2   1  14   64.30    7.34
   1  -1 -14  216.32   10.28
  -1  -1  14  220.43   13.49
  -1   1  14  243.18   12.35
   1   1 -14  209.21   11.94
   0  -1 -14  222.76   10.59
   0  -1  14  217.48   13.65
   0   1 -14  223.10   12.07
   0   1  14  237.17   12.27
   1  -1  14  767.16   26.19
  -1  -1 -14  767.71   24.28
   1   1  14  762.04   24.87
  -1   1 -14  762.29   25.63
   2  -1  14    8.07    7.64
  -2   1 -14   -2.12    5.34
   2   1  14    2.42    6.55
   3  -1  14   24.07    8.14
   3   1  14   11.98    7.18
  -3   1 -14   13.53    6.02
   4  -1  14  616.13   23.77
  -4   1 -14  624.23   22.69
   4   1  14  633.42   22.54
   5  -1  14  206.88   15.59
  -5   1 -14  217.38   13.42
   5   1  14  235.43   14.61
   6  -1  14  164.04   12.68
   6   1  14  168.38   14.06
  -6   1 -14  147.50   12.48
   7  -1  14   20.76    9.73
  -7   1 -14   29.40    7.69
   7   1  14   25.76    9.75
 -15  -2  14  132.88   15.82
  15   2 -14  136.85   13.47
 -14  -2  14   23.80   12.97
  14   2 -14   16.65   10.96
 -13  -2  14   34.85   12.48
  13   2 -14   28.34   10.62
 -12  -2  14  224.35   19.32
  12   2 -14  228.31   17.68
 -11  -2  14  220.41   19.09
  11   2 -14  269.11   18.01
 -10  -2  14  105.47   13.27
  10   2 -14  106.17   11.46
  -9  -2  14  130.91   13.27
   9   2 -14  141.06   12.30
  -8  -2  14   26.67   10.63
   8   2 -14   37.37    9.23
  -7  -2  14  599.77   24.55
   7   2 -14  588.65   23.32
  -6  -2  14    9.60    9.41
   6   2 -14   19.90    7.98
  -5  -2  14   46.52    9.94
   5   2 -14   50.90    8.59
  -4  -2  14   43.97    9.56
   4   2 -14   47.32    8.47
  -3  -2  14 1131.75   36.60
   3   2 -14 1117.23   36.05
  -2  -2  14   34.21    9.12
   2   2 -14   39.00    8.06
  -1  -2  14  690.61   25.80
   1   2 -14  694.83   25.08
   0  -2  14   13.53    8.63
   0   2 -14   20.07    7.39
   1  -2  14  152.57   11.93
  -1   2 -14  148.24   11.17
   1   2  14  138.99   11.35
   2  -2  14   41.77    9.55
   2   2  14   32.92    7.32
  -2   2 -14   42.79    8.25
   3  -2  14  740.75   27.51
  -3   2 -14  755.41   26.84
   3   2  14  745.20   25.05
   4  -2  14   -2.06    8.93
   4   2  14   -9.25    7.39
  -4   2 -14   -0.71    6.81
   5  -2  14   65.07   10.82
   5   2  14   53.47    8.90
   5   2  14   55.10    9.02
  -5   2 -14   58.31    8.88
   6  -2  14   95.27   11.75
   6   2  14   82.07   10.13
  -6   2 -14   98.33   10.60
 -12  -3  14   12.03   12.86
  12   3 -14    6.01   11.59
 -11  -3  14   65.09   13.69
  11   3 -14   91.81   12.76
 -10  -3  14    2.24   11.96
  10   3 -14   19.61   11.42
  -9  -3  14   54.53   12.61
   9   3 -14   45.49   12.00
  -8  -3  14   79.03   13.13
   8   3 -14   95.85   12.59
  -7  -3  14   63.50   12.50
   7   3 -14   66.78   11.43
  -6  -3  14   73.45   12.66
   6   3 -14   93.76   11.50
  -5  -3  14  579.36   25.23
   5   3 -14  567.15   24.40
  -4  -3  14  119.02   13.13
   4   3 -14  144.93   12.52
  -3  -3  14  110.17   12.75
   3   3 -14  112.41   11.78
  -2  -3  14    9.06   10.48
   2   3 -14    7.71    9.07
  -1  -3  14  327.53   19.48
   1   3 -14  343.29   19.16
   0  -3  14  114.73   12.62
   0   3 -14  106.43   12.15
   1  -3  14  485.76   23.24
   1   3  14  481.57   20.31
  -1   3 -14  480.15   22.77
   2  -3  14   -7.36   10.02
  -2   3 -14   -7.97    8.91
   2   3  14    0.17    8.31
   3  -3  14    5.72   10.52
  -3   3 -14   15.59    9.91
   3   3  14   13.73    9.03
 -16   0  15   13.42   11.78
 -15   0  15   83.65   12.99
 -14   0  15   13.98   10.93
 -13   0  15  111.49   12.85
 -12   0  15    2.18    9.77
  12   0 -15    5.52    7.67
 -11   0  15  104.98   11.72
  11   0 -15   89.59    8.86
 -10   0  15   -2.64    9.24
  10   0 -15   10.01    6.63
   9   0 -15  223.42   12.99
  -9   0  15  208.53   15.53
  -8   0  15   -8.50    8.77
   8   0 -15    0.06    5.92
  -7   0  15  718.81   25.52
   7   0 -15  707.07   24.07
   6   0 -15   -0.48    5.72
  -6   0  15   -8.65    7.87
   5   0 -15   19.01    5.98
  -5   0  15   19.02    8.07
  -4   0  15   -4.50    7.25
   4   0 -15    5.79    5.44
   3   0 -15  327.97   14.20
  -3   0  15  317.06   15.75
  -2   0  15    1.66    7.19
   2   0 -15    2.40    5.13
  -1   0  15  745.80   25.55
   1   0 -15  774.98   24.96
   0   0  15   -0.53    7.06
   0   0 -15   -1.04    5.07
  -1   0 -15   92.33    7.93
   1   0  15   86.04    9.16
  -2   0 -15    2.69    5.50
   2   0  15   -9.83    7.53
  -3   0 -15  150.94   11.17
   3   0  15  164.29   11.61
   4   0  15   -7.63    8.17
  -4   0 -15    1.74    6.10
  -5   0 -15  130.19   10.94
   5   0  15  145.41   12.07
   6   0  15   -2.82    8.96
 -16  -1  15   42.17   13.38
 -16   1  15   47.64   13.53
  16   1 -15   51.25   10.90
 -15  -1  15    4.39   12.70
  15   1 -15    7.91    9.97
 -15   1  15   24.86   12.23
 -14  -1  15  248.92   19.94
 -14   1  15  243.15   19.35
  14   1 -15  233.16   17.52
 -13  -1  15   13.91   11.66
 -13   1  15   46.39   11.04
  13   1 -15   27.40    9.97
 -12  -1  15   18.27   11.49
  12   1 -15   39.44    9.23
 -12   1  15   44.10   10.63
 -11  -1  15   81.48   12.53
 -11   1  15   95.49   10.83
  11   1 -15   97.58   10.29
 -10  -1  15  172.75   14.02
 -10   1  15  182.95   14.68
  10   1 -15  185.65   14.56
  -9  -1  15  178.40   13.65
  -9   1  15  182.91   13.87
   9   1 -15  173.86   14.37
  -8  -1  15   50.04   10.48
  -8   1  15   76.47    9.59
   8   1 -15   66.83    8.89
  -7  -1  15   35.51    9.81
  -7   1  15   38.60    8.32
   7   1 -15   19.45    7.53
  -6  -1  15   -0.57    8.83
  -6   1  15   12.66    7.80
   6   1 -15    5.25    6.96
   5  -1 -15  294.09   12.96
  -5  -1  15  263.47   16.64
  -5   1  15  297.25   14.85
   5   1 -15  296.44   14.89
   4  -1 -15   40.71    5.84
  -4  -1  15   30.55    8.72
   4   1 -15   48.10    7.61
  -4   1  15   47.75    7.64
  -3  -1  15  421.89   19.03
   3   1 -15  427.85   17.81
  -3   1  15  424.69   17.16
  -2  -1  15   74.00    9.48
  -2   1  15   73.79    8.17
   2   1 -15   67.94    7.85
  -1  -1  15   -0.29    7.81
  -1   1  15    1.82    7.07
   1   1 -15   -1.51    5.76
   0  -1  15   25.58    8.48
   0   1 -15   35.06    6.97
   0   1  15   44.99    7.62
   1  -1  15  370.80   17.67
   1   1  15  397.54   16.25
  -1   1 -15  348.63   16.25
   2  -1  15   40.06    9.30
  -2   1 -15   45.90    7.52
   2   1  15   42.25    8.24
   3  -1  15  305.96   17.29
   3   1  15  327.05   15.61
  -3   1 -15  305.79   15.44
   4  -1  15   92.61   10.79
  -4   1 -15   81.63    8.84
   4   1  15   85.87    9.95
   5  -1  15   -2.25    9.17
   5   1  15    2.25    8.67
  -5   1 -15    6.91    6.76
   6  -1  15    0.44    9.71
  -6   1 -15    8.86    7.11
   6   1  15   -8.66    9.19
 -14  -2  15    7.24   13.11
  14   2 -15   28.92   11.38
 -13  -2  15   40.76   13.08
  13   2 -15   42.84   10.95
 -12  -2  15  269.13   21.20
  12   2 -15  361.96   20.12
 -11  -2  15   -1.35   11.85
  11   2 -15   11.69   10.14
 -10  -2  15  159.47   14.72
  10   2 -15  165.91   13.31
  -9  -2  15    1.40   11.23
   9   2 -15   -0.41    9.46
  -8  -2  15   18.04   10.79
   8   2 -15   16.95    9.23
  -7  -2  15    7.74   10.29
   7   2 -15    9.70    8.44
  -6  -2  15  103.93   11.95
   6   2 -15   78.22   10.29
  -5  -2  15  170.11   13.60
   5   2 -15  171.13   12.25
  -4  -2  15    9.39    9.34
   4   2 -15   15.05    8.02
  -3  -2  15   18.81    9.59
   3   2 -15   17.47    7.89
  -2  -2  15    6.50    9.06
   2   2 -15   -5.10    7.25
  -1  -2  15  282.13   17.59
   1   2 -15  295.77   16.35
   0  -2  15   35.92    9.80
   0   2 -15   39.46    8.51
   1  -2  15  371.55   18.93
  -1   2 -15  334.72   17.54
   2  -2  15   79.88   11.19
   2   2  15   81.34    8.61
  -2   2 -15  108.18   10.51
   3  -2  15    9.03    9.77
  -3   2 -15   19.06    8.03
   3   2  15    9.41    7.50
   4  -2  15   -1.29    9.77
  -4   2 -15    9.79    7.67
  11   3 -15  100.63   13.71
 -10  -3  15   10.15   12.36
  10   3 -15   29.39   12.03
  -9  -3  15   19.94   12.36
   9   3 -15   31.34   11.75
  -8  -3  15  132.38   14.80
   8   3 -15  144.86   14.03
  -7  -3  15   98.91   13.60
   7   3 -15  104.74   12.89
  -6  -3  15  116.90   13.86
   6   3 -15  102.51   12.19
  -5  -3  15   64.31   12.41
   5   3 -15   52.00   10.85
  -4  -3  15   -3.45   10.76
   4   3 -15   12.00    9.84
  -3  -3  15   80.13   12.31
   3   3 -15   83.44   11.46
  -2  -3  15   16.93   11.32
   2   3 -15   37.52   10.20
  -1  -3  15  276.07   19.60
   1   3 -15  298.29   18.75
   0  -3  15   -7.79   10.61
   0   3 -15    5.62    9.74
   1  -3  15   25.38   11.49
  -1   3 -15   61.18   11.14
 -15   0  16   14.28   11.72
 -14   0  16    6.47   11.24
 -13   0  16    2.05   11.18
 -12   0  16  110.44   12.31
  11   0 -16    4.27    7.74
 -11   0  16   -5.24    9.89
 -10   0  16   52.21   10.96
  10   0 -16   62.36    8.35
  -9   0  16    4.68    9.44
   9   0 -16    3.11    7.02
  -8   0  16  350.56   18.94
   8   0 -16  385.19   16.31
   7   0 -16   17.57    6.34
  -7   0  16   -2.30    8.73
  -6   0  16 1153.68   36.73
   6   0 -16 1161.65   35.84
  -5   0  16    3.13    8.29
   5   0 -16    3.15    5.91
   4   0 -16   15.78    6.36
  -4   0  16    3.98    8.06
   3   0 -16    1.67    5.97
  -3   0  16    6.69    7.68
  -2   0  16 1176.14   36.53
   2   0 -16 1149.76   35.84
   1   0 -16    3.93    5.59
  -1   0  16   -0.54    7.92
   0   0  16  407.10   18.31
   0   0 -16  420.56   16.86
  -1   0 -16    2.66    5.78
   1   0  16   -2.75    8.39
   2   0  16   86.00   10.23
  -2   0 -16   86.20    8.67
   3   0  16    3.41    8.89
   4   0  16  227.58   15.98
   5   0  16   -6.48    9.47
 -15  -1  16    0.37   12.95
 -15   1  16   27.10   12.52
  15   1 -16   25.74   11.26
 -14  -1  16   23.96   12.51
  14   1 -16   29.73   10.62
 -14   1  16   30.73   11.89
 -13  -1  16  149.38   14.60
  13   1 -16  143.90   12.04
 -13   1  16  166.08   13.60
 -12  -1  16   35.83   12.15
  12   1 -16   21.57    9.48
 -12   1  16   53.00   10.94
 -11  -1  16  109.84   13.17
  11   1 -16   92.58   10.73
 -11   1  16  117.91   11.52
 -10  -1  16  320.61   20.07
 -10   1  16  375.84   18.19
  10   1 -16  355.50   18.41
  -9  -1  16   56.23   11.75
   9   1 -16   64.74    9.44
  -9   1  16   73.04    9.92
  -8  -1  16  197.34   16.99
   8   1 -16  226.65   14.94
  -7  -1  16  117.38   12.46
  -7   1  16  154.75   10.95
   7   1 -16  152.63   11.12
  -6  -1  16  251.70   17.36
   6   1 -16  250.97   15.31
  -5  -1  16   -2.88    9.03
  -5   1  16    5.35    7.86
   5   1 -16    5.92    7.16
  -4  -1  16  928.24   31.88
   4   1 -16  951.61   31.14
  -4   1  16  933.09   30.16
  -3  -1  16   94.95   10.63
   3   1 -16   77.58    8.78
  -3   1  16   87.52    8.99
  -2  -1  16   80.44   10.34
   2   1 -16   77.95    8.68
  -2   1  16   71.73    8.93
  -1  -1  16   17.87    9.06
  -1   1  16   14.70    7.88
   1   1 -16   -2.39    6.40
   0  -1  16  347.74   17.71
   0   1  16  364.48   16.57
   0   1 -16  338.25   16.38
   1  -1  16  171.50   12.75
  -1   1 -16  145.69   12.03
   1   1  16  142.29   10.85
   2  -1  16  188.00   15.26
  -2   1 -16  172.23   13.19
   2   1  16  170.98   13.83
   3  -1  16   -5.21    9.42
   3   1  16   -4.80    8.60
  -3   1 -16   -9.65    6.24
   4  -1  16    5.09    9.70
  -4   1 -16    5.39    7.02
   4   1  16    8.65    8.80
   5  -1  16  174.44   14.13
   5   1  16  197.46   15.53
  -5   1 -16  186.10   13.91
 -13  -2  16   45.30   13.99
  13   2 -16   39.57   11.23
 -12  -2  16  107.61   14.62
  12   2 -16  109.58   12.52
 -11  -2  16  201.38   16.70
  11   2 -16  197.00   14.75
 -10  -2  16   31.68   12.44
  10   2 -16   63.34   11.55
  -9  -2  16  177.96   15.76
   9   2 -16  205.80   17.56
  -8  -2  16  346.06   21.67
   8   2 -16  404.35   20.26
  -7  -2  16   28.09   11.52
   7   2 -16   49.65    9.85
  -6  -2  16  112.63   13.06
   6   2 -16  111.11   11.30
  -5  -2  16   71.51   11.80
   5   2 -16   71.32   10.09
  -4  -2  16  115.57   12.54
   4   2 -16  129.79   11.58
  -3  -2  16   31.84   10.71
   3   2 -16   58.58    9.51
  -2  -2  16  183.60   13.99
   2   2 -16  192.71   15.52
  -1  -2  16   58.94   11.10
   1   2 -16   54.09    9.33
   0  -2  16    8.83   10.16
   0   2 -16    0.43    7.77
   1  -2  16   79.30   11.55
  -1   2 -16   70.41    9.99
   2  -2  16   32.84   10.72
  -2   2 -16   29.78    8.78
   3  -2  16  355.88   20.42
  -3   2 -16  363.50   18.67
   9   3 -16   84.22   13.34
  -8  -3  16   28.08   12.75
   8   3 -16   29.23   11.70
  -7  -3  16    8.44   11.97
   7   3 -16    5.62   10.45
  -6  -3  16  207.44   16.55
   6   3 -16  173.92   14.50
  -5  -3  16   16.27   12.14
   5   3 -16   42.37   11.04
  -4  -3  16   -9.64   11.17
   4   3 -16   26.29   10.51
  -3  -3  16   20.52   11.69
   3   3 -16   17.50   10.06
  -2  -3  16   77.21   13.08
   2   3 -16   86.76   12.10
 -15   0  17  786.69   30.44
 -14   0  17    3.65   11.74
 -13   0  17   39.44   11.80
 -12   0  17   15.22   10.63
 -11   0  17  809.72   29.80
 -10   0  17   -2.22   10.21
  -9   0  17  192.77   16.28
  -8   0  17   -3.19    9.91
   7   0 -17  367.51   16.71
  -7   0  17  333.08   18.71
  -6   0  17    5.82    9.00
   6   0 -17   10.69    6.79
  -5   0  17  144.49   11.89
   5   0 -17  176.25   12.00
   4   0 -17   10.92    6.60
  -4   0  17   -5.81    8.57
   3   0 -17  359.81   16.23
  -3   0  17  349.65   17.84
  -2   0  17   16.89    8.66
  -1   0  17  671.20   24.97
   0   0  17   10.48    8.86
   1   0  17  174.72   14.85
   2   0  17    1.33    9.13
   3   0  17 1297.74   41.46
   4   0  17   -0.54    9.74
 -14  -1  17  136.92   15.15
 -14   1  17  140.71   13.79
 -13  -1  17  494.61   25.25
  13   1 -17  592.39   23.98
 -13   1  17  577.49   24.64
 -12  -1  17   68.13   13.21
 -12   1  17   70.62   11.84
  12   1 -17   50.00   10.17
 -11  -1  17  127.32   14.16
 -11   1  17  188.46   16.08
  11   1 -17  123.39   11.88
 -10  -1  17  163.09   14.82
  10   1 -17  195.44   16.28
 -10   1  17  205.46   15.73
  -9  -1  17  229.49   19.13
  -9   1  17  264.94   16.49
   9   1 -17  251.69   16.54
  -8  -1  17  420.84   21.68
  -8   1  17  446.49   19.44
   8   1 -17  426.44   20.08
  -7  -1  17  113.36   12.54
  -7   1  17  102.02   10.66
   7   1 -17   95.07   10.21
  -6  -1  17   23.36   10.33
   6   1 -17    7.35    8.14
  -5  -1  17  162.35   13.25
  -5   1  17  167.05   14.21
   5   1 -17  159.16   13.64
  -4  -1  17  594.77   24.49
   4   1 -17  608.47   23.24
  -4   1  17  595.95   22.58
  -3  -1  17  162.44   12.78
  -3   1  17  177.79   13.93
   3   1 -17  155.17   11.58
  -2  -1  17   56.50   10.32
   2   1 -17   46.18    8.16
  -2   1  17   49.73    8.90
  -1  -1  17  243.63   16.74
   1   1 -17  229.09   14.74
  -1   1  17  256.56   15.56
   0  -1  17  150.60   12.89
   0   1  17  137.30   11.36
   0   1 -17  132.77   10.87
   1  -1  17  542.78   23.40
   1   1  17  581.77   22.14
  -1   1 -17  557.28   22.28
   2  -1  17   92.39   11.69
   2   1  17   84.21   10.85
  -2   1 -17   78.55    9.81
   3  -1  17   -8.19    9.84
   3   1  17   -5.93    9.16
  -3   1 -17   -1.77    7.40
 -12  -2  17  340.95   23.48
  12   2 -17  355.97   21.43
 -11  -2  17    9.24   12.87
  11   2 -17   15.35   11.03
 -10  -2  17  266.08   21.17
  10   2 -17  311.01   20.62
  -9  -2  17   44.95   13.17
   9   2 -17   48.50   11.01
  -8  -2  17  191.98   16.24
   8   2 -17  226.75   17.95
  -7  -2  17   17.46   11.76
   7   2 -17   10.82    9.47
  -6  -2  17  965.77   35.61
   6   2 -17 1026.57   34.89
  -5  -2  17    6.48   10.97
   5   2 -17   -0.67    9.00
  -4  -2  17    6.31   10.82
   4   2 -17   21.40    9.31
  -3  -2  17   24.28   11.13
   3   2 -17   26.08    9.39
  -2  -2  17  445.65   22.83
   2   2 -17  478.61   21.85
  -1  -2  17    7.13   10.74
   1   2 -17   20.22    8.91
   0  -2  17  266.10   19.19
   0   2 -17  230.21   17.07
   1  -2  17    3.00   10.67
  -1   2 -17   -3.77    8.34
 -13   0  18    7.39   11.42
 -12   0  18  197.24   17.35
 -11   0  18   11.50   10.98
 -10   0  18  268.83   18.26
  -9   0  18   -1.73   10.06
  -8   0  18   43.02   11.11
  -7   0  18    9.22   10.05
  -6   0  18  289.26   18.08
  -5   0  18    0.22    9.39
  -4   0  18  183.57   16.00
  -3   0  18   -2.95    8.94
  -2   0  18    4.44    9.17
  -1   0  18    4.85    9.58
   0   0  18   26.24    9.93
   1   0  18   -7.16    9.41
   2   0  18  121.08   12.41
 -13  -1  18  105.02   14.43
 -13   1  18  126.74   13.59
 -12  -1  18   40.45   12.96
 -12   1  18   52.78   11.25
 -11  -1  18    4.62   11.85
 -11   1  18   19.59   10.44
  11   1 -18   15.74   10.76
 -10  -1  18   49.50   12.62
 -10   1  18   67.22   10.58
  10   1 -18   57.67   10.50
  -9  -1  18   22.07   12.12
  -9   1  18   49.76   10.28
   9   1 -18   30.87    9.39
  -8  -1  18  237.93   19.42
   8   1 -18  266.18   17.09
  -8   1  18  284.27   16.71
  -7  -1  18   13.58   11.34
  -7   1  18   12.84    9.40
   7   1 -18   10.57    8.48
  -6  -1  18  106.31   12.97
  -6   1  18   90.79   10.62
   6   1 -18   73.33   10.17
  -5  -1  18   64.99   11.84
  -5   1  18   65.19    9.99
   5   1 -18   71.98    9.70
  -4  -1  18   23.50   10.46
  -4   1  18   33.27    9.25
   4   1 -18   31.39    8.83
  -3  -1  18    3.53   10.05
  -3   1  18   12.97    8.83
   3   1 -18   11.39    8.04
  -2  -1  18  234.28   17.86
  -2   1  18  239.96   16.12
   2   1 -18  246.60   16.03
  -1  -1  18   30.95   10.68
   1   1 -18   41.58    8.84
  -1   1  18   34.09    9.68
   0  -1  18   80.18   12.10
   0   1  18   84.80   10.90
   0   1 -18   83.63    9.96
   1  -1  18   70.50   11.85
   1   1  18   68.79   10.87
  -1   1 -18   80.01   10.07
 -10  -2  18   58.42   14.73
  10   2 -18   72.34   12.43
  -9  -2  18   -0.60   12.87
   9   2 -18   26.41   11.01
  -8  -2  18   78.78   13.92
   8   2 -18   69.31   11.98
  -7  -2  18   23.59   12.62
   7   2 -18   27.34   10.15
  -6  -2  18   11.90   12.07
   6   2 -18   17.33    9.96
  -5  -2  18    6.58   11.87
   5   2 -18   33.37   10.26
  -4  -2  18  343.80   21.86
   4   2 -18  366.44   20.20
  -3  -2  18  108.53   13.59
   3   2 -18  102.65   11.82
  -2  -2  18  115.09   13.76
   2   2 -18   98.99   11.74
 -12   0  19    2.27   10.94
 -11   0  19  394.13   21.66
 -10   0  19   18.77   10.73
  -9   0  19  328.95   19.73
  -8   0  19   11.05   10.97
  -7   0  19  285.77   18.98
  -6   0  19    1.80    9.98
  -5   0  19  681.11   26.83
  -4   0  19   -1.20    9.88
  -3   0  19    0.35    9.64
  -2   0  19   -3.02    9.78
  -1   0  19  143.02   13.08
   0   0  19   -9.91   10.31
 -11  -1  19   13.84   12.27
 -11   1  19   20.65   10.61
 -10  -1  19   14.04   12.17
  -9  -1  19  285.15   21.45
  -9   1  19  320.31   18.55
  -8  -1  19   41.08   12.55
  -8   1  19   51.95   10.24
  -7  -1  19  378.68   22.49
  -7   1  19  411.68   19.97
  -6  -1  19    3.77   11.31
  -5  -1  19   85.62   12.75
  -5   1  19   93.05   11.06
  -4  -1  19   90.71   12.91
  -4   1  19   91.25   11.03
  -3  -1  19  171.42   14.45
  -3   1  19  177.89   12.94
  -2  -1  19   83.61   12.76
  -2   1  19   65.16   10.65
  -1  -1  19    3.87   11.10
  -1   1  19   -9.31    9.77
  -9   0  20   13.65   11.30
  -8   0  20    3.65   11.51
  -7   0  20   17.50   11.31
  -6   0  20  649.31   26.95
  -5   0  20    8.04   10.73
  -4   0  20   22.10   10.94
   0   0   0    0.00    0.00
;
_shelx_hkl_checksum              65861
_shelx_res_file
;
TITL II               P 21/N       R   0.03
    shelx.res
    created by SHELXL-2018/3 at 13:18:00 on 07-Jul-2020
CELL  0.71073  14.3484   3.9955  15.6975   90.000  110.519   90.000
ZERR     4.00   0.0011   0.0003   0.0012    0.000    0.002    0.000
LATT   1
SYMM  1/2 - X, 1/2 + Y, 1/2 - Z
SFAC  C    H    BR
UNIT  28 20 12
MERG   2
OMIT    -1   0   1
EQIV $1 -X+1, -Y+2, -Z+2
HTAB C3 BR2_$1
HTAB C3 Br2_$1
FMAP   2
PLAN   20
SIZE     0.120   0.210   0.340
ACTA
BOND   $H
CONF
L.S.   9
TEMP  -123.00
WGHT    0.015400    1.177600
EXTI    0.000620
FVAR       0.34931
BR1   3    0.687011    1.187617    0.844709    11.00000    0.01425    0.02432 =
         0.02664    0.00205    0.00050   -0.00447
BR2   3    0.360766    0.605221    0.909548    11.00000    0.02155    0.02461 =
         0.01674    0.00230    0.00871   -0.00194
BR3   3    0.352132    0.686979    0.550228    11.00000    0.02070    0.02729 =
         0.01272   -0.00326    0.00346   -0.00059
C1    1    0.515565    0.930557    0.702949    11.00000    0.01489    0.01302 =
         0.01757    0.00279    0.00579    0.00342
C2    1    0.559213    0.982304    0.796530    11.00000    0.01394    0.01311 =
         0.01905    0.00235    0.00164   -0.00094
C3    1    0.515848    0.891968    0.858828    11.00000    0.01765    0.01326 =
         0.01460   -0.00264   -0.00020    0.00030
AFIX  43
H3    2    0.548214    0.934507    0.921902    11.00000   -1.20000
AFIX   0
C4    1    0.423425    0.736913    0.826590    11.00000    0.01658    0.01531 =
         0.01611    0.00073    0.00809    0.00332
C5    1    0.375547    0.679011    0.735121    11.00000    0.01231    0.01478 =
         0.01627   -0.00130    0.00389   -0.00153
AFIX  43
H5    2    0.312062    0.574516    0.713540    11.00000   -1.20000
AFIX   0
C6    1    0.421742    0.775948    0.675650    11.00000    0.01732    0.01341 =
         0.01330   -0.00408    0.00173    0.00302
C7    1    0.563786    1.028035    0.635711    11.00000    0.01625    0.02894 =
         0.02129    0.00422    0.00739    0.00228
AFIX 137
H7A   2    0.576650    0.826805    0.605878    11.00000   -1.50000
H7B   2    0.626764    1.142988    0.667500    11.00000   -1.50000
H7C   2    0.519404    1.177907    0.589887    11.00000   -1.50000
AFIX   0
HKLF 4
REM  II               P 21/N       R   0.03
REM wR2 = 0.0489, GooF = S = 1.076, Restrained GooF = 1.076 for all data
REM R1 = 0.0250 for 1657 Fo > 4sig(Fo) and 0.0337 for all 1928 data
REM 93 parameters refined using 0 restraints
END
WGHT      0.0156      1.1626
REM Highest difference peak  0.704,  deepest hole -0.676,  1-sigma level  0.122
Q1    1   0.3375  0.6075  0.9572  11.00000  0.05    0.70
Q2    1   0.3813  0.6229  0.8607  11.00000  0.05    0.62
Q3    1   0.3820  0.4318  0.9549  11.00000  0.05    0.55
Q4    1   0.3021  0.8510  0.9049  11.00000  0.05    0.54
Q5    1   0.3648  0.7394  0.4972  11.00000  0.05    0.49
Q6    1   0.6608  1.3600  0.7859  11.00000  0.05    0.48
Q7    1   0.3313  0.7203  0.6048  11.00000  0.05    0.47
Q8    1   0.7021  1.3417  0.8902  11.00000  0.05    0.47
Q9    1   0.3384  0.4279  0.8672  11.00000  0.05    0.46
Q10   1   0.3710  0.7641  0.9660  11.00000  0.05    0.44
Q11   1   0.5766  0.7515  1.0040  11.00000  0.05    0.43
Q12   1   0.6672  1.1860  0.8962  11.00000  0.05    0.43
Q13   1   0.7186  1.1758  0.7989  11.00000  0.05    0.43
Q14   1   0.4018  0.9396  0.5577  11.00000  0.05    0.42
Q15   1   0.4025  0.4738  0.5431  11.00000  0.05    0.42
Q16   1   0.5401  1.0095  0.6726  11.00000  0.05    0.42
Q17   1   0.7387  0.9734  0.8417  11.00000  0.05    0.40
Q18   1   0.3366  0.5525  0.5040  11.00000  0.05    0.40
Q19   1   0.6157  0.7579  0.5210  11.00000  0.05    0.39
Q20   1   0.3523  0.7929  0.8804  11.00000  0.05    0.39
;
_shelx_res_checksum              33330
loop_
_space_group_symop_operation_xyz
'x, y, z'
'-x+1/2, y+1/2, -z+1/2'
'-x, -y, -z'
'x-1/2, -y-1/2, z-1/2'
loop_
_atom_site_type_symbol
_atom_site_label
_atom_site_fract_x
_atom_site_fract_y
_atom_site_fract_z
_atom_site_U_iso_or_equiv
_atom_site_adp_type
_atom_site_calc_flag
_atom_site_occupancy
_atom_site_disorder_assembly
_atom_site_disorder_group
Br Br1 0.68701(2) 1.18762(9) 0.84471(2) 0.02351(10) Uani d 1 . .
Br Br2 0.36077(2) 0.60522(9) 0.90955(2) 0.02044(10) Uani d 1 . .
Br Br3 0.35213(2) 0.68698(9) 0.55023(2) 0.02088(10) Uani d 1 . .
C C1 0.5156(2) 0.9306(8) 0.7029(2) 0.0151(7) Uani d 1 . .
C C2 0.5592(2) 0.9823(8) 0.7965(2) 0.0165(7) Uani d 1 . .
C C3 0.5158(2) 0.8920(8) 0.8588(2) 0.0167(7) Uani d 1 . .
H H3 0.548214 0.934507 0.921902 0.020 Uiso calc 1 . .
C C4 0.4234(2) 0.7369(8) 0.8266(2) 0.0154(7) Uani d 1 . .
C C5 0.3755(2) 0.6790(8) 0.7351(2) 0.0148(7) Uani d 1 . .
H H5 0.312062 0.574516 0.713540 0.018 Uiso calc 1 . .
C C6 0.4217(2) 0.7759(8) 0.6756(2) 0.0156(7) Uani d 1 . .
C C7 0.5638(2) 1.0280(9) 0.6357(2) 0.0219(8) Uani d 1 . .
H H7A 0.576650 0.826805 0.605878 0.033 Uiso calc 1 . .
H H7B 0.626764 1.142988 0.667500 0.033 Uiso calc 1 . .
H H7C 0.519404 1.177907 0.589887 0.033 Uiso calc 1 . .
loop_
_atom_site_aniso_label
_atom_site_aniso_U_11
_atom_site_aniso_U_22
_atom_site_aniso_U_33
_atom_site_aniso_U_12
_atom_site_aniso_U_13
_atom_site_aniso_U_23
Br1 0.01425(15) 0.0243(2) 0.02664(18) -0.00447(13) 0.00050(13) 0.00205(15)
Br2 0.02155(16) 0.0246(2) 0.01674(16) -0.00194(14) 0.00871(12) 0.00230(14)
Br3 0.02070(16) 0.0273(2) 0.01272(15) -0.00059(14) 0.00346(12) -0.00326(14)
C1 0.0149(14) 0.0130(17) 0.0176(15) 0.0034(13) 0.0058(12) 0.0028(13)
C2 0.0139(14) 0.0131(17) 0.0191(15) -0.0009(12) 0.0016(12) 0.0024(13)
C3 0.0176(15) 0.0133(17) 0.0146(15) 0.0003(13) -0.0002(12) -0.0026(13)
C4 0.0166(14) 0.0153(18) 0.0161(15) 0.0033(13) 0.0081(12) 0.0007(13)
C5 0.0123(14) 0.0148(17) 0.0163(15) -0.0015(12) 0.0039(12) -0.0013(13)
C6 0.0173(14) 0.0134(17) 0.0133(14) 0.0030(13) 0.0017(12) -0.0041(13)
C7 0.0162(15) 0.029(2) 0.0213(17) 0.0023(14) 0.0074(13) 0.0042(15)
loop_
_atom_type_symbol
_atom_type_description
_atom_type_scat_dispersion_real
_atom_type_scat_dispersion_imag
_atom_type_scat_source
C C 0.0033 0.0016 'International Tables Vol C Tables 4.2.6.8 and 6.1.1.4'
H H 0.0000 0.0000 'International Tables Vol C Tables 4.2.6.8 and 6.1.1.4'
Br Br -0.2901 2.4595 'International Tables Vol C Tables 4.2.6.8 and 6.1.1.4'
loop_
_geom_angle_atom_site_label_1
_geom_angle_atom_site_label_2
_geom_angle_atom_site_label_3
_geom_angle_site_symmetry_1
_geom_angle_site_symmetry_3
_geom_angle
_geom_angle_publ_flag
C2 C1 C6 . . 114.5(3) ?
C2 C1 C7 . . 123.6(3) ?
C6 C1 C7 . . 121.9(3) ?
C3 C2 C1 . . 124.1(3) ?
C3 C2 Br1 . . 116.2(2) ?
C1 C2 Br1 . . 119.7(2) ?
C2 C3 C4 . . 118.0(3) ?
C2 C3 H3 . . 121.0 ?
C4 C3 H3 . . 121.0 ?
C5 C4 C3 . . 121.2(3) ?
C5 C4 Br2 . . 119.1(2) ?
C3 C4 Br2 . . 119.7(2) ?
C6 C5 C4 . . 118.5(3) ?
C6 C5 H5 . . 120.8 ?
C4 C5 H5 . . 120.7 ?
C5 C6 C1 . . 123.7(3) ?
C5 C6 Br3 . . 116.5(2) ?
C1 C6 Br3 . . 119.8(2) ?
C1 C7 H7A . . 109.5 ?
C1 C7 H7B . . 109.5 ?
H7A C7 H7B . . 109.5 ?
C1 C7 H7C . . 109.5 ?
H7A C7 H7C . . 109.5 ?
H7B C7 H7C . . 109.5 ?
loop_
_geom_bond_atom_site_label_1
_geom_bond_atom_site_label_2
_geom_bond_site_symmetry_2
_geom_bond_distance
_geom_bond_publ_flag
Br1 C2 . 1.907(3) ?
Br2 C4 . 1.898(3) ?
Br3 C6 . 1.903(3) ?
C1 C2 . 1.396(4) ?
C1 C6 . 1.405(4) ?
C1 C7 . 1.502(4) ?
C2 C3 . 1.379(5) ?
C3 C4 . 1.389(4) ?
C3 H3 . 0.9500 ?
C4 C5 . 1.377(4) ?
C5 C6 . 1.376(5) ?
C5 H5 . 0.9500 ?
C7 H7A . 0.9800 ?
C7 H7B . 0.9800 ?
C7 H7C . 0.9800 ?
loop_
_geom_torsion_atom_site_label_1
_geom_torsion_atom_site_label_2
_geom_torsion_atom_site_label_3
_geom_torsion_atom_site_label_4
_geom_torsion_site_symmetry_1
_geom_torsion_site_symmetry_2
_geom_torsion_site_symmetry_3
_geom_torsion_site_symmetry_4
_geom_torsion
_geom_torsion_publ_flag
C6 C1 C2 C3 . . . . 0.0(5) ?
C7 C1 C2 C3 . . . . -179.6(3) ?
C6 C1 C2 Br1 . . . . 179.7(2) ?
C7 C1 C2 Br1 . . . . 0.1(5) ?
C1 C2 C3 C4 . . . . 0.7(5) ?
Br1 C2 C3 C4 . . . . -179.0(2) ?
C2 C3 C4 C5 . . . . -0.9(5) ?
C2 C3 C4 Br2 . . . . 179.7(2) ?
C3 C4 C5 C6 . . . . 0.5(5) ?
Br2 C4 C5 C6 . . . . 179.9(2) ?
C4 C5 C6 C1 . . . . 0.2(5) ?
C4 C5 C6 Br3 . . . . 179.7(2) ?
C2 C1 C6 C5 . . . . -0.5(5) ?
C7 C1 C6 C5 . . . . 179.2(3) ?
C2 C1 C6 Br3 . . . . -179.9(2) ?
C7 C1 C6 Br3 . . . . -0.3(4) ?

_cod_database_fobs_code 2243520
