#------------------------------------------------------------------------------
#$Date: 2020-08-26 07:59:32 +0300 (Wed, 26 Aug 2020) $
#$Revision: 255657 $
#$URL: file:///home/coder/svn-repositories/cod/cif/2/24/35/2243554.cif $
#------------------------------------------------------------------------------
#
# This file is available in the Crystallography Open Database (COD),
# http://www.crystallography.net/. The original data for this entry
# were provided by IUCr Journals, http://journals.iucr.org/.
#
# The file may be used within the scientific community so long as
# proper attribution is given to the journal article from which the
# data were obtained.
#
data_2243554
loop_
_publ_author_name
'Khmiyas, Jamal'
'Assani, Abderrazzak'
'Saadi, Mohamed'
'El Ammari, Lahcen'
_publ_section_title
;
 Synthesis, crystal structure determination of a novel phosphate
 Ag~1.64~Zn~1.64~Fe~1.36~(PO~4~)~3~ with an alluaudite-like structure
;
_journal_coeditor_code           PK2642
_journal_issue                   9
_journal_name_full               'Acta Crystallographica Section E'
_journal_page_first              1491
_journal_page_last               1495
_journal_paper_doi               10.1107/S2056989020011408
_journal_volume                  76
_journal_year                    2020
_chemical_formula_iupac          'Ag1.64 Zn1.64 Fe1.36 (P O4)3'
_chemical_formula_moiety         'Ag1.64 Fe1.36 O12 P3 Zn1.64'
_chemical_formula_structural     'Ag1.64 Fe1.36 Zn1.64 (P O4)3'
_chemical_formula_sum            'Ag1.64 Fe1.36 O12 P3 Zn1.64'
_chemical_formula_weight         644.97
_chemical_name_systematic
;
Silver zinc iron phosphate (1.64/1.64/1.36/3)
;
_space_group_crystal_system      monoclinic
_space_group_IT_number           15
_space_group_name_Hall           '-C 2yc'
_space_group_name_H-M_alt        'C 1 2/c 1'
_audit_creation_method           SHELXL-2018/3
_cell_angle_alpha                90
_cell_angle_beta                 113.431(2)
_cell_angle_gamma                90
_cell_formula_units_Z            4
_cell_length_a                   11.8151(5)
_cell_length_b                   12.6367(6)
_cell_length_c                   6.4056(3)
_cell_measurement_reflns_used    1924
_cell_measurement_temperature    296(2)
_cell_measurement_theta_max      34.967
_cell_measurement_theta_min      2.475
_cell_volume                     877.52(7)
_computing_cell_refinement
;
SAINT (Bruker, 2016)
;
_computing_data_collection
;
APEX3 (Bruker, 2016)
;
_computing_data_reduction
;
SAINT (Bruker, 2016)
;
_computing_molecular_graphics
;
Ortep-3 for Windows (Farrugia, 2012), DIAMOND (Brandenburg,
2006)
;
_computing_publication_material
;
publCIF (Westrip, 2010)
;
_computing_structure_refinement
;
<i>SHELXL2016/6</i> (Sheldrick, 2015b)
;
_computing_structure_solution
;
<i>SHELXT2014/5</i> (Sheldrick, 2015a)
;
_diffrn_ambient_temperature      296(2)
_diffrn_detector                 'PHOTON100 CMOS area-detector'
_diffrn_detector_area_resol_mean 10.4167
_diffrn_measured_fraction_theta_full 1.000
_diffrn_measured_fraction_theta_max 1.000
_diffrn_measurement_device_type  'Bruker D8 VENTURE Super DUO'
_diffrn_measurement_method       '\f and \w scans'
_diffrn_radiation_monochromator  'HELIOS mirror optics'
_diffrn_radiation_source         'INCOATEC I\mS micro-focus source'
_diffrn_radiation_type           MoK\a
_diffrn_radiation_wavelength     0.71073
_diffrn_reflns_av_R_equivalents  0.0596
_diffrn_reflns_av_unetI/netI     0.0285
_diffrn_reflns_limit_h_max       19
_diffrn_reflns_limit_h_min       -19
_diffrn_reflns_limit_k_max       20
_diffrn_reflns_limit_k_min       -20
_diffrn_reflns_limit_l_max       10
_diffrn_reflns_limit_l_min       -10
_diffrn_reflns_number            25488
_diffrn_reflns_theta_full        25.242
_diffrn_reflns_theta_max         34.967
_diffrn_reflns_theta_min         2.475
_exptl_absorpt_coefficient_mu    10.841
_exptl_absorpt_correction_T_max  0.7464
_exptl_absorpt_correction_T_min  0.6379
_exptl_absorpt_correction_type   multi-scan
_exptl_absorpt_process_details
;
(SADABS; Krause <i>et al.</i>, 2015)
;
_exptl_crystal_colour            yellow
_exptl_crystal_density_diffrn    4.882
_exptl_crystal_description       parallelepiped
_exptl_crystal_F_000             1211
_exptl_crystal_size_max          0.36
_exptl_crystal_size_mid          0.27
_exptl_crystal_size_min          0.20
_refine_diff_density_max         1.411
_refine_diff_density_min         -0.898
_refine_ls_extinction_coef       0.00124(7)
_refine_ls_extinction_expression Fc^*^=kFc[1+0.001xFc^2^\l^3^/sin(2\q)]^-1/4^
_refine_ls_extinction_method
;
SHELXL-2018/3 (Sheldrick 2018)
;
_refine_ls_goodness_of_fit_ref   1.074
_refine_ls_hydrogen_treatment    undef
_refine_ls_matrix_type           full
_refine_ls_number_parameters     95
_refine_ls_number_reflns         1924
_refine_ls_number_restraints     0
_refine_ls_restrained_S_all      1.074
_refine_ls_R_factor_all          0.0387
_refine_ls_R_factor_gt           0.0237
_refine_ls_shift/su_max          0.001
_refine_ls_shift/su_mean         0.000
_refine_ls_structure_factor_coef Fsqd
_refine_ls_weighting_details
'w=1/[\s^2^(Fo^2^)+(0.0142P)^2^+2.4670P] where P=(Fo^2^+2Fc^2^)/3'
_refine_ls_weighting_scheme      calc
_refine_ls_wR_factor_gt          0.0414
_refine_ls_wR_factor_ref         0.0443
_reflns_number_gt                1585
_reflns_number_total             1924
_reflns_threshold_expression     'I > 2\s(I)'
_cod_data_source_file            pk2642sup1.cif
_cod_data_source_block           I
_cod_original_sg_symbol_H-M      'C 2/c'
_cod_database_code               2243554
_shelx_space_group_comment
;
The symmetry employed for this shelxl refinement is uniquely defined
by the following loop, which should always be used as a source of
symmetry information in preference to the above space-group names.
They are only intended as comments.
;
_shelx_hkl_file
;
  -2   0   0  344.97   12.70
  -2   0   0  350.66   13.10
  -2   0   0  348.97   13.50
  -2   0   0  348.57   12.90
  -2   0   0  353.66   13.10
   2   0   0  354.76   12.80
   2   0   0  353.46   13.10
   2   0   0  335.97   13.50
   2   0   0  347.77   12.90
   2   0   0  345.17   13.10
  -4   0   0 7797.22  263.17
  -4   0   0 7789.32  263.57
  -4   0   0 7874.11  264.27
  -4   0   0 8019.60  263.57
  -4   0   0 7518.95  265.27
  -4   0   0 7360.36  262.67
   4   0   0 7741.93  263.47
   4   0   0 8337.07  263.87
   4   0   0 7217.78  262.87
   4   0   0 6933.31  261.87
   4   0   0 7660.03  262.97
   4   0   0 8221.58  264.67
  -6   0   0 1600.24   57.69
  -6   0   0 1632.14   57.79
  -6   0   0 1635.74   57.39
  -6   0   0 1610.14   60.09
  -6   0   0 1450.05   60.19
  -6   0   0 1595.34   55.99
  -6   0   0 1651.63   56.49
   6   0   0 1569.04   56.69
   6   0   0 1333.67   58.39
   6   0   0 1624.04   57.19
   6   0   0 1676.83   58.19
   6   0   0 1651.63   55.29
   6   0   0 1533.65   56.79
   6   0   0 1650.73   59.59
  -8   0   0 2875.11   99.19
  -8   0   0 2784.92   97.19
  -8   0   0 2788.42  102.39
  -8   0   0 2655.03   99.49
  -8   0   0 2755.42  101.09
  -8   0   0 2725.43   99.59
  -8   0   0 2870.41   97.79
   8   0   0 2767.52   99.59
   8   0   0 2774.42   96.39
   8   0   0 2769.92   98.09
   8   0   0 2836.62  100.29
   8   0   0 2762.82   98.69
   8   0   0 2776.92   98.59
 -10   0   0 1587.84   62.79
 -10   0   0 1504.15   55.89
 -10   0   0 1573.84   56.79
 -10   0   0 1431.86   60.49
  10   0   0 1562.54   58.29
  10   0   0 1568.94   57.09
  10   0   0 1487.95   58.89
  10   0   0 1512.85   57.59
 -12   0   0  349.57   28.00
 -12   0   0  351.76   19.10
 -12   0   0  327.67   25.30
 -12   0   0  279.67   26.00
  12   0   0  352.16   22.20
  12   0   0  357.16   20.40
  12   0   0  327.37   21.20
  12   0   0  356.86   22.60
  12   0   0  358.66   22.90
  12   0   0  360.66   20.10
 -14   0   0  741.93   33.10
 -14   0   0  764.32   44.70
 -14   0   0  707.43   41.10
  14   0   0  736.33   36.40
  14   0   0  734.93   38.00
  14   0   0  695.83   33.80
 -16   0   0   56.89   30.90
 -16   0   0   54.29   24.00
  16   0   0   95.09   20.20
  16   0   0   97.99   20.90
 -18   0   0  598.74   65.19
 -18   0   0  569.64   54.89
  18   0   0  496.55   49.30
  17  -1   0    3.20   20.80
  17  -1   0  -18.20   20.10
 -17   1   0   35.20   37.30
 -17   1   0    8.10   24.90
  15  -1   0   41.40   16.60
  15  -1   0   35.30   15.50
 -15   1   0   25.40   25.50
 -15   1   0   42.70   21.60
  13  -1   0   65.89   10.10
  13  -1   0   51.29   11.30
  13  -1   0   67.99   12.90
 -13   1   0   72.69   18.10
 -13   1   0   67.09   10.00
 -13   1   0   81.09   21.50
  11  -1   0  209.78   15.90
  11  -1   0  172.48   17.60
  11  -1   0  195.38   12.70
  11  -1   0  210.58   12.70
  11  -1   0  213.08   16.10
  11  -1   0  200.28   17.10
 -11   1   0  202.08   13.40
 -11   1   0  182.38   21.30
 -11   1   0  231.48   21.50
   9  -1   0   19.90    6.50
   9  -1   0   20.00    7.90
   9  -1   0   17.60    2.40
   9  -1   0   14.00    6.30
   9  -1   0   14.20    6.40
  -9   1   0   16.00    7.30
  -9   1   0   10.00    7.70
  -9   1   0    8.10   11.20
  -9   1   0   18.40    5.60
  -9   1   0   22.80    4.60
  -9   1   0    3.50    8.40
   7  -1   0  949.21   37.40
   7  -1   0  952.80   36.10
   7  -1   0  966.80   40.30
   7  -1   0 1011.30   33.90
   7  -1   0  937.81   36.70
   7  -1   0  969.40   36.90
   7  -1   0  990.20   37.90
  -7   1   0  928.11   37.20
  -7   1   0 1010.40   36.60
  -7   1   0  956.90   35.10
  -7   1   0  969.00   41.30
  -7   1   0  891.61   38.60
  -7   1   0  952.60   39.00
  -7   1   0 1008.60   36.80
   5  -1   0  815.82   30.30
   5  -1   0  782.22   30.00
   5  -1   0  749.23   29.40
   5  -1   0  835.12   31.90
   5  -1   0  778.02   29.80
   5  -1   0  781.02   29.10
  -5   1   0  810.12   29.40
  -5   1   0  777.02   31.10
  -5   1   0  791.62   29.50
  -5   1   0  813.12   30.10
  -5   1   0  778.32   29.90
  -5   1   0  792.12   33.00
   3  -1   0 1276.27   44.30
   3  -1   0 1173.98   44.00
   3  -1   0 1250.87   43.90
   3  -1   0 1246.18   44.10
   3  -1   0 1260.67   43.60
   3  -1   0 1281.27   45.20
  -3   1   0 1282.67   44.10
  -3   1   0 1258.07   44.10
  -3   1   0 1207.78   44.00
  -3   1   0 1253.27   43.60
  -3   1   0 1221.98   45.00
   1  -1   0  120.29    4.90
   1  -1   0  111.09    4.90
   1  -1   0  141.29    5.50
   1  -1   0  135.99    5.80
  -1   1   0  137.49    5.20
  -1   1   0  132.39    5.20
  -1   1   0  133.79    4.90
  -1   1   0  140.89    5.10
  -1   1   0  138.79    5.00
  -1   1   0  140.59    5.80
  -1   1   0  141.49    5.60
  -1  -1   0  125.39    5.20
  -1  -1   0  130.69    5.20
  -1  -1   0  140.99    5.50
  -1  -1   0  120.39    5.00
  -1  -1   0  109.19    5.10
  -1  -1   0  137.39    5.20
  -1  -1   0  144.19    5.60
   1   1   0  140.29    5.50
   1   1   0  130.89    5.20
   1   1   0  130.49    5.20
   1   1   0  136.69    5.40
   1   1   0  135.69    5.50
   1   1   0  134.39    5.10
  -3  -1   0 1222.18   44.10
  -3  -1   0 1201.58   43.40
  -3  -1   0 1240.08   43.00
  -3  -1   0 1203.18   44.30
  -3  -1   0 1266.67   43.80
  -3  -1   0 1197.28   43.70
  -3  -1   0 1230.08   43.90
  -3  -1   0 1219.68   42.50
   3   1   0 1190.48   43.60
   3   1   0 1234.68   42.90
   3   1   0 1253.27   43.90
   3   1   0 1245.88   42.60
   3   1   0 1257.97   43.70
  -5  -1   0  834.12   29.20
  -5  -1   0  790.92   29.60
  -5  -1   0  800.62   31.80
  -5  -1   0  833.32   30.70
  -5  -1   0  748.33   31.10
  -5  -1   0  860.51   31.20
  -5  -1   0  832.82   30.90
  -5  -1   0  768.82   30.70
   5   1   0  791.22   30.60
   5   1   0  804.72   31.90
   5   1   0  812.42   29.20
   5   1   0  865.11   31.30
   5   1   0  781.32   30.40
   5   1   0  815.32   29.50
  -7  -1   0  991.00   35.90
  -7  -1   0  986.00   39.60
  -7  -1   0  957.70   38.40
  -7  -1   0  935.81   39.20
  -7  -1   0  969.80   38.40
  -7  -1   0  998.60   38.00
  -7  -1   0 1050.89   38.30
  -7  -1   0  935.81   36.20
   7   1   0  982.10   38.80
   7   1   0  976.70   40.10
   7   1   0  949.40   38.00
   7   1   0  974.10   36.20
   7   1   0 1043.90   35.60
  -9  -1   0   15.90    8.10
  -9  -1   0    8.40    9.40
  -9  -1   0   13.00   10.00
  -9  -1   0   20.70    5.60
  -9  -1   0   13.20    5.30
   9   1   0   20.20    6.40
   9   1   0   15.30    3.90
   9   1   0   16.30    4.50
   9   1   0   13.30    7.30
   9   1   0   17.50    7.00
 -11  -1   0  186.18   20.20
 -11  -1   0  181.98   19.50
 -11  -1   0  223.58   14.70
  11   1   0  219.28   17.10
  11   1   0  220.18   17.20
  11   1   0  215.08   14.40
  11   1   0  167.38   17.70
  11   1   0  204.88   11.30
 -13  -1   0   58.19   17.70
 -13  -1   0   51.59   10.30
 -13  -1   0   87.09   18.70
  13   1   0   56.49   12.90
  13   1   0   88.49   15.20
  13   1   0   59.89   13.10
  13   1   0   63.69   12.50
 -15  -1   0   47.00   13.20
 -15  -1   0   13.40   23.90
 -15  -1   0   28.70   19.40
  15   1   0   33.20   16.30
  15   1   0   62.09   16.00
  15   1   0   43.60   16.30
 -17  -1   0   15.40   25.30
 -17  -1   0    6.60   34.30
  17   1   0   33.70   24.20
  17   1   0   39.60   22.80
  18  -2   0  -30.20   24.60
  18  -2   0    3.30   27.20
 -18   2   0   62.89   44.40
  16  -2   0  120.69   20.60
  16  -2   0   99.09   20.70
  16  -2   0  115.19   20.10
 -16   2   0   78.29   26.60
 -16   2   0  147.49   34.20
  14  -2   0   14.00   11.30
  14  -2   0   10.00   14.80
  14  -2   0   -1.40   12.10
 -14   2   0    9.20    9.00
 -14   2   0   20.80   21.40
  12  -2   0  143.99   15.20
  12  -2   0  113.09   14.30
  12  -2   0  148.19   14.00
  12  -2   0  148.39    9.90
 -12   2   0  138.09   19.20
 -12   2   0  144.29   13.10
 -12   2   0  173.78   22.70
  10  -2   0   52.89    8.70
  10  -2   0   72.99    6.90
  10  -2   0   55.49    9.20
  10  -2   0   75.99    6.90
  10  -2   0   50.49    7.90
 -10   2   0   57.49   14.70
 -10   2   0   55.69   12.90
 -10   2   0   76.59   10.20
 -10   2   0   59.79   10.40
 -10   2   0   69.09    6.40
   8  -2   0  134.59    9.10
   8  -2   0  141.49    6.70
   8  -2   0   99.79   10.90
   8  -2   0  171.38   12.90
   8  -2   0  133.69   12.40
   8  -2   0  124.49   10.90
  -8   2   0  111.09   12.80
  -8   2   0  131.19   11.90
  -8   2   0  133.59   11.40
  -8   2   0  133.69   10.80
  -8   2   0  131.09   15.20
   6  -2   0  420.76   18.50
   6  -2   0  419.76   14.50
   6  -2   0  408.26   16.60
   6  -2   0  410.06   18.00
   6  -2   0  398.56   18.10
   6  -2   0  422.76   20.20
   6  -2   0  400.66   17.70
  -6   2   0  434.16   18.30
  -6   2   0  411.36   17.10
  -6   2   0  373.66   19.70
  -6   2   0  342.77   24.00
  -6   2   0  407.86   17.70
  -6   2   0  422.36   17.90
   4  -2   0   47.20    4.90
   4  -2   0   57.19    6.30
   4  -2   0   53.99    2.50
   4  -2   0   63.39    5.20
   4  -2   0   55.19    4.00
   4  -2   0   54.39    2.70
   4  -2   0   55.79    4.40
  -4   2   0   55.69    5.10
  -4   2   0   59.89    8.30
  -4   2   0   57.79    4.70
  -4   2   0   57.89    6.10
  -4   2   0   57.79    4.20
  -4   2   0   55.19    4.70
  -4   2   0   50.69    4.80
   2  -2   0  511.05   19.40
   2  -2   0  530.25   19.60
   2  -2   0  548.55   19.70
   2  -2   0  537.85   18.90
   2  -2   0  543.15   20.30
   2  -2   0  527.45   20.60
  -2   2   0  535.25   19.60
  -2   2   0  522.85   20.50
  -2   2   0  522.75   19.60
  -2   2   0  534.15   20.10
  -2   2   0  545.75   19.40
  -2   2   0  547.95   18.90
  -2   2   0  556.44   20.10
  -2   2   0  553.24   19.10
   0  -2   0    9.30    1.20
   0  -2   0    6.50    1.10
   0  -2   0    7.70    1.20
   0  -2   0    8.20    1.20
   0  -2   0    5.90    1.20
   0  -2   0    5.80    1.40
   0  -2   0    6.70    1.10
   0   2   0    7.90    1.10
   0   2   0    5.70    1.00
   0   2   0    7.60    1.10
   0   2   0    9.60    1.30
   0   2   0    5.60    1.10
   0   2   0    6.40    1.10
   0   2   0    8.50    1.40
  -2  -2   0  542.05   20.10
  -2  -2   0  539.85   19.10
  -2  -2   0  539.85   19.90
  -2  -2   0  564.54   20.70
  -2  -2   0  551.94   20.00
  -2  -2   0  546.45   19.80
  -2  -2   0  531.65   20.30
   2   2   0  555.84   20.30
   2   2   0  543.75   20.50
   2   2   0  539.05   19.70
   2   2   0  546.25   20.00
   2   2   0  544.45   20.10
   2   2   0  556.34   19.90
   2   2   0  510.05   20.50
  -4  -2   0   40.80    4.70
  -4  -2   0   51.29    4.90
  -4  -2   0   42.30    4.30
  -4  -2   0   56.29    6.10
  -4  -2   0   62.09    4.90
  -4  -2   0   50.79    5.30
   4   2   0   54.39    5.90
   4   2   0   58.09    5.30
   4   2   0   48.40    4.30
   4   2   0   62.29    5.90
   4   2   0   54.39    3.30
   4   2   0   60.39    5.80
  -6  -2   0  411.36   19.10
  -6  -2   0  419.36   18.70
  -6  -2   0  398.46   17.10
  -6  -2   0  438.86   18.40
  -6  -2   0  440.06   19.30
   6   2   0  446.86   17.00
   6   2   0  392.66   20.00
   6   2   0  408.86   16.10
   6   2   0  417.86   18.50
   6   2   0  417.76   19.50
   6   2   0  393.16   18.50
  -8  -2   0  118.79   10.00
  -8  -2   0  129.19   13.20
  -8  -2   0  125.19   12.60
  -8  -2   0  161.28   11.80
   8   2   0  139.89    8.40
   8   2   0  147.39    9.00
   8   2   0  125.39   12.50
   8   2   0  129.89   11.70
 -10  -2   0   61.09    8.30
 -10  -2   0   59.19   12.30
 -10  -2   0   43.50   11.00
  10   2   0   62.69    7.30
  10   2   0   58.99    9.60
  10   2   0   67.99   10.70
  10   2   0   57.19    9.70
  10   2   0   67.69    6.10
 -12  -2   0  152.98   18.40
 -12  -2   0  142.89   13.00
 -12  -2   0  164.18   18.90
  12   2   0  157.98   15.60
  12   2   0  152.48   17.10
  12   2   0  154.08   15.00
 -14  -2   0   19.90   16.60
 -14  -2   0   16.90   10.90
 -14  -2   0    4.40   19.10
  14   2   0   11.40   14.10
  14   2   0   -0.20   13.30
  14   2   0    2.50   13.20
 -16  -2   0  194.88   32.30
 -16  -2   0  136.99   26.60
  16   2   0  132.99   22.70
  16   2   0  126.09   21.90
 -18  -2   0   64.69   37.70
  18   2   0   50.59   28.00
  17  -3   0   34.10   23.70
  17  -3   0   49.30   22.10
 -17   3   0   86.19   28.70
 -17   3   0   60.59   39.30
  15  -3   0   85.39   17.70
  15  -3   0   68.19   17.70
  15  -3   0   95.99   16.50
 -15   3   0   83.29   22.40
 -15   3   0   54.59   29.50
  13  -3   0   96.39   14.40
  13  -3   0  102.79   15.10
  13  -3   0  117.59   13.30
  13  -3   0  118.59   14.70
 -13   3   0  111.59   22.70
 -13   3   0  144.29   20.30
 -13   3   0  107.69   10.70
  11  -3   0  664.23   31.00
  11  -3   0  648.64   30.00
  11  -3   0  597.84   27.50
  11  -3   0  627.04   23.30
  11  -3   0  645.84   23.50
  11  -3   0  637.34   29.20
 -11   3   0  614.94   34.50
 -11   3   0  635.34   30.70
 -11   3   0  642.84   25.40
 -11   3   0  651.73   38.10
   9  -3   0  214.38   14.30
   9  -3   0  221.38    9.00
   9  -3   0  222.08    9.30
   9  -3   0  223.38   13.00
   9  -3   0  203.98   14.00
   9  -3   0  233.48   17.30
   9  -3   0  194.08   16.00
  -9   3   0  217.08   14.70
  -9   3   0  233.38   15.60
  -9   3   0  202.58   19.00
  -9   3   0  225.58   21.00
   7  -3   0  952.50   31.80
   7  -3   0  916.11   35.80
   7  -3   0  932.41   39.50
   7  -3   0  923.31   32.10
   7  -3   0  900.91   35.10
   7  -3   0  939.61   32.00
   7  -3   0  930.41   34.20
   7  -3   0  960.20   36.70
   7  -3   0  933.91   37.00
  -7   3   0  905.61   35.60
  -7   3   0  918.81   36.60
  -7   3   0  877.31   38.50
  -7   3   0  911.01   36.10
  -7   3   0  842.52   41.00
  -7   3   0  928.11   34.80
  -7   3   0  950.50   36.20
   5  -3   0 1350.86   50.69
   5  -3   0 1357.96   46.00
   5  -3   0 1313.07   48.20
   5  -3   0 1309.17   47.10
   5  -3   0 1283.97   47.60
   5  -3   0 1374.46   48.60
   5  -3   0 1290.47   49.00
  -5   3   0 1278.27   48.00
  -5   3   0 1363.06   48.30
  -5   3   0 1391.66   49.10
  -5   3   0 1220.58   52.29
  -5   3   0 1380.46   49.00
  -5   3   0 1357.56   47.30
  -5   3   0 1387.96   48.60
  -5   3   0 1299.67   49.99
   3  -3   0  257.27   10.80
   3  -3   0  253.37   10.90
   3  -3   0  256.37   11.70
   3  -3   0  249.97    9.80
   3  -3   0  244.48   12.20
   3  -3   0  241.18   10.40
  -3   3   0  246.78   10.70
  -3   3   0  246.68    9.60
  -3   3   0  242.58   10.60
  -3   3   0  253.87    9.70
  -3   3   0  230.68   12.00
  -3   3   0  263.47   10.50
  -3   3   0  263.37   11.70
  -3   3   0  262.87   10.00
  -3   3   0  272.17   11.50
   1  -3   0   32.20    3.60
   1  -3   0   35.80    2.90
   1  -3   0   31.10    2.80
   1  -3   0   32.80    3.40
   1  -3   0   36.00    3.10
   1  -3   0   30.70    3.30
   1  -3   0   30.40    3.00
  -1   3   0   30.50    3.20
  -1   3   0   31.60    3.00
  -1   3   0   31.10    3.60
  -1   3   0   29.80    2.90
  -1   3   0   32.50    3.50
  -1   3   0   32.30    3.10
  -1   3   0   30.30    2.80
  -1   3   0   33.90    2.80
  -1  -3   0   32.80    3.60
  -1  -3   0   35.30    3.10
  -1  -3   0   30.80    3.60
  -1  -3   0   41.90    3.80
  -1  -3   0   37.40    3.50
  -1  -3   0   27.80    2.90
   1   3   0   41.90    3.50
   1   3   0   32.30    3.10
   1   3   0   33.00    2.80
   1   3   0   30.70    3.90
   1   3   0   43.70    4.00
   1   3   0   20.40    3.50
   1   3   0   41.90    3.20
   1   3   0   44.80    3.50
   1   3   0   26.40    2.80
  -3  -3   0  262.77   10.90
  -3  -3   0  248.38   10.50
  -3  -3   0  235.88   10.60
  -3  -3   0  246.58   10.80
  -3  -3   0  249.38   11.50
  -3  -3   0  246.18    9.40
   3   3   0  251.67   11.70
   3   3   0  252.17   11.00
   3   3   0  234.98   11.30
   3   3   0  252.07   11.30
   3   3   0  251.37   10.60
   3   3   0  235.48   10.30
   3   3   0  247.08   10.90
  -5  -3   0 1254.87   48.30
  -5  -3   0 1354.16   47.60
  -5  -3   0 1313.67   48.80
  -5  -3   0 1387.86   48.00
  -5  -3   0 1301.47   47.70
  -5  -3   0 1343.87   49.20
   5   3   0 1342.57   45.80
   5   3   0 1318.57   48.90
   5   3   0 1374.36   47.80
   5   3   0 1242.48   48.30
   5   3   0 1328.67   49.00
   5   3   0 1306.77   48.90
  -7  -3   0  957.10   37.00
  -7  -3   0  965.20   36.00
  -7  -3   0  895.91   36.80
  -7  -3   0  909.51   35.10
  -7  -3   0  860.91   36.40
  -7  -3   0  897.81   35.50
   7   3   0  900.61   36.70
   7   3   0  874.21   36.10
   7   3   0  888.51   37.10
   7   3   0  921.41   32.70
   7   3   0  968.90   34.80
   7   3   0  935.61   37.90
  -9  -3   0  220.08   17.80
  -9  -3   0  222.58   16.30
  -9  -3   0  212.88   16.30
  -9  -3   0  222.38   14.30
   9   3   0  206.58   10.30
   9   3   0  223.08   13.10
   9   3   0  228.48   15.60
   9   3   0  220.68   16.60
 -11  -3   0  594.14   31.50
 -11  -3   0  602.74   28.20
 -11  -3   0  627.14   31.30
  11   3   0  672.93   31.20
  11   3   0  610.44   29.80
  11   3   0  625.74   30.70
  11   3   0  636.94   26.60
 -13  -3   0  117.69   13.30
 -13  -3   0  139.99   19.60
 -13  -3   0  100.79   18.10
  13   3   0  109.39   16.80
  13   3   0   94.69   14.50
  13   3   0   91.39   15.00
 -15  -3   0  115.49   25.10
 -15  -3   0  112.39   23.00
 -15  -3   0   58.39   15.40
  15   3   0  104.59   19.90
  15   3   0  108.09   18.50
  15   3   0   97.79   19.60
  15   3   0  131.69   21.20
 -17  -3   0   41.80   27.90
  17   3   0   46.30   25.60
  17   3   0   27.30   22.20
  18  -4   0   86.59   29.80
 -18   4   0   95.39   49.99
  16  -4   0  415.16   35.80
  16  -4   0  436.66   38.40
 -16   4   0  515.05   51.39
 -16   4   0  472.75   40.40
  14  -4   0  146.69   26.30
  14  -4   0  159.18   15.70
  14  -4   0  171.88   18.50
 -14   4   0  204.58   31.70
 -14   4   0  162.08   25.40
  12  -4   0  832.72   38.20
  12  -4   0  816.62   39.70
  12  -4   0  839.12   37.30
  12  -4   0  841.22   35.30
 -12   4   0  840.52   46.80
 -12   4   0  886.51   32.70
 -12   4   0  867.61   43.80
  10  -4   0  872.61   37.00
  10  -4   0  926.11   38.50
  10  -4   0  842.62   34.40
  10  -4   0  886.71   36.10
 -10   4   0  857.41   35.70
 -10   4   0  841.02   40.80
 -10   4   0  893.71   32.50
 -10   4   0  840.12   44.80
 -10   4   0  857.51   36.70
   8  -4   0  510.55   23.50
   8  -4   0  534.35   25.10
   8  -4   0  519.15   21.50
   8  -4   0  498.75   22.90
   8  -4   0  551.04   25.40
  -8   4   0  510.65   30.00
  -8   4   0  525.25   24.00
  -8   4   0  589.24   23.00
  -8   4   0  532.35   27.10
   6  -4   0 4720.53  168.18
   6  -4   0 4558.44  166.28
   6  -4   0 5086.99  170.18
   6  -4   0 4725.23  165.38
   6  -4   0 4653.43  166.88
   6  -4   0 5093.89  167.28
   6  -4   0 4725.03  164.28
  -6   4   0 5068.19  167.28
  -6   4   0 5084.79  167.18
  -6   4   0 4384.86  171.88
  -6   4   0 4695.93  169.18
  -6   4   0 4942.51  165.68
  -6   4   0 4753.52  166.58
  -6   4   0 4831.12  167.78
  -6   4   0 4889.31  167.88
   4  -4   0 2236.08   76.59
   4  -4   0 2200.88   74.79
   4  -4   0 2113.89   72.99
   4  -4   0 2046.70   75.29
   4  -4   0 2144.89   73.99
   4  -4   0 2010.00   74.29
  -4   4   0 2106.69   76.09
  -4   4   0 2053.29   73.89
  -4   4   0 2085.19   72.89
  -4   4   0 2115.19   75.29
  -4   4   0 2172.88   75.19
  -4   4   0 1935.61   78.39
  -4   4   0 2150.88   74.39
  -4   4   0 2174.58   74.39
   2  -4   0 8628.14  293.37
   2  -4   0 8309.67  293.07
   2  -4   0 9017.70  293.27
   2  -4   0 7736.43  293.97
  -2   4   0 9415.16  293.17
  -2   4   0 9244.67  293.47
  -2   4   0 8345.26  294.27
  -2   4   0 8618.44  292.67
  -2   4   0 7546.54  293.27
  -2   4   0 9215.58  293.17
  -2   4   0 9031.40  293.27
  -2   4   0 7843.22  293.97
  -2   4   0 8823.92  293.87
   0  -4   0  347.97   13.50
   0  -4   0  338.67   14.10
   0  -4   0  357.66   13.70
   0  -4   0  343.57   13.70
   0  -4   0  341.87   13.40
   0  -4   0  351.26   13.70
   0  -4   0  335.67   13.50
   0   4   0  353.06   13.40
   0   4   0  338.27   13.50
   0   4   0  345.67   13.80
   0   4   0  354.16   13.70
   0   4   0  347.07   14.10
   0   4   0  372.46   13.70
   0   4   0  319.67   14.30
  -2  -4   0 9151.08  315.67
  -2  -4   0 9308.87  316.27
  -2  -4   0 9843.12  316.97
  -2  -4   0 8741.33  316.37
  -2  -4   0 9434.96  315.87
   2   4   0 9221.98  316.47
   2   4   0 9754.42  315.77
   2   4   0 9096.19  316.67
   2   4   0 8111.79  316.97
   2   4   0 9415.66  315.87
   2   4   0 9220.08  315.87
   2   4   0 9999.00  316.57
  -4  -4   0 2114.49   74.89
  -4  -4   0 2047.70   74.89
  -4  -4   0 2200.38   75.59
  -4  -4   0 2084.59   72.89
  -4  -4   0 2121.29   74.29
  -4  -4   0 2137.29   74.59
  -4  -4   0 2055.09   74.69
   4   4   0 2216.08   75.09
   4   4   0 2195.18   75.59
   4   4   0 2092.89   75.89
   4   4   0 2187.68   74.79
   4   4   0 2099.29   75.39
   4   4   0 2041.40   73.99
   4   4   0 2085.69   74.89
  -6  -4   0 5125.99  170.98
  -6  -4   0 4793.42  170.78
  -6  -4   0 4796.62  169.78
  -6  -4   0 5016.30  172.18
   6   4   0 4845.92  172.28
   6   4   0 4728.43  171.58
   6   4   0 5267.77  172.58
   6   4   0 5099.89  170.98
   6   4   0 4706.33  167.88
   6   4   0 4987.10  172.38
  -8  -4   0  492.75   25.30
  -8  -4   0  518.25   24.20
  -8  -4   0  543.35   23.70
  -8  -4   0  535.15   22.90
   8   4   0  554.54   26.10
   8   4   0  556.14   19.30
   8   4   0  550.54   23.10
   8   4   0  491.25   25.00
 -10  -4   0  848.72   36.60
 -10  -4   0  867.11   35.60
 -10  -4   0  843.42   38.20
  10   4   0  891.41   38.10
  10   4   0  821.82   37.00
  10   4   0  855.61   34.10
 -12  -4   0  880.01   39.70
 -12  -4   0  863.31   37.10
 -12  -4   0  858.01   41.30
  12   4   0  863.81   38.90
  12   4   0  871.41   40.20
  12   4   0  820.12   40.90
 -14  -4   0  256.67   29.10
 -14  -4   0  178.68   26.50
 -14  -4   0  179.08   17.40
  14   4   0  165.98   21.00
  14   4   0  198.38   21.50
  14   4   0  213.58   20.50
 -16  -4   0  513.95   35.50
 -16  -4   0  535.55   44.00
 -16  -4   0  486.05   44.60
  16   4   0  456.55   44.00
  16   4   0  501.15   41.10
  16   4   0  475.65   39.10
  16   4   0  438.06   42.90
  18   4   0   32.50   31.70
  18   4   0   71.49   29.90
  17  -5   0   15.50   24.70
  17  -5   0   42.70   23.20
 -17   5   0   31.20   41.20
 -17   5   0   78.29   30.60
  15  -5   0    8.20   16.90
  15  -5   0    9.70   16.90
 -15   5   0   25.20   21.10
 -15   5   0   12.20   28.10
  13  -5   0  249.78   24.20
  13  -5   0  246.68   22.00
  13  -5   0  211.08   20.30
 -13   5   0  253.97   32.40
 -13   5   0  280.17   19.00
 -13   5   0  233.18   25.90
  11  -5   0   90.49   12.10
  11  -5   0   61.29   10.30
  11  -5   0   83.09    9.10
  11  -5   0   51.09   11.70
 -11   5   0   58.59   11.10
 -11   5   0   61.39    6.30
 -11   5   0   60.29   18.50
 -11   5   0   60.89   15.10
 -11   5   0   78.79   11.80
   9  -5   0  245.08   18.60
   9  -5   0  246.18   18.10
   9  -5   0  261.27   16.70
   9  -5   0  232.48   14.80
  -9   5   0  245.68   20.90
  -9   5   0  212.18   15.00
  -9   5   0  229.28   24.60
  -9   5   0  260.47   16.40
   7  -5   0  216.48   12.40
   7  -5   0  199.78   13.40
   7  -5   0  229.28   14.20
   7  -5   0  213.18   14.80
   7  -5   0  228.28    9.30
  -7   5   0  221.88   10.10
  -7   5   0  228.08   14.10
  -7   5   0  204.08   16.30
  -7   5   0  213.18   19.60
  -7   5   0  217.48   12.00
  -7   5   0  226.68   12.80
   5  -5   0  260.97   13.80
   5  -5   0  288.57   12.00
   5  -5   0  320.77   14.00
   5  -5   0  279.07   16.50
   5  -5   0  285.17   15.50
   5  -5   0  294.67   14.00
  -5   5   0  259.87   17.40
  -5   5   0  297.87   14.80
  -5   5   0  305.27   14.20
  -5   5   0  267.37   13.00
  -5   5   0  291.17   13.90
  -5   5   0  272.87   19.50
  -5   5   0  294.07   11.80
  -5   5   0  304.87   12.60
  -5   5   0  286.17   15.30
   3  -5   0 1290.67   48.80
   3  -5   0 1307.97   47.70
   3  -5   0 1359.56   47.30
   3  -5   0 1376.36   47.50
  -3   5   0 1374.96   47.80
  -3   5   0 1320.37   45.90
  -3   5   0 1202.48   51.19
  -3   5   0 1300.57   47.30
  -3   5   0 1327.57   48.40
  -3   5   0 1366.36   46.70
  -3   5   0 1298.27   48.70
  -3   5   0 1361.76   46.80
  -3   5   0 1291.67   49.10
  -3   5   0 1328.47   47.30
  -3   5   0 1359.06   46.90
  -3   5   0 1342.07   47.50
   1  -5   0   33.50    3.30
   1  -5   0   22.00    3.20
   1  -5   0   28.80    3.80
   1  -5   0   25.40    2.90
   1  -5   0   31.20    3.50
   1  -5   0   24.80    3.30
   1  -5   0   21.70    3.30
  -1   5   0   27.70    3.60
  -1   5   0   25.10    3.70
  -1   5   0   25.70    3.60
  -1   5   0   35.40    3.50
  -1   5   0   29.30    3.30
  -1   5   0   25.20    3.10
  -1   5   0   25.90    3.00
  -1  -5   0   30.20    3.50
  -1  -5   0   26.70    3.30
  -1  -5   0   29.50    3.90
  -1  -5   0   25.40    3.00
   1   5   0   34.20    3.60
   1   5   0   22.50    2.90
   1   5   0   25.30    4.00
   1   5   0   23.80    3.40
   1   5   0   28.90    3.60
   1   5   0   30.10    3.40
   1   5   0   37.20    4.10
   1   5   0   28.60    3.50
   1   5   0   17.80    3.40
  -3  -5   0 1336.27   47.10
  -3  -5   0 1305.87   47.30
  -3  -5   0 1333.37   48.20
  -3  -5   0 1365.46   48.90
  -3  -5   0 1316.37   48.60
  -3  -5   0 1322.17   48.10
   3   5   0 1350.46   48.90
   3   5   0 1296.77   48.60
   3   5   0 1288.37   49.20
   3   5   0 1399.76   48.30
   3   5   0 1330.67   46.50
   3   5   0 1377.66   47.70
   3   5   0 1316.07   47.40
  -5  -5   0  277.97   14.10
  -5  -5   0  281.57   15.00
  -5  -5   0  294.87   12.90
  -5  -5   0  273.37   15.10
  -5  -5   0  285.07   11.10
  -5  -5   0  273.67   15.20
  -5  -5   0  293.97   13.50
  -5  -5   0  279.97   14.20
   5   5   0  325.77   15.20
   5   5   0  293.47   14.20
   5   5   0  280.67   13.90
   5   5   0  300.47   10.40
   5   5   0  307.87   15.50
   5   5   0  295.27   10.30
   5   5   0  269.17   15.00
   5   5   0  273.77   13.00
   5   5   0  279.37   16.20
  -7  -5   0  206.18   14.30
  -7  -5   0  210.08   12.90
  -7  -5   0  241.38   13.90
  -7  -5   0  215.68   10.80
   7   5   0  221.68   16.10
   7   5   0  220.68   13.20
   7   5   0  216.08   14.70
   7   5   0  208.58   15.10
  -9  -5   0  270.17   18.40
  -9  -5   0  258.77   14.00
  -9  -5   0  242.98   15.70
  -9  -5   0  221.78   17.20
   9   5   0  250.47   15.80
   9   5   0  239.98   17.80
   9   5   0  245.78   18.10
 -11  -5   0   98.39   12.80
 -11  -5   0   69.69   14.20
 -11  -5   0   64.09   10.20
  11   5   0   60.29   12.70
  11   5   0   66.49   13.10
 -13  -5   0  248.28   27.00
 -13  -5   0  234.58   21.30
 -13  -5   0  246.38   24.40
  13   5   0  214.48   21.60
  13   5   0  232.38   22.90
  13   5   0  213.78   21.80
 -15  -5   0   20.40   15.90
 -15  -5   0   -5.20   20.40
 -15  -5   0   21.30   19.80
  15   5   0   -1.20   17.30
  15   5   0   -7.70   19.10
  15   5   0   -9.80   18.30
  15   5   0   -3.10   21.10
 -17  -5   0   48.70   26.20
 -17  -5   0  -10.30   30.80
  17   5   0   -7.80   26.20
  17   5   0   57.29   24.90
  17   5   0   74.79   24.70
  16  -6   0   34.90   20.50
  16  -6   0   58.89   22.90
 -16   6   0   52.19   35.50
 -16   6   0   76.79   26.60
  14  -6   0  242.38   21.90
  14  -6   0  203.88   22.10
 -14   6   0  225.08   27.80
 -14   6   0  341.47   39.90
  12  -6   0    1.70    9.80
  12  -6   0    9.40   11.50
  12  -6   0    5.60   12.00
 -12   6   0    2.60    5.00
 -12   6   0    8.90   15.90
 -12   6   0  -24.80   17.90
 -12   6   0   -5.60   10.80
  10  -6   0  481.95   24.20
  10  -6   0  494.55   27.80
  10  -6   0  488.45   25.10
 -10   6   0  487.35   24.70
 -10   6   0  464.25   23.40
 -10   6   0  501.85   20.00
 -10   6   0  494.55   30.70
 -10   6   0  469.15   34.90
   8  -6   0   17.50    2.80
   8  -6   0   16.50    6.40
   8  -6   0   13.50    6.70
   8  -6   0   17.10    7.70
   8  -6   0   26.20    8.40
  -8   6   0   12.30   12.80
  -8   6   0   10.30    6.90
  -8   6   0   13.00   11.00
  -8   6   0   16.30    5.90
  -8   6   0   15.20    4.10
   6  -6   0  376.26   19.80
   6  -6   0  365.86   17.40
   6  -6   0  343.07   21.10
   6  -6   0  368.86   17.00
   6  -6   0  345.77   17.40
   6  -6   0  359.76   14.60
  -6   6   0  344.97   15.90
  -6   6   0  365.86   17.60
  -6   6   0  299.07   22.80
  -6   6   0  366.76   15.40
  -6   6   0  345.67   14.40
  -6   6   0  329.47   20.20
   4  -6   0  876.91   34.00
   4  -6   0  867.01   35.40
   4  -6   0  897.41   33.10
   4  -6   0  762.62   34.20
  -4   6   0  928.41   32.80
  -4   6   0  912.91   33.70
  -4   6   0  908.71   35.00
  -4   6   0  913.51   31.00
  -4   6   0  853.11   39.30
  -4   6   0  916.01   33.50
  -4   6   0  929.81   35.50
  -4   6   0  923.01   32.50
  -4   6   0  921.61   32.70
  -4   6   0  924.31   34.10
  -4   6   0  887.21   35.90
  -4   6   0  903.91   31.10
  -4   6   0  871.41   33.30
   2  -6   0   57.59    5.30
   2  -6   0   71.59    5.30
   2  -6   0   67.39    5.90
   2  -6   0   78.29    6.00
   2  -6   0   63.29    6.90
  -2   6   0   74.59    6.10
  -2   6   0   61.29    6.70
  -2   6   0   65.69    5.40
  -2   6   0   94.59    7.90
  -2   6   0   70.19    6.00
  -2   6   0   73.79    6.20
  -2   6   0   72.69    5.90
  -2   6   0   68.29    7.00
  -2   6   0   69.29    6.10
  -2   6   0   81.79    9.30
   0  -6   0 3584.74  127.59
   0  -6   0 3495.45  128.39
   0  -6   0 3634.44  127.79
   0  -6   0 3619.44  127.49
   0  -6   0 3768.42  127.69
   0  -6   0 3557.24  127.79
   0  -6   0 3758.72  127.79
   0   6   0 3619.14  128.29
   0   6   0 3801.82  127.49
   0   6   0 3895.61  127.89
   0   6   0 3659.13  127.89
   0   6   0 3862.81  127.59
   0   6   0 3801.92  127.89
   0   6   0 3791.52  127.79
   0   6   0 3646.74  128.09
   0   6   0 3651.73  128.09
   0   6   0 3616.74  128.69
  -2  -6   0   70.19    5.20
  -2  -6   0   64.49    5.40
  -2  -6   0   75.29    7.00
  -2  -6   0   64.99    5.80
  -2  -6   0   66.79    6.70
  -2  -6   0   70.29    6.20
   2   6   0   74.49    7.00
   2   6   0   77.29    5.90
   2   6   0   67.79    5.40
   2   6   0   69.79    5.60
   2   6   0   56.59    5.40
   2   6   0   75.29    6.10
   2   6   0   66.39    7.10
   2   6   0   72.99    6.70
   2   6   0   78.99    6.80
   2   6   0   76.19    6.00
   2   6   0   63.29    3.40
   2   6   0   59.29    6.20
  -4  -6   0  903.01   32.50
  -4  -6   0  909.51   32.70
  -4  -6   0  922.41   35.10
  -4  -6   0  886.11   34.30
  -4  -6   0  867.21   34.00
  -4  -6   0  871.31   34.40
   4   6   0  905.41   31.50
   4   6   0  874.81   34.50
   4   6   0  875.11   32.70
   4   6   0  919.61   33.50
   4   6   0  871.01   33.80
   4   6   0  866.31   35.70
   4   6   0  781.02   35.90
   4   6   0  926.31   34.90
  -6  -6   0  376.36   15.80
  -6  -6   0  366.36   17.70
  -6  -6   0  359.86   12.80
  -6  -6   0  370.86   16.60
  -6  -6   0  327.37   17.80
  -6  -6   0  343.97   17.40
  -6  -6   0  342.47   19.50
   6   6   0  320.17   18.90
   6   6   0  351.76   19.10
   6   6   0  316.37   16.80
   6   6   0  352.16   18.40
   6   6   0  357.36   17.50
  -8  -6   0   15.40    6.60
  -8  -6   0    4.10    3.90
  -8  -6   0   26.90    8.00
  -8  -6   0    2.00    7.50
  -8  -6   0   15.90    8.50
   8   6   0    1.40    8.30
   8   6   0   18.80    8.50
 -10  -6   0  503.05   27.40
 -10  -6   0  512.25   21.80
 -10  -6   0  511.95   28.50
 -10  -6   0  495.05   25.40
  10   6   0  507.85   28.90
  10   6   0  457.65   27.10
 -12  -6   0    1.20   12.50
 -12  -6   0   -9.30   12.70
 -12  -6   0   18.80   11.30
 -12  -6   0   -6.40   10.10
  12   6   0  -22.60   10.90
  12   6   0    8.30   12.90
 -14  -6   0  239.98   21.40
 -14  -6   0  231.88   25.60
  14   6   0  301.77   28.50
  14   6   0  257.87   25.90
 -16  -6   0   55.89   23.70
 -16  -6   0   -9.60   27.00
 -16  -6   0   85.49   21.20
  16   6   0   76.69   24.30
  16   6   0   37.60   25.40
  16   6   0   68.29   28.90
  16   6   0   38.00   21.20
  17  -7   0   25.30   27.60
  17  -7   0  -18.70   26.00
 -17   7   0   30.70   44.50
 -17   7   0   31.80   39.40
  15  -7   0   26.50   18.40
  15  -7   0   55.29   20.30
 -15   7   0   60.79   33.00
 -15   7   0   61.89   26.50
  13  -7   0  224.68   19.60
  13  -7   0  202.18   21.70
 -13   7   0  230.98   33.20
  11  -7   0   -0.50    9.90
  11  -7   0   -4.60   11.20
  11  -7   0    0.80    9.50
 -11   7   0   24.40   18.60
 -11   7   0    1.90    9.30
 -11   7   0    5.80   15.40
   9  -7   0  313.97   20.80
   9  -7   0  319.07   22.40
   9  -7   0  322.87   18.80
   9  -7   0  334.97   20.20
  -9   7   0  296.47   29.00
  -9   7   0  317.27   18.60
  -9   7   0  332.77   14.90
  -9   7   0  320.57   17.90
  -9   7   0  328.27   25.50
   7  -7   0  117.39   10.30
   7  -7   0  122.39   12.40
   7  -7   0  124.29   13.40
   7  -7   0  112.69   11.20
   7  -7   0  114.19    7.70
  -7   7   0  122.99   15.10
  -7   7   0  139.09   19.60
  -7   7   0  124.19   10.30
  -7   7   0  119.39    9.80
  -7   7   0  127.59    8.50
   5  -7   0 1110.39   44.60
   5  -7   0 1167.68   41.50
   5  -7   0 1140.39   43.00
   5  -7   0 1077.19   42.20
  -5   7   0 1134.89   41.70
  -5   7   0 1178.38   41.00
  -5   7   0 1086.89   41.90
  -5   7   0 1193.58   42.50
  -5   7   0 1032.20   48.50
  -5   7   0 1165.38   41.10
  -5   7   0 1098.29   40.60
  -5   7   0 1103.79   45.40
   3  -7   0  351.16   16.30
   3  -7   0  344.07   14.70
   3  -7   0  358.56   15.80
   3  -7   0  320.77   15.50
   3  -7   0  335.67   17.30
  -3   7   0  337.77   17.40
  -3   7   0  348.97   15.60
  -3   7   0  360.46   15.60
  -3   7   0  365.16   15.60
  -3   7   0  372.66   16.90
  -3   7   0  350.16   15.90
  -3   7   0  368.26   15.00
  -3   7   0  349.67   15.40
   1  -7   0   13.00    3.50
   1  -7   0   13.30    4.30
   1  -7   0   13.50    3.80
   1  -7   0   17.60    3.20
   1  -7   0   15.40    3.70
   1  -7   0    8.10    3.60
   1  -7   0   14.40    3.50
  -1   7   0   12.70    4.60
  -1   7   0   21.00    4.30
  -1   7   0   17.00    3.50
  -1   7   0   18.70    4.40
  -1   7   0   13.10    4.30
  -1   7   0   15.90    3.90
  -1   7   0   16.90    5.40
  -1   7   0   17.40    4.90
  -1   7   0   19.50    3.60
  -1  -7   0    7.70    4.90
  -1  -7   0   17.00    3.50
  -1  -7   0   16.50    3.20
   1   7   0   12.10    4.30
   1   7   0    9.30    3.80
   1   7   0   13.10    4.10
   1   7   0   13.80    3.50
   1   7   0   11.50    4.20
   1   7   0   18.70    3.50
   1   7   0   18.20    3.70
   1   7   0   14.60    3.60
   1   7   0   21.60    4.40
   1   7   0   10.80    3.80
  -3  -7   0  343.97   14.80
  -3  -7   0  365.56   15.10
  -3  -7   0  357.56   17.10
  -3  -7   0  351.16   17.30
  -3  -7   0  328.17   16.30
  -3  -7   0  313.57   17.30
   3   7   0  349.17   15.30
   3   7   0  360.46   16.50
   3   7   0  371.66   17.30
   3   7   0  343.87   16.30
   3   7   0  363.66   15.40
   3   7   0  337.07   18.60
   3   7   0  389.86   15.00
  -5  -7   0 1074.59   43.40
  -5  -7   0 1144.49   41.10
  -5  -7   0 1112.49   42.70
  -5  -7   0 1131.89   43.50
  -5  -7   0 1002.80   42.10
  -5  -7   0 1137.69   40.50
   5   7   0 1069.19   44.60
   5   7   0 1156.78   42.60
   5   7   0 1123.29   43.80
   5   7   0 1081.79   43.80
   5   7   0 1118.89   43.20
   5   7   0 1107.39   41.00
   5   7   0 1169.38   39.00
  -7  -7   0  133.49    9.50
  -7  -7   0  118.59   11.20
  -7  -7   0  124.89   12.30
  -7  -7   0  130.49   11.10
  -7  -7   0  128.39   12.70
   7   7   0  129.09   12.20
   7   7   0  115.09   12.90
   7   7   0  119.19   12.30
  -9  -7   0  341.77   19.90
  -9  -7   0  318.87   20.50
  -9  -7   0  332.47   19.70
  -9  -7   0  322.87   13.30
  -9  -7   0  309.67   21.70
  -9  -7   0  309.47   17.60
   9   7   0  307.07   21.60
   9   7   0  342.57   23.40
 -11  -7   0   10.70    9.90
 -11  -7   0    5.10   11.80
 -11  -7   0   13.90    6.10
 -11  -7   0    2.10    8.80
 -11  -7   0   -0.90   11.80
  11   7   0    4.60   11.80
  11   7   0    5.60   13.50
 -13  -7   0  209.88   22.90
 -13  -7   0  194.78   18.80
 -13  -7   0  153.48   17.10
 -13  -7   0  176.68   22.80
  13   7   0  189.98   21.60
  13   7   0  167.78   32.00
 -15  -7   0   76.09   25.00
 -15  -7   0   57.59   20.90
 -15  -7   0   45.60   18.40
  15   7   0   28.50   19.40
  15   7   0   41.60   21.60
  15   7   0   57.09   22.50
  15   7   0   33.10   24.90
 -17  -7   0    7.10   44.20
 -17  -7   0   28.60   33.80
  17   7   0   71.19   35.10
  17   7   0  -20.50   29.00
  17   7   0   -3.90   34.30
  17   7   0   -5.50   26.40
  16  -8   0  223.88   29.40
  16  -8   0  214.38   28.10
 -16   8   0  261.37   36.50
 -16   8   0  297.57   45.10
  14  -8   0   93.39   20.00
  14  -8   0  101.09   19.40
 -14   8   0   62.09   24.70
 -14   8   0  113.39   33.10
  12  -8   0  294.77   24.30
  12  -8   0  309.67   26.40
  12  -8   0  302.67   30.00
 -12   8   0  308.77   36.20
 -12   8   0  328.37   24.30
 -12   8   0  328.57   30.90
  10  -8   0  443.26   24.30
  10  -8   0  450.45   29.20
  10  -8   0  454.55   25.90
 -10   8   0  448.56   31.60
 -10   8   0  441.36   23.80
 -10   8   0  464.85   37.30
   8  -8   0 1039.40   40.80
   8  -8   0 1012.10   44.10
   8  -8   0 1030.50   41.70
   8  -8   0 1055.69   37.10
   8  -8   0 1095.19   42.10
  -8   8   0  977.00   45.90
  -8   8   0  904.11   41.40
  -8   8   0 1049.49   38.80
  -8   8   0  966.30   49.30
  -8   8   0 1010.60   37.50
   6  -8   0  576.84   24.80
   6  -8   0  557.84   27.20
   6  -8   0  564.94   22.90
   6  -8   0  548.05   25.00
  -6   8   0  586.74   23.10
  -6   8   0  549.05   23.40
  -6   8   0  587.54   22.60
  -6   8   0  572.14   28.90
  -6   8   0  509.45   31.40
   4  -8   0 1456.95   55.49
   4  -8   0 1474.95   53.09
   4  -8   0 1348.97   53.39
   4  -8   0 1421.96   53.19
  -4   8   0 1484.75   52.19
  -4   8   0 1372.96   58.79
  -4   8   0 1403.76   52.59
  -4   8   0 1608.54   57.09
  -4   8   0 1438.96   52.99
  -4   8   0 1410.36   50.69
  -4   8   0 1527.95   52.69
  -4   8   0 1410.16   55.79
  -4   8   0 1509.75   52.19
  -4   8   0 1394.66   52.89
   2  -8   0  815.72   32.20
   2  -8   0  804.12   32.80
   2  -8   0  844.22   31.60
   2  -8   0  826.82   32.20
   2  -8   0  821.12   33.30
  -2   8   0  857.71   32.10
  -2   8   0  808.02   33.30
  -2   8   0  855.01   31.70
  -2   8   0  828.72   31.70
  -2   8   0  843.12   33.10
  -2   8   0  827.02   35.40
  -2   8   0  817.52   32.20
  -2   8   0  828.52   32.00
  -2   8   0  811.02   33.50
  -2   8   0  882.71   32.40
   0  -8   0 3446.76  123.59
   0  -8   0 3498.35  123.49
   0  -8   0 3439.96  124.39
   0  -8   0 3493.25  123.19
   0  -8   0 3451.05  123.59
   0   8   0 3678.43  123.69
   0   8   0 3422.36  123.59
   0   8   0 3513.65  124.09
   0   8   0 3558.54  124.19
   0   8   0 3535.85  124.19
   0   8   0 3676.33  123.19
   0   8   0 3590.64  123.49
   0   8   0 3516.15  123.99
   0   8   0 3647.54  123.29
   0   8   0 3599.84  123.69
  -2  -8   0  765.72   31.60
  -2  -8   0  799.52   32.20
  -2  -8   0  820.82   33.30
  -2  -8   0  801.52   30.90
   2   8   0  803.02   31.40
   2   8   0  810.42   29.40
   2   8   0  830.42   31.90
   2   8   0  810.42   31.30
   2   8   0  807.32   34.20
   2   8   0  889.11   33.30
   2   8   0  867.91   31.70
   2   8   0  821.52   32.10
   2   8   0  807.02   33.30
   2   8   0  807.92   32.20
   2   8   0  861.81   30.80
   2   8   0  835.02   31.50
  -4  -8   0 1443.76   51.99
  -4  -8   0 1368.86   53.69
  -4  -8   0 1554.04   52.49
  -4  -8   0 1495.55   54.99
  -4  -8   0 1395.86   53.49
  -4  -8   0 1424.66   54.59
   4   8   0 1485.95   52.79
   4   8   0 1431.56   52.19
   4   8   0 1380.56   55.79
   4   8   0 1412.16   54.79
   4   8   0 1493.25   51.49
   4   8   0 1432.76   54.69
  -6  -8   0  507.35   25.50
  -6  -8   0  576.64   25.70
  -6  -8   0  572.74   22.40
  -6  -8   0  556.74   23.30
  -6  -8   0  547.75   25.40
   6   8   0  561.24   26.80
   6   8   0  559.54   27.50
   6   8   0  520.85   22.70
   6   8   0  584.44   25.70
  -8  -8   0 1039.60   38.70
  -8  -8   0  988.40   41.30
  -8  -8   0  987.40   42.30
  -8  -8   0 1079.29   40.50
  -8  -8   0 1022.00   41.70
   8   8   0  990.50   43.30
   8   8   0 1022.50   45.00
 -10  -8   0  429.06   27.40
 -10  -8   0  474.65   26.00
 -10  -8   0  447.16   22.60
 -10  -8   0  487.35   26.70
  10   8   0  442.56   28.30
  10   8   0  474.95   30.20
 -12  -8   0  278.67   22.20
 -12  -8   0  292.17   26.50
 -12  -8   0  316.37   27.80
 -12  -8   0  321.27   25.10
  12   8   0  293.57   29.50
  12   8   0  316.57   28.10
 -14  -8   0   66.49   20.40
 -14  -8   0   88.09   23.00
 -14  -8   0   75.19   17.80
  14   8   0   94.49   22.00
  14   8   0   87.29   21.90
 -16  -8   0  137.29   27.60
 -16  -8   0  144.39   25.00
 -16  -8   0  236.38   35.10
  16   8   0  164.38   29.40
  16   8   0  169.48   31.60
  16   8   0  199.88   27.00
  16   8   0  217.38   35.50
  15  -9   0  146.69   25.20
  15  -9   0  127.29   21.90
 -15   9   0  120.29   29.00
 -15   9   0   85.39   36.30
  13  -9   0  121.69   19.80
  13  -9   0  145.89   19.40
 -13   9   0  136.49   34.90
 -13   9   0  172.28   27.80
  11  -9   0   53.39   15.90
  11  -9   0   65.09   14.10
  11  -9   0   72.49   13.00
 -11   9   0   32.60   11.70
 -11   9   0   67.69   23.90
 -11   9   0   53.49   18.60
   9  -9   0  622.74   30.70
   9  -9   0  623.74   28.80
   9  -9   0  605.24   32.50
  -9   9   0  604.54   24.50
  -9   9   0  617.64   27.90
  -9   9   0  630.94   41.00
  -9   9   0  569.44   26.40
  -9   9   0  564.14   35.10
   7  -9   0  188.88   11.20
   7  -9   0  159.58   15.10
   7  -9   0  159.68   14.20
   7  -9   0  177.48   16.70
  -7   9   0  152.48   11.70
  -7   9   0  210.18   23.30
  -7   9   0  158.98   11.40
  -7   9   0  149.19   17.20
  -7   9   0  156.58   12.10
   5  -9   0  807.02   30.70
   5  -9   0  718.13   30.80
   5  -9   0  762.52   33.80
   5  -9   0  697.33   31.10
  -5   9   0  782.22   29.60
  -5   9   0  725.73   34.40
  -5   9   0  762.72   29.30
  -5   9   0  742.03   37.30
  -5   9   0  753.42   26.80
  -5   9   0  731.23   29.70
  -5   9   0  767.62   26.60
  -5   9   0  742.63   29.60
   3  -9   0   90.49    8.70
   3  -9   0  112.19   10.90
   3  -9   0   92.59    9.40
   3  -9   0   91.99    9.10
   3  -9   0   71.09    8.90
  -3   9   0  101.89    9.80
  -3   9   0   94.79    8.70
  -3   9   0  104.49   14.50
  -3   9   0   86.69   10.70
  -3   9   0  113.99   10.00
  -3   9   0   91.19    8.70
  -3   9   0   94.69    8.90
   1  -9   0  789.32   31.70
   1  -9   0  748.43   30.30
   1  -9   0  775.72   30.30
   1  -9   0  724.43   29.90
   1  -9   0  756.52   30.50
   1  -9   0  775.12   31.30
  -1   9   0  754.12   30.20
  -1   9   0  799.42   31.10
  -1   9   0  718.53   31.00
  -1   9   0  774.32   31.60
  -1   9   0  772.32   31.10
  -1   9   0  704.43   29.80
  -1   9   0  806.62   32.20
  -1   9   0  778.12   29.90
  -1   9   0  736.83   29.90
  -1  -9   0  735.63   30.60
  -1  -9   0  756.22   31.00
  -1  -9   0  780.52   32.50
  -1  -9   0  799.12   30.40
   1   9   0  790.82   30.40
   1   9   0  749.13   30.20
   1   9   0  743.83   31.00
   1   9   0  809.72   34.00
   1   9   0  784.12   29.60
   1   9   0  772.02   30.70
   1   9   0  788.62   31.00
   1   9   0  776.62   30.50
   1   9   0  783.82   31.20
   1   9   0  734.23   31.90
  -3  -9   0   94.59   10.30
  -3  -9   0   78.09    7.40
  -3  -9   0   81.49    8.70
  -3  -9   0   99.49    9.50
   3   9   0   86.49    8.60
   3   9   0   77.99    8.00
   3   9   0   77.29   10.40
   3   9   0   92.09   10.10
   3   9   0   92.79    8.90
   3   9   0   99.99    8.80
   3   9   0   76.59    9.40
   3   9   0   67.89    9.70
  -5  -9   0  739.63   32.30
  -5  -9   0  737.43   31.30
  -5  -9   0  751.62   28.60
  -5  -9   0  729.13   31.30
  -5  -9   0  790.02   29.50
   5   9   0  750.32   29.10
   5   9   0  792.32   33.10
   5   9   0  606.14   30.20
   5   9   0  692.43   33.60
   5   9   0  784.62   31.00
  -7  -9   0  195.68   14.10
  -7  -9   0  159.38   10.30
  -7  -9   0  145.49   15.10
  -7  -9   0  164.28   15.50
   7   9   0  158.58   16.30
   7   9   0  194.18   18.60
   7   9   0  156.08   15.20
  -9  -9   0  634.54   25.00
  -9  -9   0  608.24   27.50
  -9  -9   0  539.45   30.40
  -9  -9   0  564.24   29.70
   9   9   0  573.84   32.40
   9   9   0  571.84   31.40
 -11  -9   0   61.19   14.80
 -11  -9   0   44.70   12.90
 -11  -9   0   47.50   10.40
 -11  -9   0   39.20   14.70
  11   9   0   65.49   15.50
  11   9   0   50.29   17.00
 -13  -9   0   77.09   31.30
 -13  -9   0  127.99   22.50
 -13  -9   0  136.99   21.70
  13   9   0  117.39   22.90
  13   9   0  129.59   21.10
 -15  -9   0   83.59   24.50
 -15  -9   0   76.29   21.50
  15   9   0  156.78   25.70
  15   9   0  121.59   23.80
  15   9   0  126.99   26.60
  15   9   0  145.99   31.30
  16 -10   0  351.56   34.70
 -16  10   0  353.56   49.80
  14 -10   0   43.20   20.60
  14 -10   0   17.70   18.40
 -14  10   0   15.20   27.60
 -14  10   0  -14.10   31.10
  12 -10   0  355.36   28.60
  12 -10   0  401.16   31.00
 -12  10   0  402.36   42.40
  10 -10   0   16.20   10.50
  10 -10   0   21.40   14.20
  10 -10   0   -1.50   10.40
 -10  10   0  -15.80    9.60
 -10  10   0   11.40   20.30
 -10  10   0   -4.30   16.80
   8 -10   0  423.56   27.60
   8 -10   0  400.46   23.00
   8 -10   0  383.86   23.20
  -8  10   0  403.46   29.30
  -8  10   0  425.16   19.60
  -8  10   0  425.36   32.60
  -8  10   0  443.16   20.40
   6 -10   0  366.36   23.00
   6 -10   0  432.06   21.70
   6 -10   0  379.96   20.70
   6 -10   0  388.06   19.50
  -6  10   0  287.27   27.50
  -6  10   0  400.16   18.50
  -6  10   0  382.96   18.80
  -6  10   0  393.56   18.50
  -6  10   0  345.97   25.20
  -6  10   0  377.06   18.20
   4 -10   0  282.57   16.90
   4 -10   0  284.37   16.40
   4 -10   0  267.87   17.90
   4 -10   0  262.47   16.00
  -4  10   0  280.87   22.70
  -4  10   0  280.87   12.80
  -4  10   0  266.97   15.10
  -4  10   0  287.17   14.80
  -4  10   0  257.57   19.30
  -4  10   0  289.47   15.70
   2 -10   0  988.20   39.30
   2 -10   0 1054.69   41.10
   2 -10   0  964.40   39.20
   2 -10   0 1081.69   40.60
   2 -10   0 1004.90   39.00
   2 -10   0 1030.10   38.90
  -2  10   0  985.50   39.40
  -2  10   0  977.40   38.70
  -2  10   0  974.60   40.30
  -2  10   0 1013.20   42.60
  -2  10   0  965.90   40.30
  -2  10   0  992.80   38.70
   0 -10   0  214.28   13.40
   0 -10   0  207.18   13.20
   0 -10   0  210.78   13.40
   0 -10   0  202.08   13.60
   0 -10   0  224.48   15.40
   0  10   0  191.28   12.70
   0  10   0  196.18   15.00
   0  10   0  212.78   13.90
   0  10   0  214.18   13.80
   0  10   0  198.08   16.00
   0  10   0  187.18   14.90
  -2 -10   0 1047.70   40.00
  -2 -10   0  980.90   40.60
  -2 -10   0  905.81   39.40
  -2 -10   0 1019.20   39.10
   2  10   0 1016.70   39.40
   2  10   0 1037.10   39.00
   2  10   0 1025.80   38.80
   2  10   0 1030.30   37.60
   2  10   0  982.70   38.30
   2  10   0  961.50   40.60
   2  10   0  973.30   41.70
   2  10   0  996.10   35.90
  -4 -10   0  282.57   16.80
  -4 -10   0  283.47   18.90
  -4 -10   0  285.07   14.10
  -4 -10   0  265.47   16.50
   4  10   0  289.47   15.00
   4  10   0  257.27   19.00
   4  10   0  264.77   19.90
   4  10   0  284.77   15.60
   4  10   0  315.57   15.10
  -6 -10   0  367.96   16.60
  -6 -10   0  359.16   20.70
  -6 -10   0  375.56   19.10
  -6 -10   0  390.76   22.20
  -6 -10   0  367.76   21.10
   6  10   0  368.26   14.70
   6  10   0  377.56   17.50
   6  10   0  362.56   23.40
   6  10   0  352.76   22.60
   6  10   0  380.26   21.40
  -8 -10   0  417.76   25.20
  -8 -10   0  492.35   22.40
  -8 -10   0  441.96   19.40
  -8 -10   0  396.46   24.90
   8  10   0  451.35   29.60
   8  10   0  390.76   26.70
 -10 -10   0    1.10    6.40
 -10 -10   0   -2.80   11.60
 -10 -10   0   21.60   12.70
  10  10   0    2.30   14.40
  10  10   0   11.10   13.30
 -12 -10   0  315.97   30.40
  12  10   0  349.27   35.90
  12  10   0  310.77   27.20
 -14 -10   0  -10.50   18.40
 -14 -10   0  -31.80   19.20
  14  10   0   22.80   21.20
  14  10   0  -15.80   22.20
 -16 -10   0  322.27   32.70
  16  10   0  307.07   34.40
  16  10   0  329.97   39.80
  16  10   0  360.46   43.90
  15 -11   0   47.60   26.10
  15 -11   0   33.20   23.20
 -15  11   0   49.50   38.50
 -15  11   0    6.00   31.70
  13 -11   0  -15.70   17.50
  13 -11   0   17.10   18.50
 -13  11   0    4.70   26.30
 -13  11   0   57.69   32.90
  11 -11   0  120.59   18.40
  11 -11   0  110.19   16.90
 -11  11   0  115.79   24.20
 -11  11   0  128.79   31.30
   9 -11   0    8.10   10.80
   9 -11   0   36.80   12.90
   9 -11   0   -2.80   13.60
  -9  11   0    1.40   10.00
  -9  11   0    6.10   21.30
  -9  11   0    0.80   16.60
   7 -11   0   21.10   10.20
   7 -11   0   30.60   12.40
   7 -11   0   43.10    9.60
   7 -11   0   39.10    8.10
  -7  11   0   41.60    8.50
  -7  11   0   32.40    7.50
  -7  11   0   36.40   18.20
  -7  11   0   38.70    8.20
  -7  11   0   43.30   14.70
   5 -11   0    7.20    8.00
   5 -11   0   -6.00    7.40
   5 -11   0   -1.30    8.60
   5 -11   0    0.90    7.60
  -5  11   0   20.00   14.40
  -5  11   0    0.50   10.70
  -5  11   0   10.30    6.60
  -5  11   0   -3.50    3.80
  -5  11   0    2.80    3.60
  -5  11   0    0.00    6.20
   3 -11   0    7.80    6.20
   3 -11   0    3.90    7.30
   3 -11   0   -5.20    6.60
   3 -11   0    1.60    6.50
  -3  11   0   -4.20    9.30
  -3  11   0    5.60    6.40
  -3  11   0   -7.50    7.50
  -3  11   0    2.20   11.30
   1 -11   0    7.30    6.50
   1 -11   0   11.00    7.00
   1 -11   0   12.70    7.40
   1 -11   0    0.00    5.70
  -1  11   0    8.50    8.00
  -1  11   0   13.40    7.30
  -1  11   0   -1.40    6.90
  -1  11   0   14.10    8.80
  -1 -11   0   19.00    6.60
  -1 -11   0    6.90    6.20
  -1 -11   0   -0.90    7.50
  -1 -11   0    8.10    6.20
   1  11   0    7.10    6.60
   1  11   0   17.80    8.50
   1  11   0    4.40    7.20
   1  11   0    7.20    8.00
   1  11   0    5.20    6.60
   1  11   0    8.80    5.30
  -3 -11   0   15.60    5.80
  -3 -11   0   -9.20    7.40
  -3 -11   0   -2.60    6.70
  -3 -11   0    7.10    6.60
   3  11   0   -0.50    6.10
   3  11   0    7.90    6.40
   3  11   0   -5.10    6.60
   3  11   0    1.20    5.90
   3  11   0   11.80    9.40
   3  11   0   -2.70    8.10
  -5 -11   0   -0.20    8.00
  -5 -11   0    1.00    4.30
  -5 -11   0    1.40    7.80
  -5 -11   0    2.00    8.60
   5  11   0   -2.10    9.00
   5  11   0    4.00    5.20
   5  11   0  -12.50    9.80
   5  11   0   18.70    8.30
   5  11   0    2.60    5.90
  -7 -11   0   35.30   10.30
  -7 -11   0   64.79   10.20
  -7 -11   0   43.30   10.40
  -7 -11   0   33.40    6.00
   7  11   0   28.60   11.80
   7  11   0   39.90   12.60
  -9 -11   0    6.70   11.70
  -9 -11   0   13.30   11.50
  -9 -11   0    9.50    6.10
   9  11   0   -5.20   11.90
   9  11   0   24.30   15.00
  11  11   0   94.89   20.80
 -13 -11   0  -11.10   18.00
 -13 -11   0   23.80   17.60
  13  11   0    9.00   19.40
  13  11   0   26.70   19.90
 -15 -11   0    6.60   24.00
 -15 -11   0  -13.70   25.70
  15  11   0   34.30   33.70
  15  11   0  -34.30   25.30
  15  11   0   21.70   26.20
  14 -12   0  318.27   30.90
  14 -12   0  194.78   26.90
 -14  12   0  188.18   43.50
 -14  12   0  194.98   35.30
  12 -12   0   51.19   18.50
  12 -12   0   53.29   18.70
 -12  12   0   57.19   33.20
 -12  12   0   61.29   27.70
  10 -12   0  331.27   28.20
  10 -12   0  362.06   26.60
 -10  12   0  332.27   31.70
 -10  12   0  204.78   42.30
   8 -12   0   58.19   10.00
   8 -12   0   44.60   11.70
   8 -12   0   50.59   12.50
  -8  12   0   49.50   18.00
  -8  12   0   68.69   22.70
   6 -12   0  520.45   24.80
   6 -12   0  536.85   27.20
   6 -12   0  497.15   25.60
  -6  12   0  498.75   34.90
  -6  12   0  500.75   23.10
  -6  12   0  441.46   23.90
  -6  12   0  468.45   30.90
   4 -12   0  408.66   22.40
   4 -12   0  460.45   23.30
   4 -12   0  440.36   22.20
  -4  12   0  415.46   18.20
  -4  12   0  393.16   25.40
  -4  12   0  370.76   23.80
  -4  12   0  380.36   28.10
  -4  12   0  333.97   22.10
   2 -12   0  104.69   12.60
   2 -12   0   69.39   10.50
   2 -12   0   77.59   10.70
   2 -12   0   73.19    9.60
  -2  12   0  105.79   12.40
  -2  12   0   73.79   13.20
  -2  12   0   90.39   12.30
  -2  12   0   84.39   11.70
  -2  12   0   72.79   12.50
   0 -12   0  800.12   33.10
   0 -12   0  760.72   33.50
   0 -12   0  781.02   35.00
   0  12   0  771.82   34.50
   0  12   0  794.42   34.00
   0  12   0  774.32   33.30
   0  12   0  782.42   35.50
   0  12   0  783.82   32.40
  -2 -12   0   83.59   10.40
  -2 -12   0   72.39    8.80
  -2 -12   0   60.09   11.10
  -2 -12   0   74.69   10.30
   2  12   0   73.69   10.20
   2  12   0   68.89    6.60
   2  12   0   80.69    8.80
   2  12   0   48.30    9.90
   2  12   0   87.89   10.30
   2  12   0   63.19   11.90
   2  12   0   56.29   11.50
  -4 -12   0  358.06   23.40
  -4 -12   0  426.96   22.80
  -4 -12   0  434.46   20.50
  -4 -12   0  409.96   24.40
   4  12   0  407.56   27.10
   4  12   0  422.66   25.00
   4  12   0  442.66   20.70
   4  12   0  427.76   21.00
   4  12   0  417.76   20.40
  -6 -12   0  481.35   22.30
  -6 -12   0  544.05   27.80
  -6 -12   0  473.45   26.30
   6  12   0  507.45   26.90
   6  12   0  474.95   28.50
   6  12   0  480.95   21.80
   6  12   0  487.05   19.80
   6  12   0  420.86   28.90
  -8 -12   0   68.39   13.80
  -8 -12   0   74.39   14.30
  -8 -12   0   37.30    6.90
   8  12   0   66.69   16.80
   8  12   0   52.39   14.10
 -10 -12   0  315.07   27.70
  10  12   0  285.77   28.50
  10  12   0  337.87   33.20
 -12 -12   0   40.40   19.90
 -12 -12   0   69.59   19.10
  12  12   0    1.80   20.20
  12  12   0   70.59   21.10
 -14 -12   0  241.18   29.30
 -14 -12   0  195.28   26.80
  14  12   0  234.78   32.80
  14  12   0  208.08   29.10
  13 -13   0   80.99   25.30
  13 -13   0   13.80   20.50
 -13  13   0  119.49   33.30
 -13  13   0   67.79   36.50
  11 -13   0  233.88   22.90
  11 -13   0  187.38   24.10
 -11  13   0  180.68   35.70
 -11  13   0  221.28   31.20
   9 -13   0   61.39   15.10
   9 -13   0   66.49   15.40
  -9  13   0   53.39   29.20
  -9  13   0   32.80   21.40
   7 -13   0  493.95   26.40
   7 -13   0  448.56   27.10
   7 -13   0  468.55   27.40
  -7  13   0  457.85   38.00
  -7  13   0  458.05   34.40
  -7  13   0  499.35   30.50
   5 -13   0   16.10    9.70
   5 -13   0   18.30   10.40
   5 -13   0   28.10   10.20
  -5  13   0    8.60   16.40
  -5  13   0   30.90    5.60
  -5  13   0   16.30   12.20
  -5  13   0    8.00   13.80
   3 -13   0  911.31   38.30
   3 -13   0  832.32   36.60
   3 -13   0  862.21   38.00
   3 -13   0  885.61   36.60
  -3  13   0  843.42   37.30
  -3  13   0  859.51   39.60
  -3  13   0  828.62   39.00
  -3  13   0  868.11   41.40
  -3  13   0  872.11   35.70
   1 -13   0  170.58   16.10
   1 -13   0  155.38   15.10
   1 -13   0  156.98   14.60
   1 -13   0  168.48   15.60
  -1  13   0  185.28   19.00
  -1  13   0  157.98   15.70
  -1  13   0  156.38   15.40
  -1  13   0  186.28   18.20
  -1  13   0  168.28   17.50
  -1 -13   0  164.28   16.70
  -1 -13   0  167.38   15.30
  -1 -13   0  163.88   15.60
   1  13   0  149.88   14.90
   1  13   0  171.58   16.20
   1  13   0  163.18   16.40
   1  13   0  151.18   12.90
   1  13   0  170.38   11.70
  -3 -13   0  841.02   38.50
  -3 -13   0  817.22   34.70
  -3 -13   0  877.61   37.50
  -3 -13   0  854.21   36.80
   3  13   0  754.82   36.50
   3  13   0  861.91   34.00
   3  13   0  873.11   36.50
   3  13   0  842.02   40.40
   3  13   0  848.52   38.40
   3  13   0  826.12   35.20
  -5 -13   0   30.80   11.70
  -5 -13   0   12.00   10.20
  -5 -13   0   19.70   10.50
  -5 -13   0   25.70    7.90
   5  13   0   15.40   12.70
   5  13   0   27.70   12.40
  -7 -13   0  476.35   28.60
  -7 -13   0  444.56   28.00
  -7 -13   0  413.26   22.70
   7  13   0  504.95   33.30
   7  13   0  448.26   29.70
  -9 -13   0   75.29   16.60
  -9 -13   0   66.09   19.50
   9  13   0   31.50   16.30
   9  13   0   51.09   19.10
 -11 -13   0  214.28   23.60
 -11 -13   0  199.28   22.70
  11  13   0  218.38   26.00
  11  13   0  196.08   26.90
 -13 -13   0   67.59   23.50
 -13 -13   0   86.19   22.00
  13  13   0   92.79   24.80
  13  13   0   60.39   25.20
  14 -14   0  195.28   32.60
 -14  14   0   81.49   43.70
  12 -14   0  -15.20   19.00
  12 -14   0   24.70   23.50
 -12  14   0   25.20   29.50
 -12  14   0   69.09   33.70
  10 -14   0  425.96   33.50
  10 -14   0  392.16   34.20
 -10  14   0  437.26   48.70
   8 -14   0    9.30   13.80
   8 -14   0   15.30   14.10
  -8  14   0   28.60   20.90
  -8  14   0   -6.10   24.60
   6 -14   0  446.96   27.50
   6 -14   0  435.86   28.30
   6 -14   0  461.45   26.70
  -6  14   0  351.16   31.70
  -6  14   0  405.16   30.30
  -6  14   0  476.55   36.30
   4 -14   0  263.87   20.70
   4 -14   0  284.87   22.20
   4 -14   0  272.37   21.70
  -4  14   0  282.17   18.10
  -4  14   0  270.77   21.70
  -4  14   0  256.47   26.80
  -4  14   0  237.88   22.80
  -4  14   0  242.28   24.90
   2 -14   0  535.95   28.30
   2 -14   0  502.95   26.30
   2 -14   0  510.45   27.10
  -2  14   0  489.95   28.50
  -2  14   0  476.05   28.50
  -2  14   0  463.55   25.70
  -2  14   0  478.25   28.80
  -2  14   0  458.75   28.40
  -2  14   0  463.45   27.10
  -2  14   0  495.25   28.00
   0 -14   0  541.35   27.50
   0 -14   0  564.34   30.10
   0 -14   0  515.95   26.80
   0  14   0  506.95   26.70
   0  14   0  546.55   26.60
   0  14   0  494.65   28.50
   0  14   0  472.05   29.00
   0  14   0  516.75   29.90
  -2 -14   0  501.55   28.40
  -2 -14   0  481.85   26.40
  -2 -14   0  475.55   26.60
   2  14   0  478.25   18.60
   2  14   0  471.55   18.80
   2  14   0  482.05   25.20
   2  14   0  484.55   29.60
   2  14   0  479.05   28.30
  -4 -14   0  251.47   18.50
  -4 -14   0  269.87   21.70
  -4 -14   0  298.77   23.30
  -4 -14   0  275.47   22.30
   4  14   0  257.77   24.70
   4  14   0  274.37   24.50
   4  14   0  278.67   19.20
  -6 -14   0  419.66   27.90
  -6 -14   0  412.56   27.50
  -6 -14   0  405.46   22.00
   6  14   0  418.76   32.70
   6  14   0  389.96   29.00
  -8 -14   0   29.70   15.20
  -8 -14   0   28.30   15.50
   8  14   0   18.60   18.50
   8  14   0   28.50   16.50
 -10 -14   0  375.46   34.50
 -10 -14   0  421.56   34.70
  10  14   0  417.16   35.30
  10  14   0  382.66   40.30
 -12 -14   0   23.30   20.50
 -12 -14   0  -25.90   20.90
  12  14   0   38.30   23.90
  12  14   0  -24.10   22.00
  13 -15   0   27.20   29.10
 -13  15   0    7.50   40.20
  11 -15   0   11.90   19.40
  11 -15   0   59.19   23.50
 -11  15   0   68.99   36.20
 -11  15   0   40.90   31.20
   9 -15   0   78.39   19.10
   9 -15   0   58.59   19.20
  -9  15   0   70.79   25.50
  -9  15   0   12.50   28.30
   7 -15   0    3.80   14.20
   7 -15   0   44.80   15.60
  -7  15   0   19.30   18.80
  -7  15   0   29.70   23.40
  -7  15   0   -6.90   20.60
   5 -15   0   22.70   13.70
   5 -15   0    9.80   12.80
   5 -15   0   33.60   13.40
  -5  15   0   18.80   16.70
  -5  15   0   29.50   19.90
  -5  15   0   28.20   16.30
  -5  15   0   57.39   13.50
   3 -15   0   -1.90   11.30
   3 -15   0    2.10   11.90
  -3  15   0    8.30   11.70
  -3  15   0    2.50   12.70
  -3  15   0   31.50   15.80
  -3  15   0   12.90   13.40
  -3  15   0    0.30   14.60
  -3  15   0   -9.70   12.70
  -3  15   0   -2.40    9.80
   1 -15   0   14.20   10.90
   1 -15   0   36.80   13.10
   1 -15   0   23.00   10.90
  -1  15   0   20.00   12.30
  -1  15   0   15.70   13.30
  -1  15   0   25.90   14.60
  -1  15   0   24.70   12.00
  -1  15   0   18.60   12.70
  -1  15   0   17.70   12.60
  -1 -15   0   -4.80   10.50
  -1 -15   0   32.30   11.60
  -1 -15   0   21.40   12.70
   1  15   0   28.10    8.10
   1  15   0   31.10   13.30
   1  15   0   33.50   11.70
   1  15   0   16.70   13.90
   1  15   0   12.50   12.30
  -3 -15   0    7.40   10.70
  -3 -15   0   -6.90   11.80
  -3 -15   0   -0.90   11.40
   3  15   0   15.80   13.20
   3  15   0    2.30   13.30
   3  15   0    0.40   10.70
  -5 -15   0   38.70   13.40
  -5 -15   0   37.90   13.40
   5  15   0   47.40   11.60
   5  15   0   34.60   16.50
   5  15   0   41.00   15.80
  -7 -15   0    5.80   13.80
  -7 -15   0   25.20   14.30
   7  15   0    8.30   18.60
   7  15   0   30.60   16.90
  -9 -15   0   42.60   17.60
  -9 -15   0   38.00   18.40
   9  15   0   30.60   23.20
   9  15   0   45.40   19.50
 -11 -15   0    9.70   18.60
 -11 -15   0  -40.90   20.20
  11  15   0   -6.60   22.10
  11  15   0  -30.40   23.10
  13  15   0   21.90   31.50
  12 -16   0  153.98   31.40
 -12  16   0  216.88   42.50
  10 -16   0    7.20   19.20
  10 -16   0  -13.80   22.40
 -10  16   0   44.00   34.20
 -10  16   0   21.00   30.10
 -10  16   0   67.79   27.80
   8 -16   0   90.19   20.50
   8 -16   0  113.69   21.40
  -8  16   0  145.09   33.60
  -8  16   0   98.99   25.20
  -8  16   0   89.39   25.90
   6 -16   0  105.29   18.60
  -6  16   0  106.69   26.30
  -6  16   0   91.69   23.70
  -6  16   0  114.69   17.50
  -6  16   0  131.89   23.50
   4 -16   0   45.00   15.10
   4 -16   0   18.20   14.50
  -4  16   0   11.50   11.60
  -4  16   0   26.00   14.90
  -4  16   0   20.30   16.00
  -4  16   0   15.50   19.30
  -4  16   0   39.50   14.60
  -4  16   0   38.20   18.50
  -4  16   0    9.20   16.30
   2 -16   0  265.67   26.00
   2 -16   0  258.77   23.70
  -2  16   0  252.47   26.90
  -2  16   0  277.17   26.80
  -2  16   0  249.08   20.90
  -2  16   0  278.17   24.60
  -2  16   0  304.87   28.00
  -2  16   0  238.88   26.40
  -2  16   0  281.27   26.80
   0 -16   0   -4.50   13.40
   0 -16   0   -2.00   11.60
   0 -16   0   22.70   12.70
   0  16   0   -5.30   13.90
   0  16   0    5.50   12.80
   0  16   0   11.90   14.40
   0  16   0   -2.70   13.90
   0  16   0  -14.20   12.10
  -2 -16   0  252.37   24.40
  -2 -16   0  248.98   24.70
  -2 -16   0  274.47   26.50
   2  16   0  271.57   26.10
   2  16   0  242.68   23.50
   2  16   0  236.68   20.90
   2  16   0  255.47   22.30
  -4 -16   0   41.30   14.60
   4  16   0   52.89   18.50
   4  16   0   20.70   11.80
   4  16   0    1.90   15.00
  -6 -16   0  105.69   19.40
  -6 -16   0  127.59   18.90
   6  16   0  117.89   23.00
   6  16   0  111.49   21.20
  -8 -16   0   90.99   20.30
  -8 -16   0   55.49   19.20
   8  16   0   48.60   21.40
   8  16   0   94.49   24.60
 -10 -16   0    8.80   23.00
 -10 -16   0  -17.50   18.80
  10  16   0   -1.20   22.00
  10  16   0   35.40   23.30
 -12 -16   0  145.79   33.70
  12  16   0  114.59   31.10
  11 -17   0    6.10   28.50
 -11  17   0    3.80   40.90
 -11  17   0   23.70   52.69
   9 -17   0  223.68   29.40
   9 -17   0  130.99   24.40
  -9  17   0  181.78   40.10
  -9  17   0  132.99   30.20
   7 -17   0   57.49   20.90
   7 -17   0   43.80   19.90
  -7  17   0   47.80   24.80
  -7  17   0   12.50   28.90
  -7  17   0  -20.80   24.90
   5 -17   0  161.58   22.10
  -5  17   0  220.58   26.70
  -5  17   0  235.38   27.20
  -5  17   0  214.18   22.40
  -5  17   0  250.17   31.40
  -5  17   0  241.98   26.20
   3 -17   0  115.69   19.20
  -3  17   0  141.69   20.90
  -3  17   0  122.59   17.10
  -3  17   0  163.08   21.70
  -3  17   0  109.19   19.60
  -3  17   0  145.89   22.20
  -3  17   0  185.88   24.90
   1 -17   0  152.28   19.40
  -1  17   0  167.98   20.50
  -1  17   0  173.18   21.60
  -1  17   0  181.98   20.30
  -1  17   0  170.78   21.90
  -1  17   0  192.48   23.90
  -1  17   0  190.98   20.70
  -1 -17   0  138.99   20.10
  -1 -17   0  192.18   31.70
  -1 -17   0  186.18   19.40
   1  17   0  123.39   20.70
   1  17   0  127.49   19.70
   1  17   0  189.38   19.90
  -3 -17   0  135.29   20.20
  -3 -17   0  148.59   20.20
   3  17   0  132.59   21.00
  -5 -17   0  184.48   21.80
   5  17   0  168.08   24.40
   5  17   0  154.68   23.60
  -7 -17   0   11.10   17.10
  -7 -17   0   43.80   20.50
   7  17   0    8.30   23.00
   7  17   0   32.80   21.10
  -9 -17   0  126.39   24.20
  -9 -17   0  113.39   25.60
   9  17   0  129.99   26.00
   9  17   0   57.89   24.80
 -11 -17   0  -12.40   29.90
  11  17   0    1.10   28.80
  10 -18   0   47.30   30.90
 -10  18   0   38.40   53.29
 -10  18   0   41.80   42.20
   8 -18   0  163.28   26.80
   8 -18   0  152.18   29.30
  -8  18   0  181.18   32.90
  -8  18   0  205.08   40.70
   6 -18   0   55.49   23.00
  -6  18   0  141.69   26.90
  -6  18   0  127.69   27.60
  -6  18   0  178.28   34.30
  -4  18   0  407.16   39.30
  -4  18   0  428.36   41.30
  -4  18   0  375.56   36.20
  -4  18   0  395.86   39.50
  -2  18   0   30.00   17.30
  -2  18   0   42.30   20.60
  -2  18   0   22.80   19.30
  -2  18   0   46.00   19.90
   0 -18   0  719.53   40.60
   0  18   0  588.64   46.90
   0  18   0  710.83   43.40
   0  18   0  726.63   44.70
   0  18   0  716.33   42.90
   0  18   0  683.73   39.60
  -2 -18   0   47.40   20.00
  -2 -18   0   53.79   17.60
   2  18   0   54.39   22.20
   2  18   0   28.10   19.10
   2  18   0   18.20   20.60
  -4 -18   0  436.26   36.00
  -4 -18   0  414.36   37.30
   4  18   0  400.36   40.20
   4  18   0  337.47   31.30
  -6 -18   0  127.39   22.60
  -6 -18   0   92.79   23.90
   6  18   0  111.29   26.80
   6  18   0  114.59   24.20
  -8 -18   0  163.28   26.10
  -8 -18   0  178.08   29.40
   8  18   0  156.68   30.70
   8  18   0  152.38   28.90
 -10 -18   0   29.50   31.70
  10  18   0  -24.70   30.90
   7 -19   0  126.99   30.20
  -7  19   0  272.77   44.80
  -7  19   0  227.68   36.00
  -5  19   0   18.70   27.00
  -5  19   0   44.00   27.00
  -5  19   0   89.29   34.30
  -3  19   0  151.08   29.60
  -3  19   0  154.28   26.90
  -1  19   0   39.90   25.50
  -1  19   0  -16.20   21.40
  -1  19   0    9.90   20.90
  -1 -19   0   -9.20   19.20
  -1 -19   0    0.60   20.70
   1  19   0   27.10   23.20
   1  19   0    0.60   22.80
   1  19   0   31.00   21.00
  -3 -19   0  123.29   22.60
  -3 -19   0  148.09   25.20
   3  19   0   79.39   27.20
   3  19   0  116.39   25.00
   3  19   0  135.29   27.30
  -5 -19   0   20.50   19.60
  -5 -19   0  -17.90   23.70
   5  19   0  -20.80   23.70
   5  19   0   35.70   26.40
   5  19   0   21.00   24.60
  -7 -19   0  217.08   28.70
  -7 -19   0  160.38   29.90
   7  19   0  145.39   30.90
   7  19   0  186.68   34.20
   7  19   0  147.79   31.90
  -6  20   0   54.79   32.70
  -2  20   0  -11.10   26.50
  -2  20   0   18.60   29.70
   0 -20   0  252.97   29.10
   0  20   0  259.77   31.40
   0  20   0  244.48   31.20
   0  20   0  236.38   31.60
  -2 -20   0  -11.50   22.80
  -2 -20   0   26.50   25.10
   2  20   0  -23.10   27.90
   2  20   0   -2.50   26.10
   2  20   0    8.10   26.20
  -4 -20   0  125.89   28.30
  -4 -20   0  123.59   29.90
   4  20   0  118.59   31.30
   4  20   0  124.89   29.70
   4  20   0  138.09   30.60
  -6 -20   0  -23.40   28.40
   6  20   0   55.49   35.50
   6  20   0  -93.99   28.80
   6  20   0    8.40   34.70
  -1 -21   0   80.89   29.90
   1  21   0  109.09   32.80
   1  21   0   82.89   32.50
   3  21   0   35.30   33.90
   3  21   0    7.90   33.80
   3  21  -1  -17.30   31.60
   3  21  -1  -39.40   34.00
   3  21  -1  -24.00   31.20
  -3 -21   1   26.00   28.90
   1  21  -1   19.70   32.50
   1  21  -1    4.40   29.30
  -1 -21   1   21.90   29.00
  -1  21  -1    7.90   32.40
  -1  21  -1  -53.59   45.60
   6  20  -1   33.80   30.90
   6  20  -1   71.39   31.90
  -6 -20   1   46.70   28.50
   4  20  -1    8.60   28.00
   4  20  -1   19.90   28.30
  -4 -20   1  -21.90   23.00
   2  20  -1    9.50   27.10
   2  20  -1  -11.50   25.90
   2  20  -1   66.59   27.40
  -2 -20   1   32.70   24.50
  -2 -20   1  -44.90   23.10
   0  20  -1   41.80   28.20
   0  20  -1  -39.70   25.70
   0 -20   1  -12.40   22.30
   0 -20   1   25.40   25.30
  -2  20  -1   53.19   28.50
  -2  20  -1   69.29   29.00
  -2  20  -1   23.10   29.50
   2 -20   1  -45.20   24.80
  -4  20  -1   64.89   32.20
  -4  20  -1   44.50   31.70
   9  19  -1  -39.00   32.90
  -9 -19   1   69.69   48.90
   7  19  -1    0.00   25.70
   7  19  -1  -71.89   25.60
  -7 -19   1   11.20   23.50
  -7 -19   1   12.30   26.40
   5  19  -1   38.80   24.70
   5  19  -1   50.89   25.10
  -5 -19   1   55.49   20.90
  -5 -19   1   45.50   23.70
   3  19  -1   61.79   24.20
   3  19  -1   40.30   25.10
  -3 -19   1   36.80   22.40
  -3 -19   1   37.80   19.60
   1  19  -1   48.90   25.40
   1  19  -1   64.69   23.70
   1  19  -1   19.10   23.70
  -1 -19   1   26.50   21.80
  -1 -19   1   23.00   19.90
  -1  19  -1   58.69   24.90
  -1  19  -1  103.09   26.50
  -1  19  -1   70.79   25.00
   1 -19   1   24.30   21.40
   1 -19   1   50.99   21.90
  -3  19  -1   48.80   25.60
  -3  19  -1   52.19   26.70
  -3  19  -1   28.20   24.90
   3 -19   1   44.30   24.60
  -5  19  -1  117.39   36.00
  -5  19  -1   93.89   30.10
  -5  19  -1  175.98   32.70
   5 -19   1   48.00   27.40
   5 -19   1   44.00   24.70
  -7  19  -1   99.99   33.50
  -7  19  -1   54.79   41.10
  -7  19  -1   77.19   35.40
   7 -19   1   13.70   29.00
  10  18  -1  -65.39   28.20
 -10 -18   1   34.70   28.90
   8  18  -1  143.69   28.60
   8  18  -1  136.49   30.20
  -8 -18   1  183.78   26.20
  -8 -18   1  138.79   28.30
   6  18  -1   -3.80   22.20
   6  18  -1   24.90   23.10
  -6 -18   1    4.80   20.70
  -6 -18   1  -10.20   18.80
   4  18  -1  311.37   32.10
   4  18  -1  318.27   30.20
  -4 -18   1  357.56   33.30
  -4 -18   1  331.37   27.70
  -4 -18   1  335.67   28.40
   2  18  -1   35.80   21.10
   2  18  -1   -1.30   19.10
   2  18  -1  -34.80   18.50
  -2 -18   1  -22.50   15.70
  -2 -18   1  -10.40   16.70
  -2 -18   1   -3.70   18.60
   0  18  -1  312.77   31.20
   0  18  -1  347.67   33.60
   0  18  -1  291.77   36.70
   0 -18   1  412.16   34.30
   0 -18   1  330.27   32.50
  -2  18  -1   11.90   20.50
  -2  18  -1   29.10   21.60
  -2  18  -1   73.29   23.30
  -2  18  -1   42.90   22.10
   2 -18   1   -1.40   19.30
  -4  18  -1  241.18   31.70
  -4  18  -1  122.99   24.40
  -4  18  -1  155.88   27.60
  -4  18  -1  144.39   26.80
   4 -18   1  186.58   25.10
   4 -18   1  179.88   25.00
  -6  18  -1  194.68   30.90
  -6  18  -1  223.68   36.60
  -6  18  -1  224.78   33.90
   6 -18   1  168.58   26.80
   6 -18   1  158.48   26.20
  -8  18  -1    2.20   31.30
   8 -18   1   18.80   26.20
   8 -18   1   32.30   27.40
  11  17  -1   57.99   33.10
  11  17  -1    8.50   28.70
 -11 -17   1   19.80   26.80
 -11 -17   1  -27.90   24.50
   9  17  -1   18.10   24.40
   9  17  -1   70.29   25.70
  -9 -17   1   88.29   21.50
  -9 -17   1   61.79   24.00
   7  17  -1    7.10   21.80
   7  17  -1   22.50   21.70
  -7 -17   1   48.10   20.40
  -7 -17   1   23.00   18.90
   5  17  -1  -23.20   18.40
   5  17  -1   -0.10   19.20
   5  17  -1  -15.30   19.20
  -5 -17   1    3.90   17.80
  -5 -17   1   -0.80   16.30
  -5 -17   1   -6.40   15.10
   3  17  -1   30.00   21.50
   3  17  -1   24.50   18.20
   3  17  -1   20.30   17.10
  -3 -17   1    1.90   17.00
  -3 -17   1    8.60   15.30
  -3 -17   1    3.10   14.30
   1  17  -1   -0.70   16.10
   1  17  -1    7.40   17.50
   1  17  -1    1.90   17.50
  -1 -17   1   13.30   14.10
  -1 -17   1   14.20   15.60
  -1  17  -1    8.70   17.50
  -1  17  -1   28.20   17.50
  -1  17  -1   34.30   17.40
  -1  17  -1   16.70   18.10
   1 -17   1  -42.30   24.50
   1 -17   1   14.70   13.80
  -3  17  -1   41.10   19.60
  -3  17  -1   47.60   21.90
  -3  17  -1   35.00   20.80
   3 -17   1   40.30   16.80
  -5  17  -1    3.60   21.40
  -5  17  -1    7.20   21.60
  -5  17  -1   58.59   43.00
   5 -17   1   21.20   21.70
   5 -17   1   20.00   18.40
  -7  17  -1   -7.50   29.70
  -7  17  -1   -1.80   23.70
   7 -17   1   -1.60   18.90
   7 -17   1   -1.70   20.30
   7 -17   1   13.40   23.20
  -9  17  -1   56.19   29.90
  -9  17  -1   81.99   37.90
   9 -17   1  -24.50   22.90
   9 -17   1  -25.80   24.90
  12  16  -1    1.90   26.00
  12  16  -1   24.80   31.00
 -12 -16   1  -21.70   25.60
 -12 -16   1   13.10   24.00
  10  16  -1   -7.80   22.50
  10  16  -1    5.50   24.50
 -10 -16   1   17.90   19.90
 -10 -16   1   44.80   22.00
   8  16  -1  187.38   26.00
   8  16  -1  167.48   25.80
  -8 -16   1  186.78   22.30
   6  16  -1   48.80   19.90
   6  16  -1   34.40   18.90
   6  16  -1   28.90   15.80
  -6 -16   1   66.39   18.20
  -6 -16   1   51.89   15.90
  -6 -16   1   50.19   17.70
   4  16  -1  220.58   20.90
   4  16  -1  159.38   21.90
   4  16  -1  192.38   22.50
  -4 -16   1  189.28   26.00
  -4 -16   1  181.38   18.10
  -4 -16   1  200.68   20.40
   2  16  -1   15.10   16.60
   2  16  -1   30.50   15.80
   2  16  -1   31.40   15.00
  -2 -16   1   23.80   13.90
  -2 -16   1   -8.10   11.50
  -2 -16   1   23.10   12.00
   0  16  -1  278.77   28.70
   0  16  -1  278.27   23.00
   0  16  -1  272.47   27.90
   0  16  -1  265.87   23.10
   0  16  -1  299.47   25.70
   0 -16   1  266.47   23.80
   0 -16   1  249.38   26.50
  -2  16  -1    6.50   16.90
  -2  16  -1    9.20   15.10
  -2  16  -1   22.60   16.70
   2 -16   1    3.30   15.00
   2 -16   1   10.00   14.30
   2 -16   1    3.70   11.60
  -4  16  -1   14.10   15.50
  -4  16  -1   24.90   21.50
  -4  16  -1   31.70   17.90
   4 -16   1   31.50   15.20
   4 -16   1    7.70   24.20
  -6  16  -1   25.50   20.00
  -6  16  -1  -12.50   20.20
   6 -16   1    3.40   16.80
   6 -16   1   -7.90   16.40
   6 -16   1   11.70   17.00
  -8  16  -1   29.00   23.90
  -8  16  -1   42.70   33.00
  -8  16  -1   35.40   25.30
   8 -16   1   33.50   20.20
   8 -16   1   24.40   21.00
 -10  16  -1   52.59   30.00
 -10  16  -1   79.29   39.30
  10 -16   1   21.00   24.50
  10 -16   1   39.60   25.20
  13  15  -1  -42.60   26.70
  13  15  -1   74.19   31.00
 -13 -15   1   48.50   23.30
 -13 -15   1   25.10   26.10
  11  15  -1  308.97   31.00
  11  15  -1  328.37   33.60
 -11 -15   1  353.36   34.50
 -11 -15   1  267.17   28.10
   9  15  -1  -31.60   18.10
   9  15  -1    7.20   20.20
  -9 -15   1   -5.50   15.90
   7  15  -1  283.77   23.70
   7  15  -1  238.28   25.00
   7  15  -1  274.77   27.20
  -7 -15   1  242.38   23.90
  -7 -15   1  244.58   23.10
  -7 -15   1  283.37   24.90
   5  15  -1   43.20   17.60
   5  15  -1   32.00   14.20
   5  15  -1   13.90   15.20
  -5 -15   1   64.99   15.90
  -5 -15   1   42.00   13.70
  -5 -15   1   49.90   12.60
   3  15  -1   21.40   14.90
   3  15  -1   11.60   13.90
   3  15  -1   32.20   13.40
  -3 -15   1    9.00   10.30
  -3 -15   1   36.40   12.70
  -3 -15   1   11.80   14.00
   1  15  -1  481.85   31.90
   1  15  -1  484.05   31.40
   1  15  -1  477.85   20.10
   1  15  -1  460.95   28.20
   1  15  -1  463.95   24.80
  -1 -15   1  457.85   26.60
  -1 -15   1  480.65   30.50
  -1 -15   1  469.15   25.80
  -1  15  -1   22.90   13.50
  -1  15  -1   40.70   14.00
  -1  15  -1   16.30   13.40
  -1  15  -1   22.40   13.00
  -1  15  -1   63.49   10.10
   1 -15   1   35.60   12.90
   1 -15   1   35.50   11.40
   1 -15   1   37.00   14.00
  -3  15  -1  470.35   31.00
  -3  15  -1  410.86   24.90
  -3  15  -1  411.76   27.40
  -3  15  -1  429.46   33.00
  -3  15  -1  422.86   31.80
   3 -15   1  536.25   29.40
   3 -15   1  482.35   29.70
  -5  15  -1  239.68   25.30
  -5  15  -1  263.37   27.80
  -5  15  -1  238.48   28.90
   5 -15   1  214.38   20.60
   5 -15   1  217.28   21.00
  -7  15  -1  386.06   39.50
  -7  15  -1  371.36   36.30
  -7  15  -1  353.76   35.90
   7 -15   1  373.36   32.20
   7 -15   1  377.36   31.60
   7 -15   1  426.06   29.90
  -9  15  -1   76.49   33.40
  -9  15  -1   61.19   27.30
  -9  15  -1   39.10   25.20
   9 -15   1   22.30   18.70
   9 -15   1   11.70   18.70
 -11  15  -1   76.29   29.90
 -11  15  -1   74.49   34.10
 -11  15  -1   66.19   38.20
  11 -15   1  108.59   25.20
  11 -15   1   68.89   25.90
  14  14  -1   46.00   33.80
  14  14  -1   36.70   28.90
 -14 -14   1   36.90   26.80
 -14 -14   1    1.10   22.90
  12  14  -1   -8.40   20.50
  12  14  -1   -0.30   23.10
 -12 -14   1   25.40   19.90
 -12 -14   1    1.00   18.30
  10  14  -1  151.18   23.50
  10  14  -1  161.98   24.70
 -10 -14   1  178.28   21.40
 -10 -14   1  137.99   25.50
   8  14  -1   16.40   12.60
   8  14  -1    9.70   16.10
  -8 -14   1   -4.70   13.70
  -8 -14   1  -11.10   21.60
  -8 -14   1   22.90   13.90
   6  14  -1  370.26   29.90
   6  14  -1  390.86   31.50
   6  14  -1  363.36   24.90
  -6 -14   1  405.46   25.30
  -6 -14   1  406.36   27.20
  -6 -14   1  382.26   28.30
   4  14  -1   -8.70   10.60
   4  14  -1    5.60   12.30
   4  14  -1    1.30   12.30
   4  14  -1    1.30    6.80
  -4 -14   1    4.30   10.40
  -4 -14   1    0.60    9.50
  -4 -14   1   -4.50   10.80
   2  14  -1  515.15   30.50
   2  14  -1  566.34   22.20
   2  14  -1  523.05   22.70
   2  14  -1  529.05   28.50
   2  14  -1  545.65   31.80
  -2 -14   1  547.75   27.10
  -2 -14   1  496.15   30.30
  -2 -14   1  550.24   28.50
   0  14  -1   17.50    7.10
   0  14  -1   -1.40   10.60
   0  14  -1   10.80   12.10
   0  14  -1    4.00   10.30
   0 -14   1    1.50    8.80
   0 -14   1   -8.80    7.60
   0 -14   1    1.10    9.90
   0 -14   1   13.40   10.60
  -2  14  -1  393.36   20.10
  -2  14  -1  399.26   27.60
  -2  14  -1  361.96   27.30
  -2  14  -1  375.06   26.10
  -2  14  -1  381.06   23.50
   2 -14   1  413.86   24.60
   2 -14   1  422.56   22.50
   2 -14   1  356.56   25.00
  -4  14  -1   59.69   16.00
  -4  14  -1  103.79   20.40
  -4  14  -1   89.39   15.30
  -4  14  -1   64.39   14.20
   4 -14   1   88.39   13.70
   4 -14   1   76.39   14.00
   4 -14   1   75.99   13.70
  -6  14  -1   22.50   16.60
  -6  14  -1   52.69   21.60
  -6  14  -1   59.09   18.50
   6 -14   1   30.60   13.20
   6 -14   1   30.50   12.80
   6 -14   1   25.40   13.10
  -8  14  -1  280.37   30.60
  -8  14  -1  332.07   35.60
  -8  14  -1  388.56   42.60
   8 -14   1  309.37   29.50
   8 -14   1  290.07   25.70
   8 -14   1  317.47   28.40
 -10  14  -1    8.40   30.70
 -10  14  -1   21.20   24.20
 -10  14  -1    3.70   25.60
  10 -14   1   13.70   19.10
  10 -14   1   24.40   18.60
 -12  14  -1  163.38   36.40
 -12  14  -1  240.58   45.30
 -12  14  -1  211.68   35.00
  12 -14   1  195.38   28.10
  12 -14   1  193.28   29.50
 -15 -13   1  -30.20   29.40
 -15 -13   1   -4.60   29.50
  13  13  -1  -20.80   21.80
  13  13  -1   13.60   22.40
 -13 -13   1   20.60   18.80
 -13 -13   1   -6.10   19.90
  11  13  -1   51.19   20.70
  11  13  -1   34.30   19.50
 -11 -13   1   -3.00   15.80
 -11 -13   1   20.60   15.80
   9  13  -1   -3.60   25.30
   9  13  -1   31.00   12.30
   9  13  -1   -5.40   15.50
  -9 -13   1  -10.90   11.60
  -9 -13   1   -3.00   14.80
   7  13  -1   35.00   15.50
   7  13  -1   52.99   12.30
   7  13  -1   44.60   15.50
  -7 -13   1   48.40   14.30
  -7 -13   1   56.59   12.90
  -7 -13   1   41.80   11.90
   5  13  -1   26.70    7.20
   5  13  -1   -1.30   11.60
   5  13  -1   -8.60   10.00
   5  13  -1   11.70   12.40
   5  13  -1    0.10   12.60
  -5 -13   1  -10.40   10.40
  -5 -13   1    4.00    9.60
  -5 -13   1   -8.30    8.40
   3  13  -1   -4.70   10.80
   3  13  -1   13.30    5.80
   3  13  -1   16.40   12.10
   3  13  -1   20.40    8.00
   3  13  -1   -2.40    9.60
  -3 -13   1   -8.10    7.40
  -3 -13   1   -4.00    8.40
  -3 -13   1   -3.70   10.00
   1  13  -1   90.69    9.90
   1  13  -1   99.79    8.70
   1  13  -1  107.89   14.00
   1  13  -1  119.39   15.80
   1  13  -1   85.09   12.60
   1  13  -1  116.29   12.30
  -1 -13   1  120.89   11.20
  -1 -13   1  104.59   11.80
  -1 -13   1  102.99   12.40
  -1 -13   1  114.59   14.30
  -1  13  -1   12.90    8.10
  -1  13  -1    7.70   11.20
  -1  13  -1   -7.40   10.30
  -1  13  -1   12.90    7.30
  -1  13  -1    5.70    7.70
  -1  13  -1    2.30   10.40
   1 -13   1   19.40    9.40
   1 -13   1   -6.10    7.50
   1 -13   1  -12.30    9.10
  -3  13  -1   -7.70    5.60
  -3  13  -1   15.10   10.90
  -3  13  -1   -5.20   12.60
  -3  13  -1    4.30    7.40
  -3  13  -1    7.60    5.70
  -3  13  -1   -4.60   10.30
   3 -13   1    1.20    9.30
   3 -13   1    8.50    9.10
   3 -13   1   14.00    7.90
   3 -13   1    7.30    9.50
  -5  13  -1    7.50   14.00
  -5  13  -1  -11.10   15.30
  -5  13  -1    2.70    4.60
  -5  13  -1   26.20   13.20
   5 -13   1    8.20   10.60
   5 -13   1    9.30   11.20
   5 -13   1   12.70   10.30
  -7  13  -1   48.40   16.60
  -7  13  -1    4.50   16.30
  -7  13  -1   53.99   21.50
   7 -13   1   19.20   11.30
   7 -13   1   48.10   12.90
   7 -13   1   36.50   13.80
  -9  13  -1   14.70   21.00
  -9  13  -1   -8.40   24.30
   9 -13   1   -2.80   16.70
   9 -13   1    7.90   15.40
 -11  13  -1   51.89   27.50
 -11  13  -1   75.49   34.80
  11 -13   1   68.79   20.70
  11 -13   1   54.29   20.50
 -13  13  -1   39.40   34.50
 -13  13  -1   26.90   39.40
  13 -13   1  -12.80   22.80
  13 -13   1   34.20   26.40
  14  12  -1    9.10   20.80
  14  12  -1   26.20   25.20
 -14 -12   1   11.60   19.70
 -14 -12   1   19.40   21.80
  12  12  -1    8.90   19.90
  12  12  -1    2.90   18.90
 -12 -12   1  -12.30   16.00
 -12 -12   1   -1.20   16.50
  10  12  -1   74.89   18.00
  10  12  -1   59.29   19.40
 -10 -12   1   51.09   14.80
 -10 -12   1   52.29   14.60
   8  12  -1  156.48   15.10
   8  12  -1  157.68   18.90
   8  12  -1  140.49   18.60
  -8 -12   1  176.48   18.10
  -8 -12   1  124.49   14.30
  -8 -12   1  145.19   15.60
   6  12  -1  704.43   31.30
   6  12  -1  696.53   30.00
   6  12  -1  646.84   29.10
   6  12  -1  639.84   34.70
   6  12  -1  656.13   36.20
  -6 -12   1  663.23   33.30
  -6 -12   1  686.03   32.10
  -6 -12   1  766.92   34.60
  -6 -12   1  649.14   31.10
   4  12  -1  130.19   16.60
   4  12  -1  128.39   11.60
   4  12  -1  133.09   15.60
   4  12  -1  132.89   13.50
   4  12  -1  142.79   10.50
  -4 -12   1  128.69   13.40
  -4 -12   1  124.79   11.80
  -4 -12   1  132.79   14.80
   2  12  -1  566.84   22.80
   2  12  -1  586.74   27.00
   2  12  -1  535.15   25.70
   2  12  -1  561.94   22.90
   2  12  -1  557.14   27.00
   2  12  -1  543.25   29.40
  -2 -12   1  532.15   27.40
  -2 -12   1  565.84   26.10
  -2 -12   1  549.25   25.10
   0  12  -1  441.96   21.40
   0  12  -1  443.36   20.00
   0  12  -1  423.06   23.50
   0  12  -1  475.15   23.30
   0  12  -1  442.46   23.20
   0  12  -1  452.85   25.60
   0 -12   1  444.06   21.20
   0 -12   1  406.16   24.20
   0 -12   1  443.76   23.50
   0 -12   1  411.56   21.70
  -2  12  -1  207.28   12.60
  -2  12  -1  184.38   13.80
  -2  12  -1  199.98   12.70
  -2  12  -1  170.98   19.50
  -2  12  -1  216.18   14.80
  -2  12  -1  170.28   17.50
   2 -12   1  193.58   14.00
   2 -12   1  227.98   18.00
   2 -12   1  201.98   17.00
   2 -12   1  216.38   17.30
  -4  12  -1    8.70   13.50
  -4  12  -1  -11.60   10.40
  -4  12  -1   -3.50    4.00
  -4  12  -1  -17.00    8.70
  -4  12  -1   14.60   11.10
  -4  12  -1    6.80    6.00
   4 -12   1    7.50    8.90
   4 -12   1   -2.80    8.60
   4 -12   1    7.00    9.10
  -6  12  -1   17.10   13.50
  -6  12  -1    8.60   16.20
   6 -12   1    2.90    8.90
   6 -12   1    8.50    9.60
   6 -12   1   -9.70    9.40
  -8  12  -1   18.20   22.40
  -8  12  -1    8.30   17.10
   8 -12   1    0.70   11.60
   8 -12   1   13.50   12.90
   8 -12   1    5.30   10.00
 -10  12  -1  108.69   30.30
 -10  12  -1  113.09   25.60
  10 -12   1   81.79   20.30
  10 -12   1  128.49   19.40
 -12  12  -1   88.99   30.60
 -12  12  -1  136.29   36.20
  12 -12   1   97.39   22.70
  12 -12   1   84.89   21.10
 -14  12  -1   43.50   36.50
  14 -12   1   12.90   27.20
  15  11  -1   22.90   22.20
  15  11  -1   19.30   23.50
 -15 -11   1   28.50   23.20
 -15 -11   1   27.00   21.40
  13  11  -1  523.55   38.60
  13  11  -1  503.75   42.10
 -13 -11   1  435.46   35.20
 -13 -11   1  530.45   36.90
  11  11  -1   26.00   19.00
  11  11  -1   -3.20   14.90
 -11 -11   1   -9.80   12.70
 -11 -11   1    6.30   12.90
   9  11  -1  318.57   28.00
   9  11  -1  326.77   26.80
   9  11  -1  349.17   20.80
  -9 -11   1  312.07   23.40
  -9 -11   1  340.77   22.90
  -9 -11   1  263.17   22.50
   7  11  -1  112.99   13.00
   7  11  -1  107.29    9.30
   7  11  -1  114.89   15.70
   7  11  -1  138.59   13.30
   7  11  -1   79.39   13.90
  -7 -11   1  108.39   13.80
  -7 -11   1  128.79   14.30
  -7 -11   1  120.49   13.90
  -7 -11   1  113.89   12.30
   5  11  -1  261.57   22.40
   5  11  -1  287.87   18.70
   5  11  -1  318.97   17.30
   5  11  -1  258.47   21.00
   5  11  -1  273.67   15.80
  -5 -11   1  356.26   19.80
  -5 -11   1  243.18   18.30
  -5 -11   1  294.07   20.20
  -5 -11   1  295.27   17.80
   3  11  -1  545.35   20.80
   3  11  -1  549.85   26.00
   3  11  -1  531.65   28.20
   3  11  -1  562.14   26.80
   3  11  -1  558.04   25.70
   3  11  -1  590.54   24.10
  -3 -11   1  551.84   24.60
  -3 -11   1  564.74   25.90
  -3 -11   1  554.74   27.50
   1  11  -1   -8.10    7.30
   1  11  -1    0.50    8.00
   1  11  -1   -2.40    4.60
   1  11  -1    4.10    4.10
   1  11  -1    0.30    5.80
   1  11  -1   11.00    6.30
   1  11  -1    4.00    6.40
   1  11  -1    1.30    6.90
  -1 -11   1   10.40    7.60
  -1 -11   1   -0.70    5.60
  -1 -11   1    1.30    6.00
  -1 -11   1    0.30    7.80
  -1  11  -1  949.01   38.20
  -1  11  -1 1024.80   38.80
  -1  11  -1  973.00   38.70
  -1  11  -1 1001.80   41.80
  -1  11  -1  970.70   41.90
   1 -11   1 1055.99   41.50
   1 -11   1 1035.80   39.10
   1 -11   1 1004.00   40.30
  -3  11  -1  161.48   16.10
  -3  11  -1  133.89   14.80
  -3  11  -1  139.79    9.10
  -3  11  -1  119.89   12.60
  -3  11  -1  145.09   10.60
  -3  11  -1  123.49   16.20
  -3  11  -1  139.39   11.60
   3 -11   1  136.69   13.80
   3 -11   1  144.69   14.00
   3 -11   1  110.39   11.80
   3 -11   1  145.39   11.60
  -5  11  -1 1170.98   50.79
  -5  11  -1 1231.28   45.90
  -5  11  -1 1238.18   42.50
  -5  11  -1 1231.58   42.70
  -5  11  -1 1156.68   54.99
  -5  11  -1 1227.68   42.50
   5 -11   1 1239.68   48.90
   5 -11   1 1216.38   47.90
   5 -11   1 1215.98   49.40
  -7  11  -1  166.18   23.80
  -7  11  -1  139.49   18.90
   7 -11   1  167.18   15.80
   7 -11   1  147.79   15.50
   7 -11   1  164.58   15.30
  -9  11  -1  311.17   30.40
  -9  11  -1  290.67   34.00
   9 -11   1  251.87   23.80
   9 -11   1  266.67   23.40
   9 -11   1  254.27   19.00
 -11  11  -1   26.30   28.80
  11 -11   1   32.70   15.80
  11 -11   1   25.10   16.60
 -13  11  -1  104.19   36.90
 -13  11  -1  106.89   31.10
  13 -11   1   61.39   21.20
  13 -11   1  105.89   23.40
  15 -11   1   29.00   31.20
  16  10  -1    7.70   29.60
  16  10  -1   23.50   23.80
 -16 -10   1   23.50   21.70
 -16 -10   1   16.40   27.10
  14  10  -1    5.40   20.90
  14  10  -1   16.70   19.60
 -14 -10   1  -31.50   15.80
 -14 -10   1    1.30   17.90
  12  10  -1   95.49   28.30
 -12 -10   1   93.89   16.10
 -12 -10   1   68.29   16.50
  10  10  -1   23.30   14.90
  10  10  -1   12.80   12.90
 -10 -10   1   17.40   10.70
 -10 -10   1   32.70   11.40
   8  10  -1  362.46   24.50
   8  10  -1  291.87   14.80
   8  10  -1  250.37   22.80
   8  10  -1  314.47   19.50
   8  10  -1  337.57   23.10
  -8 -10   1  305.27   20.30
  -8 -10   1  302.87   20.00
  -8 -10   1  363.36   22.00
  -8 -10   1  297.67   21.50
   6  10  -1    2.40    8.20
   6  10  -1   15.20    9.60
   6  10  -1   18.00   10.20
   6  10  -1   16.20    5.60
   6  10  -1   17.30    8.00
  -6 -10   1   13.50    7.70
  -6 -10   1   14.00    8.90
  -6 -10   1   15.90    7.30
  -6 -10   1   18.50    8.00
   4  10  -1  296.57   14.00
   4  10  -1  287.47   18.00
   4  10  -1  294.67   20.20
   4  10  -1  282.77   19.60
   4  10  -1  294.07   15.80
  -4 -10   1  277.77   18.30
  -4 -10   1  294.27   16.40
  -4 -10   1  290.17   16.80
  -4 -10   1  318.97   17.50
   2  10  -1   53.99    6.00
   2  10  -1   42.20    7.90
   2  10  -1   34.80    6.20
   2  10  -1   47.50    4.50
   2  10  -1   30.40    6.70
   2  10  -1   48.40    7.20
   2  10  -1   50.49    5.70
   2  10  -1   40.70    9.70
   2  10  -1   39.60    8.80
  -2 -10   1   59.39    9.00
  -2 -10   1   38.50    6.50
  -2 -10   1   42.40    7.40
   0  10  -1  295.07   14.10
   0  10  -1  284.67   17.20
   0  10  -1  280.07   16.40
   0  10  -1  305.87   15.20
   0  10  -1  302.07   16.60
   0  10  -1  267.97   16.20
   0  10  -1  253.47   18.30
   0  10  -1  296.97   14.80
   0 -10   1  276.57   14.70
   0 -10   1  293.07   16.80
   0 -10   1  298.27   15.40
   0 -10   1  274.97   17.00
  -2  10  -1   10.00    5.20
  -2  10  -1    2.00    5.60
  -2  10  -1    9.00    4.20
  -2  10  -1   15.10    9.30
  -2  10  -1    4.60    8.00
  -2  10  -1   -1.50    5.20
  -2  10  -1    7.50    6.20
   2 -10   1   13.30    6.70
   2 -10   1   12.30    5.30
   2 -10   1    0.20    6.50
   2 -10   1   -2.70    6.00
  -4  10  -1  105.59   16.10
  -4  10  -1   84.69    6.20
  -4  10  -1   71.29   11.90
  -4  10  -1   82.59    6.10
  -4  10  -1   51.29    8.60
  -4  10  -1   79.79    8.10
  -4  10  -1   79.39    9.10
   4 -10   1   66.99    9.60
   4 -10   1   84.49   10.60
   4 -10   1   84.39    9.60
  -6  10  -1  117.79    7.20
  -6  10  -1  128.39   21.00
  -6  10  -1  102.59   15.20
  -6  10  -1  130.29   11.00
   6 -10   1   83.19   11.80
   6 -10   1  118.99   12.40
   6 -10   1  101.79   10.40
  -8  10  -1    4.50   14.00
  -8  10  -1   15.90   19.40
   8 -10   1   15.20   10.10
   8 -10   1    7.10    7.90
   8 -10   1   -4.80    9.20
 -10  10  -1   17.90   19.10
 -10  10  -1   22.90   22.90
  10 -10   1   40.10   13.70
  10 -10   1   40.40   14.20
 -12  10  -1   -1.30   23.60
 -12  10  -1   -3.40   27.80
  12 -10   1    1.00   15.50
  12 -10   1    0.30   15.60
 -14  10  -1   96.39   30.90
 -14  10  -1   78.59   39.30
  14 -10   1   91.49   24.70
  14 -10   1   49.60   21.20
  17   9  -1   91.69   32.10
  17   9  -1  -16.90   26.20
 -17  -9   1  -48.50   38.30
 -17  -9   1   10.40   33.00
 -17  -9   1   25.00   25.20
  15   9  -1    8.20   22.80
  15   9  -1   -7.10   20.40
 -15  -9   1   -8.80   23.90
 -15  -9   1   -4.30   17.40
 -15  -9   1   -5.50   19.80
  13   9  -1  150.78   20.80
  13   9  -1   81.59   24.70
 -13  -9   1  105.19   24.60
 -13  -9   1  134.49   21.30
 -13  -9   1  128.09   19.40
  11   9  -1  117.09   18.00
  11   9  -1  107.79   16.70
 -11  -9   1   99.99   15.20
 -11  -9   1  106.19   14.40
 -11  -9   1   90.99   13.70
   9   9  -1  133.59   16.40
   9   9  -1  135.39   15.80
  -9  -9   1  123.19   13.10
  -9  -9   1  143.09   14.00
  -9  -9   1  123.69   13.60
  -9  -9   1  129.09   12.30
   7   9  -1   21.70    9.10
   7   9  -1   21.40    4.60
   7   9  -1   32.40   10.60
   7   9  -1    0.30    8.70
   7   9  -1   33.00    8.60
  -7  -9   1   17.10    7.40
  -7  -9   1   24.30    2.50
  -7  -9   1   50.49    9.00
  -7  -9   1   19.20    7.50
  -7  -9   1   23.30    8.00
   5   9  -1  237.68   18.70
   5   9  -1  245.78   13.60
   5   9  -1  252.17   15.80
   5   9  -1  228.98   19.00
   5   9  -1  264.87   13.30
  -5  -9   1  231.18   10.60
  -5  -9   1  237.48   15.10
  -5  -9   1  243.68   14.80
  -5  -9   1  233.48   15.40
  -5  -9   1  250.97   16.60
   3   9  -1   64.59    5.40
   3   9  -1   74.29    6.00
   3   9  -1   57.29    9.80
   3   9  -1   50.09    6.90
   3   9  -1   67.09    8.90
   3   9  -1   68.09    6.10
   3   9  -1   73.89    9.80
  -3  -9   1   67.49    9.60
  -3  -9   1   85.49    9.10
  -3  -9   1   66.79    7.10
  -3  -9   1   66.09    7.70
   1   9  -1   21.60    5.40
   1   9  -1   16.20    5.90
   1   9  -1    9.60    7.40
   1   9  -1   14.70    7.10
   1   9  -1   23.40    4.50
   1   9  -1   23.20    5.30
   1   9  -1   26.30    5.90
   1   9  -1   24.00    5.80
   1   9  -1   17.30    5.00
   1   9  -1   27.70    6.10
  -1  -9   1   17.70    6.20
  -1  -9   1   17.40    6.00
  -1  -9   1   18.40    4.30
  -1  -9   1   10.90    5.10
  -1   9  -1  238.88   15.80
  -1   9  -1  211.58   12.80
  -1   9  -1  176.68   12.10
  -1   9  -1  166.18   14.60
  -1   9  -1  184.68   13.40
  -1   9  -1  194.48   11.80
  -1   9  -1  236.58   13.70
  -1   9  -1  185.68   11.20
   1  -9   1  201.78   13.50
   1  -9   1  196.28   13.10
   1  -9   1  209.08   11.60
   1  -9   1  197.58   12.70
  -3   9  -1   56.89    5.10
  -3   9  -1   32.50    8.20
  -3   9  -1   60.99    6.60
  -3   9  -1   60.19    8.00
  -3   9  -1   55.99    5.60
  -3   9  -1   51.39   11.50
  -3   9  -1   50.49    6.40
   3  -9   1   57.79    8.10
   3  -9   1   40.50    7.80
   3  -9   1   46.00    5.40
   3  -9   1   50.89    7.80
  -5   9  -1  438.26   21.90
  -5   9  -1  502.95   18.40
  -5   9  -1  485.85   22.00
  -5   9  -1  466.15   29.70
  -5   9  -1  494.15   20.20
  -5   9  -1  485.05   26.20
   5  -9   1  477.55   23.40
   5  -9   1  443.46   22.50
   5  -9   1  496.55   22.20
  -7   9  -1   47.50   17.70
  -7   9  -1   30.80   12.80
  -7   9  -1   41.00    6.10
  -7   9  -1   34.50    5.30
  -7   9  -1   32.40    8.50
   7  -9   1   35.30    7.40
   7  -9   1   33.00    9.20
   7  -9   1   31.10    9.40
  -9   9  -1   59.09   16.60
  -9   9  -1   39.00   20.20
   9  -9   1   54.39    7.10
   9  -9   1   54.19   11.20
   9  -9   1   57.69   12.10
 -11   9  -1  -23.40   38.90
 -11   9  -1    8.10   19.00
  11  -9   1    3.50   12.80
 -13   9  -1   39.70   32.30
 -13   9  -1   41.80   26.30
  13  -9   1   36.60   18.60
  13  -9   1   23.50   16.90
 -15   9  -1  135.19   41.20
 -15   9  -1  129.09   33.90
  15  -9   1   37.80   24.00
  15  -9   1   83.59   25.50
  16   8  -1   48.30   25.60
  16   8  -1   87.79   24.10
 -16  -8   1   61.49   23.40
 -16  -8   1   29.10   28.20
 -16  -8   1   28.90   20.30
  14   8  -1  -12.30   16.70
  14   8  -1   -6.10   17.70
 -14  -8   1   16.00   28.10
 -14  -8   1   13.80   17.60
 -14  -8   1   -3.60   16.40
  12   8  -1   -1.50   14.50
  12   8  -1   27.50   14.50
 -12  -8   1   -8.60   12.20
 -12  -8   1   -8.90   12.50
 -12  -8   1   -3.30    5.70
 -12  -8   1    4.80   11.30
  10   8  -1  104.59   15.40
  10   8  -1   86.79   13.80
 -10  -8   1  105.19   13.00
 -10  -8   1   90.59   12.50
 -10  -8   1   81.49   12.50
 -10  -8   1  109.59    9.20
 -10  -8   1   82.29    6.70
   8   8  -1  630.84   23.40
   8   8  -1  614.24   27.90
   8   8  -1  622.54   30.80
   8   8  -1  649.83   30.30
   8   8  -1  628.44   31.70
  -8  -8   1  628.54   28.80
  -8  -8   1  584.34   26.80
  -8  -8   1  655.93   28.50
  -8  -8   1  618.24   22.40
  -8  -8   1  637.44   29.00
  -8  -8   1  599.34   28.60
   6   8  -1  495.35   23.20
   6   8  -1  541.45   23.00
   6   8  -1  477.95   26.00
   6   8  -1  508.75   19.90
   6   8  -1  517.65   25.80
  -6  -8   1  519.95   22.50
  -6  -8   1  464.25   22.80
  -6  -8   1  450.95   23.10
  -6  -8   1  467.05   22.60
  -6  -8   1  499.95   18.10
   4   8  -1  516.15   22.70
   4   8  -1  466.85   19.50
   4   8  -1  479.85   24.40
   4   8  -1  498.35   20.20
   4   8  -1  456.65   23.90
   4   8  -1  486.65   22.10
  -4  -8   1  476.45   22.40
  -4  -8   1  522.15   22.00
  -4  -8   1  500.75   21.10
  -4  -8   1  460.15   21.50
  -4  -8   1  475.65   18.50
   2   8  -1  353.96   17.20
   2   8  -1  377.76   15.80
   2   8  -1  371.46   14.00
   2   8  -1  398.16   16.60
   2   8  -1  363.46   16.80
   2   8  -1  374.96   17.00
   2   8  -1  366.36   16.90
   2   8  -1  378.16   17.70
   2   8  -1  392.06   17.30
   2   8  -1  363.46   15.30
   2   8  -1  344.97   17.30
   2   8  -1  358.16   19.20
  -2  -8   1  340.87   15.60
  -2  -8   1  374.86   18.40
  -2  -8   1  345.37   17.10
  -2  -8   1  367.96   16.90
   0   8  -1  932.91   34.10
   0   8  -1  912.41   35.80
   0   8  -1  926.61   35.90
   0   8  -1  908.41   35.10
   0   8  -1  910.11   35.00
   0   8  -1  942.11   35.20
   0   8  -1  894.11   35.10
   0   8  -1  940.11   35.70
   0   8  -1  906.81   36.60
   0   8  -1  967.00   34.20
   0  -8   1  917.81   36.20
   0  -8   1  948.71   34.10
   0  -8   1  927.01   35.40
   0  -8   1  851.91   35.70
  -2   8  -1  389.46   15.60
  -2   8  -1  351.96   17.10
  -2   8  -1  342.97   18.80
  -2   8  -1  362.16   19.00
  -2   8  -1  363.56   16.40
  -2   8  -1  394.16   17.30
  -2   8  -1  360.26   20.90
  -2   8  -1  374.96   17.60
  -2   8  -1  393.96   16.60
  -2   8  -1  380.16   17.70
  -2   8  -1  403.66   15.10
  -2   8  -1  386.56   18.10
   2  -8   1  370.86   15.70
   2  -8   1  390.56   18.10
   2  -8   1  354.16   17.60
   2  -8   1  363.66   17.70
  -4   8  -1   67.59    7.20
  -4   8  -1   71.59    7.60
  -4   8  -1   47.20    9.80
  -4   8  -1   65.69    5.00
  -4   8  -1   73.89    7.40
  -4   8  -1   67.69   12.80
  -4   8  -1   73.59    5.30
   4  -8   1   63.09    7.90
   4  -8   1   64.39    8.00
   4  -8   1   74.59    7.70
  -6   8  -1   -4.80    9.20
  -6   8  -1    9.60    3.90
  -6   8  -1    6.70    5.90
  -6   8  -1    7.80   12.20
  -6   8  -1    5.80    3.70
   6  -8   1   -1.10    6.40
   6  -8   1    9.30    7.20
  -8   8  -1  277.77   24.20
  -8   8  -1  269.17   28.40
   8  -8   1  257.07   18.60
   8  -8   1  286.47   19.50
   8  -8   1  281.07   14.10
   8  -8   1  281.07   17.90
 -10   8  -1  119.19   20.10
 -10   8  -1   74.29   22.50
  10  -8   1  116.89    8.20
  10  -8   1   76.89   13.40
  10  -8   1   98.49   14.60
 -12   8  -1  260.27   34.20
  12  -8   1  214.78   20.40
  12  -8   1  195.98   20.10
 -14   8  -1   52.39   33.40
 -14   8  -1   46.40   24.90
  14  -8   1   38.30   19.60
  14  -8   1   41.20   20.10
  16  -8   1   64.69   29.00
  17   7  -1   33.60   25.80
  17   7  -1  -12.70   21.60
  17   7  -1  -14.40   26.20
 -17  -7   1   10.70   24.60
 -17  -7   1    6.90   21.90
 -17  -7   1  -16.00   29.10
  15   7  -1  180.38   24.70
  15   7  -1  206.38   25.20
 -15  -7   1  192.38   26.40
 -15  -7   1  178.98   20.70
 -15  -7   1  187.18   24.20
  13   7  -1   -1.60   14.20
  13   7  -1   13.20   14.50
 -13  -7   1   -6.70   14.00
 -13  -7   1   -1.30    9.60
 -13  -7   1   -8.70   10.60
 -13  -7   1   28.50   15.70
  11   7  -1  213.48   22.30
  11   7  -1  186.68   18.80
 -11  -7   1  239.98   13.20
 -11  -7   1  272.67   13.80
 -11  -7   1  241.98   20.20
 -11  -7   1  196.58   12.50
 -11  -7   1  216.88   19.10
 -11  -7   1  194.48   18.20
 -11  -7   1  240.78   12.00
   9   7  -1  164.18    7.80
   9   7  -1  128.69   14.00
   9   7  -1  124.99   14.20
  -9  -7   1  170.08   16.40
  -9  -7   1  146.69   13.60
  -9  -7   1  142.89    7.10
  -9  -7   1  161.28   14.90
  -9  -7   1  164.58    8.40
  -9  -7   1  139.29   14.40
  -9  -7   1  157.28    7.10
   7   7  -1  127.69   13.20
   7   7  -1  103.09   11.50
   7   7  -1   96.89   11.80
   7   7  -1  103.09   12.10
  -7  -7   1  130.19   11.80
  -7  -7   1  110.59   10.70
  -7  -7   1  120.89   12.00
  -7  -7   1  112.79   11.60
  -7  -7   1   97.49    5.50
   5   7  -1  344.97   20.00
   5   7  -1  349.47   18.20
   5   7  -1  352.86   17.70
   5   7  -1  338.47   16.70
   5   7  -1  402.06   19.50
   5   7  -1  343.47   19.50
   5   7  -1  384.16   16.70
  -5  -7   1  369.86   17.30
  -5  -7   1  372.06   17.60
  -5  -7   1  364.06   17.50
  -5  -7   1  351.16   18.70
  -5  -7   1  369.96   13.60
  -5  -7   1  361.16   18.30
   3   7  -1   17.50    3.10
   3   7  -1   19.10    4.50
   3   7  -1   15.70    3.60
   3   7  -1   22.70    3.00
   3   7  -1   17.10    5.50
   3   7  -1   22.30    5.50
   3   7  -1   22.30    3.20
   3   7  -1   23.90    5.20
   3   7  -1    8.60    4.80
   3   7  -1   19.80    6.60
  -3  -7   1   16.80    3.60
  -3  -7   1   15.90    4.70
  -3  -7   1   13.60    5.10
  -3  -7   1   20.00    5.80
   1   7  -1 1189.28   44.40
   1   7  -1 1226.18   45.20
   1   7  -1 1202.18   44.00
   1   7  -1 1226.58   43.70
   1   7  -1 1232.28   43.70
   1   7  -1 1233.78   44.40
   1   7  -1 1174.98   42.70
   1   7  -1 1212.88   45.00
   1   7  -1 1220.58   43.30
   1   7  -1 1211.88   44.40
   1   7  -1 1247.28   44.70
  -1  -7   1 1176.68   43.30
  -1  -7   1 1208.58   45.20
  -1  -7   1 1193.48   44.10
  -1  -7   1 1168.68   44.50
  -1   7  -1   -0.90    3.20
  -1   7  -1   -1.50    3.10
  -1   7  -1   -0.20    2.90
  -1   7  -1   -2.10    3.20
  -1   7  -1    2.30    4.50
  -1   7  -1   -3.90    4.00
  -1   7  -1   -1.90    3.60
  -1   7  -1    4.30    3.60
  -1   7  -1   -9.80    7.70
  -1   7  -1    0.50    3.70
   1  -7   1   -1.70    3.50
   1  -7   1    0.10    3.80
   1  -7   1   -0.90    2.40
  -3   7  -1 1042.50   37.40
  -3   7  -1 1031.90   38.90
  -3   7  -1 1009.10   40.50
  -3   7  -1 1017.70   39.00
  -3   7  -1  929.81   42.70
  -3   7  -1 1006.30   39.70
  -3   7  -1 1028.20   36.30
  -3   7  -1 1071.99   38.80
  -3   7  -1 1046.00   36.60
  -3   7  -1 1027.50   38.00
  -3   7  -1 1051.59   38.40
  -3   7  -1 1068.89   40.10
   3  -7   1 1000.80   39.30
   3  -7   1  973.50   39.00
   3  -7   1 1102.69   40.70
   3  -7   1 1065.19   38.60
   3  -7   1 1052.19   37.10
  -5   7  -1   74.99    5.90
  -5   7  -1   58.29    6.80
  -5   7  -1   84.29    7.70
  -5   7  -1   86.59   15.10
  -5   7  -1   61.29   10.60
   5  -7   1   59.69    7.60
   5  -7   1   78.09    7.40
   5  -7   1   61.59    8.10
   5  -7   1   73.49   10.60
  -7   7  -1  784.82   29.40
  -7   7  -1  756.32   35.90
  -7   7  -1  749.82   26.80
  -7   7  -1  638.94   39.30
  -7   7  -1  731.63   31.20
   7  -7   1  733.33   31.90
   7  -7   1  776.92   32.90
   7  -7   1  812.52   29.20
   7  -7   1  814.02   31.00
  -9   7  -1  -10.90   15.40
  -9   7  -1   -8.00   13.40
   9  -7   1    2.60    3.90
   9  -7   1   -5.40    8.70
   9  -7   1    2.60   10.00
   9  -7   1   -6.00    7.70
 -11   7  -1   99.49   23.80
 -11   7  -1   72.39   19.00
  11  -7   1   87.49   13.60
  11  -7   1   62.39   14.60
 -13   7  -1   30.70   27.80
 -13   7  -1   17.00   20.90
  13  -7   1    1.40   15.60
  13  -7   1   -4.20   14.60
 -15   7  -1  124.69   29.60
 -15   7  -1   49.00   37.90
  15  -7   1   76.99   23.40
  15  -7   1   93.39   22.20
  18   6  -1   40.10   30.80
  18   6  -1   19.00   27.10
 -18  -6   1   37.10   34.90
  16   6  -1  125.49   25.30
  16   6  -1  137.99   25.40
  16   6  -1  111.49   22.30
 -16  -6   1  127.59   27.10
 -16  -6   1  171.18   27.20
 -16  -6   1  171.88   21.40
  14   6  -1   82.49   18.50
  14   6  -1   44.40   17.00
 -14  -6   1   58.39   14.80
 -14  -6   1   78.89   17.90
 -14  -6   1   58.69   16.10
  12   6  -1   21.70   12.50
  12   6  -1   42.50   13.20
 -12  -6   1   23.60   10.60
 -12  -6   1   20.50   13.00
  10   6  -1   97.09   13.10
  10   6  -1  113.89   14.00
  10   6  -1  111.69    6.80
 -10  -6   1   92.29    9.00
 -10  -6   1  107.79   13.10
 -10  -6   1  106.59    9.90
 -10  -6   1  104.99   11.60
   8   6  -1    3.80    6.30
   8   6  -1   10.90    9.40
   8   6  -1  -11.20    7.20
   8   6  -1    7.00    2.80
   8   6  -1    8.70    8.60
   8   6  -1    7.70    8.00
  -8  -6   1    1.50    7.10
  -8  -6   1    5.10    3.50
  -8  -6   1   10.40    3.40
  -8  -6   1    7.20    3.80
  -8  -6   1   13.50    7.70
  -8  -6   1    9.00    6.40
  -8  -6   1    3.90    6.50
   6   6  -1   64.69    7.80
   6   6  -1   32.50    8.10
   6   6  -1   37.30    8.10
   6   6  -1   46.70    6.90
   6   6  -1   38.90    6.60
   6   6  -1   44.50    7.50
   6   6  -1   53.29    8.70
  -6  -6   1   54.19    3.60
  -6  -6   1   38.40    6.80
  -6  -6   1   50.29    5.90
  -6  -6   1   54.69    7.40
  -6  -6   1   55.79    8.60
  -6  -6   1   46.30    7.20
  -6  -6   1   40.90    6.60
   4   6  -1  223.48   12.20
   4   6  -1  227.58   13.80
   4   6  -1  225.18   13.00
   4   6  -1  236.58   12.30
   4   6  -1  230.28   12.50
   4   6  -1  236.68   11.70
  -4  -6   1  228.58   13.10
  -4  -6   1  203.58   12.40
  -4  -6   1  223.08    8.80
  -4  -6   1  218.28   11.30
  -4  -6   1  230.98   11.90
  -4  -6   1  204.68   12.10
   2   6  -1   23.90    4.70
   2   6  -1   22.60    4.10
   2   6  -1   25.60    2.50
   2   6  -1   22.50    3.70
   2   6  -1   23.60    5.20
   2   6  -1   18.80    2.70
   2   6  -1   20.30    4.40
   2   6  -1   14.50    3.80
   2   6  -1   21.00    3.60
   2   6  -1   26.40    4.50
   2   6  -1   21.90    3.50
   2   6  -1   25.60    4.30
  -2  -6   1   25.80    3.30
  -2  -6   1   29.30    4.30
  -2  -6   1   28.80    4.80
  -2  -6   1   23.60    4.40
  -2  -6   1   18.40    3.50
  -2  -6   1   25.80    4.00
   0   6  -1  189.08    9.70
   0   6  -1  172.68   10.40
   0   6  -1  202.18    9.70
   0   6  -1  189.58    8.80
   0   6  -1  184.08   10.30
   0   6  -1  200.08   10.50
   0   6  -1  191.08    9.50
   0   6  -1  199.48   10.20
   0   6  -1  195.08    8.70
   0   6  -1  184.08    9.30
   0  -6   1  183.08    9.70
   0  -6   1  190.88   10.10
   0  -6   1  193.48    9.90
   0  -6   1  194.68    8.60
   0  -6   1  165.48    8.70
  -2   6  -1   64.39    8.60
  -2   6  -1   67.59    5.20
  -2   6  -1   60.49    6.20
  -2   6  -1   58.69    3.90
  -2   6  -1   64.99    6.10
  -2   6  -1   60.29    6.10
  -2   6  -1   71.09    7.10
  -2   6  -1   58.79    5.30
  -2   6  -1   57.89    6.30
  -2   6  -1   70.69    6.20
   2  -6   1   65.09    6.30
   2  -6   1   56.19    5.70
   2  -6   1   48.90    6.40
   2  -6   1   65.19    7.10
   2  -6   1   59.39    4.40
  -4   6  -1    7.20    4.10
  -4   6  -1    2.00    1.50
  -4   6  -1    8.40    8.20
  -4   6  -1   11.00    5.00
  -4   6  -1   -2.80    5.30
  -4   6  -1   -0.70    4.30
  -4   6  -1   -0.80    4.60
  -4   6  -1    1.50    2.40
  -4   6  -1    4.40    4.60
  -4   6  -1    0.20    2.30
   4  -6   1   -3.30    4.00
   4  -6   1   15.20    7.00
   4  -6   1    2.60    2.60
   4  -6   1   -2.00    4.10
  -6   6  -1   21.80    2.50
  -6   6  -1   19.80   12.30
  -6   6  -1   24.70    4.60
  -6   6  -1   24.90    5.90
  -6   6  -1   23.70    9.60
   6  -6   1   24.50    3.80
   6  -6   1   14.80    4.90
   6  -6   1   14.50   10.70
   6  -6   1   17.70    6.30
   6  -6   1   17.80    5.80
  -8   6  -1   55.29    9.00
  -8   6  -1   80.19   17.20
  -8   6  -1   61.59   13.60
   8  -6   1   59.39    9.70
   8  -6   1   71.29    9.70
   8  -6   1   72.99    6.20
   8  -6   1   47.80    8.60
 -10   6  -1  115.29   18.00
 -10   6  -1  135.39   22.80
  10  -6   1  158.88   15.10
  10  -6   1  169.78   23.20
  10  -6   1  135.89    7.40
  10  -6   1  140.59   14.00
 -12   6  -1   10.80   17.80
 -12   6  -1   13.00   22.50
  12  -6   1    9.60   12.50
  12  -6   1   10.30   12.50
 -14   6  -1   36.40   30.40
 -14   6  -1    1.40   21.60
  14  -6   1   20.80   17.00
  14  -6   1   28.30   17.10
 -16   6  -1   15.00   41.00
 -16   6  -1  -10.00   27.80
  16  -6   1    3.80   23.80
  16  -6   1   25.30   21.80
  17   5  -1   -4.40   24.60
  17   5  -1   16.40   22.90
  17   5  -1    7.50   20.50
 -17  -5   1   -7.90   22.70
 -17  -5   1   19.00   27.30
 -17  -5   1    1.10   19.40
  15   5  -1   65.89   20.00
  15   5  -1   86.79   19.70
  15   5  -1   89.79   18.00
 -15  -5   1   84.79   15.80
 -15  -5   1  124.79   21.60
  13   5  -1  181.28   18.80
  13   5  -1  164.18   19.60
 -13  -5   1  145.39   15.70
 -13  -5   1  158.08   19.80
 -13  -5   1  178.98   18.10
  11   5  -1  397.66   25.90
  11   5  -1  441.66   18.00
  11   5  -1  441.76   22.00
  11   5  -1  471.95   26.30
 -11  -5   1  422.26   25.40
 -11  -5   1  459.15   23.80
 -11  -5   1  447.06   21.20
 -11  -5   1  407.06   23.50
   9   5  -1   84.59    6.50
   9   5  -1   94.69    9.10
   9   5  -1   77.09   11.30
   9   5  -1   59.69   10.10
  -9  -5   1   66.79    9.00
  -9  -5   1   78.49    8.50
  -9  -5   1   53.19   10.60
  -9  -5   1   79.09   10.90
   7   5  -1  105.39    6.70
   7   5  -1  105.19   10.80
   7   5  -1   89.19    9.90
   7   5  -1  113.79    9.30
   7   5  -1   91.69   10.20
   7   5  -1  108.59   11.00
  -7  -5   1   95.69   10.10
  -7  -5   1   97.09    9.80
  -7  -5   1  122.29   11.20
  -7  -5   1  105.99    7.50
  -7  -5   1   98.09    9.60
   5   5  -1   18.80    4.40
   5   5  -1   14.70    4.50
   5   5  -1   22.50    6.20
   5   5  -1   17.30    4.40
   5   5  -1   19.70    5.90
   5   5  -1   18.00    4.60
   5   5  -1   25.20    6.50
  -5  -5   1   19.10    4.50
  -5  -5   1   15.80    3.70
  -5  -5   1   16.10    2.40
  -5  -5   1   12.30    5.40
  -5  -5   1   27.90    5.40
  -5  -5   1   17.10    4.20
  -5  -5   1   18.60    4.30
  -5  -5   1   14.60    1.60
   3   5  -1    2.20    2.10
   3   5  -1    2.00    2.00
   3   5  -1   -2.20    3.30
   3   5  -1    3.00    3.20
   3   5  -1    0.40    1.40
   3   5  -1    1.80    4.40
   3   5  -1   -2.10    2.70
   3   5  -1   -0.10    3.00
   3   5  -1   -1.00    3.10
  -3  -5   1   -1.00    3.80
  -3  -5   1    1.90    2.80
  -3  -5   1    0.60    2.50
  -3  -5   1    0.10    2.40
  -3  -5   1    0.30    1.50
  -3  -5   1   -3.30    2.80
   1   5  -1  373.16   13.80
   1   5  -1  365.96   14.20
   1   5  -1  378.06   14.80
   1   5  -1  346.97   15.30
   1   5  -1  323.27   14.40
   1   5  -1  365.46   13.90
   1   5  -1  357.86   14.70
   1   5  -1  366.86   15.10
   1   5  -1  374.86   14.80
   1   5  -1  361.36   13.00
  -1  -5   1  339.17   14.40
  -1  -5   1  342.57   14.60
  -1  -5   1  357.36   14.90
  -1  -5   1  348.87   13.60
  -1  -5   1  346.27   14.90
  -1  -5   1  368.26   15.60
  -1   5  -1   34.20    4.00
  -1   5  -1   32.60    4.80
  -1   5  -1   42.20    4.80
  -1   5  -1   41.00    3.10
  -1   5  -1   36.00    3.90
  -1   5  -1   51.19    4.80
  -1   5  -1   41.70    6.00
  -1   5  -1   43.20    4.20
  -1   5  -1   45.90    4.60
  -1   5  -1   48.70    4.50
   1  -5   1   43.30    4.20
   1  -5   1   38.80    4.50
   1  -5   1   36.50    3.40
   1  -5   1   51.29    6.70
   1  -5   1   40.00    4.30
   1  -5   1   45.50    4.40
  -3   5  -1 1216.08   43.80
  -3   5  -1 1088.39   47.00
  -3   5  -1 1202.38   44.90
  -3   5  -1 1202.98   44.80
  -3   5  -1 1236.98   41.70
  -3   5  -1 1227.08   41.70
  -3   5  -1 1220.68   43.90
  -3   5  -1 1172.28   41.90
  -3   5  -1 1292.77   43.80
   3  -5   1 1098.19   44.70
   3  -5   1 1199.58   43.00
   3  -5   1 1228.28   45.20
  -5   5  -1  332.47   17.10
  -5   5  -1  318.67   11.90
  -5   5  -1  310.57   20.50
  -5   5  -1  328.27   13.60
  -5   5  -1  324.77   15.20
  -5   5  -1  299.97   18.20
  -5   5  -1  339.47   16.30
  -5   5  -1  344.77   16.00
   5  -5   1  317.17   13.50
   5  -5   1  326.37   15.80
   5  -5   1  311.47   15.90
   5  -5   1  321.47   14.90
   5  -5   1  320.07   18.30
  -7   5  -1  332.77   16.90
  -7   5  -1  311.17   20.70
  -7   5  -1  284.77   23.20
   7  -5   1  297.17   15.80
   7  -5   1  313.27   16.90
   7  -5   1  322.47   13.40
   7  -5   1  316.07   16.70
   7  -5   1  309.97   16.40
  -9   5  -1   34.00   12.90
  -9   5  -1   25.10   15.00
   9  -5   1   35.20   10.20
   9  -5   1   33.90    8.50
   9  -5   1   34.40    7.40
   9  -5   1   44.00    4.20
   9  -5   1   52.99    9.40
 -11   5  -1  -18.70   14.30
 -11   5  -1    7.90   18.00
  11  -5   1   -2.80   10.00
  11  -5   1    5.50    8.40
  11  -5   1    8.90    9.60
 -13   5  -1   86.19   21.70
 -13   5  -1   85.59   36.10
  13  -5   1   80.59   17.30
 -15   5  -1   87.99   26.00
 -15   5  -1   26.40   33.80
  15  -5   1   82.19   20.80
  15  -5   1   53.39   20.00
 -17   5  -1  152.48   67.09
  17  -5   1   80.79   31.80
  18   4  -1   92.19   27.70
  18   4  -1    5.10   27.10
  18   4  -1   59.19   25.30
 -18  -4   1   34.70   31.80
  16   4  -1   16.20   17.20
  16   4  -1    1.00   18.70
 -16  -4   1    1.70   22.50
 -16  -4   1  -12.70   27.00
 -16  -4   1   -0.90   15.10
  14   4  -1   -8.90   12.40
  14   4  -1    2.60   13.50
  14   4  -1   -5.60   13.70
 -14  -4   1   30.50   16.10
 -14  -4   1    5.30   11.50
 -14  -4   1   24.60   16.90
  12   4  -1   32.50    7.90
  12   4  -1   34.50   11.20
  12   4  -1   23.40   11.30
  12   4  -1   35.80    5.70
 -12  -4   1   24.80    9.30
 -12  -4   1   34.30   12.30
 -12  -4   1   30.60   13.30
 -12  -4   1   25.10    9.20
  10   4  -1   81.19   11.10
  10   4  -1   83.49   11.70
  10   4  -1   68.69    7.30
  10   4  -1   89.09    8.30
 -10  -4   1   72.69    7.80
 -10  -4   1   85.19   12.10
 -10  -4   1   80.69    9.50
   8   4  -1  279.17   17.20
   8   4  -1  280.27   18.50
   8   4  -1  294.97   12.60
   8   4  -1  278.67   17.10
   8   4  -1  309.07   14.70
  -8  -4   1  295.77   16.90
  -8  -4   1  275.97   14.00
  -8  -4   1  256.17   16.70
  -8  -4   1  272.47   15.20
  -8  -4   1  281.47   15.00
   6   4  -1  429.16   20.50
   6   4  -1  446.86   20.90
   6   4  -1  422.26   19.20
   6   4  -1  454.35   17.40
   6   4  -1  440.06   18.70
   6   4  -1  489.95   20.70
   6   4  -1  438.66   20.50
  -6  -4   1  438.66   18.40
  -6  -4   1  458.55   20.00
  -6  -4   1  436.56   18.90
  -6  -4   1  436.16   20.20
  -6  -4   1  451.45   19.30
  -6  -4   1  397.06   19.70
   4   4  -1   26.20    4.70
   4   4  -1   34.90    4.40
   4   4  -1   33.40    4.70
   4   4  -1   23.30    5.00
   4   4  -1   21.50    3.70
   4   4  -1   31.20    5.10
  -4  -4   1   25.90    3.80
  -4  -4   1   26.40    3.30
  -4  -4   1   26.60    4.10
  -4  -4   1   30.20    4.00
  -4  -4   1   27.90    2.80
  -4  -4   1   35.30    5.60
  -4  -4   1   32.40    4.80
   2   4  -1  209.88    7.80
   2   4  -1  211.18    9.40
   2   4  -1  202.28    8.60
   2   4  -1  196.78    9.10
   2   4  -1  190.68    9.70
   2   4  -1  190.88   10.30
   2   4  -1  203.88    7.60
   2   4  -1  211.08    9.40
  -2  -4   1  195.88    9.50
  -2  -4   1  207.28    9.50
  -2  -4   1  192.88    8.40
  -2  -4   1  182.38    9.00
  -2  -4   1  202.98    9.30
  -2  -4   1  196.08    8.40
   0   4  -1  602.94   21.00
   0   4  -1  604.54   22.20
   0   4  -1  612.44   22.10
   0   4  -1  616.44   21.20
   0   4  -1  594.94   22.00
   0   4  -1  608.24   20.90
   0   4  -1  587.94   23.00
   0   4  -1  584.64   21.60
   0   4  -1  577.84   22.80
   0  -4   1  590.04   22.20
   0  -4   1  516.15   23.70
   0  -4   1  589.04   21.50
   0  -4   1  588.04   21.30
   0  -4   1  583.24   21.00
   0  -4   1  581.14   22.00
   0  -4   1  573.74   22.00
  -2   4  -1   30.00    1.90
  -2   4  -1   32.60    3.80
  -2   4  -1   27.80    4.10
  -2   4  -1   19.80    4.70
  -2   4  -1   31.40    3.90
  -2   4  -1   27.30    2.60
  -2   4  -1   34.30    2.80
  -2   4  -1   34.70    4.40
  -2   4  -1   39.40    4.10
   2  -4   1   27.20    6.00
   2  -4   1   30.50    2.40
   2  -4   1   29.00    3.70
   2  -4   1   25.20    3.30
   2  -4   1   31.20    3.30
   2  -4   1   38.80    4.60
  -4   4  -1    1.60    6.50
  -4   4  -1    5.30    3.60
  -4   4  -1   -5.30    3.00
  -4   4  -1    2.30    3.40
  -4   4  -1    0.00    1.00
  -4   4  -1    2.70    2.10
  -4   4  -1   -7.90    3.70
   4  -4   1    2.40    2.60
   4  -4   1    4.50    2.20
   4  -4   1   -2.60    4.80
  -6   4  -1  327.97   17.80
  -6   4  -1  293.07   17.80
  -6   4  -1  238.68   19.60
  -6   4  -1  292.17   15.20
  -6   4  -1  310.87   16.20
  -6   4  -1  328.17   15.10
  -6   4  -1  302.27   10.60
   6  -4   1  305.87   15.00
   6  -4   1  257.77   16.30
   6  -4   1  319.57   14.80
   6  -4   1  282.67   12.30
   6  -4   1  287.77   14.80
   6  -4   1  305.27   19.20
  -8   4  -1   41.50   11.20
  -8   4  -1   47.00    8.60
  -8   4  -1   47.40   14.20
  -8   4  -1   27.80    2.70
  -8   4  -1   38.30    3.00
   8  -4   1   40.40    3.90
   8  -4   1   22.10    7.20
   8  -4   1   27.60    6.60
   8  -4   1   40.50    7.50
   8  -4   1   49.60    8.80
 -10   4  -1  258.77   25.50
 -10   4  -1  240.18   23.30
  10  -4   1  248.68   18.30
  10  -4   1  233.68   10.70
  10  -4   1  254.77   18.30
  10  -4   1  243.48   10.10
  10  -4   1  250.37   16.90
 -12   4  -1   -4.50   18.60
 -12   4  -1   27.00   15.80
  12  -4   1    9.50   11.30
  12  -4   1   36.90   12.30
  12  -4   1   33.00   10.90
 -14   4  -1   60.09   22.50
 -14   4  -1   16.60   28.40
  14  -4   1   44.90   17.20
  14  -4   1   29.80   15.40
  14  -4   1   47.00   16.90
 -16   4  -1   26.90   36.60
 -16   4  -1    0.10   26.10
  16  -4   1  -34.90   20.10
  16  -4   1   22.00   22.10
  17   3  -1   21.50   23.00
  17   3  -1   56.29   23.00
  17   3  -1   20.70   19.40
 -17  -3   1  -15.00   23.20
  15   3  -1   36.70   17.50
  15   3  -1    4.80   14.70
 -15  -3   1   43.50   20.80
 -15  -3   1   12.90   12.80
  13   3  -1   16.10    8.00
  13   3  -1   38.10   13.30
  13   3  -1   24.80   11.00
  13   3  -1    7.20   10.80
 -13  -3   1   44.90   14.90
 -13  -3   1   25.80   15.00
 -13  -3   1   25.40   10.00
  11   3  -1  158.98   16.90
  11   3  -1  178.48   11.80
  11   3  -1  191.08   12.00
  11   3  -1  173.98   17.30
 -11  -3   1  161.08   16.10
 -11  -3   1  171.18   13.90
 -11  -3   1  168.48   14.60
 -11  -3   1  180.98   17.90
   9   3  -1   -4.30    6.40
   9   3  -1   10.40    4.20
   9   3  -1   -5.30    6.40
   9   3  -1   -1.70    3.30
  -9  -3   1   -4.60    6.80
  -9  -3   1   -5.20    6.90
  -9  -3   1    2.50    5.20
  -9  -3   1    2.50    7.70
  -9  -3   1  -13.90    8.20
  -9  -3   1   -2.80    4.20
   7   3  -1  181.48   12.10
   7   3  -1  161.48    9.10
   7   3  -1  170.48   12.90
   7   3  -1  181.18   13.40
   7   3  -1  167.38    8.50
   7   3  -1  162.68   13.00
  -7  -3   1  149.79   11.70
  -7  -3   1  159.18    8.90
  -7  -3   1  151.98   10.80
  -7  -3   1  167.08   12.80
  -7  -3   1  167.58   11.80
   5   3  -1    7.10    4.00
   5   3  -1   10.30    4.10
   5   3  -1    6.80    3.70
   5   3  -1    8.80    4.60
   5   3  -1    1.30    3.40
   5   3  -1    5.80    2.80
  -5  -3   1    2.90    3.90
  -5  -3   1    4.90    4.10
  -5  -3   1    5.50    3.10
  -5  -3   1    4.90    2.70
  -5  -3   1    3.60    3.20
  -5  -3   1    6.60    3.50
   3   3  -1  307.27   12.00
   3   3  -1  289.87   12.50
   3   3  -1  279.07   11.60
   3   3  -1  281.57   12.70
   3   3  -1  287.57   11.80
  -3  -3   1  265.97   12.10
  -3  -3   1  287.37   11.20
  -3  -3   1  280.87   12.00
  -3  -3   1  282.37   11.10
  -3  -3   1  286.77   12.70
  -3  -3   1  277.17   11.80
  -3  -3   1  286.47   12.50
   1   3  -1    4.40    2.00
   1   3  -1   -3.50    2.50
   1   3  -1    3.10    1.80
   1   3  -1    0.30    1.70
   1   3  -1    3.80    1.80
   1   3  -1    3.80    1.30
   1   3  -1   -2.80    2.60
   1   3  -1    1.70    1.90
  -1  -3   1    1.70    1.70
  -1  -3   1    2.50    1.60
  -1  -3   1    1.80    1.70
  -1  -3   1    3.10    1.10
  -1  -3   1    0.50    2.00
  -1  -3   1   -0.30    2.00
  -1   3  -1  405.26   15.80
  -1   3  -1  414.76   17.40
  -1   3  -1  420.26   14.90
  -1   3  -1  403.36   16.30
  -1   3  -1  405.66   15.90
  -1   3  -1  417.86   15.20
  -1   3  -1  428.96   16.00
  -1   3  -1  439.16   16.00
   1  -3   1  416.56   16.10
   1  -3   1  405.66   15.10
   1  -3   1  393.16   15.70
   1  -3   1  408.16   16.00
   1  -3   1  430.16   17.60
   1  -3   1  413.46   14.80
  -3   3  -1  335.77   17.40
  -3   3  -1  365.86   16.20
  -3   3  -1  377.76   15.80
  -3   3  -1  381.46   15.20
  -3   3  -1  391.26   15.30
  -3   3  -1  379.76   13.60
   3  -3   1  361.26   15.00
   3  -3   1  370.36   16.50
   3  -3   1  384.06   14.20
   3  -3   1  391.06   19.10
   3  -3   1  374.66   14.40
   3  -3   1  341.87   14.90
   3  -3   1  361.56   13.40
  -5   3  -1  266.27   15.20
  -5   3  -1  271.77    9.70
  -5   3  -1  268.47    9.60
  -5   3  -1  267.77   17.30
  -5   3  -1  272.17   13.50
  -5   3  -1  276.47   13.80
  -5   3  -1  286.37   13.30
  -5   3  -1  281.67   13.00
   5  -3   1  280.27   12.70
   5  -3   1  271.77   15.50
   5  -3   1  253.47   13.10
   5  -3   1  266.87   10.30
   5  -3   1  268.77   11.20
   5  -3   1  260.67   12.60
   5  -3   1  276.27   13.50
  -7   3  -1   23.00    8.90
  -7   3  -1   12.80    5.70
  -7   3  -1   19.80    2.40
  -7   3  -1    5.30   10.30
  -7   3  -1   23.80    6.20
   7  -3   1   21.80    6.00
   7  -3   1   21.10    6.00
   7  -3   1   19.10    5.50
   7  -3   1   15.10    6.60
   7  -3   1   15.50    2.70
   7  -3   1   13.70    3.00
  -9   3  -1  202.38   22.50
  -9   3  -1  206.38    9.30
  -9   3  -1  213.28   18.50
   9  -3   1  228.28    9.50
   9  -3   1  189.78   17.70
   9  -3   1  211.88    9.50
   9  -3   1  190.88   15.40
   9  -3   1  220.08   15.40
   9  -3   1  223.48   14.80
 -11   3  -1    4.80    3.60
 -11   3  -1    2.00   13.90
 -11   3  -1    3.40   16.40
  11  -3   1   11.20    9.10
  11  -3   1    6.10    3.60
  11  -3   1   13.50    9.50
  11  -3   1    2.90    9.10
 -13   3  -1  137.69   27.60
  13  -3   1  100.59   15.60
  13  -3   1   78.19   14.40
  13  -3   1  100.39   16.20
 -15   3  -1  -25.00   20.60
 -15   3  -1   89.99   32.00
  15  -3   1   30.60   18.20
  15  -3   1   56.79   18.40
  15  -3   1   18.50   18.30
 -17   3  -1  151.08   45.20
 -17   3  -1   59.39   37.30
  17  -3   1   -8.20   24.70
  17  -3   1   15.10   27.70
  18   2  -1  150.98   27.10
 -18  -2   1  195.28   31.70
  16   2  -1  313.47   33.30
  16   2  -1  203.58   23.00
  16   2  -1  253.77   23.80
 -16  -2   1  254.67   26.00
 -16  -2   1  240.18   29.30
 -16  -2   1  297.77   33.30
  14   2  -1  147.59   18.50
  14   2  -1  123.19   15.80
  14   2  -1  150.28   17.40
  14   2  -1  144.39   12.80
 -14  -2   1  140.89   20.80
 -14  -2   1  189.38   22.80
 -14  -2   1  178.58   15.50
  12   2  -1   20.90    9.50
  12   2  -1    8.60    8.80
  12   2  -1   25.00   10.90
  12   2  -1   30.10    5.20
  12   2  -1   29.20    7.50
 -12  -2   1   16.20   13.20
 -12  -2   1   13.20    7.80
 -12  -2   1   14.20   12.30
  10   2  -1   10.40    7.80
  10   2  -1    3.40    3.70
  10   2  -1    8.80    4.80
  10   2  -1    2.80    7.10
 -10  -2   1    5.50    5.90
 -10  -2   1   -4.60   10.40
 -10  -2   1    8.00    5.50
 -10  -2   1    2.20    8.00
 -10  -2   1    5.60    8.50
   8   2  -1   -4.30    5.30
   8   2  -1   -5.30    5.40
   8   2  -1    5.40    3.00
   8   2  -1   -5.40    7.70
   8   2  -1    3.50    3.20
   8   2  -1    6.60    7.50
  -8  -2   1    7.00    6.30
  -8  -2   1   -3.80    4.70
  -8  -2   1   -7.10    6.20
  -8  -2   1    5.50    3.80
  -8  -2   1   -7.40    6.60
  -8  -2   1    4.70    6.70
   6   2  -1  196.68   10.50
   6   2  -1  161.78   10.20
   6   2  -1  157.18   11.80
   6   2  -1  180.98    8.80
   6   2  -1  189.08   11.90
   6   2  -1  184.78    8.50
   6   2  -1  198.58   12.50
  -6  -2   1  213.28   11.50
  -6  -2   1  180.78    9.60
  -6  -2   1  189.08   10.90
  -6  -2   1  146.79   10.60
  -6  -2   1  170.58    8.60
  -6  -2   1  195.18   11.20
   4   2  -1    2.80    3.10
   4   2  -1    2.00    2.80
   4   2  -1    2.50    3.10
   4   2  -1    6.10    3.50
  -4  -2   1   -1.10    1.70
  -4  -2   1    2.90    3.10
  -4  -2   1    7.60    3.20
  -4  -2   1    1.60    1.10
  -4  -2   1    3.20    2.90
  -4  -2   1    3.70    2.40
   2   2  -1  213.58    9.00
   2   2  -1  203.28    9.10
   2   2  -1  206.08    8.50
   2   2  -1  228.58    7.40
   2   2  -1  204.28    8.20
   2   2  -1  210.78    8.50
   2   2  -1  197.78    9.80
   2   2  -1  194.18    9.70
  -2  -2   1  206.38    8.50
  -2  -2   1  199.78    8.80
  -2  -2   1  191.88    9.30
  -2  -2   1  204.38    8.60
  -2  -2   1  200.78    9.60
  -2  -2   1  206.88    9.10
  -2  -2   1  204.18    8.10
   0   2  -1   65.49    3.50
   0   2  -1   65.59    3.60
   0   2  -1   53.79    3.50
   0   2  -1   52.59    4.50
   0   2  -1   68.69    3.70
   0   2  -1   62.29    2.60
   0   2  -1   63.89    2.90
   0   2  -1   51.39    4.90
   0  -2   1   66.49    3.90
   0  -2   1   65.49    2.90
   0  -2   1   59.89    4.30
   0  -2   1   58.29    3.50
   0  -2   1   67.69    3.30
   0  -2   1   52.79    4.80
   0  -2   1   62.09    3.80
   0  -2   1   63.39    3.80
   0  -2   1   65.69    3.70
  -2   2  -1    6.40    2.10
  -2   2  -1    7.60    2.20
  -2   2  -1    4.70    2.80
  -2   2  -1    9.60    3.70
  -2   2  -1    9.90    2.10
  -2   2  -1    7.60    1.60
   2  -2   1    7.70    1.80
   2  -2   1   12.40    4.00
   2  -2   1    7.80    2.10
   2  -2   1    7.80    2.20
   2  -2   1    7.70    2.90
   2  -2   1   10.50    1.60
   2  -2   1    7.70    1.50
  -4   2  -1  113.29    4.20
  -4   2  -1  111.19    7.20
  -4   2  -1  111.59    6.80
  -4   2  -1  115.99    7.10
  -4   2  -1   97.19    8.60
  -4   2  -1  114.89    9.60
  -4   2  -1   96.89    7.10
   4  -2   1   95.69    6.50
   4  -2   1   97.69    6.20
   4  -2   1  114.39    9.30
   4  -2   1  107.49    5.40
   4  -2   1  114.49   11.30
   4  -2   1  100.49    6.30
  -6   2  -1  213.58   12.30
  -6   2  -1  199.28   12.40
  -6   2  -1  188.98   16.50
  -6   2  -1  219.28   11.90
  -6   2  -1  168.38   14.60
  -6   2  -1  204.98    8.40
   6  -2   1  202.18   11.70
   6  -2   1  221.28   12.10
   6  -2   1  197.08   15.20
   6  -2   1  206.68    9.30
  -8   2  -1  455.35   25.10
  -8   2  -1  498.55   28.50
  -8   2  -1  477.45   23.30
  -8   2  -1  470.95   18.60
  -8   2  -1  495.45   22.30
   8  -2   1  506.25   19.40
   8  -2   1  485.15   22.40
   8  -2   1  468.25   22.40
   8  -2   1  520.55   23.60
 -10   2  -1  415.96   17.10
 -10   2  -1  414.66   27.10
 -10   2  -1  379.76   28.70
  10  -2   1  427.86   17.80
  10  -2   1  434.26   17.30
  10  -2   1  416.56   22.00
  10  -2   1  390.16   22.20
 -12   2  -1  101.49   21.20
 -12   2  -1   69.09   18.00
 -12   2  -1   76.89    7.10
  12  -2   1   79.39   13.90
  12  -2   1   81.29   12.80
  12  -2   1   84.39    8.00
  12  -2   1   86.69   13.10
 -14   2  -1  -21.30   18.10
 -14   2  -1    0.80   36.40
  14  -2   1    0.80   14.50
  14  -2   1   -6.50   13.80
  14  -2   1  -12.00   13.60
 -16   2  -1   35.20   26.40
 -16   2  -1   23.90   35.10
  16  -2   1   18.40   19.50
  16  -2   1   21.90   22.50
  16  -2   1   51.19   21.70
  19   1  -1    0.60   27.50
  17   1  -1   37.80   19.80
  17   1  -1   38.50   19.70
 -17  -1   1   24.60   24.90
 -17  -1   1   72.89   33.10
  15   1  -1   -3.60   14.70
  15   1  -1    6.20   10.50
  15   1  -1   -2.90   12.80
 -15  -1   1  -23.30   19.70
 -15  -1   1   -1.70   11.70
  13   1  -1  245.28   21.30
  13   1  -1  256.57   18.70
  13   1  -1  278.37   23.10
  13   1  -1  229.88   19.80
 -13  -1   1  244.98   26.30
 -13  -1   1  227.28   24.20
 -13  -1   1  241.48   18.10
  11   1  -1  132.09    7.10
  11   1  -1  143.89   13.10
  11   1  -1  128.69   13.10
  11   1  -1  143.39   13.40
  11   1  -1  132.59   13.70
  11   1  -1  152.18   12.60
 -11  -1   1  143.19   17.80
 -11  -1   1  108.39   14.80
 -11  -1   1  160.58   16.30
 -11  -1   1  145.49   12.90
   9   1  -1  204.28   13.90
   9   1  -1  211.78   12.30
   9   1  -1  194.88   14.50
  -9  -1   1  188.58   16.70
  -9  -1   1  218.68   12.90
  -9  -1   1  232.48   19.80
  -9  -1   1  213.78   13.00
  -9  -1   1  210.38   15.50
   7   1  -1   -2.60    3.20
   7   1  -1    2.90    5.40
   7   1  -1   -1.10    6.00
   7   1  -1    6.00    5.00
   7   1  -1    5.60    2.70
   7   1  -1    3.90    1.80
  -7  -1   1    5.90    3.10
  -7  -1   1    6.10    4.90
  -7  -1   1    7.70    5.40
  -7  -1   1    4.90    5.10
  -7  -1   1    0.50    5.50
   5   1  -1    4.40    4.20
   5   1  -1   10.50    2.60
   5   1  -1    9.30    3.40
   5   1  -1    8.20    2.70
   5   1  -1    9.10    4.20
   5   1  -1    9.80    1.80
   5   1  -1    5.80    3.50
  -5  -1   1    4.40    3.30
  -5  -1   1   11.10    3.60
  -5  -1   1    6.20    3.30
  -5  -1   1   10.60    2.10
  -5  -1   1    8.20    3.80
  -5  -1   1    7.10    1.90
   3   1  -1   15.50    3.40
   3   1  -1    7.00    2.00
   3   1  -1    7.30    1.60
   3   1  -1    7.60    1.40
   3   1  -1    9.10    2.80
   3   1  -1   11.90    3.50
  -3  -1   1    8.30    1.60
  -3  -1   1   13.80    3.10
  -3  -1   1    7.90    2.60
  -3  -1   1    9.90    1.40
  -3  -1   1    6.60    3.20
   1   1  -1   -0.20    0.70
   1   1  -1   -1.10    1.70
   1   1  -1   -1.10    1.10
   1   1  -1    1.30    1.00
   1   1  -1   -1.00    1.80
  -1  -1   1   -0.20    1.10
  -1  -1   1    0.90    1.30
  -1  -1   1   -0.80    1.50
  -1  -1   1    0.50    0.80
  -1  -1   1    0.60    1.60
  -1   1  -1  423.26   15.70
  -1   1  -1  403.96   16.20
  -1   1  -1  437.46   15.60
  -1   1  -1  400.26   16.90
  -1   1  -1  418.56   16.00
   1  -1   1  449.06   16.20
   1  -1   1  431.46   15.60
   1  -1   1  420.86   16.90
   1  -1   1  433.06   15.90
   1  -1   1  443.86   16.30
   1  -1   1  442.36   15.70
  -3   1  -1  109.49    4.20
  -3   1  -1   96.89    5.80
  -3   1  -1   85.09    7.60
  -3   1  -1  108.49    5.70
  -3   1  -1   95.69    6.90
  -3   1  -1  107.49    6.50
  -3   1  -1  107.79    6.40
   3  -1   1  100.19    5.30
   3  -1   1   96.39    5.60
   3  -1   1  102.39    5.60
   3  -1   1  104.09    6.20
   3  -1   1   96.79    8.00
   3  -1   1   98.99    7.00
  -5   1  -1 1163.48   41.50
  -5   1  -1 1031.00   46.20
  -5   1  -1 1238.28   43.30
  -5   1  -1 1200.58   44.00
  -5   1  -1 1235.68   43.90
  -5   1  -1 1216.78   46.30
   5  -1   1 1199.28   42.30
   5  -1   1 1162.38   45.40
   5  -1   1 1203.58   43.70
   5  -1   1 1154.48   43.10
   5  -1   1 1238.78   43.80
  -7   1  -1   66.69   11.90
  -7   1  -1   66.59    6.70
  -7   1  -1   65.39    5.20
  -7   1  -1   67.19    8.20
  -7   1  -1   56.99    9.70
   7  -1   1   69.19    8.50
   7  -1   1   59.59    7.00
   7  -1   1   55.69    7.60
   7  -1   1   62.89    5.80
  -9   1  -1   16.40    4.00
  -9   1  -1   -2.70    5.70
  -9   1  -1    1.50    9.60
  -9   1  -1    7.00   11.40
   9  -1   1   10.40    4.30
   9  -1   1   15.00    4.90
   9  -1   1    7.60    6.80
   9  -1   1    9.50    6.40
 -11   1  -1  114.79   17.20
 -11   1  -1  106.69    9.80
 -11   1  -1  143.69   20.40
  11  -1   1   95.69   10.20
  11  -1   1  101.69    9.90
  11  -1   1   94.59   12.00
  11  -1   1   93.79   12.40
 -13   1  -1   77.09   19.30
 -13   1  -1   36.70   21.50
  13  -1   1   48.90   13.60
  13  -1   1   40.80   13.60
  13  -1   1   62.29   11.80
 -15   1  -1  112.09   25.70
 -15   1  -1  140.09   33.00
  15  -1   1  118.79   21.00
  15  -1   1  166.88   22.10
  15  -1   1  159.88   21.70
 -17   1  -1   78.99   40.50
 -17   1  -1   64.59   32.40
  17  -1   1   73.49   26.30
  17  -1   1   34.10   24.70
  18   0  -1  -30.80   22.00
  18   0  -1   -3.50   22.30
 -18   0   1   91.19   40.90
 -18   0   1   -5.10   26.20
  16   0  -1  -17.70   14.70
  16   0  -1   17.70   17.20
 -16   0   1    8.40   26.00
 -16   0   1  -19.10   20.70
 -16   0   1   -0.50   13.50
  14   0  -1   -4.60   12.20
  14   0  -1   10.10   10.00
  14   0  -1   10.40   10.00
  14   0  -1   -2.50   12.00
 -14   0   1    3.00    9.60
 -14   0   1    4.40   18.50
 -14   0   1   -7.60   14.60
  12   0  -1    8.10    7.20
  12   0  -1    1.20    8.80
  12   0  -1    2.60    7.40
  12   0  -1   -5.30    7.20
  12   0  -1   -5.20    9.60
 -12   0   1   11.50   12.40
 -12   0   1   -7.10   13.40
 -12   0   1   -6.90    9.50
 -12   0   1    5.40    7.20
  10   0  -1    4.00    7.00
  10   0  -1   -6.60    5.70
  10   0  -1   -3.20    5.70
  10   0  -1   -2.80    6.10
  10   0  -1   -0.30    4.50
 -10   0   1    5.10    6.60
 -10   0   1    0.10    7.70
 -10   0   1   -4.60   12.00
 -10   0   1   -5.30    5.30
 -10   0   1   -4.90    8.50
   8   0  -1   -5.50    7.70
   8   0  -1    2.10    3.80
   8   0  -1    9.70    4.10
   8   0  -1   -3.70    6.70
   8   0  -1    1.00    3.30
   8   0  -1    2.40    1.40
   8   0  -1   -4.30    4.90
  -8   0   1    0.80    6.40
  -8   0   1   -7.20    5.50
  -8   0   1    5.20    4.30
  -8   0   1   -0.80    4.20
  -8   0   1   -5.80    7.00
  -8   0   1    1.30    5.80
   6   0  -1    1.90    2.10
   6   0  -1    1.40    5.10
   6   0  -1   -1.60    2.30
   6   0  -1   -1.30    2.40
   6   0  -1   -0.20    4.60
   6   0  -1   -1.50    3.30
   6   0  -1   -0.10    1.10
  -6   0   1   -2.70    4.00
  -6   0   1    5.20    2.80
  -6   0   1    3.30    3.70
  -6   0   1   -5.20    4.20
  -6   0   1    5.20    3.70
  -6   0   1    2.70    2.70
   4   0  -1   -7.10    2.80
   4   0  -1   -2.10    1.70
   4   0  -1   -2.00    2.80
   4   0  -1   -0.70    2.40
   4   0  -1   -1.90    1.20
   4   0  -1   -4.10    2.80
   4   0  -1    2.40    1.90
  -4   0   1   -1.80    2.80
  -4   0   1    3.20    2.60
  -4   0   1    3.50    3.00
  -4   0   1   -0.10    1.00
  -4   0   1    1.60    2.80
  -4   0   1   -0.60    1.50
   2   0  -1    0.50    1.10
   2   0  -1    2.70    1.60
   2   0  -1    0.00    1.90
   2   0  -1   -0.80    1.70
   2   0  -1    0.60    1.20
  -2   0   1   -0.50    1.90
  -2   0   1    0.80    1.90
  -2   0   1    1.20    1.30
  -2   0   1    3.30    1.10
  -2   0   1    0.90    1.40
   0   0  -1   -2.50    1.00
   0   0  -1    1.10    1.00
   0   0  -1    0.00    1.80
   0   0  -1    1.00    0.80
   0   0  -1   -0.80    0.50
   0   0  -1   -1.30    1.00
   0   0   1    1.40    1.00
   0   0   1   -0.90    1.50
   0   0   1    1.40    0.90
   0   0   1    1.80    1.10
   0   0   1    0.50    0.60
   0   0   1   -0.70    1.10
   0   0   1   -1.20    0.80
  -2   0  -1   -0.30    0.90
  -2   0  -1    3.10    1.50
  -2   0  -1   -7.70    2.50
  -2   0  -1   -0.90    2.00
  -2   0  -1   -2.00    2.80
  -2   0  -1   -1.70    1.80
   2   0   1   -0.90    1.80
   2   0   1   -2.90    1.80
   2   0   1    1.00    2.70
   2   0   1    1.10    1.30
   2   0   1    0.50    0.80
  -4   0  -1   -0.50    3.30
  -4   0  -1    0.00    1.50
  -4   0  -1    0.30    1.90
  -4   0  -1    7.10    3.50
  -4   0  -1   -8.60    3.10
  -4   0  -1   -2.70    3.00
   4   0   1   -5.50    2.70
   4   0   1    1.50    2.20
   4   0   1    9.20    5.00
   4   0   1   -0.10    1.90
   4   0   1   -0.10    2.60
   4   0   1    6.60    4.40
   4   0   1   -1.20    2.60
  -6   0  -1    2.20    2.10
  -6   0  -1   19.40    5.30
  -6   0  -1   -5.20    5.90
  -6   0  -1   -2.30    5.10
  -6   0  -1   -0.70    2.70
  -6   0  -1   -8.30    5.70
   6   0   1    9.30    6.00
   6   0   1    1.00    4.50
   6   0   1    5.30    5.00
   6   0   1   -5.10    3.00
   6   0   1   -1.10    4.70
  -8   0  -1  -14.70    4.20
  -8   0  -1   11.60    8.90
  -8   0  -1    2.20    3.20
  -8   0  -1   -7.20    8.40
   8   0   1   -4.80    5.40
   8   0   1    0.00    5.00
   8   0   1    4.70    4.10
   8   0   1  -11.60    8.00
   8   0   1  -11.00    6.20
   8   0   1   -2.40    4.80
 -10   0  -1   -5.90    4.50
 -10   0  -1   -4.40    6.40
 -10   0  -1    1.90   10.90
 -10   0  -1    9.80   12.10
  10   0   1    9.30    5.90
  10   0   1    3.20    6.90
  10   0   1   -1.00    7.50
  10   0   1    4.60    7.10
 -12   0  -1   21.40   14.20
 -12   0  -1   12.60    8.10
 -12   0  -1   -6.30   16.10
  12   0   1   -3.80    9.00
  12   0   1    3.50   10.20
  12   0   1   -0.90    9.80
 -14   0  -1    0.20   22.10
 -14   0  -1  -34.40   17.80
  14   0   1  -12.10   14.00
  14   0   1   -1.40   15.40
 -16   0  -1  -17.30   21.10
 -16   0  -1   53.69   34.60
  16   0   1  -10.70   19.10
  16   0   1  -15.90   19.90
  16   0   1   14.60   22.90
  19  -1  -1   -3.00   28.40
 -19   1   1   42.20   48.00
  17  -1  -1   68.99   21.50
  17  -1  -1   40.30   19.80
 -17   1   1   29.50   25.40
 -17   1   1   31.20   33.40
  15  -1  -1   31.80   19.30
  15  -1  -1   -0.60   11.70
  15  -1  -1   15.90   18.20
  15  -1  -1   -0.30   12.10
 -15   1   1   -1.20   22.40
 -15   1   1  -10.40   18.70
 -15   1   1    8.30   11.20
  13  -1  -1  241.38   18.00
  13  -1  -1  213.78   20.60
  13  -1  -1  241.78   20.50
  13  -1  -1  257.97   22.10
 -13   1   1  272.47   26.20
 -13   1   1  240.88   17.20
 -13   1   1  236.88   22.10
 -13   1   1  274.57   27.70
  11  -1  -1  151.48   14.20
  11  -1  -1  148.99   11.20
  11  -1  -1  138.99   12.80
  11  -1  -1  146.19   14.80
  11  -1  -1  118.39   12.10
 -11   1   1  133.99   14.00
 -11   1   1  114.49   15.70
 -11   1   1  140.29   12.10
 -11   1   1  157.08   21.00
   9  -1  -1  213.28   11.80
   9  -1  -1  193.78   14.20
   9  -1  -1  217.18   10.70
   9  -1  -1  213.28   14.10
   9  -1  -1  213.08   14.00
  -9   1   1  219.38   15.60
  -9   1   1  200.48   13.50
  -9   1   1  230.48   14.00
  -9   1   1  194.18   13.80
  -9   1   1  204.08   17.80
   7  -1  -1   -0.10    2.00
   7  -1  -1    5.20    2.70
   7  -1  -1    1.30    3.20
   7  -1  -1    0.90    3.90
   7  -1  -1   -1.60    4.00
   7  -1  -1   -5.30    4.80
   7  -1  -1    6.70    6.50
  -7   1   1    6.60    3.70
  -7   1   1   -3.10    3.50
  -7   1   1    1.00    5.10
  -7   1   1   -0.50    3.80
  -7   1   1   -7.40    4.20
  -7   1   1    4.50    5.10
  -7   1   1    2.00    6.10
   5  -1  -1    7.60    4.50
   5  -1  -1    3.90    2.20
   5  -1  -1    3.60    3.80
   5  -1  -1   10.90    2.80
   5  -1  -1   10.10    2.10
   5  -1  -1    5.80    1.90
  -5   1   1   10.80    4.10
  -5   1   1    7.20    3.70
  -5   1   1    7.00    3.30
  -5   1   1    3.80    2.70
  -5   1   1   10.90    3.20
  -5   1   1    9.90    2.80
   3  -1  -1   10.40    1.80
   3  -1  -1    9.20    2.30
   3  -1  -1   10.20    2.10
   3  -1  -1   11.90    2.10
   3  -1  -1    9.40    1.40
  -3   1   1    5.90    2.90
  -3   1   1   11.30    2.20
  -3   1   1    8.80    3.30
  -3   1   1   11.90    2.50
  -3   1   1   10.20    1.80
   1  -1  -1    2.40    0.80
   1  -1  -1    0.10    1.20
   1  -1  -1   -0.40    0.50
   1  -1  -1    2.30    1.30
   1  -1  -1    1.30    1.20
   1  -1  -1   -0.70    0.90
  -1   1   1    2.90    2.00
  -1   1   1   -0.90    1.80
  -1   1   1    1.20    1.30
  -1   1   1    1.90    1.40
  -1   1   1    0.60    1.20
  -1   1   1    1.00    0.80
  -1   1   1    0.60    0.90
  -1  -1  -1  453.45   16.20
  -1  -1  -1  434.16   16.20
  -1  -1  -1  414.56   16.60
  -1  -1  -1  423.66   16.40
  -1  -1  -1  425.46   16.30
  -1  -1  -1  424.16   15.70
  -1  -1  -1  415.76   15.50
   1   1   1  441.56   15.60
   1   1   1  407.76   16.20
   1   1   1  429.46   15.80
   1   1   1  437.06   15.10
   1   1   1  438.06   16.50
   1   1   1  426.16   16.50
   1   1   1  423.06   16.30
  -3  -1  -1   85.99    6.70
  -3  -1  -1  103.19    4.90
  -3  -1  -1  100.59    6.70
  -3  -1  -1  112.39    6.80
  -3  -1  -1   96.29    6.30
  -3  -1  -1  109.59    5.40
   3   1   1   98.29    6.00
   3   1   1   96.09    6.20
   3   1   1  106.49    7.40
   3   1   1   99.49    6.60
   3   1   1  106.49    7.10
   3   1   1  118.29    5.30
   3   1   1  101.29    5.30
  -5  -1  -1 1149.98   45.80
  -5  -1  -1 1186.38   45.60
  -5  -1  -1 1256.27   45.30
  -5  -1  -1 1171.68   42.90
  -5  -1  -1 1190.08   43.10
  -5  -1  -1 1264.37   45.00
   5   1   1 1266.47   47.30
   5   1   1 1197.68   44.80
   5   1   1 1192.78   44.80
   5   1   1 1245.98   46.20
   5   1   1 1190.18   43.60
  -7  -1  -1   65.49    9.70
  -7  -1  -1   72.39    9.20
  -7  -1  -1   58.09   10.10
  -7  -1  -1   65.79    6.30
  -7  -1  -1   66.69    6.10
   7   1   1   56.49    8.70
   7   1   1   64.39    7.10
   7   1   1   70.19    6.30
   7   1   1   49.60    6.80
   7   1   1   38.10    7.20
   7   1   1   55.29    7.70
  -9  -1  -1   16.80   10.70
  -9  -1  -1    3.20    5.00
  -9  -1  -1   -2.80    9.40
   9   1   1    6.90    7.20
   9   1   1    5.40    7.70
   9   1   1    1.20    6.10
   9   1   1   -1.80    7.00
   9   1   1   27.40    5.90
 -11  -1  -1   80.09    9.40
 -11  -1  -1  112.49   16.10
 -11  -1  -1   75.49    9.60
 -11  -1  -1   86.29   16.60
  11   1   1   98.99   13.70
  11   1   1   86.59    9.10
  11   1   1  120.89   11.90
  11   1   1   96.59   12.60
  11   1   1   83.59   11.80
 -13  -1  -1   34.20   10.50
 -13  -1  -1   39.40   19.10
 -13  -1  -1   36.90   19.30
  13   1   1   31.10   13.30
  13   1   1   29.50   13.40
  13   1   1   40.50   12.90
 -15  -1  -1  130.09   25.10
 -15  -1  -1  198.28   37.10
  15   1   1  136.99   22.10
  15   1   1  143.69   21.40
 -17  -1  -1   27.60   32.00
  17   1   1    0.20   24.80
  17   1   1   58.39   28.50
  17   1   1   88.99   26.80
  18  -2  -1  221.68   28.90
  18  -2  -1  201.78   28.30
 -18   2   1  234.78   35.30
 -18   2   1  246.48   45.50
  16  -2  -1  250.57   25.50
  16  -2  -1  211.08   21.70
  16  -2  -1  245.08   24.50
 -16   2   1  241.18   29.70
 -16   2   1  310.17   37.50
  14  -2  -1  134.39   13.20
  14  -2  -1  146.69   13.70
  14  -2  -1  140.69   15.80
  14  -2  -1  144.89   17.50
  14  -2  -1  130.49   14.90
 -14   2   1  147.79   18.70
 -14   2   1  128.09   20.50
 -14   2   1  160.78   26.60
 -14   2   1  142.39   13.50
  12  -2  -1   21.40   10.30
  12  -2  -1   19.90    9.40
  12  -2  -1   17.70    6.30
  12  -2  -1   16.00    9.10
  12  -2  -1   13.40    6.90
 -12   2   1   27.70   16.70
 -12   2   1   45.20   14.50
 -12   2   1   30.90   11.00
 -12   2   1   15.10    7.00
  10  -2  -1   -1.50    3.80
  10  -2  -1    3.50    6.90
  10  -2  -1   -1.90    6.40
  10  -2  -1   -0.80    4.10
  10  -2  -1   -1.10    6.40
 -10   2   1  -11.50    8.60
 -10   2   1   -6.20    6.50
 -10   2   1  -11.10    7.40
 -10   2   1   -1.80   13.10
   8  -2  -1    1.10    2.40
   8  -2  -1    4.90    4.90
   8  -2  -1    0.10    2.90
   8  -2  -1   11.80    6.60
   8  -2  -1    3.40    9.30
   8  -2  -1    5.60    4.80
   8  -2  -1    3.70    5.50
  -8   2   1   -7.90    6.00
  -8   2   1    4.10    4.60
  -8   2   1    6.20    5.00
  -8   2   1   -0.30    7.90
  -8   2   1    4.30    6.60
  -8   2   1   -2.10    6.10
  -8   2   1    9.40    4.50
   6  -2  -1  186.18    8.10
   6  -2  -1  191.08   12.70
   6  -2  -1  175.68    9.70
   6  -2  -1  169.38   11.60
   6  -2  -1  187.28    8.00
   6  -2  -1  157.68   10.30
   6  -2  -1  188.58   10.50
  -6   2   1  194.98   10.70
  -6   2   1  155.08   13.00
  -6   2   1  202.18    8.90
  -6   2   1  178.28   10.30
  -6   2   1  184.18   10.90
  -6   2   1  201.68   10.70
   4  -2  -1    3.00    2.90
   4  -2  -1    1.20    1.30
   4  -2  -1    2.10    0.90
   4  -2  -1    3.80    2.40
   4  -2  -1    4.70    2.20
   4  -2  -1    4.60    2.20
   4  -2  -1    3.00    1.40
   4  -2  -1    3.20    1.90
   4  -2  -1    3.50    3.80
  -4   2   1    2.80    2.20
  -4   2   1    2.70    2.40
  -4   2   1    3.20    2.30
  -4   2   1    3.90    1.00
  -4   2   1    2.10    3.50
  -4   2   1    2.80    1.40
  -4   2   1    4.00    3.20
   2  -2  -1  213.98    8.30
   2  -2  -1  209.48    7.70
   2  -2  -1  204.08    9.80
   2  -2  -1  203.48    8.40
   2  -2  -1  201.68    9.20
   2  -2  -1  210.28    7.50
   2  -2  -1  198.78    9.10
  -2   2   1  207.68    8.50
  -2   2   1  216.18    9.30
  -2   2   1  208.18    7.80
  -2   2   1  206.38    7.60
  -2   2   1  197.68    8.60
  -2   2   1  208.58    8.30
  -2   2   1  212.38    9.30
  -2   2   1  187.78    9.00
  -2   2   1  206.48    7.40
   0  -2  -1   70.59    3.50
   0  -2  -1   52.29    5.10
   0  -2  -1   58.79    2.90
   0  -2  -1   70.69    4.50
   0  -2  -1   82.79    5.60
   0  -2  -1   69.09    3.90
   0  -2  -1   61.29    4.60
   0  -2  -1   69.09    4.30
   0  -2  -1   70.39    4.10
   0   2   1   75.19    3.30
   0   2   1   67.79    4.60
   0   2   1   65.09    2.80
   0   2   1   61.89    4.60
   0   2   1   58.59    3.80
   0   2   1   60.99    3.00
   0   2   1   76.39    5.40
   0   2   1   71.79    4.20
   0   2   1   70.69    5.20
  -2  -2  -1   11.40    2.10
  -2  -2  -1   11.40    3.20
  -2  -2  -1    9.80    2.80
  -2  -2  -1    7.10    2.80
  -2  -2  -1    7.80    2.80
  -2  -2  -1    5.90    2.70
   2   2   1    3.50    2.90
   2   2   1   10.50    3.00
   2   2   1    7.90    2.30
   2   2   1    2.00    2.10
  -4  -2  -1  106.69    8.40
  -4  -2  -1  116.99    7.90
  -4  -2  -1  106.99    8.80
  -4  -2  -1  112.79    6.50
  -4  -2  -1  106.69    4.90
  -4  -2  -1   99.79    7.40
   4   2   1  114.09    8.30
   4   2   1  117.39    8.40
   4   2   1  120.69    6.40
   4   2   1  120.69    8.30
   4   2   1  102.99    7.30
   4   2   1  120.99    8.80
  -6  -2  -1  182.18   12.60
  -6  -2  -1  208.78   10.50
  -6  -2  -1  217.58    8.90
  -6  -2  -1  215.98   12.90
  -6  -2  -1  217.68   13.60
  -6  -2  -1  191.18   13.50
   6   2   1  193.28   12.20
   6   2   1  195.58   13.30
   6   2   1  219.68   10.90
   6   2   1  199.68   12.90
   6   2   1  198.08   13.70
  -8  -2  -1  501.55   22.90
  -8  -2  -1  456.35   25.00
  -8  -2  -1  502.85   19.20
  -8  -2  -1  482.15   21.40
  -8  -2  -1  464.65   24.60
   8   2   1  490.65   22.00
   8   2   1  522.35   21.20
   8   2   1  466.05   23.30
   8   2   1  484.15   23.40
 -10  -2  -1  407.76   25.80
 -10  -2  -1  452.45   21.20
 -10  -2  -1  426.96   25.90
  10   2   1  444.96   23.30
  10   2   1  431.26   20.60
  10   2   1  405.76   22.20
  10   2   1  387.26   23.70
  10   2   1  410.16   24.10
 -12  -2  -1   83.59   17.70
 -12  -2  -1   84.59   17.30
 -12  -2  -1   84.09   11.30
  12   2   1   81.29   14.60
  12   2   1   63.29   13.50
  12   2   1   76.49   13.50
  12   2   1   88.29   13.20
 -14  -2  -1    6.80   12.10
 -14  -2  -1   -0.80   20.90
 -14  -2  -1   27.70   18.70
  14   2   1    4.90   15.90
  14   2   1   16.50   15.20
  14   2   1   14.10   15.60
 -16  -2  -1   29.30   26.50
 -16  -2  -1   77.99   25.10
 -16  -2  -1   36.60   32.80
  16   2   1   39.20   21.70
  16   2   1   55.09   24.70
  17  -3  -1    4.90   20.20
  17  -3  -1  -14.20   18.90
 -17   3   1   49.20   27.10
 -17   3   1   45.70   33.00
  15  -3  -1   24.30   14.50
  15  -3  -1   25.70   11.40
  15  -3  -1   18.00   13.00
  15  -3  -1    5.80   14.40
 -15   3   1   11.70   10.80
 -15   3   1   55.59   26.90
 -15   3   1   -2.40   18.40
  13  -3  -1   25.40    7.90
  13  -3  -1   22.60   11.70
  13  -3  -1   32.40    5.20
  13  -3  -1   26.40   11.50
  13  -3  -1   23.30    9.80
 -13   3   1   26.90   12.10
 -13   3   1   20.60   15.80
 -13   3   1   32.30    8.40
 -13   3   1   -3.40   19.70
  11  -3  -1  177.78    9.80
  11  -3  -1  185.58   17.20
  11  -3  -1  177.48   13.70
  11  -3  -1  169.08   16.30
 -11   3   1  169.78   17.10
 -11   3   1  165.18   18.30
 -11   3   1  233.98   15.80
 -11   3   1  188.58   24.40
   9  -3  -1   -3.20    4.70
   9  -3  -1   27.90   10.50
   9  -3  -1   -7.10    5.80
   9  -3  -1    8.60    5.90
   9  -3  -1    2.10    2.90
   9  -3  -1   -6.10    5.70
  -9   3   1    1.30    5.20
  -9   3   1   -0.30    7.20
  -9   3   1    7.90    8.90
  -9   3   1    3.60    8.60
   7  -3  -1  159.28   10.80
   7  -3  -1  165.68    7.20
   7  -3  -1  153.68    8.80
   7  -3  -1  175.58   12.50
   7  -3  -1  172.98   13.80
   7  -3  -1  171.38    7.70
   7  -3  -1  161.88   11.90
   7  -3  -1  155.68   10.70
  -7   3   1  159.78   13.60
  -7   3   1  158.98    9.90
  -7   3   1  175.58   11.20
  -7   3   1  175.58   11.10
  -7   3   1  174.48   11.70
   5  -3  -1    2.20    5.10
   5  -3  -1    7.00    2.00
   5  -3  -1    6.10    1.70
   5  -3  -1    6.90    4.30
   5  -3  -1    6.70    1.30
   5  -3  -1    9.20    3.10
   5  -3  -1    5.40    3.20
  -5   3   1    7.90    3.10
  -5   3   1    4.60    1.50
  -5   3   1    6.50    3.70
  -5   3   1    5.70    1.60
  -5   3   1    5.60    3.70
  -5   3   1    5.40    1.00
  -5   3   1    6.80    3.50
  -5   3   1    6.10    4.30
   3  -3  -1  276.77   12.60
   3  -3  -1  298.57   12.90
   3  -3  -1  289.57   11.90
   3  -3  -1  283.07   11.10
   3  -3  -1  305.37   11.30
   3  -3  -1  298.37   13.10
  -3   3   1  296.47   10.30
  -3   3   1  282.27   13.00
  -3   3   1  290.77   11.10
  -3   3   1  288.67   11.20
  -3   3   1  300.17   11.90
  -3   3   1  298.87   11.40
  -3   3   1  286.67   12.70
  -3   3   1  282.97   11.30
  -3   3   1  289.77   12.10
  -3   3   1  281.07   13.90
  -3   3   1  298.57   10.20
  -3   3   1  314.77   13.10
   1  -3  -1    1.40    1.20
   1  -3  -1   -0.20    1.70
   1  -3  -1    3.40    2.20
   1  -3  -1    2.80    1.80
   1  -3  -1    1.70    1.70
   1  -3  -1    1.80    1.80
  -1   3   1    3.00    1.90
  -1   3   1   -2.20    1.20
  -1   3   1    2.40    1.20
  -1   3   1    1.30    1.60
  -1   3   1    0.70    2.00
  -1   3   1    1.50    1.80
  -1   3   1    1.10    1.50
  -1   3   1    2.10    1.80
  -1   3   1    2.90    2.40
  -1   3   1   -0.10    1.80
  -1  -3  -1  410.86   16.50
  -1  -3  -1  404.56   16.20
  -1  -3  -1  415.06   16.70
  -1  -3  -1  385.26   15.80
  -1  -3  -1  424.56   15.00
  -1  -3  -1  410.16   16.00
  -1  -3  -1  432.36   15.80
   1   3   1  424.86   16.30
   1   3   1  415.16   15.80
   1   3   1  421.76   16.30
   1   3   1  404.86   16.00
   1   3   1  422.56   16.70
   1   3   1  413.26   15.70
   1   3   1  403.56   15.80
  -3  -3  -1  334.67   15.60
  -3  -3  -1  375.86   15.10
  -3  -3  -1  381.46   14.20
  -3  -3  -1  407.36   15.90
  -3  -3  -1  350.56   15.00
  -3  -3  -1  377.56   16.40
  -3  -3  -1  360.06   15.60
   3   3   1  377.26   15.30
   3   3   1  364.36   16.30
   3   3   1  381.56   15.20
   3   3   1  360.46   15.40
   3   3   1  368.66   15.00
   3   3   1  396.96   16.40
  -5  -3  -1  272.47   12.50
  -5  -3  -1  267.27   12.70
  -5  -3  -1  281.37   14.10
  -5  -3  -1  265.37   14.70
  -5  -3  -1  308.77   15.70
  -5  -3  -1  251.37   13.20
   5   3   1  263.77   14.80
   5   3   1  286.97   14.90
   5   3   1  293.87   13.00
   5   3   1  287.27   14.30
   5   3   1  262.67   12.70
  -7  -3  -1   27.10    5.70
  -7  -3  -1    6.80    6.30
  -7  -3  -1   13.20    7.30
  -7  -3  -1   12.90    6.10
   7   3   1   13.80    5.30
   7   3   1   23.70    6.90
   7   3   1   14.70    6.60
  -9  -3  -1  228.68   14.90
  -9  -3  -1  235.48   17.10
  -9  -3  -1  202.08   18.70
  -9  -3  -1  220.38   17.30
   9   3   1  214.48   17.00
   9   3   1  234.08   15.30
   9   3   1  246.48   15.20
   9   3   1  217.58   17.80
 -11  -3  -1    1.80    8.10
 -11  -3  -1   13.80   13.40
 -11  -3  -1   -2.20   12.10
  11   3   1    9.80   11.30
  11   3   1   18.30   11.50
  11   3   1    3.50    9.40
  11   3   1    9.50   10.80
 -13  -3  -1   97.09   20.60
 -13  -3  -1   96.29   20.20
 -13  -3  -1  102.79   14.00
  13   3   1   97.79   15.40
  13   3   1  111.99   25.50
  13   3   1   96.89   16.90
  13   3   1  128.09   17.60
 -15  -3  -1   92.89   28.10
 -15  -3  -1   17.90   21.30
 -15  -3  -1   46.10   24.30
  15   3   1   39.30   21.60
  15   3   1   27.50   21.60
  15   3   1   38.80   18.90
 -17  -3  -1   27.00   31.80
 -17  -3  -1  -25.70   41.40
  17   3   1   37.80   26.50
  17   3   1    3.50   28.20
  18  -4  -1   12.50   21.70
  18  -4  -1   79.19   25.80
 -18   4   1   86.29   44.00
 -18   4   1  -12.60   27.40
  16  -4  -1    0.60   16.90
  16  -4  -1   -9.20   22.70
  16  -4  -1  -21.60   15.80
 -16   4   1    0.90   29.10
 -16   4   1  -12.10   22.70
  14  -4  -1   10.40   13.20
  14  -4  -1    5.60   10.90
  14  -4  -1    9.10   13.40
  14  -4  -1    7.30    8.50
 -14   4   1   -2.50    9.10
 -14   4   1  -14.60   16.60
 -14   4   1   10.20   21.80
 -14   4   1   13.20   13.80
  12  -4  -1   17.00    6.90
  12  -4  -1   35.60   10.80
  12  -4  -1   37.80   11.20
  12  -4  -1   26.40    8.50
 -12   4   1   22.00   15.30
 -12   4   1   45.00   11.90
 -12   4   1   38.80   19.70
  10  -4  -1   66.59    9.80
  10  -4  -1   90.79    9.20
  10  -4  -1   78.09    6.80
  10  -4  -1   81.39    4.60
  10  -4  -1   83.29   11.10
 -10   4   1   75.19   10.30
 -10   4   1   67.39   13.30
 -10   4   1  108.49   21.00
 -10   4   1   83.59    8.40
   8  -4  -1  270.77   13.90
   8  -4  -1  284.57   11.70
   8  -4  -1  291.57   10.70
   8  -4  -1  276.37   15.50
   8  -4  -1  303.67   17.20
   8  -4  -1  291.57   17.40
  -8   4   1  277.77   16.60
  -8   4   1  276.97   19.50
  -8   4   1  264.07   15.20
  -8   4   1  264.17   16.70
  -8   4   1  286.97   13.10
   6  -4  -1  475.45   23.20
   6  -4  -1  452.45   20.90
   6  -4  -1  457.65   20.60
   6  -4  -1  456.75   19.60
   6  -4  -1  454.85   16.50
   6  -4  -1  434.76   17.90
  -6   4   1  473.65   20.80
  -6   4   1  463.25   19.20
  -6   4   1  452.45   20.20
  -6   4   1  421.66   22.10
  -6   4   1  459.75   16.90
  -6   4   1  482.65   20.60
   4  -4  -1   31.30    3.00
   4  -4  -1   26.90    4.90
   4  -4  -1   30.30    3.70
   4  -4  -1   25.70    2.80
   4  -4  -1   24.90    4.10
   4  -4  -1   24.60    3.80
  -4   4   1   27.80    2.50
  -4   4   1   31.70    2.90
  -4   4   1   25.70    2.00
  -4   4   1   21.20    5.40
  -4   4   1   29.10    4.90
  -4   4   1   29.80    4.10
  -4   4   1   34.90    4.30
  -4   4   1   30.90    4.80
  -4   4   1   24.30    4.30
  -4   4   1   30.10    3.40
  -4   4   1   27.60    3.00
   2  -4  -1  197.58    9.20
   2  -4  -1  196.68    9.70
   2  -4  -1  200.98    9.70
   2  -4  -1  204.58    8.40
   2  -4  -1  194.18    8.60
  -2   4   1  201.78   10.40
  -2   4   1  203.68    9.00
  -2   4   1  194.28    9.00
  -2   4   1  202.38    8.60
  -2   4   1  217.08   10.10
  -2   4   1  200.78    9.00
  -2   4   1  201.08    8.70
  -2   4   1  189.68    8.80
  -2   4   1  209.98   10.00
  -2   4   1  203.38    8.40
   0  -4  -1  582.04   22.60
   0  -4  -1  572.84   22.20
   0  -4  -1  592.84   21.50
   0  -4  -1  574.04   22.10
   0  -4  -1  577.94   21.80
   0  -4  -1  580.94   22.40
   0   4   1  627.34   22.20
   0   4   1  597.24   22.50
   0   4   1  569.44   21.50
   0   4   1  576.14   22.30
   0   4   1  590.14   21.20
   0   4   1  609.44   22.30
   0   4   1  598.34   21.90
   0   4   1  598.54   22.70
   0   4   1  609.04   21.90
  -2  -4  -1   30.30    3.60
  -2  -4  -1   31.90    2.30
  -2  -4  -1   35.00    4.10
  -2  -4  -1   37.40    4.80
  -2  -4  -1   22.20    3.80
  -2  -4  -1   18.90    3.70
  -2  -4  -1   31.10    3.50
  -2  -4  -1   25.10    2.00
   2   4   1   27.10    3.20
   2   4   1   37.60    4.60
   2   4   1   46.50    5.00
   2   4   1   27.40    3.80
   2   4   1   28.80    4.20
   2   4   1   31.00    3.70
   2   4   1   24.80    3.40
  -4  -4  -1    2.80    3.80
  -4  -4  -1   -3.60    3.00
  -4  -4  -1   -0.40    4.20
  -4  -4  -1    0.00    2.90
  -4  -4  -1    3.90    4.30
  -4  -4  -1    5.90    4.30
  -4  -4  -1   -0.40    2.30
   4   4   1   -3.00    3.30
   4   4   1    0.40    3.10
   4   4   1   -5.60    3.30
   4   4   1    1.30    4.70
   4   4   1   -0.30    4.50
  -6  -4  -1  328.77   14.60
  -6  -4  -1  285.97   15.00
  -6  -4  -1  280.37   14.50
  -6  -4  -1  289.87   16.70
  -6  -4  -1  285.47   16.90
  -6  -4  -1  327.67   17.90
  -6  -4  -1  269.67   16.40
   6   4   1  303.57   15.00
   6   4   1  286.77   15.70
   6   4   1  317.47   14.50
   6   4   1  276.07   17.90
   6   4   1  299.17   16.60
  -8  -4  -1   38.90    7.30
  -8  -4  -1   32.90    8.00
  -8  -4  -1   27.40    9.20
   8   4   1   23.20    7.60
   8   4   1   40.30    9.30
   8   4   1   37.40    7.60
 -10  -4  -1  234.98   17.30
 -10  -4  -1  240.78   21.30
 -10  -4  -1  247.88   19.10
  10   4   1  230.28   20.50
  10   4   1  244.38   17.30
  10   4   1  244.48   19.00
 -12  -4  -1   46.30   15.50
 -12  -4  -1   52.79   15.20
 -12  -4  -1   23.30   10.60
 -12  -4  -1    3.30   15.10
  12   4   1   33.60   14.20
  12   4   1   49.20   12.20
  12   4   1   23.00   13.40
  12   4   1   34.50   14.40
 -14  -4  -1   67.49   22.20
 -14  -4  -1   17.10   14.50
 -14  -4  -1   31.20   19.40
 -14  -4  -1   89.39   23.30
  14   4   1   10.40   18.30
  14   4   1   37.60   18.00
  14   4   1   57.79   17.50
  14   4   1   57.79   18.20
 -16  -4  -1    2.10   24.00
 -16  -4  -1  -24.50   24.20
  16   4   1   -0.50   22.20
  16   4   1   31.70   26.80
  17  -5  -1  -14.80   22.10
  17  -5  -1   13.10   20.20
 -17   5   1   33.80   35.80
 -17   5   1   16.00   26.70
  15  -5  -1   61.89   15.70
  15  -5  -1  114.99   18.80
  15  -5  -1   88.59   18.60
 -15   5   1  120.19   29.70
 -15   5   1   80.19   19.70
 -15   5   1  113.79   24.10
  13  -5  -1  149.99   17.20
  13  -5  -1  166.38   15.20
  13  -5  -1  138.49   16.50
 -13   5   1  164.98   23.50
 -13   5   1  112.89   16.20
 -13   5   1  158.18   28.50
  11  -5  -1  457.05   26.00
  11  -5  -1  452.85   24.40
  11  -5  -1  403.16   21.60
 -11   5   1  456.85   21.30
 -11   5   1  413.66   24.50
 -11   5   1  445.76   33.60
 -11   5   1  435.96   30.10
   9  -5  -1   82.89    8.20
   9  -5  -1   80.99   12.30
   9  -5  -1   76.39    9.70
   9  -5  -1   67.49    9.30
  -9   5   1   83.69    8.30
  -9   5   1   70.29   10.00
  -9   5   1   59.59   11.80
   7  -5  -1   90.79    9.50
   7  -5  -1   96.29    9.10
   7  -5  -1  121.39   11.70
  -7   5   1   99.19   11.20
  -7   5   1   84.69    9.00
  -7   5   1   98.09    9.80
  -7   5   1  128.99   11.10
  -7   5   1  106.39   13.10
  -7   5   1  101.69    6.30
   5  -5  -1   13.70    2.90
   5  -5  -1   11.50    4.30
   5  -5  -1    7.10    4.70
   5  -5  -1    9.60    4.70
   5  -5  -1   14.70    5.60
  -5   5   1   13.20    3.30
  -5   5   1   19.50    2.70
  -5   5   1   12.90    7.70
  -5   5   1   20.60    4.90
  -5   5   1   19.30    4.00
  -5   5   1   16.00    1.90
  -5   5   1   19.10    4.20
  -5   5   1   14.30    5.10
  -5   5   1   13.40    4.20
  -5   5   1   15.00    4.40
  -5   5   1   15.20    2.00
   3  -5  -1   -0.80    2.60
   3  -5  -1   -1.00    2.90
   3  -5  -1    0.00    2.30
   3  -5  -1   -0.20    2.00
  -3   5   1    5.40    2.70
  -3   5   1    1.00    1.90
  -3   5   1   -2.90    3.60
  -3   5   1   -3.10    3.40
  -3   5   1    3.00    2.80
  -3   5   1   -2.80    2.20
  -3   5   1    2.00    2.50
  -3   5   1   -1.60    2.00
  -3   5   1    2.60    3.30
  -3   5   1   -0.70    2.80
   1  -5  -1  344.47   14.00
   1  -5  -1  342.77   14.50
   1  -5  -1  341.87   14.40
   1  -5  -1  347.47   14.60
   1  -5  -1  344.37   14.90
   1  -5  -1  346.77   13.70
  -1   5   1  371.16   13.80
  -1   5   1  371.76   14.70
  -1   5   1  354.56   14.90
  -1   5   1  350.26   14.60
  -1   5   1  352.56   13.80
  -1   5   1  349.77   14.80
  -1   5   1  350.26   14.00
  -1   5   1  325.47   14.60
  -1   5   1  361.66   14.40
  -1   5   1  364.06   15.30
  -1  -5  -1   36.70    4.20
  -1  -5  -1   39.60    4.40
  -1  -5  -1   42.60    4.60
  -1  -5  -1   42.60    3.80
  -1  -5  -1   41.60    4.30
   1   5   1   35.00    3.40
   1   5   1   46.60    5.00
   1   5   1   39.40    2.70
   1   5   1   49.10    5.50
   1   5   1   41.10    5.00
   1   5   1   32.40    4.00
   1   5   1   34.60    4.50
   1   5   1   43.00    4.60
   1   5   1   40.20    4.50
   1   5   1   40.90    3.70
  -3  -5  -1 1225.98   43.30
  -3  -5  -1 1266.37   46.30
  -3  -5  -1 1217.48   42.70
  -3  -5  -1 1171.28   44.90
  -3  -5  -1 1228.58   45.00
  -3  -5  -1 1203.78   45.10
   3   5   1 1237.88   45.00
   3   5   1 1215.58   45.20
   3   5   1 1253.57   43.40
   3   5   1 1218.48   44.80
   3   5   1 1257.47   45.30
  -5  -5  -1  336.67   18.30
  -5  -5  -1  343.07   14.40
  -5  -5  -1  323.27   17.30
  -5  -5  -1  332.97   14.40
  -5  -5  -1  335.27   17.10
  -5  -5  -1  337.07   16.20
  -5  -5  -1  311.07   17.20
   5   5   1  353.06   16.10
   5   5   1  314.17   16.70
   5   5   1  328.67   15.40
   5   5   1  341.17   17.40
   5   5   1  336.67   17.20
   5   5   1  319.47   17.80
  -7  -5  -1  343.07   16.60
  -7  -5  -1  327.87   17.50
  -7  -5  -1  302.87   15.60
  -7  -5  -1  305.37   19.40
   7   5   1  353.96   19.00
   7   5   1  313.37   20.40
   7   5   1  325.97   17.50
   7   5   1  342.47   19.00
  -9  -5  -1   41.30   11.30
  -9  -5  -1   38.00    9.00
  -9  -5  -1   53.29    9.30
  -9  -5  -1   46.60   10.90
  -9  -5  -1   50.19    9.90
   9   5   1   38.80   10.10
   9   5   1   40.70   11.10
 -11  -5  -1   -0.30    9.20
 -11  -5  -1   13.90   11.10
 -11  -5  -1   11.60   13.30
 -11  -5  -1    4.50   12.70
  11   5   1    0.80   11.00
  11   5   1    6.20   11.80
  11   5   1   -6.00    9.00
  11   5   1   -1.50   12.50
 -13  -5  -1   60.19   18.40
 -13  -5  -1   75.29   14.60
 -13  -5  -1   97.09   19.10
  13   5   1   83.29   15.90
  13   5   1   66.09   17.60
  13   5   1  109.89   19.40
  13   5   1   42.10   18.50
 -15  -5  -1   76.59   25.20
 -15  -5  -1   74.59   22.10
 -15  -5  -1   53.49   23.50
  15   5   1   47.20   26.60
  15   5   1   72.69   20.40
  15   5   1  111.89   22.60
  15   5   1   68.59   22.80
  17   5   1   55.29   30.40
  17   5   1  122.69   33.40
  18  -6  -1   81.79   28.60
 -18   6   1  169.38   49.10
  16  -6  -1  174.18   23.30
  16  -6  -1  177.58   22.60
  16  -6  -1  168.38   24.50
 -16   6   1  157.38   37.80
 -16   6   1  188.28   31.30
  14  -6  -1   74.79   14.60
  14  -6  -1   95.19   17.30
  14  -6  -1   61.69   15.40
 -14   6   1   74.19   10.90
 -14   6   1   66.59   21.20
 -14   6   1   71.79   16.70
  12  -6  -1   56.39   12.20
  12  -6  -1   32.50   11.80
  12  -6  -1   29.40    9.60
 -12   6   1   55.09   23.20
 -12   6   1    9.50   15.80
 -12   6   1   35.60   12.30
  10  -6  -1   91.79   12.20
  10  -6  -1   96.49   10.10
  10  -6  -1   98.49   11.80
 -10   6   1  117.69   22.60
 -10   6   1   79.59   11.70
 -10   6   1  106.59   16.80
 -10   6   1  130.39   10.00
   8  -6  -1   11.40    8.10
   8  -6  -1   10.70    5.20
   8  -6  -1    8.20    7.40
   8  -6  -1    8.40    6.10
  -8   6   1    9.60    3.90
  -8   6   1   -3.20    6.80
  -8   6   1    2.70    7.30
  -8   6   1    4.40   10.00
  -8   6   1   12.20    4.80
   6  -6  -1   50.49    5.40
   6  -6  -1   45.00    6.30
   6  -6  -1   51.59    8.20
   6  -6  -1   43.80    7.40
  -6   6   1   48.60    9.70
  -6   6   1   43.10    7.60
  -6   6   1   49.99    5.40
  -6   6   1   56.59    6.30
  -6   6   1   51.49    6.90
  -6   6   1   46.00    6.80
  -6   6   1   46.10    4.30
  -6   6   1   53.69    3.10
  -6   6   1   46.60    7.20
  -6   6   1   52.79    4.80
  -6   6   1   44.00    6.50
   4  -6  -1  211.18   12.70
   4  -6  -1  226.18   12.90
   4  -6  -1  217.48   10.20
   4  -6  -1  221.58   10.30
  -4   6   1  200.58   11.90
  -4   6   1  206.88    9.50
  -4   6   1  219.68   10.40
  -4   6   1  223.18   10.70
  -4   6   1  226.18   12.80
  -4   6   1  243.18   11.60
  -4   6   1  207.08   11.40
  -4   6   1  220.78   10.30
  -4   6   1  231.18   12.50
  -4   6   1  188.18   13.30
   2  -6  -1   21.50    3.60
   2  -6  -1   21.20    3.20
   2  -6  -1   16.10    3.10
   2  -6  -1   15.30    3.40
   2  -6  -1   22.00    3.90
   2  -6  -1   22.20    4.10
   2  -6  -1   14.90    3.80
  -2   6   1   18.50    3.60
  -2   6   1   25.20    4.60
  -2   6   1   16.50    3.40
  -2   6   1   22.80    3.90
  -2   6   1   22.00    3.30
  -2   6   1   19.00    4.20
  -2   6   1   31.90    5.20
  -2   6   1   22.70    3.60
  -2   6   1   23.00    4.60
  -2   6   1   19.60    3.60
   0  -6  -1  187.48    9.20
   0  -6  -1  178.08    9.50
   0  -6  -1  175.28   10.30
   0  -6  -1  183.58    9.80
   0  -6  -1  185.58   10.00
   0   6   1  186.18    8.30
   0   6   1  191.58    9.80
   0   6   1  192.18   10.70
   0   6   1  191.78    9.60
   0   6   1  197.78   10.50
   0   6   1  184.08    9.70
   0   6   1  171.38   10.10
   0   6   1  172.68    9.20
   0   6   1  181.68    9.80
   0   6   1  188.58    8.60
  -2  -6  -1   56.99    6.00
  -2  -6  -1   58.39    6.30
  -2  -6  -1   56.19    4.10
  -2  -6  -1   72.29    6.90
   2   6   1   70.59    6.40
   2   6   1   51.19    7.20
   2   6   1   56.79    4.80
   2   6   1   49.70    5.50
   2   6   1   69.79    4.80
   2   6   1   56.79    3.60
   2   6   1   72.69    7.20
   2   6   1   60.99    6.70
   2   6   1   56.79    5.10
   2   6   1   64.99    6.60
  -4  -6  -1    1.00    5.90
  -4  -6  -1   -0.80    2.40
  -4  -6  -1    0.10    4.40
  -4  -6  -1    5.90    5.30
  -4  -6  -1    5.40    4.40
  -4  -6  -1    4.70    5.40
   4   6   1    0.10    5.30
   4   6   1   -9.50    4.60
   4   6   1   11.10    3.90
   4   6   1    4.60    3.00
   4   6   1   -1.00    6.20
   4   6   1    2.30    5.00
  -6  -6  -1   25.00    7.50
  -6  -6  -1   21.00    4.60
  -6  -6  -1   19.30    7.80
  -6  -6  -1   19.10    8.20
  -6  -6  -1   21.90    6.30
  -6  -6  -1   15.40    4.90
   6   6   1   11.30    7.70
   6   6   1   15.60    6.50
   6   6   1    8.40    7.30
   6   6   1   17.70    9.70
  -8  -6  -1   75.39   12.00
  -8  -6  -1   60.19    7.20
  -8  -6  -1   64.09    9.50
  -8  -6  -1   67.19    9.10
  -8  -6  -1   53.89   10.30
   8   6   1   72.49   11.90
   8   6   1   45.10   10.10
 -10  -6  -1  122.69   15.30
 -10  -6  -1  132.19   16.70
 -10  -6  -1  112.79   18.20
 -10  -6  -1  169.88   15.90
 -10  -6  -1  142.39   13.50
  10   6   1  167.68   17.60
  10   6   1  142.69   15.20
 -12  -6  -1    3.70   11.30
 -12  -6  -1   -7.10   14.70
 -12  -6  -1   13.30   13.30
 -12  -6  -1   13.10   16.00
  12   6   1  -10.50   15.60
  12   6   1    3.30   14.10
  12   6   1    2.10   11.80
  12   6   1    5.20   15.20
 -14  -6  -1   29.30   20.90
 -14  -6  -1    8.70   16.40
 -14  -6  -1   27.80   20.00
  14   6   1  -19.90   17.60
  14   6   1   20.50   20.20
 -16  -6  -1  -56.79   27.70
 -16  -6  -1  -11.60   24.80
  16   6   1  -15.70   25.60
  16   6   1    8.70   31.80
  16   6   1  -15.30   23.50
  16   6   1   25.40   24.10
  17  -7  -1   20.00   21.60
  17  -7  -1   10.70   25.10
 -17   7   1   42.60   28.70
 -17   7   1   26.70   39.40
  15  -7  -1  195.58   22.50
  15  -7  -1  137.29   23.00
  15  -7  -1  173.18   21.10
 -15   7   1  224.08   24.10
 -15   7   1  154.48   37.70
 -15   7   1  179.48   28.00
  13  -7  -1   -4.10   14.00
  13  -7  -1   -6.20   11.00
  13  -7  -1  -12.30   12.30
 -13   7   1  -11.60   18.30
 -13   7   1   20.60   13.30
 -13   7   1    1.90   22.50
  11  -7  -1  181.98   17.70
  11  -7  -1  208.78   19.50
  11  -7  -1  214.38   16.90
 -11   7   1  189.48   27.80
 -11   7   1  240.48   13.10
 -11   7   1  215.48   19.00
 -11   7   1  208.18   19.10
 -11   7   1  201.68   22.40
   9  -7  -1  153.68   12.50
   9  -7  -1  160.18   17.30
   9  -7  -1  134.29   15.50
   9  -7  -1  157.08   14.90
  -9   7   1  167.18   24.10
  -9   7   1  198.48   19.70
  -9   7   1  165.98   14.80
  -9   7   1  145.49   11.60
   7  -7  -1  127.09   12.30
   7  -7  -1   93.39   11.00
   7  -7  -1  110.29    9.90
   7  -7  -1   86.39    9.40
  -7   7   1   92.39    8.90
  -7   7   1   88.69   13.20
  -7   7   1   92.69   10.60
  -7   7   1  110.19   10.90
  -7   7   1  112.19    6.50
  -7   7   1  103.39    6.70
   5  -7  -1  356.26   16.90
   5  -7  -1  348.57   17.00
   5  -7  -1  341.27   18.50
   5  -7  -1  354.66   18.90
  -5   7   1  344.67   19.10
  -5   7   1  367.46   15.90
  -5   7   1  371.56   14.30
  -5   7   1  371.26   19.60
  -5   7   1  335.77   20.80
  -5   7   1  358.46   15.50
  -5   7   1  382.76   16.10
  -5   7   1  366.66   17.20
  -5   7   1  377.06   17.60
  -5   7   1  375.96   16.30
  -5   7   1  372.16   14.40
  -5   7   1  365.56   18.10
   3  -7  -1   19.20    4.40
   3  -7  -1   14.00    5.00
   3  -7  -1   15.70    3.70
   3  -7  -1   18.80    4.80
   3  -7  -1   14.90    5.20
  -3   7   1   20.20    3.60
  -3   7   1   27.00    4.40
  -3   7   1   26.20    5.80
  -3   7   1   23.10    4.40
  -3   7   1   12.50    4.40
  -3   7   1   21.60    5.20
  -3   7   1   14.30    5.20
  -3   7   1   17.00    3.90
  -3   7   1   21.80    6.70
  -3   7   1   15.90    4.70
   1  -7  -1 1229.18   43.60
   1  -7  -1 1221.28   44.60
   1  -7  -1 1139.49   43.00
   1  -7  -1 1095.89   45.10
   1  -7  -1 1230.08   44.20
  -1   7   1 1147.59   44.20
  -1   7   1 1240.18   44.60
  -1   7   1 1212.48   44.00
  -1   7   1 1081.69   44.30
  -1   7   1 1231.38   43.80
  -1   7   1 1274.77   43.60
  -1   7   1 1219.08   44.70
  -1   7   1 1237.78   43.20
  -1   7   1 1160.48   43.30
  -1  -7  -1    4.60    3.40
  -1  -7  -1   -1.60    3.60
  -1  -7  -1   -0.40    2.20
  -1  -7  -1    6.20    4.50
   1   7   1   -0.40    3.40
   1   7   1    0.00    4.40
   1   7   1    6.50    3.90
   1   7   1    0.90    2.30
   1   7   1    0.00    3.60
   1   7   1   -1.80    3.60
   1   7   1    7.10    4.20
   1   7   1    5.60    3.40
   1   7   1   -3.00    4.50
   1   7   1    8.10    4.70
   1   7   1    7.00    3.00
  -3  -7  -1  978.20   39.50
  -3  -7  -1 1014.30   38.90
  -3  -7  -1  982.30   39.40
  -3  -7  -1 1077.29   39.80
   3   7   1 1096.09   39.40
   3   7   1 1033.30   36.50
   3   7   1  981.70   39.60
   3   7   1 1019.20   36.20
   3   7   1  999.00   41.10
   3   7   1 1029.00   39.30
   3   7   1 1102.69   39.60
   3   7   1 1060.19   36.30
  -5  -7  -1   85.19    9.10
  -5  -7  -1   76.49    9.20
  -5  -7  -1   86.69   10.10
  -5  -7  -1   67.09    8.70
  -5  -7  -1   68.89    6.40
   5   7   1   83.79   10.30
   5   7   1   60.09    8.80
   5   7   1   70.19   10.80
  -7  -7  -1  763.52   28.70
  -7  -7  -1  794.92   33.40
  -7  -7  -1  775.62   34.60
  -7  -7  -1  825.42   30.70
  -7  -7  -1  765.12   32.80
  -7  -7  -1  757.12   33.90
   7   7   1  749.42   36.00
   7   7   1  792.62   34.20
  -9  -7  -1   -5.70    5.10
  -9  -7  -1    0.90    8.40
  -9  -7  -1    9.50   10.30
  -9  -7  -1   -7.80    9.90
  -9  -7  -1   -7.30    8.00
  -9  -7  -1  -14.80    8.60
   9   7   1    4.30   11.40
   9   7   1   -5.10    9.30
 -11  -7  -1   65.19   13.80
 -11  -7  -1   96.09   13.80
 -11  -7  -1   94.59   17.50
 -11  -7  -1   58.19   15.10
 -11  -7  -1   88.39   13.90
  11   7   1   59.69   16.00
  11   7   1   71.69   14.70
 -13  -7  -1   -0.50   16.40
 -13  -7  -1   15.90   20.30
 -13  -7  -1    9.40   14.40
 -13  -7  -1   -5.00   18.30
  13   7   1  -19.20   20.40
  13   7   1   -1.70   16.70
  13   7   1   11.30   17.70
  13   7   1  -32.50   13.40
 -15  -7  -1   36.70   22.20
 -15  -7  -1   14.70   21.10
 -15  -7  -1   37.20   25.60
  15   7   1   65.29   29.10
  15   7   1   69.69   26.60
  15   7   1   34.80   21.50
  15   7   1   43.80   22.20
  16  -8  -1   38.20   20.20
  16  -8  -1   63.09   23.00
 -16   8   1   90.39   29.40
 -16   8   1  108.99   36.60
  14  -8  -1  -12.10   15.50
  14  -8  -1    8.70   14.10
  14  -8  -1   23.50   15.30
 -14   8   1  -23.80   19.70
 -14   8   1   -8.70   15.50
 -14   8   1   -0.10   27.70
  12  -8  -1    5.70   11.20
  12  -8  -1   -1.20   13.10
  12  -8  -1   26.10   10.10
 -12   8   1   -2.80   11.60
 -12   8   1    6.70   20.50
 -12   8   1  -21.50   16.40
  10  -8  -1   81.59   12.60
  10  -8  -1   91.69   13.40
  10  -8  -1   85.49   10.20
 -10   8   1   96.59   13.00
 -10   8   1   81.79    9.50
 -10   8   1  109.09   22.90
 -10   8   1   70.49   16.20
   8  -8  -1  669.93   30.60
   8  -8  -1  652.83   30.40
   8  -8  -1  592.94   27.70
   8  -8  -1  649.14   26.70
  -8   8   1  609.84   33.00
  -8   8   1  590.14   28.40
  -8   8   1  571.34   36.80
  -8   8   1  615.84   25.60
   6  -8  -1  480.45   24.70
   6  -8  -1  525.75   22.90
   6  -8  -1  509.85   21.60
  -6   8   1  479.55   21.70
  -6   8   1  506.35   20.30
  -6   8   1  476.05   20.80
  -6   8   1  501.55   18.10
  -6   8   1  501.95   21.20
  -6   8   1  476.95   23.80
  -6   8   1  428.76   26.40
  -6   8   1  501.25   19.00
   4  -8  -1  502.65   20.70
   4  -8  -1  483.75   23.10
   4  -8  -1  497.35   21.10
   4  -8  -1  498.75   21.40
   4  -8  -1  470.45   22.80
  -4   8   1  465.55   20.40
  -4   8   1  494.55   22.50
  -4   8   1  511.05   24.00
  -4   8   1  505.75   20.80
  -4   8   1  466.45   23.40
  -4   8   1  475.95   25.10
  -4   8   1  483.05   19.40
  -4   8   1  484.65   20.30
  -4   8   1  500.35   21.40
  -4   8   1  478.65   21.50
   2  -8  -1  328.17   16.50
   2  -8  -1  366.16   18.10
   2  -8  -1  354.46   18.00
   2  -8  -1  357.66   17.90
   2  -8  -1  382.86   17.50
   2  -8  -1  364.66   17.90
   2  -8  -1  374.76   16.60
  -2   8   1  386.96   16.30
  -2   8   1  361.06   17.00
  -2   8   1  364.36   18.20
  -2   8   1  380.36   16.30
  -2   8   1  371.66   16.70
  -2   8   1  368.16   16.80
  -2   8   1  366.36   17.30
  -2   8   1  354.46   18.40
  -2   8   1  384.76   16.70
   0  -8  -1  789.62   35.40
   0  -8  -1  931.61   34.40
   0  -8  -1  923.01   35.10
   0  -8  -1  928.31   35.10
   0   8   1  856.51   35.00
   0   8   1  927.31   34.70
   0   8   1  922.61   33.40
   0   8   1  910.21   34.40
   0   8   1  938.01   34.90
   0   8   1  873.21   34.20
   0   8   1  902.71   35.80
   0   8   1  926.01   35.50
   0   8   1  929.31   33.80
  -2  -8  -1  392.86   18.00
  -2  -8  -1  357.66   18.40
  -2  -8  -1  394.46   18.80
  -2  -8  -1  376.56   17.70
   2   8   1  376.36   18.80
   2   8   1  380.96   19.30
   2   8   1  356.86   20.30
   2   8   1  389.56   18.00
   2   8   1  377.96   15.10
   2   8   1  391.76   18.30
   2   8   1  419.26   18.10
   2   8   1  369.26   15.30
   2   8   1  388.76   18.80
   2   8   1  373.96   18.30
   2   8   1  389.76   16.60
   2   8   1  407.76   16.60
  -4  -8  -1   70.29    9.10
  -4  -8  -1   68.69    8.30
  -4  -8  -1   53.39    7.70
  -4  -8  -1   56.59    7.50
   4   8   1   67.29    8.60
   4   8   1   70.89    8.70
   4   8   1   56.59    9.60
  -6  -8  -1    0.10    4.10
  -6  -8  -1    5.10    6.30
  -6  -8  -1   10.00    8.00
  -6  -8  -1    9.60    7.00
   6   8   1    6.40    8.50
   6   8   1    2.40    7.50
  -8  -8  -1  258.17   20.80
  -8  -8  -1  252.07   18.20
  -8  -8  -1  291.07   19.90
  -8  -8  -1  313.57   16.50
   8   8   1  215.88   21.20
   8   8   1  294.47   20.30
 -10  -8  -1   87.09   13.60
 -10  -8  -1   92.19   13.00
 -10  -8  -1   85.79    8.30
 -10  -8  -1   78.79   15.10
  10   8   1   99.89   15.00
  10   8   1  101.79   16.90
 -12  -8  -1  218.48   23.80
 -12  -8  -1  207.08   23.70
 -12  -8  -1  183.08   19.30
 -12  -8  -1  185.98   19.10
  12   8   1  224.98   36.70
  12   8   1  228.28   25.80
  12   8   1  201.08   23.80
 -14  -8  -1   -6.40   20.70
 -14  -8  -1    7.40   18.40
  14   8   1   43.90   18.70
  14   8   1   84.49   22.20
  14   8   1   22.40   22.20
  14   8   1   37.20   26.90
  16   8   1  120.09   44.00
  16   8   1   28.80   31.70
  16   8   1   73.19   37.00
 -17   9   1   41.30   52.19
  15  -9  -1   -3.50   18.60
  15  -9  -1  -12.30   19.00
  15  -9  -1  -15.40   20.60
 -15   9   1   39.30   34.60
 -15   9   1    1.50   25.50
 -15   9   1   -8.70   25.70
  13  -9  -1  124.79   18.50
  13  -9  -1  140.59   17.30
 -13   9   1  137.09   33.00
 -13   9   1  143.19   24.20
 -13   9   1  147.29   19.10
  11  -9  -1   99.29   15.60
  11  -9  -1   78.49   14.70
  11  -9  -1  102.89   12.50
 -11   9   1  117.69   26.60
 -11   9   1   67.39   19.60
 -11   9   1   81.79   13.60
   9  -9  -1  139.79   14.00
   9  -9  -1  129.29   14.70
   9  -9  -1  152.98   13.90
  -9   9   1  130.79   10.80
  -9   9   1  160.98   14.50
  -9   9   1  164.98   25.90
  -9   9   1  153.28   19.10
   7  -9  -1   25.20    7.70
   7  -9  -1   30.90    7.20
   7  -9  -1   23.00    9.20
  -7   9   1   14.80    4.10
  -7   9   1   25.90   12.10
  -7   9   1   20.70    8.70
  -7   9   1   15.00   16.40
  -7   9   1   26.10    5.60
  -7   9   1   32.10    6.80
   5  -9  -1  213.28   16.20
   5  -9  -1  228.88   14.60
   5  -9  -1  221.88   13.60
   5  -9  -1  258.17   14.10
  -5   9   1  240.88   13.50
  -5   9   1  230.38   13.40
  -5   9   1  250.37   11.50
  -5   9   1  217.08   11.10
  -5   9   1  224.48   18.90
  -5   9   1  232.68   16.30
  -5   9   1  216.58   13.30
   3  -9  -1   58.19    7.60
   3  -9  -1   45.90    7.70
   3  -9  -1   66.09    8.50
   3  -9  -1   58.29    7.20
   3  -9  -1   68.69    8.60
   3  -9  -1   56.49    6.90
  -3   9   1   54.69   10.40
  -3   9   1   75.29   10.40
  -3   9   1   67.19    8.10
  -3   9   1   67.89    6.70
  -3   9   1   68.59    7.00
  -3   9   1   50.99    6.60
  -3   9   1   61.19    7.10
  -3   9   1   54.69    7.10
  -3   9   1   71.29   11.60
  -3   9   1   74.29    7.70
   1  -9  -1   20.10    5.70
   1  -9  -1   24.20    6.00
   1  -9  -1   16.30    5.70
   1  -9  -1   16.00    5.40
   1  -9  -1   24.10    5.20
   1  -9  -1   22.80    7.20
  -1   9   1   13.70    6.10
  -1   9   1   16.70    7.90
  -1   9   1   12.60    6.10
  -1   9   1   33.90    5.60
  -1   9   1   15.90    5.10
  -1   9   1   26.80    6.80
  -1   9   1   22.50    6.10
  -1   9   1   16.70    4.70
  -1   9   1   14.30    4.40
  -1   9   1   18.90    5.30
  -1  -9  -1  224.48   11.00
  -1  -9  -1  203.18   13.00
  -1  -9  -1  194.58   13.10
  -1  -9  -1  196.48   14.30
  -1  -9  -1  187.98   13.00
   1   9   1  181.18   13.80
   1   9   1  185.98    9.80
   1   9   1  175.88   11.00
   1   9   1  177.08   12.60
   1   9   1  202.38   10.90
   1   9   1  180.38   15.20
   1   9   1  205.18   13.70
   1   9   1  186.18   12.60
   1   9   1  189.18   12.70
  -3  -9  -1   59.69    7.80
  -3  -9  -1   48.90    7.90
  -3  -9  -1   39.00    7.90
  -3  -9  -1   60.29    8.30
   3   9   1   48.50    5.10
   3   9   1   65.29    7.00
   3   9   1   46.40    7.80
   3   9   1   49.30    9.00
   3   9   1   52.89    5.10
   3   9   1   52.69   10.20
  -5  -9  -1  497.65   22.20
  -5  -9  -1  448.76   23.50
  -5  -9  -1  466.05   23.60
   5   9   1  466.15   26.40
   5   9   1  430.26   23.30
  -7  -9  -1   34.70   10.20
  -7  -9  -1   48.80    6.60
  -7  -9  -1   29.40    9.40
  -7  -9  -1   20.70    8.30
   7   9   1   30.70   11.80
   7   9   1   23.70    9.20
  -9  -9  -1   30.80   12.40
  -9  -9  -1   53.49   10.70
  -9  -9  -1   48.70   11.80
   9   9   1   43.20   14.30
   9   9   1   40.70   12.60
 -11  -9  -1   15.90   12.20
 -11  -9  -1    8.30   13.20
  11   9   1    0.20   14.00
 -13  -9  -1   -7.50   16.30
 -13  -9  -1  -17.10   17.00
  13   9   1  -32.80   21.70
  13   9   1   20.90   21.30
  13   9   1   -1.20   16.30
  13   9   1    8.00   19.40
 -15  -9  -1    0.50   25.60
 -15  -9  -1  117.49   26.40
  15   9   1   13.40   24.50
  15   9   1  127.39   27.60
  15   9   1   10.70   32.30
  15   9   1   94.29   29.30
  16 -10  -1   10.50   21.90
  16 -10  -1    9.00   25.80
 -16  10   1    7.40   38.80
 -16  10   1  103.49   34.20
  14 -10  -1   18.20   18.30
  14 -10  -1   43.70   27.60
  14 -10  -1   11.20   19.80
 -14  10   1    1.30   20.60
 -14  10   1   35.00   25.50
 -14  10   1   32.60   30.10
  12 -10  -1  110.19   17.30
  12 -10  -1   90.59   15.30
 -12  10   1  114.39   25.00
 -12  10   1   57.49   15.60
 -12  10   1   84.49   30.90
  10 -10  -1   18.30   12.80
  10 -10  -1    6.60   11.00
  10 -10  -1   21.40   10.10
 -10  10   1   30.60   11.50
 -10  10   1   10.90   21.80
 -10  10   1   41.00   18.60
   8 -10  -1  320.07   20.70
   8 -10  -1  328.57   18.90
   8 -10  -1  280.97   21.90
  -8  10   1  326.37   29.90
  -8  10   1  306.07   25.90
  -8  10   1  283.07   20.10
  -8  10   1  298.27   14.00
  -8  10   1  314.77   15.80
   6 -10  -1   13.70    6.60
   6 -10  -1    9.30    7.60
   6 -10  -1   11.00    7.10
  -6  10   1    1.00   11.20
  -6  10   1   26.50    8.30
  -6  10   1   11.30   14.80
  -6  10   1    8.70    3.50
  -6  10   1   12.50    9.10
  -6  10   1    5.60    6.50
  -6  10   1   17.90    4.80
   4 -10  -1  287.17   18.70
   4 -10  -1  289.27   18.20
   4 -10  -1  279.77   15.90
   4 -10  -1  288.37   16.50
   4 -10  -1  314.17   17.20
  -4  10   1  310.67   21.90
  -4  10   1  222.78   17.80
  -4  10   1  286.57   15.60
  -4  10   1  322.27   14.80
  -4  10   1  293.47   16.40
   2 -10  -1   35.40    6.90
   2 -10  -1   50.79    8.00
   2 -10  -1   44.50    7.10
   2 -10  -1   40.50    8.60
   2 -10  -1   43.20    7.20
   2 -10  -1   42.30    8.20
   2 -10  -1   39.40    7.10
  -2  10   1   35.20    8.40
  -2  10   1   29.60    7.70
  -2  10   1   48.60    9.70
  -2  10   1   48.50    8.20
   0 -10  -1  301.87   15.90
   0 -10  -1  300.97   16.70
   0 -10  -1  288.87   16.70
   0 -10  -1  300.67   18.10
   0 -10  -1  294.47   16.30
   0  10   1  295.57   16.60
   0  10   1  253.67   17.00
   0  10   1  299.07   18.10
   0  10   1  303.67   18.70
   0  10   1  244.38   14.70
   0  10   1  291.57   13.90
  -2 -10  -1   15.20    7.00
  -2 -10  -1    6.80    6.00
  -2 -10  -1   12.30    6.80
   2  10   1   17.00    7.90
   2  10   1    5.10    7.30
   2  10   1    1.40    6.50
   2  10   1    5.90    8.00
   2  10   1   18.90    6.00
   2  10   1    3.30    4.00
   2  10   1   14.20    5.80
   2  10   1    4.60    4.20
   2  10   1   11.40    4.30
  -4 -10  -1   78.49    9.10
  -4 -10  -1   70.49   10.00
  -4 -10  -1   74.49   10.20
   4  10   1   82.49   10.60
   4  10   1   63.49   11.50
   4  10   1   70.59    8.30
   4  10   1   92.59   10.80
  -6 -10  -1  103.09   10.60
  -6 -10  -1   97.39   11.90
  -6 -10  -1  107.49   12.50
   6  10   1  118.39   13.50
   6  10   1  129.99   15.60
  -8 -10  -1    3.80    8.30
  -8 -10  -1   -8.60    9.40
  -8 -10  -1   -6.00   11.10
   8  10   1  -12.20   12.20
   8  10   1   24.60   11.90
 -10 -10  -1    7.90   11.60
 -10 -10  -1   44.30   13.50
 -10 -10  -1   21.50   13.20
  10  10   1   50.89   14.90
  10  10   1   19.20   17.80
 -12 -10  -1  -20.70   17.00
 -12 -10  -1   22.90   16.30
  12  10   1   -3.70   18.10
  12  10   1    2.30   22.40
  12  10   1  -15.10   17.90
 -14 -10  -1   55.99   22.90
 -14 -10  -1   39.70   23.50
  14  10   1   43.90   22.70
  14  10   1   25.40   23.80
  14  10   1   41.30   24.00
  14  10   1   29.40   29.70
  15 -11  -1   41.40   21.80
  15 -11  -1   -3.40   23.40
 -15  11   1   56.39   30.50
 -15  11   1   10.60   38.30
  13 -11  -1  509.55   34.40
  13 -11  -1  531.55   40.70
  13 -11  -1  550.04   37.50
 -13  11   1  533.85   46.40
 -13  11   1  496.65   51.59
 -13  11   1  512.35   45.90
  11 -11  -1   28.90   14.90
  11 -11  -1   -2.50   11.80
  11 -11  -1    5.80   16.30
 -11  11   1  -29.60   19.00
 -11  11   1   21.70   29.00
 -11  11   1   -4.40   12.90
   9 -11  -1  283.97   20.30
   9 -11  -1  299.37   22.70
   9 -11  -1  285.37   26.80
  -9  11   1  310.17   21.80
  -9  11   1  317.67   33.10
  -9  11   1  319.27   30.50
   7 -11  -1   99.49   12.20
   7 -11  -1   95.29   11.00
   7 -11  -1  103.09   13.70
  -7  11   1  106.09   13.60
  -7  11   1  141.69   13.90
  -7  11   1  116.39   22.50
  -7  11   1  154.58   19.70
  -7  11   1  117.99   10.40
   5 -11  -1  272.57   17.60
   5 -11  -1  299.67   20.80
   5 -11  -1  312.47   17.70
  -5  11   1  280.47   14.20
  -5  11   1  294.97   16.10
  -5  11   1  289.07   20.10
  -5  11   1  300.87   27.30
  -5  11   1  275.57   23.60
   3 -11  -1  550.54   26.70
   3 -11  -1  562.84   26.20
   3 -11  -1  562.74   27.10
   3 -11  -1  604.44   25.50
   3 -11  -1  615.64   26.90
   3 -11  -1  541.75   25.20
  -3  11   1  501.05   29.50
  -3  11   1  569.94   31.60
  -3  11   1  507.45   27.60
  -3  11   1  570.14   26.20
  -3  11   1  550.24   24.80
   1 -11  -1    2.00    5.70
   1 -11  -1    4.80    7.90
   1 -11  -1   -2.20    6.80
   1 -11  -1    1.00    6.10
   1 -11  -1    8.90    6.60
  -1  11   1   11.20    6.50
  -1  11   1    6.90    7.70
  -1  11   1   -5.70    6.80
  -1  11   1    5.90    7.00
  -1 -11  -1  983.60   40.90
  -1 -11  -1 1020.90   41.30
  -1 -11  -1 1025.40   40.60
   1  11   1 1031.50   39.00
   1  11   1 1039.40   38.30
   1  11   1 1008.00   40.30
   1  11   1 1006.00   39.60
   1  11   1  998.70   40.50
   1  11   1  985.10   42.80
   1  11   1  991.60   37.90
   1  11   1 1057.59   43.70
  -3 -11  -1  155.98   14.50
  -3 -11  -1  132.39   13.40
  -3 -11  -1  135.29   13.60
   3  11   1  139.99   14.80
   3  11   1  170.68   12.00
   3  11   1  127.49   14.30
   3  11   1  142.59   13.90
   3  11   1  132.79    8.30
  -5 -11  -1 1203.58   47.00
  -5 -11  -1 1189.58   48.80
  -5 -11  -1 1210.88   48.90
   5  11   1 1168.88   48.70
   5  11   1 1222.28   52.19
  -7 -11  -1  142.49   15.90
  -7 -11  -1  138.39   15.30
  -7 -11  -1  163.98   15.80
   7  11   1  174.98   19.70
   7  11   1  143.09   15.80
  -9 -11  -1  254.17   24.90
  -9 -11  -1  242.78   24.40
  -9 -11  -1  259.27   21.30
   9  11   1  269.77   25.00
   9  11   1  285.77   30.40
 -11 -11  -1  -11.60   16.90
 -11 -11  -1   18.50   15.40
  11  11   1   -0.40   16.80
  11  11   1  -19.10   16.90
  11  11   1    1.20   19.00
 -13 -11  -1   80.29   21.40
 -13 -11  -1   73.09   23.40
  13  11   1   63.49   29.80
  13  11   1   90.09   24.80
  13  11   1  124.69   25.10
 -15 -11  -1   12.50   27.90
  15  11   1  -94.59   52.69
  14 -12  -1  -10.20   21.60
  14 -12  -1   15.60   19.20
 -14  12   1   15.70   28.20
 -14  12   1  -34.00   33.20
  12 -12  -1    2.90   14.80
  12 -12  -1   30.30   16.90
  12 -12  -1    2.40   18.40
 -12  12   1   29.20   26.40
 -12  12   1   32.50   28.10
  10 -12  -1   87.49   16.30
  10 -12  -1   96.99   14.30
  10 -12  -1   89.19   17.10
 -10  12   1   77.59   14.70
 -10  12   1   76.39   23.30
 -10  12   1   78.69   25.40
   8 -12  -1  151.68   16.40
   8 -12  -1  191.88   17.20
   8 -12  -1  135.89   16.70
  -8  12   1  162.88   16.20
  -8  12   1  161.38   21.70
  -8  12   1  171.68   27.70
  -8  12   1  176.88   12.10
   6 -12  -1  692.43   30.10
   6 -12  -1  655.23   33.00
   6 -12  -1  671.53   31.20
  -6  12   1  653.83   31.70
  -6  12   1  694.43   41.10
  -6  12   1  554.94   33.00
  -6  12   1  648.64   25.50
  -6  12   1  693.33   27.40
  -6  12   1  624.54   36.60
   4 -12  -1  129.19   12.10
   4 -12  -1  129.79   14.00
   4 -12  -1  132.99   12.80
  -4  12   1  131.99   14.60
  -4  12   1  150.28   20.10
  -4  12   1  154.38   15.40
  -4  12   1  147.59   18.00
  -4  12   1  129.69   11.20
   2 -12  -1  585.94   26.10
   2 -12  -1  547.85   27.00
   2 -12  -1  535.35   26.50
   2 -12  -1  550.74   26.40
   2 -12  -1  551.24   27.60
   2 -12  -1  552.74   27.60
  -2  12   1  571.74   27.40
  -2  12   1  586.94   26.30
  -2  12   1  533.55   26.40
  -2  12   1  567.54   30.70
  -2  12   1  524.95   26.20
  -2  12   1  548.05   30.70
  -2  12   1  533.05   28.70
   0 -12  -1  450.35   23.20
   0 -12  -1  439.06   23.30
   0 -12  -1  466.55   23.30
   0  12   1  427.56   25.10
   0  12   1  421.56   22.10
   0  12   1  438.56   20.20
   0  12   1  456.05   23.30
  -2 -12  -1  212.28   17.40
  -2 -12  -1  220.98   16.00
  -2 -12  -1  210.38   17.30
   2  12   1  214.88   10.50
   2  12   1  216.28   12.00
   2  12   1  177.68   15.70
   2  12   1  193.08   19.90
   2  12   1  205.78   17.10
   2  12   1  204.18   16.60
   2  12   1  209.78   10.20
  -4 -12  -1   -8.40    8.80
  -4 -12  -1   -7.60    6.70
  -4 -12  -1    2.90    9.50
   4  12   1    1.10    3.40
   4  12   1   10.60    9.20
   4  12   1   -7.00    5.50
   4  12   1    2.10   10.60
  -6 -12  -1    8.70   10.60
  -6 -12  -1    2.00   11.20
  -6 -12  -1    1.90    8.20
   6  12   1   -0.60   10.10
   6  12   1   -0.10   13.30
  -8 -12  -1    3.20    9.80
  -8 -12  -1   -2.80   12.50
  -8 -12  -1   -0.20   12.70
   8  12   1   21.70   13.60
   8  12   1    9.60   16.10
 -10 -12  -1  111.09   19.30
 -10 -12  -1  103.69   18.10
  10  12   1   99.59   22.20
 -12 -12  -1   73.79   21.50
 -12 -12  -1   75.29   21.40
  12  12   1   86.39   24.80
  12  12   1   66.19   22.20
  12  12   1   85.79   27.00
 -14 -12  -1   16.50   27.20
 -14 -12  -1  110.49   44.80
  14  12   1   77.69   28.30
  14  12   1   37.20   35.70
  14  12   1   42.10   37.30
 -15  13   1   12.70   37.60
  13 -13  -1  -12.80   20.10
  13 -13  -1  -11.20   18.40
 -13  13   1   11.50   32.90
 -13  13   1    3.60   30.10
  11 -13  -1    6.30   16.50
  11 -13  -1    7.10   15.10
  11 -13  -1    8.10   18.30
 -11  13   1   28.90   28.30
 -11  13   1   10.40   25.70
   9 -13  -1  -12.40   11.90
   9 -13  -1   -1.30   11.70
   9 -13  -1    2.80   15.40
  -9  13   1   20.40   19.60
  -9  13   1   19.40   12.90
  -9  13   1  -12.80   22.90
   7 -13  -1   58.19   11.60
   7 -13  -1   41.80   13.90
   7 -13  -1   50.59   12.20
  -7  13   1   14.50   12.80
  -7  13   1   67.89   23.00
  -7  13   1   29.10   17.70
   5 -13  -1   -0.30    8.80
   5 -13  -1   14.50    9.10
   5 -13  -1    3.70    9.20
  -5  13   1  -17.90   15.20
  -5  13   1   -0.30   14.20
  -5  13   1   -5.00    8.80
  -5  13   1   -1.50   11.10
  -5  13   1    5.30    7.60
   3 -13  -1    6.80    9.50
   3 -13  -1   -6.90    8.70
   3 -13  -1    1.70    8.70
   3 -13  -1   10.10    8.90
  -3  13   1   17.00   11.70
  -3  13   1    7.10    9.00
  -3  13   1    3.60    8.70
  -3  13   1    6.70   12.20
  -3  13   1    7.50   13.40
  -3  13   1   11.50    9.60
  -3  13   1   -2.00    7.70
   1 -13  -1  109.29   12.90
   1 -13  -1   93.79   12.20
   1 -13  -1   79.59   11.10
  -1  13   1  122.89   11.90
  -1  13   1  119.99   13.40
  -1  13   1   99.49   13.10
  -1  13   1  112.09   12.60
  -1  13   1  114.69   14.60
  -1 -13  -1   10.40    9.00
  -1 -13  -1    9.50    8.10
  -1 -13  -1    6.40    9.10
   1  13   1   17.30    9.40
   1  13   1   14.00    7.60
   1  13   1   -1.00   10.70
   1  13   1    7.80    6.30
   1  13   1   18.30    6.70
  -3 -13  -1    2.60    9.10
  -3 -13  -1    3.10    7.50
  -3 -13  -1   22.40   10.80
   3  13   1   13.70    7.40
   3  13   1   -7.30    9.40
   3  13   1   -2.10   11.60
   3  13   1    1.20    4.90
  -5 -13  -1   14.10   11.10
  -5 -13  -1   10.90   11.80
  -5 -13  -1    8.50    8.50
   5  13   1    1.30   10.80
   5  13   1   21.50   13.70
  -7 -13  -1   25.00   10.70
  -7 -13  -1   31.30   13.00
  -7 -13  -1   42.10   13.50
   7  13   1   12.70   14.00
   7  13   1   23.70   16.70
  -9 -13  -1  -23.10   14.80
  -9 -13  -1   10.10   16.40
   9  13   1    0.70   17.60
   9  13   1  -14.20   15.90
 -11 -13  -1   59.09   19.70
 -11 -13  -1   47.10   19.30
  11  13   1   62.19   21.80
  11  13   1   39.70   26.00
  11  13   1   48.80   21.00
 -13 -13  -1  -17.20   26.60
 -13 -13  -1   24.30   24.80
  13  13   1   12.10   31.70
  13  13   1  -11.40   23.80
  13  13   1   17.80   29.90
  14 -14  -1   48.20   26.90
 -14  14   1   60.19   49.60
 -14  14   1   53.49   38.10
  12 -14  -1   -5.90   18.20
  12 -14  -1   15.60   20.40
 -12  14   1    2.50   29.90
 -12  14   1   63.89   36.60
  10 -14  -1  189.38   21.10
  10 -14  -1  194.18   24.80
  10 -14  -1  188.08   21.60
 -10  14   1  233.08   49.70
 -10  14   1  224.38   36.80
   8 -14  -1    3.40   12.70
   8 -14  -1   16.40   12.80
  -8  14   1   -8.40   13.70
  -8  14   1   -0.70   20.20
  -8  14   1   23.80   23.50
   6 -14  -1  399.06   29.50
   6 -14  -1  427.36   26.30
   6 -14  -1  413.36   25.20
  -6  14   1  381.66   35.40
  -6  14   1  376.76   19.20
  -6  14   1  408.66   23.80
  -6  14   1  399.56   28.10
  -6  14   1  358.76   33.30
   4 -14  -1   10.70   10.40
   4 -14  -1    1.40    9.80
   4 -14  -1  -13.50    9.70
  -4  14   1   -0.20   10.30
  -4  14   1    1.20   12.40
  -4  14   1   -5.10    8.80
  -4  14   1  -12.10   15.30
  -4  14   1    5.70   11.40
  -4  14   1   20.40   16.10
  -4  14   1    1.30    9.60
   2 -14  -1  520.65   27.90
   2 -14  -1  521.55   29.20
   2 -14  -1  525.05   28.10
  -2  14   1  507.45   29.00
  -2  14   1  536.15   27.00
  -2  14   1  483.45   31.40
  -2  14   1  499.45   30.30
  -2  14   1  536.05   27.90
  -2  14   1  510.05   32.50
  -2  14   1  537.85   27.90
   0 -14  -1    8.10    9.20
   0 -14  -1    2.30    8.70
   0 -14  -1  -11.40    9.20
   0  14   1   -8.80   11.00
   0  14   1   -3.30    9.90
   0  14   1   -4.00    8.30
   0  14   1   -5.10   11.20
   0  14   1    1.40   16.50
  -2 -14  -1  344.27   24.20
  -2 -14  -1  361.66   25.10
  -2 -14  -1  418.36   23.50
   2  14   1  368.06   27.70
   2  14   1  386.26   18.10
   2  14   1  375.86   24.50
  -4 -14  -1   49.99   13.00
  -4 -14  -1   67.49   13.30
  -4 -14  -1   79.99   11.90
   4  14   1   92.89   17.20
   4  14   1   96.19   15.00
  -6 -14  -1    9.00   12.90
  -6 -14  -1   33.10   14.00
  -6 -14  -1   35.80   11.00
   6  14   1   39.30   17.50
   6  14   1   29.40   14.90
  -8 -14  -1  225.28   23.40
  -8 -14  -1  259.07   24.90
   8  14   1  294.47   29.70
   8  14   1  332.87   34.50
 -10 -14  -1  -30.40   16.80
 -10 -14  -1   18.70   19.20
  10  14   1  -12.50   22.70
  10  14   1    7.70   18.90
  10  14   1    0.00   22.80
 -12 -14  -1  238.18   28.90
 -12 -14  -1  203.18   30.40
  12  14   1  135.39   33.10
  12  14   1  180.88   32.70
  12  14   1  205.78   29.70
  13 -15  -1   76.19   38.00
  13 -15  -1   24.70   25.60
 -13  15   1   67.59   38.80
 -13  15   1  108.09   43.40
  11 -15  -1  361.96   34.00
  11 -15  -1  356.06   29.20
 -11  15   1  289.47   43.30
 -11  15   1  284.37   39.20
   9 -15  -1    9.90   16.30
   9 -15  -1   -7.40   16.40
  -9  15   1   12.20   27.30
  -9  15   1  -10.70   23.70
   7 -15  -1  271.17   26.10
   7 -15  -1  293.37   25.30
  -7  15   1  304.57   30.30
  -7  15   1  258.97   27.10
  -7  15   1  257.67   32.60
   5 -15  -1   32.40   13.50
   5 -15  -1   13.90   13.30
  -5  15   1   23.40   19.00
  -5  15   1   34.90   15.60
  -5  15   1   64.79   14.60
  -5  15   1   55.99   16.10
  -5  15   1   26.80   19.60
  -5  15   1   41.40   10.60
  -5  15   1   39.00   12.60
  -3  15   1   22.80   12.00
  -3  15   1   43.90   12.00
  -3  15   1   24.00   16.00
  -3  15   1   16.10   16.80
  -3  15   1   12.20   11.80
  -3  15   1   41.10   15.80
  -3  15   1   22.40   12.00
   1 -15  -1  457.25   28.00
   1 -15  -1  437.56   28.10
   1 -15  -1  458.15   27.60
  -1  15   1  437.36   24.70
  -1  15   1  442.66   32.70
  -1  15   1  453.95   32.50
  -1  15   1  450.35   27.60
  -1  15   1  461.25   27.60
  -1  15   1  423.46   29.00
  -1  15   1  483.35   28.40
  -1 -15  -1   42.80   12.40
  -1 -15  -1   23.60   10.40
  -1 -15  -1   28.20   12.60
   1  15   1   45.20    8.30
   1  15   1   34.20   14.10
   1  15   1   27.20   10.30
   1  15   1   20.60   11.90
   1  15   1   31.80   14.60
  -3 -15  -1  468.45   27.00
  -3 -15  -1  419.46   28.40
  -3 -15  -1  437.96   28.40
   3  15   1  457.35   33.30
   3  15   1  411.56   28.20
   3  15   1  458.35   33.00
  -5 -15  -1  244.68   21.80
  -5 -15  -1  177.78   23.50
  -5 -15  -1  245.28   22.10
   5  15   1  202.88   23.60
   5  15   1  194.28   20.30
  -7 -15  -1  351.86   31.30
  -7 -15  -1  385.16   32.10
   7  15   1  273.47   30.60
   7  15   1  378.36   31.90
   7  15   1  340.97   31.00
  -9 -15  -1   32.50   19.80
  -9 -15  -1   21.20   17.50
   9  15   1   65.29   23.80
   9  15   1   75.79   24.90
   9  15   1   27.40   21.00
 -11 -15  -1   65.49   26.70
 -11 -15  -1   26.00   22.90
  11  15   1   74.09   29.70
  11  15   1   15.90   27.10
  11  15   1   97.39   25.20
  12 -16  -1   54.39   27.50
  12 -16  -1   73.09   26.00
 -12  16   1  119.19   42.10
 -12  16   1   67.19   38.50
  10 -16  -1   45.40   22.90
  10 -16  -1   48.40   20.70
 -10  16   1   10.70   31.10
 -10  16   1   46.40   34.10
   8 -16  -1  221.98   23.40
  -8  16   1  215.38   31.00
  -8  16   1  238.58   27.90
  -8  16   1  164.38   35.30
   6 -16  -1   29.80   16.20
   6 -16  -1   43.00   27.80
  -6  16   1   86.69   25.60
  -6  16   1   55.19   19.50
  -6  16   1   69.99   18.70
  -6  16   1   47.30   17.70
  -6  16   1   45.30   17.10
  -6  16   1   97.49   24.50
  -4  16   1  185.38   17.10
  -4  16   1  156.28   24.20
  -4  16   1  203.08   19.60
  -4  16   1  222.58   26.40
  -4  16   1  194.08   22.90
  -4  16   1  178.18   20.40
  -4  16   1  188.88   20.10
  -2  16   1   28.60   13.10
  -2  16   1   42.20   19.90
  -2  16   1   26.80   14.40
  -2  16   1    7.20   18.30
  -2  16   1   41.50   16.90
  -2  16   1   41.60   14.50
  -2  16   1   15.30   13.50
   0 -16  -1  250.77   22.40
   0 -16  -1  278.17   25.20
   0 -16  -1  268.17   25.00
   0  16   1  328.07   21.70
   0  16   1  252.57   23.60
   0  16   1  288.07   28.30
   0  16   1  315.07   27.90
   0  16   1  283.77   20.90
   0  16   1  224.48   24.40
  -2 -16  -1    1.20   14.10
  -2 -16  -1   14.60   12.90
  -2 -16  -1   12.90   11.60
   2  16   1    5.80   16.00
   2  16   1  -15.20   15.70
   2  16   1   -2.60   13.30
  -4 -16  -1   21.70   13.10
  -4 -16  -1   -3.70   15.10
  -4 -16  -1   26.70   16.10
   4  16   1   19.80   27.90
   4  16   1   38.50   20.00
   4  16   1   17.50   15.10
  -6 -16  -1  -22.20   14.70
  -6 -16  -1   19.60   17.50
   6  16   1    9.80   20.60
   6  16   1  -17.10   18.20
   6  16   1  -37.20   16.40
  -8 -16  -1   59.69   20.40
  -8 -16  -1   45.50   21.20
   8  16   1  -20.80   23.20
   8  16   1   27.90   20.40
   8  16   1   27.20   23.80
 -10 -16  -1   48.40   25.50
 -10 -16  -1   21.50   23.30
  10  16   1   34.50   25.00
  10  16   1   52.09   27.40
  10  16   1    3.00   26.40
  11 -17  -1   33.30   25.40
  11 -17  -1   20.00   26.80
 -11  17   1   27.00   38.20
 -11  17   1  -25.30   41.30
 -11  17   1   14.10   31.60
   9 -17  -1   49.30   24.30
   9 -17  -1   80.69   22.40
  -9  17   1   34.60   34.20
  -9  17   1   15.10   32.70
  -9  17   1   88.09   27.90
   7 -17  -1  -13.30   18.70
   7 -17  -1   -8.20   18.90
  -7  17   1   19.60   28.80
  -7  17   1  -19.10   19.70
  -7  17   1    4.80   25.70
  -7  17   1   10.40   21.10
  -5  17   1   -6.30   15.30
  -5  17   1  -31.20   22.60
  -5  17   1   -0.40   23.80
  -5  17   1    4.10   17.80
  -5  17   1   -7.90   17.50
  -5  17   1    4.80   23.80
  -3  17   1   -0.50   15.10
  -3  17   1   22.80   20.00
  -3  17   1    7.10   20.30
  -3  17   1   14.10   21.70
  -3  17   1   14.40   15.50
  -3  17   1   18.60   16.50
  -3  17   1   -4.60   15.70
   1 -17  -1   41.10   16.10
  -1  17   1   35.90   22.50
  -1  17   1   -7.40   14.70
  -1  17   1    3.60   20.80
  -1  17   1   21.20   15.50
  -1  17   1   12.70   15.70
  -1  17   1   20.40   13.40
  -1 -17  -1   19.80   15.20
  -1 -17  -1   39.60   16.40
   1  17   1   19.10   17.80
   1  17   1   10.60   18.80
   1  17   1   10.40   15.80
   1  17   1   39.60   22.10
  -3 -17  -1    6.90   15.00
  -3 -17  -1   20.60   17.10
  -3 -17  -1   54.79   17.60
   3  17   1   20.10   20.10
   3  17   1  -21.60   18.60
   3  17   1   13.80   17.40
  -5 -17  -1   33.30   19.10
  -5 -17  -1  -15.00   16.70
   5  17   1   -1.90   20.60
   5  17   1    1.40   18.30
   5  17   1    4.70   21.20
  -7 -17  -1   37.80   20.80
  -7 -17  -1   -7.60   20.30
   7  17   1  -28.40   20.50
   7  17   1   23.90   26.10
   7  17   1   -8.10   22.60
  -9 -17  -1  -23.90   25.20
  -9 -17  -1    9.30   22.60
   9  17   1   33.20   25.40
   9  17   1  -40.40   25.70
   9  17   1  -58.99   27.40
  10 -18  -1   16.20   29.30
  10 -18  -1   19.50   29.20
 -10  18   1   58.69   41.30
 -10  18   1   28.30   33.70
   8 -18  -1  114.79   25.60
   8 -18  -1  109.89   27.10
  -8  18   1  225.08   39.50
  -8  18   1  184.48   32.80
  -6  18   1   36.50   30.90
  -6  18   1  -21.50   21.50
  -6  18   1   18.60   30.30
  -6  18   1    1.60   29.10
  -4  18   1  323.37   31.80
  -4  18   1  408.96   40.50
  -4  18   1  343.87   36.10
  -4  18   1  311.07   32.30
  -4  18   1  326.37   40.10
  -2  18   1   24.80   23.90
  -2  18   1   11.70   18.30
  -2  18   1    2.00   18.60
  -2  18   1    3.90   17.50
   0 -18  -1  340.17   33.90
   0 -18  -1  413.06   34.20
   0  18   1  334.77   35.80
   0  18   1  419.06   40.80
   0  18   1  329.27   35.30
   0  18   1  309.67   31.90
  -2 -18  -1   22.80   19.90
  -2 -18  -1   38.80   18.70
   2  18   1   -8.20   21.90
   2  18   1   41.90   19.70
   2  18   1   40.90   22.10
  -4 -18  -1  156.58   23.60
  -4 -18  -1  160.78   24.00
   4  18   1  189.38   28.20
   4  18   1  138.59   23.50
   4  18   1  138.39   28.00
  -6 -18  -1  157.58   26.60
  -6 -18  -1  173.18   24.90
   6  18   1  123.69   28.40
   6  18   1  193.88   30.20
   6  18   1  139.59   26.40
  -8 -18  -1   35.90   24.70
  -8 -18  -1  -19.80   26.80
   8  18   1   24.00   29.20
   8  18   1   15.40   26.80
   8  18   1   35.70   30.10
   9 -19  -1  -32.70   31.20
  -9  19   1   61.69   45.20
  -9  19   1   60.19   35.30
  -7  19   1   85.09   30.50
  -7  19   1   21.70   36.70
  -1  19   1   62.09   23.70
  -1  19   1    8.60   29.50
  -1  19   1    6.30   22.20
  -1 -19  -1   70.29   22.80
  -1 -19  -1   51.79   20.90
   1  19   1   17.90   23.30
   1  19   1   62.49   24.50
   1  19   1   32.90   21.50
   1  19   1   27.60   31.30
  -3 -19  -1   63.39   22.10
  -3 -19  -1   50.59   23.80
   3  19   1   35.30   25.40
   3  19   1    6.30   25.50
   3  19   1   28.90   25.00
  -5 -19  -1   71.59   24.50
  -5 -19  -1   79.19   26.30
   5  19   1   39.40   28.10
   5  19   1   36.70   27.60
  -7 -19  -1   71.49   30.60
   7  19   1   74.49   32.80
   0  20   1   24.00   26.80
   0  20   1    5.90   27.50
  -2 -20  -1   30.30   24.50
  -2 -20  -1   63.99   27.00
   2  20   1   14.90   27.90
   2  20   1   44.90   28.60
  -4 -20  -1   64.19   29.10
  -4 -20  -1   12.40   28.10
   4  20   1    4.10   31.30
   4  20   1   14.20   29.40
   1  21   1  -38.10   31.60
   1  21   1  -68.89   32.10
   3  21   1   35.90   34.80
   3  21  -2   65.39   43.00
   3  21  -2    9.50   34.30
  -3 -21   2   58.89   30.60
   1  21  -2  100.79   37.00
   1  21  -2   63.79   35.70
  -1 -21   2   31.50   30.50
   6  20  -2  217.08   37.90
   6  20  -2  277.77   36.10
  -6 -20   2  310.67   34.50
   4  20  -2   -8.00   27.70
   4  20  -2   -4.10   27.20
  -4 -20   2   12.90   24.50
  -4 -20   2  -18.10   27.10
   2  20  -2  183.68   32.20
   2  20  -2  165.68   32.60
  -2 -20   2  197.38   29.20
  -2 -20   2  227.98   32.30
   0  20  -2   29.40   29.10
   0  20  -2  126.39   32.40
   0  20  -2   73.79   30.20
   0 -20   2   41.40   27.30
   0 -20   2  104.19   27.50
  -2  20  -2   -1.70   30.70
  -2  20  -2  -41.70   29.30
  -2  20  -2   78.49   31.80
   2 -20   2   -1.10   29.70
  -4  20  -2  312.67   42.60
  -4  20  -2  336.47   41.80
   4 -20   2  243.88   37.70
   9  19  -2   70.49   33.80
   7  19  -2  181.18   33.90
   7  19  -2  162.98   31.90
  -7 -19   2  152.48   28.00
  -7 -19   2  203.18   28.70
   5  19  -2  -24.10   24.50
   5  19  -2   12.60   26.00
  -5 -19   2   13.40   20.50
  -5 -19   2    8.50   23.00
   3  19  -2  427.96   44.90
   3  19  -2  417.46   38.50
   3  19  -2  404.16   44.70
  -3 -19   2  526.65   40.60
  -3 -19   2  451.85   40.90
   1  19  -2   16.70   24.00
   1  19  -2   31.60   24.90
   1  19  -2  -16.90   24.20
  -1 -19   2   11.70   20.50
  -1 -19   2   18.90   21.40
  -1  19  -2  668.83   51.39
  -1  19  -2  620.94   46.90
  -1  19  -2  555.64   48.20
   1 -19   2  646.64   46.00
   1 -19   2  533.15   43.20
  -3  19  -2   30.30   28.20
  -3  19  -2   30.20   28.20
   3 -19   2  -40.10   22.00
   3 -19   2   39.70   25.30
  -5  19  -2  293.67   37.70
  -5  19  -2  351.66   39.20
  -5  19  -2  326.37   44.40
   5 -19   2  273.87   33.30
   5 -19   2  224.28   34.30
  10  18  -2   51.19   30.90
  10  18  -2   34.60   39.10
 -10 -18   2   72.69   30.60
   8  18  -2  -24.40   24.50
   8  18  -2  -34.10   24.90
  -8 -18   2   53.39   21.80
  -8 -18   2   12.90   21.80
   6  18  -2   46.80   24.80
   6  18  -2   35.50   25.40
  -6 -18   2   51.99   20.50
  -6 -18   2   88.29   24.80
   4  18  -2   20.70   22.00
   4  18  -2    6.50   22.60
   4  18  -2   -1.70   22.10
  -4 -18   2   15.00   18.40
  -4 -18   2  -20.40   18.20
   2  18  -2   75.39   23.50
   2  18  -2   -3.70   22.50
   2  18  -2   29.70   21.60
  -2 -18   2   29.70   17.40
  -2 -18   2    4.40   19.50
   0  18  -2   47.80   23.20
   0  18  -2   26.60   22.90
   0 -18   2   73.39   21.80
  -2  18  -2   65.59   25.60
  -2  18  -2   84.69   26.90
  -2  18  -2   61.69   24.30
   2 -18   2   78.19   20.40
   2 -18   2   61.29   22.70
  -4  18  -2   64.59   25.90
  -4  18  -2   35.60   26.50
  -4  18  -2   95.39   29.60
   4 -18   2   58.99   25.30
   4 -18   2   79.89   22.10
  -6  18  -2   65.89   29.30
  -6  18  -2  -19.80   34.70
   6 -18   2  -17.90   23.90
  -8  18  -2  106.59   49.80
  11  17  -2   80.29   30.30
  11  17  -2   95.69   30.70
 -11 -17   2   84.09   25.00
 -11 -17   2  105.59   27.50
   9  17  -2  -29.50   21.50
   9  17  -2   32.80   25.80
  -9 -17   2  -45.50   21.30
  -9 -17   2  -24.90   19.20
  -9 -17   2   -6.80   18.20
   7  17  -2   45.00   21.60
   7  17  -2   55.79   24.40
   7  17  -2   48.80   21.60
  -7 -17   2   53.69   18.70
  -7 -17   2   32.60   21.40
  -7 -17   2   45.30   18.90
   5  17  -2   60.49   20.80
   5  17  -2   58.69   22.90
   5  17  -2   50.99   20.90
  -5 -17   2   69.39   18.20
  -5 -17   2   71.39   19.80
  -5 -17   2   30.90   16.70
   3  17  -2   54.59   19.90
   3  17  -2   39.50   19.00
   3  17  -2   16.20   19.20
  -3 -17   2   13.90   18.30
  -3 -17   2  -14.50   26.60
  -3 -17   2    6.20   14.00
   1  17  -2  131.79   27.50
   1  17  -2  155.88   23.30
  -1 -17   2  156.98   19.10
  -1 -17   2  127.59   21.40
  -1  17  -2   60.19   20.50
  -1  17  -2   52.39   20.80
  -1  17  -2   80.19   22.40
   1 -17   2   50.59   15.30
   1 -17   2   54.29   18.10
   1 -17   2   33.90   18.80
  -3  17  -2  194.78   27.80
  -3  17  -2  122.79   25.10
  -3  17  -2  116.39   23.60
   3 -17   2  132.79   20.80
   3 -17   2  143.29   22.40
  -5  17  -2   44.20   25.70
  -5  17  -2   87.99   29.60
   5 -17   2   39.10   22.60
   5 -17   2   20.00   20.90
  -7  17  -2   37.00   33.60
  -7  17  -2   23.10   26.70
   7 -17   2    6.10   22.70
   7 -17   2   48.80   22.60
  -9  17  -2  161.08   47.70
   9 -17   2  218.58   48.60
  12  16  -2  167.58   33.10
  12  16  -2  171.38   30.60
 -12 -16   2  131.29   29.80
 -12 -16   2  141.79   25.70
  10  16  -2   22.00   23.80
  10  16  -2    0.50   22.50
 -10 -16   2  -24.40   16.90
 -10 -16   2   12.90   20.70
 -10 -16   2  -11.30   20.70
   8  16  -2  423.96   38.70
   8  16  -2  440.96   41.90
   8  16  -2  432.16   34.30
  -8 -16   2  455.65   36.60
  -8 -16   2  449.86   34.10
  -8 -16   2  436.36   34.30
   6  16  -2    9.90   18.70
   6  16  -2   21.40   18.10
   6  16  -2   14.30   19.20
  -6 -16   2   10.30   16.60
  -6 -16   2   -9.30   13.70
  -6 -16   2   11.90   14.60
   4  16  -2  241.48   24.30
   4  16  -2  260.47   25.40
  -4 -16   2  275.57   26.00
  -4 -16   2  228.98   19.40
  -4 -16   2  235.58   24.50
   2  16  -2  103.49   18.90
   2  16  -2   69.19   19.60
  -2 -16   2   85.49   25.20
  -2 -16   2  102.69   15.50
   0  16  -2  122.79   19.90
   0  16  -2  115.59   18.30
   0  16  -2   84.19   19.60
   0 -16   2   92.99   18.20
   0 -16   2  111.29   15.60
  -2  16  -2  160.88   23.30
  -2  16  -2  122.79   22.70
  -2  16  -2  162.18   23.40
   2 -16   2  106.19   18.40
   2 -16   2  104.99   18.60
   2 -16   2  155.48   16.50
  -4  16  -2   18.10   22.70
  -4  16  -2   35.90   20.50
   4 -16   2   54.99   17.40
   4 -16   2   11.60   16.60
  -6  16  -2  297.07   36.80
  -6  16  -2  280.07   32.60
   6 -16   2  247.48   26.70
   6 -16   2  328.77   28.10
   6 -16   2  300.37   27.30
  -8  16  -2   22.10   34.00
  -8  16  -2   16.10   26.10
   8 -16   2    8.00   22.00
   8 -16   2   -2.60   20.90
 -10  16  -2  323.97   71.19
  10 -16   2  230.98   35.70
  13  15  -2  -14.90   29.50
  13  15  -2    2.30   26.50
 -13 -15   2   29.10   23.40
 -13 -15   2   38.60   25.50
  11  15  -2  164.88   29.00
  11  15  -2  186.48   28.20
 -11 -15   2  121.99   23.50
 -11 -15   2  178.48   25.00
   9  15  -2  289.57   29.20
   9  15  -2  255.67   29.50
   9  15  -2  253.47   28.20
  -9 -15   2  279.57   25.50
  -9 -15   2  278.87   28.70
  -9 -15   2  325.77   32.60
   7  15  -2  120.19   21.40
   7  15  -2  119.89   24.20
   7  15  -2  136.29   20.10
  -7 -15   2  173.48   20.80
  -7 -15   2  108.49   17.90
  -7 -15   2  147.99   16.20
   5  15  -2  632.14   40.70
   5  15  -2  616.34   38.50
   5  15  -2  659.83   36.10
  -5 -15   2  688.53   38.00
  -5 -15   2  692.03   35.50
  -5 -15   2  637.64   32.30
   3  15  -2  220.18   24.10
   3  15  -2  256.87   24.70
   3  15  -2  258.87   15.10
  -3 -15   2  256.87   19.70
  -3 -15   2  241.08   23.50
  -3 -15   2  281.57   22.50
   1  15  -2  498.85   28.40
   1  15  -2  512.25   32.00
   1  15  -2  549.74   34.70
  -1 -15   2  560.64   28.90
  -1 -15   2  504.85   30.80
  -1 -15   2  462.45   31.40
  -1  15  -2  258.17   25.20
  -1  15  -2  267.67   26.20
  -1  15  -2  280.37   28.00
   1 -15   2  280.97   20.40
   1 -15   2  262.67   24.60
   1 -15   2  236.88   25.10
  -3  15  -2  593.44   33.70
  -3  15  -2  493.05   35.70
  -3  15  -2  585.54   37.80
   3 -15   2  625.54   34.20
   3 -15   2  504.25   32.70
  -5  15  -2  150.38   24.00
  -5  15  -2  161.78   27.20
  -5  15  -2  142.99   18.20
   5 -15   2   96.69   19.20
   5 -15   2  128.49   19.50
   5 -15   2  114.39   18.50
  -7  15  -2  538.55   39.30
  -7  15  -2  545.75   41.90
  -7  15  -2  519.25   49.30
   7 -15   2  528.15   38.40
   7 -15   2  534.55   36.70
   7 -15   2  559.74   38.70
  -9  15  -2   89.29   28.20
  -9  15  -2   79.09   34.10
   9 -15   2   89.29   23.20
   9 -15   2   47.70   20.50
  11 -15   2   75.89   30.60
  14  14  -2  -45.20   28.00
  14  14  -2  -10.70   26.10
 -14 -14   2   29.10   24.70
 -14 -14   2    4.80   21.80
  12  14  -2   41.70   23.30
  12  14  -2  -15.90   21.60
 -12 -14   2   -5.30   18.10
 -12 -14   2   15.40   19.10
  10  14  -2   13.30   20.70
  10  14  -2  -12.50   16.10
  10  14  -2   19.50   19.10
 -10 -14   2    9.80   16.90
 -10 -14   2   21.00   15.00
 -10 -14   2  -12.10   15.40
   8  14  -2   19.60   18.10
   8  14  -2   -2.00   14.50
  -8 -14   2    2.30   12.90
  -8 -14   2   11.40   11.90
  -8 -14   2   10.70   18.80
   6  14  -2  121.29   19.00
   6  14  -2  113.49   17.40
   6  14  -2  115.69   17.90
  -6 -14   2  118.29   17.80
  -6 -14   2  126.69   16.00
  -6 -14   2  118.59   13.20
   4  14  -2    3.50   12.50
   4  14  -2    9.50   14.00
  -4 -14   2  -18.60   11.10
  -4 -14   2   -0.10    9.60
  -4 -14   2  -22.80    8.00
   2  14  -2  178.28   17.20
   2  14  -2  193.58   21.10
   2  14  -2  200.78   20.70
  -2 -14   2  157.08   15.10
  -2 -14   2  194.78   19.40
  -2 -14   2  179.08   15.50
   0  14  -2   87.89    9.90
   0  14  -2   76.29   16.80
   0  14  -2  103.19   15.40
   0  14  -2  111.59   16.80
   0 -14   2   81.89   14.00
   0 -14   2   84.39   11.40
   0 -14   2   82.29   13.50
  -2  14  -2   19.90   14.80
  -2  14  -2   -8.00   13.70
  -2  14  -2    8.30    6.40
   2 -14   2    1.70   12.00
   2 -14   2    3.60    8.50
   2 -14   2   11.90   11.30
  -4  14  -2  330.27   22.90
  -4  14  -2  269.87   30.30
  -4  14  -2  244.88   26.50
   4 -14   2  307.17   25.00
   4 -14   2  283.37   24.60
   4 -14   2  231.38   21.10
  -6  14  -2   15.50   22.10
  -6  14  -2    8.20   16.10
  -6  14  -2   -2.10   18.80
   6 -14   2   -1.10   13.30
   6 -14   2   -2.10   13.80
   6 -14   2   23.40   15.10
  -8  14  -2   48.60   28.80
  -8  14  -2   73.69   23.00
  -8  14  -2   75.99   23.90
   8 -14   2   34.20   17.80
   8 -14   2   66.69   19.00
   8 -14   2   73.99   19.30
 -10  14  -2   32.20   26.00
 -10  14  -2   18.80   32.10
 -10  14  -2    7.40   29.90
  10 -14   2   22.60   20.00
  10 -14   2    9.80   20.00
  12 -14   2   55.89   43.30
  15  13  -2   11.50   26.60
  15  13  -2   60.29   29.80
 -15 -13   2   23.60   27.10
 -15 -13   2   38.50   24.00
  13  13  -2  210.58   29.20
  13  13  -2  155.98   26.90
 -13 -13   2  179.98   24.20
 -13 -13   2  144.99   23.40
  11  13  -2   36.20   20.00
  11  13  -2   63.69   20.30
 -11 -13   2   93.39   17.30
 -11 -13   2   92.89   18.80
 -11 -13   2   70.69   18.00
   9  13  -2  283.17   26.70
   9  13  -2  254.97   24.50
   9  13  -2  314.07   30.90
  -9 -13   2  263.07   25.20
  -9 -13   2  251.77   25.30
  -9 -13   2  295.57   24.10
   7  13  -2   15.80   12.30
   7  13  -2   -2.10   13.70
   7  13  -2   -0.10   13.90
  -7 -13   2   17.60   12.10
  -7 -13   2   -6.30   12.50
  -7 -13   2    6.00    9.60
   5  13  -2   16.50   12.50
   5  13  -2   39.10   14.00
  -5 -13   2   45.70   11.40
  -5 -13   2   18.70    8.30
  -5 -13   2   22.00   11.20
   3  13  -2  231.08   13.80
   3  13  -2  337.87   25.90
   3  13  -2  216.78   16.40
   3  13  -2  217.38   20.40
   3  13  -2  234.28   23.20
  -3 -13   2  204.28   18.50
  -3 -13   2  259.97   16.10
  -3 -13   2  194.08   20.90
   1  13  -2  -20.40    8.30
   1  13  -2   -5.00    8.90
   1  13  -2    0.10   10.40
   1  13  -2   -6.50   11.60
   1  13  -2    8.60    9.60
  -1 -13   2    3.20    7.70
  -1 -13   2   -5.60    9.40
  -1 -13   2  -11.30    9.80
  -1  13  -2  198.08   20.00
  -1  13  -2  211.28   21.50
  -1  13  -2  204.58   10.80
  -1  13  -2  183.08   15.60
   1 -13   2  199.98   18.00
   1 -13   2  178.28   15.40
   1 -13   2  217.58   19.80
  -3  13  -2   10.80   10.00
  -3  13  -2   14.20   14.80
  -3  13  -2    1.30   13.00
   3 -13   2   -5.20    7.20
   3 -13   2  -10.70    9.30
   3 -13   2    5.30   10.40
   3 -13   2    1.20   10.20
  -5  13  -2   72.29   22.30
  -5  13  -2   77.79   15.30
  -5  13  -2   87.29   18.30
   5 -13   2   96.39   15.00
   5 -13   2   94.29   14.00
   5 -13   2   66.39   14.10
  -7  13  -2  207.88   35.30
  -7  13  -2  169.18   21.70
  -7  13  -2  146.79   23.80
   7 -13   2  160.08   19.80
   7 -13   2  172.68   18.30
  -9  13  -2   -7.30   20.50
  -9  13  -2   65.29   23.10
  -9  13  -2   41.00   30.00
   9 -13   2    6.10   16.00
   9 -13   2   -5.30   16.80
 -11  13  -2  210.98   41.70
 -11  13  -2  169.18   32.90
 -11  13  -2  278.27   37.20
  11 -13   2  179.58   25.00
  11 -13   2  249.08   27.70
  16  12  -2   14.00   33.10
 -16 -12   2   40.90   28.50
 -16 -12   2  -13.00   27.90
  14  12  -2  -16.00   21.50
  14  12  -2  -16.10   22.70
 -14 -12   2    2.60   19.10
 -14 -12   2    7.30   20.00
  12  12  -2   49.00   21.70
  12  12  -2   65.09   19.90
 -12 -12   2   38.60   18.00
 -12 -12   2  100.89   18.70
  10  12  -2  165.98   18.50
  10  12  -2  125.79   20.00
  10  12  -2  118.19   19.80
 -10 -12   2  137.69   17.80
 -10 -12   2  127.79   18.30
 -10 -12   2  118.19   15.90
   8  12  -2   -3.80   11.70
   8  12  -2    2.30   14.10
   8  12  -2    2.20   13.70
  -8 -12   2   20.10   12.20
  -8 -12   2   13.80    9.60
  -8 -12   2   17.20   11.10
   6  12  -2  211.38   23.10
   6  12  -2  220.28   22.30
   6  12  -2  250.97   20.90
  -6 -12   2  237.78   19.50
  -6 -12   2  228.58   20.50
  -6 -12   2  240.98   17.30
   4  12  -2    9.30    5.90
   4  12  -2    8.50    4.60
   4  12  -2    8.20   10.60
   4  12  -2   22.20   12.00
  -4 -12   2    8.50    6.70
  -4 -12   2    2.30    8.30
  -4 -12   2    2.10    9.50
   2  12  -2  163.48   16.50
   2  12  -2  166.88   14.00
   2  12  -2  161.48   17.10
   2  12  -2  157.38   16.30
  -2 -12   2  128.99   14.20
  -2 -12   2  177.28   15.40
  -2 -12   2  179.48   12.50
  -2 -12   2  160.08   14.50
   0  12  -2   83.99   13.20
   0  12  -2   93.89    8.20
   0  12  -2   87.49    8.70
   0  12  -2   72.29   13.20
   0  12  -2   78.19    4.90
   0  12  -2   76.29   13.00
   0 -12   2   98.99   13.40
   0 -12   2   72.99   10.90
   0 -12   2   81.89    9.50
  -2  12  -2   33.00   12.50
  -2  12  -2   61.79   14.90
  -2  12  -2   32.90    8.10
  -2  12  -2   51.19    7.60
  -2  12  -2   55.39    7.90
   2 -12   2   49.90   11.00
   2 -12   2   23.90    9.40
   2 -12   2   46.10    7.60
   2 -12   2   31.80   10.40
  -4  12  -2   63.49   15.70
  -4  12  -2   86.79   19.20
  -4  12  -2   76.69   12.90
   4 -12   2   58.59   11.40
   4 -12   2   77.39   12.20
   4 -12   2  101.39   14.10
  -6  12  -2    7.30   14.90
  -6  12  -2   15.50   14.30
  -6  12  -2   25.00   20.60
   6 -12   2    7.10   11.20
   6 -12   2  -10.80   11.10
   6 -12   2   31.50   11.10
  -8  12  -2  142.89   24.10
  -8  12  -2  154.38   23.00
   8 -12   2  147.19   19.30
   8 -12   2  128.99   15.60
 -10  12  -2   38.90   23.80
 -10  12  -2   30.20   39.40
 -10  12  -2   16.50   30.80
  10 -12   2   24.80   17.20
  10 -12   2  -12.90   17.30
 -12  12  -2   51.79   32.10
 -12  12  -2    9.90   34.50
 -12  12  -2   59.79   32.00
  12 -12   2   16.90   19.60
  12 -12   2    9.50   21.90
  15  11  -2  274.47   31.20
  15  11  -2  297.37   33.00
 -15 -11   2  241.48   27.40
 -15 -11   2  235.28   29.10
  13  11  -2   87.49   21.90
  13  11  -2  112.59   23.70
 -13 -11   2   70.89   17.60
 -13 -11   2   93.99   18.50
  11  11  -2  460.75   34.80
  11  11  -2  424.36   33.60
  11  11  -2  560.44   30.50
 -11 -11   2  453.65   29.40
 -11 -11   2  431.76   28.80
 -11 -11   2  478.15   30.90
   9  11  -2  553.14   34.40
   9  11  -2  591.84   35.40
   9  11  -2  570.74   30.30
  -9 -11   2  584.54   29.00
  -9 -11   2  605.84   31.30
  -9 -11   2  538.65   29.80
   7  11  -2  488.05   28.80
   7  11  -2  496.65   30.60
   7  11  -2  455.05   23.70
   7  11  -2  482.15   26.60
  -7 -11   2  494.65   24.30
  -7 -11   2  522.05   26.60
  -7 -11   2  458.95   26.00
   5  11  -2 1107.39   45.20
   5  11  -2 1062.99   46.70
  -5 -11   2 1027.90   44.90
  -5 -11   2 1071.39   43.70
  -5 -11   2 1093.69   41.60
   3  11  -2  713.53   28.20
   3  11  -2  724.53   28.20
   3  11  -2  671.53   33.50
   3  11  -2  680.73   31.70
   3  11  -2  666.33   32.10
  -3 -11   2  672.83   32.00
  -3 -11   2  723.63   28.50
  -3 -11   2  737.43   30.90
  -3 -11   2  717.23   31.30
   1  11  -2 1713.13   68.19
   1  11  -2 1787.82   66.49
   1  11  -2 1700.03   68.39
   1  11  -2 1789.02   64.59
   1  11  -2 1818.02   65.29
   1  11  -2 1824.62   63.99
  -1 -11   2 1771.42   67.39
  -1 -11   2 1736.43   66.49
  -1 -11   2 1780.32   65.39
  -1 -11   2 1822.42   63.69
  -1  11  -2  972.30   43.00
  -1  11  -2  982.10   38.10
  -1  11  -2 1020.00   37.20
  -1  11  -2 1004.20   39.00
  -1  11  -2 1021.80   43.90
   1 -11   2  972.50   41.60
   1 -11   2 1032.10   41.40
   1 -11   2 1038.30   39.00
  -3  11  -2 1179.98   49.30
  -3  11  -2 1343.57   47.00
  -3  11  -2 1256.67   47.40
  -3  11  -2 1244.08   54.89
  -3  11  -2 1183.18   52.79
   3 -11   2 1288.17   50.59
   3 -11   2 1296.67   50.99
   3 -11   2 1316.57   50.49
   3 -11   2 1311.37   47.00
  -5  11  -2  489.95   28.80
  -5  11  -2  498.05   30.40
  -5  11  -2  556.14   36.70
   5 -11   2  559.54   26.50
   5 -11   2  538.05   28.20
   5 -11   2  521.65   26.70
  -7  11  -2  533.45   34.50
  -7  11  -2  492.55   40.40
  -7  11  -2  515.25   33.20
   7 -11   2  534.65   27.60
   7 -11   2  560.24   30.70
   7 -11   2  554.34   29.90
  -9  11  -2  530.55   38.10
  -9  11  -2  464.95   46.60
   9 -11   2  506.05   28.80
   9 -11   2  627.24   33.90
 -11  11  -2  138.09   37.50
 -11  11  -2  207.88   30.80
  11 -11   2  158.58   22.50
  11 -11   2  189.68   23.90
 -13  11  -2  256.37   37.50
 -13  11  -2  284.17   46.60
  13 -11   2  277.47   30.70
  13 -11   2  264.17   30.50
  16  10  -2  -35.70   25.20
  16  10  -2   -2.60   23.30
 -16 -10   2    8.90   23.30
 -16 -10   2   -6.80   20.40
  14  10  -2    4.40   19.60
  14  10  -2    8.70   20.40
 -14 -10   2   -6.70   18.00
 -14 -10   2   -2.70   17.00
 -14 -10   2   16.20   16.90
  12  10  -2  115.09   20.60
  12  10  -2  110.69   21.40
 -12 -10   2   85.39   15.70
 -12 -10   2  124.49   17.90
 -12 -10   2   99.19   15.20
  10  10  -2   30.20   14.30
  10  10  -2   18.30    6.00
  10  10  -2   22.60   14.10
  10  10  -2   41.60   12.70
 -10 -10   2   18.10   11.20
 -10 -10   2   26.30   10.90
 -10 -10   2   15.70   10.80
   8  10  -2  445.26   25.30
   8  10  -2  448.96   27.20
   8  10  -2  443.56   28.80
   8  10  -2  481.75   25.30
   8  10  -2  475.35   21.30
  -8 -10   2  424.56   24.90
  -8 -10   2  419.66   24.30
  -8 -10   2  462.55   23.30
   6  10  -2    9.80    5.10
   6  10  -2   -2.30   10.00
   6  10  -2   16.90    6.60
   6  10  -2    7.20    9.70
  -6 -10   2   21.00    9.20
  -6 -10   2    2.10    7.30
  -6 -10   2   15.80    6.40
   4  10  -2  347.87   20.50
   4  10  -2  323.87   21.90
   4  10  -2  317.77   14.60
   4  10  -2  314.67   18.10
   4  10  -2  323.37   14.40
   4  10  -2  322.57   19.90
  -4 -10   2  317.57   19.70
  -4 -10   2  327.47   18.10
  -4 -10   2  328.67   16.00
   2  10  -2  111.59   10.60
   2  10  -2   99.49   12.40
   2  10  -2  104.89   12.70
   2  10  -2   98.99   10.80
   2  10  -2  103.19   10.40
  -2 -10   2  111.39   11.20
  -2 -10   2  109.79    8.20
  -2 -10   2   98.99   11.40
  -2 -10   2  105.79   10.60
   0  10  -2  221.88   17.60
   0  10  -2  255.27   10.80
   0  10  -2  265.77   15.70
   0  10  -2  242.38   18.10
   0  10  -2  263.07   15.20
   0  10  -2  273.47   12.50
   0  10  -2  275.57   13.50
   0 -10   2  262.57   14.70
   0 -10   2  270.47   16.70
   0 -10   2  239.48   16.60
  -2  10  -2  319.57   22.50
  -2  10  -2  300.67   20.80
  -2  10  -2  315.87   16.40
  -2  10  -2  347.17   16.40
  -2  10  -2  356.46   16.10
   2 -10   2  314.77   18.60
   2 -10   2  329.87   19.30
   2 -10   2  337.87   18.90
  -4  10  -2   39.00    7.20
  -4  10  -2   13.10   13.30
  -4  10  -2   27.00   11.30
  -4  10  -2   32.90   10.80
  -4  10  -2   37.80    5.50
   4 -10   2   35.20    9.30
   4 -10   2    8.90    7.80
   4 -10   2   33.90    8.40
  -6  10  -2  244.88   28.90
  -6  10  -2  242.18   22.10
  -6  10  -2  236.18   22.30
   6 -10   2  260.37   20.10
   6 -10   2  246.88   19.10
   6 -10   2  251.47   17.10
  -8  10  -2   36.50   16.20
  -8  10  -2   22.00   21.00
   8 -10   2   45.10   12.90
   8 -10   2   23.30   11.90
   8 -10   2   36.30   10.20
 -10  10  -2  279.47   28.80
 -10  10  -2  306.17   39.40
  10 -10   2  316.87   27.70
  10 -10   2  334.87   28.50
 -12  10  -2   -1.60   26.90
 -12  10  -2  -29.20   32.40
  12 -10   2   32.70   18.70
  12 -10   2   -5.90   17.40
 -14  10  -2   -7.10   33.20
 -14  10  -2   28.10   61.79
  14 -10   2   -8.70   23.60
  14 -10   2  -13.60   25.60
  17   9  -2    0.60   26.50
  17   9  -2   19.90   28.90
 -17  -9   2   38.70   23.70
 -17  -9   2   44.10   27.10
 -17  -9   2   30.50   37.60
  15   9  -2  179.58   25.20
  15   9  -2  167.98   26.40
 -15  -9   2  196.68   23.10
 -15  -9   2  209.38   26.00
 -15  -9   2  163.08   24.60
  13   9  -2   45.60   17.80
  13   9  -2   55.79   18.30
 -13  -9   2   54.99   16.50
 -13  -9   2   57.09   17.50
 -13  -9   2   52.59   15.50
  11   9  -2  399.06   29.10
  11   9  -2  392.66   17.70
  11   9  -2  442.36   30.50
 -11  -9   2  382.46   23.50
 -11  -9   2  384.86   25.50
 -11  -9   2  408.26   26.30
 -11  -9   2  458.35   25.40
   9   9  -2   24.80   11.10
   9   9  -2    5.80   11.30
   9   9  -2   35.70   13.00
   9   9  -2   14.20   11.80
  -9  -9   2   14.40    9.50
  -9  -9   2   27.00    9.60
  -9  -9   2   17.50    8.50
  -9  -9   2   28.90    7.90
   7   9  -2  219.58   15.30
   7   9  -2  188.78   18.20
   7   9  -2  191.08   19.40
   7   9  -2  212.68   17.00
  -7  -9   2  210.68   15.30
  -7  -9   2  206.48   16.20
  -7  -9   2  216.18   14.70
   5   9  -2  187.18   16.30
   5   9  -2  161.68   15.40
   5   9  -2  196.58   17.20
  -5  -9   2  165.88   13.60
  -5  -9   2  170.78   12.00
  -5  -9   2  188.48   14.10
  -5  -9   2  170.68   15.40
   3   9  -2  130.49    8.60
   3   9  -2  115.69   12.80
   3   9  -2  134.49   12.70
   3   9  -2  130.79   10.00
   3   9  -2  131.89   13.10
   3   9  -2  141.09   11.90
  -3  -9   2  138.59   12.20
  -3  -9   2  108.79   10.20
  -3  -9   2  116.39    8.10
  -3  -9   2  116.39   13.00
  -3  -9   2  122.99   11.90
   1   9  -2   -4.40    3.90
   1   9  -2   -9.10    5.60
   1   9  -2   17.60    5.00
   1   9  -2    2.90    7.80
   1   9  -2   -1.30    4.80
   1   9  -2    1.60    5.40
  -1  -9   2   -5.70    5.00
  -1  -9   2    5.30    6.00
  -1  -9   2    3.80    2.70
  -1  -9   2    6.00    5.10
  -1   9  -2  198.48   16.70
  -1   9  -2  195.28   16.10
  -1   9  -2  232.48   12.30
  -1   9  -2  190.28   10.60
  -1   9  -2  181.98   13.90
  -1   9  -2  222.18   11.10
   1  -9   2  195.98   13.30
   1  -9   2  208.38   14.20
   1  -9   2  204.78   11.10
   1  -9   2  203.98   14.10
  -3   9  -2  116.19   13.50
  -3   9  -2  112.39   12.20
  -3   9  -2  127.79    9.60
  -3   9  -2  107.89   15.20
  -3   9  -2  140.99   10.30
   3  -9   2  115.69   11.00
   3  -9   2  111.99   11.60
   3  -9   2   92.39   10.20
   3  -9   2  115.39    7.20
  -5   9  -2   17.30    7.30
  -5   9  -2   13.90   14.90
  -5   9  -2   20.70   10.30
   5  -9   2    9.10    7.60
   5  -9   2   19.10    6.70
   5  -9   2   25.30    8.10
  -7   9  -2   45.40   13.90
  -7   9  -2   11.20   18.30
   7  -9   2   26.70    9.80
   7  -9   2   28.50    7.80
   7  -9   2   31.70    9.60
  -9   9  -2  172.08   29.60
  -9   9  -2  186.88   23.10
   9  -9   2  183.48   17.30
   9  -9   2  193.48   16.70
   9  -9   2  136.79   16.60
 -11   9  -2   22.00   27.40
 -11   9  -2  -17.20   36.80
  11  -9   2   14.70   14.70
  11  -9   2    2.80   15.60
 -13   9  -2  269.67   35.10
 -13   9  -2  200.48   41.50
  13  -9   2  256.37   26.40
  13  -9   2  229.28   26.40
  18   8  -2   32.20   31.00
  18   8  -2  -15.50   28.10
 -18  -8   2  -18.10   34.30
 -18  -8   2   28.50   26.00
  16   8  -2   35.30   21.80
  16   8  -2   64.79   23.90
 -16  -8   2   32.50   25.80
 -16  -8   2   56.69   23.00
 -16  -8   2    2.60   18.00
  14   8  -2   42.30   18.30
  14   8  -2   41.40   17.80
 -14  -8   2   42.90   17.20
  12   8  -2   42.90    6.10
  12   8  -2   41.70   15.50
  12   8  -2   20.80   14.30
 -12  -8   2   41.00   12.40
 -12  -8   2   32.70   12.20
 -12  -8   2   58.79   13.90
  10   8  -2   21.30   11.90
  10   8  -2   11.70   10.90
  10   8  -2   -0.50   10.00
  10   8  -2    8.30    5.00
 -10  -8   2   11.70    8.90
 -10  -8   2    6.80    8.00
 -10  -8   2    0.60    8.20
 -10  -8   2   17.00    9.50
   8   8  -2   83.89   11.90
   8   8  -2  103.09   13.00
   8   8  -2   68.19   12.40
   8   8  -2   75.79   12.70
  -8  -8   2   95.59    9.10
  -8  -8   2   77.19   10.20
  -8  -8   2   62.59    9.00
  -8  -8   2   67.99    9.90
   6   8  -2  232.08   17.10
   6   8  -2  232.58   18.90
  -6  -8   2  228.88    9.60
  -6  -8   2  241.68   14.30
  -6  -8   2  214.28   14.50
  -6  -8   2  265.07   16.20
  -6  -8   2  219.98   15.40
   4   8  -2   17.00    2.70
   4   8  -2   17.00    8.40
   4   8  -2   16.70    7.10
   4   8  -2   10.20    8.50
   4   8  -2   22.40    4.80
  -4  -8   2   17.40    3.80
  -4  -8   2   13.80    6.00
  -4  -8   2   19.80    4.90
  -4  -8   2   26.50    7.20
  -4  -8   2   25.40    7.70
   2   8  -2   19.20    5.70
   2   8  -2   16.50    3.90
   2   8  -2   24.40    7.50
   2   8  -2   15.60    5.90
   2   8  -2   26.50    5.70
   2   8  -2   14.90    7.90
   2   8  -2   15.30    5.60
   2   8  -2   25.50    5.70
   2   8  -2   18.70    5.70
   2   8  -2   17.60    7.10
  -2  -8   2   17.60    3.10
  -2  -8   2   17.40    5.40
  -2  -8   2   23.70    5.90
  -2  -8   2   22.30    6.30
  -2  -8   2   37.40    7.80
  -2  -8   2   33.90    6.90
   0   8  -2    0.60    4.60
   0   8  -2   -2.60    5.30
   0   8  -2    7.70    4.70
   0   8  -2  -12.40    6.50
   0   8  -2   -2.90    4.90
   0   8  -2    0.40    2.60
   0   8  -2   -0.20    2.60
   0   8  -2   -9.10    6.50
   0   8  -2   -3.90    2.90
   0  -8   2   12.70    7.60
   0  -8   2    0.30    3.20
   0  -8   2   -9.40    4.70
   0  -8   2   -4.20    5.20
  -2   8  -2   56.89    7.90
  -2   8  -2   52.39    5.50
  -2   8  -2   32.30   10.40
  -2   8  -2   51.79    8.00
  -2   8  -2   51.89    5.90
  -2   8  -2   39.40    6.30
  -2   8  -2   41.10    9.20
   2  -8   2   44.00    4.50
   2  -8   2   32.80    6.60
   2  -8   2   50.19    7.80
   2  -8   2   56.09    7.50
   2  -8   2   53.19    7.60
  -4   8  -2  302.17   14.70
  -4   8  -2  291.27   19.00
  -4   8  -2  266.37   21.90
  -4   8  -2  273.87   19.10
   4  -8   2  296.57   17.20
   4  -8   2  300.17   16.60
   4  -8   2  285.17   19.60
   4  -8   2  285.27   15.80
  -6   8  -2   51.69   12.20
  -6   8  -2   72.09   18.80
   6  -8   2   83.79    9.10
   6  -8   2   85.99   10.90
   6  -8   2  102.49   11.60
  -8   8  -2   14.70   19.60
  -8   8  -2   17.70   14.20
   8  -8   2   18.00    7.30
   8  -8   2   18.90    9.80
   8  -8   2   24.80   10.50
 -10   8  -2   19.60   17.80
 -10   8  -2   34.60   24.80
  10  -8   2   12.30   12.20
  10  -8   2   13.60   12.30
  10  -8   2   29.20   11.20
 -12   8  -2   40.70   30.70
 -12   8  -2   47.80   23.00
  12  -8   2   -6.10   15.70
  12  -8   2    7.80   16.10
 -14   8  -2  -20.10   34.50
 -14   8  -2   47.80   28.70
  14  -8   2   35.50   22.60
  14  -8   2   28.40   20.50
  17   7  -2  374.76   35.50
  17   7  -2  363.96   33.40
 -17  -7   2  321.77   29.10
 -17  -7   2  336.77   37.40
 -17  -7   2  301.67   32.10
  15   7  -2   94.99   21.30
 -15  -7   2  121.99   17.80
 -15  -7   2  106.39   20.70
 -15  -7   2  124.09   21.70
  13   7  -2  855.71   43.50
  13   7  -2  850.11   42.80
  13   7  -2  849.32   32.60
 -13  -7   2  871.21   35.10
 -13  -7   2  858.81   40.90
 -13  -7   2  839.22   40.30
  11   7  -2  112.69   10.10
  11   7  -2  116.59   16.00
  11   7  -2  113.99   14.70
 -11  -7   2  104.69   12.80
 -11  -7   2  118.19   11.20
 -11  -7   2  114.99   12.30
 -11  -7   2  109.09   13.60
 -11  -7   2  125.09   10.30
   9   7  -2  957.80   36.90
   9   7  -2  910.51   41.60
   9   7  -2  981.70   40.70
   9   7  -2  966.60   42.30
   9   7  -2  982.20   42.70
  -9  -7   2  960.60   39.40
  -9  -7   2  945.71   38.20
  -9  -7   2  949.80   39.60
  -9  -7   2  990.80   35.90
  -9  -7   2  975.80   40.00
   7   7  -2 1230.08   51.59
   7   7  -2 1287.87   51.59
   7   7  -2 1305.87   49.60
   7   7  -2 1282.97   50.59
  -7  -7   2 1338.47   49.00
  -7  -7   2 1310.07   49.80
  -7  -7   2 1289.17   46.90
  -7  -7   2 1258.77   49.50
  -7  -7   2 1304.07   45.70
  -7  -7   2 1322.67   50.49
   5   7  -2 1043.40   41.20
   5   7  -2 1095.89   38.70
   5   7  -2  984.00   40.40
   5   7  -2 1110.79   42.50
   5   7  -2 1043.10   42.50
  -5  -7   2 1045.90   41.50
  -5  -7   2 1107.29   42.00
  -5  -7   2 1113.69   38.60
  -5  -7   2 1049.00   40.90
  -5  -7   2 1086.89   39.60
   3   7  -2 4757.92  166.98
   3   7  -2 5022.10  167.88
   3   7  -2 4846.22  168.48
   3   7  -2 4895.31  168.08
   3   7  -2 4602.44  167.78
   3   7  -2 4790.82  169.18
   3   7  -2 4914.11  167.78
   3   7  -2 4798.62  165.68
   3   7  -2 4817.92  169.58
  -3  -7   2 4797.32  167.88
  -3  -7   2 5027.80  167.48
  -3  -7   2 4545.55  168.18
  -3  -7   2 4863.41  165.98
  -3  -7   2 4793.92  167.78
  -3  -7   2 5127.09  169.38
   1   7  -2  404.36   16.90
   1   7  -2  402.56   15.60
   1   7  -2  397.56   16.40
   1   7  -2  346.07   18.60
   1   7  -2  370.36   17.00
   1   7  -2  359.66   15.00
   1   7  -2  395.66   17.40
   1   7  -2  354.16   17.70
  -1  -7   2  377.26   17.70
  -1  -7   2  377.46   17.60
  -1  -7   2  406.36   18.90
  -1  -7   2  389.86   16.30
  -1  -7   2  384.66   14.60
  -1   7  -2 4838.32  163.08
  -1   7  -2 4548.54  163.98
  -1   7  -2 4484.75  164.98
  -1   7  -2 4895.31  164.38
  -1   7  -2 4660.03  166.48
  -1   7  -2 4651.63  162.78
  -1   7  -2 4501.95  166.28
  -1   7  -2 4855.31  162.08
   1  -7   2 4560.24  164.38
   1  -7   2 5011.60  163.78
   1  -7   2 4636.44  164.28
   1  -7   2 4750.22  164.48
   1  -7   2 5165.48  168.18
   1  -7   2 4705.63  162.58
  -3   7  -2  702.83   33.80
  -3   7  -2  789.02   32.00
  -3   7  -2  766.82   35.90
  -3   7  -2  792.22   29.70
  -3   7  -2  779.02   31.90
  -3   7  -2  830.02   29.40
   3  -7   2  825.82   33.20
   3  -7   2  791.22   32.00
   3  -7   2  806.22   28.30
   3  -7   2  810.12   31.30
   3  -7   2  786.72   31.80
  -5   7  -2 2640.94   98.59
  -5   7  -2 2842.52   92.79
  -5   7  -2 2513.55  102.69
   5  -7   2 2751.52   97.39
   5  -7   2 2765.32   95.79
   5  -7   2 2638.74   99.79
   5  -7   2 2764.32   97.59
  -7   7  -2  796.12   36.80
  -7   7  -2  673.83   41.30
   7  -7   2  764.22   30.50
   7  -7   2  769.82   33.50
   7  -7   2  769.42   33.50
  -9   7  -2  328.67   27.60
  -9   7  -2  327.57   35.00
   9  -7   2  361.96   23.20
   9  -7   2  339.47   23.10
   9  -7   2  380.06   18.70
 -11   7  -2  531.75   55.49
 -11   7  -2  677.93   41.80
  11  -7   2  593.74   33.50
  11  -7   2  620.94   34.40
 -13   7  -2   55.49   32.50
 -13   7  -2   66.89   26.20
  13  -7   2   99.99   20.00
  13  -7   2   75.59   19.70
 -15   7  -2  361.16   43.50
 -15   7  -2  384.56   52.99
  15  -7   2  406.96   35.90
  15  -7   2  434.06   42.40
  18   6  -2   -7.60   27.20
  18   6  -2   28.60   23.70
  18   6  -2   34.30   26.10
 -18  -6   2    8.30   26.80
 -18  -6   2  -12.70   22.40
 -18  -6   2   47.70   32.70
  16   6  -2  189.78   25.10
  16   6  -2  182.88   25.80
 -16  -6   2  129.29   19.80
 -16  -6   2  191.78   26.60
  14   6  -2   11.80   14.30
  14   6  -2   10.60   16.20
 -14  -6   2   19.50   15.20
 -14  -6   2   25.30   12.70
 -14  -6   2   35.20   15.20
  12   6  -2  114.49   10.80
  12   6  -2   79.49   14.10
  12   6  -2  106.79   15.20
 -12  -6   2   73.19    7.50
 -12  -6   2   94.09   14.00
 -12  -6   2  107.99   13.60
 -12  -6   2   96.69    7.30
  10   6  -2  491.45   26.20
  10   6  -2  492.55   27.30
  10   6  -2  470.95   26.90
  10   6  -2  485.65   21.10
 -10  -6   2  536.15   22.30
 -10  -6   2  492.45   24.70
 -10  -6   2  484.75   23.30
 -10  -6   2  504.45   24.70
 -10  -6   2  496.15   22.60
   8   6  -2    7.10    9.00
   8   6  -2   11.40    8.10
   8   6  -2    7.50    8.30
   8   6  -2    6.20    6.60
   8   6  -2    7.80    9.40
  -8  -6   2   -7.40    5.70
  -8  -6   2    7.40    4.60
  -8  -6   2    0.60    5.70
  -8  -6   2    6.50    5.40
  -8  -6   2    8.00    9.90
   6   6  -2 1685.23   59.29
   6   6  -2 1559.14   60.59
   6   6  -2 1682.23   59.69
   6   6  -2 1613.84   61.39
   6   6  -2 1597.64   59.09
   6   6  -2 1671.03   61.39
  -6  -6   2 1630.24   59.69
  -6  -6   2 1610.84   59.69
  -6  -6   2 1634.84   60.39
  -6  -6   2 1557.74   58.69
  -6  -6   2 1622.14   57.39
  -6  -6   2 1613.94   57.29
  -6  -6   2 1642.24   60.29
  -6  -6   2 1594.64   61.29
   4   6  -2   54.89    6.00
   4   6  -2   55.99    6.50
   4   6  -2   51.39    5.50
   4   6  -2   51.59   10.20
   4   6  -2   49.90    5.90
   4   6  -2   32.60    7.50
   4   6  -2   56.59    7.30
  -4  -6   2   52.69    4.80
  -4  -6   2   49.20    6.60
  -4  -6   2   49.80    6.20
  -4  -6   2   50.39    5.60
  -4  -6   2   53.99    7.10
   2   6  -2 1210.48   43.00
   2   6  -2 1191.98   44.30
   2   6  -2 1306.97   44.50
   2   6  -2 1208.48   46.10
   2   6  -2 1175.88   44.50
   2   6  -2 1239.38   44.40
   2   6  -2 1252.47   43.90
   2   6  -2 1256.67   44.80
  -2  -6   2 1134.99   44.60
  -2  -6   2 1077.59   45.50
  -2  -6   2 1148.79   43.90
  -2  -6   2 1281.67   46.10
  -2  -6   2 1211.58   42.40
  -2  -6   2 1235.88   44.70
   0   6  -2  334.47   13.00
   0   6  -2  324.37   17.30
   0   6  -2  302.87   16.30
   0   6  -2  349.07   12.80
   0   6  -2  337.97   14.80
   0   6  -2  341.77   14.50
   0   6  -2  336.77   12.30
   0   6  -2  353.86   15.10
   0  -6   2  327.67   15.30
   0  -6   2  347.07   13.90
   0  -6   2  355.06   17.10
   0  -6   2  311.87   15.40
   0  -6   2  342.27   13.60
   0  -6   2  308.17   15.20
  -2   6  -2  233.28   11.80
  -2   6  -2  224.68    9.90
  -2   6  -2  213.98   12.00
  -2   6  -2  210.38   12.70
  -2   6  -2  194.08   14.50
  -2   6  -2  203.08   11.50
  -2   6  -2  223.78   11.90
  -2   6  -2  240.48   10.70
  -2   6  -2  201.98   15.90
   2  -6   2  241.78   12.60
   2  -6   2  209.48   12.50
   2  -6   2  219.58   12.00
   2  -6   2  263.47   16.70
   2  -6   2  220.98    9.10
   2  -6   2  217.28   12.40
  -4   6  -2  705.93   30.60
  -4   6  -2  704.53   26.40
  -4   6  -2  672.23   33.80
  -4   6  -2  721.73   29.50
   4  -6   2  694.33   29.20
   4  -6   2  726.83   28.20
   4  -6   2  753.42   31.30
   4  -6   2  728.83   29.50
  -6   6  -2   50.89   14.90
  -6   6  -2   65.89   11.60
   6  -6   2   47.80    8.30
   6  -6   2   42.30    8.10
   6  -6   2   47.10    6.60
  -8   6  -2  566.04   31.30
  -8   6  -2  447.26   35.60
   8  -6   2  575.34   27.50
   8  -6   2  566.24   23.50
   8  -6   2  528.75   26.50
   8  -6   2  602.54   25.70
 -10   6  -2   -6.90   14.50
 -10   6  -2   25.10   22.80
  10  -6   2   -5.40    9.90
  10  -6   2   -0.10    5.60
  10  -6   2   -1.00   10.60
 -12   6  -2  127.99   30.00
 -12   6  -2  119.09   24.30
  12  -6   2   92.79   17.00
  12  -6   2   93.09   18.00
 -14   6  -2   65.79   26.20
 -14   6  -2  100.39   36.40
  14  -6   2   59.69   20.90
  14  -6   2   52.89   20.90
 -19  -5   2   50.59   36.60
  17   5  -2   15.50   20.70
  17   5  -2    1.10   23.10
  17   5  -2   44.00   23.80
 -17  -5   2    7.50   18.10
 -17  -5   2   32.10   26.00
  15   5  -2   -4.50   15.40
  15   5  -2    8.10   15.20
 -15  -5   2    7.20   13.90
 -15  -5   2   -6.30   17.60
 -15  -5   2   -5.80   18.30
  13   5  -2   98.59   15.80
  13   5  -2   94.79   10.30
  13   5  -2  107.99   15.30
 -13  -5   2  122.39   16.30
 -13  -5   2  123.59   16.20
 -13  -5   2   86.69   12.60
  11   5  -2   16.20   11.00
  11   5  -2    1.00    7.00
  11   5  -2   11.40   10.00
 -11  -5   2   19.20    7.10
 -11  -5   2   13.00   10.70
 -11  -5   2   12.90    9.70
 -11  -5   2   12.50    4.80
 -11  -5   2    4.70    8.00
   9   5  -2 1033.50   43.10
   9   5  -2 1047.00   45.20
   9   5  -2 1026.20   43.60
   9   5  -2 1053.49   39.90
   9   5  -2 1053.59   44.10
   9   5  -2 1116.29   40.80
  -9  -5   2 1074.99   37.00
  -9  -5   2 1036.30   41.90
  -9  -5   2 1032.10   43.80
  -9  -5   2 1042.70   42.20
  -9  -5   2 1090.09   41.10
  -9  -5   2 1108.69   40.70
   7   5  -2   -1.60    4.50
   7   5  -2   15.70    5.20
   7   5  -2   -7.50    7.20
   7   5  -2   16.10    7.90
   7   5  -2    1.40    6.70
   7   5  -2   13.50    7.20
   7   5  -2    9.90    7.10
  -7  -5   2    0.60    6.50
  -7  -5   2    2.00    4.90
  -7  -5   2    2.70    6.40
  -7  -5   2    6.10    5.70
  -7  -5   2    1.70    4.20
  -7  -5   2    3.40    4.30
   5   5  -2  772.12   28.50
   5   5  -2  746.93   30.30
   5   5  -2  753.02   28.60
   5   5  -2  727.03   29.20
   5   5  -2  754.52   29.10
  -5  -5   2  698.03   28.30
  -5  -5   2  745.53   29.40
  -5  -5   2  754.52   30.50
  -5  -5   2  703.73   29.40
  -5  -5   2  775.92   30.20
  -5  -5   2  727.03   27.10
   3   5  -2   96.19    7.50
   3   5  -2  115.89    7.10
   3   5  -2   90.29    8.10
   3   5  -2   87.79    8.20
   3   5  -2   92.59    7.20
   3   5  -2   95.29    7.60
   3   5  -2   96.29    7.10
   3   5  -2   91.99    4.60
  -3  -5   2   98.99    6.60
  -3  -5   2   89.09    6.50
  -3  -5   2   86.29    6.80
  -3  -5   2   87.99    6.60
  -3  -5   2   97.59    5.30
  -3  -5   2   93.69    6.90
  -3  -5   2   98.19    7.80
   1   5  -2 1377.76   51.89
   1   5  -2 1430.16   50.39
   1   5  -2 1453.75   50.49
   1   5  -2 1374.16   51.19
   1   5  -2 1412.96   50.59
   1   5  -2 1418.16   49.20
   1   5  -2 1416.26   50.09
  -1  -5   2 1328.07   50.49
  -1  -5   2 1456.45   52.09
  -1  -5   2 1376.36   49.70
  -1  -5   2 1357.06   50.19
  -1  -5   2 1414.56   48.40
  -1  -5   2 1401.56   51.39
  -1   5  -2   70.09    6.50
  -1   5  -2   64.49    6.50
  -1   5  -2   69.89    6.00
  -1   5  -2   63.39    5.50
  -1   5  -2   58.19    5.50
  -1   5  -2   60.89    4.00
  -1   5  -2   71.79    8.50
  -1   5  -2   52.39    7.70
  -1   5  -2   55.19    5.90
   1  -5   2   58.79    5.60
   1  -5   2   54.49    5.80
   1  -5   2   61.29    5.80
   1  -5   2   71.59    8.60
   1  -5   2   64.39    4.10
   1  -5   2   53.99    6.80
  -3   5  -2  382.46   21.80
  -3   5  -2  382.46   17.90
  -3   5  -2  409.16   17.30
  -3   5  -2  392.86   17.70
  -3   5  -2  395.76   15.60
  -3   5  -2  384.36   18.10
   3  -5   2  384.76   16.60
   3  -5   2  402.96   19.10
   3  -5   2  388.86   15.00
   3  -5   2  378.26   21.60
   3  -5   2  372.86   17.50
  -5   5  -2   36.70   12.60
  -5   5  -2   34.70    9.00
  -5   5  -2   49.50    7.40
   5  -5   2   28.60    4.30
   5  -5   2   35.50    3.60
   5  -5   2   29.20    9.60
   5  -5   2   30.80    6.50
   5  -5   2   36.20    5.00
   5  -5   2   34.30    6.80
  -7   5  -2  598.64   29.80
  -7   5  -2  565.74   34.20
   7  -5   2  577.14   26.20
   7  -5   2  587.34   26.50
   7  -5   2  535.75   26.00
   7  -5   2  597.24   25.20
  -9   5  -2   46.90   15.10
  -9   5  -2   43.70   19.40
   9  -5   2   36.90   11.20
   9  -5   2   27.50    9.20
   9  -5   2   36.20    9.90
   9  -5   2   43.60   10.60
 -11   5  -2  192.28   30.30
 -11   5  -2  227.48   25.20
  11  -5   2  175.38   17.80
  11  -5   2  188.58   13.30
  11  -5   2  200.48   20.90
  11  -5   2  154.38   17.20
 -13   5  -2   59.69   30.60
 -13   5  -2    6.70   21.10
  13  -5   2   56.39   16.90
  13  -5   2   84.09   18.40
 -15   5  -2   91.09   30.90
 -15   5  -2  144.69   40.70
  15  -5   2  102.29   23.70
  15  -5   2   64.19   23.00
  18   4  -2  -47.80   24.30
  18   4  -2   30.30   23.10
  18   4  -2  -20.00   23.60
 -18  -4   2  -11.10   20.60
 -18  -4   2    7.70   28.30
  16   4  -2   -5.60   18.40
  16   4  -2    1.00   16.80
  16   4  -2   34.60   17.70
 -16  -4   2   42.90   21.00
 -16  -4   2   25.50   23.70
 -16  -4   2    8.90   15.50
  14   4  -2  371.56   26.80
  14   4  -2  416.06   27.80
  14   4  -2  382.76   22.20
 -14  -4   2  382.96   29.50
 -14  -4   2  346.67   29.60
 -14  -4   2  399.16   25.50
  12   4  -2   15.10    6.60
  12   4  -2   10.10    6.90
  12   4  -2   32.00   11.60
  12   4  -2   10.10    9.80
 -12  -4   2    1.60   12.20
 -12  -4   2    3.50   10.50
 -12  -4   2    2.70   10.60
 -12  -4   2   -1.10    8.70
 -12  -4   2    5.00    7.80
  10   4  -2  722.13   33.20
  10   4  -2  683.73   31.80
  10   4  -2  713.73   28.50
 -10  -4   2  752.52   27.60
 -10  -4   2  694.43   32.70
 -10  -4   2  692.03   28.70
 -10  -4   2  702.03   30.70
 -10  -4   2  751.82   32.60
   8   4  -2  280.17   16.80
   8   4  -2  318.77   19.60
   8   4  -2  316.87   14.40
   8   4  -2  290.37   14.70
   8   4  -2  255.87   16.30
   8   4  -2  285.77   17.50
   8   4  -2  286.87   15.90
  -8  -4   2  276.97   16.10
  -8  -4   2  288.67   18.20
  -8  -4   2  278.27   14.20
  -8  -4   2  279.87   16.90
  -8  -4   2  293.07   16.20
  -8  -4   2  296.67   11.50
   6   4  -2 1571.84   59.49
   6   4  -2 1669.03   58.49
   6   4  -2 1692.93   59.19
   6   4  -2 1622.04   57.69
   6   4  -2 1681.43   60.09
   6   4  -2 1540.85   59.49
   6   4  -2 1651.53   57.69
  -6  -4   2 1656.73   59.69
  -6  -4   2 1591.24   59.59
  -6  -4   2 1508.85   57.49
  -6  -4   2 1541.25   59.09
  -6  -4   2 1578.34   57.59
  -6  -4   2 1562.04   58.49
  -6  -4   2 1635.44   57.59
   4   4  -2   52.69    6.80
   4   4  -2   60.89    5.70
   4   4  -2   65.09    6.00
   4   4  -2   62.89    6.70
   4   4  -2   63.69    6.10
   4   4  -2   45.30    6.50
  -4  -4   2   63.19    4.50
  -4  -4   2   52.69    5.60
  -4  -4   2   63.39    6.90
  -4  -4   2   60.69    5.30
  -4  -4   2   66.19    5.60
  -4  -4   2   63.19    5.70
  -4  -4   2   71.29    7.50
   2   4  -2    3.00    3.60
   2   4  -2    5.10    3.00
   2   4  -2    1.90    3.20
   2   4  -2    2.60    2.70
   2   4  -2   -0.10    3.40
   2   4  -2    3.90    2.70
   2   4  -2    0.00    2.10
  -2  -4   2   -0.90    2.70
  -2  -4   2    3.10    0.90
  -2  -4   2    5.40    2.50
  -2  -4   2    2.50    3.50
  -2  -4   2    1.90    1.20
  -2  -4   2    2.50    2.10
  -2  -4   2    4.70    2.20
  -2  -4   2    6.20    2.40
   0   4  -2   88.19    6.00
   0   4  -2   73.49    6.90
   0   4  -2   73.49    7.10
   0   4  -2   77.79    4.80
   0   4  -2   76.69    3.40
   0   4  -2   84.29    5.80
   0   4  -2   78.09    5.50
   0  -4   2   75.89    4.60
   0  -4   2   72.29    5.50
   0  -4   2   75.59    7.40
   0  -4   2   76.69    3.50
   0  -4   2   76.79    5.60
   0  -4   2   75.09    5.00
   0  -4   2   78.19    5.60
   0  -4   2   68.89    4.90
  -2   4  -2   67.79    7.10
  -2   4  -2   65.79    6.00
  -2   4  -2   61.29    6.30
  -2   4  -2   71.69    6.50
  -2   4  -2   67.49    5.60
   2  -4   2   65.89    7.10
   2  -4   2   59.69    5.70
   2  -4   2   63.09    3.10
   2  -4   2   66.79    5.70
   2  -4   2   69.69    4.70
   2  -4   2   81.99    9.60
  -4   4  -2  412.76   17.20
  -4   4  -2  387.96   17.40
  -4   4  -2  393.56   18.20
  -4   4  -2  364.96   21.40
  -4   4  -2  385.16   19.10
  -4   4  -2  344.07   15.70
   4  -4   2  387.36   17.70
   4  -4   2  381.96   15.10
   4  -4   2  369.26   16.90
   4  -4   2  377.16   19.30
   4  -4   2  377.16   14.70
   4  -4   2  382.96   22.40
   4  -4   2  375.96   16.20
   4  -4   2  366.76   17.70
  -6   4  -2  112.89   16.00
  -6   4  -2   65.99   10.10
  -6   4  -2   81.79   11.50
   6  -4   2   87.89    7.50
   6  -4   2   76.59    8.40
   6  -4   2   78.19    5.40
   6  -4   2   98.69    9.20
   6  -4   2   75.19    8.60
   6  -4   2   79.69    8.60
  -8   4  -2  580.14   35.20
  -8   4  -2  547.35   30.30
   8  -4   2  571.84   21.00
   8  -4   2  572.24   27.20
   8  -4   2  582.34   26.70
   8  -4   2  603.14   26.90
   8  -4   2  611.64   27.00
   8  -4   2  504.75   25.00
 -10   4  -2  105.09   17.20
 -10   4  -2  110.89   23.20
  10  -4   2   96.49   13.20
  10  -4   2   87.89   12.10
  10  -4   2  106.59    9.20
  10  -4   2   89.79   13.20
 -12   4  -2  531.15   40.10
  12  -4   2  390.86   29.00
  12  -4   2  438.46   29.40
 -14   4  -2    1.20   31.40
 -14   4  -2    3.80   24.40
  14  -4   2  -20.40   17.40
  14  -4   2  -15.90   17.20
 -16   4  -2  121.59   47.70
  16  -4   2   72.19   28.00
  16  -4   2   71.19   26.00
  19   3  -2  218.28   40.70
  19   3  -2  216.18   31.40
 -19  -3   2  152.28   38.10
  17   3  -2    9.40   19.50
  17   3  -2   39.00   20.50
  17   3  -2   -7.10   18.90
 -17  -3   2   77.59   29.20
 -17  -3   2   43.60   24.80
 -17  -3   2   26.90   17.60
  15   3  -2  517.85   38.90
  15   3  -2  568.34   33.00
  15   3  -2  517.45   28.30
 -15  -3   2  518.55   37.70
 -15  -3   2  565.94   36.50
 -15  -3   2  535.45   30.90
  13   3  -2    7.50   11.30
  13   3  -2   12.90    7.90
  13   3  -2   14.70   10.70
 -13  -3   2   16.30   15.20
 -13  -3   2   -4.90   12.30
 -13  -3   2  -12.00    8.60
 -13  -3   2   21.60   13.20
  11   3  -2 1249.57   51.39
  11   3  -2 1291.57   48.40
  11   3  -2 1328.17   46.50
  11   3  -2 1256.67   50.29
 -11  -3   2 1263.17   49.70
 -11  -3   2 1292.47   48.00
 -11  -3   2 1256.07   51.99
 -11  -3   2 1195.78   51.49
   9   3  -2  959.20   39.40
   9   3  -2  985.80   35.90
   9   3  -2  974.10   37.80
   9   3  -2  979.90   39.10
   9   3  -2  937.81   42.20
   9   3  -2  954.40   36.80
  -9  -3   2  966.60   39.60
  -9  -3   2  927.81   40.00
  -9  -3   2  966.10   36.10
  -9  -3   2  951.10   38.30
  -9  -3   2  984.00   35.80
   7   3  -2  546.65   20.50
   7   3  -2  546.25   21.70
   7   3  -2  552.24   24.40
   7   3  -2  484.85   23.20
   7   3  -2  514.45   21.40
   7   3  -2  533.35   24.20
   7   3  -2  497.55   23.20
  -7  -3   2  492.45   20.50
  -7  -3   2  518.45   22.30
  -7  -3   2  532.45   23.80
  -7  -3   2  500.85   23.40
  -7  -3   2  476.05   23.10
  -7  -3   2  505.85   19.10
   5   3  -2 3305.77  114.79
   5   3  -2 3381.56  115.29
   5   3  -2 3306.47  114.39
   5   3  -2 3293.57  113.29
   5   3  -2 3309.77  113.19
   5   3  -2 3237.48  113.79
   5   3  -2 3067.19  114.79
  -5  -3   2 3229.08  114.59
  -5  -3   2 3121.79  113.19
  -5  -3   2 3113.59  113.49
  -5  -3   2 3342.57  113.79
  -5  -3   2 3454.95  115.29
  -5  -3   2 3338.87  114.89
   3   3  -2  818.92   29.70
   3   3  -2  771.22   31.00
   3   3  -2  840.62   30.90
   3   3  -2  844.02   30.40
   3   3  -2  785.42   30.50
   3   3  -2  808.72   31.50
  -3  -3   2  846.62   31.50
  -3  -3   2  849.72   30.60
  -3  -3   2  837.02   29.70
  -3  -3   2  805.42   30.40
  -3  -3   2  810.42   29.40
  -3  -3   2  807.42   30.20
   1   3  -2 5978.00  204.58
   1   3  -2 6095.49  203.48
   1   3  -2 6005.60  203.18
   1   3  -2 5976.10  203.28
   1   3  -2 5629.14  204.58
   1   3  -2 5942.41  202.88
  -1  -3   2 5745.23  203.58
  -1  -3   2 5807.42  203.18
  -1  -3   2 6172.28  204.78
  -1  -3   2 5718.83  203.28
  -1  -3   2 5903.11  202.38
  -1  -3   2 6297.17  204.68
  -1  -3   2 5955.90  202.78
  -1   3  -2 1649.04   63.69
  -1   3  -2 1813.32   61.89
  -1   3  -2 1875.11   62.99
  -1   3  -2 1722.83   64.19
  -1   3  -2 1761.02   62.09
  -1   3  -2 1760.82   61.99
  -1   3  -2 1832.42   62.39
   1  -3   2 1823.32   62.39
   1  -3   2 1730.53   61.69
   1  -3   2 1730.13   62.09
   1  -3   2 1693.43   62.19
   1  -3   2 1770.02   60.79
   1  -3   2 1809.02   64.39
   1  -3   2 1748.43   60.69
  -3   3  -2 4462.15  148.69
  -3   3  -2 4326.27  149.39
  -3   3  -2 4091.29  151.58
  -3   3  -2 4415.06  147.89
  -3   3  -2 4539.65  149.49
  -3   3  -2 4238.08  149.69
   3  -3   2 4180.48  147.59
   3  -3   2 4176.18  148.59
   3  -3   2 4046.50  149.39
   3  -3   2 4287.97  147.29
   3  -3   2 4380.46  152.18
   3  -3   2 4490.95  150.28
  -5   3  -2  136.89   10.20
  -5   3  -2  125.79    9.60
  -5   3  -2  135.89   15.20
  -5   3  -2  125.49   10.80
  -5   3  -2  128.39   12.30
   5  -3   2  120.19    9.50
   5  -3   2  121.39    9.80
   5  -3   2  124.69    8.70
   5  -3   2  134.89    7.20
   5  -3   2  118.69   10.60
   5  -3   2  159.68   13.80
   5  -3   2  144.59   16.80
  -7   3  -2 2289.77   86.79
  -7   3  -2 2365.76   90.19
  -7   3  -2 2352.26   86.19
   7  -3   2 2255.67   84.39
   7  -3   2 2343.27   84.59
   7  -3   2 2307.77   81.09
   7  -3   2 2274.37   83.69
   7  -3   2 2403.16   83.59
  -9   3  -2  502.65   30.20
  -9   3  -2  537.75   34.20
   9  -3   2  506.15   25.80
   9  -3   2  479.55   25.30
   9  -3   2  509.15   25.30
   9  -3   2  508.25   20.20
 -11   3  -2  244.08   28.40
 -11   3  -2  190.78   22.40
  11  -3   2  193.08   20.10
  11  -3   2  207.18   11.50
  11  -3   2  261.87   21.90
  11  -3   2  201.08   12.40
  11  -3   2  210.38   20.10
 -13   3  -2  414.66   45.20
 -13   3  -2  493.95   39.30
  13  -3   2  532.15   34.30
  13  -3   2  507.05   34.20
 -15   3  -2   42.00   34.80
 -15   3  -2    1.90   24.70
  15  -3   2  -15.40   22.30
  15  -3   2   19.60   20.90
  15  -3   2    8.20   21.30
  18   2  -2   69.79   23.20
  18   2  -2  136.19   26.90
 -18  -2   2  128.49   29.60
 -18  -2   2  144.19   41.10
 -18  -2   2   70.69   22.00
  16   2  -2   23.40   16.00
  16   2  -2   27.50   12.90
  16   2  -2   30.00   16.90
  16   2  -2   62.39   18.90
 -16  -2   2   16.10   19.70
 -16  -2   2   27.80   24.20
 -16  -2   2   49.50   15.00
  14   2  -2  185.58   19.60
  14   2  -2  188.28   19.10
  14   2  -2  202.38   20.30
  14   2  -2  175.48   18.50
 -14  -2   2  223.68   25.00
 -14  -2   2  192.18   16.90
 -14  -2   2  218.98   22.20
 -14  -2   2  171.38   21.10
  12   2  -2  412.46   21.70
  12   2  -2  410.26   24.80
  12   2  -2  440.66   23.30
 -12  -2   2  410.96   25.90
 -12  -2   2  418.56   29.90
 -12  -2   2  412.66   22.30
 -12  -2   2  398.06   25.50
 -12  -2   2  399.36   22.40
  10   2  -2  255.77   15.20
  10   2  -2  221.38   17.30
  10   2  -2  267.27   15.50
  10   2  -2  272.57   17.00
 -10  -2   2  223.28   14.60
 -10  -2   2  280.07   16.10
 -10  -2   2  263.57   11.90
 -10  -2   2  230.88   18.40
 -10  -2   2  263.07   17.80
   8   2  -2 1245.78   44.20
   8   2  -2 1252.27   47.50
   8   2  -2 1212.88   48.90
   8   2  -2 1266.97   45.80
   8   2  -2 1267.77   46.00
   8   2  -2 1170.38   47.60
   8   2  -2 1263.17   46.80
   8   2  -2 1329.97   49.99
  -8  -2   2 1157.68   47.80
  -8  -2   2 1229.58   47.60
  -8  -2   2 1249.18   48.40
  -8  -2   2 1258.07   44.90
  -8  -2   2 1192.38   48.00
  -8  -2   2 1210.08   44.50
   6   2  -2  836.92   30.90
   6   2  -2  808.22   32.10
   6   2  -2  879.51   33.50
   6   2  -2  761.62   32.10
   6   2  -2  821.52   32.90
  -6  -2   2  800.12   31.90
  -6  -2   2  809.52   30.00
  -6  -2   2  798.62   32.10
  -6  -2   2  836.52   29.50
  -6  -2   2  837.82   32.70
   4   2  -2  864.41   31.70
   4   2  -2  883.41   32.90
   4   2  -2  855.11   30.90
   4   2  -2  827.92   32.80
   4   2  -2  861.61   30.30
   4   2  -2  846.12   32.30
  -4  -2   2  904.01   32.60
  -4  -2   2  840.42   32.50
  -4  -2   2  897.91   33.10
  -4  -2   2  887.01   32.30
  -4  -2   2  834.82   31.20
  -4  -2   2  829.82   31.90
   2   2  -2 1172.68   40.70
   2   2  -2 1177.08   40.90
   2   2  -2 1086.39   41.60
   2   2  -2 1100.19   41.40
  -2  -2   2 1119.49   39.90
  -2  -2   2 1135.89   40.60
  -2  -2   2 1105.09   40.50
  -2  -2   2 1167.68   41.60
  -2  -2   2 1158.68   41.40
  -2  -2   2 1129.99   40.80
   0   2  -2 1130.19   39.20
   0   2  -2 1088.99   38.70
   0   2  -2 1066.69   40.60
   0   2  -2 1140.49   39.70
   0   2  -2 1086.59   37.70
   0   2  -2 1146.09   39.00
   0   2  -2 1039.60   40.10
   0  -2   2 1120.29   40.70
   0  -2   2 1143.69   40.40
   0  -2   2 1031.00   38.80
   0  -2   2 1057.09   39.00
   0  -2   2 1096.59   38.90
   0  -2   2 1084.79   38.70
   0  -2   2 1084.49   38.80
  -2   2  -2  322.67   13.00
  -2   2  -2  333.47   14.10
  -2   2  -2  329.47   14.10
  -2   2  -2  317.37   12.70
  -2   2  -2  288.67   15.30
   2  -2   2  319.27   11.00
   2  -2   2  281.47   13.50
   2  -2   2  295.17   13.30
   2  -2   2  296.57   12.60
   2  -2   2  316.27   15.60
   2  -2   2  308.17   14.10
   2  -2   2  307.37   12.70
  -4   2  -2  789.22   32.40
  -4   2  -2  839.22   30.40
  -4   2  -2  819.82   31.50
  -4   2  -2  807.62   30.90
  -4   2  -2  713.53   33.50
  -4   2  -2  822.72   31.40
   4  -2   2  807.82   30.30
   4  -2   2  830.42   31.70
   4  -2   2  810.42   32.50
   4  -2   2  809.82   29.90
   4  -2   2  797.62   29.70
   4  -2   2  775.82   31.10
   4  -2   2  799.82   34.10
  -6   2  -2  426.96   19.30
  -6   2  -2  412.76   24.60
  -6   2  -2  421.86   20.30
  -6   2  -2  386.16   21.70
   6  -2   2  419.26   19.40
   6  -2   2  419.16   17.40
   6  -2   2  395.16   19.70
   6  -2   2  412.16   18.90
  -8   2  -2  158.18   14.00
  -8   2  -2  152.48   18.90
  -8   2  -2  144.69   15.70
   8  -2   2  141.29   10.10
   8  -2   2  149.29   12.70
   8  -2   2  133.89   12.90
   8  -2   2  166.38   14.40
 -10   2  -2  430.56   30.10
 -10   2  -2  459.65   33.40
  10  -2   2  472.95   24.90
  10  -2   2  464.55   25.70
  10  -2   2  455.15   25.00
  10  -2   2  440.06   20.90
 -12   2  -2   53.89   21.70
 -12   2  -2   94.29   24.30
  12  -2   2   85.79   15.00
  12  -2   2   91.29   15.40
  12  -2   2   67.79   14.60
 -14   2  -2   56.39   23.20
 -14   2  -2  122.39   32.70
  14  -2   2   50.29   20.70
  14  -2   2   64.29   18.40
  14  -2   2   61.29   18.30
 -16   2  -2    8.00   31.50
 -16   2  -2  179.78   42.60
  16  -2   2  111.49   38.10
  16  -2   2  105.59   27.90
  16  -2   2   44.80   25.60
  19   1  -2   -8.70   23.20
 -19  -1   2  -64.29   31.60
  17   1  -2   83.69   20.30
  17   1  -2   76.29   20.70
  17   1  -2   46.50   17.70
 -17  -1   2   73.99   34.60
 -17  -1   2   42.60   24.20
 -17  -1   2   61.39   17.20
  15   1  -2   84.89   16.50
  15   1  -2   95.19   14.20
  15   1  -2  110.89   18.70
  15   1  -2   68.09   13.80
 -15  -1   2  107.09   24.20
 -15  -1   2  128.39   21.00
 -15  -1   2   93.69   14.00
 -15  -1   2   98.49   20.70
  13   1  -2  409.76   26.10
  13   1  -2  385.96   24.70
  13   1  -2  460.05   24.00
  13   1  -2  430.56   23.40
 -13  -1   2  396.56   29.20
 -13  -1   2  461.55   33.50
 -13  -1   2  416.46   27.60
 -13  -1   2  424.56   23.60
  11   1  -2  142.29   13.30
  11   1  -2  131.29   12.40
  11   1  -2  125.19   13.20
  11   1  -2  127.99   12.90
 -11  -1   2  116.19   11.10
 -11  -1   2  112.79   14.30
 -11  -1   2  144.49   15.00
   9   1  -2  430.36   19.80
   9   1  -2  432.96   19.30
   9   1  -2  433.46   18.50
   9   1  -2  407.46   25.70
   9   1  -2  393.96   20.30
  -9  -1   2  407.16   21.60
  -9  -1   2  421.76   16.30
  -9  -1   2  430.16   19.20
  -9  -1   2  381.76   22.40
   7   1  -2 1288.97   46.40
   7   1  -2 1306.77   45.70
   7   1  -2 1242.78   49.00
   7   1  -2 1195.18   47.10
   7   1  -2 1213.98   47.60
   7   1  -2 1296.37   48.70
   7   1  -2 1243.88   45.80
  -7  -1   2 1242.48   44.40
  -7  -1   2 1249.07   48.00
  -7  -1   2 1287.37   47.30
  -7  -1   2 1139.69   47.80
  -7  -1   2 1313.87   48.10
  -7  -1   2 1284.67   45.40
   5   1  -2  870.01   34.80
   5   1  -2  951.40   35.50
   5   1  -2  911.91   33.40
   5   1  -2  920.41   34.20
   5   1  -2  898.61   32.50
  -5  -1   2  908.41   34.80
  -5  -1   2  915.11   32.70
  -5  -1   2  899.91   32.60
  -5  -1   2  905.61   35.00
  -5  -1   2  895.61   34.80
  -5  -1   2  951.90   34.40
   3   1  -2 4169.98  147.29
   3   1  -2 4199.18  149.39
   3   1  -2 4403.06  149.49
   3   1  -2 4307.77  147.99
   3   1  -2 4497.95  148.59
   3   1  -2 4326.07  148.69
  -3  -1   2 4381.06  148.69
  -3  -1   2 4476.35  149.39
  -3  -1   2 4524.55  149.49
  -3  -1   2 4193.18  147.39
  -3  -1   2 4235.28  149.29
  -3  -1   2 4134.99  148.39
   1   1  -2   30.90    2.70
   1   1  -2   21.60    2.80
   1   1  -2   21.90    2.20
   1   1  -2   27.20    3.40
   1   1  -2   13.00    3.30
   1   1  -2   23.40    2.00
   1   1  -2   19.80    3.20
   1   1  -2   23.10    4.70
  -1  -1   2   26.50    2.10
  -1  -1   2   22.80    3.30
  -1  -1   2   17.10    2.10
  -1  -1   2   26.80    4.50
  -1  -1   2   20.60    3.40
  -1  -1   2   24.80    3.10
  -1   1  -2 4044.30  137.79
  -1   1  -2 4012.30  138.79
  -1   1  -2 4142.49  138.59
  -1   1  -2 3848.91  137.79
  -1   1  -2 4146.89  138.99
  -1   1  -2 3847.72  139.29
  -1   1  -2 4046.90  140.19
   1  -1   2 3950.30  138.39
   1  -1   2 3958.30  138.99
   1  -1   2 4278.27  138.99
   1  -1   2 4336.07  140.39
   1  -1   2 3805.92  137.69
   1  -1   2 3915.31  138.29
  -3   1  -2  295.37   12.40
  -3   1  -2  281.57   14.10
  -3   1  -2  314.27   14.00
  -3   1  -2  272.67   15.50
  -3   1  -2  301.27   13.20
  -3   1  -2  326.67   14.40
  -3   1  -2  308.07   13.20
   3  -1   2  301.97   10.90
   3  -1   2  292.37   12.40
   3  -1   2  289.77   12.90
   3  -1   2  282.07   14.40
   3  -1   2  293.37   13.90
   3  -1   2  316.97   16.20
  -5   1  -2 2087.59   76.09
  -5   1  -2 2144.39   76.49
  -5   1  -2 2174.18   75.19
  -5   1  -2 2072.89   78.59
  -5   1  -2 2061.29   77.19
   5  -1   2 2085.69   76.29
   5  -1   2 2169.58   79.59
   5  -1   2 2118.39   74.69
   5  -1   2 2200.88   77.99
   5  -1   2 1947.21   75.69
   5  -1   2 2201.08   75.39
  -7   1  -2  169.78   12.00
  -7   1  -2  168.18   16.70
  -7   1  -2  162.78   17.70
  -7   1  -2  182.28    7.80
   7  -1   2  180.88   11.30
   7  -1   2  171.08   13.70
   7  -1   2  149.88   13.70
   7  -1   2  168.88   12.00
  -9   1  -2  371.46   27.00
  -9   1  -2  327.87   20.60
  -9   1  -2  411.06   15.00
  -9   1  -2  396.06   25.60
   9  -1   2  369.96   20.70
   9  -1   2  387.76   19.50
   9  -1   2  369.56   22.20
 -11   1  -2  283.97   12.20
 -11   1  -2  302.07   29.70
 -11   1  -2  256.47   27.50
  11  -1   2  264.27   19.60
  11  -1   2  317.37   23.00
  11  -1   2  302.57   21.50
 -13   1  -2  130.59   28.10
 -13   1  -2  102.39   21.70
  13  -1   2  108.79   18.50
  13  -1   2   83.49   16.20
  13  -1   2  115.39   18.80
 -15   1  -2  150.48   37.10
 -15   1  -2  114.89   28.20
  15  -1   2  129.69   23.00
  15  -1   2  121.99   22.30
  15  -1   2  114.39   25.90
  18   0  -2   98.49   23.40
  18   0  -2  101.39   23.60
 -18   0   2  138.29   41.20
 -18   0   2  135.99   29.00
  16   0  -2   88.49   19.50
  16   0  -2   82.49   15.50
  16   0  -2  129.59   19.20
  16   0  -2  123.29   17.20
 -16   0   2   98.69   16.00
 -16   0   2  103.59   23.60
 -16   0   2  132.79   28.80
  14   0  -2   23.50   12.70
  14   0  -2   13.30    9.30
  14   0  -2    8.20   10.30
  14   0  -2   10.80   11.60
 -14   0   2   -6.80   18.80
 -14   0   2   -0.40   12.10
 -14   0   2    2.80   15.10
 -14   0   2   13.70   10.10
  12   0  -2  556.34   25.20
  12   0  -2  562.04   28.40
  12   0  -2  560.24   28.10
  12   0  -2  542.85   24.70
  12   0  -2  524.85   26.80
 -12   0   2  557.44   29.10
 -12   0   2  564.74   32.00
  10   0  -2    2.80    4.80
  10   0  -2    6.60    6.80
  10   0  -2   -3.50    5.90
  10   0  -2    0.00    4.60
 -10   0   2   12.00    8.20
 -10   0   2    3.90    9.80
 -10   0   2    8.00    5.90
   8   0  -2 3157.08  105.49
   8   0  -2 3102.09  110.39
   8   0  -2 2916.51  106.69
   8   0  -2 3084.79  105.39
   8   0  -2 3058.49  108.89
   8   0  -2 2952.00  106.69
  -8   0   2 2942.61  108.19
  -8   0   2 3014.80  108.19
  -8   0   2 3003.20  108.99
  -8   0   2 2881.71  103.59
  -8   0   2 3029.90  106.29
  -8   0   2 3086.19  107.39
   6   0  -2  925.61   36.40
   6   0  -2  919.71   34.50
   6   0  -2  974.90   34.70
   6   0  -2  909.21   35.50
   6   0  -2 1014.30   37.60
   6   0  -2  946.01   34.50
   6   0  -2  967.10   35.50
  -6   0   2  900.61   36.50
  -6   0   2  933.01   35.60
  -6   0   2  998.20   35.10
  -6   0   2  986.40   36.80
  -6   0   2  917.21   33.40
  -6   0   2  906.41   37.00
   4   0  -2 1090.39   41.70
   4   0  -2 1170.18   39.30
   4   0  -2 1154.28   40.80
   4   0  -2 1153.58   40.50
   4   0  -2 1163.48   40.70
   4   0  -2 1177.38   42.30
  -4   0   2 1098.59   42.00
  -4   0   2 1140.89   41.90
  -4   0   2 1138.99   40.80
  -4   0   2 1100.29   42.20
  -4   0   2 1102.49   40.50
   2   0  -2   11.50    2.80
   2   0  -2   15.60    3.80
   2   0  -2   25.10    4.00
   2   0  -2   14.90    3.10
   2   0  -2   12.40    1.30
   2   0  -2   15.70    2.30
   2   0  -2    9.40    2.30
   2   0  -2    6.20    4.00
  -2   0   2   14.60    1.90
  -2   0   2   15.60    1.50
  -2   0   2   14.20    3.50
  -2   0   2   17.80    4.30
  -2   0   2   13.80    2.70
  -2   0   2   13.80    3.40
   0   0  -2  681.93   26.10
   0   0  -2  718.53   26.20
   0   0  -2  703.13   26.10
   0   0  -2  703.83   24.70
   0   0  -2  709.73   27.40
   0   0  -2  713.63   25.20
   0   0   2  726.53   27.10
   0   0   2  715.63   25.30
   0   0   2  729.43   26.20
   0   0   2  692.53   26.10
   0   0   2  697.23   26.10
   0   0   2  658.93   26.80
  -2   0  -2   58.09    3.90
  -2   0  -2   73.09    5.60
  -2   0  -2   64.29    5.80
  -2   0  -2   54.29    6.60
  -2   0  -2   57.69    6.20
  -2   0  -2   63.89    5.30
  -2   0  -2   63.69    5.30
   2   0   2   60.19    3.60
   2   0   2   68.99    7.00
   2   0   2   61.99    5.70
   2   0   2   66.99    7.20
   2   0   2   57.79    5.30
   2   0   2   64.49    4.00
  -4   0  -2  276.37   13.20
  -4   0  -2  271.77   10.80
  -4   0  -2  250.87   14.50
  -4   0  -2  273.97   12.10
  -4   0  -2  278.17   14.40
   4   0   2  298.27   16.00
   4   0   2  279.47   14.30
   4   0   2  272.17   10.70
   4   0   2  259.87   11.70
   4   0   2  253.17   12.60
   4   0   2  275.87   13.30
   4   0   2  268.57   14.70
  -6   0  -2 1053.99   45.60
  -6   0  -2 1133.39   40.30
  -6   0  -2 1095.19   45.00
  -6   0  -2 1185.38   42.10
   6   0   2 1107.49   44.00
   6   0   2 1110.09   42.30
   6   0   2 1179.98   43.50
   6   0   2 1183.48   48.40
   6   0   2 1152.98   42.50
  -8   0  -2   72.89    6.30
  -8   0  -2   70.39    7.80
  -8   0  -2   57.49   12.40
  -8   0  -2   61.19   13.20
   8   0   2   64.19    9.80
   8   0   2   72.69    8.90
   8   0   2   58.59    8.30
 -10   0  -2  893.71   37.60
 -10   0  -2  965.10   34.20
 -10   0  -2  858.11   43.00
 -10   0  -2  949.80   45.00
  10   0   2  924.21   37.60
  10   0   2  934.31   38.60
  10   0   2  895.71   37.70
  10   0   2  872.81   40.30
 -12   0  -2    9.80   19.00
 -12   0  -2   -8.40   15.90
  12   0   2   14.20   13.00
  12   0   2   -3.10   11.40
  12   0   2   -8.90   10.90
 -14   0  -2  234.78   29.80
 -14   0  -2  277.47   34.40
  14   0   2  323.17   30.20
  14   0   2  242.18   25.30
 -16   0  -2  -38.20   30.20
 -16   0  -2  -36.50   25.30
 -16   0  -2  116.39   39.60
  16   0   2   71.99   25.80
  16   0   2   58.19   28.00
  16   0   2   10.80   24.40
  19  -1  -2   28.80   23.70
  19  -1  -2   -1.90   26.40
 -19   1   2   57.19   43.10
 -19   1   2    1.70   31.30
  17  -1  -2   61.49   20.00
  17  -1  -2   44.50   18.10
 -17   1   2   71.29   25.70
 -17   1   2   73.79   33.00
 -17   1   2   66.19   17.20
  15  -1  -2   80.59   14.60
  15  -1  -2   83.99   16.10
  15  -1  -2   70.39   16.40
  15  -1  -2   90.59   12.10
 -15   1   2   94.89   22.10
 -15   1   2   88.49   17.50
 -15   1   2   73.39   13.10
 -15   1   2  102.89   26.70
  13  -1  -2  420.06   24.40
  13  -1  -2  412.36   24.40
  13  -1  -2  411.56   20.90
  13  -1  -2  432.46   25.50
 -13   1   2  395.96   29.80
 -13   1   2  404.56   27.20
 -13   1   2  397.46   34.80
  11  -1  -2  122.79    9.80
  11  -1  -2  134.39   11.00
  11  -1  -2  131.59   14.00
  11  -1  -2  137.89   12.80
  11  -1  -2  132.09   12.70
 -11   1   2  140.19   14.90
 -11   1   2  113.09   15.30
   9  -1  -2  415.46   20.60
   9  -1  -2  433.76   17.60
   9  -1  -2  433.26   18.10
   9  -1  -2  418.56   20.30
  -9   1   2  389.56   23.10
  -9   1   2  446.76   20.40
  -9   1   2  412.76   21.50
  -9   1   2  412.76   22.60
   7  -1  -2 1297.77   49.40
   7  -1  -2 1277.57   45.60
   7  -1  -2 1344.47   46.40
   7  -1  -2 1266.97   47.10
  -7   1   2 1310.27   47.60
  -7   1   2 1234.18   49.90
  -7   1   2 1269.37   48.80
  -7   1   2 1280.97   44.50
  -7   1   2 1314.37   47.80
  -7   1   2 1248.48   49.00
   5  -1  -2  913.61   34.50
   5  -1  -2  883.51   33.60
   5  -1  -2  923.61   33.40
   5  -1  -2  956.60   35.80
   5  -1  -2  903.91   34.70
   5  -1  -2  912.61   33.40
  -5   1   2  922.91   33.90
  -5   1   2  890.11   35.20
  -5   1   2  887.41   35.80
  -5   1   2  949.60   33.70
  -5   1   2  967.90   35.20
  -5   1   2  886.31   33.10
   3  -1  -2 4389.56  147.29
   3  -1  -2 4325.27  146.29
   3  -1  -2 4531.95  148.69
   3  -1  -2 4150.58  147.69
   3  -1  -2 4168.38  146.39
   3  -1  -2 4253.57  147.39
  -3   1   2 4426.76  147.89
  -3   1   2 4262.77  146.79
  -3   1   2 4173.68  147.09
  -3   1   2 4173.48  148.39
  -3   1   2 4164.58  146.39
  -3   1   2 4376.26  147.49
   1  -1  -2   21.00    2.50
   1  -1  -2   23.20    3.70
   1  -1  -2   23.80    3.40
   1  -1  -2   28.40    5.10
   1  -1  -2   22.00    3.20
  -1   1   2   20.70    2.50
  -1   1   2   24.40    4.50
  -1   1   2   18.80    3.20
  -1   1   2   17.70    2.90
  -1   1   2   23.10    3.70
  -1   1   2   21.30    2.40
  -1  -1  -2 3937.61  139.99
  -1  -1  -2 4107.79  139.89
  -1  -1  -2 4110.99  140.59
  -1  -1  -2 4077.89  141.39
  -1  -1  -2 4048.70  140.09
  -1  -1  -2 4233.08  140.79
   1   1   2 4386.86  141.09
   1   1   2 3977.50  140.69
   1   1   2 4280.97  141.49
   1   1   2 3773.82  138.69
   1   1   2 3900.11  140.59
  -3  -1  -2  300.87   13.70
  -3  -1  -2  310.17   14.40
  -3  -1  -2  304.37   12.00
  -3  -1  -2  303.97   13.50
  -3  -1  -2  306.97   14.60
  -3  -1  -2  276.67   14.80
   3   1   2  275.07   13.40
   3   1   2  292.77   11.80
   3   1   2  276.57   13.90
   3   1   2  301.87   15.20
   3   1   2  300.17   14.60
   3   1   2  300.47   11.90
  -5  -1  -2 2055.89   78.09
  -5  -1  -2 2210.38   77.29
  -5  -1  -2 2113.89   78.59
  -5  -1  -2 2130.09   75.09
  -5  -1  -2 2120.99   77.69
  -5  -1  -2 2091.59   74.89
   5   1   2 2221.08   79.49
   5   1   2 2235.58   78.99
   5   1   2 2089.59   77.59
   5   1   2 2240.08   74.89
   5   1   2 2068.99   76.79
   5   1   2 2083.59   75.39
   5   1   2 2234.78   77.19
  -7  -1  -2  180.78    9.90
  -7  -1  -2  171.38   16.30
  -7  -1  -2  183.08   10.70
  -7  -1  -2  154.58   16.50
   7   1   2  195.28   14.90
   7   1   2  166.88   11.80
   7   1   2  182.58   13.70
  -9  -1  -2  357.76   25.10
  -9  -1  -2  408.96   26.20
  -9  -1  -2  406.36   19.10
  -9  -1  -2  394.96   17.70
   9   1   2  369.66   21.40
   9   1   2  377.96   20.60
   9   1   2  363.26   19.70
   9   1   2  427.86   23.50
 -11  -1  -2  292.17   27.90
 -11  -1  -2  311.77   17.70
 -11  -1  -2  234.78   26.50
  11   1   2  303.67   21.90
  11   1   2  300.77   23.50
  11   1   2  317.57   22.10
 -13  -1  -2  132.19   22.80
 -13  -1  -2  129.39   25.10
  13   1   2   88.59   18.10
  13   1   2  103.79   16.60
  13   1   2  100.69   17.70
 -15  -1  -2   90.19   27.80
 -15  -1  -2   53.69   26.40
 -15  -1  -2  159.58   37.10
  15   1   2  136.99   26.80
  15   1   2  115.59   22.10
  18  -2  -2   73.69   23.10
  18  -2  -2   88.99   22.50
 -18   2   2  101.99   30.00
 -18   2   2  100.39   41.80
  16  -2  -2   53.99   17.20
  16  -2  -2   29.40   15.80
  16  -2  -2   30.20   14.00
 -16   2   2   66.89   23.00
 -16   2   2   31.90   17.60
 -16   2   2   35.60   13.90
  14  -2  -2  213.28   19.20
  14  -2  -2  174.38   15.70
  14  -2  -2  169.38   14.90
  14  -2  -2  182.98   17.50
  14  -2  -2  223.68   22.20
 -14   2   2  193.78   20.50
 -14   2   2  167.78   22.90
 -14   2   2  205.68   18.20
 -14   2   2  231.78   30.40
  12  -2  -2  409.66   23.30
  12  -2  -2  392.96   22.60
  12  -2  -2  408.66   17.90
  12  -2  -2  400.96   19.20
  12  -2  -2  426.76   24.00
 -12   2   2  401.26   25.60
 -12   2   2  348.77   26.60
  10  -2  -2  248.08   15.70
  10  -2  -2  242.18   15.50
  10  -2  -2  253.27   11.80
  10  -2  -2  249.48   13.00
  10  -2  -2  257.47   16.70
 -10   2   2  254.87   18.70
 -10   2   2  237.78   19.40
   8  -2  -2 1234.18   43.10
   8  -2  -2 1211.68   46.00
   8  -2  -2 1201.28   46.60
   8  -2  -2 1214.78   45.60
   8  -2  -2 1271.17   44.20
   8  -2  -2 1185.48   48.30
  -8   2   2 1169.78   47.30
  -8   2   2 1223.68   49.40
  -8   2   2 1195.08   46.50
  -8   2   2 1239.98   48.00
  -8   2   2 1256.37   46.20
  -8   2   2 1223.48   46.70
   6  -2  -2  821.72   29.90
   6  -2  -2  798.12   30.40
   6  -2  -2  792.42   30.60
   6  -2  -2  800.42   29.50
   6  -2  -2  796.02   28.10
   6  -2  -2  821.82   32.70
   6  -2  -2  771.62   31.10
  -6   2   2  789.12   29.20
  -6   2   2  822.42   31.50
  -6   2   2  803.72   31.20
  -6   2   2  807.02   31.70
  -6   2   2  757.02   32.20
  -6   2   2  817.42   30.30
   4  -2  -2  842.82   32.10
   4  -2  -2  902.31   31.50
   4  -2  -2  879.71   33.50
   4  -2  -2  856.01   30.60
   4  -2  -2  833.02   32.30
   4  -2  -2  863.41   29.80
   4  -2  -2  838.72   32.30
   4  -2  -2  859.71   29.60
  -4   2   2  880.41   31.70
  -4   2   2  896.21   32.60
  -4   2   2  858.31   32.20
  -4   2   2  878.01   30.90
  -4   2   2  829.92   33.10
  -4   2   2  838.82   31.20
   2  -2  -2 1162.08   39.60
   2  -2  -2 1157.58   41.30
   2  -2  -2 1171.78   41.90
   2  -2  -2 1135.39   41.20
   2  -2  -2 1189.88   41.60
   2  -2  -2 1149.89   40.60
   2  -2  -2 1141.89   40.20
  -2   2   2 1132.59   41.50
  -2   2   2 1152.28   42.50
  -2   2   2 1182.38   43.00
  -2   2   2 1128.39   40.50
  -2   2   2 1191.68   42.20
  -2   2   2 1168.28   41.40
  -2   2   2 1145.59   41.20
   0  -2  -2 1148.49   39.50
   0  -2  -2 1039.20   39.80
   0  -2  -2 1040.40   39.70
   0  -2  -2 1081.29   37.80
   0  -2  -2 1052.99   38.00
   0  -2  -2 1093.89   39.10
   0  -2  -2 1086.69   38.80
   0   2   2 1104.39   38.60
   0   2   2 1120.69   38.10
   0   2   2 1013.40   39.30
   0   2   2 1052.59   39.00
   0   2   2 1104.09   39.80
   0   2   2 1125.19   38.80
  -2  -2  -2  295.57   14.40
  -2  -2  -2  306.57   12.60
  -2  -2  -2  301.77   13.70
  -2  -2  -2  315.47   13.20
  -2  -2  -2  312.87   12.80
  -2  -2  -2  327.97   14.40
   2   2   2  302.57   14.10
   2   2   2  324.57   14.30
   2   2   2  324.47   14.80
   2   2   2  295.67   12.90
   2   2   2  324.17   12.80
   2   2   2  305.97   14.40
   2   2   2  304.27   11.60
  -4  -2  -2  807.32   29.70
  -4  -2  -2  830.62   32.00
  -4  -2  -2  779.02   32.30
  -4  -2  -2  780.22   31.90
  -4  -2  -2  821.82   28.80
  -4  -2  -2  732.43   31.20
  -4  -2  -2  821.82   31.10
   4   2   2  845.92   32.30
   4   2   2  835.02   32.60
   4   2   2  733.53   32.60
   4   2   2  778.52   29.10
   4   2   2  817.92   29.50
   4   2   2  773.62   31.80
  -6  -2  -2  397.06   17.40
  -6  -2  -2  398.96   21.50
  -6  -2  -2  411.06   22.00
  -6  -2  -2  415.86   16.10
   6   2   2  392.16   20.20
   6   2   2  355.96   18.00
   6   2   2  406.06   22.70
   6   2   2  445.46   17.40
   6   2   2  417.36   20.30
   6   2   2  389.96   20.00
  -8  -2  -2  148.29   15.40
  -8  -2  -2  154.88    9.40
  -8  -2  -2  157.78   16.20
  -8  -2  -2  107.59   11.00
   8   2   2  143.19   13.90
   8   2   2  131.09   12.40
   8   2   2  131.59   11.90
   8   2   2  130.69   12.80
   8   2   2  122.79   13.30
 -10  -2  -2  457.25   21.60
 -10  -2  -2  460.85   29.10
 -10  -2  -2  432.86   22.40
 -10  -2  -2  466.05   30.20
  10   2   2  463.35   25.80
  10   2   2  491.55   27.20
  10   2   2  459.45   24.30
 -12  -2  -2   52.79   17.10
 -12  -2  -2   66.29   18.30
 -12  -2  -2   86.59   11.40
 -12  -2  -2   99.59   21.00
  12   2   2   91.89   15.90
  12   2   2   78.39   16.10
  12   2   2   77.69   14.50
 -14  -2  -2   76.99   25.40
 -14  -2  -2   92.59   28.90
 -14  -2  -2   52.89   22.00
  14   2   2   45.50   17.30
  14   2   2   63.79   20.50
 -16  -2  -2   10.50   32.00
 -16  -2  -2   26.50   27.40
  16   2   2   44.80   25.10
  16   2   2   28.40   27.70
 -19   3   2  217.18   49.99
  17  -3  -2   22.60   20.80
  17  -3  -2   28.60   18.80
 -17   3   2   15.70   24.00
 -17   3   2   62.69   34.70
  15  -3  -2  452.25   44.50
  15  -3  -2  540.05   28.20
  15  -3  -2  528.25   34.40
  15  -3  -2  564.64   29.30
 -15   3   2  503.15   28.90
 -15   3   2  479.85   44.10
 -15   3   2  565.84   35.30
  13  -3  -2    9.40    7.90
  13  -3  -2    1.00   10.60
  13  -3  -2    6.00    4.90
  13  -3  -2    4.80   10.50
 -13   3   2    1.80   19.80
 -13   3   2    9.20   14.40
 -13   3   2   25.10   12.30
  11  -3  -2 1261.37   50.89
  11  -3  -2 1264.07   49.99
  11  -3  -2 1297.07   46.40
  11  -3  -2 1278.77   45.50
  11  -3  -2 1270.37   50.29
  11  -3  -2 1270.47   47.40
 -11   3   2 1275.67   52.29
 -11   3   2 1234.78   54.79
   9  -3  -2  980.30   39.10
   9  -3  -2  954.70   37.50
   9  -3  -2  972.80   38.10
   9  -3  -2  940.11   35.30
   9  -3  -2  973.60   35.10
   9  -3  -2  940.41   33.80
  -9   3   2  921.91   39.50
  -9   3   2  944.71   42.10
  -9   3   2  932.21   39.50
  -9   3   2  969.90   38.40
   7  -3  -2  511.25   19.20
   7  -3  -2  483.55   20.60
   7  -3  -2  504.55   19.80
   7  -3  -2  528.25   22.40
   7  -3  -2  515.95   22.90
   7  -3  -2  537.35   24.30
   7  -3  -2  470.75   21.30
  -7   3   2  506.35   18.00
  -7   3   2  453.85   23.50
  -7   3   2  498.45   25.30
  -7   3   2  507.95   19.40
  -7   3   2  519.95   22.40
  -7   3   2  537.05   23.00
  -7   3   2  539.45   23.40
  -7   3   2  524.05   21.40
   5  -3  -2 3196.68  111.79
   5  -3  -2 3135.99  113.29
   5  -3  -2 3349.66  112.19
   5  -3  -2 3401.76  114.99
   5  -3  -2 3187.88  110.89
   5  -3  -2 3184.68  112.49
   5  -3  -2 3236.18  113.79
  -5   3   2 3235.58  111.99
  -5   3   2 3276.87  113.79
  -5   3   2 3188.18  114.59
  -5   3   2 3382.06  114.09
  -5   3   2 3314.67  113.09
  -5   3   2 3147.49  111.89
  -5   3   2 3060.49  115.49
  -5   3   2 3363.76  113.99
   3  -3  -2  837.62   32.30
   3  -3  -2  827.52   29.20
   3  -3  -2  825.72   31.20
   3  -3  -2  842.42   31.50
   3  -3  -2  835.72   29.80
   3  -3  -2  870.21   30.70
   3  -3  -2  787.62   30.60
  -3   3   2  832.62   28.90
  -3   3   2  811.62   30.50
  -3   3   2  868.61   30.80
  -3   3   2  813.62   29.10
  -3   3   2  856.51   31.60
  -3   3   2  734.83   31.80
  -3   3   2  829.72   28.80
  -3   3   2  869.91   31.60
  -3   3   2  851.61   30.90
   1  -3  -2 5797.02  205.78
   1  -3  -2 6038.10  207.68
   1  -3  -2 6192.28  207.18
   1  -3  -2 6224.88  206.98
   1  -3  -2 5797.82  206.78
   1  -3  -2 5895.61  206.48
  -1   3   2 6289.77  207.78
  -1   3   2 6176.48  206.78
  -1   3   2 5799.12  207.18
  -1   3   2 6387.26  207.78
  -1   3   2 6080.99  206.68
  -1   3   2 6044.79  205.98
  -1   3   2 5749.32  206.38
  -1  -3  -2 1846.02   63.89
  -1  -3  -2 1804.72   61.49
  -1  -3  -2 1717.73   62.89
  -1  -3  -2 1740.13   63.29
  -1  -3  -2 1797.52   64.29
  -1  -3  -2 1715.03   63.69
   1   3   2 1859.71   63.89
   1   3   2 1764.12   63.89
   1   3   2 1861.81   63.39
   1   3   2 1833.12   62.89
   1   3   2 1742.63   62.29
   1   3   2 1717.03   63.59
   1   3   2 1848.62   63.79
  -3  -3  -2 4240.28  150.88
  -3  -3  -2 4523.75  151.18
  -3  -3  -2 4241.18  150.38
  -3  -3  -2 4516.45  150.08
  -3  -3  -2 4158.28  149.39
   3   3   2 4515.65  151.18
   3   3   2 4324.57  149.29
   3   3   2 4069.79  150.68
   3   3   2 4155.78  149.69
   3   3   2 4568.74  150.88
  -5  -3  -2  133.59   11.00
  -5  -3  -2  124.89   11.10
  -5  -3  -2  124.99   11.50
  -5  -3  -2  133.79    6.00
  -5  -3  -2  118.29   11.90
  -5  -3  -2  119.79    8.70
  -5  -3  -2  135.29   14.40
   5   3   2  107.79   10.40
   5   3   2  130.89    7.70
   5   3   2  137.79    8.90
   5   3   2  127.29   10.80
   5   3   2  151.38   15.80
   5   3   2  112.29   12.00
   5   3   2  126.19   12.10
  -7  -3  -2 2273.37   84.79
  -7  -3  -2 2365.26   85.09
  -7  -3  -2 2344.77   79.39
  -7  -3  -2 2297.67   85.89
  -7  -3  -2 2165.08   82.29
  -7  -3  -2 2428.96   82.79
   7   3   2 2315.17   82.09
   7   3   2 2375.86   81.89
   7   3   2 2334.97   84.59
   7   3   2 2242.18   84.09
   7   3   2 2197.18   82.59
   7   3   2 2297.97   85.19
  -9  -3  -2  505.05   27.50
  -9  -3  -2  494.55   28.00
  -9  -3  -2  460.35   23.50
  -9  -3  -2  480.95   27.80
   9   3   2  473.15   27.20
   9   3   2  508.15   23.70
   9   3   2  519.85   27.00
   9   3   2  503.65   26.70
 -11  -3  -2  206.88   24.40
 -11  -3  -2  189.98   18.00
 -11  -3  -2  193.58   20.30
 -11  -3  -2  235.88   24.40
  11   3   2  201.88   18.70
  11   3   2  216.48   22.20
  11   3   2  208.28   19.30
 -13  -3  -2  502.05   37.60
 -13  -3  -2  590.54   36.10
 -13  -3  -2  543.65   41.50
 -13  -3  -2  538.35   40.20
  13   3   2  563.04   37.80
  13   3   2  532.75   37.10
  13   3   2  534.15   33.80
 -15  -3  -2   26.80   26.60
 -15  -3  -2   -2.60   21.10
  15   3   2   18.20   20.60
  15   3   2    1.00   24.70
  18  -4  -2  -31.60   22.70
  18  -4  -2   10.80   21.50
  18  -4  -2   11.20   22.40
 -18   4   2   31.90   41.70
 -18   4   2   -7.40   27.50
  16  -4  -2   40.30   17.70
  16  -4  -2   20.00   15.00
  16  -4  -2   15.90   16.30
 -16   4   2  -13.50   13.50
 -16   4   2   45.90   29.60
 -16   4   2   27.50   23.30
 -16   4   2   25.10   25.20
  14  -4  -2  415.16   28.80
  14  -4  -2  366.66   23.00
  14  -4  -2  421.76   28.00
  14  -4  -2  361.56   16.80
 -14   4   2  387.66   40.80
 -14   4   2  411.26   33.40
 -14   4   2  380.06   28.80
  12  -4  -2   11.80    9.40
  12  -4  -2    0.80    5.20
  12  -4  -2   25.40    3.60
  12  -4  -2   12.90    6.60
  12  -4  -2   -2.50    8.00
 -12   4   2   17.00   11.60
 -12   4   2    8.20   13.70
  10  -4  -2  725.63   25.80
  10  -4  -2  694.83   31.50
  10  -4  -2  717.43   32.70
  10  -4  -2  745.03   27.30
  10  -4  -2  745.93   28.80
 -10   4   2  726.13   36.70
 -10   4   2  695.43   32.70
   8  -4  -2  280.57   15.50
   8  -4  -2  294.47   17.00
   8  -4  -2  279.87   12.50
   8  -4  -2  302.47   19.10
   8  -4  -2  288.97   12.50
  -8   4   2  249.88   19.90
  -8   4   2  300.97   15.60
  -8   4   2  292.97   17.50
  -8   4   2  268.87   17.90
   6  -4  -2 1582.64   59.59
   6  -4  -2 1656.23   60.59
   6  -4  -2 1559.64   58.09
   6  -4  -2 1619.64   59.39
   6  -4  -2 1605.34   56.29
   6  -4  -2 1643.64   56.99
  -6   4   2 1706.93   59.99
  -6   4   2 1516.45   60.39
  -6   4   2 1619.54   59.69
  -6   4   2 1709.43   59.89
  -6   4   2 1601.14   56.19
  -6   4   2 1504.65   61.49
  -6   4   2 1619.14   58.59
  -6   4   2 1656.93   57.49
  -6   4   2 1596.64   56.69
   4  -4  -2   59.09    4.80
   4  -4  -2   60.29    5.40
   4  -4  -2   75.09    6.90
   4  -4  -2   64.19    3.80
   4  -4  -2   64.49    6.70
   4  -4  -2   68.29    7.70
  -4   4   2   73.19    7.80
  -4   4   2   66.59    7.00
  -4   4   2   65.99    4.20
  -4   4   2   72.49    6.50
  -4   4   2   59.19    3.70
  -4   4   2   63.29    5.30
  -4   4   2   58.19    7.00
  -4   4   2   71.19    7.20
  -4   4   2   60.49    2.70
   2  -4  -2    5.40    2.60
   2  -4  -2    4.30    2.60
   2  -4  -2    7.40    3.10
   2  -4  -2    7.30    2.30
   2  -4  -2    5.20    3.10
   2  -4  -2    4.20    1.60
  -2   4   2    4.30    2.70
  -2   4   2    6.90    3.70
  -2   4   2    3.20    1.70
  -2   4   2    7.00    4.10
  -2   4   2    5.90    1.90
  -2   4   2    5.20    2.50
  -2   4   2    5.50    1.70
  -2   4   2    2.60    2.90
  -2   4   2    3.90    3.20
  -2   4   2    5.40    2.70
   0  -4  -2   74.59    5.50
   0  -4  -2   78.09    4.60
   0  -4  -2   72.49    5.20
   0  -4  -2   83.59    7.00
   0  -4  -2   83.89    6.40
   0  -4  -2   86.29    6.20
   0   4   2   74.49    6.20
   0   4   2   70.79    6.80
   0   4   2   74.09    5.60
   0   4   2   76.49    4.20
   0   4   2   81.49    7.20
   0   4   2   86.09    6.30
   0   4   2   73.09    3.40
   0   4   2   77.19    3.60
  -2  -4  -2   58.79    6.00
  -2  -4  -2   69.89    5.90
  -2  -4  -2   63.79    6.70
  -2  -4  -2   72.69    7.90
  -2  -4  -2   64.19    4.30
  -2  -4  -2   62.59    2.80
  -2  -4  -2   55.89    2.90
  -2  -4  -2   53.09    6.50
   2   4   2   72.79    6.90
   2   4   2   74.29    5.70
   2   4   2   71.09    7.40
   2   4   2   49.60    7.10
   2   4   2   60.59    5.30
   2   4   2   63.09    6.70
  -4  -4  -2  375.56   18.50
  -4  -4  -2  389.86   18.00
  -4  -4  -2  396.26   13.80
  -4  -4  -2  423.66   20.00
  -4  -4  -2  395.06   13.70
  -4  -4  -2  387.46   18.00
  -4  -4  -2  392.26   15.20
  -4  -4  -2  399.66   19.60
   4   4   2  371.36   16.90
   4   4   2  371.96   19.80
   4   4   2  377.66   19.20
   4   4   2  335.87   18.70
   4   4   2  383.66   18.10
   4   4   2  391.06   17.50
   4   4   2  365.16   19.30
  -6  -4  -2   80.09   11.10
  -6  -4  -2   90.89   10.80
  -6  -4  -2   71.89    8.30
  -6  -4  -2   95.79    8.60
   6   4   2   74.29    8.80
   6   4   2   66.19    9.70
   6   4   2   97.49    9.40
   6   4   2   73.49    9.00
   6   4   2   91.09    7.80
   6   4   2   91.69   11.60
   6   4   2  106.09   12.80
  -8  -4  -2  545.95   28.60
  -8  -4  -2  632.04   25.80
  -8  -4  -2  510.15   25.50
  -8  -4  -2  540.15   28.70
  -8  -4  -2  552.84   27.60
   8   4   2  566.64   27.80
   8   4   2  546.15   24.60
   8   4   2  597.34   28.60
   8   4   2  548.75   28.90
 -10  -4  -2   95.79   11.90
 -10  -4  -2   81.39   15.50
 -10  -4  -2  112.49   15.90
 -10  -4  -2   94.59   15.40
  10   4   2   95.79   11.80
  10   4   2  109.39   15.50
  10   4   2   91.39   13.90
  10   4   2  103.39   15.20
 -12  -4  -2  393.66   26.50
 -12  -4  -2  376.16   38.70
 -12  -4  -2  441.66   33.10
  12   4   2  456.25   32.50
  12   4   2  440.96   31.80
  12   4   2  404.86   27.50
 -14  -4  -2  -12.90   22.50
 -14  -4  -2   43.90   27.80
 -14  -4  -2   20.00   20.20
  14   4   2   30.90   21.60
  14   4   2   17.60   18.90
  14   4   2  -20.90   22.50
 -16  -4  -2   17.50   46.40
  16   4   2   34.80   30.10
 -19   5   2   20.60   69.19
  17  -5  -2   21.10   18.80
  17  -5  -2   38.30   21.10
 -17   5   2   23.30   22.30
 -17   5   2  -10.00   33.90
 -17   5   2   15.90   24.70
  15  -5  -2   -2.70   13.10
  15  -5  -2  -11.50   11.90
  15  -5  -2   -6.10   15.10
 -15   5   2   -8.90   18.90
 -15   5   2    1.10   16.50
 -15   5   2  -13.50   25.80
  13  -5  -2  106.49   15.80
  13  -5  -2   93.19   14.80
  13  -5  -2  107.09   11.50
 -13   5   2  161.18   29.30
 -13   5   2   86.89   20.20
 -13   5   2  112.39   15.90
  11  -5  -2   19.90    6.70
  11  -5  -2    0.60    9.00
  11  -5  -2   17.60    9.00
  11  -5  -2   21.20    4.00
 -11   5   2   26.00   10.70
 -11   5   2   -0.80   11.50
   9  -5  -2 1056.29   41.80
   9  -5  -2 1052.79   43.40
   9  -5  -2 1118.89   38.00
  -9   5   2 1009.00   43.40
  -9   5   2 1025.60   45.90
  -9   5   2 1042.60   41.40
   7  -5  -2    0.10    2.90
   7  -5  -2    0.40    5.20
   7  -5  -2    6.90    5.70
   7  -5  -2    4.30    4.80
   7  -5  -2    8.00    2.80
   7  -5  -2    2.30    7.50
  -7   5   2    9.40    4.80
  -7   5   2    1.40    7.20
  -7   5   2    9.20    2.70
  -7   5   2    6.40    2.50
  -7   5   2    6.90    8.80
  -7   5   2   -2.50    6.20
  -7   5   2    0.80    6.30
   5  -5  -2  750.72   30.20
   5  -5  -2  755.52   27.80
   5  -5  -2  724.53   28.20
   5  -5  -2  726.93   30.30
   5  -5  -2  774.12   31.20
   5  -5  -2  729.03   26.90
  -5   5   2  731.73   29.10
  -5   5   2  709.93   27.50
  -5   5   2  771.22   27.40
  -5   5   2  746.43   26.90
  -5   5   2  688.43   32.70
  -5   5   2  791.72   30.20
  -5   5   2  751.12   30.50
  -5   5   2  757.42   30.20
  -5   5   2  731.73   27.60
   3  -5  -2   98.79    7.70
   3  -5  -2  109.09    7.30
   3  -5  -2   90.09    5.70
   3  -5  -2  109.79    8.30
   3  -5  -2   90.49    6.90
  -3   5   2   92.69    6.90
  -3   5   2   97.49    5.40
  -3   5   2   95.79    6.10
  -3   5   2   93.89    4.50
  -3   5   2   92.89    7.10
  -3   5   2  101.99    7.00
  -3   5   2   97.39    8.10
  -3   5   2   85.09    6.70
  -3   5   2  106.19    7.60
  -3   5   2   87.29    9.00
  -3   5   2  105.49    8.40
   1  -5  -2 1508.25   50.79
   1  -5  -2 1376.76   49.10
   1  -5  -2 1432.26   50.69
   1  -5  -2 1408.16   51.79
   1  -5  -2 1460.85   51.29
  -1   5   2 1362.66   48.70
  -1   5   2 1401.26   49.20
  -1   5   2 1407.66   51.59
  -1   5   2 1409.16   50.69
  -1   5   2 1384.06   50.89
  -1   5   2 1399.56   50.59
  -1   5   2 1410.66   51.39
  -1   5   2 1366.06   50.79
  -1   5   2 1390.76   50.89
  -1   5   2 1430.26   49.99
  -1   5   2 1397.06   49.10
  -1   5   2 1457.85   52.09
  -1  -5  -2   73.89    7.20
  -1  -5  -2   52.29    6.90
  -1  -5  -2   61.79    6.70
  -1  -5  -2   68.39    5.50
  -1  -5  -2   57.29    6.40
  -1  -5  -2   60.29    4.60
   1   5   2   59.09    3.80
   1   5   2   74.19    7.70
   1   5   2   68.69    6.90
   1   5   2   58.99    5.90
   1   5   2   65.89    5.00
   1   5   2   70.79    7.00
   1   5   2   71.59    7.00
   1   5   2   50.69    7.20
   1   5   2   68.69    7.00
  -3  -5  -2  377.76   19.40
  -3  -5  -2  378.86   18.90
  -3  -5  -2  420.56   18.10
  -3  -5  -2  408.16   17.60
  -3  -5  -2  399.76   19.60
  -3  -5  -2  401.26   17.90
  -3  -5  -2  398.16   14.40
   3   5   2  398.06   17.50
   3   5   2  394.16   19.80
   3   5   2  375.86   17.80
   3   5   2  380.16   17.00
   3   5   2  408.06   19.30
   3   5   2  387.66   19.80
  -5  -5  -2   40.10    7.10
  -5  -5  -2   42.80    8.50
  -5  -5  -2   42.00    8.00
  -5  -5  -2   35.20    6.70
   5   5   2   39.50    7.40
   5   5   2   28.60    8.60
   5   5   2   22.80    5.60
   5   5   2   32.00    8.10
   5   5   2   45.60    8.30
   5   5   2   38.70    8.60
  -7  -5  -2  588.74   26.60
  -7  -5  -2  601.14   24.60
  -7  -5  -2  539.55   28.40
  -7  -5  -2  562.24   26.10
  -7  -5  -2  575.04   28.40
   7   5   2  552.04   26.80
   7   5   2  558.94   28.10
   7   5   2  588.64   29.70
  -9  -5  -2   30.80   11.50
  -9  -5  -2   19.80    9.60
  -9  -5  -2   36.30   10.50
  -9  -5  -2   31.50   13.10
  -9  -5  -2   35.10   12.00
   9   5   2   33.20   11.10
   9   5   2   15.30   12.30
   9   5   2   19.80   11.00
   9   5   2   32.20    8.50
 -11  -5  -2  178.08   21.60
 -11  -5  -2  190.58   20.10
 -11  -5  -2  178.48   20.60
 -11  -5  -2  162.88   16.40
  11   5   2  165.98   19.10
  11   5   2  187.98   19.50
  11   5   2  199.28   19.30
  11   5   2  214.68   20.90
 -13  -5  -2   46.50   21.30
 -13  -5  -2   52.89   23.20
 -13  -5  -2   23.30   18.10
 -13  -5  -2   55.99   15.90
  13   5   2   34.90   20.90
  13   5   2   13.40   18.30
  13   5   2   61.09   16.30
 -15  -5  -2   37.50   28.40
 -15  -5  -2   99.49   25.60
  15   5   2   41.40   27.50
  15   5   2  113.29   25.50
  18  -6  -2   -5.90   22.40
  18  -6  -2  -29.70   24.60
 -18   6   2   74.79   44.10
 -18   6   2  -16.00   29.40
  16  -6  -2  155.78   23.10
  16  -6  -2  179.18   20.30
  16  -6  -2  175.08   23.10
 -16   6   2  123.59   35.00
 -16   6   2  158.88   28.90
 -16   6   2  132.79   25.20
  14  -6  -2   13.20   10.70
  14  -6  -2   17.10   14.40
  14  -6  -2    0.50   13.80
 -14   6   2    2.30   14.80
 -14   6   2    6.90   28.20
 -14   6   2    9.60   22.90
  12  -6  -2  103.99   14.30
  12  -6  -2  104.69   10.80
  12  -6  -2  103.39   13.10
 -12   6   2  129.69   20.90
 -12   6   2  106.09   16.00
  10  -6  -2  495.35   24.00
  10  -6  -2  470.85   26.80
  10  -6  -2  499.95   21.90
 -10   6   2  477.05   30.70
 -10   6   2  485.85   26.30
   8  -6  -2    3.00    9.80
   8  -6  -2    7.80    6.90
   8  -6  -2    1.80    3.50
   8  -6  -2    2.90    5.30
   8  -6  -2   -0.60    3.60
  -8   6   2   -6.10    9.70
  -8   6   2    5.30    6.00
  -8   6   2    7.00    2.30
  -8   6   2    7.50    8.40
  -8   6   2   -1.90    2.30
   6  -6  -2 1554.84   61.79
   6  -6  -2 1691.43   60.49
   6  -6  -2 1759.52   58.99
   6  -6  -2 1696.13   62.39
   6  -6  -2 1709.43   58.69
   6  -6  -2 1767.12   63.19
  -6   6   2 1634.94   58.79
  -6   6   2 1659.13   58.69
  -6   6   2 1611.94   62.89
  -6   6   2 1706.63   59.29
  -6   6   2 1541.85   62.39
  -6   6   2 1647.34   59.99
  -6   6   2 1646.24   64.89
  -6   6   2 1642.64   61.09
   4  -6  -2   43.10    6.20
   4  -6  -2   46.80    4.70
   4  -6  -2   53.69    6.80
   4  -6  -2   47.60    5.00
  -4   6   2   50.39    5.40
  -4   6   2   49.00    6.00
  -4   6   2   45.90    5.20
  -4   6   2   45.80    6.70
  -4   6   2   53.19    4.40
  -4   6   2   45.70    5.10
  -4   6   2   47.00    3.90
  -4   6   2   50.69    4.40
  -4   6   2   44.30    7.10
  -4   6   2   56.69    6.10
   2  -6  -2 1169.88   46.10
   2  -6  -2 1141.49   44.80
   2  -6  -2 1210.68   43.20
   2  -6  -2 1187.28   44.80
  -2   6   2 1163.38   44.70
  -2   6   2 1258.67   43.30
  -2   6   2 1227.98   43.90
  -2   6   2 1285.97   43.80
  -2   6   2 1180.18   44.50
  -2   6   2 1262.07   45.30
  -2   6   2 1181.68   44.60
  -2   6   2 1253.17   44.60
  -2   6   2 1267.07   46.00
  -2   6   2 1181.28   42.50
  -2   6   2 1257.97   43.50
   0  -6  -2  306.27   15.60
   0  -6  -2  318.97   15.40
   0  -6  -2  331.57   14.30
   0  -6  -2  335.67   13.50
   0  -6  -2  342.97   15.90
   0   6   2  324.87   14.80
   0   6   2  345.77   15.50
   0   6   2  326.37   15.70
   0   6   2  337.77   16.40
   0   6   2  341.47   15.80
   0   6   2  341.17   13.50
   0   6   2  333.47   14.80
   0   6   2  344.17   14.80
   0   6   2  350.56   16.60
   0   6   2  345.47   15.70
   0   6   2  318.67   13.60
  -2  -6  -2  222.28    9.40
  -2  -6  -2  220.08   13.00
  -2  -6  -2  225.38   11.70
  -2  -6  -2  222.18   13.20
  -2  -6  -2  212.48   12.20
  -2  -6  -2  195.58   13.00
   2   6   2  231.08   12.10
   2   6   2  196.28   13.40
   2   6   2  211.98   11.00
   2   6   2  225.48   11.60
   2   6   2  229.28    9.60
   2   6   2  218.58   12.10
   2   6   2  222.68   14.70
   2   6   2  226.88   15.20
  -4  -6  -2  709.63   30.60
  -4  -6  -2  745.43   31.30
  -4  -6  -2  691.53   28.30
  -4  -6  -2  731.53   29.70
  -4  -6  -2  703.53   29.80
   4   6   2  615.34   31.90
   4   6   2  720.83   28.70
   4   6   2  726.73   31.90
   4   6   2  871.71   34.10
   4   6   2  728.43   29.40
  -6  -6  -2   50.29    7.80
  -6  -6  -2   50.89    5.70
  -6  -6  -2   59.39    8.80
  -6  -6  -2   42.60    9.50
  -6  -6  -2   43.30    9.20
   6   6   2   32.10   11.10
   6   6   2   35.00    9.30
   6   6   2   54.59   10.70
   6   6   2   42.90    8.30
  -8  -6  -2  510.05   28.50
  -8  -6  -2  573.24   26.60
  -8  -6  -2  543.05   27.20
  -8  -6  -2  541.85   29.80
  -8  -6  -2  575.44   25.10
   8   6   2  571.24   31.90
   8   6   2  582.44   28.60
   8   6   2  529.25   30.40
 -10  -6  -2   -0.10   13.70
 -10  -6  -2    6.80   13.40
 -10  -6  -2   -1.30   10.30
 -10  -6  -2   29.20   12.30
  10   6   2    1.50   11.80
  10   6   2   -7.00    8.70
  10   6   2  -16.60   14.20
  10   6   2   -2.00   12.90
 -12  -6  -2   91.59   19.40
 -12  -6  -2   83.79   19.70
 -12  -6  -2   76.59   16.40
 -12  -6  -2   86.29   19.50
  12   6   2   61.19   19.10
  12   6   2  105.69   15.90
  12   6   2   96.09   21.70
  12   6   2  112.89   19.50
 -14  -6  -2   62.99   23.80
 -14  -6  -2   53.29   24.10
  14   6   2   87.59   21.30
  14   6   2   55.99   28.90
  14   6   2   92.59   24.00
  17  -7  -2  329.57   30.00
  17  -7  -2  308.07   30.60
 -17   7   2  345.37   48.60
 -17   7   2  272.77   36.20
 -17   7   2  336.37   32.30
  15  -7  -2  111.89   17.30
  15  -7  -2   72.69   18.10
  15  -7  -2   79.09   19.00
 -15   7   2  115.59   26.00
 -15   7   2  109.79   20.60
 -15   7   2   85.99   34.20
  13  -7  -2  868.21   37.40
  13  -7  -2  902.11   41.90
  13  -7  -2  884.31   43.60
 -13   7   2  779.12   54.79
 -13   7   2  892.41   49.70
 -13   7   2  877.11   42.10
  11  -7  -2  122.09   13.90
  11  -7  -2  106.89   10.20
  11  -7  -2  127.99   15.40
 -11   7   2  107.49   19.40
 -11   7   2   94.99   13.90
   9  -7  -2  993.10   39.70
   9  -7  -2  953.00   42.10
   9  -7  -2  987.90   37.40
  -9   7   2  980.50   45.70
  -9   7   2  957.30   41.70
   7  -7  -2 1281.17   51.89
   7  -7  -2 1285.87   49.20
   7  -7  -2 1280.97   51.09
   7  -7  -2 1283.27   51.19
   7  -7  -2 1354.96   47.40
  -7   7   2 1317.27   48.10
  -7   7   2 1264.77   48.40
  -7   7   2 1292.87   46.60
  -7   7   2 1362.96   54.79
  -7   7   2 1310.17   51.69
  -7   7   2 1297.37   46.20
   5  -7  -2 1073.59   39.20
   5  -7  -2 1074.59   42.60
   5  -7  -2 1036.40   42.40
   5  -7  -2 1057.79   40.60
  -5   7   2 1093.79   40.30
  -5   7   2 1122.39   43.00
  -5   7   2 1126.19   39.30
  -5   7   2 1029.40   43.30
  -5   7   2 1081.39   40.50
  -5   7   2 1088.19   39.70
  -5   7   2 1129.09   39.30
  -5   7   2 1091.19   40.70
  -5   7   2 1047.30   43.40
  -5   7   2 1061.09   45.80
  -5   7   2 1082.49   37.70
   3  -7  -2 4659.53  169.28
   3  -7  -2 4938.71  170.08
   3  -7  -2 4730.03  168.98
   3  -7  -2 4832.22  167.58
  -3   7   2 4849.11  169.78
  -3   7   2 5043.10  167.68
  -3   7   2 4850.01  168.48
  -3   7   2 4859.41  169.88
  -3   7   2 4838.62  171.18
  -3   7   2 4725.03  167.38
  -3   7   2 4956.80  168.88
  -3   7   2 4921.51  168.48
  -3   7   2 5037.20  167.28
  -3   7   2 4877.81  168.38
   1  -7  -2  399.76   15.70
   1  -7  -2  383.46   19.10
   1  -7  -2  371.86   17.80
   1  -7  -2  398.16   17.20
  -1   7   2  398.26   15.80
  -1   7   2  415.96   19.40
  -1   7   2  379.46   17.80
  -1   7   2  382.56   15.50
  -1   7   2  385.26   16.60
  -1   7   2  395.06   17.80
  -1   7   2  383.76   17.10
  -1   7   2  420.16   18.00
  -1   7   2  379.86   17.80
  -1   7   2  398.06   15.50
  -1   7   2  373.96   18.70
  -1  -7  -2 4669.33  164.78
  -1  -7  -2 4842.72  167.18
  -1  -7  -2 5095.99  165.38
  -1  -7  -2 4710.23  166.58
  -1  -7  -2 4583.14  166.48
  -1  -7  -2 5043.90  167.38
   1   7   2 4507.35  166.48
   1   7   2 4886.11  166.28
   1   7   2 4870.61  164.18
   1   7   2 4577.04  167.18
   1   7   2 4440.66  167.48
   1   7   2 4922.11  165.98
   1   7   2 4979.90  166.68
   1   7   2 4690.53  164.88
   1   7   2 4977.30  165.68
  -3  -7  -2  784.92   33.10
  -3  -7  -2  837.62   32.00
  -3  -7  -2  811.12   32.90
  -3  -7  -2  797.52   32.50
  -3  -7  -2  802.52   28.10
   3   7   2  766.02   32.90
   3   7   2  745.23   32.50
   3   7   2  800.62   30.50
   3   7   2  753.62   34.30
   3   7   2  814.22   29.50
  -5  -7  -2 2876.81  100.59
  -5  -7  -2 2792.62   98.89
  -5  -7  -2 2758.52   98.29
  -5  -7  -2 2771.72   95.69
  -5  -7  -2 2713.73   98.39
   5   7   2 2600.14   99.49
   5   7   2 2880.91   96.59
   5   7   2 2406.76   99.79
   5   7   2 2656.83   97.39
  -7  -7  -2  764.72   35.50
  -7  -7  -2  789.32   35.30
  -7  -7  -2  778.82   34.10
  -7  -7  -2  782.62   29.40
  -7  -7  -2  784.62   31.00
   7   7   2  752.02   38.50
   7   7   2  779.42   34.60
   7   7   2  743.63   36.90
  -9  -7  -2  334.97   20.70
  -9  -7  -2  337.67   22.70
  -9  -7  -2  345.37   25.00
  -9  -7  -2  357.16   26.30
   9   7   2  299.07   28.70
   9   7   2  328.87   24.20
   9   7   2  365.26   25.80
 -11  -7  -2  523.95   37.40
 -11  -7  -2  580.14   33.40
 -11  -7  -2  580.04   31.20
 -11  -7  -2  584.14   36.50
  11   7   2  618.14   39.00
  11   7   2  596.04   35.30
  11   7   2  588.04   31.10
 -13  -7  -2   86.49   21.90
 -13  -7  -2   59.59   22.60
 -13  -7  -2  117.99   20.10
  13   7   2   75.49   22.00
  13   7   2   69.19   26.30
  13   7   2   70.89   20.30
  13   7   2   77.09   18.10
 -15  -7  -2  303.77   35.40
  15   7   2  350.56   41.10
  15   7   2  292.87   35.50
  18  -8  -2    7.10   29.00
  16  -8  -2   18.30   18.30
  16  -8  -2   64.59   21.10
  16  -8  -2   64.59   22.00
 -16   8   2   61.09   36.50
 -16   8   2   57.19   27.20
 -16   8   2   45.20   22.70
  14  -8  -2   43.50   21.50
  14  -8  -2   52.09   16.00
  14  -8  -2   50.79   13.60
 -14   8   2   79.79   25.20
 -14   8   2   21.20   28.60
 -14   8   2   35.50   17.40
  12  -8  -2   30.50   13.90
  12  -8  -2   31.40    9.90
  12  -8  -2   60.29   13.50
 -12   8   2   38.20   17.10
 -12   8   2    5.50   22.60
 -12   8   2   26.00   13.30
  10  -8  -2    8.60   10.00
  10  -8  -2   -8.20    6.30
  10  -8  -2   -4.70    8.70
 -10   8   2   -4.10   14.90
 -10   8   2   -1.50   10.10
   8  -8  -2   88.09   10.40
   8  -8  -2   84.79    8.20
   8  -8  -2   72.39   11.30
  -8   8   2   80.89    5.40
  -8   8   2   72.19    7.70
  -8   8   2   76.69   15.70
  -8   8   2   90.29   12.60
  -8   8   2   63.69    8.70
   6  -8  -2  250.27   16.50
   6  -8  -2  243.48   14.50
   6  -8  -2  213.38   15.60
  -6   8   2  250.57   11.90
  -6   8   2  249.78   12.60
  -6   8   2  237.98   12.80
  -6   8   2  250.17   15.50
  -6   8   2  206.08   17.10
  -6   8   2  210.88   20.50
  -6   8   2  250.97   13.20
   4  -8  -2   21.20    6.00
   4  -8  -2   26.40    4.90
   4  -8  -2   11.90    4.80
   4  -8  -2   17.50    6.40
   4  -8  -2   15.80    6.70
  -4   8   2   15.80    4.80
  -4   8   2   15.30    7.30
  -4   8   2   15.00    7.60
  -4   8   2   22.60    4.70
  -4   8   2   20.00    5.90
  -4   8   2   17.90    3.90
  -4   8   2   13.20    4.80
  -4   8   2   10.60    5.50
   2  -8  -2   16.80    6.10
   2  -8  -2   31.70    6.50
   2  -8  -2   18.20    5.50
   2  -8  -2   22.00    4.10
  -2   8   2   37.60    6.30
  -2   8   2   15.50    3.80
  -2   8   2   25.10    6.90
  -2   8   2   30.30    6.30
  -2   8   2   24.10    6.20
  -2   8   2   27.00    6.50
  -2   8   2   18.00    4.80
  -2   8   2   23.40    4.40
  -2   8   2    1.60    4.50
  -2   8   2   35.10    5.60
   0  -8  -2   -2.10    5.10
   0  -8  -2    3.80    3.60
   0  -8  -2    6.00    5.20
   0  -8  -2    6.10    5.30
   0   8   2    3.80    2.20
   0   8   2   -3.40    4.60
   0   8   2    2.90    3.50
   0   8   2    2.20    5.90
   0   8   2    4.00    3.60
   0   8   2   -4.50    7.20
   0   8   2    3.60    6.40
   0   8   2   -7.50    5.70
   0   8   2   -3.50    1.90
   0   8   2    5.90    6.00
   0   8   2    9.50    4.90
  -2  -8  -2   44.10    7.80
  -2  -8  -2   37.30    7.80
  -2  -8  -2   44.20    4.20
  -2  -8  -2   53.89    7.00
  -2  -8  -2   47.30    7.30
   2   8   2   53.99    6.60
   2   8   2   39.70    9.00
   2   8   2   33.50    4.80
   2   8   2   37.90    8.60
   2   8   2   57.29    9.20
   2   8   2   45.10    9.20
   2   8   2   48.20    6.40
  -4  -8  -2  269.47   17.40
  -4  -8  -2  264.27   17.40
  -4  -8  -2  302.67   18.20
  -4  -8  -2  276.57   17.80
   4   8   2  270.37   14.30
   4   8   2  304.37   20.70
   4   8   2  319.47   17.10
   4   8   2  302.07   14.10
   4   8   2  280.47   21.30
  -6  -8  -2   67.19   10.60
  -6  -8  -2   68.49   10.20
  -6  -8  -2   81.09   11.20
   6   8   2   96.79   11.30
   6   8   2   63.59   13.30
   6   8   2   54.59   12.30
  -8  -8  -2   21.50   10.50
  -8  -8  -2   23.70    6.50
  -8  -8  -2   33.10    6.10
  -8  -8  -2    5.90   10.60
  -8  -8  -2   19.00   10.60
   8   8   2    3.70   10.60
   8   8   2   17.50   14.70
   8   8   2   16.80   13.40
 -10  -8  -2   15.50   13.40
 -10  -8  -2   32.50   11.20
 -10  -8  -2   18.30   13.70
 -10  -8  -2   50.99   13.90
  10   8   2   12.00   10.70
  10   8   2   18.10   13.50
  10   8   2    8.30   17.30
  10   8   2    3.40   16.20
 -12  -8  -2   -3.60   19.00
 -12  -8  -2  -12.00   16.60
 -12  -8  -2   21.10   19.00
  12   8   2   46.60   15.80
  12   8   2   12.70   21.90
  12   8   2   18.10   18.60
  12   8   2   20.50   18.10
 -14  -8  -2   51.09   23.90
 -14  -8  -2    7.70   28.20
  14   8   2   27.90   31.50
  14   8   2  -33.70   23.10
  14   8   2   42.60   22.50
  17  -9  -2   -0.40   25.30
  17  -9  -2   30.70   24.70
 -17   9   2   89.39   32.80
 -17   9   2   -4.60   41.50
  15  -9  -2  199.68   21.40
  15  -9  -2  150.38   23.00
  15  -9  -2  162.88   24.70
 -15   9   2  184.58   38.60
 -15   9   2  204.18   32.20
 -15   9   2  147.89   23.80
  13  -9  -2   69.99   19.30
  13  -9  -2   63.99   13.10
  13  -9  -2   39.30   23.90
 -13   9   2   75.79   31.70
 -13   9   2   57.19   16.60
  11  -9  -2  417.16   21.90
  11  -9  -2  435.06   25.60
  11  -9  -2  403.26   29.30
 -11   9   2  371.66   33.40
 -11   9   2  355.66   26.30
 -11   9   2  348.57   41.50
   9  -9  -2   13.90    8.10
   9  -9  -2    6.50    9.30
   9  -9  -2   12.80    6.90
  -9   9   2    7.90   10.80
  -9   9   2   14.80   14.80
  -9   9   2   29.00    4.90
   7  -9  -2  239.98   18.60
   7  -9  -2  225.48   18.20
   7  -9  -2  206.58   13.10
   7  -9  -2  208.08   14.70
  -7   9   2  182.88   18.60
  -7   9   2  198.98   13.60
  -7   9   2  213.88   21.50
  -7   9   2  216.18   10.80
  -7   9   2  226.98   13.20
   5  -9  -2  184.58   12.60
   5  -9  -2  166.88   14.40
   5  -9  -2  188.08   11.70
   5  -9  -2  174.68   14.80
  -5   9   2  172.18   18.20
  -5   9   2  167.18   11.10
  -5   9   2  166.28   12.70
  -5   9   2  170.68   10.50
  -5   9   2  172.98    9.40
  -5   9   2  172.28   11.00
  -5   9   2  153.88   16.40
   3  -9  -2  112.29    9.80
   3  -9  -2  130.49   12.20
   3  -9  -2  119.39   12.90
   3  -9  -2  120.29   11.20
  -3   9   2  119.59    9.70
  -3   9   2  124.69    8.60
  -3   9   2  125.89   11.90
  -3   9   2  117.49    9.60
  -3   9   2  143.59   11.80
  -3   9   2  124.19   10.50
  -3   9   2  108.99   11.90
  -3   9   2  121.09   13.10
   1  -9  -2   -3.70    5.60
   1  -9  -2   -1.10    5.80
   1  -9  -2    5.70    5.90
   1  -9  -2   -2.10    5.00
  -1   9   2    6.70    6.90
  -1   9   2   11.20    5.40
  -1   9   2    8.00    6.40
  -1   9   2    1.30    4.00
  -1   9   2   -0.10    4.20
  -1   9   2    5.60    3.30
  -1   9   2    1.10    6.00
  -1  -9  -2  205.78   14.90
  -1  -9  -2  205.98   14.50
  -1  -9  -2  226.18   15.10
  -1  -9  -2  200.68   11.20
   1   9   2  209.18   15.20
   1   9   2  201.28   16.90
   1   9   2  198.18   17.20
   1   9   2  213.08   16.60
   1   9   2  212.28   12.90
   1   9   2  203.88   12.20
   1   9   2  216.48   13.10
   1   9   2  206.48   11.30
  -3  -9  -2  124.69   12.40
  -3  -9  -2  126.49   13.70
  -3  -9  -2  103.09   11.00
  -3  -9  -2  151.38   12.10
   3   9   2  119.49   13.50
   3   9   2   80.59   12.80
   3   9   2  138.79   12.50
   3   9   2  115.19    9.70
   3   9   2  131.99    9.30
  -5  -9  -2   17.30    9.50
  -5  -9  -2   35.50    9.10
  -5  -9  -2   40.90    9.70
   5   9   2   28.60    6.40
   5   9   2   23.80   10.40
   5   9   2   13.80   11.80
   5   9   2   16.90    6.40
   5   9   2   29.40    8.80
  -7  -9  -2   32.60   11.50
  -7  -9  -2   16.70    9.90
  -7  -9  -2   21.00   10.80
   7   9   2   27.20   10.30
   7   9   2   18.70   13.70
   7   9   2   24.00   12.90
  -9  -9  -2  137.59   16.20
  -9  -9  -2  139.29   17.20
  -9  -9  -2  180.48   19.20
   9   9   2  156.98   17.40
   9   9   2  147.89   20.40
   9   9   2  172.28   23.10
 -11  -9  -2  -19.40   16.00
 -11  -9  -2   13.60   16.70
 -11  -9  -2   -9.30   15.40
  11   9   2   -7.00   13.00
  11   9   2    5.00   16.20
  11   9   2  -52.69   20.10
  11   9   2    0.90   18.30
 -13  -9  -2  235.38   29.00
 -13  -9  -2  227.08   27.30
  13   9   2  172.78   34.00
  13   9   2  211.08   26.90
  13   9   2  278.47   32.00
  16 -10  -2  -10.90   21.70
  16 -10  -2   -0.30   22.60
 -16  10   2   64.29   31.20
 -16  10   2   75.19   40.20
  14 -10  -2   -4.30   16.50
  14 -10  -2   -9.70   18.70
  14 -10  -2   38.00   16.20
 -14  10   2    3.20   18.90
 -14  10   2   -1.80   24.30
 -14  10   2   43.40   31.50
  12 -10  -2   96.99   13.70
  12 -10  -2  137.29   20.00
  12 -10  -2  111.49   17.40
 -12  10   2  112.09   24.30
 -12  10   2  115.39   18.20
 -12  10   2  101.79   44.20
  10 -10  -2   35.90   11.10
  10 -10  -2   24.50   12.10
  10 -10  -2   38.60    9.00
 -10  10   2   28.00   18.60
 -10  10   2    6.50   12.70
   8 -10  -2  468.65   27.80
   8 -10  -2  465.95   21.60
   8 -10  -2  481.55   24.30
  -8  10   2  440.56   31.80
  -8  10   2  454.15   17.40
  -8  10   2  402.16   26.60
  -8  10   2  437.36   20.50
   6 -10  -2    5.70    6.20
   6 -10  -2    3.90    7.50
   6 -10  -2    1.90    7.80
   6 -10  -2    3.80    7.40
  -6  10   2   13.90    6.30
  -6  10   2    3.90    9.50
  -6  10   2    7.10   12.50
  -6  10   2   -3.80    3.50
  -6  10   2    4.40    5.00
  -6  10   2   -1.60    7.20
  -6  10   2   25.50    6.20
   4 -10  -2  333.17   20.40
   4 -10  -2  335.97   17.00
   4 -10  -2  359.46   17.00
   4 -10  -2  331.27   19.80
  -4  10   2  315.87   21.60
  -4  10   2  309.87   16.70
  -4  10   2  303.27   16.00
  -4  10   2  333.67   17.80
   2 -10  -2   86.69    9.90
   2 -10  -2   93.89   10.10
   2 -10  -2  106.49   10.30
   2 -10  -2  121.79   10.30
  -2  10   2  113.19    9.80
  -2  10   2   84.99   10.40
  -2  10   2   88.09   10.10
  -2  10   2   84.19    8.60
  -2  10   2   96.89    8.90
   0 -10  -2  270.17   17.10
   0 -10  -2  265.77   16.20
   0 -10  -2  262.77   15.20
   0 -10  -2  261.77   17.40
   0  10   2  239.38   17.80
   0  10   2  253.57   11.10
   0  10   2  256.97   18.50
   0  10   2  261.07   16.20
   0  10   2  276.57   15.90
   0  10   2  260.17   13.90
   0  10   2  244.48   13.40
  -2 -10  -2  314.17   19.70
  -2 -10  -2  344.17   20.00
  -2 -10  -2  345.77   20.00
  -2 -10  -2  350.66   15.00
   2  10   2  338.67   16.20
   2  10   2  324.07   15.90
   2  10   2  313.37   21.60
   2  10   2  338.27   18.00
   2  10   2  324.27   21.60
  -4 -10  -2   12.50    9.30
  -4 -10  -2   18.20    8.10
  -4 -10  -2   29.50    9.40
   4  10   2   20.90    8.10
   4  10   2   31.30    4.80
   4  10   2   35.80   12.20
   4  10   2   22.90   11.80
   4  10   2   22.90    6.20
  -6 -10  -2  257.47   20.20
  -6 -10  -2  220.18   19.30
  -6 -10  -2  250.87   21.20
   6  10   2  246.28   18.80
   6  10   2  203.98   21.40
   6  10   2  233.38   23.20
  -8 -10  -2   16.70   11.90
  -8 -10  -2   23.70   12.30
  -8 -10  -2   34.80   12.80
   8  10   2   13.50   16.90
   8  10   2   37.90   15.20
   8  10   2   34.80   13.10
 -10 -10  -2  275.67   25.30
 -10 -10  -2  319.47   28.20
 -10 -10  -2  214.18   21.60
  10  10   2  266.67   29.00
  10  10   2  265.47   27.20
  10  10   2  321.97   29.00
 -12 -10  -2   29.80   20.00
 -12 -10  -2   12.60   20.70
  12  10   2   16.50   22.20
  12  10   2   -1.50   19.60
  12  10   2   -6.30   19.10
  12  10   2   36.80   26.10
 -14 -10  -2    8.30   26.50
  14  10   2   35.80   35.80
  14  10   2   12.30   26.20
  14  10   2   -5.60   30.30
  15 -11  -2  253.27   26.60
  15 -11  -2  225.78   28.40
 -15  11   2  293.57   38.40
 -15  11   2  223.78   43.30
  13 -11  -2  112.19   19.50
  13 -11  -2  108.39   21.60
  13 -11  -2  120.39   17.20
 -13  11   2   73.29   32.00
 -13  11   2   78.89   20.20
 -13  11   2  114.79   29.40
  11 -11  -2  460.75   26.30
  11 -11  -2  505.05   35.10
  11 -11  -2  487.35   30.00
 -11  11   2  499.05   40.30
 -11  11   2  426.46   46.30
 -11  11   2  433.46   30.60
   9 -11  -2  630.84   33.90
   9 -11  -2  613.74   28.20
   9 -11  -2  568.84   30.60
  -9  11   2  605.94   39.10
  -9  11   2  592.64   33.00
   7 -11  -2  490.35   28.70
   7 -11  -2  497.55   25.50
   7 -11  -2  482.95   23.60
  -7  11   2  512.75   24.00
  -7  11   2  480.75   33.30
  -7  11   2  501.25   28.70
  -7  11   2  490.25   18.20
  -7  11   2  508.65   20.50
  -7  11   2  451.35   23.90
  -7  11   2  498.25   18.40
   5 -11  -2 1021.50   44.40
   5 -11  -2 1073.29   44.80
   5 -11  -2 1070.99   41.20
   5 -11  -2 1046.60   41.60
  -5  11   2 1056.49   45.50
  -5  11   2 1106.09   41.30
  -5  11   2 1044.10   39.70
  -5  11   2  987.10   48.50
   3 -11  -2  706.03   31.30
   3 -11  -2  732.93   29.30
   3 -11  -2  718.83   32.30
   3 -11  -2  699.53   31.20
  -3  11   2  698.93   28.00
  -3  11   2  653.83   30.20
  -3  11   2  692.63   34.50
  -3  11   2  633.34   30.00
   1 -11  -2 1805.42   66.39
   1 -11  -2 1795.62   65.39
   1 -11  -2 1785.02   66.89
   1 -11  -2 1780.32   66.39
  -1  11   2 1740.23   66.49
  -1  11   2 1541.75   66.19
  -1  11   2 1750.92   63.59
  -1  11   2 1831.52   62.99
  -1  11   2 1772.32   63.99
  -1 -11  -2  981.80   41.30
  -1 -11  -2 1015.70   38.30
  -1 -11  -2  987.70   41.40
  -1 -11  -2  969.80   41.30
   1  11   2  947.11   42.70
   1  11   2  971.60   38.00
   1  11   2 1000.90   39.20
   1  11   2  987.90   42.80
   1  11   2  997.50   38.30
   1  11   2 1040.60   39.50
  -3 -11  -2 1266.37   51.59
  -3 -11  -2 1321.67   51.69
  -3 -11  -2 1281.67   52.29
   3  11   2 1359.16   46.20
   3  11   2 1310.97   50.39
   3  11   2 1246.58   48.20
   3  11   2 1286.07   54.39
   3  11   2 1248.68   54.79
  -5 -11  -2  521.95   29.40
  -5 -11  -2  554.04   29.90
  -5 -11  -2  544.25   28.20
   5  11   2  603.74   33.40
   5  11   2  525.85   34.00
   5  11   2  545.65   27.80
  -7 -11  -2  480.55   30.70
  -7 -11  -2  491.95   30.00
  -7 -11  -2  496.35   28.40
   7  11   2  496.95   36.10
   7  11   2  509.25   35.10
   7  11   2  500.45   28.70
  -9 -11  -2  525.65   34.50
  -9 -11  -2  523.35   35.80
  -9 -11  -2  578.44   33.50
   9  11   2  530.35   39.30
   9  11   2  554.34   35.10
   9  11   2  577.74   40.00
 -11 -11  -2  161.98   23.00
 -11 -11  -2  179.68   23.30
  11  11   2  184.18   27.50
  11  11   2  181.28   24.50
  11  11   2  135.79   27.90
 -13 -11  -2  230.38   30.30
 -13 -11  -2  291.57   32.40
  13  11   2  269.07   32.30
  13  11   2  201.08   34.00
  13  11   2  331.97   39.60
  16 -12  -2  -15.10   31.90
 -16  12   2  -10.00   43.30
  14 -12  -2   -3.40   21.70
  14 -12  -2    4.30   19.80
  14 -12  -2  -10.40   20.70
 -14  12   2   -2.00   30.80
 -14  12   2    6.80   36.60
  12 -12  -2   46.30   15.00
  12 -12  -2   66.09   17.90
  12 -12  -2   53.39   18.10
 -12  12   2   90.69   31.40
 -12  12   2   42.10   18.80
 -12  12   2   48.10   26.00
  10 -12  -2  109.69   18.30
  10 -12  -2  131.79   17.20
  10 -12  -2  108.89   13.70
 -10  12   2  141.99   19.30
 -10  12   2  131.29   29.80
 -10  12   2  118.59   24.30
   8 -12  -2   16.80    9.10
   8 -12  -2   15.00   12.00
   8 -12  -2   17.40    9.90
  -8  12   2   15.10   17.40
  -8  12   2   24.00   13.90
  -8  12   2    8.90    4.40
   6 -12  -2  242.58   17.40
   6 -12  -2  241.98   22.10
   6 -12  -2  236.08   17.10
   6 -12  -2  255.37   21.80
  -6  12   2  225.88   16.60
  -6  12   2  238.38   22.20
  -6  12   2  246.68   24.50
  -6  12   2  201.48   15.80
  -6  12   2  212.18   12.70
  -6  12   2  244.68   12.90
   4 -12  -2    3.90    8.50
   4 -12  -2    1.90    8.20
   4 -12  -2   -1.90    6.90
  -4  12   2    8.10    7.80
  -4  12   2   16.20    8.00
  -4  12   2   10.90   12.00
  -4  12   2   21.50   15.70
  -4  12   2   10.20    7.60
   2 -12  -2  151.68   15.40
   2 -12  -2  180.58   16.30
   2 -12  -2  165.98   16.80
  -2  12   2  185.68   18.80
  -2  12   2  156.18   16.90
  -2  12   2  155.58   14.30
  -2  12   2  178.08   13.50
  -2  12   2  153.08   17.30
   0 -12  -2   94.59   12.50
   0 -12  -2   81.49    9.30
   0 -12  -2  103.99   12.50
   0 -12  -2   72.29   11.00
   0  12   2   91.19    9.90
   0  12   2  102.19   11.40
   0  12   2   80.69   13.10
   0  12   2   82.19   13.00
   0  12   2   82.29    7.40
  -2 -12  -2   35.40    9.60
  -2 -12  -2   40.00   10.70
  -2 -12  -2   25.00    9.80
   2  12   2   49.80    9.40
   2  12   2   37.00   12.60
   2  12   2   20.40   11.40
   2  12   2   53.89    7.10
   2  12   2   38.50    8.30
  -4 -12  -2   88.99   12.10
  -4 -12  -2   65.59   12.20
  -4 -12  -2   76.49   12.60
   4  12   2   61.79   11.30
   4  12   2   44.40   14.10
   4  12   2   79.69   16.90
  -6 -12  -2    4.60   12.50
  -6 -12  -2   11.50   10.60
  -6 -12  -2   11.60   12.90
   6  12   2   14.00   15.10
   6  12   2   -5.90   15.30
   6  12   2  -13.10   10.90
  -8 -12  -2  132.09   17.10
  -8 -12  -2  112.99   18.60
  -8 -12  -2  107.99   20.90
   8  12   2  122.69   18.10
   8  12   2  153.78   22.90
   8  12   2  155.88   23.30
 -10 -12  -2   -5.50   17.80
 -10 -12  -2    2.50   17.50
  10  12   2  -12.60   20.80
  10  12   2   21.40   23.00
  10  12   2   -9.20   17.90
 -12 -12  -2  -14.10   21.70
 -12 -12  -2   18.00   24.30
  12  12   2   14.80   25.40
  12  12   2   16.00   28.00
  12  12   2   23.60   23.20
  15 -13  -2  -11.80   26.80
  15 -13  -2   51.79   26.50
 -15  13   2   -0.40   42.40
 -15  13   2  -23.80   34.50
  13 -13  -2  172.88   26.00
  13 -13  -2  215.78   25.20
  13 -13  -2  212.18   23.50
 -13  13   2  192.78   35.00
 -13  13   2  243.18   43.60
  11 -13  -2   80.09   16.10
  11 -13  -2   65.09   16.60
  11 -13  -2   49.30   19.90
 -11  13   2   50.89   19.20
 -11  13   2   86.39   31.40
 -11  13   2   89.49   27.30
   9 -13  -2  324.47   23.20
   9 -13  -2  297.97   28.00
   9 -13  -2  296.57   24.10
  -9  13   2  334.97   29.80
  -9  13   2  358.76   39.60
  -9  13   2  317.67   32.40
   7 -13  -2    1.60    9.90
   7 -13  -2   -4.90    9.30
   7 -13  -2    1.40   12.10
  -7  13   2    3.20   21.00
  -7  13   2   -6.40   17.20
  -7  13   2    3.50    5.20
  -7  13   2   -0.90   13.80
   5 -13  -2   35.90   11.60
   5 -13  -2   24.10    9.80
   5 -13  -2   27.50   11.60
  -5  13   2   50.59   17.20
  -5  13   2   27.80    9.60
  -5  13   2    6.70    8.80
  -5  13   2   33.70   14.10
  -5  13   2   28.10    9.00
   3 -13  -2  185.18   19.00
   3 -13  -2  217.58   16.90
   3 -13  -2  202.48   20.00
   3 -13  -2  186.48   19.30
  -3  13   2  204.48   18.30
  -3  13   2  234.78   19.20
  -3  13   2  222.68   16.60
  -3  13   2  247.98   24.20
  -3  13   2  238.38   17.20
   1 -13  -2    6.90    9.50
   1 -13  -2    5.80    9.50
   1 -13  -2   -1.60    9.20
   1 -13  -2   -1.40    7.30
  -1  13   2    9.30   10.70
  -1  13   2    1.90   11.70
  -1  13   2    9.50    9.90
  -1  13   2   -9.40    7.40
  -1  13   2    8.00    5.50
  -1 -13  -2  197.98   19.50
  -1 -13  -2  204.08   19.40
  -1 -13  -2  159.78   18.00
   1  13   2  222.98   14.50
   1  13   2  180.48   16.40
   1  13   2  181.28   18.70
   1  13   2  196.68   19.90
  -3 -13  -2    5.60   10.60
  -3 -13  -2    1.40    9.70
  -3 -13  -2    5.90   10.20
   3  13   2  -14.40   11.90
   3  13   2  -19.20    9.30
   3  13   2   25.30   14.00
  -5 -13  -2  100.59   16.50
  -5 -13  -2   68.09   13.20
  -5 -13  -2   90.89   15.30
   5  13   2   75.79   18.80
   5  13   2   87.09   14.00
   5  13   2   89.79   18.60
  -7 -13  -2  167.28   21.10
  -7 -13  -2  167.78   33.60
  -7 -13  -2  141.49   17.50
   7  13   2  165.68   24.80
   7  13   2  152.08   23.70
   7  13   2  171.08   19.40
  -9 -13  -2    4.00   17.40
  -9 -13  -2   12.00   18.20
   9  13   2   15.90   19.70
   9  13   2  -23.40   22.00
 -11 -13  -2  167.48   26.40
 -11 -13  -2  182.08   27.40
  11  13   2  205.78   28.00
  11  13   2  214.58   29.60
  11  13   2  126.59   29.30
  14 -14  -2   40.50   23.70
  14 -14  -2  -18.00   25.50
 -14  14   2  -35.50   33.70
 -14  14   2   19.40   37.60
  12 -14  -2   24.70   22.10
  12 -14  -2   11.90   19.00
  12 -14  -2  -17.70   17.90
 -12  14   2  -21.90   32.70
 -12  14   2   14.70   31.90
  10 -14  -2   27.80   17.20
  10 -14  -2    4.30   15.70
  10 -14  -2   27.40   15.60
 -10  14   2   35.70   44.80
 -10  14   2    2.50   18.50
 -10  14   2   -6.80   29.40
   8 -14  -2   -1.30   11.70
   8 -14  -2    2.80   14.80
   8 -14  -2    1.00   11.70
  -8  14   2   38.70   22.20
  -8  14   2  -12.40   16.80
  -8  14   2    4.50   23.80
   6 -14  -2  113.99   13.90
   6 -14  -2  127.69   16.90
   6 -14  -2  104.29   14.00
  -6  14   2  134.29   24.00
  -6  14   2  135.39   14.80
  -6  14   2  136.19   19.30
  -6  14   2  125.69   26.10
  -6  14   2  137.39   13.20
   4 -14  -2    1.90    9.40
   4 -14  -2    6.50   11.70
   4 -14  -2    9.20   10.70
  -4  14   2  -10.40   16.40
  -4  14   2    3.80   17.60
  -4  14   2   -9.10    9.90
  -4  14   2    3.40    9.30
  -4  14   2   -2.90   10.00
  -4  14   2    3.40   14.50
  -4  14   2  -25.20    9.20
   2 -14  -2  150.08   14.90
   2 -14  -2  172.88   16.90
   2 -14  -2  196.88   20.80
  -2  14   2  177.28   22.20
  -2  14   2  172.28   16.50
  -2  14   2  201.38   22.20
  -2  14   2  195.18   17.50
  -2  14   2  185.68   17.30
  -2  14   2  181.68   15.80
   0 -14  -2   92.89   14.20
   0 -14  -2   55.79   11.90
   0 -14  -2   68.29   13.00
   0  14   2   80.49   11.30
   0  14   2  121.59   16.20
   0  14   2  108.79    8.90
   0  14   2   97.49   15.70
   0  14   2   86.99   15.40
  -2 -14  -2  -12.40   10.00
  -2 -14  -2  -12.00   10.90
  -2 -14  -2   -1.30   11.00
   2  14   2  -22.10    9.50
   2  14   2   11.10    5.80
   2  14   2  -21.90   12.40
   2  14   2   -1.20   13.20
  -4 -14  -2  275.17   25.10
  -4 -14  -2  283.47   24.60
  -4 -14  -2  275.67   24.00
   4  14   2  285.17   23.20
   4  14   2  246.78   25.10
   4  14   2  271.07   26.10
  -6 -14  -2    9.50   14.60
  -6 -14  -2  -10.10   14.50
  -6 -14  -2    7.60   13.40
   6  14   2   -6.50   18.50
   6  14   2    1.70   17.50
   6  14   2   -8.20   13.90
  -8 -14  -2   27.60   18.90
  -8 -14  -2   34.50   19.70
   8  14   2   73.59   24.90
   8  14   2   75.29   19.30
   8  14   2   34.00   22.20
 -10 -14  -2   16.20   22.30
 -10 -14  -2   48.20   23.00
  10  14   2   -1.50   21.40
  10  14   2  -22.40   24.10
  10  14   2  -18.50   23.30
 -12 -14  -2  -42.10   31.40
  12  14   2   -8.50   29.50
  13 -15  -2   38.70   27.70
  13 -15  -2   57.29   23.90
 -13  15   2   83.89   41.90
 -13  15   2   55.39   37.10
  11 -15  -2  171.18   27.50
  11 -15  -2  203.28   23.30
  11 -15  -2  172.48   22.80
 -11  15   2  166.68   35.10
 -11  15   2  257.67   41.20
   9 -15  -2  278.07   28.50
   9 -15  -2  318.27   32.20
   9 -15  -2  319.57   26.20
  -9  15   2  301.97   28.40
  -9  15   2  325.17   39.70
   7 -15  -2  128.59   17.10
   7 -15  -2  108.09   16.30
  -7  15   2  128.99   16.90
  -7  15   2  114.59   28.60
  -7  15   2  157.38   27.50
  -7  15   2  159.18   23.00
   5 -15  -2  698.43   35.10
   5 -15  -2  704.33   38.00
  -5  15   2  664.33   33.20
  -5  15   2  687.23   46.30
  -5  15   2  671.63   35.90
  -5  15   2  703.73   44.50
  -5  15   2  701.63   33.00
  -5  15   2  647.94   40.10
  -5  15   2  682.43   33.60
   3 -15  -2  240.78   23.30
   3 -15  -2  226.38   24.60
   3 -15  -2  264.37   24.30
  -3  15   2  241.18   20.40
  -3  15   2  256.37   23.40
  -3  15   2  257.17   26.70
  -3  15   2  269.87   20.70
  -3  15   2  230.68   25.40
  -3  15   2  243.58   27.90
  -3  15   2  255.47   22.80
   1 -15  -2  527.65   31.20
   1 -15  -2  558.34   31.70
   1 -15  -2  559.64   30.30
  -1  15   2  481.45   27.40
  -1  15   2  507.95   31.80
  -1  15   2  550.84   31.80
  -1  15   2  546.35   37.10
  -1  15   2  519.15   25.20
  -1  15   2  466.95   31.80
  -1 -15  -2  281.57   23.60
  -1 -15  -2  234.38   21.20
  -1 -15  -2  269.37   24.00
   1  15   2  274.17   17.50
   1  15   2  242.08   22.80
   1  15   2  250.97   21.50
   1  15   2  258.07   27.30
  -3 -15  -2  567.64   32.00
  -3 -15  -2  590.84   34.60
  -3 -15  -2  560.04   45.00
   3  15   2  489.45   30.60
   3  15   2  513.55   39.00
   3  15   2  517.45   36.90
  -5 -15  -2  124.89   19.60
  -5 -15  -2  112.59   17.10
  -5 -15  -2  137.29   19.90
   5  15   2  146.29   25.60
   5  15   2  109.79   23.40
   5  15   2  128.49   18.20
  -7 -15  -2  519.75   38.20
  -7 -15  -2  526.95   38.50
   7  15   2  509.95   36.70
   7  15   2  435.66   44.40
   7  15   2  612.44   43.80
  -9 -15  -2   27.90   21.60
  -9 -15  -2   73.99   23.10
   9  15   2  106.19   28.30
   9  15   2   77.19   23.70
   9  15   2   49.20   25.30
 -11 -15  -2   76.09   32.80
  11  15   2   83.69   30.50
  12 -16  -2  166.78   27.70
 -12  16   2  172.68   46.80
 -12  16   2  215.58   43.00
  10 -16  -2   -0.30   18.70
  10 -16  -2  -13.50   20.70
 -10  16   2   20.70   37.10
 -10  16   2    4.10   30.60
   8 -16  -2  543.25   39.70
   8 -16  -2  484.15   35.30
   8 -16  -2  510.65   35.20
  -8  16   2  529.15   45.70
  -8  16   2  621.74   66.49
  -8  16   2  495.95   47.20
  -8  16   2  405.66   40.70
   6 -16  -2    0.70   14.40
   6 -16  -2   -2.10   16.20
  -6  16   2   34.50   24.40
  -6  16   2    8.30   14.20
  -6  16   2   -9.40   19.90
  -6  16   2    7.30   17.10
  -6  16   2   -1.10   24.50
  -6  16   2   -2.50   13.10
   4 -16  -2  318.97   28.80
  -4  16   2  222.98   21.20
  -4  16   2  271.17   29.90
  -4  16   2  219.08   20.20
  -4  16   2  280.87   31.80
  -4  16   2  238.78   23.10
  -4  16   2  241.78   24.90
  -4  16   2  229.18   27.20
   2 -16  -2   74.69   15.80
   2 -16  -2   91.19   17.20
  -2  16   2   97.09   23.00
  -2  16   2   76.39   17.00
  -2  16   2   84.79   12.90
  -2  16   2   76.29   18.60
  -2  16   2  102.59   14.10
  -2  16   2  103.49   17.60
  -2  16   2   95.19   25.20
   0 -16  -2   74.09   16.80
   0 -16  -2  103.19   16.40
   0 -16  -2  103.99   27.20
   0  16   2   97.49   18.60
   0  16   2   99.99   15.10
   0  16   2  114.59   20.40
  -2 -16  -2  122.29   18.70
  -2 -16  -2  122.69   17.50
   2  16   2  115.19   21.20
   2  16   2  103.69   16.40
   2  16   2  103.49   23.90
  -4 -16  -2   12.00   16.20
  -4 -16  -2   17.80   15.50
  -4 -16  -2   21.30   16.90
   4  16   2   11.50   19.50
   4  16   2   12.30   19.70
   4  16   2    8.50   15.60
  -6 -16  -2  271.97   26.30
  -6 -16  -2  290.27   28.20
   6  16   2  261.67   25.10
   6  16   2  331.37   33.10
   6  16   2  212.28   30.50
  -8 -16  -2   18.70   21.00
  -8 -16  -2  -30.90   18.20
   8  16   2  -33.10   24.50
   8  16   2   -0.30   22.70
   8  16   2   37.20   24.90
  10  16   2  286.27   43.50
  11 -17  -2  146.09   27.10
 -11  17   2  195.88   44.30
 -11  17   2  137.19   45.30
   9 -17  -2  -12.30   21.00
  -9  17   2    1.20   33.80
  -9  17   2  -12.10   33.90
  -9  17   2  -18.20   24.90
   7 -17  -2   40.70   19.80
  -7  17   2   75.09   23.00
  -7  17   2   31.40   30.90
  -7  17   2   82.69   27.60
  -5  17   2   51.19   24.90
  -5  17   2   81.49   27.60
  -5  17   2   57.09   29.50
  -5  17   2   79.49   19.30
  -5  17   2   72.59   16.90
  -3  17   2   49.10   23.80
  -3  17   2   55.09   22.30
  -3  17   2   12.30   16.20
  -3  17   2    4.60   25.80
  -3  17   2   25.90   14.10
  -3  17   2    5.30   16.60
   1 -17  -2  100.89   18.50
   1 -17  -2  144.99   20.90
  -1  17   2  158.48   29.70
  -1  17   2   80.69   20.00
  -1  17   2  144.89   21.30
  -1  17   2  162.88   29.50
  -1  17   2  139.59   16.90
  -1 -17  -2   60.29   18.60
  -1 -17  -2   37.20   17.70
  -1 -17  -2   40.50   16.30
   1  17   2   30.30   20.30
   1  17   2   25.30   15.30
   1  17   2   63.99   21.00
  -3 -17  -2  153.28   22.50
  -3 -17  -2  153.08   21.70
  -3 -17  -2  116.09   19.90
   3  17   2  105.29   19.20
   3  17   2  150.88   25.30
   3  17   2   81.09   23.70
  -5 -17  -2   30.00   20.90
  -5 -17  -2   32.90   20.90
   5  17   2   75.99   24.10
   5  17   2   33.40   23.40
   5  17   2   34.00   20.20
  -7 -17  -2   22.30   22.90
  -7 -17  -2    5.20   22.60
   7  17   2   -6.70   24.90
   7  17   2  -19.50   26.30
  10 -18  -2   55.69   27.50
 -10  18   2    6.80   40.60
 -10  18   2   73.69   34.00
 -10  18   2   61.79   45.80
   8 -18  -2    7.00   22.70
  -8  18   2    6.50   26.60
  -8  18   2    3.60   35.60
  -8  18   2  -96.69   36.20
  -6  18   2   33.10   39.30
  -6  18   2  121.89   33.80
  -6  18   2   75.69   23.70
  -4  18   2   35.70   18.90
  -4  18   2  -19.70   25.50
  -4  18   2   41.60   30.40
  -4  18   2   18.90   26.10
  -2  18   2   -9.50   29.00
  -2  18   2   24.30   28.40
  -2  18   2   35.20   20.30
  -2  18   2   31.90   19.50
   0 -18  -2   50.59   20.10
   0  18   2  107.19   32.60
   0  18   2   90.49   29.80
   0  18   2   78.89   33.10
   0  18   2   59.19   22.60
  -2 -18  -2   53.39   19.80
  -2 -18  -2   89.29   21.10
  -2 -18  -2   80.79   21.50
   2  18   2   34.30   25.10
   2  18   2   69.49   24.00
  -4 -18  -2   55.89   21.50
  -4 -18  -2   48.30   20.10
   4  18   2   30.80   23.50
   4  18   2   64.79   25.60
  -6 -18  -2   -2.40   22.20
  -6 -18  -2    9.70   24.00
   6  18   2  -23.80   26.20
   6  18   2   19.90   28.60
   9 -19  -2  112.49   31.80
  -9  19   2  150.18   48.10
  -7  19   2  292.37   45.70
  -3  19   2  416.36   45.10
   1 -19  -2    3.70   21.60
  -1  19   2    5.20   23.10
  -1  19   2   28.40   23.20
  -1  19   2   46.20   33.60
  -1 -19  -2  582.14   45.70
   1  19   2  573.94   47.20
   1  19   2  634.34   61.89
   1  19   2  533.15   49.20
  -3 -19  -2   15.50   25.10
  -3 -19  -2   38.50   23.50
   3  19   2    0.70   26.00
   3  19   2   41.00   26.70
  -5 -19  -2  231.78   33.20
  -5 -19  -2  250.67   33.50
   5  19   2  264.77   35.40
   5  19   2  139.29   34.50
   0 -20  -2   73.59   26.70
   0  20   2   37.50   28.30
   0  20   2   32.40   29.70
   0  20   2  101.49   43.30
  -2 -20  -2   37.40   27.80
   2  20   2   28.90   29.10
   2  20   2   56.19   30.50
   2  20   2   24.40   43.10
  -4 -20  -2  258.67   40.80
   4  20   2  221.28   37.90
   6  20  -3  -32.50   46.40
  -6 -20   3   91.19   30.50
   4  20  -3   75.69   32.10
   4  20  -3   27.20   32.50
  -4 -20   3   74.39   32.90
  -4 -20   3    0.00   27.30
   2  20  -3   -5.10   31.50
   2  20  -3   -1.90   29.40
   2  20  -3   57.59   30.40
  -2 -20   3  -14.90   27.80
  -2 -20   3    9.00   25.10
   0  20  -3    6.90   32.20
   0  20  -3   -8.80   32.20
   0 -20   3    1.00   29.60
  -2  20  -3  114.59   36.50
  -2  20  -3   48.50   44.40
   2 -20   3    4.90   32.80
   7  19  -3   23.60   29.50
   7  19  -3   52.69   29.00
  -7 -19   3   14.70   24.50
  -7 -19   3   69.29   26.40
   5  19  -3  -12.00   25.90
   5  19  -3    2.70   28.80
   5  19  -3   52.59   26.50
  -5 -19   3   18.70   25.10
  -5 -19   3  -10.00   23.50
   3  19  -3   82.39   26.40
   3  19  -3   12.70   25.80
   3  19  -3   52.99   28.70
  -3 -19   3   52.79   24.70
  -3 -19   3   40.80   23.50
   1  19  -3   43.20   29.50
   1  19  -3   77.59   27.90
  -1 -19   3   17.00   22.40
  -1 -19   3   46.10   24.70
  -1  19  -3   69.69   28.30
  -1  19  -3   37.70   27.80
   1 -19   3   22.30   24.10
   1 -19   3   50.19   25.80
  -3  19  -3   49.99   31.70
  -3  19  -3   30.10   31.90
   3 -19   3    9.20   29.30
   3 -19   3  -20.20   25.70
  10  18  -3  115.39   49.70
  10  18  -3  -21.20   30.10
 -10 -18   3   24.60   29.00
 -10 -18   3  -15.80   30.30
   8  18  -3  208.88   33.40
   8  18  -3  200.98   32.10
  -8 -18   3  262.47   29.10
  -8 -18   3  216.98   30.40
   6  18  -3   42.00   25.30
   6  18  -3   39.00   25.10
   6  18  -3   36.20   27.80
  -6 -18   3   52.69   21.80
  -6 -18   3   76.49   21.30
   4  18  -3  102.59   26.40
   4  18  -3  124.59   27.50
   4  18  -3   80.69   24.60
  -4 -18   3  143.99   23.40
  -4 -18   3   76.59   22.90
   2  18  -3  171.98   27.90
   2  18  -3  205.48   29.50
  -2 -18   3  131.29   23.00
  -2 -18   3  191.08   26.40
   0  18  -3   61.99   26.60
   0  18  -3   32.30   25.60
   0 -18   3   41.30   21.20
   0 -18   3    6.40   20.40
   0 -18   3   12.70   19.20
  -2  18  -3  284.67   34.50
  -2  18  -3  377.36   43.90
  -2  18  -3  279.57   34.90
   2 -18   3  290.87   31.20
   2 -18   3  303.67   30.40
  -4  18  -3   54.79   34.40
  -4  18  -3   13.90   28.30
  -4  18  -3   -2.50   27.60
   4 -18   3   12.70   26.60
   4 -18   3   -4.50   22.80
  -6  18  -3  206.48   44.40
  -6  18  -3  201.08   44.60
  11  17  -3   42.00   31.70
  11  17  -3    6.80   26.90
 -11 -17   3   58.19   26.20
 -11 -17   3   41.90   26.30
   9  17  -3   -0.70   23.30
   9  17  -3   44.10   25.10
  -9 -17   3    8.90   22.90
  -9 -17   3    5.30   19.60
   7  17  -3    9.00   23.20
   7  17  -3  -47.00   22.70
   7  17  -3   -4.70   23.40
  -7 -17   3   48.30   20.80
  -7 -17   3   19.80   18.70
   5  17  -3   -7.00   20.90
   5  17  -3   -8.90   21.80
   5  17  -3   26.70   21.20
  -5 -17   3   35.70   19.70
  -5 -17   3   13.30   17.60
   3  17  -3   50.79   21.50
   3  17  -3   48.10   25.70
  -3 -17   3   36.90   19.50
   1  17  -3   16.30   21.80
   1  17  -3   35.30   21.60
  -1 -17   3   -2.70   18.60
  -1 -17   3   30.20   18.20
  -1 -17   3  -13.10   15.30
  -1  17  -3   31.80   21.90
  -1  17  -3  -13.70   22.40
  -1  17  -3   22.70   23.00
   1 -17   3   -9.90   18.90
   1 -17   3   -1.40   17.50
   1 -17   3   13.80   16.40
  -3  17  -3   18.70   23.30
  -3  17  -3    9.10   26.70
  -3  17  -3  -11.90   23.30
   3 -17   3   10.40   19.10
   3 -17   3   21.10   21.30
  -5  17  -3   32.30   32.40
  -5  17  -3   24.40   25.30
   5 -17   3  -51.79   23.90
   5 -17   3   -8.00   19.00
  -7  17  -3   52.09   32.40
  -7  17  -3   -4.20   37.30
   7 -17   3   54.49   26.50
  12  16  -3   -8.80   26.80
  12  16  -3    1.50   29.40
 -12 -16   3   -9.70   21.60
 -12 -16   3    9.70   24.30
  10  16  -3   15.00   23.30
  10  16  -3  -17.40   23.60
  10  16  -3   -6.70   28.70
 -10 -16   3   42.70   19.80
 -10 -16   3   15.20   22.10
   8  16  -3   38.20   22.40
   8  16  -3   14.80   22.10
   8  16  -3   25.60   23.00
  -8 -16   3   19.30   18.80
  -8 -16   3   19.50   16.70
  -8 -16   3    4.70   16.50
   6  16  -3    8.50   20.30
   6  16  -3   15.10   19.70
   6  16  -3   12.40   20.20
  -6 -16   3    5.20   13.20
  -6 -16   3   -1.70   16.50
  -6 -16   3   28.10   16.80
   4  16  -3    7.20   17.40
   4  16  -3   31.90   20.30
  -4 -16   3   35.00   17.30
  -4 -16   3   -3.30   13.30
   2  16  -3  125.69   22.90
   2  16  -3  113.39   22.00
   2  16  -3  160.68   19.20
  -2 -16   3  112.29   18.80
  -2 -16   3  104.69   20.00
  -2 -16   3  134.49   17.20
   0  16  -3   -5.50   18.50
   0  16  -3   20.90   18.70
   0  16  -3   -1.50   18.80
   0 -16   3   15.30   16.30
   0 -16   3    2.10   12.30
   0 -16   3   13.90   16.10
  -2  16  -3  100.89   25.40
  -2  16  -3  115.89   24.10
  -2  16  -3  155.28   24.60
   2 -16   3  161.28   22.40
   2 -16   3  105.19   18.90
   2 -16   3  117.09   15.80
  -4  16  -3   47.60   23.30
  -4  16  -3   19.10   25.90
   4 -16   3   21.50   16.50
   4 -16   3   55.29   21.10
  -6  16  -3  110.79   28.80
  -6  16  -3  144.59   35.70
   6 -16   3  143.19   23.80
   6 -16   3   97.69   25.70
  -8  16  -3   14.70   31.60
  -8  16  -3   37.60   36.90
   8 -16   3  -12.90   23.60
   8 -16   3   40.60   26.20
  13  15  -3  -10.40   25.90
  13  15  -3   50.59   29.10
 -13 -15   3   -8.00   24.90
 -13 -15   3  -41.80   21.90
  11  15  -3  -17.10   22.90
  11  15  -3    6.50   22.70
  11  15  -3   20.60   24.20
 -11 -15   3    5.20   21.90
 -11 -15   3   -3.70   18.70
 -11 -15   3    4.50   20.70
   9  15  -3  206.98   26.80
   9  15  -3  239.88   26.80
   9  15  -3  220.78   26.80
  -9 -15   3  205.18   24.70
  -9 -15   3  185.58   19.90
  -9 -15   3  206.58   23.80
   7  15  -3  102.49   21.90
   7  15  -3  120.79   23.00
   7  15  -3   74.59   20.70
  -7 -15   3  117.19   20.00
  -7 -15   3  135.69   18.50
  -7 -15   3   92.29   14.60
   5  15  -3  273.57   26.70
   5  15  -3  274.57   28.40
  -5 -15   3  268.77   25.30
  -5 -15   3  264.97   20.70
   3  15  -3  117.69   15.90
   3  15  -3  137.19   21.00
   3  15  -3   94.39   20.60
  -3 -15   3  136.69   19.60
  -3 -15   3  138.49   16.00
   1  15  -3  396.36   30.80
   1  15  -3  369.66   34.10
   1  15  -3  394.26   29.40
  -1 -15   3  403.06   28.90
  -1 -15   3  411.86   24.80
  -1 -15   3  409.36   30.10
  -1  15  -3   -2.30   18.60
  -1  15  -3   30.20   17.60
  -1  15  -3   19.50   17.80
   1 -15   3   -5.50   15.10
   1 -15   3   -0.30   10.70
   1 -15   3   13.50   15.10
  -3  15  -3   94.19   22.00
  -3  15  -3  137.49   25.90
   3 -15   3   96.59   19.10
   3 -15   3  127.69   18.90
  -5  15  -3   78.49   25.10
  -5  15  -3   95.49   28.70
   5 -15   3   73.99   20.10
   5 -15   3   70.29   19.30
  -7  15  -3   40.20   26.30
  -7  15  -3  104.79   35.40
   7 -15   3   17.50   19.60
   7 -15   3   53.19   24.30
   7 -15   3   33.30   20.10
  -9  15  -3  244.48   44.50
  -9  15  -3  143.19   34.70
   9 -15   3   88.69   26.80
   9 -15   3  238.78   30.40
  14  14  -3  177.88   35.60
  14  14  -3  126.49   27.90
 -14 -14   3  103.09   26.90
 -14 -14   3  132.09   26.00
  12  14  -3   48.20   22.70
  12  14  -3   14.90   21.70
  12  14  -3   30.50   24.90
 -12 -14   3   -6.60   20.50
 -12 -14   3  -21.40   21.40
 -12 -14   3    2.60   18.90
  10  14  -3  278.17   28.80
  10  14  -3  313.27   31.90
  10  14  -3  313.67   31.30
 -10 -14   3  304.07   23.70
 -10 -14   3  339.87   28.20
 -10 -14   3  268.27   25.00
   8  14  -3   23.90   17.00
   8  14  -3    9.70   17.80
  -8 -14   3   -5.60   11.20
   6  14  -3  252.07   25.50
   6  14  -3  287.67   29.70
  -6 -14   3  224.58   22.50
  -6 -14   3  213.88   19.20
  -6 -14   3  245.88   19.10
   4  14  -3  104.19   19.00
   4  14  -3  119.19   12.30
   4  14  -3  115.09   18.40
  -4 -14   3   72.39   15.00
  -4 -14   3  114.19   10.80
  -4 -14   3   88.09   13.20
   2  14  -3   18.10   12.70
   2  14  -3    4.90   15.30
   2  14  -3   12.20   14.70
  -2 -14   3   12.20   12.00
  -2 -14   3   16.60   10.20
  -2 -14   3   -4.60   11.90
   0  14  -3  411.36   29.80
   0  14  -3  421.46   29.00
   0  14  -3  443.96   32.60
   0 -14   3  400.16   27.20
   0 -14   3  446.36   23.70
   0 -14   3  359.66   26.40
  -2  14  -3   31.20   16.00
  -2  14  -3   22.20   17.60
   2 -14   3    8.90   12.00
   2 -14   3    3.50    9.10
   2 -14   3  -10.40   12.80
  -4  14  -3  290.17   29.50
  -4  14  -3  286.07   30.90
  -4  14  -3  278.97   32.20
   4 -14   3  294.87   27.40
   4 -14   3  336.97   28.00
  -6  14  -3   -1.40   18.80
  -6  14  -3    6.10   26.90
  -6  14  -3   -5.00   20.00
   6 -14   3  -12.80   16.60
   6 -14   3   10.10   17.40
   6 -14   3    5.00   16.80
  -8  14  -3  201.78   39.40
  -8  14  -3  203.68   30.10
   8 -14   3  219.68   26.40
   8 -14   3  192.38   23.90
 -10  14  -3   49.70   42.70
 -10  14  -3   26.60   33.10
  10 -14   3   11.40   22.90
  10 -14   3   -8.30   25.40
  15  13  -3  -47.40   28.80
  15  13  -3   -4.30   26.80
 -15 -13   3    7.80   25.60
 -15 -13   3   17.60   23.90
  13  13  -3   14.50   23.70
  13  13  -3   41.40   25.00
 -13 -13   3   44.20   20.10
 -13 -13   3   16.50   19.10
 -13 -13   3   31.30   20.50
  11  13  -3    5.90   19.10
  11  13  -3    4.60   19.80
  11  13  -3    9.00   18.70
 -11 -13   3    0.90   16.30
 -11 -13   3   21.20   14.60
 -11 -13   3   -8.10   15.10
   9  13  -3   66.49   18.50
   9  13  -3  127.69   32.00
   9  13  -3   85.69   18.70
  -9 -13   3   86.99   13.60
  -9 -13   3   87.59   17.40
  -9 -13   3   78.89   17.50
   7  13  -3    7.40   15.70
   7  13  -3  -22.30   14.00
  -7 -13   3    6.00   11.40
  -7 -13   3    5.80   12.80
  -7 -13   3   -3.70    8.50
   5  13  -3  -10.50   14.10
   5  13  -3   25.10   14.70
  -5 -13   3    4.70   10.10
  -5 -13   3   -0.10    7.40
  -5 -13   3   10.50   12.20
   3  13  -3    8.20   12.10
   3  13  -3   14.20   13.00
   3  13  -3   13.90   10.90
  -3 -13   3    4.50   11.60
  -3 -13   3   -0.90   10.00
  -3 -13   3    1.30    8.60
   1  13  -3   20.90   14.10
   1  13  -3   10.20   12.50
   1  13  -3   21.60   12.50
  -1 -13   3   20.20    8.80
  -1 -13   3   11.70   10.30
  -1 -13   3   27.50   12.30
  -1  13  -3    1.20   13.90
  -1  13  -3  -10.40   13.60
   1 -13   3    1.50   11.40
   1 -13   3   -3.10    7.40
   1 -13   3   14.40   10.90
  -3  13  -3   15.00   10.80
  -3  13  -3    8.70   15.10
  -3  13  -3   10.10   17.00
   3 -13   3   12.40   11.50
   3 -13   3    7.60   12.70
  -5  13  -3  -11.10   21.40
  -5  13  -3   -8.90   13.10
   5 -13   3   -6.70   13.00
  -7  13  -3   -2.70   26.90
  -7  13  -3    9.40   19.10
  -7  13  -3   -4.80   20.20
   7 -13   3    1.60   15.80
   7 -13   3   -4.90   14.90
   7 -13   3   -6.90   16.40
  -9  13  -3   50.89   27.70
  -9  13  -3   58.59   33.70
  -9  13  -3   21.90   27.30
   9 -13   3   15.50   18.20
   9 -13   3   20.30   19.70
 -11  13  -3   15.90   51.49
 -11  13  -3  -17.10   43.50
  11 -13   3   29.60   24.40
  11 -13   3    3.80   25.20
  16  12  -3   21.30   34.00
  16  12  -3   30.70   32.00
 -16 -12   3    1.90   25.30
 -16 -12   3   43.40   26.80
  14  12  -3  132.89   26.30
  14  12  -3  130.99   27.60
 -14 -12   3  151.28   22.60
 -14 -12   3  103.89   23.40
  12  12  -3   56.79   20.00
  12  12  -3   31.90   18.80
  12  12  -3   50.99   20.90
 -12 -12   3   38.10   16.70
 -12 -12   3   26.10   15.30
 -12 -12   3   20.50   25.40
  10  12  -3   27.90   16.10
  10  12  -3   18.00   17.60
  10  12  -3   38.20   16.80
 -10 -12   3   38.90   15.30
 -10 -12   3   16.70   13.20
 -10 -12   3   20.60   11.40
   8  12  -3   50.09   15.30
   8  12  -3   50.19   14.90
   8  12  -3   40.30   16.40
  -8 -12   3   47.40   14.30
  -8 -12   3   59.59   10.30
  -8 -12   3   56.49   13.00
   6  12  -3   46.60   14.50
   6  12  -3   57.79   14.30
  -6 -12   3   36.80   11.90
  -6 -12   3   48.30   10.80
  -6 -12   3   58.79    8.40
   4  12  -3   13.30   12.10
   4  12  -3   34.00   12.80
   4  12  -3   19.70    6.20
   4  12  -3   12.00   13.90
   4  12  -3   39.50    8.70
  -4 -12   3   38.90   11.30
  -4 -12   3   39.90    9.50
  -4 -12   3   22.60    6.00
   2  12  -3  106.59   16.00
   2  12  -3  147.09   17.10
   2  12  -3  142.39   15.20
   2  12  -3   90.69   10.80
   2  12  -3  128.59   11.40
  -2 -12   3  125.69   13.00
  -2 -12   3  117.69   14.60
  -2 -12   3  144.39   14.20
   0  12  -3  181.68   18.80
   0  12  -3  185.48   19.90
   0  12  -3  144.49   11.60
   0 -12   3  165.28   15.50
   0 -12   3  205.08   18.80
   0 -12   3  158.98   14.00
  -2  12  -3  127.29   10.20
  -2  12  -3  158.98   20.10
  -2  12  -3  119.69   18.80
   2 -12   3  142.99   15.40
   2 -12   3  120.39   12.40
   2 -12   3  143.59   14.80
  -4  12  -3  434.06   34.80
  -4  12  -3  441.46   24.40
  -4  12  -3  357.96   30.10
   4 -12   3  403.86   25.60
   4 -12   3  366.96   26.40
   4 -12   3  399.36   26.40
  -6  12  -3  115.39   26.10
  -6  12  -3  129.89   18.70
   6 -12   3  109.69   18.90
   6 -12   3  104.29   23.70
   6 -12   3  119.19   15.60
  -8  12  -3  185.88   34.30
  -8  12  -3  152.78   24.50
  -8  12  -3  145.79   27.00
   8 -12   3  150.48   19.90
   8 -12   3  161.18   19.70
   8 -12   3  123.59   20.30
 -10  12  -3   36.30   35.70
 -10  12  -3  -24.90   26.20
 -10  12  -3   31.70   28.20
  10 -12   3   21.10   20.20
  10 -12   3   14.30   19.40
 -12  12  -3   83.89   38.00
  17  11  -3    2.90   34.70
 -17 -11   3   28.20   29.00
  15  11  -3   51.29   25.50
  15  11  -3   55.49   23.40
 -15 -11   3   16.30   20.50
 -15 -11   3   10.50   22.10
  13  11  -3   23.10   20.60
  13  11  -3   -9.60   19.90
 -13 -11   3   32.90   16.30
 -13 -11   3   36.20   15.60
 -13 -11   3   44.30   17.40
  11  11  -3  115.49   13.20
  11  11  -3  138.39   19.90
  11  11  -3  140.59   21.40
  11  11  -3  167.38   22.40
 -11 -11   3  171.68   18.60
 -11 -11   3  133.79   15.50
 -11 -11   3  157.38   18.90
   9  11  -3    9.10   14.70
   9  11  -3   31.80   14.80
   9  11  -3   30.40   14.10
  -9 -11   3   23.20    9.50
  -9 -11   3   19.30   11.80
  -9 -11   3   39.80   13.00
   7  11  -3  785.82   39.30
   7  11  -3  779.82   37.80
  -7 -11   3  754.42   32.20
  -7 -11   3  771.22   35.10
  -7 -11   3  800.32   37.10
   5  11  -3  179.08   12.20
   5  11  -3  162.88   17.30
   5  11  -3  190.08   19.70
  -5 -11   3  167.08   16.50
  -5 -11   3  187.88   17.30
   3  11  -3 1185.48   43.80
   3  11  -3 1094.19   49.80
   3  11  -3 1138.79   46.00
   3  11  -3 1262.57   46.10
   3  11  -3 1117.09   48.70
  -3 -11   3 1126.09   45.60
  -3 -11   3 1167.48   47.10
  -3 -11   3 1177.28   48.10
  -3 -11   3 1170.38   41.90
   1  11  -3  185.68   15.70
   1  11  -3  156.38   17.60
   1  11  -3  178.88   18.20
   1  11  -3  179.78   17.70
   1  11  -3  207.68    9.70
  -1 -11   3  197.98   13.70
  -1 -11   3  182.58   16.90
  -1 -11   3  185.68   15.60
  -1  11  -3  638.24   24.30
  -1  11  -3  625.04   33.10
  -1  11  -3  604.84   23.40
  -1  11  -3  578.04   27.60
  -1  11  -3  592.64   31.80
   1 -11   3  612.54   29.60
   1 -11   3  654.53   30.30
   1 -11   3  645.14   26.20
  -3  11  -3   66.29   17.60
  -3  11  -3   59.09   10.10
  -3  11  -3   53.09    7.20
  -3  11  -3   60.49   15.00
  -3  11  -3   76.19    8.70
   3 -11   3   56.39    5.50
   3 -11   3   42.50   10.90
   3 -11   3   70.99   11.80
   3 -11   3   62.29   11.40
  -5  11  -3  172.48   17.30
  -5  11  -3  161.38   21.60
  -5  11  -3  176.88   26.40
   5 -11   3  185.38   17.70
   5 -11   3  140.69   16.40
   5 -11   3  165.28   15.70
  -7  11  -3  168.48   21.20
  -7  11  -3  152.48   32.50
   7 -11   3  162.48   28.10
   7 -11   3  153.88   16.30
   7 -11   3  146.59   18.80
  -9  11  -3   -7.40   21.40
  -9  11  -3   21.40   22.80
  -9  11  -3   37.90   30.20
   9 -11   3   36.20   17.20
   9 -11   3   18.80   17.40
 -11  11  -3  344.57   38.40
 -11  11  -3  426.36   48.60
 -11  11  -3  319.17   40.10
  11 -11   3  303.47   29.30
  11 -11   3  288.87   28.80
  16  10  -3   84.29   27.20
  16  10  -3   97.89   28.80
 -16 -10   3   72.09   25.30
 -16 -10   3   93.99   21.90
  14  10  -3   13.70   20.10
  14  10  -3    1.40   20.80
 -14 -10   3   -1.10   16.30
 -14 -10   3   -3.60   17.50
 -14 -10   3   -3.40   15.20
  12  10  -3  143.09   19.60
  12  10  -3   97.39   23.10
  12  10  -3  107.69   19.20
  12  10  -3  100.19   11.80
 -12 -10   3   88.89   13.50
 -12 -10   3  100.29   16.00
 -12 -10   3   90.19   15.20
 -12 -10   3  101.79   17.10
  10  10  -3   -4.20   12.70
  10  10  -3    5.70   13.80
  10  10  -3   24.80   15.10
 -10 -10   3   23.80   11.30
 -10 -10   3   -1.80    9.70
 -10 -10   3    5.80   10.60
   8  10  -3   99.89   15.10
   8  10  -3  124.69   16.90
  -8 -10   3  101.69   13.10
  -8 -10   3  114.09   13.40
  -8 -10   3  137.29   11.60
   6  10  -3   16.10   10.90
   6  10  -3    9.60   10.60
  -6 -10   3    0.40    8.20
  -6 -10   3   13.20    5.70
  -6 -10   3   17.10    7.30
  -6 -10   3    5.80    8.50
   4  10  -3   47.00   11.80
   4  10  -3   25.10   10.10
   4  10  -3   39.00   10.60
   4  10  -3   46.30    8.40
   4  10  -3   37.70    5.00
  -4 -10   3   36.10    4.30
  -4 -10   3   69.89   11.20
  -4 -10   3   22.80    7.60
  -4 -10   3   33.10    9.50
  -4 -10   3   37.20    7.60
   2  10  -3  178.68   17.20
   2  10  -3  193.18   13.00
   2  10  -3  180.88   16.50
   2  10  -3  239.58   13.80
   2  10  -3  170.08   18.60
  -2 -10   3  176.08   18.40
  -2 -10   3  185.08   14.90
  -2 -10   3  181.38   14.30
  -2 -10   3  173.98   13.10
   0  10  -3   10.10   10.00
   0  10  -3   38.70    8.40
   0  10  -3   22.60    5.70
   0  10  -3   27.80   10.70
   0 -10   3   24.40    6.20
   0 -10   3   26.10    8.50
   0 -10   3   23.20    8.10
  -2  10  -3  183.58   18.60
  -2  10  -3  216.98   11.90
  -2  10  -3  209.88   12.50
  -2  10  -3  174.98   14.50
  -2  10  -3  201.88   20.10
   2 -10   3  225.98   16.80
   2 -10   3  225.08   17.20
   2 -10   3  218.38   17.50
   2 -10   3  212.58   11.00
  -4  10  -3  -12.40   14.10
  -4  10  -3   12.30    9.50
  -4  10  -3   17.20   12.40
  -4  10  -3   10.00    6.70
  -4  10  -3    4.60    6.80
   4 -10   3    1.50    8.00
   4 -10   3   -7.40    8.60
   4 -10   3  -25.00   16.30
   4 -10   3    5.20    8.50
  -6  10  -3  228.38   23.50
  -6  10  -3  284.97   32.60
  -6  10  -3  254.47   25.20
   6 -10   3  246.78   21.50
   6 -10   3  240.68   19.10
   6 -10   3  237.28   21.00
  -8  10  -3    7.70   17.80
  -8  10  -3   -8.10   18.00
  -8  10  -3   32.70   31.40
   8 -10   3   32.60   12.00
   8 -10   3    9.40   13.20
 -10  10  -3  100.79   34.90
 -10  10  -3  113.19   27.50
 -10  10  -3   96.99   27.10
  10 -10   3   81.29   18.70
  10 -10   3   90.79   20.10
 -12  10  -3   50.29   31.80
 -12  10  -3   45.60   34.90
 -12  10  -3  -21.80   30.40
  12 -10   3   19.10   22.30
  12 -10   3   22.40   21.00
  17   9  -3   54.59   25.10
  17   9  -3   95.99   30.50
 -17  -9   3   82.89   23.40
 -17  -9   3   77.29   26.20
  15   9  -3  -11.30   21.50
  15   9  -3   -1.80   20.70
 -15  -9   3    0.20   19.10
 -15  -9   3   30.10   17.60
 -15  -9   3  -13.50   19.70
  13   9  -3   88.09   11.20
  13   9  -3   85.09   20.20
  13   9  -3   78.79   22.10
 -13  -9   3  112.59   16.30
 -13  -9   3  127.09   16.80
 -13  -9   3   80.09   15.90
  11   9  -3   25.00   14.60
  11   9  -3   -2.20   12.60
  11   9  -3   28.20    9.20
  11   9  -3   -9.70   13.30
 -11  -9   3   13.00   11.60
 -11  -9   3   33.30   11.40
 -11  -9   3   -0.50    9.90
 -11  -9   3    7.80    9.10
   9   9  -3    3.50   11.50
   9   9  -3    6.90   11.80
   9   9  -3    8.30   11.10
  -9  -9   3   11.30    9.10
  -9  -9   3    2.60    8.60
  -9  -9   3    0.40    4.30
  -9  -9   3   11.20    4.70
  -9  -9   3    1.00    7.50
   7   9  -3  216.68   20.70
   7   9  -3  201.58   18.70
  -7  -9   3  238.08   17.30
  -7  -9   3  219.48   16.90
  -7  -9   3  183.28   13.80
  -7  -9   3  221.38   12.10
   5   9  -3   -6.30    9.40
   5   9  -3    7.00    5.80
   5   9  -3   -0.40    9.10
   5   9  -3   12.60    9.70
  -5  -9   3    2.10    6.80
  -5  -9   3   14.20    7.50
  -5  -9   3    6.70    7.40
  -5  -9   3   12.30    3.80
   3   9  -3  292.97   21.00
   3   9  -3  275.57   22.40
   3   9  -3  357.26   18.00
   3   9  -3  290.17   20.60
   3   9  -3  316.87   14.80
  -3  -9   3  328.27   18.40
  -3  -9   3  304.07   16.80
  -3  -9   3  299.87   17.70
  -3  -9   3  293.67   16.80
  -3  -9   3  317.37   12.60
   1   9  -3   94.79   10.10
   1   9  -3   72.69   12.20
   1   9  -3   65.69   12.00
   1   9  -3   72.19    6.10
   1   9  -3   75.39    8.70
  -1  -9   3   66.19    7.40
  -1  -9   3   56.79    8.70
  -1  -9   3   60.89   12.30
  -1  -9   3   59.19    8.60
  -1   9  -3   62.09    5.90
  -1   9  -3   52.89    6.00
  -1   9  -3   48.40   11.60
  -1   9  -3   60.49    8.10
  -1   9  -3   63.09   13.10
   1  -9   3   54.59    5.80
   1  -9   3   46.00    8.70
   1  -9   3   54.19    8.70
  -3   9  -3   34.10    6.00
  -3   9  -3   12.30   12.70
  -3   9  -3   12.00   10.10
  -3   9  -3   12.70    6.90
  -3   9  -3   26.30    8.60
   3  -9   3   30.60   11.00
   3  -9   3   25.50    8.10
   3  -9   3   21.20    3.00
   3  -9   3   13.70    7.90
   3  -9   3   23.10    8.00
  -5   9  -3   14.90    4.90
  -5   9  -3   15.60   13.10
  -5   9  -3    8.20   10.50
  -5   9  -3    6.90    7.50
  -5   9  -3   12.10   15.60
   5  -9   3   21.80    9.70
   5  -9   3    9.60    9.00
   5  -9   3   13.90    7.80
  -7   9  -3   61.09   21.70
  -7   9  -3   55.09   15.80
  -7   9  -3   86.49   19.80
   7  -9   3   68.19   13.40
   7  -9   3   78.89   13.20
   7  -9   3   80.19   11.60
  -9   9  -3   23.10   20.90
  -9   9  -3   48.60   25.40
  -9   9  -3   19.70   20.10
   9  -9   3   46.10   12.60
   9  -9   3   49.60   15.60
 -11   9  -3   59.29   27.40
 -11   9  -3   42.90   25.50
 -11   9  -3   57.39   32.90
  11  -9   3   72.09   20.00
  11  -9   3   38.60   17.90
 -13   9  -3   54.59   41.70
 -13   9  -3   72.39   36.40
 -13   9  -3   46.80   33.50
  13  -9   3  -15.60   21.70
  13  -9   3  -12.70   23.50
  18   8  -3   -3.90   30.30
  18   8  -3   48.60   30.50
 -18  -8   3  -33.60   28.40
 -18  -8   3  -23.10   24.00
  16   8  -3   93.79   24.10
  16   8  -3   45.40   22.70
 -16  -8   3   58.09   24.50
 -16  -8   3   40.60   21.60
 -16  -8   3   43.70   19.40
  14   8  -3  200.18   23.30
  14   8  -3  150.38   21.90
 -14  -8   3  183.28   21.20
 -14  -8   3  213.38   20.80
 -14  -8   3  167.48   21.50
  12   8  -3  186.68   19.90
  12   8  -3  199.78   20.70
  12   8  -3  152.38   19.80
  12   8  -3  161.18   16.40
 -12  -8   3  172.18   13.70
 -12  -8   3  150.88   16.80
 -12  -8   3  155.88   15.50
 -12  -8   3  154.78   17.10
 -12  -8   3  153.98   15.20
  10   8  -3  169.48   17.70
  10   8  -3  154.28   17.10
  10   8  -3  177.68   18.40
 -10  -8   3  193.48   17.30
 -10  -8   3  166.48   15.80
 -10  -8   3  168.78   14.30
 -10  -8   3  218.58   12.10
 -10  -8   3  182.98   17.20
   8   8  -3  219.68   18.70
   8   8  -3  204.98   19.00
  -8  -8   3  236.38   12.70
  -8  -8   3  210.98   10.80
  -8  -8   3  222.78   17.00
  -8  -8   3  217.48   16.60
  -8  -8   3  222.88   14.90
   6   8  -3  372.36   23.00
   6   8  -3  439.46   24.10
   6   8  -3  386.06   23.40
  -6  -8   3  420.56   18.60
  -6  -8   3  381.16   20.50
  -6  -8   3  384.56   17.40
  -6  -8   3  402.86   21.00
   4   8  -3   69.09   10.80
   4   8  -3   69.29    9.10
   4   8  -3   72.09   12.00
   4   8  -3   95.49   10.30
   4   8  -3   59.59    6.10
  -4  -8   3   66.59    8.90
  -4  -8   3   74.39    5.50
  -4  -8   3   62.59    8.40
  -4  -8   3   90.69    9.40
  -4  -8   3   82.69    9.00
   2   8  -3  171.58   13.10
   2   8  -3  174.88   11.10
   2   8  -3  154.48   14.50
   2   8  -3  175.38   10.90
   2   8  -3  166.68   15.30
   2   8  -3  156.08   14.60
  -2  -8   3  182.58   11.80
  -2  -8   3  165.98   12.70
  -2  -8   3  154.58   12.10
  -2  -8   3  183.28   13.90
   0   8  -3  541.75   22.30
   0   8  -3  468.75   25.60
   0   8  -3  521.75   18.20
   0   8  -3  459.85   25.70
   0  -8   3  533.85   20.30
   0  -8   3  494.85   23.20
   0  -8   3  483.55   26.50
   0  -8   3  490.55   23.10
   0  -8   3  496.25   20.40
  -2   8  -3  433.96   19.40
  -2   8  -3  435.86   26.30
  -2   8  -3  436.26   17.30
  -2   8  -3  382.36   24.30
  -2   8  -3  439.76   19.80
   2  -8   3  458.45   22.10
   2  -8   3  426.66   16.70
   2  -8   3  424.86   20.90
   2  -8   3  415.06   20.90
   2  -8   3  427.06   21.30
  -4   8  -3  525.05   31.70
  -4   8  -3  480.85   25.30
  -4   8  -3  520.15   21.80
  -4   8  -3  546.65   21.50
  -4   8  -3  469.15   28.20
   4  -8   3  525.85   28.70
   4  -8   3  505.75   25.00
   4  -8   3  500.85   24.70
   4  -8   3  490.35   23.50
  -6   8  -3  356.36   30.50
  -6   8  -3  386.96   27.10
  -6   8  -3  415.96   26.40
   6  -8   3  438.46   23.80
   6  -8   3  375.56   22.70
   6  -8   3  400.46   20.90
  -8   8  -3  207.38   25.40
  -8   8  -3  163.88   21.60
  -8   8  -3  111.89   25.40
   8  -8   3  145.29   16.30
   8  -8   3  158.88   16.40
   8  -8   3  175.28   17.70
 -10   8  -3  115.99   25.20
 -10   8  -3  127.99   30.20
  10  -8   3  128.69   19.30
  10  -8   3  148.99   19.10
 -12   8  -3   43.70   34.70
 -12   8  -3   23.20   28.70
 -12   8  -3   66.19   28.00
  12  -8   3   51.29   20.70
  12  -8   3   13.60   19.10
 -14   8  -3  -33.80   42.90
  14  -8   3   20.40   28.00
  17   7  -3   13.10   22.40
  17   7  -3   59.99   25.40
 -17  -7   3   -6.70   23.50
 -17  -7   3   25.30   20.10
 -17  -7   3    7.40   26.20
  15   7  -3   10.20   18.20
  15   7  -3   -6.00   17.40
 -15  -7   3  -20.30   16.30
 -15  -7   3   -1.30   14.30
  13   7  -3   82.89   11.00
  13   7  -3   98.19   17.40
  13   7  -3   93.49   17.00
 -13  -7   3   99.59   14.70
 -13  -7   3   73.39   12.90
 -13  -7   3   82.49   13.90
 -13  -7   3   84.69   16.00
  11   7  -3   14.30   11.40
  11   7  -3   -6.50    7.30
  11   7  -3    1.40   11.50
  11   7  -3    8.20   11.40
 -11  -7   3    3.50    8.60
 -11  -7   3   18.40   10.00
 -11  -7   3    4.60    8.50
 -11  -7   3    8.50    9.10
   9   7  -3  510.75   28.40
   9   7  -3  528.05   28.80
   9   7  -3  516.05   27.90
  -9  -7   3  516.45   27.10
  -9  -7   3  514.05   22.30
  -9  -7   3  517.45   26.00
  -9  -7   3  541.15   22.90
  -9  -7   3  496.95   24.90
   7   7  -3   93.19   13.20
   7   7  -3  100.99   13.40
  -7  -7   3   90.89   10.60
  -7  -7   3   99.29   10.30
  -7  -7   3   99.49    8.90
  -7  -7   3  105.39    6.80
  -7  -7   3   97.69    9.70
  -7  -7   3   74.89    9.50
   5   7  -3 1233.28   46.20
   5   7  -3 1328.07   48.40
   5   7  -3 1154.88   48.80
   5   7  -3 1195.38   49.20
   5   7  -3 1140.99   46.10
  -5  -7   3 1235.28   46.50
  -5  -7   3 1227.58   47.20
  -5  -7   3 1244.98   44.00
  -5  -7   3 1296.67   46.20
  -5  -7   3 1236.38   46.90
   3   7  -3  111.99    9.80
   3   7  -3  126.49   10.60
   3   7  -3  119.39   12.20
   3   7  -3  105.09   10.00
   3   7  -3  114.39   11.50
   3   7  -3  106.29   12.70
  -3  -7   3  110.09    9.60
  -3  -7   3  117.59    9.80
  -3  -7   3  119.59   10.60
  -3  -7   3  107.89    5.30
  -3  -7   3   99.19   10.10
  -3  -7   3  118.49   12.40
   1   7  -3 1419.16   55.89
   1   7  -3 1493.35   53.59
   1   7  -3 1344.97   56.09
   1   7  -3 1531.05   51.19
  -1  -7   3 1517.05   56.29
  -1  -7   3 1389.26   54.09
  -1  -7   3 1440.96   52.59
  -1  -7   3 1510.55   50.89
  -1  -7   3 1457.95   53.89
  -1   7  -3    8.90    2.40
  -1   7  -3   17.90    5.80
  -1   7  -3    3.20    7.70
  -1   7  -3   -5.20    8.80
  -1   7  -3    9.00    4.20
   1  -7   3    7.90    2.80
   1  -7   3    2.20    5.10
   1  -7   3    7.20    5.40
   1  -7   3    8.70    5.70
   1  -7   3    9.00    5.70
  -3   7  -3  274.47   17.00
  -3   7  -3  289.77   22.50
  -3   7  -3  291.67   13.40
  -3   7  -3  316.17   15.20
  -3   7  -3  274.37   19.80
   3  -7   3  279.07   15.80
   3  -7   3  287.77   16.90
   3  -7   3  290.17   18.40
   3  -7   3  265.67   16.40
  -5   7  -3  102.59   17.40
  -5   7  -3   89.19   15.60
  -5   7  -3   87.39    8.60
  -5   7  -3   76.79   12.50
   5  -7   3   73.99    9.80
   5  -7   3   71.69    9.00
   5  -7   3   65.89   10.40
  -7   7  -3  135.19   23.10
  -7   7  -3  145.89   18.10
   7  -7   3  114.59   13.90
   7  -7   3  145.49   13.60
   7  -7   3  106.99   12.70
  -9   7  -3   80.39   24.20
  -9   7  -3  114.79   20.50
   9  -7   3   87.69   14.90
   9  -7   3  109.29   15.50
   9  -7   3   92.99   11.80
 -11   7  -3   -2.10   21.90
 -11   7  -3   26.20   27.30
  11  -7   3   -0.30   15.60
  11  -7   3   16.30   15.90
 -13   7  -3  261.27   43.30
 -13   7  -3  222.08   33.10
  13  -7   3  126.79   24.60
  13  -7   3  172.98   25.10
  18   6  -3   27.10   23.30
  18   6  -3   43.50   27.60
  18   6  -3   29.20   28.00
 -18  -6   3   54.99   30.90
 -18  -6   3   -5.40   21.10
  16   6  -3   11.70   19.70
  16   6  -3    9.40   20.80
 -16  -6   3   22.40   21.40
 -16  -6   3   40.00   17.70
  14   6  -3   -2.80   14.00
  14   6  -3   -0.30   13.90
  14   6  -3    3.60    9.80
 -14  -6   3   18.80   14.60
 -14  -6   3   -2.80   16.60
 -14  -6   3   -8.30   12.40
  12   6  -3   82.59   15.40
  12   6  -3  100.69   10.60
  12   6  -3   86.89   14.10
 -12  -6   3  111.49   11.90
 -12  -6   3  112.89   14.40
 -12  -6   3  110.39   16.40
 -12  -6   3  107.09   13.80
  10   6  -3    8.20    7.40
  10   6  -3    5.70    9.90
  10   6  -3   -3.70   10.40
  10   6  -3   10.20   10.00
 -10  -6   3   10.50    8.00
 -10  -6   3   15.50    8.10
 -10  -6   3   13.40    9.00
 -10  -6   3    8.00    9.60
 -10  -6   3    5.80    7.60
   8   6  -3  160.98   16.40
   8   6  -3  167.78   16.20
  -8  -6   3  144.79   10.50
  -8  -6   3  184.38   15.50
  -8  -6   3  153.98   12.80
  -8  -6   3  167.68   14.10
  -8  -6   3  164.08   12.50
   6   6  -3   37.40    6.20
   6   6  -3   28.30    9.20
   6   6  -3   29.30    9.80
   6   6  -3   24.00    8.80
   6   6  -3   43.10    6.40
  -6  -6   3   30.50    7.60
  -6  -6   3   29.30    6.60
  -6  -6   3   28.20    6.40
  -6  -6   3   36.00    6.60
  -6  -6   3   28.90    3.90
   4   6  -3   20.30    6.70
   4   6  -3    8.50    7.40
   4   6  -3   -1.50    6.80
   4   6  -3    9.40    4.60
   4   6  -3   -2.20    4.90
   4   6  -3   12.90    6.20
  -4  -6   3   10.80    4.90
  -4  -6   3   13.50    4.70
  -4  -6   3   14.60    5.60
  -4  -6   3   15.70    6.30
  -4  -6   3    2.20    6.40
  -4  -6   3   18.10    5.50
  -4  -6   3   11.50    2.40
   2   6  -3   12.70    7.40
   2   6  -3   23.00    7.80
   2   6  -3   20.50    4.70
   2   6  -3   22.70    4.50
   2   6  -3   11.70    4.30
   2   6  -3   13.70    4.80
  -2  -6   3   29.50    7.20
  -2  -6   3   21.80    3.30
  -2  -6   3    7.90    6.60
  -2  -6   3   17.00    5.20
  -2  -6   3   23.50    4.30
  -2  -6   3   18.80    5.40
   0   6  -3   29.90    5.60
   0   6  -3   26.50    5.20
   0   6  -3   24.40    7.90
   0   6  -3   21.00    5.80
   0   6  -3   28.40    8.80
   0   6  -3   24.30    5.60
   0  -6   3   37.30    8.60
   0  -6   3   26.20    5.60
   0  -6   3   30.10    3.60
   0  -6   3   30.70    4.80
   0  -6   3   27.90    6.00
  -2   6  -3   88.99   11.30
  -2   6  -3   75.89   12.30
  -2   6  -3   81.19    8.20
  -2   6  -3   95.69    8.00
  -2   6  -3   79.29    6.10
   2  -6   3   80.79    8.40
   2  -6   3   90.39    9.60
   2  -6   3   82.19    6.90
   2  -6   3   79.99    4.50
   2  -6   3   75.19    8.20
   2  -6   3   76.29    8.10
  -4   6  -3    8.90    5.50
  -4   6  -3    1.20    7.60
  -4   6  -3    4.30    8.70
  -4   6  -3   -1.70   11.40
   4  -6   3    2.10    5.70
   4  -6   3    2.40    6.40
   4  -6   3    7.30    6.00
   4  -6   3    4.60    3.10
   4  -6   3   14.10    9.80
  -6   6  -3    6.50   10.40
  -6   6  -3   -5.00   13.90
   6  -6   3   10.00    8.10
   6  -6   3   -1.80    6.20
   6  -6   3    4.40    7.60
   6  -6   3   -0.10    3.60
   6  -6   3    1.10    2.70
  -8   6  -3   48.20   15.50
  -8   6  -3   52.99   20.50
   8  -6   3   42.40   12.10
   8  -6   3   54.39   11.20
   8  -6   3   52.39    9.10
 -10   6  -3    6.10   18.70
  10  -6   3    5.90   12.20
  10  -6   3   -3.00    9.90
 -12   6  -3   92.79   26.90
 -12   6  -3   62.89   33.70
  12  -6   3   83.59   19.40
  12  -6   3   61.99   19.30
 -14   6  -3   93.69   33.80
 -14   6  -3  112.29   41.40
  14  -6   3   64.69   24.20
  14  -6   3   65.59   25.50
  19   5  -3  244.18   41.60
  19   5  -3  216.28   40.80
 -19  -5   3  165.88   38.20
 -19  -5   3  136.69   28.30
  17   5  -3  118.49   25.30
 -17  -5   3   73.29   20.30
 -17  -5   3   73.69   26.40
  15   5  -3  107.79   13.80
  15   5  -3  141.59   19.10
  15   5  -3  111.19   20.90
 -15  -5   3  160.08   24.00
 -15  -5   3  146.69   18.90
 -15  -5   3   90.59   19.30
  13   5  -3   38.20    9.30
  13   5  -3   18.10   12.30
  13   5  -3   49.10   14.30
 -13  -5   3   30.50   14.00
 -13  -5   3   36.00    9.10
 -13  -5   3   23.60   11.00
 -13  -5   3   27.60   13.20
  11   5  -3   84.59   10.20
  11   5  -3   95.29   14.60
  11   5  -3  124.29   15.30
  11   5  -3   98.49   12.90
 -11  -5   3  110.39   12.90
 -11  -5   3   96.49   12.20
 -11  -5   3  100.49   10.50
 -11  -5   3  131.79   15.90
 -11  -5   3  103.49   12.60
   9   5  -3  150.18   14.60
   9   5  -3  129.69   13.60
   9   5  -3  108.29   12.90
  -9  -5   3  131.39   13.60
  -9  -5   3  121.79   12.90
  -9  -5   3  131.09   12.10
  -9  -5   3  135.19   12.10
  -9  -5   3  124.29   13.10
   7   5  -3   42.40    6.00
   7   5  -3   43.50    9.40
   7   5  -3   33.20    9.50
   7   5  -3   50.69   10.20
  -7  -5   3   38.30    8.20
  -7  -5   3   36.00    7.60
  -7  -5   3   37.70    5.90
  -7  -5   3   37.00    6.80
  -7  -5   3   35.50    6.20
   5   5  -3 1011.80   39.00
   5   5  -3 1018.70   41.10
   5   5  -3 1019.80   38.00
   5   5  -3 1028.30   35.50
   5   5  -3  996.90   40.70
   5   5  -3 1083.09   40.60
  -5  -5   3 1039.90   39.10
  -5  -5   3 1061.49   40.80
  -5  -5   3 1008.70   38.90
  -5  -5   3 1025.00   36.70
  -5  -5   3  945.41   40.30
   3   5  -3  500.95   22.70
   3   5  -3  538.75   21.80
   3   5  -3  520.35   21.70
   3   5  -3  470.65   21.00
   3   5  -3  509.35   23.60
   3   5  -3  560.04   21.00
   3   5  -3  490.85   23.80
  -3  -5   3  586.24   23.70
  -3  -5   3  475.65   20.90
  -3  -5   3  515.55   20.70
  -3  -5   3  521.95   18.40
  -3  -5   3  509.45   21.70
  -3  -5   3  520.15   18.00
  -3  -5   3  534.95   19.10
  -3  -5   3  491.45   22.20
   1   5  -3 1106.69   46.60
   1   5  -3 1236.68   44.40
   1   5  -3 1272.57   44.60
   1   5  -3 1242.58   43.30
   1   5  -3 1128.89   48.50
   1   5  -3 1257.17   44.70
  -1  -5   3 1238.48   42.70
  -1  -5   3 1291.27   47.00
  -1  -5   3 1177.08   43.50
  -1  -5   3 1188.18   44.40
  -1  -5   3 1265.67   47.00
  -1  -5   3 1202.08   44.50
  -1  -5   3 1214.78   43.00
  -1  -5   3 1122.09   44.80
  -1   5  -3    2.00    4.30
  -1   5  -3    3.00    3.50
  -1   5  -3   -2.50    7.20
  -1   5  -3    4.40    1.90
  -1   5  -3   -8.80    5.80
  -1   5  -3    4.60    3.60
  -1   5  -3   -3.20    4.30
  -1   5  -3    5.20    5.40
   1  -5   3   -1.50    1.90
   1  -5   3   -1.10    4.30
   1  -5   3   -0.50    4.20
   1  -5   3    4.50    4.90
   1  -5   3   -7.90    7.10
   1  -5   3   -2.90    3.10
   1  -5   3    0.60    4.30
  -3   5  -3   19.90    7.40
  -3   5  -3   15.80    8.80
  -3   5  -3   20.70    5.70
  -3   5  -3   36.50    6.00
  -3   5  -3   19.70   10.40
   3  -5   3   19.50    5.60
   3  -5   3   19.20    4.00
   3  -5   3   14.70    7.10
   3  -5   3   21.50    5.70
   3  -5   3   24.90    6.20
  -5   5  -3    0.40   11.70
  -5   5  -3   11.70    9.40
  -5   5  -3    8.10    5.20
  -5   5  -3   10.60    9.70
   5  -5   3    8.50    4.00
   5  -5   3    6.70    6.10
   5  -5   3   19.00    6.70
   5  -5   3    1.70    6.10
   5  -5   3   11.50    3.50
  -7   5  -3   61.19   18.30
  -7   5  -3   61.09   13.80
   7  -5   3   52.19    4.90
   7  -5   3   57.89    9.20
   7  -5   3   50.89    8.20
   7  -5   3   59.09   10.10
   7  -5   3   49.30    9.70
  -9   5  -3  235.28   29.10
  -9   5  -3  244.18   24.40
   9  -5   3  184.58   15.80
   9  -5   3  196.48   17.20
   9  -5   3  173.38   17.60
 -11   5  -3   96.19   30.60
 -11   5  -3  137.19   24.10
  11  -5   3   96.59   16.70
  11  -5   3  107.49   18.20
 -13   5  -3  146.89   36.00
 -13   5  -3  108.19   29.20
  13  -5   3   95.99   22.00
  13  -5   3  106.39   21.90
  15  -5   3  107.89   30.00
  18   4  -3   -3.30   21.00
  18   4  -3   52.69   25.60
 -18  -4   3   -1.20   19.90
 -18  -4   3   21.70   29.20
  16   4  -3   44.10   17.50
  16   4  -3   21.10   18.00
  16   4  -3   38.50   13.60
 -16  -4   3   70.89   25.60
 -16  -4   3   41.50   20.60
  14   4  -3   77.79   14.20
  14   4  -3  109.99   12.80
  14   4  -3  108.59   16.40
 -14  -4   3  116.49   18.00
 -14  -4   3  120.99   22.40
 -14  -4   3  119.09   17.90
 -14  -4   3   91.19   14.40
  12   4  -3  134.89   15.70
  12   4  -3  145.19   14.90
  12   4  -3  150.98   15.00
 -12  -4   3  150.08   16.80
 -12  -4   3  133.09   12.80
 -12  -4   3  134.39   14.30
 -12  -4   3  130.89   10.60
 -12  -4   3  169.58   17.80
  10   4  -3  102.89   11.80
  10   4  -3  105.49   13.80
  10   4  -3  106.69   10.30
  10   4  -3  114.69   13.30
 -10  -4   3  110.19   13.20
 -10  -4   3  112.69   12.90
 -10  -4   3   97.49    6.60
 -10  -4   3   98.19    9.30
 -10  -4   3  127.09   13.70
 -10  -4   3   93.49   11.10
   8   4  -3  422.46   22.40
   8   4  -3  443.06   23.20
   8   4  -3  424.26   18.80
  -8  -4   3  415.56   19.20
  -8  -4   3  416.06   20.70
  -8  -4   3  413.36   22.40
  -8  -4   3  434.26   20.30
   6   4  -3  130.19    5.40
   6   4  -3  107.89    9.50
   6   4  -3  140.19   12.60
   6   4  -3  138.69   13.40
   6   4  -3  132.89   12.50
   6   4  -3  130.49    8.50
  -6  -4   3  136.09   11.60
  -6  -4   3  154.28   12.00
  -6  -4   3  120.49    8.60
  -6  -4   3  133.99    9.50
  -6  -4   3  107.09   11.10
  -6  -4   3  119.09   10.60
   4   4  -3   52.99    5.00
   4   4  -3   50.29    7.00
   4   4  -3   32.60    6.80
   4   4  -3   42.70    5.60
   4   4  -3   33.30    7.70
   4   4  -3   41.40    4.70
   4   4  -3   36.40    6.30
  -4  -4   3   50.79    7.00
  -4  -4   3   39.80    5.30
  -4  -4   3   48.80    5.20
  -4  -4   3   54.29    7.40
  -4  -4   3   40.30    5.50
  -4  -4   3   43.30    4.60
   2   4  -3  519.55   20.80
   2   4  -3  480.55   22.50
   2   4  -3  520.05   20.00
   2   4  -3  512.95   20.30
   2   4  -3  512.45   20.40
   2   4  -3  505.45   22.50
  -2  -4   3  490.55   22.00
  -2  -4   3  473.85   20.70
  -2  -4   3  491.95   20.30
  -2  -4   3  503.95   20.00
  -2  -4   3  489.25   21.90
  -2  -4   3  512.85   18.70
  -2  -4   3  492.55   19.60
   0   4  -3  178.18    9.60
   0   4  -3  175.38   12.10
   0   4  -3  196.58   10.10
   0   4  -3  173.18   11.20
   0   4  -3  165.28   13.70
   0   4  -3  185.68   10.70
   0  -4   3  172.48   10.20
   0  -4   3  190.98    9.80
   0  -4   3  196.78    9.90
   0  -4   3  189.28   13.00
   0  -4   3  183.98    8.30
   0  -4   3  155.18   10.20
  -2   4  -3  430.66   23.60
  -2   4  -3  479.25   20.80
  -2   4  -3  474.05   20.00
  -2   4  -3  474.05   23.20
  -2   4  -3  450.55   21.10
  -2   4  -3  475.25   19.70
   2  -4   3  465.05   20.60
   2  -4   3  480.15   17.90
   2  -4   3  468.35   16.80
   2  -4   3  476.05   20.10
   2  -4   3  483.45   21.10
   2  -4   3  475.25   17.30
   2  -4   3  500.95   24.40
   2  -4   3  459.95   19.10
  -4   4  -3  341.07   20.60
  -4   4  -3  340.07   15.80
  -4   4  -3  319.77   16.40
  -4   4  -3  337.67   19.20
  -4   4  -3  322.27   21.90
   4  -4   3  325.67   16.50
   4  -4   3  327.07   20.20
   4  -4   3  335.87   15.10
   4  -4   3  335.07   14.70
   4  -4   3  325.17   18.10
   4  -4   3  327.87   17.50
  -6   4  -3  188.08   21.60
  -6   4  -3  190.68   18.40
   6  -4   3  207.18   10.70
   6  -4   3  215.08   16.50
   6  -4   3  200.78   13.60
   6  -4   3  196.28   14.40
   6  -4   3  220.98   15.90
  -8   4  -3  176.78   23.50
  -8   4  -3  141.09   18.60
   8  -4   3  136.29    9.40
   8  -4   3  162.38   15.90
   8  -4   3  166.48   16.50
   8  -4   3  130.19   12.80
   8  -4   3  124.19   14.00
   8  -4   3  149.59   14.90
 -10   4  -3   75.29   19.20
 -10   4  -3   97.49   25.40
  10  -4   3  104.59   15.90
  10  -4   3   64.59   10.40
  10  -4   3   75.79   14.00
  10  -4   3   76.29   13.60
 -12   4  -3   18.00   22.50
 -12   4  -3   30.20   26.80
  12  -4   3   16.70   16.70
  12  -4   3    7.60   16.40
 -14   4  -3   75.69   36.10
 -14   4  -3   13.50   27.00
  14  -4   3   20.10   22.20
  14  -4   3    9.00   22.40
  19   3  -3   92.29   30.70
  19   3  -3   27.30   23.80
 -19  -3   3   13.50   32.50
 -19  -3   3   80.69   25.70
  17   3  -3   33.80   19.30
  17   3  -3   20.90   20.70
  17   3  -3   46.50   19.80
 -17  -3   3   16.60   18.10
 -17  -3   3   26.20   23.90
 -17  -3   3   60.39   30.00
  15   3  -3   98.49   15.30
  15   3  -3  115.79   18.70
  15   3  -3   99.89   14.20
 -15  -3   3  104.69   16.50
 -15  -3   3  130.99   25.50
 -15  -3   3   75.19   20.90
 -15  -3   3  129.59   21.80
  13   3  -3   11.70   10.70
  13   3  -3    5.60    9.90
  13   3  -3   14.30    8.90
 -13  -3   3   23.50   13.70
 -13  -3   3    0.70   12.50
 -13  -3   3   31.20   10.70
  11   3  -3  179.48   17.40
  11   3  -3  163.78   14.40
  11   3  -3  171.38   15.70
 -11  -3   3  169.38   16.50
 -11  -3   3  163.98   11.80
 -11  -3   3  177.78   18.00
   9   3  -3    2.30    6.90
   9   3  -3    0.70    6.40
   9   3  -3   -2.90    7.90
   9   3  -3    6.40    5.10
   9   3  -3    5.80    7.90
  -9  -3   3   -4.70    7.80
  -9  -3   3    3.20    4.80
  -9  -3   3   -8.40    7.70
  -9  -3   3    1.40    7.50
  -9  -3   3   -2.50    3.30
   7   3  -3  435.86   18.70
   7   3  -3  417.06   21.70
   7   3  -3  389.86   20.60
   7   3  -3  395.36   21.20
   7   3  -3  410.86   17.20
  -7  -3   3  382.36   20.70
  -7  -3   3  395.96   20.90
  -7  -3   3  405.56   17.30
  -7  -3   3  389.26   19.60
  -7  -3   3  429.86   19.90
  -7  -3   3  394.06   19.00
   5   3  -3  150.88    9.50
   5   3  -3  168.38   16.10
   5   3  -3  160.88    8.20
   5   3  -3  153.58    7.50
   5   3  -3  161.48   12.90
   5   3  -3  163.88   11.70
  -5  -3   3  162.08   11.80
  -5  -3   3  157.88   10.90
  -5  -3   3  151.28   10.40
  -5  -3   3  168.88    9.10
  -5  -3   3  150.98    9.40
   3   3  -3  280.87   11.70
   3   3  -3  245.38   14.80
   3   3  -3  244.08   13.50
   3   3  -3  287.07   13.60
   3   3  -3  278.57   13.20
   3   3  -3  262.37   14.50
  -3  -3   3  265.67   12.90
  -3  -3   3  277.17   10.00
  -3  -3   3  258.57   12.70
  -3  -3   3  277.57   12.80
  -3  -3   3  268.37   11.60
  -3  -3   3  271.17   14.20
  -3  -3   3  291.47   14.50
   1   3  -3   99.09    7.70
   1   3  -3  107.99    7.00
   1   3  -3  105.49    7.90
   1   3  -3  109.09   10.30
   1   3  -3  108.29    6.70
   1   3  -3   94.59    8.30
  -1  -3   3  114.99    6.70
  -1  -3   3   95.99    6.80
  -1  -3   3  102.89    9.40
  -1  -3   3  111.49    7.30
  -1  -3   3  108.69    6.50
  -1  -3   3  115.19    9.40
  -1   3  -3  526.35   22.10
  -1   3  -3  512.45   21.40
  -1   3  -3  538.95   21.70
  -1   3  -3  533.25   19.50
  -1   3  -3  534.15   23.60
  -1   3  -3  535.55   20.80
  -1   3  -3  508.25   24.30
   1  -3   3  560.74   22.00
   1  -3   3  515.85   21.00
   1  -3   3  538.35   20.80
   1  -3   3  532.55   24.10
   1  -3   3  502.65   21.40
   1  -3   3  516.25   20.40
  -3   3  -3   37.20    6.50
  -3   3  -3   46.80    6.20
  -3   3  -3   32.20   10.20
  -3   3  -3   43.70    8.80
  -3   3  -3   42.50    6.30
  -3   3  -3   38.10    8.00
  -3   3  -3   37.50    4.70
   3  -3   3   34.30    5.50
   3  -3   3   76.29   16.50
   3  -3   3   46.50    7.10
   3  -3   3   56.69    8.20
   3  -3   3   40.60    4.40
   3  -3   3   44.80    6.10
   3  -3   3   38.10    5.00
  -5   3  -3   58.49   11.00
  -5   3  -3   51.69   14.50
  -5   3  -3   51.19    7.20
   5  -3   3   58.79    6.30
   5  -3   3   34.40    7.50
   5  -3   3   60.99    7.20
   5  -3   3   59.99    7.50
   5  -3   3   45.80    8.00
  -7   3  -3    7.10   14.90
  -7   3  -3   12.00   10.80
   7  -3   3   11.20    7.20
   7  -3   3   -0.20    8.00
   7  -3   3    7.00    5.10
   7  -3   3   15.60    8.30
   7  -3   3    9.70    7.70
  -9   3  -3   97.09   21.70
  -9   3  -3   84.69   17.10
   9  -3   3   75.29   12.50
   9  -3   3   88.69   12.10
   9  -3   3   93.59   14.20
 -11   3  -3   16.30   33.30
 -11   3  -3   69.19   23.80
  11  -3   3   -1.10    9.60
  11  -3   3    5.00   12.90
  11  -3   3    6.80   14.20
  11  -3   3    3.30   13.30
 -13   3  -3   22.50   30.70
 -13   3  -3   14.30   24.50
  13  -3   3  -17.30   17.00
  13  -3   3   -5.10   17.50
  13  -3   3   27.60   20.20
 -15   3  -3  -48.00   29.90
 -15   3  -3   27.10   42.00
  15  -3   3    9.10   25.70
  15  -3   3   49.90   28.90
  18   2  -3    2.50   20.10
  18   2  -3   19.70   22.40
 -18  -2   3   -1.90   34.60
 -18  -2   3   -5.10   18.50
 -18  -2   3  -43.00   24.70
  16   2  -3   -7.60   14.20
  16   2  -3   10.40   17.30
  16   2  -3   28.10   14.30
  16   2  -3   18.30   13.90
 -16  -2   3   12.70   18.70
 -16  -2   3   18.60   26.40
 -16  -2   3   12.10   14.80
  14   2  -3  122.89   14.20
  14   2  -3   89.49   15.00
  14   2  -3  122.59   14.20
 -14  -2   3  101.99   16.90
 -14  -2   3  131.69   19.40
 -14  -2   3  129.29   15.30
  12   2  -3  157.78   16.10
  12   2  -3  160.68   16.10
  12   2  -3  191.68   16.20
 -12  -2   3  186.68   10.30
 -12  -2   3  220.18   16.00
 -12  -2   3  198.68   21.00
 -12  -2   3  165.88   17.70
  10   2  -3  476.35   23.20
  10   2  -3  464.75   25.10
  10   2  -3  488.35   23.60
  10   2  -3  516.25   24.80
 -10  -2   3  488.95   20.10
 -10  -2   3  455.55   25.20
 -10  -2   3  508.55   21.20
 -10  -2   3  457.55   26.00
   8   2  -3  709.93   28.30
   8   2  -3  651.63   30.10
   8   2  -3  734.53   29.60
   8   2  -3  709.33   26.70
   8   2  -3  687.03   29.80
  -8  -2   3  615.14   29.90
  -8  -2   3  693.83   30.50
  -8  -2   3  714.33   26.20
  -8  -2   3  680.53   30.40
  -8  -2   3  696.73   26.50
   6   2  -3  486.15   22.60
   6   2  -3  508.45   23.30
   6   2  -3  485.25   18.80
   6   2  -3  498.15   19.00
   6   2  -3  503.15   20.70
   6   2  -3  435.56   22.50
  -6  -2   3  489.65   22.70
  -6  -2   3  515.15   22.70
  -6  -2   3  496.45   21.60
  -6  -2   3  495.65   22.20
  -6  -2   3  483.15   19.70
  -6  -2   3  532.65   21.70
   4   2  -3   66.89    7.70
   4   2  -3   48.70    7.10
   4   2  -3   34.90    5.40
   4   2  -3   60.19    6.10
   4   2  -3   43.00    7.10
   4   2  -3   49.30    4.00
   4   2  -3   58.29    5.30
  -4  -2   3   61.59    7.80
  -4  -2   3   66.39    7.50
  -4  -2   3   53.29    4.20
  -4  -2   3   44.70    4.90
  -4  -2   3   46.00    5.90
  -4  -2   3   54.39    5.50
   2   2  -3    9.40    3.90
   2   2  -3    8.70    5.30
   2   2  -3    3.20    3.20
   2   2  -3    8.20    4.00
   2   2  -3    2.10    4.30
   2   2  -3    6.10    2.20
  -2  -2   3    4.30    2.10
  -2  -2   3    7.90    1.30
  -2  -2   3    9.50    5.40
  -2  -2   3    1.90    3.00
  -2  -2   3    7.00    3.30
  -2  -2   3    4.30    4.10
   0   2  -3   99.69    5.50
   0   2  -3   80.19    8.00
   0   2  -3   80.49   10.70
   0   2  -3   91.69    7.60
   0   2  -3   93.29    7.70
   0   2  -3   88.99    4.70
   0  -2   3   95.89    6.90
   0  -2   3   85.49    6.80
   0  -2   3   83.19    8.70
   0  -2   3   77.39    5.70
   0  -2   3   82.29    7.20
  -2   2  -3  434.06   19.70
  -2   2  -3  458.35   17.70
  -2   2  -3  460.45   18.90
  -2   2  -3  387.96   21.50
  -2   2  -3  444.86   17.60
  -2   2  -3  445.56   20.70
   2  -2   3  430.06   18.90
   2  -2   3  440.16   18.40
   2  -2   3  443.26   19.70
   2  -2   3  449.95   16.00
   2  -2   3  416.26   19.40
   2  -2   3  420.96   21.20
   2  -2   3  428.56   17.50
  -4   2  -3  267.37   14.10
  -4   2  -3  243.08   18.90
  -4   2  -3  254.67   16.50
  -4   2  -3  295.07   13.20
  -4   2  -3  233.98   16.60
  -4   2  -3  254.77   14.10
   4  -2   3  263.47   13.00
   4  -2   3  266.47   17.30
   4  -2   3  254.07   13.20
   4  -2   3  263.67   14.70
   4  -2   3  242.78   13.10
   4  -2   3  237.28   14.80
  -6   2  -3   -5.40    6.10
  -6   2  -3   -6.90    8.70
  -6   2  -3   -0.10   10.50
   6  -2   3    0.00    6.50
   6  -2   3    1.10    6.40
   6  -2   3    3.30    5.40
   6  -2   3   -7.50    7.00
   6  -2   3   -8.20    5.60
  -8   2  -3   22.90   12.50
  -8   2  -3   17.30   15.30
   8  -2   3   17.60    7.50
   8  -2   3   30.60   10.50
   8  -2   3   12.00    9.10
   8  -2   3   22.00    8.30
 -10   2  -3   11.90   15.80
 -10   2  -3   30.90   18.60
  10  -2   3   14.20    9.70
  10  -2   3   13.80   10.40
  10  -2   3    4.40   11.40
  10  -2   3   -4.30   11.30
 -12   2  -3   46.10   22.30
 -12   2  -3   53.89   26.40
  12  -2   3   -8.70   14.60
  12  -2   3   -5.70   15.60
 -14   2  -3   91.59   27.90
 -14   2  -3  122.49   30.70
 -14   2  -3  218.38   41.80
  14  -2   3  113.69   24.20
  14  -2   3  173.58   28.20
  14  -2   3  150.48   24.40
  19   1  -3  252.57   32.00
  19   1  -3  159.58   26.80
 -19  -1   3   59.89   24.40
 -19  -1   3  125.69   33.70
 -19  -1   3  234.28   47.80
  17   1  -3  219.38   24.80
  17   1  -3  169.18   22.80
  17   1  -3  162.58   21.00
 -17  -1   3  151.08   25.50
 -17  -1   3  205.68   30.40
 -17  -1   3  250.97   37.00
  15   1  -3   76.99   16.70
  15   1  -3   95.89   16.90
  15   1  -3   99.69   14.30
  15   1  -3  110.29   13.80
 -15  -1   3   98.39   20.50
 -15  -1   3   88.79   18.20
 -15  -1   3  102.99   15.20
 -15  -1   3  115.59   26.40
  13   1  -3  148.59   15.10
  13   1  -3  160.48   16.30
  13   1  -3  137.79   13.90
 -13  -1   3  114.29   17.90
 -13  -1   3  143.09   17.90
  11   1  -3   20.10    8.00
  11   1  -3   16.90    7.20
  11   1  -3   15.10    7.10
 -11  -1   3   23.00   11.00
 -11  -1   3   13.70    3.80
 -11  -1   3    8.60    9.00
 -11  -1   3    8.70    6.80
   9   1  -3   45.00    6.60
   9   1  -3   53.69    8.30
   9   1  -3   47.40   10.10
   9   1  -3   60.79    9.20
   9   1  -3   57.39    7.20
  -9  -1   3   39.70    9.60
  -9  -1   3   56.39    5.20
  -9  -1   3   67.69    6.80
  -9  -1   3   51.09    9.20
  -9  -1   3   46.80    9.50
   7   1  -3  413.66   21.60
   7   1  -3  426.36   17.20
   7   1  -3  404.66   18.50
   7   1  -3  384.56   20.30
   7   1  -3  435.66   20.60
   7   1  -3  438.86   16.70
  -7  -1   3  440.66   21.40
  -7  -1   3  430.66   17.70
  -7  -1   3  439.46   20.10
  -7  -1   3  460.85   27.50
  -7  -1   3  413.26   17.10
  -7  -1   3  437.46   21.50
   5   1  -3   63.69    5.30
   5   1  -3   63.19    6.80
   5   1  -3   57.19   10.60
   5   1  -3   54.99    6.10
   5   1  -3   55.19    3.70
   5   1  -3   48.30    7.20
  -5  -1   3   53.49    6.50
  -5  -1   3   72.39    8.10
  -5  -1   3   51.99    5.00
  -5  -1   3   53.29    5.10
  -5  -1   3   54.49    5.40
  -5  -1   3   58.49    7.00
  -5  -1   3   65.49    8.30
  -5  -1   3   63.69    6.40
   3   1  -3 2407.56   86.19
   3   1  -3 2454.85   84.69
   3   1  -3 2425.66   87.79
   3   1  -3 2583.14   86.69
   3   1  -3 2527.65   87.59
   3   1  -3 2431.96   86.19
   3   1  -3 2314.57   87.29
   3   1  -3 2553.24   86.09
  -3  -1   3 2481.75   87.69
  -3  -1   3 2424.46   84.69
  -3  -1   3 2362.86   84.69
  -3  -1   3 2367.96   86.29
  -3  -1   3 2461.55   87.19
  -3  -1   3 2651.03   87.69
   1   1  -3   55.49    6.00
   1   1  -3   64.49    4.10
   1   1  -3   52.19    6.20
   1   1  -3   64.39    4.00
   1   1  -3   60.69    7.70
   1   1  -3   60.09    5.90
  -1  -1   3   51.99    4.40
  -1  -1   3   68.49    6.20
  -1  -1   3   71.89    6.70
  -1  -1   3   69.19    6.30
  -1  -1   3   63.89    7.50
  -1  -1   3   63.39    4.10
  -1  -1   3   52.49    5.30
  -1   1  -3  140.79    6.70
  -1   1  -3  127.19    7.20
  -1   1  -3  135.09    8.90
  -1   1  -3  126.99   12.40
  -1   1  -3  155.08    9.50
  -1   1  -3  126.19    9.10
   1  -1   3  117.59   10.10
   1  -1   3  159.68   10.00
   1  -1   3  137.79    6.50
   1  -1   3  138.99    7.90
   1  -1   3  123.09    9.10
   1  -1   3  155.08    7.00
   1  -1   3  123.49    8.50
  -3   1  -3   38.00    7.80
  -3   1  -3   29.00    6.80
  -3   1  -3   39.90    4.60
  -3   1  -3   43.50    6.20
  -3   1  -3   30.70    5.90
  -3   1  -3   31.90    9.50
  -3   1  -3   39.90    5.50
  -3   1  -3   36.50    7.80
   3  -1   3   26.60    5.80
   3  -1   3   44.30    6.10
   3  -1   3   38.90    3.30
   3  -1   3   48.00    8.00
   3  -1   3   21.20    8.70
   3  -1   3   33.00    4.30
  -5   1  -3    6.10    8.40
  -5   1  -3   14.40    5.20
  -5   1  -3   -1.40    9.00
   5  -1   3   10.90    5.60
   5  -1   3   11.70    6.40
   5  -1   3    5.40    4.80
   5  -1   3   -3.40    5.60
  -7   1  -3   81.19    9.20
  -7   1  -3   96.29   14.00
  -7   1  -3   94.79   15.00
   7  -1   3  103.09   10.30
   7  -1   3   97.69    9.90
   7  -1   3   76.59   11.00
   7  -1   3  118.99   13.20
  -9   1  -3  160.38   19.90
  -9   1  -3  163.88   20.80
   9  -1   3  182.88   16.70
   9  -1   3  152.98   15.80
   9  -1   3  168.78   15.90
 -11   1  -3  125.89   25.30
  11  -1   3   81.29   14.50
  11  -1   3   79.99   16.30
  11  -1   3   96.99   14.00
 -13   1  -3   51.29   22.30
 -13   1  -3   42.70   23.90
 -13   1  -3  102.19   32.10
  13  -1   3   82.59   22.20
  13  -1   3   41.40   19.50
  13  -1   3   52.79   18.70
 -15   1  -3   82.39   37.30
 -15   1  -3   68.79   31.30
 -15   1  -3  184.68   44.50
  15  -1   3   67.79   26.70
  15  -1   3  172.28   32.60
  15  -1   3   82.19   29.20
  18   0  -3   59.19   23.00
  18   0  -3  -39.10   17.00
  18   0  -3   14.50   29.00
 -18   0   3    5.40   37.20
 -18   0   3   31.60   26.00
 -18   0   3    5.20   18.70
  16   0  -3   -9.10   11.60
  16   0  -3    4.90   14.80
  16   0  -3    4.60   14.50
 -16   0   3   -8.60   16.40
 -16   0   3   -7.60   26.00
 -16   0   3   -9.90   13.20
 -16   0   3   -7.00   20.60
  14   0  -3  -12.00    9.70
  14   0  -3   -5.20   11.10
  14   0  -3    6.30   12.00
  14   0  -3    2.80    8.10
 -14   0   3   12.50   14.40
 -14   0   3    9.50   15.30
  12   0  -3    7.10    9.00
  12   0  -3    2.30    8.10
  12   0  -3    3.10    6.40
 -12   0   3   -2.40   10.10
 -12   0   3    9.00   13.50
  10   0  -3  -14.60    6.00
  10   0  -3   -7.60    3.90
  10   0  -3    6.80    6.60
  10   0  -3    3.10    6.50
 -10   0   3    1.30    2.90
 -10   0   3  -10.80    5.90
 -10   0   3    3.00    9.70
 -10   0   3    7.60    8.80
   8   0  -3   10.00    5.70
   8   0  -3    1.00    4.30
   8   0  -3   -2.30    3.00
   8   0  -3   -1.10    5.30
   8   0  -3   -7.90    6.90
   8   0  -3   -4.00    3.40
  -8   0   3    2.00    2.30
  -8   0   3   13.70    7.60
  -8   0   3   -4.20    7.40
  -8   0   3  -11.20    6.70
  -8   0   3   -4.90    4.20
  -8   0   3   -2.30    5.90
   6   0  -3    0.70    6.00
   6   0  -3    7.40    4.00
   6   0  -3    3.60    5.50
   6   0  -3    1.70    3.70
   6   0  -3    1.50    1.50
   6   0  -3    5.50    2.80
   6   0  -3    2.60    4.90
  -6   0   3    0.10    4.60
  -6   0   3   -6.30    3.00
  -6   0   3    6.50    5.80
  -6   0   3   -5.10    5.00
  -6   0   3   -2.90    2.90
  -6   0   3   -0.60    4.30
   4   0  -3    5.30    5.00
   4   0  -3    0.70    4.40
   4   0  -3    8.50    3.20
   4   0  -3    3.30    3.40
   4   0  -3   -1.60    2.20
   4   0  -3   -0.80    1.00
   4   0  -3    5.30    3.20
  -4   0   3    1.00    4.20
  -4   0   3    3.00    4.90
  -4   0   3    1.80    1.20
  -4   0   3    0.20    3.30
  -4   0   3   -0.50    2.00
  -4   0   3    4.10    3.10
  -4   0   3   -4.60    5.00
   2   0  -3    0.80    3.50
   2   0  -3    0.00    4.80
   2   0  -3    1.20    3.60
   2   0  -3   -2.40    3.30
   2   0  -3   -0.30    1.60
   2   0  -3   -0.10    2.50
  -2   0   3   -0.50    1.90
  -2   0   3    2.00    2.90
  -2   0   3   -1.90    1.40
  -2   0   3   -6.70    3.10
  -2   0   3   -4.80    3.30
  -2   0   3   -3.40    5.00
   0   0  -3   -0.90    5.30
   0   0  -3    1.10    3.30
   0   0  -3    1.40    1.40
   0   0  -3    1.00    2.10
   0   0  -3   -3.50    3.30
   0   0  -3    1.70    3.70
   0   0   3    0.90    5.00
   0   0   3    2.10    3.80
   0   0   3    2.90    2.80
   0   0   3   -2.70    3.20
   0   0   3    1.60    3.60
   0   0   3    1.00    2.10
   0   0   3    6.70    2.60
  -2   0  -3    3.50    4.90
  -2   0  -3    1.20    3.20
  -2   0  -3    8.60    4.50
  -2   0  -3    3.70    3.70
  -2   0  -3   -4.00    3.40
  -2   0  -3   -2.00    6.50
  -2   0  -3   -2.20    2.00
  -2   0  -3   -5.90    4.20
   2   0   3   -2.20    1.80
   2   0   3    0.00    5.60
   2   0   3    1.40    3.30
   2   0   3    0.20    1.90
   2   0   3    0.10    5.20
   2   0   3   -0.40    4.20
  -4   0  -3   -4.70    8.50
  -4   0  -3    5.60    7.10
  -4   0  -3   -5.20    5.60
  -4   0  -3    5.40    5.40
  -4   0  -3  -10.30    5.40
  -4   0  -3    7.80    4.00
   4   0   3    5.10    6.00
   4   0   3    0.50    2.10
   4   0   3    3.20    3.00
   4   0   3    6.20    8.60
   4   0   3    4.30    5.40
  -6   0  -3   -3.00   10.50
  -6   0  -3    0.30    7.20
  -6   0  -3    1.70    5.30
  -6   0  -3   10.60    9.60
   6   0   3   -8.70    7.20
   6   0   3    6.40    6.90
   6   0   3    4.10    5.30
   6   0   3    0.00    7.00
  -8   0  -3   -3.90   11.50
  -8   0  -3    5.00    6.80
  -8   0  -3   13.40   13.80
   8   0   3   -3.20    8.50
   8   0   3    3.50    8.00
   8   0   3    4.30    7.00
 -10   0  -3    6.50   13.30
 -10   0  -3    1.80   14.70
 -10   0  -3  -22.80   16.40
  10   0   3  -15.80   10.70
  10   0   3   -6.40    9.00
  10   0   3  -19.70   11.10
 -12   0  -3   25.60   18.40
 -12   0  -3    7.40   23.50
 -12   0  -3  -14.90   20.20
  12   0   3    3.80   14.60
  12   0   3    8.80   15.00
  12   0   3   -1.30   16.10
 -14   0  -3   48.40   24.40
 -14   0  -3    8.40   24.70
 -14   0  -3   21.40   34.30
  14   0   3  -46.10   18.90
  14   0   3    3.40   20.30
  14   0   3    6.30   23.20
  19  -1  -3  120.79   25.60
 -19   1   3   88.79   32.50
 -19   1   3  100.89   45.10
  17  -1  -3  200.28   24.00
  17  -1  -3  147.79   19.10
  17  -1  -3  159.98   21.90
  17  -1  -3  168.08   22.70
 -17   1   3  187.38   30.00
 -17   1   3  180.08   26.30
 -17   1   3  253.47   39.10
 -17   1   3  209.88   21.20
  15  -1  -3  104.49   16.00
  15  -1  -3   85.99   15.90
  15  -1  -3  108.39   17.00
  15  -1  -3   73.79   10.50
 -15   1   3   85.79   20.80
 -15   1   3   93.69   18.30
  13  -1  -3  106.19   14.30
  13  -1  -3  124.19   14.40
  13  -1  -3  140.59   15.10
  13  -1  -3  135.39   14.20
 -13   1   3  143.29   19.40
 -13   1   3  155.48   18.00
  11  -1  -3   -5.30    6.80
  11  -1  -3    2.20    7.30
  11  -1  -3   10.60    7.80
  11  -1  -3    9.10    4.00
 -11   1   3   20.90   11.90
 -11   1   3    7.00    9.90
 -11   1   3    5.50    9.70
   9  -1  -3   47.60    7.70
   9  -1  -3   55.19    8.30
   9  -1  -3   55.69    5.10
   9  -1  -3   64.09    6.80
  -9   1   3   48.20   11.00
  -9   1   3   43.50    7.30
  -9   1   3   58.69    4.60
  -9   1   3   42.00    9.60
  -9   1   3   42.00    9.00
   7  -1  -3  410.56   18.10
   7  -1  -3  423.56   20.30
   7  -1  -3  397.46   20.10
   7  -1  -3  439.06   18.20
   7  -1  -3  423.16   21.70
   7  -1  -3  441.16   18.50
  -7   1   3  432.56   20.50
  -7   1   3  439.46   19.00
  -7   1   3  405.36   22.40
  -7   1   3  401.76   21.00
  -7   1   3  380.16   18.60
  -7   1   3  458.35   19.20
  -7   1   3  419.36   16.50
   5  -1  -3   62.39    6.10
   5  -1  -3   59.29    5.70
   5  -1  -3   64.79    8.70
   5  -1  -3   70.49    7.60
   5  -1  -3   51.69    5.60
   5  -1  -3   51.69    4.40
  -5   1   3   67.29    7.20
  -5   1   3   57.09    5.40
  -5   1   3   55.49    5.60
  -5   1   3   50.19    5.20
  -5   1   3   70.39    7.80
  -5   1   3   65.69    8.80
   3  -1  -3 2512.05   86.39
   3  -1  -3 2305.47   86.29
   3  -1  -3 2396.76   85.19
   3  -1  -3 2381.66   84.79
   3  -1  -3 2424.56   86.49
   3  -1  -3 2538.85   87.89
   3  -1  -3 2523.15   85.39
  -3   1   3 2501.65   85.29
  -3   1   3 2669.33   86.89
  -3   1   3 2348.57   87.49
  -3   1   3 2526.75   87.89
  -3   1   3 2318.07   83.69
  -3   1   3 2444.66   86.29
   1  -1  -3   56.79    7.50
   1  -1  -3   61.59    6.60
   1  -1  -3   58.89    3.10
   1  -1  -3   63.29    4.80
   1  -1  -3   67.49    6.40
   1  -1  -3   54.49    5.80
   1  -1  -3   49.10    5.10
  -1   1   3   57.79    5.60
  -1   1   3   67.69    7.30
  -1   1   3   54.49    5.70
  -1   1   3   66.09    5.10
  -1   1   3   49.30    5.20
  -1   1   3   70.49    7.90
  -1  -1  -3  136.19    9.40
  -1  -1  -3  132.89   11.30
  -1  -1  -3  135.59    8.00
  -1  -1  -3  150.68    7.90
  -1  -1  -3  152.08    9.80
  -1  -1  -3  122.39    8.10
  -1  -1  -3  133.99    5.80
   1   1   3  141.49    7.30
   1   1   3  127.39   10.90
   1   1   3  132.29    9.00
   1   1   3  141.39    5.90
   1   1   3  141.89   10.80
   1   1   3  146.69    9.90
  -3  -1  -3   37.60    6.00
  -3  -1  -3   47.30    9.90
  -3  -1  -3   45.20    6.70
  -3  -1  -3   38.30    7.50
  -3  -1  -3   24.50    4.90
  -3  -1  -3   32.40    5.40
   3   1   3   30.50    6.20
   3   1   3   25.50    6.80
   3   1   3   26.60    6.30
   3   1   3   50.89    4.60
   3   1   3   57.29    8.50
   3   1   3   32.40    3.50
  -5  -1  -3    6.50    4.10
  -5  -1  -3    3.10    6.50
  -5  -1  -3   14.10    9.40
  -5  -1  -3    5.10    8.70
   5   1   3    8.20    6.90
   5   1   3   11.00    6.70
   5   1   3    1.20    3.30
   5   1   3    7.80    3.80
  -7  -1  -3  131.89   11.70
  -7  -1  -3  107.09   12.70
  -7  -1  -3   95.19   13.70
  -7  -1  -3  104.59   16.00
   7   1   3  121.89   11.30
   7   1   3   95.89   11.40
   7   1   3   94.89   11.90
  -9  -1  -3  139.29   18.50
  -9  -1  -3  183.68   21.60
  -9  -1  -3  138.99   16.10
   9   1   3  158.68   15.00
   9   1   3  164.68   15.50
   9   1   3  165.58   16.50
 -11  -1  -3  131.09   23.70
 -11  -1  -3  120.09   19.10
 -11  -1  -3  102.99   35.40
  11   1   3   67.79   13.70
  11   1   3  128.79   18.00
  11   1   3   92.79   16.30
 -13  -1  -3   99.49   30.40
 -13  -1  -3   84.29   25.20
 -13  -1  -3   62.59   21.80
  13   1   3   49.80   19.40
  13   1   3   95.19   22.10
 -15  -1  -3  112.19   41.50
 -15  -1  -3   23.40   35.40
 -15  -1  -3   20.90   29.50
  15   1   3   76.39   29.40
  15   1   3  116.99   29.30
  18  -2  -3    9.40   19.10
  18  -2  -3   -3.20   21.40
 -18   2   3   29.30   23.40
 -18   2   3   42.90   27.20
 -18   2   3   39.50   38.10
 -18   2   3   24.70   19.00
  16  -2  -3   16.70   15.60
  16  -2  -3  -10.90   12.00
  16  -2  -3   16.10   16.00
  16  -2  -3   19.30   17.40
 -16   2   3   26.00   28.70
 -16   2   3    2.90   17.20
 -16   2   3   15.40   13.80
 -16   2   3    9.20   21.40
  14  -2  -3  125.19   11.70
  14  -2  -3  132.89   10.40
  14  -2  -3  115.39   15.10
  14  -2  -3  134.89   16.90
  14  -2  -3  114.39   15.60
 -14   2   3  135.19   19.30
 -14   2   3  116.99   21.00
  12  -2  -3  166.68   16.20
  12  -2  -3  155.68   14.20
  12  -2  -3  193.28    9.70
  12  -2  -3  202.98   18.40
  12  -2  -3  199.48   17.10
 -12   2   3  149.88   17.50
 -12   2   3  217.58   23.30
  10  -2  -3  500.35   21.00
  10  -2  -3  471.25   22.20
  10  -2  -3  496.85   24.40
  10  -2  -3  457.75   22.60
  10  -2  -3  498.85   18.40
 -10   2   3  411.56   25.10
 -10   2   3  481.15   28.00
 -10   2   3  464.75   25.80
   8  -2  -3  709.13   27.60
   8  -2  -3  723.93   28.80
   8  -2  -3  658.63   27.40
   8  -2  -3  701.03   25.00
   8  -2  -3  648.44   29.40
   8  -2  -3  716.53   25.20
  -8   2   3  672.53   32.60
  -8   2   3  724.23   28.70
  -8   2   3  685.13   25.20
  -8   2   3  726.63   29.40
  -8   2   3  645.14   30.70
   6  -2  -3  492.65   21.00
   6  -2  -3  463.65   22.00
   6  -2  -3  480.75   22.20
   6  -2  -3  534.95   24.00
   6  -2  -3  508.35   18.20
   6  -2  -3  494.65   19.40
   6  -2  -3  522.35   20.70
  -6   2   3  470.55   20.10
  -6   2   3  496.75   20.50
  -6   2   3  473.35   24.70
  -6   2   3  499.65   23.50
  -6   2   3  505.05   22.50
  -6   2   3  504.65   21.50
  -6   2   3  489.95   20.10
   4  -2  -3   63.69    8.20
   4  -2  -3   53.69    5.80
   4  -2  -3   69.79    7.20
   4  -2  -3   63.29    6.30
   4  -2  -3   43.70    5.40
   4  -2  -3   59.59    4.20
  -4   2   3   61.19    6.90
  -4   2   3   57.79    5.60
  -4   2   3   51.79    8.30
  -4   2   3   49.30    6.10
  -4   2   3   49.00    7.20
  -4   2   3   55.69    5.80
   2  -2  -3    7.70    2.80
   2  -2  -3    1.40    3.60
   2  -2  -3    8.80    3.50
   2  -2  -3    4.40    3.60
   2  -2  -3    0.30    5.30
   2  -2  -3    7.40    2.50
  -2   2   3    8.50    3.60
  -2   2   3    5.80    3.00
  -2   2   3    6.30    5.20
  -2   2   3    5.80    3.70
  -2   2   3   11.00    4.90
  -2   2   3    5.90    2.60
   0  -2  -3   96.69   10.10
   0  -2  -3   91.29    9.60
   0  -2  -3   84.59    7.60
   0  -2  -3   87.79    6.40
   0  -2  -3  100.69    8.20
   0  -2  -3  104.09    6.90
   0  -2  -3   89.49    5.40
   0   2   3   84.59    7.10
   0   2   3   98.69    8.80
   0   2   3   78.99    7.30
   0   2   3  108.19    8.00
   0   2   3   90.39    6.90
   0   2   3   84.89    6.30
   0   2   3  100.69    6.50
  -2  -2  -3  461.05   18.00
  -2  -2  -3  462.85   19.80
  -2  -2  -3  337.47   22.00
  -2  -2  -3  441.26   19.40
  -2  -2  -3  441.36   17.70
   2   2   3  417.06   19.80
   2   2   3  419.06   15.50
   2   2   3  421.16   19.70
   2   2   3  397.86   19.30
   2   2   3  446.16   17.40
   2   2   3  430.56   20.40
  -4  -2  -3  257.17   15.30
  -4  -2  -3  237.18   13.30
  -4  -2  -3  232.88   17.80
  -4  -2  -3  283.67   14.60
  -4  -2  -3  254.37   16.60
   4   2   3  227.48   15.40
   4   2   3  282.97   12.50
   4   2   3  249.48   16.60
   4   2   3  254.87   11.20
   4   2   3  238.28   15.50
  -6  -2  -3  -13.20    8.80
  -6  -2  -3   -1.80    3.80
  -6  -2  -3  -10.70    9.50
  -6  -2  -3   -7.20    4.00
  -6  -2  -3   -2.10    6.60
   6   2   3   -0.40    4.90
   6   2   3    7.80    7.50
   6   2   3    5.10    7.70
  -8  -2  -3   15.30   10.20
  -8  -2  -3   20.00   13.30
  -8  -2  -3   16.80    6.50
  -8  -2  -3   13.30    6.30
  -8  -2  -3   14.90   12.40
   8   2   3   10.00    7.00
   8   2   3   12.20   10.00
   8   2   3    9.00    9.90
 -10  -2  -3   17.00   13.40
 -10  -2  -3    4.00   16.30
 -10  -2  -3   -5.40    8.10
 -10  -2  -3   20.50   15.30
  10   2   3   35.00   12.70
  10   2   3   24.60   12.70
  10   2   3   34.10   10.20
 -12  -2  -3   38.30   19.80
 -12  -2  -3   20.40   17.50
 -12  -2  -3   30.40   23.40
  12   2   3   21.90   18.20
  12   2   3   22.30   17.00
  12   2   3   43.80   15.30
 -14  -2  -3  104.69   28.70
 -14  -2  -3   83.29   25.90
 -14  -2  -3  221.68   37.50
  14   2   3  148.19   27.60
  14   2   3  123.89   24.20
  19  -3  -3   34.30   38.90
  19  -3  -3   82.49   26.70
 -19   3   3  121.79   47.70
 -19   3   3   72.59   34.30
  17  -3  -3   12.90   22.30
  17  -3  -3    7.80   17.60
  17  -3  -3   38.70   17.00
 -17   3   3   49.00   16.90
 -17   3   3   55.29   25.90
 -17   3   3   67.19   33.30
 -17   3   3   46.80   22.40
  15  -3  -3   73.49   16.70
  15  -3  -3  108.69   13.20
  15  -3  -3  102.09   19.20
 -15   3   3  103.49   22.30
 -15   3   3   98.99   19.50
  13  -3  -3    9.00   10.20
  13  -3  -3   12.30    9.70
  13  -3  -3   14.40    3.40
  13  -3  -3   21.30    7.20
  13  -3  -3   16.00   10.30
 -13   3   3    9.00   15.50
 -13   3   3   10.20   12.60
  11  -3  -3  164.18   15.30
  11  -3  -3  151.78   14.50
  11  -3  -3  153.38   12.40
  11  -3  -3  167.18    6.70
  11  -3  -3  150.08   11.50
  11  -3  -3  156.58   13.80
 -11   3   3  123.19   17.30
 -11   3   3  142.69   15.40
   9  -3  -3   -0.60    2.40
   9  -3  -3   -3.80    5.10
   9  -3  -3   -3.50    5.10
   9  -3  -3   13.50    7.00
   9  -3  -3   -5.60    5.50
   9  -3  -3   -2.20    5.50
  -9   3   3   15.40    8.70
  -9   3   3    4.30    6.90
  -9   3   3    5.60    2.00
  -9   3   3   -3.70    9.60
  -9   3   3   -8.20    8.40
   7  -3  -3  401.46   19.20
   7  -3  -3  391.06   19.90
   7  -3  -3  421.26   14.70
   7  -3  -3  401.76   16.70
   7  -3  -3  390.16   17.80
   7  -3  -3  412.76   18.20
   7  -3  -3  418.56   21.60
  -7   3   3  386.26   17.20
  -7   3   3  436.86   18.10
  -7   3   3  419.16   18.80
  -7   3   3  422.76   19.70
  -7   3   3  401.16   21.10
  -7   3   3  356.96   21.10
  -7   3   3  390.26   22.70
   5  -3  -3  156.58   12.60
   5  -3  -3  159.88    6.80
   5  -3  -3  160.68    7.10
   5  -3  -3  139.79    9.80
   5  -3  -3  153.38    8.30
   5  -3  -3  158.28   10.80
  -5   3   3  148.39   10.40
  -5   3   3  139.59   12.80
  -5   3   3  167.48   11.00
  -5   3   3  156.88    9.20
  -5   3   3  162.08    7.90
  -5   3   3  177.98    9.70
   3  -3  -3  293.57   14.30
   3  -3  -3  248.58   13.40
   3  -3  -3  267.27   10.80
   3  -3  -3  273.87   12.60
   3  -3  -3  267.37   12.50
   3  -3  -3  274.87   11.70
   3  -3  -3  298.47   13.60
  -3   3   3  270.17   11.50
  -3   3   3  275.17   13.20
  -3   3   3  276.27   12.60
  -3   3   3  300.07   14.50
  -3   3   3  269.87   10.20
  -3   3   3  295.77   15.10
  -3   3   3  278.57   13.40
  -3   3   3  237.08   16.00
   1  -3  -3  107.49    7.10
   1  -3  -3  126.79    9.20
   1  -3  -3   83.09    9.40
   1  -3  -3  103.09    6.40
   1  -3  -3  103.39    4.90
   1  -3  -3   88.89    7.60
  -1   3   3  105.19    7.60
  -1   3   3  107.29    7.20
  -1   3   3  107.59    9.90
  -1   3   3  103.59    7.00
  -1  -3  -3  542.85   20.80
  -1  -3  -3  546.95   22.70
  -1  -3  -3  521.85   24.00
  -1  -3  -3  504.25   23.60
  -1  -3  -3  568.14   23.40
  -1  -3  -3  538.55   20.40
   1   3   3  538.45   23.60
   1   3   3  533.35   21.30
   1   3   3  531.45   23.20
   1   3   3  565.14   22.30
   1   3   3  512.25   23.40
   1   3   3  545.35   22.90
  -3  -3  -3   42.60    9.70
  -3  -3  -3   38.40    5.10
  -3  -3  -3   49.30    8.90
  -3  -3  -3   38.70    4.70
  -3  -3  -3   44.40    6.20
  -3  -3  -3   36.70    6.90
   3   3   3   37.90    5.20
   3   3   3   35.80    7.40
   3   3   3   46.30    8.70
   3   3   3   36.80    7.90
   3   3   3   34.20    3.50
  -5  -3  -3   53.99    7.10
  -5  -3  -3   50.99    6.90
  -5  -3  -3   47.30   10.00
  -5  -3  -3   63.59   11.80
  -5  -3  -3   53.49    8.80
  -5  -3  -3   62.59    6.00
   5   3   3   56.39   10.10
   5   3   3   59.19    9.70
   5   3   3   49.99   11.00
   5   3   3   52.39    5.20
   5   3   3   62.49    6.60
  -7  -3  -3   11.30   10.70
  -7  -3  -3    0.60    9.30
  -7  -3  -3    8.60    4.10
  -7  -3  -3    4.00   10.80
  -7  -3  -3   10.80    6.70
   7   3   3   12.40    6.00
   7   3   3   13.30    9.40
   7   3   3    0.90    8.60
   7   3   3    8.20    6.30
  -9  -3  -3   95.49   10.80
  -9  -3  -3   98.39   17.50
  -9  -3  -3   95.19   17.90
  -9  -3  -3   94.39   15.10
   9   3   3   94.89   11.00
   9   3   3   85.39   14.50
   9   3   3   94.89   14.30
 -11  -3  -3   28.70   10.40
 -11  -3  -3    7.30   19.00
 -11  -3  -3    0.00   17.20
 -11  -3  -3   10.40   23.90
  11   3   3   11.50   15.70
  11   3   3  -15.50   16.70
  11   3   3  -21.40   11.20
 -13  -3  -3   18.20   29.40
 -13  -3  -3   31.90   21.90
 -13  -3  -3   -4.60   21.80
  13   3   3   51.59   18.00
  13   3   3   29.30   22.60
  13   3   3  -21.50   19.20
 -15  -3  -3  -10.70   30.70
  15   3   3    4.60   28.40
  18  -4  -3   -4.70   22.80
  18  -4  -3   47.20   21.00
 -18   4   3   22.40   23.60
 -18   4   3   43.30   39.40
 -18   4   3   41.10   26.00
  16  -4  -3   28.50   17.00
  16  -4  -3   76.19   18.90
  16  -4  -3   33.30   13.70
 -16   4   3   19.20   18.70
 -16   4   3  100.19   34.10
 -16   4   3   57.99   25.00
  14  -4  -3  109.69   11.20
  14  -4  -3  102.29   14.40
  14  -4  -3   70.09   15.00
 -14   4   3  123.19   23.20
 -14   4   3   98.19   17.20
  12  -4  -3  135.69   12.80
  12  -4  -3  146.39   14.50
  12  -4  -3  118.79   14.40
  12  -4  -3  137.09   11.30
 -12   4   3  107.29   15.70
 -12   4   3  140.29   20.00
  10  -4  -3  110.49   12.20
  10  -4  -3   95.29   10.30
  10  -4  -3   96.79    8.80
  10  -4  -3  100.99    6.90
  10  -4  -3  101.89    9.80
 -10   4   3   97.89   13.80
 -10   4   3  104.49   11.10
 -10   4   3   88.49   15.00
   8  -4  -3  418.66   21.30
   8  -4  -3  442.26   16.30
   8  -4  -3  422.56   18.30
   8  -4  -3  439.06   20.00
   8  -4  -3  416.06   22.00
   8  -4  -3  441.86   19.10
  -8   4   3  399.96   24.80
  -8   4   3  432.76   17.00
  -8   4   3  426.36   18.10
  -8   4   3  454.55   20.00
  -8   4   3  428.26   24.20
   6  -4  -3  130.49   14.10
   6  -4  -3  145.59   11.50
   6  -4  -3  122.99   10.80
   6  -4  -3  143.09    9.50
  -6   4   3  146.29   11.20
  -6   4   3  133.79    8.20
  -6   4   3  128.39   13.70
  -6   4   3  134.09   10.90
  -6   4   3  133.09    8.80
  -6   4   3  130.79   10.20
   4  -4  -3   46.40    5.70
   4  -4  -3   46.40    6.10
   4  -4  -3   31.60    5.60
   4  -4  -3   43.10    4.20
   4  -4  -3   38.20    6.30
   4  -4  -3   47.40    4.10
  -4   4   3   38.90    5.40
  -4   4   3   42.10    2.60
  -4   4   3   48.20    3.80
  -4   4   3   31.20    7.30
  -4   4   3   51.39    6.80
  -4   4   3   38.60    6.30
  -4   4   3   49.20    5.70
   2  -4  -3  534.45   20.20
   2  -4  -3  520.25   22.60
   2  -4  -3  479.25   19.30
   2  -4  -3  523.85   21.50
   2  -4  -3  464.75   21.70
   2  -4  -3  490.15   20.80
   2  -4  -3  509.85   18.00
  -2   4   3  503.55   19.80
  -2   4   3  479.55   19.70
  -2   4   3  512.85   20.40
  -2   4   3  491.85   23.40
  -2   4   3  503.35   22.70
  -2   4   3  508.75   22.40
  -2   4   3  493.65   20.40
   0  -4  -3  197.08   13.10
   0  -4  -3  188.28   11.10
   0  -4  -3  213.58   12.60
   0  -4  -3  200.38   11.10
   0  -4  -3  192.58    8.30
   0  -4  -3  195.18   10.30
   0  -4  -3  190.28    8.60
   0  -4  -3  160.98   12.20
   0   4   3  194.08   12.80
   0   4   3  191.58   12.70
   0   4   3  206.08   11.10
   0   4   3  194.38   10.20
   0   4   3  175.18   10.80
  -2  -4  -3  489.15   19.60
  -2  -4  -3  470.35   20.10
  -2  -4  -3  466.35   21.60
  -2  -4  -3  456.85   22.00
  -2  -4  -3  450.95   21.00
  -2  -4  -3  475.95   17.60
  -2  -4  -3  426.26   22.50
   2   4   3  484.95   21.70
   2   4   3  456.85   21.70
   2   4   3  474.95   16.20
   2   4   3  466.95   19.50
   2   4   3  422.66   21.60
   2   4   3  469.55   22.10
  -4  -4  -3  327.37   14.30
  -4  -4  -3  313.87   18.30
  -4  -4  -3  330.37   16.70
  -4  -4  -3  350.66   17.60
  -4  -4  -3  308.87   19.60
   4   4   3  314.37   16.90
   4   4   3  324.47   20.20
   4   4   3  351.96   16.00
   4   4   3  313.67   19.00
   4   4   3  350.16   13.40
   4   4   3  326.67   19.10
  -6  -4  -3  191.98   14.70
  -6  -4  -3  220.88   17.80
  -6  -4  -3  252.77   13.50
  -6  -4  -3  189.98   17.60
  -6  -4  -3  220.08    9.20
   6   4   3  234.98   11.90
   6   4   3  231.98   22.30
   6   4   3  195.28   18.40
   6   4   3  238.08   18.70
   6   4   3  218.48   14.50
  -8  -4  -3  183.48   18.50
  -8  -4  -3  105.59   14.20
  -8  -4  -3  160.48   15.00
  -8  -4  -3  159.08   17.70
  -8  -4  -3  149.29   14.80
   8   4   3  130.59   15.70
   8   4   3  164.48   16.60
   8   4   3  128.09   13.30
 -10  -4  -3   76.79   15.80
 -10  -4  -3   95.59   19.20
 -10  -4  -3  103.39   19.40
 -10  -4  -3   74.29   12.20
  10   4   3   78.29   12.30
  10   4   3   88.49   16.50
  10   4   3   80.19   17.10
 -12  -4  -3    9.40   19.90
 -12  -4  -3    0.90   17.10
 -12  -4  -3    1.70   23.80
  12   4   3   13.20   17.70
  12   4   3   10.50   19.80
  12   4   3   18.80   14.60
 -14  -4  -3   18.00   24.70
 -14  -4  -3  -73.69   24.60
  14   4   3   -5.00   23.60
  19  -5  -3  220.98   33.40
 -19   5   3  239.98   52.89
 -19   5   3  146.59   33.90
  17  -5  -3   81.79   20.40
  17  -5  -3  109.99   23.10
 -17   5   3  136.29   40.20
 -17   5   3   72.49   29.20
 -17   5   3  106.99   25.50
  15  -5  -3  155.68   19.70
  15  -5  -3  127.69   19.40
  15  -5  -3  147.59   14.50
 -15   5   3  104.59   20.10
 -15   5   3  123.59   26.30
  13  -5  -3   40.70   11.80
  13  -5  -3   27.80   12.50
  13  -5  -3   30.60    7.80
 -13   5   3   30.10   13.90
 -13   5   3   20.90   16.40
  11  -5  -3  107.39   12.70
  11  -5  -3  120.79   13.80
  11  -5  -3  110.99    9.70
 -11   5   3  111.69   17.50
 -11   5   3  102.89   14.90
   9  -5  -3  138.09   15.00
   9  -5  -3  128.29   12.90
   9  -5  -3  125.99   12.30
   9  -5  -3  130.39    7.50
   9  -5  -3  168.58   11.20
  -9   5   3  131.09    7.20
  -9   5   3  163.68   16.00
  -9   5   3  137.39   12.60
  -9   5   3  136.99    9.00
  -9   5   3  130.09   16.50
   7  -5  -3   33.30    5.80
   7  -5  -3   35.60    7.00
   7  -5  -3   35.10    3.20
   7  -5  -3   38.10    6.10
   7  -5  -3   37.20    7.60
  -7   5   3   31.70    9.70
  -7   5   3   35.90    5.30
  -7   5   3   37.00   11.00
  -7   5   3   55.09   10.00
  -7   5   3   47.80    5.20
  -7   5   3   35.60    5.70
   5  -5  -3 1027.50   37.80
   5  -5  -3 1094.79   39.10
   5  -5  -3  972.70   40.30
   5  -5  -3 1040.60   40.50
  -5   5   3 1067.69   40.10
  -5   5   3 1049.99   35.90
  -5   5   3 1025.70   40.80
  -5   5   3 1009.30   38.60
  -5   5   3  965.40   41.80
  -5   5   3 1053.99   36.20
  -5   5   3  999.30   39.00
   3  -5  -3  531.65   19.20
   3  -5  -3  562.54   22.10
   3  -5  -3  506.55   23.00
   3  -5  -3  482.95   22.20
   3  -5  -3  535.25   20.20
   3  -5  -3  470.35   21.50
  -3   5   3  538.25   21.10
  -3   5   3  503.25   22.30
  -3   5   3  439.26   19.80
  -3   5   3  538.15   21.50
  -3   5   3  485.35   24.50
  -3   5   3  521.55   19.80
  -3   5   3  506.15   23.20
  -3   5   3  527.65   23.90
  -3   5   3  539.45   21.40
   1  -5  -3 1317.77   47.50
   1  -5  -3 1267.67   43.40
   1  -5  -3 1213.88   48.00
   1  -5  -3 1197.38   46.00
   1  -5  -3 1203.08   46.70
   1  -5  -3 1328.47   46.70
  -1   5   3 1258.47   46.40
  -1   5   3 1213.38   46.00
  -1   5   3 1273.97   47.80
  -1   5   3 1295.57   44.30
  -1   5   3 1252.07   46.20
  -1  -5  -3    4.00    2.90
  -1  -5  -3    1.80    5.40
  -1  -5  -3    3.60    3.30
  -1  -5  -3   -3.20    5.90
  -1  -5  -3   -4.30    6.10
  -1  -5  -3   -1.80    4.20
  -1  -5  -3    4.90    5.50
   1   5   3   -3.20    5.70
   1   5   3   -4.80    6.00
   1   5   3   -0.60    6.00
   1   5   3    1.90    5.10
   1   5   3    3.60    5.50
   1   5   3    3.70    4.20
   1   5   3    1.10    2.60
  -3  -5  -3   23.40    2.30
  -3  -5  -3   19.00    6.20
  -3  -5  -3   27.60    6.30
  -3  -5  -3   23.40    3.30
  -3  -5  -3   22.80    8.40
  -3  -5  -3   23.20    2.50
  -3  -5  -3   18.20    6.70
   3   5   3   29.20    8.20
   3   5   3   16.80    7.40
   3   5   3   19.30    2.60
   3   5   3   31.50    7.90
   3   5   3   18.40    5.60
  -5  -5  -3   19.40    9.30
  -5  -5  -3   15.60    3.70
  -5  -5  -3   -1.20    6.40
  -5  -5  -3   15.10    8.10
  -5  -5  -3   13.50    4.00
   5   5   3    2.00    8.40
   5   5   3    4.00    6.40
   5   5   3   13.50    3.60
   5   5   3   21.10    9.80
   5   5   3   10.10    8.20
  -7  -5  -3   74.89    9.20
  -7  -5  -3   59.19   12.70
  -7  -5  -3   63.49   10.00
  -7  -5  -3   61.49   11.20
   7   5   3   51.49   11.40
   7   5   3   53.09    7.60
   7   5   3   48.10   10.10
   7   5   3   55.99   12.90
  -9  -5  -3  194.38   18.90
  -9  -5  -3  271.77   23.90
  -9  -5  -3  179.38   18.70
   9   5   3  200.28   17.10
   9   5   3  196.28   20.70
   9   5   3  210.58   21.30
 -11  -5  -3  151.68   23.30
 -11  -5  -3   88.19   15.50
 -11  -5  -3   94.99   20.40
  11   5   3  101.79   18.60
  11   5   3  120.99   21.40
  11   5   3   65.99   14.40
 -13  -5  -3  134.09   24.60
  13   5   3  133.89   24.90
  13   5   3  113.99   29.00
  18  -6  -3   36.70   22.70
  18  -6  -3   39.40   25.40
 -18   6   3   34.30   30.60
 -18   6   3   55.69   43.90
 -18   6   3   10.70   25.80
  16  -6  -3   35.40   18.80
  16  -6  -3   25.50   15.20
  16  -6  -3   32.20   16.70
 -16   6   3   18.30   35.20
 -16   6   3    8.40   19.10
 -16   6   3  -14.40   23.40
  14  -6  -3    2.10   13.90
  14  -6  -3    0.10   11.70
  14  -6  -3    0.30    9.20
 -14   6   3  -25.10   18.70
 -14   6   3   -8.00   14.90
  12  -6  -3  120.99   11.50
  12  -6  -3  113.89   14.00
  12  -6  -3   88.69   14.30
 -12   6   3   71.09   14.70
 -12   6   3   93.29   19.00
  10  -6  -3    6.10    6.30
  10  -6  -3   16.80    8.40
  10  -6  -3   10.20    8.90
  10  -6  -3   14.50    4.30
 -10   6   3    9.40   13.80
 -10   6   3   28.80   11.60
 -10   6   3   -5.00    8.20
   8  -6  -3  154.08    8.20
   8  -6  -3  185.48   11.60
   8  -6  -3  170.48   12.90
   8  -6  -3  143.79   14.80
   8  -6  -3  135.29   13.90
  -8   6   3  152.78   10.00
  -8   6   3  197.58   19.90
  -8   6   3  167.08   12.30
  -8   6   3  182.28   10.20
  -8   6   3  187.98   17.60
   6  -6  -3   36.50    3.50
   6  -6  -3   26.10    6.60
   6  -6  -3   31.50    6.10
   6  -6  -3   27.40    7.00
   6  -6  -3   29.40    5.50
  -6   6   3   29.90    9.30
  -6   6   3   31.50    5.50
  -6   6   3   27.90    5.10
  -6   6   3   51.89    8.90
   4  -6  -3   14.80    5.30
   4  -6  -3   11.60    3.00
   4  -6  -3    6.40    5.50
   4  -6  -3    8.30    5.40
   4  -6  -3    5.40    5.10
  -4   6   3   15.70    8.00
  -4   6   3    6.40    5.50
  -4   6   3   16.70    5.00
  -4   6   3    6.90    4.80
  -4   6   3   17.50    6.60
  -4   6   3   13.00    2.70
  -4   6   3   15.60    4.40
  -4   6   3    5.40    5.50
  -4   6   3   11.90    6.60
  -4   6   3   10.70    2.70
   2  -6  -3   15.30    4.90
   2  -6  -3   16.30    6.50
   2  -6  -3    9.00    4.90
   2  -6  -3   19.40    2.60
  -2   6   3   17.70    5.10
  -2   6   3   21.30    5.00
  -2   6   3   18.00    3.70
  -2   6   3   23.50    7.60
  -2   6   3   20.60    6.50
  -2   6   3   10.40    6.70
  -2   6   3   14.20    3.80
  -2   6   3   11.30    4.50
   0  -6  -3   24.80    3.50
   0  -6  -3   48.60    7.20
   0  -6  -3   26.00    4.10
   0  -6  -3   31.90    7.80
   0  -6  -3   19.80    5.80
   0   6   3   29.30    2.60
   0   6   3   24.90    6.10
   0   6   3   29.10    5.40
   0   6   3   28.20    8.10
   0   6   3   30.10    3.30
   0   6   3   19.20    5.60
   0   6   3   25.60    7.20
  -2  -6  -3   74.69    8.70
  -2  -6  -3   80.89    6.10
  -2  -6  -3   74.19    7.50
  -2  -6  -3   70.89    8.00
  -2  -6  -3   63.49    9.30
  -2  -6  -3   99.59   10.20
   2   6   3   77.59    9.80
   2   6   3   77.19    7.40
   2   6   3   67.79    4.10
   2   6   3   74.89    9.40
   2   6   3   79.59    9.00
   2   6   3   65.79   10.00
  -4  -6  -3   -5.80    6.90
  -4  -6  -3    1.40    1.60
  -4  -6  -3   10.80    8.90
  -4  -6  -3    6.30    8.20
  -4  -6  -3    5.60    6.70
  -4  -6  -3   -2.00    6.60
   4   6   3    2.80    7.30
   4   6   3   11.00    7.90
   4   6   3    3.30    2.90
   4   6   3   -7.30    8.80
   4   6   3    0.50    5.90
  -6  -6  -3    1.50    8.20
  -6  -6  -3   -3.90    8.00
  -6  -6  -3    1.90    9.30
  -6  -6  -3    1.40    4.90
  -6  -6  -3    3.60    3.40
  -6  -6  -3    2.60    9.90
   6   6   3    2.10    9.30
   6   6   3   12.80   11.90
   6   6   3   -6.80    7.70
   6   6   3    4.10   11.90
   6   6   3    8.10    4.40
  -8  -6  -3   38.40   12.50
  -8  -6  -3   76.09    8.70
  -8  -6  -3   44.20   13.10
  -8  -6  -3   40.10   11.20
   8   6   3   68.79   13.10
   8   6   3   54.59   15.10
   8   6   3   47.30   13.90
   8   6   3   58.59    8.90
 -10  -6  -3   27.10   16.60
 -10  -6  -3   -1.40   12.50
  10   6   3   12.10   17.10
  10   6   3   11.30   11.10
 -12  -6  -3   41.20   17.80
 -12  -6  -3   63.49   20.90
  12   6   3   79.39   17.60
  12   6   3   54.19   24.80
  12   6   3   51.89   20.90
 -14  -6  -3   24.80   33.10
 -14  -6  -3   63.49   26.90
  14   6   3   49.30   33.90
  14   6   3   42.60   26.80
  17  -7  -3   41.60   22.50
  17  -7  -3   94.99   21.30
 -17   7   3    3.90   34.40
 -17   7   3   54.19   27.60
 -17   7   3  -18.60   23.10
  15  -7  -3    9.00   14.70
  15  -7  -3   11.20   12.60
  15  -7  -3   19.40   17.20
 -15   7   3   -5.30   30.90
 -15   7   3  -19.80   16.80
 -15   7   3    2.40   21.80
  13  -7  -3   73.99   13.90
  13  -7  -3   69.39   10.30
  13  -7  -3   90.29   16.80
 -13   7   3   81.79   20.90
 -13   7   3   83.19   17.10
  11  -7  -3    0.00    9.60
  11  -7  -3    2.80    8.90
  11  -7  -3    5.50    6.10
  11  -7  -3   12.30    6.20
 -11   7   3    1.90   12.80
 -11   7   3    1.30   15.40
   9  -7  -3  547.75   27.50
   9  -7  -3  549.65   22.90
   9  -7  -3  500.55   27.00
   9  -7  -3  513.05   24.90
   9  -7  -3  513.75   20.60
  -9   7   3  524.05   24.10
  -9   7   3  525.35   21.00
  -9   7   3  520.55   29.30
  -9   7   3  494.15   32.50
  -9   7   3  499.45   20.40
   7  -7  -3   98.29    6.60
   7  -7  -3  102.09    9.30
   7  -7  -3   90.09   10.90
   7  -7  -3  100.39    9.10
   7  -7  -3   68.09    9.80
  -7   7   3   96.09   15.50
  -7   7   3   90.39    9.00
  -7   7   3  100.39   13.80
  -7   7   3  104.49    8.70
  -7   7   3   85.49    8.40
   5  -7  -3 1283.97   47.20
   5  -7  -3 1260.27   49.30
   5  -7  -3 1137.49   48.30
   5  -7  -3 1264.67   46.10
  -5   7   3 1241.08   46.70
  -5   7   3 1226.78   47.10
  -5   7   3 1302.37   44.50
  -5   7   3 1292.47   48.10
  -5   7   3 1257.47   43.80
  -5   7   3 1175.98   50.59
  -5   7   3 1309.07   43.80
   3  -7  -3  121.49   10.90
   3  -7  -3   99.79    9.80
   3  -7  -3   84.09    9.60
   3  -7  -3   98.89    6.70
  -3   7   3  119.39    7.80
  -3   7   3  123.59   12.60
  -3   7   3   98.19   10.10
  -3   7   3  118.89    7.80
  -3   7   3   99.59    9.70
  -3   7   3  127.69    9.50
  -3   7   3  119.79    7.50
  -3   7   3  119.69   11.00
  -3   7   3  114.59   13.40
   1  -7  -3 1359.76   55.29
   1  -7  -3 1464.55   56.49
   1  -7  -3 1449.15   55.29
   1  -7  -3 1577.24   55.09
  -1   7   3 1484.25   54.69
  -1   7   3 1553.34   51.29
  -1   7   3 1442.96   53.39
  -1   7   3 1423.96   55.79
  -1   7   3 1513.25   55.99
  -1   7   3 1489.75   51.09
  -1  -7  -3    7.50    6.20
  -1  -7  -3   10.50    4.20
  -1  -7  -3    9.60    6.20
  -1  -7  -3   -0.30    6.90
  -1  -7  -3   15.20    8.10
  -1  -7  -3    8.90    3.50
   1   7   3    5.40    8.40
   1   7   3   15.80    3.70
   1   7   3   10.20    2.40
   1   7   3   12.10    6.90
   1   7   3    9.20    7.50
  -3  -7  -3  262.97   18.00
  -3  -7  -3  272.07   15.80
  -3  -7  -3  309.37   17.70
  -3  -7  -3  278.87   11.50
  -3  -7  -3  272.17   17.30
   3   7   3  287.37   17.10
   3   7   3  287.97   19.10
   3   7   3  282.67   15.70
   3   7   3  286.07   20.50
  -5  -7  -3   95.09   11.60
  -5  -7  -3   85.69   11.80
  -5  -7  -3   93.09   12.80
  -5  -7  -3   86.79   11.10
   5   7   3   81.39   14.00
   5   7   3   80.69   10.70
   5   7   3  103.39   13.30
   5   7   3   91.79   12.30
  -7  -7  -3  150.78   15.00
  -7  -7  -3  140.69   16.40
  -7  -7  -3  123.59   16.10
  -7  -7  -3  136.29   14.70
   7   7   3  145.79   18.50
   7   7   3  157.78   12.80
   7   7   3  141.09   17.40
   7   7   3  130.99   14.60
  -9  -7  -3   79.89   15.70
  -9  -7  -3   71.09   16.50
  -9  -7  -3   62.59   14.00
  -9  -7  -3  102.39   17.50
   9   7   3  110.19   18.50
   9   7   3   89.49   11.70
   9   7   3   74.69   19.80
   9   7   3   95.49   15.60
 -11  -7  -3    9.70   16.70
 -11  -7  -3   12.00   19.30
 -11  -7  -3  -14.90   17.20
  11   7   3  -14.50   18.10
  11   7   3    5.00   13.50
  11   7   3  -27.20   21.10
 -13  -7  -3  105.09   31.50
 -13  -7  -3  165.28   27.80
  13   7   3  180.68   28.40
  13   7   3  205.18   34.10
  18  -8  -3   23.80   26.90
  18  -8  -3  -29.70   27.00
 -18   8   3    2.30   29.40
 -18   8   3    3.00   50.09
 -18   8   3   19.70   37.40
  16  -8  -3   42.70   19.70
  16  -8  -3   79.39   22.60
 -16   8   3   64.79   35.70
 -16   8   3   46.60   23.20
 -16   8   3   79.59   30.70
  14  -8  -3  169.18   23.80
  14  -8  -3  173.18   15.60
  14  -8  -3  171.38   20.20
 -14   8   3  195.68   28.50
 -14   8   3  194.98   23.90
  12  -8  -3  192.98   14.60
  12  -8  -3  174.28   16.90
  12  -8  -3  163.38   19.40
 -12   8   3  154.88   25.10
 -12   8   3  139.09   19.20
  10  -8  -3  173.18   12.10
  10  -8  -3  164.08   16.20
  10  -8  -3  152.08   16.00
 -10   8   3  171.38    9.50
 -10   8   3  166.38   22.20
 -10   8   3  185.48   19.10
 -10   8   3  172.28   15.60
   8  -8  -3  223.18   18.30
   8  -8  -3  224.48   18.70
   8  -8  -3  207.38   15.20
   8  -8  -3  218.68   11.40
  -8   8   3  215.58   13.50
  -8   8   3  195.48   21.80
  -8   8   3  231.88   12.00
  -8   8   3  253.27   21.20
  -8   8   3  229.78   14.30
   6  -8  -3  396.26   19.10
   6  -8  -3  377.96   22.20
   6  -8  -3  410.96   22.40
  -6   8   3  354.66   26.70
  -6   8   3  427.46   22.60
  -6   8   3  411.46   16.90
  -6   8   3  399.36   24.40
  -6   8   3  379.66   19.10
  -6   8   3  397.96   19.40
  -6   8   3  424.26   16.50
   4  -8  -3   62.29    9.70
   4  -8  -3   67.79    9.00
   4  -8  -3   73.99    9.20
  -4   8   3   78.49   13.00
  -4   8   3   72.89    9.00
  -4   8   3   73.39    7.50
  -4   8   3   69.49    6.50
  -4   8   3   71.39    7.30
  -4   8   3   84.79    8.90
  -4   8   3   71.59    9.00
   2  -8  -3  174.18   15.00
   2  -8  -3  181.18    9.10
   2  -8  -3  184.58   13.10
   2  -8  -3  183.38   12.80
  -2   8   3  178.98    6.90
  -2   8   3  184.68   10.00
  -2   8   3  155.48   12.60
  -2   8   3  196.98    9.90
  -2   8   3  171.58   15.00
  -2   8   3  178.78   10.90
  -2   8   3  153.48   13.90
   0  -8  -3  503.65   21.70
   0  -8  -3  504.65   23.80
   0  -8  -3  506.75   24.30
   0  -8  -3  479.55   23.70
   0  -8  -3  529.25   25.60
   0   8   3  530.05   19.80
   0   8   3  467.05   22.30
   0   8   3  496.95   24.20
   0   8   3  520.25   24.00
   0   8   3  544.65   19.40
   0   8   3  489.55   25.00
  -2  -8  -3  389.96   21.70
  -2  -8  -3  413.06   17.50
  -2  -8  -3  412.16   23.60
  -2  -8  -3  417.26   21.90
  -2  -8  -3  457.55   20.10
   2   8   3  438.26   19.10
   2   8   3  449.06   16.70
   2   8   3  426.16   23.50
   2   8   3  402.56   23.90
   2   8   3  452.85   21.20
  -4  -8  -3  500.95   25.00
  -4  -8  -3  496.15   26.30
  -4  -8  -3  510.95   26.80
  -4  -8  -3  477.95   25.80
   4   8   3  456.65   28.30
   4   8   3  497.45   23.90
   4   8   3  504.45   20.10
   4   8   3  523.95   28.00
   4   8   3  582.14   24.80
  -6  -8  -3  381.16   25.40
  -6  -8  -3  372.56   21.70
  -6  -8  -3  411.06   26.40
  -6  -8  -3  373.56   24.10
   6   8   3  485.85   24.80
   6   8   3  406.66   27.80
   6   8   3  422.36   23.70
   6   8   3  360.86   27.40
  -8  -8  -3  150.08   18.00
  -8  -8  -3  147.69   16.10
  -8  -8  -3  154.98   17.30
  -8  -8  -3  159.18   18.70
   8   8   3  153.48   21.60
   8   8   3  171.48   20.10
   8   8   3  145.39   16.70
   8   8   3  133.89   12.40
 -10  -8  -3   87.99   17.80
 -10  -8  -3  113.49   20.60
 -10  -8  -3  104.99   20.10
  10   8   3  114.09   14.30
  10   8   3   98.49   28.00
  10   8   3  121.59   22.20
  10   8   3  124.99   19.40
 -12  -8  -3   38.80   21.40
 -12  -8  -3   -6.30   23.70
 -12  -8  -3  -13.80   25.60
  12   8   3   44.20   29.30
  12   8   3   -0.10   21.90
  14   8   3   42.20   36.40
  17  -9  -3  -13.60   25.50
  17  -9  -3   91.29   24.90
 -17   9   3  123.59   46.90
 -17   9   3  126.89   34.40
 -17   9   3   44.80   28.60
  15  -9  -3  -12.60   18.90
  15  -9  -3  -46.10   15.40
 -15   9   3   19.90   26.90
 -15   9   3    5.00   27.10
 -15   9   3   32.90   35.80
  13  -9  -3  101.19   16.90
  13  -9  -3  112.79   12.80
 -13   9   3  117.39   19.70
  11  -9  -3   16.70   13.20
  11  -9  -3   20.10   10.70
  11  -9  -3    8.10    7.40
 -11   9   3   -2.20   17.40
 -11   9   3    9.40   14.50
   9  -9  -3    8.90   10.10
   9  -9  -3   12.60   10.20
   9  -9  -3   -0.30    8.00
   9  -9  -3    0.90    5.90
  -9   9   3   -5.90    4.50
  -9   9   3   -5.30   15.80
  -9   9   3   -1.60   11.70
  -9   9   3   -5.60    7.90
  -9   9   3    7.40    6.00
   7  -9  -3  221.98   12.00
   7  -9  -3  207.48   15.10
   7  -9  -3  217.38   18.60
   7  -9  -3  218.68   18.90
  -7   9   3  222.48   12.70
  -7   9   3  185.78   20.40
  -7   9   3  241.38   12.80
  -7   9   3  224.78   14.10
  -7   9   3  232.88   15.50
  -7   9   3  240.68   25.00
   5  -9  -3    7.40    7.40
   5  -9  -3   10.50    5.90
   5  -9  -3    2.00    6.60
  -5   9   3    2.60    6.40
  -5   9   3    2.10    3.00
  -5   9   3    6.50    5.00
  -5   9   3    6.00    3.10
  -5   9   3   -0.10    3.10
  -5   9   3   11.20    8.20
  -5   9   3    7.30    6.90
  -5   9   3    8.00    9.20
  -5   9   3   10.90    8.10
   3  -9  -3  336.17   20.40
   3  -9  -3  311.37   18.20
   3  -9  -3  308.97   18.20
   3  -9  -3  279.57   15.30
  -3   9   3  327.47   15.40
  -3   9   3  275.27   18.10
  -3   9   3  316.47   15.20
  -3   9   3  315.37   15.70
  -3   9   3  331.67   12.00
  -3   9   3  294.87   22.80
  -3   9   3  315.77   11.70
  -3   9   3  319.37   16.50
   1  -9  -3   49.20    8.60
   1  -9  -3   56.59    7.90
   1  -9  -3   69.99   10.30
  -1   9   3   75.19    6.40
  -1   9   3   67.49    4.40
  -1   9   3   65.29    4.00
  -1   9   3   82.19    8.10
  -1   9   3  100.09   11.60
  -1   9   3   73.39    9.80
  -1   9   3   69.09    5.90
  -1   9   3   62.49   10.10
  -1  -9  -3   45.30    8.70
  -1  -9  -3   50.29    9.70
  -1  -9  -3   63.49    6.50
  -1  -9  -3   42.00    9.30
   1   9   3   74.59   10.40
   1   9   3   69.49    6.40
   1   9   3   56.69    5.40
   1   9   3   33.70   10.20
   1   9   3   58.79   10.50
  -3  -9  -3   22.40    3.10
  -3  -9  -3   18.80    9.20
  -3  -9  -3   33.20    7.70
  -3  -9  -3   23.20    9.20
  -3  -9  -3   29.70    9.20
   3   9   3   18.70   10.70
   3   9   3   21.40    9.70
   3   9   3   36.90    5.00
   3   9   3   25.40    7.60
   3   9   3   38.20    8.90
  -5  -9  -3   11.50    9.90
  -5  -9  -3    6.90   10.40
  -5  -9  -3    7.20   10.20
   5   9   3   19.70    5.90
   5   9   3   25.60   10.10
   5   9   3   11.20   12.50
   5   9   3   14.20    8.70
   5   9   3   14.10   11.70
  -7  -9  -3   61.49   13.40
  -7  -9  -3   80.19   14.80
  -7  -9  -3   77.39   14.60
   7   9   3   71.69   16.30
   7   9   3   36.30   17.00
   7   9   3   59.89   13.20
  -9  -9  -3   27.40   16.40
  -9  -9  -3   31.40   15.20
  -9  -9  -3   39.80   16.70
   9   9   3    2.90   17.00
   9   9   3   52.19   16.40
   9   9   3   43.00   11.40
 -11  -9  -3   41.00   20.80
 -11  -9  -3   65.09   21.10
 -11  -9  -3   14.60   22.90
  11   9   3   68.49   22.50
  11   9   3   70.09   26.40
  11   9   3   51.19   20.00
 -13  -9  -3  -44.60   24.30
  13   9   3  -25.80   34.20
  13   9   3   11.10   27.30
  16 -10  -3   66.29   23.90
  16 -10  -3  114.19   23.90
 -16  10   3  121.39   34.70
 -16  10   3   98.49   28.00
 -16  10   3   64.49   42.50
  14 -10  -3    5.20   16.60
  14 -10  -3   14.50   18.60
 -14  10   3   33.60   34.10
 -14  10   3    2.20   26.50
 -14  10   3  -14.30   20.10
  12 -10  -3  108.29   19.40
  12 -10  -3   88.09   11.80
  12 -10  -3   89.49   15.30
 -12  10   3   94.59   26.50
 -12  10   3  116.29   20.40
  10 -10  -3   -5.60    7.20
  10 -10  -3   15.00   12.80
  10 -10  -3   14.30    9.60
 -10  10   3    6.20   13.90
 -10  10   3    5.00   16.70
 -10  10   3   -0.70    4.40
   8 -10  -3  122.99   12.00
   8 -10  -3  129.59   12.70
   8 -10  -3  102.99   13.60
   8 -10  -3  125.59   15.30
  -8  10   3  115.19   16.60
  -8  10   3  116.39   10.50
  -8  10   3   94.39   19.20
  -8  10   3  104.89   11.00
  -8  10   3  119.39   10.00
   6 -10  -3    7.80    8.90
   6 -10  -3   21.80    7.40
   6 -10  -3   16.60    8.80
  -6  10   3   23.60   12.30
  -6  10   3   15.10    5.00
  -6  10   3    6.70    6.00
  -6  10   3    2.40   13.40
  -6  10   3    8.10    7.70
  -6  10   3    5.20    2.70
   4 -10  -3   21.90    8.20
   4 -10  -3   45.40    9.50
   4 -10  -3   35.40    7.00
   4 -10  -3   40.90    9.80
  -4  10   3   42.90   12.90
  -4  10   3   37.30    4.10
  -4  10   3   57.99    6.90
  -4  10   3   41.60    4.20
  -4  10   3   41.20    7.50
  -4  10   3   32.10    6.00
  -4  10   3   24.80    8.60
  -4  10   3   40.80    9.20
   2 -10  -3  165.68   15.00
   2 -10  -3  169.58   14.80
   2 -10  -3  195.38   17.50
  -2  10   3  170.68   17.10
  -2  10   3  199.38   12.20
  -2  10   3  185.88   13.10
  -2  10   3  188.68   16.70
  -2  10   3  194.38   11.10
  -2  10   3  196.48    9.20
  -2  10   3  187.38   15.10
   0 -10  -3   31.00    8.70
   0 -10  -3   29.30    8.90
   0 -10  -3   23.90    6.80
   0 -10  -3   24.60    9.20
   0  10   3   21.90    9.60
   0  10   3   50.69    9.80
   0  10   3   18.50    9.70
   0  10   3   21.10    4.80
   0  10   3   22.20    5.40
  -2 -10  -3  208.48   18.90
  -2 -10  -3  237.18   18.30
  -2 -10  -3  199.68   16.90
  -2 -10  -3  211.58   11.20
   2  10   3  173.48   18.20
   2  10   3  259.97   15.70
   2  10   3  229.28   12.20
   2  10   3  197.78   19.70
   2  10   3  203.58   14.50
  -4 -10  -3   -3.30   10.40
  -4 -10  -3    9.20    9.90
  -4 -10  -3    6.90    9.50
   4  10   3   17.40   11.60
   4  10   3   -2.40    8.30
   4  10   3   21.40    8.70
   4  10   3    5.40   12.40
   4  10   3    5.40    5.70
  -6 -10  -3  250.07   23.20
  -6 -10  -3  276.17   24.60
  -6 -10  -3  267.57   24.50
   6  10   3  190.88   22.10
   6  10   3  248.08   21.30
   6  10   3  293.17   28.10
  -8 -10  -3   -3.40   13.90
  -8 -10  -3   21.40   15.10
  -8 -10  -3   20.40   14.00
   8  10   3   -2.50    9.50
   8  10   3   11.80   17.80
   8  10   3   15.40   14.80
 -10 -10  -3   68.99   21.60
 -10 -10  -3  122.79   21.50
 -10 -10  -3  108.09   20.70
  10  10   3  125.19   21.80
  10  10   3  130.19   25.30
  10  10   3  125.79   26.30
 -12 -10  -3    6.60   22.60
 -12 -10  -3   15.80   24.90
  12  10   3  -23.90   32.50
  12  10   3   -5.60   24.60
  15 -11  -3   23.10   19.50
  15 -11  -3  115.49   24.70
 -15  11   3   59.19   29.40
 -15  11   3  102.89   41.30
 -15  11   3   32.30   25.10
  13 -11  -3   29.00   19.10
  13 -11  -3   44.20   16.20
  13 -11  -3   43.40   13.30
 -13  11   3   25.60   19.60
 -13  11   3   21.40   35.40
 -13  11   3   34.60   27.50
  11 -11  -3  166.68   21.00
  11 -11  -3  163.78   14.00
  11 -11  -3  159.48   17.60
 -11  11   3  158.38   21.40
 -11  11   3  174.18   26.80
   9 -11  -3   25.90   13.00
   9 -11  -3   46.90   11.40
   9 -11  -3   29.60    8.50
  -9  11   3   22.40   19.60
  -9  11   3   35.30   15.90
  -9  11   3   28.10    6.20
   7 -11  -3  767.12   38.30
   7 -11  -3  757.12   33.80
   7 -11  -3  804.42   38.60
  -7  11   3  809.82   39.70
  -7  11   3  765.62   32.60
  -7  11   3  769.62   32.10
  -7  11   3  794.72   43.90
  -7  11   3  815.32   31.20
   5 -11  -3  173.18   13.60
   5 -11  -3  169.88   18.70
   5 -11  -3  177.68   18.00
  -5  11   3  217.38   22.40
  -5  11   3  195.28   10.50
  -5  11   3  234.58   18.40
  -5  11   3  184.38   11.00
  -5  11   3  190.68   16.30
  -5  11   3  184.38   10.30
  -5  11   3  199.48   14.10
   3 -11  -3 1184.88   43.90
   3 -11  -3 1171.98   47.20
   3 -11  -3 1128.29   48.00
   3 -11  -3 1163.68   47.30
  -3  11   3 1118.89   46.90
  -3  11   3 1139.89   45.20
  -3  11   3 1092.39   43.90
  -3  11   3 1127.59   51.39
  -3  11   3 1177.68   41.50
  -3  11   3 1237.78   44.30
   1 -11  -3  191.38   18.60
   1 -11  -3  204.48   15.20
   1 -11  -3  196.78   17.60
  -1  11   3  193.08   12.90
  -1  11   3  196.98   17.50
  -1  11   3  161.68   15.50
  -1  11   3  189.58   10.90
  -1  11   3  212.98   17.80
  -1 -11  -3  661.03   31.50
  -1 -11  -3  645.24   26.80
  -1 -11  -3  587.64   30.90
  -1 -11  -3  603.94   31.40
   1  11   3  655.83   25.70
   1  11   3  643.24   33.70
   1  11   3  639.74   26.20
   1  11   3  576.24   31.90
   1  11   3  630.54   28.40
  -3 -11  -3   60.19   11.70
  -3 -11  -3   51.59   11.90
  -3 -11  -3   55.39   11.70
   3  11   3   36.30   14.00
   3  11   3   35.00   14.60
   3  11   3   70.19   10.00
   3  11   3   74.09    7.40
   3  11   3   47.10    9.60
  -5 -11  -3  136.89   16.70
  -5 -11  -3  153.98   17.20
  -5 -11  -3  119.69   15.40
   5  11   3  133.29   19.30
   5  11   3  134.49   20.30
   5  11   3  168.18   15.90
  -7 -11  -3  120.89   33.70
  -7 -11  -3  163.58   19.20
  -7 -11  -3  148.09   18.50
   7  11   3   94.29   32.10
   7  11   3  139.59   17.70
  -9 -11  -3  -10.30   18.70
  -9 -11  -3   12.50   16.80
  -9 -11  -3   18.90   18.10
   9  11   3   57.99   24.30
   9  11   3   55.99   18.10
   9  11   3   30.90   21.70
 -11 -11  -3  319.67   30.80
 -11 -11  -3  352.96   31.10
  11  11   3  325.37   34.10
  11  11   3  255.77   36.60
  11  11   3  314.47   30.30
  16 -12  -3   21.00   28.00
  16 -12  -3   49.99   26.70
 -16  12   3   58.09   42.10
 -16  12   3  -19.10   53.69
  14 -12  -3  157.08   26.20
  14 -12  -3  141.69   22.10
 -14  12   3  110.19   26.80
 -14  12   3   87.89   33.70
 -14  12   3  161.78   42.50
  12 -12  -3   25.20   13.50
  12 -12  -3   34.10   19.70
  12 -12  -3   39.10   16.40
 -12  12   3   22.20   26.00
 -12  12   3   58.29   35.10
 -12  12   3   71.49   21.50
  10 -12  -3   22.30   14.70
  10 -12  -3   32.20   13.30
  10 -12  -3    8.40   10.20
 -10  12   3   32.80   21.80
 -10  12   3   43.50   18.20
   8 -12  -3   37.70    9.60
   8 -12  -3   42.30   14.30
   8 -12  -3   52.49   13.90
   8 -12  -3   52.69   11.20
  -8  12   3   17.40   19.60
  -8  12   3   76.99   17.80
  -8  12   3   48.30    9.60
   6 -12  -3   55.29   12.40
   6 -12  -3   57.39   10.20
   6 -12  -3   51.19   12.20
  -6  12   3   59.49   10.30
  -6  12   3   59.59    5.70
  -6  12   3   58.39    7.00
  -6  12   3   51.39   20.10
  -6  12   3   53.29   16.30
  -6  12   3   71.49    9.20
   4 -12  -3   31.60   10.80
   4 -12  -3   36.10    8.10
   4 -12  -3   18.20   10.20
   4 -12  -3   18.90    9.50
  -4  12   3   31.50   10.20
  -4  12   3   35.10   14.70
  -4  12   3   28.60    5.30
  -4  12   3   37.40    5.40
  -4  12   3   32.80    8.40
  -4  12   3   29.50   10.60
   2 -12  -3  106.39   14.00
   2 -12  -3  118.09   13.90
   2 -12  -3  144.59   15.50
  -2  12   3  129.29    9.00
  -2  12   3  129.19   13.60
  -2  12   3  151.18   15.50
  -2  12   3  119.79    9.40
  -2  12   3  115.99   10.80
  -2  12   3  106.49   17.70
  -2  12   3  120.89   12.50
   0 -12  -3  157.28   15.70
   0 -12  -3  173.58   14.50
   0 -12  -3  153.48   15.70
   0 -12  -3  155.78   15.40
   0  12   3  159.98   17.70
   0  12   3  119.79   15.80
   0  12   3  171.28   13.40
   0  12   3  145.99   11.70
   0  12   3  147.19   14.90
  -2 -12  -3  147.29   15.80
  -2 -12  -3  102.39   14.10
  -2 -12  -3  114.49   15.10
   2  12   3  120.99   17.30
   2  12   3  134.29   12.20
   2  12   3  131.89   18.60
  -4 -12  -3  397.06   27.80
  -4 -12  -3  471.45   29.20
  -4 -12  -3  413.16   27.50
   4  12   3  386.96   31.50
   4  12   3  441.36   25.20
   4  12   3  476.55   34.10
  -6 -12  -3  109.49   17.10
  -6 -12  -3  122.89   19.10
   6  12   3  116.89   20.40
   6  12   3   94.39   16.10
  -8 -12  -3  126.69   21.60
  -8 -12  -3  150.68   21.90
  -8 -12  -3  121.69   20.70
   8  12   3  104.09   26.50
   8  12   3  153.08   25.30
   8  12   3  179.58   21.30
 -10 -12  -3  -21.00   21.60
 -10 -12  -3  -16.10   21.50
  10  12   3   22.40   22.10
  10  12   3   20.30   22.20
  10  12   3  -16.00   25.00
 -12 -12  -3  -79.89   27.90
  12  12   3  148.19   31.30
  15 -13  -3   47.60   24.80
  15 -13  -3  -40.30   24.60
 -15  13   3   26.90   38.00
 -15  13   3   17.50   43.60
  13 -13  -3   19.00   23.40
  13 -13  -3   22.40   19.10
 -13  13   3   47.50   32.10
 -13  13   3   44.20   37.80
 -13  13   3   34.60   34.80
  11 -13  -3  -18.70   13.40
  11 -13  -3   25.10   18.60
  11 -13  -3   19.70   14.80
 -11  13   3    5.10   28.20
 -11  13   3   37.00   32.20
 -11  13   3  -26.20   19.60
   9 -13  -3   83.69   14.00
   9 -13  -3   61.19   12.50
   9 -13  -3  104.09   18.00
  -9  13   3   85.49   26.00
  -9  13   3   97.79   21.10
   7 -13  -3   14.60    9.90
   7 -13  -3  -16.20   11.40
   7 -13  -3   11.60   12.80
  -7  13   3    2.50   21.00
  -7  13   3    5.70   16.20
  -7  13   3    0.50    9.70
   5 -13  -3    0.10   10.30
   5 -13  -3   13.60    8.90
   5 -13  -3    2.20   11.70
  -5  13   3    2.10   10.10
  -5  13   3   -6.60   14.50
  -5  13   3   -3.30   18.70
  -5  13   3   10.90    5.50
  -5  13   3   -7.10    9.60
   3 -13  -3   -4.60    9.60
   3 -13  -3    9.00   10.90
   3 -13  -3    2.90   10.60
  -3  13   3    9.80   16.10
  -3  13   3    4.10    5.40
  -3  13   3   10.30   10.10
  -3  13   3    2.30    9.50
  -3  13   3   14.80   11.10
   1 -13  -3   22.50   11.70
   1 -13  -3   20.90    9.00
   1 -13  -3   30.60   11.90
  -1  13   3   34.60   13.00
  -1  13   3   14.50    6.60
  -1  13   3   31.20   12.10
  -1 -13  -3   -1.70    7.10
  -1 -13  -3   10.90   11.30
  -1 -13  -3    5.20   11.90
  -1 -13  -3    3.70   11.20
   1  13   3   -0.30    8.50
   1  13   3   10.10   14.30
   1  13   3  -11.10   13.20
  -3 -13  -3    4.80   12.50
  -3 -13  -3  -12.30   12.80
  -3 -13  -3    4.50   12.50
   3  13   3   17.80   10.50
   3  13   3    7.70   15.30
   3  13   3   11.00   14.30
  -5 -13  -3    7.20   13.90
  -5 -13  -3    4.30   14.90
  -5 -13  -3   10.60   20.00
   5  13   3   19.30   18.20
   5  13   3    3.20   13.20
   5  13   3  -21.50   20.60
  -7 -13  -3    5.50   16.50
  -7 -13  -3   -8.50   17.00
  -7 -13  -3   36.90   18.50
   7  13   3   -0.40   20.80
   7  13   3  -25.20   21.50
   7  13   3    0.60   16.30
  -9 -13  -3   -0.10   21.10
  -9 -13  -3   25.30   21.30
   9  13   3   52.49   27.70
   9  13   3   59.79   22.90
   9  13   3   -4.10   22.70
 -11 -13  -3    6.90   27.50
  11  13   3   94.59   52.29
  11  13   3   32.70   26.30
  11  13   3   12.40   35.30
  14 -14  -3  121.09   27.70
  14 -14  -3  132.09   25.90
 -14  14   3  155.28   39.60
 -14  14   3  209.78   47.40
  12 -14  -3   29.60   19.80
  12 -14  -3   22.60   22.10
 -12  14   3   17.00   38.90
 -12  14   3   13.60   24.50
 -12  14   3   12.10   32.80
  10 -14  -3  323.37   28.80
  10 -14  -3  272.77   26.50
  10 -14  -3  323.87   29.70
 -10  14   3  297.67   38.10
 -10  14   3  312.67   44.00
 -10  14   3  327.87   30.90
   8 -14  -3   15.50   12.90
   8 -14  -3   -0.80   17.50
  -8  14   3    9.80   24.20
  -8  14   3  -18.80   18.20
  -8  14   3   35.30   11.20
  -8  14   3    7.50    9.90
   6 -14  -3  196.98   20.00
   6 -14  -3  193.68   20.60
   6 -14  -3  256.57   26.10
  -6  14   3  238.58   25.70
  -6  14   3  246.88   21.80
  -6  14   3  237.88   16.80
  -6  14   3  260.77   31.70
  -6  14   3  256.47   14.10
   4 -14  -3   94.49   15.50
   4 -14  -3  105.29   15.60
   4 -14  -3  117.69   15.10
  -4  14   3  109.79   11.10
  -4  14   3  102.09   12.90
  -4  14   3  133.39   14.00
  -4  14   3  113.29   15.30
  -4  14   3   85.49   19.80
   2 -14  -3    7.80   11.90
   2 -14  -3   11.90   10.30
   2 -14  -3   17.10   12.20
  -2  14   3   -3.30   17.90
  -2  14   3    1.00   12.60
  -2  14   3   24.20    5.80
  -2  14   3   -3.10   11.90
  -2  14   3   17.80    7.20
   0 -14  -3  408.86   28.60
   0 -14  -3  450.25   26.80
   0 -14  -3  398.06   23.70
   0  14   3  425.46   31.20
   0  14   3  403.36   22.20
   0  14   3  352.56   28.80
  -2 -14  -3   -0.10   12.90
  -2 -14  -3    1.90   13.60
  -2 -14  -3  -10.30   12.30
   2  14   3    9.10   17.00
   2  14   3    3.80   10.90
   2  14   3    4.10   14.90
  -4 -14  -3  290.27   25.70
  -4 -14  -3  296.07   29.10
  -4 -14  -3  297.27   28.30
   4  14   3  258.77   24.80
   4  14   3  270.47   27.00
   4  14   3  305.47   29.10
  -6 -14  -3  -11.90   17.30
  -6 -14  -3   -7.30   16.20
  -6 -14  -3    9.10   17.70
   6  14   3    4.60   16.10
   6  14   3  -24.90   20.60
   6  14   3   10.80   22.20
  -8 -14  -3  200.68   27.10
  -8 -14  -3  175.28   25.70
   8  14   3  167.78   29.00
   8  14   3  152.58   27.60
   8  14   3  175.58   30.30
 -10 -14  -3   21.00   27.60
 -10 -14  -3   24.20   25.30
  10  14   3   33.10   27.90
  10  14   3  -14.00   34.10
  10  14   3   19.80   31.80
  13 -15  -3    1.70   23.10
  13 -15  -3   53.99   25.20
 -13  15   3   49.20   37.20
 -13  15   3   53.29   44.90
  11 -15  -3    6.70   21.20
  11 -15  -3   -5.60   17.30
 -11  15   3   31.30   34.80
 -11  15   3    6.20   26.10
 -11  15   3   38.80   38.40
   9 -15  -3  208.08   25.00
   9 -15  -3  211.68   22.80
  -9  15   3  219.38   42.70
  -9  15   3  211.58   29.40
  -9  15   3  230.48   36.00
   7 -15  -3   92.19   16.30
  -7  15   3  100.29   14.60
  -7  15   3  105.09   24.10
  -7  15   3  104.19   28.50
   5 -15  -3  309.37   28.30
   5 -15  -3  288.87   29.20
  -5  15   3  301.37   23.70
  -5  15   3  280.27   20.80
  -5  15   3  275.07   25.70
  -5  15   3  310.67   34.50
  -5  15   3  273.37   28.50
   3 -15  -3  109.89   17.50
   3 -15  -3  133.49   16.70
   3 -15  -3  117.59   18.20
  -3  15   3  117.49   17.70
  -3  15   3   94.59   23.00
  -3  15   3  159.98   17.00
  -3  15   3  149.88   15.90
  -3  15   3  116.29   16.30
   1 -15  -3  430.46   30.70
   1 -15  -3  398.86   30.50
   1 -15  -3  399.06   26.00
  -1  15   3  395.66   22.10
  -1  15   3  368.56   37.80
  -1  15   3  344.97   30.70
  -1  15   3  401.56   30.60
  -1 -15  -3   -1.10   17.00
  -1 -15  -3   -3.40   13.30
   1  15   3    2.20   16.60
   1  15   3   -3.40   16.30
   1  15   3  -11.10   10.50
  -3 -15  -3  107.79   19.00
  -3 -15  -3  112.69   19.40
  -3 -15  -3   71.29   19.20
   3  15   3  100.09   23.20
   3  15   3  106.19   21.80
   3  15   3   89.59   15.30
  -5 -15  -3   93.49   20.50
  -5 -15  -3   64.89   18.90
  -5 -15  -3   66.09   19.50
   5  15   3   24.70   23.30
   5  15   3   82.39   22.70
   5  15   3   68.39   17.50
  -7 -15  -3   -3.00   21.20
  -7 -15  -3   73.69   22.20
   7  15   3   27.20   21.10
   7  15   3   44.20   25.50
   7  15   3   15.00   24.80
  -9 -15  -3  171.28   29.00
  -9 -15  -3  149.49   30.20
   9  15   3  156.38   37.50
   9  15   3  196.58   34.50
  12 -16  -3   28.40   25.30
  12 -16  -3   17.50   23.00
 -12  16   3  -12.30   42.10
 -12  16   3   79.59   39.20
  10 -16  -3   29.30   20.80
  10 -16  -3   48.30   21.00
 -10  16   3   47.90   36.60
 -10  16   3    9.10   38.10
 -10  16   3    6.60   41.90
   8 -16  -3   -3.70   17.10
   8 -16  -3   -1.20   18.60
  -8  16   3    0.20   32.60
  -8  16   3   -5.10   31.20
  -8  16   3    4.20   24.90
   6 -16  -3   -6.30   14.50
   6 -16  -3   14.60   18.10
   6 -16  -3   -7.10   15.60
  -6  16   3   -7.80   15.00
  -6  16   3   16.50   23.50
  -6  16   3   10.80   27.80
  -6  16   3  -11.70   28.00
  -6  16   3   12.80   16.70
   4 -16  -3    8.60   14.30
  -4  16   3   21.70   27.70
  -4  16   3   -4.20   16.20
  -4  16   3    8.00   25.70
  -4  16   3   -2.20   12.60
  -4  16   3   -0.60   22.10
   2 -16  -3  110.99   19.00
   2 -16  -3  119.59   16.70
   2 -16  -3  144.49   19.50
  -2  16   3  167.38   26.20
  -2  16   3  141.89   27.70
  -2  16   3  124.49   20.10
  -2  16   3  152.98   19.80
   0 -16  -3    4.80   15.10
   0 -16  -3  -17.20   15.80
   0  16   3   11.70   28.70
   0  16   3   -6.20   16.70
  -2 -16  -3  123.99   20.60
  -2 -16  -3  133.79   20.40
  -2 -16  -3  109.89   19.80
   2  16   3  105.59   24.30
  -4 -16  -3   23.20   19.50
  -4 -16  -3   20.90   20.00
  -4 -16  -3   18.90   19.90
   4  16   3   58.89   23.40
   4  16   3   34.20   23.70
  -6 -16  -3  164.78   25.20
  -6 -16  -3  155.78   25.30
   6  16   3  135.99   29.20
   6  16   3  109.99   27.60
  -8 -16  -3    5.40   26.90
  -8 -16  -3   28.00   25.20
   8  16   3  -39.40   27.60
   8  16   3  -40.00   32.30
  11 -17  -3   25.80   24.70
  11 -17  -3    3.60   26.60
 -11  17   3  -58.09   42.20
 -11  17   3   78.89   43.50
   9 -17  -3    5.10   21.80
   9 -17  -3  -19.40   20.70
  -9  17   3   80.69   39.10
  -9  17   3   37.60   39.00
   7 -17  -3  -25.60   18.70
   7 -17  -3  -31.10   18.50
  -7  17   3   25.70   33.70
  -7  17   3   -5.20   34.20
  -7  17   3   52.59   31.50
  -7  17   3   12.70   20.50
   5 -17  -3   15.30   18.00
   5 -17  -3   44.80   20.10
  -5  17   3   37.30   27.00
  -5  17   3   48.80   29.80
  -5  17   3   21.90   18.80
   3 -17  -3   54.79   18.10
  -3  17   3   31.80   26.40
  -3  17   3   40.30   19.70
  -3  17   3   27.60   31.30
  -3  17   3   38.40   17.10
   1 -17  -3   -9.30   16.40
   1 -17  -3   27.00   18.40
  -1  17   3   26.30   19.90
  -1  17   3    1.90   18.70
  -1  17   3    4.40   27.60
  -1 -17  -3   12.80   19.20
   1  17   3  -25.00   23.50
   1  17   3   11.80   22.50
  -3 -17  -3   18.90   25.20
  -3 -17  -3   32.50   20.50
  -3 -17  -3  -33.10   19.10
   3  17   3   -1.50   23.30
   3  17   3    7.90   22.80
  -5 -17  -3    5.50   22.20
  -5 -17  -3   12.90   22.70
   5  17   3   23.70   27.10
   5  17   3   -7.20   25.50
  -7 -17  -3   19.10   30.60
  -7 -17  -3   22.10   27.20
   7  17   3   61.69   32.60
   7  17   3   36.00   48.40
  10 -18  -3  -39.80   30.50
  10 -18  -3  -20.10   25.70
 -10  18   3   64.79   46.80
 -10  18   3   47.60   47.80
   8 -18  -3  247.08   30.40
   8 -18  -3  254.17   30.00
  -8  18   3  244.98   46.10
  -8  18   3  271.77   46.90
   6 -18  -3   31.70   23.30
  -6  18   3   83.39   35.60
  -6  18   3  111.39   33.30
  -6  18   3   99.99   38.30
   4 -18  -3  134.49   25.10
  -4  18   3  134.99   37.40
  -4  18   3   97.99   24.20
  -4  18   3  148.49   33.80
   2 -18  -3  188.28   26.10
   2 -18  -3  206.28   25.30
  -2  18   3  152.58   35.00
  -2  18   3  157.08   24.10
  -2  18   3  130.09   25.70
   0 -18  -3   14.40   19.60
   0 -18  -3   20.90   21.70
   0  18   3   13.80   23.90
   0  18   3  -14.00   31.20
   0  18   3    8.70   22.10
  -2 -18  -3  232.18   28.50
  -2 -18  -3  246.88   28.70
   2  18   3  250.87   31.60
   2  18   3  276.17   32.50
  -4 -18  -3  -15.90   23.40
  -4 -18  -3   -7.50   23.70
   4  18   3  -17.80   27.70
   4  18   3  -52.99   26.80
   6  18   3   81.89   34.90
  -9  19   3   54.99   49.60
  -9  19   3  -22.70   56.99
  -7  19   3   80.89   45.30
  -5  19   3   18.50   38.30
  -5  19   3   73.59   44.10
  -3  19   3   61.09   27.30
  -3  19   3   42.20   37.30
  -3  19   3   19.30   40.60
   1 -19  -3  107.39   25.50
   1 -19  -3   11.40   24.60
  -1  19   3   17.80   37.30
  -1  19   3   31.30   26.80
  -1 -19  -3   34.60   26.40
  -1 -19  -3   72.49   26.50
   1  19   3   51.19   38.80
   1  19   3   22.40   27.50
   1  19   3   22.10   27.30
  -3 -19  -3  -11.30   28.00
   3  19   3  -29.90   29.80
   3  19   3  -42.80   29.30
  -2  20   3   79.79   42.80
   0 -20  -3    1.20   28.00
   0 -20  -3   16.10   28.60
   0  20   3   65.99   46.30
   0  20   3  -41.90   30.40
   2  20   3  156.68   53.09
   2  20   3  -28.10   33.70
   7  19  -4   14.00   37.80
  -7 -19   4   59.19   27.20
   5  19  -4  223.58   34.90
   5  19  -4  160.18   33.70
   5  19  -4  207.58   37.10
  -5 -19   4  288.97   31.10
  -5 -19   4  273.27   34.60
   3  19  -4    0.30   29.90
   3  19  -4   46.00   28.60
  -3 -19   4   24.80   26.90
  -3 -19   4  -33.00   24.40
   1  19  -4  124.89   33.80
   1  19  -4   65.59   31.40
  -1 -19   4    9.60   27.30
  -1  19  -4    9.70   32.70
  -1  19  -4  107.19   34.40
   1 -19   4  -10.10   29.10
   8  18  -4   58.49   31.90
   8  18  -4   12.90   28.00
   8  18  -4  -12.10   27.60
  -8 -18   4   13.80   25.50
  -8 -18   4    7.10   23.90
   6  18  -4  181.28   32.80
   6  18  -4  149.19   29.70
   6  18  -4   98.79   28.90
  -6 -18   4  166.88   28.20
  -6 -18   4  128.39   25.60
   4  18  -4  111.59   28.90
   4  18  -4   67.09   28.90
  -4 -18   4   71.09   22.90
  -4 -18   4   70.39   24.20
   2  18  -4  429.86   44.80
   2  18  -4  386.66   38.00
  -2 -18   4  383.36   38.80
  -2 -18   4  434.16   41.60
   0  18  -4  -31.80   26.90
   0  18  -4   44.40   26.80
   0 -18   4  -46.10   18.60
   0 -18   4  -10.80   23.30
  -2  18  -4  343.37   38.10
  -2  18  -4  370.16   39.30
   2 -18   4  303.67   35.70
   2 -18   4  317.37   31.30
  -4  18  -4  159.48   42.60
   4 -18   4   30.50   31.30
  11  17  -4  191.78   52.99
  11  17  -4  138.09   33.70
 -11 -17   4   77.59   32.90
 -11 -17   4  102.39   28.70
   9  17  -4  -54.19   28.00
   9  17  -4  -70.69   22.90
   9  17  -4   10.50   27.10
  -9 -17   4    8.90   22.40
  -9 -17   4  -23.40   22.70
   7  17  -4  150.28   28.20
   7  17  -4  217.48   32.60
   7  17  -4  152.28   29.30
  -7 -17   4  194.58   26.50
  -7 -17   4  200.48   25.70
   5  17  -4   34.20   25.70
   5  17  -4   32.40   24.60
  -5 -17   4   61.79   22.90
  -5 -17   4   13.40   18.70
   3  17  -4  266.27   32.30
   3  17  -4  215.48   29.40
  -3 -17   4  258.67   24.90
  -3 -17   4  295.37   29.70
   1  17  -4  148.59   28.00
   1  17  -4   89.39   26.70
  -1 -17   4   69.09   22.10
  -1 -17   4   92.39   22.10
  -1 -17   4  105.99   19.40
  -1  17  -4   86.49   26.80
  -1  17  -4  136.39   28.00
  -1  17  -4  126.09   31.40
   1 -17   4   81.79   24.40
   1 -17   4  126.69   22.60
  -3  17  -4  173.08   31.30
  -3  17  -4  128.69   35.80
  -3  17  -4  131.79   28.90
   3 -17   4   98.49   25.10
   3 -17   4  131.09   29.70
  -5  17  -4  166.68   35.10
  -5  17  -4   93.19   40.30
   5 -17   4   95.99   28.20
   5 -17   4   84.69   31.50
  12  16  -4  -34.60   26.80
  12  16  -4   -1.10   31.40
 -12 -16   4    5.30   25.00
 -12 -16   4  -35.00   26.10
  10  16  -4  113.29   27.50
  10  16  -4  133.29   30.30
  10  16  -4   80.09   25.50
 -10 -16   4  146.79   26.40
 -10 -16   4  110.79   21.80
   8  16  -4   62.79   24.20
   8  16  -4    1.90   23.90
   8  16  -4    5.60   24.20
  -8 -16   4   51.69   18.40
  -8 -16   4   27.80   21.80
   6  16  -4   74.79   24.50
   6  16  -4   39.70   22.60
  -6 -16   4   49.20   17.30
  -6 -16   4   49.30   21.50
   4  16  -4  129.99   25.40
   4  16  -4  150.48   25.10
  -4 -16   4  135.79   19.20
  -4 -16   4  161.78   23.90
   2  16  -4  -10.40   21.00
   2  16  -4   11.80   20.70
   2  16  -4   30.40   20.50
  -2 -16   4    3.10   16.80
  -2 -16   4   15.80   15.00
  -2 -16   4   -9.40   18.10
   0  16  -4  242.08   29.90
   0  16  -4  266.77   29.80
   0  16  -4  243.28   29.30
   0 -16   4  243.28   26.20
   0 -16   4  216.68   20.70
   0 -16   4  226.98   24.00
  -2  16  -4   22.10   24.70
  -2  16  -4    4.10   21.60
  -2  16  -4  -18.40   25.50
   2 -16   4    0.00   20.40
   2 -16   4   14.80   18.30
  -4  16  -4  200.28   35.20
  -4  16  -4  195.88   30.60
   4 -16   4  157.38   27.60
   4 -16   4  131.59   23.20
  -6  16  -4   42.30   28.60
  -6  16  -4   91.59   38.50
   6 -16   4   24.70   24.10
  13  15  -4   36.40   28.60
  13  15  -4   44.70   31.30
  13  15  -4  117.99   30.60
 -13 -15   4   44.90   24.50
 -13 -15   4   50.79   26.10
  11  15  -4   41.00   24.00
  11  15  -4   38.50   26.90
  11  15  -4   20.30   25.90
 -11 -15   4   46.80   21.90
 -11 -15   4   44.80   20.50
   9  15  -4    5.00   23.30
   9  15  -4   -9.30   22.70
   9  15  -4  -13.00   22.10
  -9 -15   4   23.70   20.30
  -9 -15   4   29.30   17.40
   7  15  -4   50.89   23.10
   7  15  -4   32.10   20.50
  -7 -15   4   40.10   19.60
  -7 -15   4   -5.30   14.90
   5  15  -4  -26.80   17.80
   5  15  -4  -16.60   19.10
  -5 -15   4   11.90   14.10
  -5 -15   4  -14.60   15.40
   3  15  -4    6.80   16.80
   3  15  -4   29.70   19.60
   3  15  -4   12.70   19.50
  -3 -15   4    7.60   14.00
  -3 -15   4   27.80   12.80
  -3 -15   4   32.20   17.20
   1  15  -4  -13.10   19.50
   1  15  -4   11.50   19.00
   1  15  -4    3.80   24.60
  -1 -15   4    5.50   13.60
  -1 -15   4    7.10   15.30
  -1 -15   4   17.10   12.40
  -1  15  -4   14.30   22.00
  -1  15  -4   55.79   20.50
  -1  15  -4   39.60   21.70
   1 -15   4   27.70   18.20
   1 -15   4   30.90   13.50
   1 -15   4   21.20   15.80
  -3  15  -4   16.10   25.80
  -3  15  -4   17.00   22.30
   3 -15   4   37.00   20.70
   3 -15   4   27.70   17.40
  -5  15  -4  -20.20   30.80
  -5  15  -4   -6.00   22.10
   5 -15   4    7.50   23.10
   5 -15   4  -25.60   17.90
  -7  15  -4   53.89   37.10
  -7  15  -4   34.80   28.60
   7 -15   4   93.59   25.20
  14  14  -4  -28.00   29.70
  14  14  -4  -80.99   25.60
 -14 -14   4   -5.50   24.20
 -14 -14   4   22.30   24.30
  12  14  -4  288.37   32.60
  12  14  -4  320.27   33.70
  12  14  -4  318.87   34.10
 -12 -14   4  325.67   30.40
 -12 -14   4  258.17   26.90
  10  14  -4    0.30   21.30
  10  14  -4    9.60   21.10
  10  14  -4  -15.40   26.40
 -10 -14   4   -0.40   15.90
 -10 -14   4   11.40   18.00
   8  14  -4  442.86   38.60
   8  14  -4  457.05   37.40
  -8 -14   4  492.05   32.80
  -8 -14   4  455.15   35.20
   6  14  -4   42.90   19.40
  -6 -14   4   35.70   13.80
   4  14  -4  187.78   23.50
   4  14  -4  232.38   23.10
   4  14  -4  172.58   23.50
  -4 -14   4  203.18   18.50
  -4 -14   4  181.68   19.10
  -4 -14   4  191.38   21.90
   2  14  -4  251.17   27.10
   2  14  -4  233.18   26.10
   2  14  -4  245.38   26.00
  -2 -14   4  248.68   24.40
  -2 -14   4  294.57   25.60
  -2 -14   4  259.07   21.50
   0  14  -4  400.96   33.00
   0  14  -4  343.17   32.00
   0  14  -4  372.06   42.30
   0 -14   4  347.97   23.10
   0 -14   4  299.37   28.90
  -2  14  -4  406.46   37.90
  -2  14  -4  420.76   35.50
   2 -14   4  449.95   31.00
   2 -14   4  317.97   30.20
  -4  14  -4  226.18   33.10
  -4  14  -4  148.19   26.40
   4 -14   4  191.38   23.10
  -6  14  -4   97.19   35.40
  -6  14  -4   73.09   27.70
   6 -14   4   78.09   23.40
   6 -14   4   67.89   19.50
  -8  14  -4  212.28   44.30
  -8  14  -4  273.17   38.70
   8 -14   4  193.08   28.20
   8 -14   4  251.87   29.50
  15  13  -4  178.48   32.90
  15  13  -4   72.69   31.80
 -15 -13   4  164.18   29.20
  13  13  -4   76.29   27.40
  13  13  -4   67.09   25.40
  13  13  -4   48.00   23.30
 -13 -13   4   72.49   21.30
 -13 -13   4  112.89   22.50
 -13 -13   4   57.49   21.20
  11  13  -4   95.59   23.70
  11  13  -4   75.59   23.40
  11  13  -4   39.60   21.50
 -11 -13   4   77.09   18.40
 -11 -13   4   79.99   19.90
 -11 -13   4   52.19   16.30
   9  13  -4  416.86   35.90
   9  13  -4  390.96   32.90
   9  13  -4  407.46   36.20
  -9 -13   4  377.56   24.40
  -9 -13   4  321.67   31.10
   7  13  -4   68.89   19.30
   7  13  -4   45.80   17.30
  -7 -13   4   51.09    9.40
  -7 -13   4   65.69   16.50
  -7 -13   4   69.09   14.90
   5  13  -4  753.32   41.10
   5  13  -4  751.92   34.90
   5  13  -4  741.93   41.00
  -5 -13   4  740.63   37.80
  -5 -13   4  745.83   35.90
   3  13  -4   23.90   15.70
   3  13  -4    3.10   14.30
   3  13  -4    4.20   13.40
  -3 -13   4    9.30   12.30
  -3 -13   4   -0.50   12.80
  -3 -13   4    0.90    9.70
   1  13  -4  464.35   32.00
   1  13  -4  430.66   31.10
   1  13  -4  501.65   32.60
  -1 -13   4  457.45   24.40
  -1 -13   4  476.65   29.90
  -1 -13   4  463.15   28.50
  -1  13  -4  395.06   32.30
  -1  13  -4  347.07   30.90
   1 -13   4  347.57   20.30
   1 -13   4  352.46   26.60
   1 -13   4  390.46   27.70
  -3  13  -4   54.39   22.40
  -3  13  -4   58.69   20.00
   3 -13   4   54.09   15.10
   3 -13   4   19.50   14.70
  -5  13  -4  312.57   37.10
  -5  13  -4  348.07   34.00
   5 -13   4  343.97   30.20
   5 -13   4  336.07   29.90
  -7  13  -4   24.30   32.70
  -7  13  -4  -18.60   24.80
   7 -13   4  -16.30   17.90
   7 -13   4  -37.10   16.80
   7 -13   4   19.00   21.50
  -9  13  -4  232.28   45.20
  -9  13  -4  254.67   39.00
   9 -13   4  254.37   30.00
   9 -13   4  167.48   28.40
  16  12  -4   93.99   34.40
  16  12  -4   91.49   34.90
 -16 -12   4   66.09   28.30
 -16 -12   4   99.79   27.20
  14  12  -4  -18.20   22.50
  14  12  -4   -2.50   24.00
 -14 -12   4   29.70   21.00
 -14 -12   4   10.50   20.00
 -14 -12   4  -13.20   20.30
  12  12  -4  211.58   27.60
  12  12  -4  105.99   23.60
  12  12  -4  148.89   25.10
 -12 -12   4  129.09   18.30
 -12 -12   4  170.88   23.00
 -12 -12   4  136.79   20.60
  10  12  -4   23.30   21.00
  10  12  -4   43.90   19.10
 -10 -12   4   19.90   15.50
 -10 -12   4   35.90   12.10
   8  12  -4  348.17   29.50
   8  12  -4  321.57   28.60
  -8 -12   4  342.37   25.20
  -8 -12   4  343.37   27.00
  -8 -12   4  339.67   20.00
   6  12  -4  137.09   19.40
   6  12  -4  171.38   21.70
  -6 -12   4  152.78   10.50
  -6 -12   4  190.98   19.40
  -6 -12   4  195.68   18.60
   4  12  -4  228.98   23.70
   4  12  -4  234.98   23.90
   4  12  -4  261.67   21.20
  -4 -12   4  261.37   22.60
  -4 -12   4  227.38   18.70
  -4 -12   4  285.77   21.20
   2  12  -4  359.76   26.70
   2  12  -4  358.36   29.50
   2  12  -4  364.76   26.00
  -2 -12   4  335.87   23.70
  -2 -12   4  346.37   23.50
  -2 -12   4  355.56   20.60
   0  12  -4   23.50   15.10
   0  12  -4   30.50   16.00
   0 -12   4   23.70   11.90
   0 -12   4   34.50    8.20
   0 -12   4   47.50   12.30
  -2  12  -4  320.47   30.80
  -2  12  -4  336.27   28.50
   2 -12   4  277.87   18.40
   2 -12   4  341.47   24.80
   2 -12   4  327.37   25.00
  -4  12  -4  157.98   27.00
  -4  12  -4  152.58   16.20
  -4  12  -4  151.38   38.00
   4 -12   4  137.99   17.10
  -6  12  -4   42.60   29.70
  -6  12  -4   30.50   22.40
  -6  12  -4   15.20   18.00
   6 -12   4    6.30   15.20
   6 -12   4   46.40   17.10
   6 -12   4   49.60   17.00
  -8  12  -4  226.38   31.10
  -8  12  -4  141.39   37.60
  -8  12  -4  221.08   33.30
   8 -12   4  200.38   25.20
   8 -12   4  213.98   26.20
 -10  12  -4    3.40   35.40
 -10  12  -4   81.49   44.70
  10 -12   4   23.80   24.00
  10 -12   4  -14.70   24.30
  17  11  -4  -43.10   33.70
 -17 -11   4  -13.70   29.80
  15  11  -4  -25.90   24.10
  15  11  -4   31.40   23.90
 -15 -11   4   23.70   20.40
 -15 -11   4   -9.70   19.80
 -15 -11   4   31.70   22.90
  13  11  -4   14.60   20.10
  13  11  -4  -16.00   20.00
 -13 -11   4   -2.70   15.20
 -13 -11   4   10.80   16.30
 -13 -11   4    6.40   17.40
  11  11  -4   -7.90   30.80
  11  11  -4   16.20   17.80
  11  11  -4   -0.80   18.30
 -11 -11   4    7.10   11.50
 -11 -11   4  -19.10   13.10
   9  11  -4  134.69   19.50
   9  11  -4  149.39   20.60
  -9 -11   4  142.29   17.50
  -9 -11   4  101.59   15.00
  -9 -11   4  123.09   12.20
   7  11  -4   27.70   15.20
   7  11  -4    0.50   13.20
  -7 -11   4   -0.70   10.00
  -7 -11   4   -0.10    9.30
   5  11  -4    2.40   12.70
   5  11  -4    2.50   10.20
   5  11  -4   29.60   13.50
   5  11  -4   10.00   12.80
  -5 -11   4   19.70    3.30
  -5 -11   4   29.40   11.20
  -5 -11   4   19.20   29.20
  -5 -11   4   16.80   10.40
  -5 -11   4   10.60    8.80
   3  11  -4   12.00    7.20
   3  11  -4   17.00   13.40
   3  11  -4    6.50   12.40
   3  11  -4   32.60    8.70
   3  11  -4   21.00   12.30
  -3 -11   4   13.80    9.40
  -3 -11   4    8.00    7.80
  -3 -11   4   21.60   10.10
   1  11  -4   22.40   13.30
   1  11  -4    9.80   13.20
  -1 -11   4    8.10    8.80
  -1 -11   4    7.00   10.10
  -1 -11   4   14.50    7.10
  -1  11  -4    0.40   12.70
  -1  11  -4   -3.40   13.50
   1 -11   4   -7.00    9.60
   1 -11   4    3.20    9.00
   1 -11   4    9.90    6.20
  -3  11  -4   -2.20   15.20
  -3  11  -4   13.70   18.90
  -3  11  -4   -1.10    9.70
   3 -11   4   -0.60   11.00
   3 -11   4   11.80   11.20
  -5  11  -4   -5.50   14.20
  -5  11  -4   -9.70   23.60
   5 -11   4   13.10   14.10
   5 -11   4   14.50   12.40
  -7  11  -4   35.30   27.60
  -7  11  -4    1.30   19.90
  -7  11  -4   34.10   22.60
   7 -11   4   22.80   16.80
   7 -11   4   -0.80   15.60
   7 -11   4   13.50   15.70
  -9  11  -4  108.29   29.90
  -9  11  -4   75.29   35.50
  -9  11  -4   35.80   26.50
   9 -11   4   41.10   19.20
   9 -11   4   33.60   20.40
 -11  11  -4  -58.19   36.80
  11 -11   4    2.50   25.20
  16  10  -4   75.49   30.00
  16  10  -4   34.70   23.00
 -16 -10   4   57.09   21.10
 -16 -10   4    5.40   25.00
  14  10  -4  476.95   40.50
  14  10  -4  511.85   41.30
 -14 -10   4  419.66   33.00
 -14 -10   4  401.96   35.30
 -14 -10   4  408.46   34.10
  12  10  -4    5.50   17.70
  12  10  -4    2.00   21.80
  12  10  -4   27.80   17.60
  12  10  -4    7.40   12.60
 -12 -10   4   10.70   16.60
 -12 -10   4   -1.90   12.30
 -12 -10   4    1.70   13.50
  10  10  -4  297.67   26.70
  10  10  -4  346.67   29.80
  10  10  -4  336.57   27.50
 -10 -10   4  310.97   20.60
 -10 -10   4  338.97   25.40
 -10 -10   4  284.47   23.90
   8  10  -4   23.20   13.40
   8  10  -4   31.80   15.10
  -8 -10   4   32.20   10.80
  -8 -10   4   27.80    7.60
  -8 -10   4   17.10   11.10
   6  10  -4  229.48   22.10
   6  10  -4  226.28   21.10
  -6 -10   4  238.18   18.20
  -6 -10   4  218.78   10.80
  -6 -10   4  220.98   17.60
  -6 -10   4  217.08   17.80
   4  10  -4  428.76   23.90
   4  10  -4  433.76   23.00
   4  10  -4  391.06   18.40
   4  10  -4  397.76   26.30
   4  10  -4  396.16   27.00
  -4 -10   4  399.26   21.60
  -4 -10   4  375.56   23.20
  -4 -10   4  397.86   22.50
  -4 -10   4  363.26   24.30
   2  10  -4  164.58   18.70
   2  10  -4  160.68   10.00
   2  10  -4  178.88   19.30
   2  10  -4  157.08   18.20
   2  10  -4  193.88   14.80
  -2 -10   4  168.18   13.70
  -2 -10   4  163.58   15.30
  -2 -10   4  173.98   14.70
   0  10  -4  470.95   28.90
   0  10  -4  447.26   28.50
   0 -10   4  486.85   21.10
   0 -10   4  461.35   24.50
   0 -10   4  463.95   24.20
  -2  10  -4   60.89   15.10
  -2  10  -4   80.79   17.90
  -2  10  -4   51.19   14.50
   2 -10   4   69.19    6.30
   2 -10   4   59.29   11.00
   2 -10   4   61.79   14.30
   2 -10   4   44.90   10.90
  -4  10  -4  455.75   38.00
  -4  10  -4  502.25   27.60
  -4  10  -4  500.65   34.00
   4 -10   4  521.25   29.20
   4 -10   4  556.94   27.80
   4 -10   4  471.85   28.80
  -6  10  -4  232.08   23.30
  -6  10  -4  225.88   36.00
   6 -10   4  258.27   22.50
   6 -10   4  243.68   21.60
  -8  10  -4   35.70   22.20
  -8  10  -4   42.50   31.20
  -8  10  -4   39.60   24.20
   8 -10   4   29.10   17.00
   8 -10   4   45.50   16.20
   8 -10   4   46.60   16.50
 -10  10  -4  150.98   37.50
 -10  10  -4  132.99   32.50
 -10  10  -4  122.29   32.90
  10 -10   4  124.29   22.90
  10 -10   4  130.69   22.60
  17   9  -4  187.28   32.10
  17   9  -4  216.18   30.20
 -17  -9   4  197.78   28.30
 -17  -9   4  145.59   28.90
  15   9  -4   23.50   19.60
  15   9  -4   30.70   23.20
 -15  -9   4   30.90   17.50
 -15  -9   4   32.10   17.40
 -15  -9   4   11.60   19.00
  13   9  -4   75.19   19.10
  13   9  -4   86.39   19.50
  13   9  -4   75.29   14.00
  13   9  -4  108.29   20.20
 -13  -9   4   77.59   14.50
 -13  -9   4   89.49   16.40
 -13  -9   4   98.39   18.30
 -13  -9   4   99.89   16.60
  11   9  -4  564.94   34.30
  11   9  -4  534.35   34.00
  11   9  -4  517.05   32.50
 -11  -9   4  394.46   25.00
 -11  -9   4  523.85   27.00
 -11  -9   4  520.05   29.10
 -11  -9   4  548.15   30.80
   9   9  -4  211.28   21.20
   9   9  -4  250.87   24.80
  -9  -9   4  300.47   16.80
  -9  -9   4  250.57   19.90
  -9  -9   4  224.68   16.50
  -9  -9   4  271.17   20.50
   7   9  -4  490.05   28.90
   7   9  -4  483.35   29.10
  -7  -9   4  468.45   19.90
  -7  -9   4  457.15   25.10
  -7  -9   4  471.25   25.30
  -7  -9   4  497.55   24.30
   5   9  -4  318.37   21.90
   5   9  -4  292.37   19.60
   5   9  -4  299.27   22.60
   5   9  -4  289.67   21.40
  -5  -9   4  280.47   18.30
  -5  -9   4  318.17   11.90
  -5  -9   4  297.57   20.00
  -5  -9   4  305.67   18.40
  -5  -9   4  321.57   19.50
   3   9  -4  775.02   36.50
   3   9  -4  788.72   37.70
   3   9  -4  877.51   32.80
   3   9  -4  845.82   33.10
   3   9  -4  776.92   38.30
  -3  -9   4  796.82   35.40
  -3  -9   4  851.71   33.70
  -3  -9   4  835.42   34.80
   1   9  -4  301.17   21.80
   1   9  -4  324.57   22.80
  -1  -9   4  347.47   17.10
  -1  -9   4  319.47   18.60
  -1  -9   4  373.06   20.60
  -1   9  -4  184.98   18.60
  -1   9  -4  189.88   20.10
   1  -9   4  168.68   15.90
   1  -9   4  163.08   16.70
   1  -9   4  153.48   15.40
   1  -9   4  178.68    9.90
  -3   9  -4  412.36   31.40
  -3   9  -4  392.16   22.30
  -3   9  -4  381.66   28.10
  -3   9  -4  415.46   16.80
  -3   9  -4  397.96   21.80
   3  -9   4  415.86   22.60
   3  -9   4  386.56   28.10
   3  -9   4  358.86   22.50
   3  -9   4  407.66   23.90
  -5   9  -4   64.79   17.80
  -5   9  -4  118.59   16.30
  -5   9  -4   89.39   23.20
   5  -9   4  101.29   13.10
   5  -9   4   89.59   14.00
   5  -9   4   92.79   14.40
  -7   9  -4  327.47   37.40
  -7   9  -4  279.87   30.30
  -7   9  -4  306.07   38.50
   7  -9   4  318.07   26.80
   7  -9   4  328.17   26.80
   7  -9   4  338.07   24.20
  -9   9  -4  -13.30   23.30
  -9   9  -4   15.40   28.90
  -9   9  -4   40.40   26.30
   9  -9   4   26.50   17.20
   9  -9   4   34.00   26.50
   9  -9   4   38.90   16.50
 -11   9  -4  108.89   39.70
 -11   9  -4  139.99   36.50
 -11   9  -4   64.49   34.30
  11  -9   4  177.88   25.40
  11  -9   4   97.59   23.40
  18   8  -4  108.19   32.60
  18   8  -4   90.19   31.10
 -18  -8   4   58.79   24.90
 -18  -8   4   97.59   30.60
  16   8  -4   17.70   23.80
  16   8  -4   42.00   23.40
 -16  -8   4   44.30   20.30
 -16  -8   4   59.29   22.30
 -16  -8   4    7.80   21.90
  14   8  -4  142.39   22.00
  14   8  -4  110.79   20.70
  14   8  -4  102.19   15.10
 -14  -8   4  114.59   18.50
 -14  -8   4  122.69   16.40
 -14  -8   4  115.59   18.60
 -14  -8   4  110.29   17.10
  12   8  -4  290.87   22.90
  12   8  -4  263.37   27.50
  12   8  -4  271.07   28.10
  12   8  -4  283.57   26.20
 -12  -8   4  258.37   22.80
 -12  -8   4  301.77   24.90
 -12  -8   4  287.87   20.20
 -12  -8   4  312.87   22.70
  10   8  -4  429.26   28.70
  10   8  -4  456.75   28.00
 -10  -8   4  446.56   25.40
 -10  -8   4  488.55   27.10
 -10  -8   4  469.05   20.30
 -10  -8   4  468.95   23.90
 -10  -8   4  456.15   23.90
 -10  -8   4  479.05   27.90
   8   8  -4  486.35   28.50
   8   8  -4  461.65   28.10
  -8  -8   4  550.94   24.50
  -8  -8   4  482.75   25.20
  -8  -8   4  497.85   22.20
  -8  -8   4  512.45   25.70
  -8  -8   4  497.45   18.50
  -8  -8   4  484.35   25.80
   6   8  -4  674.13   33.30
   6   8  -4  645.64   32.90
   6   8  -4  685.93   34.00
  -6  -8   4  663.63   29.40
  -6  -8   4  659.53   29.90
  -6  -8   4  686.53   25.40
  -6  -8   4  687.23   30.90
  -6  -8   4  744.43   30.20
   4   8  -4  369.16   19.40
   4   8  -4  289.17   20.70
   4   8  -4  314.17   20.30
   4   8  -4  285.47   20.90
  -4  -8   4  370.66   19.90
  -4  -8   4  304.47   17.40
  -4  -8   4  316.77   18.80
  -4  -8   4  303.07   17.50
  -4  -8   4  310.47   15.40
   2   8  -4 1756.72   70.39
   2   8  -4 1798.32   69.59
  -2  -8   4 1808.02   66.99
  -2  -8   4 1834.22   67.79
  -2  -8   4 1841.42   65.69
   0   8  -4  276.07   22.10
   0   8  -4  256.67   19.60
   0  -8   4  284.87   15.20
   0  -8   4  293.17   17.50
   0  -8   4  276.27   17.50
   0  -8   4  264.47   13.30
  -2   8  -4 1162.48   44.80
  -2   8  -4 1141.19   45.30
  -2   8  -4 1138.59   51.99
  -2   8  -4 1098.19   50.49
  -2   8  -4 1191.88   40.80
   2  -8   4 1214.58   47.10
   2  -8   4 1119.09   46.40
   2  -8   4 1201.78   41.10
   2  -8   4 1228.98   47.50
   2  -8   4 1162.18   47.00
  -4   8  -4  191.38   12.10
  -4   8  -4  215.38   14.90
  -4   8  -4  156.08   19.70
  -4   8  -4  172.98   24.10
  -4   8  -4  159.28   16.10
   4  -8   4  169.68   16.70
   4  -8   4  169.48   15.80
   4  -8   4  188.98   17.70
  -6   8  -4  613.84   44.10
  -6   8  -4  709.13   40.90
  -6   8  -4  635.44   36.90
   6  -8   4  740.83   35.00
   6  -8   4  718.33   32.50
   6  -8   4  705.23   34.30
  -8   8  -4  117.69   30.50
  -8   8  -4  128.39   25.40
  -8   8  -4  106.49   22.80
   8  -8   4  144.99   18.30
   8  -8   4  103.89   17.50
   8  -8   4  159.48   16.50
 -10   8  -4  249.08   33.00
 -10   8  -4  288.67   41.30
 -10   8  -4  309.67   37.60
  10  -8   4  344.37   33.20
  10  -8   4  343.07   33.30
 -12   8  -4   29.90   34.30
 -12   8  -4  129.89   38.80
 -12   8  -4   95.09   42.60
  12  -8   4   90.59   27.10
  12  -8   4  126.19   26.10
  17   7  -4   27.50   25.30
  17   7  -4   25.50   22.20
 -17  -7   4   64.09   21.80
 -17  -7   4    4.40   25.00
  15   7  -4   54.69   19.80
  15   7  -4   51.89   14.40
  15   7  -4   78.69   19.40
 -15  -7   4   56.09   19.30
 -15  -7   4   65.49   15.10
 -15  -7   4   50.59   17.00
  13   7  -4   -1.10   10.70
  13   7  -4    4.90   14.50
  13   7  -4   -6.80   13.60
  13   7  -4   28.60   15.20
 -13  -7   4    6.20   10.60
 -13  -7   4    5.80   12.60
 -13  -7   4    3.00   14.90
 -13  -7   4   -1.00   11.80
  11   7  -4  197.08   20.00
  11   7  -4  168.18   18.10
  11   7  -4  182.78   19.60
 -11  -7   4  188.28   16.30
 -11  -7   4  177.28   18.30
 -11  -7   4  171.88   15.60
 -11  -7   4  216.78   21.10
   9   7  -4   74.39   14.30
   9   7  -4   72.69   14.20
  -9  -7   4   76.79    8.30
  -9  -7   4  111.79   11.70
  -9  -7   4   89.69   12.90
  -9  -7   4   61.69   10.00
  -9  -7   4   57.59   10.70
   7   7  -4  574.94   30.10
   7   7  -4  613.94   30.20
  -7  -7   4  619.74   27.10
  -7  -7   4  593.14   23.70
  -7  -7   4  622.54   22.10
  -7  -7   4  597.84   28.00
  -7  -7   4  580.24   27.70
  -7  -7   4  584.44   27.50
   5   7  -4  122.09    8.40
   5   7  -4  152.38   16.30
   5   7  -4  125.39   13.90
   5   7  -4  143.69   13.30
   5   7  -4  120.09   13.10
  -5  -7   4  138.69   12.50
  -5  -7   4  112.59   12.00
  -5  -7   4  130.69   12.60
  -5  -7   4  135.49   11.60
  -5  -7   4  127.89   12.10
  -5  -7   4  128.79    6.10
   3   7  -4  407.86   23.00
   3   7  -4  434.06   19.70
   3   7  -4  379.26   23.20
   3   7  -4  380.36   23.00
  -3  -7   4  395.96   19.20
  -3  -7   4  424.76   19.80
  -3  -7   4  395.96   20.30
  -3  -7   4  379.16   22.10
  -3  -7   4  412.86   17.20
   1   7  -4   97.49   13.60
   1   7  -4   86.29   12.20
  -1  -7   4   95.69   10.00
  -1  -7   4   92.49    8.40
  -1  -7   4  117.29   10.90
  -1   7  -4   43.40   13.10
  -1   7  -4   74.59    9.50
  -1   7  -4   63.99   11.90
   1  -7   4   49.60    8.30
   1  -7   4   41.50    8.10
   1  -7   4   78.29   10.30
   1  -7   4   52.69    5.50
  -3   7  -4  135.89   17.00
  -3   7  -4  175.08   14.10
  -3   7  -4  163.68   16.00
  -3   7  -4  192.78   10.40
  -3   7  -4  206.78   22.50
   3  -7   4  172.28   15.20
   3  -7   4  163.18   15.10
   3  -7   4  169.08   15.60
   3  -7   4  264.37   22.70
  -5   7  -4  154.88   15.50
  -5   7  -4  141.59   23.30
  -5   7  -4  134.69   19.00
  -5   7  -4  144.29   16.60
   5  -7   4  141.19   15.00
   5  -7   4  152.38   13.70
   5  -7   4  147.99   14.20
  -7   7  -4  137.39   27.10
  -7   7  -4  140.99   20.60
  -7   7  -4  138.89   23.90
   7  -7   4  178.48   17.00
   7  -7   4  163.78   17.70
   7  -7   4  162.68   15.20
  -9   7  -4   44.60   29.10
  -9   7  -4   92.39   27.10
  -9   7  -4   53.99   23.30
   9  -7   4   68.19   17.20
   9  -7   4   53.49   15.60
   9  -7   4   43.90   14.00
 -11   7  -4  140.99   36.50
 -11   7  -4   90.79   29.90
 -11   7  -4   62.89   32.40
  11  -7   4   81.69   21.10
  11  -7   4   61.39   20.30
 -13   7  -4  119.29   62.79
 -13   7  -4   14.20   43.80
  13  -7   4   28.10   26.60
  18   6  -4   56.89   27.20
  18   6  -4  100.79   27.80
 -18  -6   4   58.99   30.70
 -18  -6   4   72.19   23.30
  16   6  -4  110.19   21.80
  16   6  -4  169.28   24.40
 -16  -6   4  141.39   20.80
 -16  -6   4   98.29   24.00
  14   6  -4   33.80   12.30
  14   6  -4   22.90   15.40
  14   6  -4   30.10   16.20
 -14  -6   4   50.49   12.20
 -14  -6   4   53.29   18.40
 -14  -6   4   71.99   16.00
 -14  -6   4   48.50   14.30
  12   6  -4  179.38   18.50
  12   6  -4  204.18   21.90
  12   6  -4  182.28   19.10
  12   6  -4  193.28   19.30
 -12  -6   4  205.08   20.90
 -12  -6   4  188.18   19.40
 -12  -6   4  210.08   20.90
 -12  -6   4  214.78   17.90
  10   6  -4    5.30   11.50
  10   6  -4    0.20   10.20
 -10  -6   4   14.50   10.10
 -10  -6   4    6.50    8.70
 -10  -6   4   -5.50    7.00
 -10  -6   4   -4.80    7.70
 -10  -6   4   -0.90   10.30
   8   6  -4  328.07   22.00
   8   6  -4  310.37   21.00
  -8  -6   4  322.17   20.20
  -8  -6   4  315.27   15.10
  -8  -6   4  332.87   18.60
  -8  -6   4  329.47   19.50
  -8  -6   4  307.47   18.10
   6   6  -4   95.89   12.30
   6   6  -4  119.99   13.50
   6   6  -4  109.79    6.00
   6   6  -4  107.69   10.20
   6   6  -4  106.29   13.80
  -6  -6   4  148.89   12.20
  -6  -6   4  108.59   10.80
  -6  -6   4   89.09    9.40
  -6  -6   4   89.79    9.60
  -6  -6   4  110.99    7.30
  -6  -6   4  106.49    7.20
   4   6  -4   14.40    8.70
   4   6  -4   17.90    9.40
   4   6  -4   32.00    6.20
   4   6  -4   23.50    7.70
   4   6  -4   14.50    9.20
  -4  -6   4   11.10    5.20
  -4  -6   4   27.40    3.90
  -4  -6   4   17.80    6.20
  -4  -6   4   25.90    6.20
  -4  -6   4   27.10    6.10
  -4  -6   4   26.90    2.90
  -4  -6   4   33.20    8.50
   2   6  -4  806.12   33.30
   2   6  -4  736.03   35.40
   2   6  -4  816.12   36.00
   2   6  -4  842.52   31.20
  -2  -6   4  827.82   30.00
  -2  -6   4  797.72   33.10
  -2  -6   4  770.32   31.90
  -2  -6   4  809.82   32.40
  -2  -6   4  830.62   31.30
   0   6  -4   18.70    7.20
   0   6  -4   -3.50    7.80
   0   6  -4    2.40   11.00
   0  -6   4   18.80    6.20
   0  -6   4    6.60    6.00
   0  -6   4   13.30    6.20
   0  -6   4    9.60    6.70
   0  -6   4   16.30    3.20
  -2   6  -4  753.62   37.30
  -2   6  -4  865.11   33.30
  -2   6  -4  819.52   39.30
  -2   6  -4  799.62   29.50
  -2   6  -4  789.32   33.30
   2  -6   4  794.02   31.90
   2  -6   4  848.22   34.80
   2  -6   4  834.92   34.20
   2  -6   4  831.92   34.00
   2  -6   4  811.82   28.60
   2  -6   4  808.02   33.50
  -4   6  -4   32.30   14.50
  -4   6  -4   47.30    8.00
  -4   6  -4   33.10   12.10
  -4   6  -4   31.90   10.50
   4  -6   4   26.00    8.10
   4  -6   4   32.20    8.60
   4  -6   4   30.30    8.90
   4  -6   4   37.00    6.60
  -6   6  -4   24.00   13.80
  -6   6  -4   -2.50   16.70
  -6   6  -4    7.70   14.30
   6  -6   4   12.30    9.80
   6  -6   4   15.10    9.90
   6  -6   4    8.20    8.70
  -8   6  -4  288.77   30.70
  -8   6  -4  338.47   33.70
  -8   6  -4  334.17   35.70
   8  -6   4  302.57   25.70
   8  -6   4  313.37   22.20
   8  -6   4  344.87   24.60
 -10   6  -4   -9.50   21.80
 -10   6  -4    7.40   28.90
 -10   6  -4   22.70   26.00
  10  -6   4   19.20   16.80
  10  -6   4   24.50   20.60
 -12   6  -4  155.48   32.00
 -12   6  -4  161.78   38.30
 -12   6  -4  129.89   30.30
 -12   6  -4  211.78   43.50
  12  -6   4  139.79   24.30
  12  -6   4  206.28   26.20
  19   5  -4   39.80   32.40
  19   5  -4  -16.10   26.30
 -19  -5   4   40.50   26.10
 -19  -5   4   45.30   33.40
  17   5  -4    1.40   21.90
  17   5  -4   13.90   22.10
 -17  -5   4  -12.00   23.40
 -17  -5   4   -5.30   18.20
  15   5  -4  169.98   21.00
  15   5  -4  202.38   18.40
  15   5  -4  162.98   29.90
 -15  -5   4  222.38   23.60
 -15  -5   4  232.38   25.50
  13   5  -4   50.29   13.60
  13   5  -4   46.20   11.30
  13   5  -4   70.19   14.40
 -13  -5   4   81.89   14.20
 -13  -5   4   66.09   10.90
 -13  -5   4   67.19   14.40
 -13  -5   4   68.09   16.80
  11   5  -4  300.07   23.30
  11   5  -4  296.37   23.40
  11   5  -4  274.77   20.60
  11   5  -4  307.27   23.10
 -11  -5   4  307.27   18.80
 -11  -5   4  330.37   21.10
 -11  -5   4  317.27   21.50
 -11  -5   4  293.17   23.60
   9   5  -4  136.29   11.90
   9   5  -4   96.79   12.80
   9   5  -4  109.69   14.70
  -9  -5   4  122.49   11.30
  -9  -5   4  113.99   13.30
  -9  -5   4  120.69   14.20
  -9  -5   4  131.39   12.60
   7   5  -4  804.82   28.60
   7   5  -4  782.82   36.10
   7   5  -4  825.62   31.80
   7   5  -4  805.82   36.50
  -7  -5   4  759.32   32.60
  -7  -5   4  881.41   34.60
  -7  -5   4  829.32   34.90
  -7  -5   4  826.52   31.90
   5   5  -4  627.44   30.40
   5   5  -4  626.94   29.10
   5   5  -4  648.64   25.40
   5   5  -4  560.14   28.20
   5   5  -4  613.64   28.40
   5   5  -4  653.73   24.60
  -5  -5   4  667.93   27.30
  -5  -5   4  642.04   24.90
  -5  -5   4  641.14   25.80
  -5  -5   4  647.84   27.90
  -5  -5   4  644.44   27.40
   3   5  -4  269.97   15.30
   3   5  -4  220.38   17.40
   3   5  -4  261.57   13.00
   3   5  -4  267.77   15.10
   3   5  -4  260.27   18.20
   3   5  -4  218.18   16.00
   3   5  -4  264.57   14.10
  -3  -5   4  261.77   12.90
  -3  -5   4  261.67   11.40
  -3  -5   4  257.47   14.40
  -3  -5   4  251.67   14.40
  -3  -5   4  256.27   13.60
  -3  -5   4  241.28   16.40
   1   5  -4  211.58   16.70
   1   5  -4  252.07   13.20
   1   5  -4  258.67   14.90
   1   5  -4  218.88   18.60
   1   5  -4  238.78   13.50
  -1  -5   4  229.98   13.50
  -1  -5   4  245.58   14.70
  -1  -5   4  241.58   11.20
  -1  -5   4  268.87   12.70
  -1  -5   4  257.57   13.90
  -1   5  -4  572.74   20.20
  -1   5  -4  556.34   23.80
  -1   5  -4  563.64   28.10
  -1   5  -4  535.15   29.80
  -1   5  -4  566.34   25.10
   1  -5   4  522.15   24.80
   1  -5   4  588.54   24.00
   1  -5   4  563.24   24.90
   1  -5   4  576.54   21.10
   1  -5   4  516.95   24.20
   1  -5   4  582.94   20.80
  -3   5  -4  115.99    8.70
  -3   5  -4  106.39   13.90
  -3   5  -4  108.69   11.50
  -3   5  -4  118.29   17.60
  -3   5  -4  122.89   10.50
   3  -5   4  118.69   11.60
   3  -5   4  116.29   12.10
   3  -5   4   91.19   10.30
   3  -5   4  120.69   10.90
   3  -5   4   96.99    6.40
   3  -5   4  105.09    5.90
  -5   5  -4  171.78   19.90
  -5   5  -4  189.98   22.70
  -5   5  -4  194.88   19.10
  -5   5  -4  192.58   14.60
   5  -5   4  201.48   10.90
   5  -5   4  183.58   15.80
   5  -5   4  145.59   12.40
   5  -5   4  185.18   15.20
   5  -5   4  184.28   16.80
  -7   5  -4  170.28   22.60
  -7   5  -4  135.69   18.50
  -7   5  -4  127.99   23.00
   7  -5   4  109.49   13.60
   7  -5   4  133.19   10.70
   7  -5   4  121.39   15.60
   7  -5   4  156.08   13.70
  -9   5  -4   16.00   22.60
  -9   5  -4   43.00   27.10
  -9   5  -4   19.00   19.90
   9  -5   4   49.99   13.90
   9  -5   4   24.50   11.80
   9  -5   4   28.60   14.30
 -11   5  -4  159.08   30.00
 -11   5  -4  148.09   33.00
 -11   5  -4  219.98   35.90
  11  -5   4  133.99   20.50
  11  -5   4  181.88   23.80
 -13   5  -4   -4.20   31.40
 -13   5  -4  -12.00   29.40
 -13   5  -4   66.59   40.80
 -13   5  -4   18.10   41.00
  13  -5   4  -51.99   23.60
  13  -5   4   17.30   25.80
  18   4  -4  326.87   32.00
  18   4  -4  264.37   29.30
 -18  -4   4  302.47   35.70
 -18  -4   4  308.47   29.40
  16   4  -4  101.89   19.50
  16   4  -4   80.29   19.20
  16   4  -4   81.19   16.70
 -16  -4   4  104.89   31.30
 -16  -4   4   80.79   21.10
 -16  -4   4   88.79   18.70
 -16  -4   4  112.59   22.50
  14   4  -4  919.81   42.50
  14   4  -4  969.80   44.10
  14   4  -4  963.50   45.40
 -14  -4   4  965.80   44.20
 -14  -4   4  971.80   45.60
 -14  -4   4  955.60   47.60
 -14  -4   4  914.31   38.20
  12   4  -4  382.86   23.10
  12   4  -4  326.27   24.80
  12   4  -4  313.67   24.80
  12   4  -4  333.27   23.10
 -12  -4   4  343.17   19.00
 -12  -4   4  309.47   23.70
 -12  -4   4  312.97   25.60
 -12  -4   4  318.07   22.30
  10   4  -4  361.96   21.50
  10   4  -4  340.47   22.80
  10   4  -4  336.77   22.90
  10   4  -4  318.87   18.10
 -10  -4   4  347.77   23.00
 -10  -4   4  366.66   24.30
 -10  -4   4  371.26   21.70
 -10  -4   4  332.47   18.20
   8   4  -4 1809.22   65.09
   8   4  -4 1823.42   62.99
   8   4  -4 1785.32   68.59
   8   4  -4 1799.62   69.69
  -8  -4   4 1830.72   66.39
  -8  -4   4 1834.12   68.19
  -8  -4   4 1784.92   69.09
  -8  -4   4 1855.51   67.09
   6   4  -4  781.92   35.30
   6   4  -4  801.02   34.70
   6   4  -4  841.12   30.00
   6   4  -4  870.21   31.10
   6   4  -4  833.62   35.20
  -6  -4   4  756.62   33.60
  -6  -4   4  810.52   32.10
  -6  -4   4  844.42   34.40
  -6  -4   4  757.92   32.10
   4   4  -4 3790.82  138.09
   4   4  -4 3807.82  137.59
   4   4  -4 4013.10  136.99
   4   4  -4 3935.51  135.49
   4   4  -4 3685.73  138.49
   4   4  -4 4001.50  135.09
   4   4  -4 4118.79  137.49
  -4  -4   4 3839.52  136.39
  -4  -4   4 3830.12  136.49
  -4  -4   4 4064.29  138.09
  -4  -4   4 3939.61  138.79
  -4  -4   4 3809.02  135.19
  -4  -4   4 3974.60  132.79
  -4  -4   4 3758.02  136.39
   2   4  -4  247.48   14.50
   2   4  -4  273.37   14.10
   2   4  -4  240.48   17.80
   2   4  -4  234.58   16.50
   2   4  -4  237.78   12.10
   2   4  -4  251.37   12.40
  -2  -4   4  222.18   12.60
  -2  -4   4  230.48   12.30
  -2  -4   4  237.48   16.20
  -2  -4   4  231.98   14.00
  -2  -4   4  244.68   13.30
  -2  -4   4  243.18   15.60
  -2  -4   4  240.18   11.90
   0   4  -4 4288.67  156.08
   0   4  -4 4459.55  152.58
   0   4  -4 4515.45  153.88
   0   4  -4 4208.28  156.68
   0   4  -4 4345.27  149.79
   0  -4   4 4427.06  153.38
   0  -4   4 4582.34  153.28
   0  -4   4 4466.35  151.98
   0  -4   4 4343.47  153.18
  -2   4  -4  436.66   16.90
  -2   4  -4  437.26   20.40
  -2   4  -4  404.76   24.80
  -2   4  -4  391.46   20.60
  -2   4  -4  395.86   18.70
  -2   4  -4  365.56   22.20
   2  -4   4  395.16   15.20
   2  -4   4  413.86   15.20
   2  -4   4  421.06   21.50
   2  -4   4  405.06   19.20
   2  -4   4  417.26   19.00
   2  -4   4  400.96   17.20
   2  -4   4  434.86   20.20
  -4   4  -4 3148.68  112.69
  -4   4  -4 2904.71  115.89
  -4   4  -4 3007.30  114.69
  -4   4  -4 3214.28  109.69
  -4   4  -4 3181.98  110.09
   4  -4   4 3060.69  111.49
   4  -4   4 3266.07  108.29
   4  -4   4 3089.09  110.39
   4  -4   4 3096.19  109.59
  -6   4  -4  339.57   26.60
  -6   4  -4  347.87   29.80
  -6   4  -4  302.27   24.20
   6  -4   4  316.87   18.20
   6  -4   4  314.67   22.90
   6  -4   4  358.76   20.10
   6  -4   4  375.96   18.90
   6  -4   4  321.57   21.60
  -8   4  -4  891.61   48.40
  -8   4  -4  912.41   51.39
  -8   4  -4  904.91   46.50
   8  -4   4  902.01   40.30
   8  -4   4  894.51   36.90
   8  -4   4  920.11   43.30
   8  -4   4  931.81   38.80
   8  -4   4  962.50   42.60
 -10   4  -4  370.06   36.60
 -10   4  -4  311.77   26.60
 -10   4  -4  356.36   41.30
  10  -4   4  337.77   27.70
  10  -4   4  309.47   28.50
  10  -4   4  293.77   24.80
 -12   4  -4  187.68   37.70
 -12   4  -4  199.68   33.10
 -12   4  -4  171.48   28.50
 -12   4  -4  211.28   39.00
  12  -4   4  175.18   25.20
  12  -4   4  168.18   24.50
  19   3  -4   69.99   24.80
  19   3  -4   59.39   29.00
 -19  -3   4  142.69   33.40
 -19  -3   4  100.39   24.90
  17   3  -4   19.70   19.30
  17   3  -4    4.50   17.70
  17   3  -4    4.80   19.20
  17   3  -4  -12.50   16.70
 -17  -3   4   -6.70   20.60
 -17  -3   4   27.30   23.60
 -17  -3   4   10.50   17.60
 -17  -3   4    8.80   32.80
  15   3  -4   59.79   16.20
  15   3  -4   38.10   14.00
  15   3  -4   49.50   14.10
 -15  -3   4   64.19   19.30
 -15  -3   4   64.29   16.20
  13   3  -4  239.28   20.50
  13   3  -4  228.18   20.60
  13   3  -4  220.98   22.40
 -13  -3   4  246.78   23.90
 -13  -3   4  237.48   22.40
 -13  -3   4  258.67   16.10
  11   3  -4  194.58   17.60
  11   3  -4  162.08   14.80
  11   3  -4  189.18   17.40
  11   3  -4  177.48   16.60
  11   3  -4  187.78   14.40
 -11  -3   4  184.48   19.80
 -11  -3   4  205.28   14.00
 -11  -3   4  190.98   19.70
 -11  -3   4  181.68   12.10
   9   3  -4  603.14   30.30
   9   3  -4  623.04   30.10
   9   3  -4  670.63   25.80
  -9  -3   4  660.43   26.70
  -9  -3   4  630.24   30.30
  -9  -3   4  626.44   30.40
  -9  -3   4  657.33   31.20
   7   3  -4  366.86   15.60
   7   3  -4  374.06   20.50
   7   3  -4  360.26   15.00
   7   3  -4  340.37   21.20
   7   3  -4  384.76   22.70
  -7  -3   4  364.06   20.30
  -7  -3   4  348.37   18.50
  -7  -3   4  343.07   17.20
  -7  -3   4  365.86   19.70
   5   3  -4  112.99    7.30
   5   3  -4  110.79   12.10
   5   3  -4  105.49    8.10
   5   3  -4   69.89    8.30
   5   3  -4  101.89   11.60
   5   3  -4  113.69   12.20
   5   3  -4  103.29   10.40
  -5  -3   4  101.39    7.10
  -5  -3   4  112.29    6.00
  -5  -3   4  108.09   11.20
  -5  -3   4   85.49    9.20
  -5  -3   4  103.09   11.00
  -5  -3   4  109.69   10.10
  -5  -3   4  107.09   12.00
   3   3  -4  186.78   10.50
   3   3  -4  160.18   14.30
   3   3  -4  200.58   10.00
   3   3  -4  182.38   15.90
   3   3  -4  209.88   12.50
   3   3  -4  197.68   13.50
   3   3  -4  203.68   11.80
  -3  -3   4  185.68   13.90
  -3  -3   4  195.18   12.10
  -3  -3   4  178.28    9.80
  -3  -3   4  174.38   11.60
  -3  -3   4  201.18   13.80
  -3  -3   4  197.28    7.50
   1   3  -4   49.20    7.20
   1   3  -4   32.20    4.30
   1   3  -4   35.60    6.30
   1   3  -4   13.30    7.60
   1   3  -4   29.80    2.70
   1   3  -4   38.30    9.80
  -1  -3   4   30.40    6.30
  -1  -3   4   22.60    5.90
  -1  -3   4   13.60    7.80
  -1  -3   4   28.80    5.30
  -1  -3   4   26.50    4.90
  -1  -3   4   38.10    8.80
  -1   3  -4    3.80    5.90
  -1   3  -4    4.40   10.10
  -1   3  -4   -1.00    7.50
  -1   3  -4    0.50    3.90
  -1   3  -4    3.20    2.70
   1  -3   4    3.20    4.30
   1  -3   4    1.90    5.10
   1  -3   4   10.40    5.10
   1  -3   4   15.90    6.20
  -3   3  -4  389.36   22.20
  -3   3  -4  409.96   21.80
  -3   3  -4  371.76   24.60
  -3   3  -4  409.86   18.10
  -3   3  -4  437.06   18.40
  -3   3  -4  427.86   20.20
   3  -3   4  413.16   20.30
   3  -3   4  404.26   19.50
   3  -3   4  390.36   18.60
   3  -3   4  372.96   20.90
  -5   3  -4  175.68   19.40
  -5   3  -4  193.08   15.40
  -5   3  -4  209.38   21.80
  -5   3  -4  187.28   18.50
   5  -3   4  189.68   16.80
   5  -3   4  160.18   13.80
   5  -3   4  164.28   15.60
   5  -3   4  185.68   13.80
   5  -3   4  174.08   13.70
  -7   3  -4  254.17   25.80
  -7   3  -4  282.07   21.30
  -7   3  -4  273.87   24.20
  -7   3  -4  274.17   27.00
   7  -3   4  233.48   21.80
   7  -3   4  265.87   17.70
   7  -3   4  311.27   19.00
   7  -3   4  259.07   21.10
  -9   3  -4  228.58   30.30
  -9   3  -4  185.28   25.80
  -9   3  -4  213.48   25.40
  -9   3  -4  195.68   20.50
   9  -3   4  202.48   18.90
   9  -3   4  190.08   21.50
   9  -3   4  245.38   21.70
   9  -3   4  238.78   25.30
 -11   3  -4   32.90   26.30
 -11   3  -4   53.19   30.60
 -11   3  -4  103.09   26.50
 -11   3  -4   88.29   29.50
  11  -3   4   74.79   19.80
  11  -3   4   64.19   17.60
  11  -3   4   31.90   18.80
 -13   3  -4  122.29   42.10
 -13   3  -4   35.10   30.00
 -13   3  -4  180.18   43.70
 -13   3  -4   78.79   28.50
  13  -3   4   82.79   25.00
  13  -3   4   58.79   27.20
  13  -3   4   99.19   25.40
 -20  -2   4  135.59   46.70
  18   2  -4    7.90   19.40
  18   2  -4   37.30   23.40
 -18  -2   4  -16.00   38.60
 -18  -2   4   20.40   27.30
 -18  -2   4  -12.80   18.70
 -18  -2   4   17.80   22.60
  16   2  -4   57.49   16.30
  16   2  -4   24.70   21.20
  16   2  -4   63.69   15.10
 -16  -2   4   45.80   23.00
 -16  -2   4   36.50   18.90
 -16  -2   4   51.29   21.80
  14   2  -4   38.90   12.00
  14   2  -4   42.40   13.70
  14   2  -4   47.30   11.80
 -14  -2   4   57.79   17.20
 -14  -2   4   40.80   14.80
 -14  -2   4   60.29    6.70
  12   2  -4   -4.20    9.80
  12   2  -4   -9.50    8.20
  12   2  -4    7.30    8.20
  12   2  -4   -2.20    8.10
 -12  -2   4   -3.00   12.10
 -12  -2   4  -10.50    7.20
 -12  -2   4   -0.20   11.00
  10   2  -4   27.10    8.40
  10   2  -4   32.80    6.10
  10   2  -4   34.20    8.90
  10   2  -4   28.30    8.20
  10   2  -4   27.60   11.10
 -10  -2   4   29.60   10.70
 -10  -2   4   21.00   10.60
 -10  -2   4   25.20    6.20
 -10  -2   4   27.00    6.40
   8   2  -4  175.38    9.00
   8   2  -4  171.08    9.50
   8   2  -4  157.28   14.70
   8   2  -4  173.38   14.80
  -8  -2   4  151.48   11.00
  -8  -2   4  139.79   15.70
  -8  -2   4  170.78   14.70
  -8  -2   4  167.38   15.90
  -8  -2   4  172.48   15.70
   6   2  -4   39.90    7.80
   6   2  -4   62.59    6.80
   6   2  -4   50.79    7.20
   6   2  -4   52.59    5.00
   6   2  -4   61.09    9.90
   6   2  -4   62.49   10.10
  -6  -2   4   47.50    6.50
  -6  -2   4   69.49    9.90
  -6  -2   4   46.70    6.70
  -6  -2   4   57.79    9.50
  -6  -2   4   58.69    5.40
  -6  -2   4   52.19    8.90
  -6  -2   4   32.20    8.60
   4   2  -4  257.27   11.20
   4   2  -4  267.37   13.50
   4   2  -4  255.57   17.20
   4   2  -4  274.67   13.90
   4   2  -4  242.08   16.40
   4   2  -4  279.77   16.30
   4   2  -4  241.08   13.90
   4   2  -4  261.47   14.00
  -4  -2   4  246.28   15.90
  -4  -2   4  245.88   14.10
  -4  -2   4  253.87   11.10
  -4  -2   4  285.77   15.70
  -4  -2   4  237.78   15.60
   2   2  -4   78.29   11.10
   2   2  -4   58.99    9.30
   2   2  -4   69.59    8.30
   2   2  -4   72.49    7.40
   2   2  -4   75.89    6.20
  -2  -2   4   73.09    7.60
  -2  -2   4   80.69    8.00
  -2  -2   4   67.79    6.00
  -2  -2   4   75.09    8.60
  -2  -2   4   75.99    9.40
  -2  -2   4   64.69    7.40
  -2  -2   4   77.89    4.80
   0   2  -4  118.49   11.00
   0   2  -4  107.99   10.30
   0   2  -4  118.99   14.00
   0   2  -4  134.09    7.80
   0   2  -4  104.89   11.70
   0   2  -4  127.09    6.60
   0  -2   4  133.19    9.40
   0  -2   4  138.29   10.60
   0  -2   4  143.09   10.80
   0  -2   4  108.29   12.40
   0  -2   4  117.29    9.70
  -2   2  -4   23.30    6.50
  -2   2  -4    0.30    6.80
  -2   2  -4    4.50    3.90
  -2   2  -4    7.80    3.90
  -2   2  -4   -3.50    9.60
   2  -2   4   14.90    7.80
   2  -2   4    8.40    2.50
   2  -2   4   13.70    5.50
   2  -2   4    3.80    3.70
   2  -2   4    5.30    6.10
   2  -2   4    3.90    5.80
  -4   2  -4  118.39   10.90
  -4   2  -4   95.89    9.30
  -4   2  -4   92.79   12.50
  -4   2  -4   86.09   14.80
  -4   2  -4   87.09   11.70
  -4   2  -4   94.49    9.60
   4  -2   4  100.49   10.00
   4  -2   4  111.49   11.30
   4  -2   4   80.89   10.60
   4  -2   4   86.69    9.40
   4  -2   4   90.89   10.20
  -6   2  -4   58.59   15.60
  -6   2  -4   46.30    9.90
  -6   2  -4   40.10   13.20
  -6   2  -4   54.39   13.50
   6  -2   4   41.30    8.70
   6  -2   4   35.40   10.10
   6  -2   4   38.10   11.10
   6  -2   4   44.50    8.20
   6  -2   4   30.70    9.60
  -8   2  -4   -5.70   18.10
  -8   2  -4   32.10   12.30
  -8   2  -4   13.60   14.70
  -8   2  -4   12.60   16.00
   8  -2   4   31.10   12.30
   8  -2   4   14.30    9.60
   8  -2   4   17.20    9.60
   8  -2   4   28.00   11.30
 -10   2  -4   47.40   17.00
 -10   2  -4   54.79   24.10
 -10   2  -4   76.19   22.90
  10  -2   4   50.59   13.90
  10  -2   4   74.69   15.30
  10  -2   4   71.49   17.30
 -12   2  -4  -14.70   21.90
 -12   2  -4    6.50   24.40
 -12   2  -4   21.90   31.20
 -12   2  -4   28.80   32.50
  12  -2   4   -8.40   21.40
  12  -2   4   42.30   18.80
  12  -2   4   32.40   19.50
 -14   2  -4   26.90   31.90
 -14   2  -4  143.69   48.70
 -14   2  -4   92.39   47.10
  14  -2   4   94.19   31.60
  19   1  -4   35.60   22.60
  19   1  -4   13.00   27.00
 -19  -1   4  -25.00   22.60
 -19  -1   4   19.50   45.30
 -19  -1   4   43.00   32.80
 -19  -1   4   18.00   26.30
  17   1  -4   24.30   19.30
  17   1  -4   22.70   17.60
  17   1  -4   44.50   17.00
 -17  -1   4   -5.70   16.50
 -17  -1   4   10.80   34.30
 -17  -1   4   40.20   24.70
 -17  -1   4   55.19   21.70
  15   1  -4   18.60   13.10
  15   1  -4   36.30   11.30
  15   1  -4   24.40   14.10
 -15  -1   4   16.20   16.20
 -15  -1   4   38.30   19.40
  13   1  -4  126.49   14.30
  13   1  -4  150.38   16.00
  13   1  -4  127.09   12.50
 -13  -1   4  111.69   18.80
 -13  -1   4  164.28    9.60
 -13  -1   4  129.89   17.90
  11   1  -4    9.50    7.10
  11   1  -4    4.20    7.40
  11   1  -4   -3.00    8.00
  11   1  -4   -1.70    6.30
 -11  -1   4   -9.00    6.80
 -11  -1   4   -5.90   10.00
 -11  -1   4   -5.30    4.00
 -11  -1   4    3.50   11.40
   9   1  -4  682.43   25.10
   9   1  -4  640.04   29.00
   9   1  -4  636.34   31.30
   9   1  -4  671.93   26.50
  -9  -1   4  710.93   30.40
  -9  -1   4  634.34   31.80
  -9  -1   4  626.54   31.40
  -9  -1   4  667.63   27.50
   7   1  -4  101.09   13.00
   7   1  -4   91.19   11.60
   7   1  -4   86.19    7.80
   7   1  -4   80.29    8.50
   7   1  -4  103.29   10.00
  -7  -1   4  100.29    9.80
  -7  -1   4   86.69   11.70
  -7  -1   4   74.79   10.40
  -7  -1   4   87.39    8.40
  -7  -1   4  110.59   12.70
  -7  -1   4  118.89   10.90
   5   1  -4  791.02   29.80
   5   1  -4  739.73   32.10
   5   1  -4  769.52   30.10
   5   1  -4  759.22   30.30
   5   1  -4  767.02   30.60
   5   1  -4  771.52   32.60
  -5  -1   4  771.62   32.20
  -5  -1   4  780.32   32.70
  -5  -1   4  734.93   30.60
  -5  -1   4  755.32   27.50
  -5  -1   4  794.62   28.50
  -5  -1   4  731.03   32.40
   3   1  -4   -0.30    6.30
   3   1  -4    7.60    4.80
   3   1  -4   -1.10    4.80
   3   1  -4   -3.40    3.70
   3   1  -4   -5.10    7.40
  -3  -1   4    3.10    2.20
  -3  -1   4    6.50    5.30
  -3  -1   4   -2.40    4.70
  -3  -1   4    0.90    6.80
  -3  -1   4   -6.90    4.60
  -3  -1   4   -1.50    2.10
   1   1  -4  482.45   23.10
   1   1  -4  516.85   19.50
   1   1  -4  483.35   25.30
   1   1  -4  514.95   19.40
   1   1  -4  518.55   22.00
   1   1  -4  540.95   22.40
  -1  -1   4  533.55   22.00
  -1  -1   4  494.75   20.30
  -1  -1   4  513.95   24.10
  -1  -1   4  490.85   22.50
  -1  -1   4  501.55   22.40
  -1  -1   4  545.85   23.30
  -1   1  -4  287.07   15.80
  -1   1  -4  299.67   13.10
  -1   1  -4  310.77   12.50
  -1   1  -4  258.17   18.80
  -1   1  -4  258.27   16.20
   1  -1   4  311.17   12.60
   1  -1   4  305.07   16.20
   1  -1   4  281.17   15.80
   1  -1   4  252.07   14.10
   1  -1   4  281.07   15.60
  -3   1  -4   55.39   10.30
  -3   1  -4   80.79    8.30
  -3   1  -4   63.89    6.20
  -3   1  -4   56.89   12.80
  -3   1  -4   45.20    8.60
   3  -1   4   56.69    5.90
   3  -1   4   67.79    9.60
   3  -1   4   62.19    5.20
   3  -1   4   57.29    8.70
   3  -1   4   54.79    7.90
  -5   1  -4  528.75   28.00
  -5   1  -4  573.44   28.10
  -5   1  -4  511.65   24.80
  -5   1  -4  508.25   30.50
   5  -1   4  521.45   22.80
   5  -1   4  515.85   24.60
   5  -1   4  479.55   24.50
   5  -1   4  530.95   25.40
   5  -1   4  543.35   26.90
  -7   1  -4   23.70   13.40
  -7   1  -4   43.60   16.90
  -7   1  -4   23.00   10.40
  -7   1  -4   22.50   13.10
   7  -1   4   34.50    9.50
   7  -1   4   23.00   10.90
   7  -1   4   25.90    9.90
   7  -1   4   37.20    8.60
  -9   1  -4  190.88   25.40
  -9   1  -4  176.98   23.20
  -9   1  -4  159.58   18.80
  -9   1  -4  166.78   23.90
   9  -1   4  143.79   15.80
   9  -1   4  133.99   14.70
   9  -1   4  182.68   19.90
   9  -1   4  150.48   17.60
 -11   1  -4   24.30   19.10
 -11   1  -4   -9.00   24.70
 -11   1  -4  -22.40   21.10
 -11   1  -4  -22.60   24.90
  11  -1   4   46.90   16.40
  11  -1   4    3.20   18.00
  11  -1   4   19.60   15.80
 -13   1  -4   82.29   30.40
 -13   1  -4   51.39   25.50
 -13   1  -4   74.99   38.80
 -13   1  -4   68.29   37.60
  13  -1   4   70.19   27.10
  13  -1   4   58.19   23.10
  18   0  -4   92.79   21.20
  18   0  -4  127.39   23.70
  18   0  -4  106.49   24.20
 -18   0   4  135.29   30.00
 -18   0   4  124.99   25.60
 -18   0   4   74.09   21.60
 -18   0   4  118.49   43.00
  16   0  -4  672.03   38.30
  16   0  -4  652.33   39.40
  16   0  -4  599.24   38.50
 -16   0   4  656.83   41.60
  14   0  -4   97.59   11.00
  14   0  -4  102.19   14.80
  14   0  -4  100.19   15.80
  14   0  -4  113.69   15.30
 -14   0   4   92.79   19.10
 -14   0   4  113.19   18.10
  12   0  -4  876.41   41.00
  12   0  -4  950.90   37.40
  12   0  -4  994.50   40.90
  12   0  -4  989.00   42.20
 -12   0   4  973.90   35.30
 -12   0   4  972.60   46.10
 -12   0   4 1001.00   42.10
 -12   0   4  942.71   44.10
  10   0  -4 1474.25   56.99
  10   0  -4 1467.85   58.49
  10   0  -4 1565.94   53.69
  10   0  -4 1509.65   55.99
  10   0  -4 1474.85   55.29
  10   0  -4 1517.65   59.89
 -10   0   4 1509.95   61.09
 -10   0   4 1516.85   60.59
 -10   0   4 1516.55   56.69
 -10   0   4 1525.55   54.09
   8   0  -4  865.91   36.10
   8   0  -4  877.21   35.90
   8   0  -4  864.31   38.10
   8   0  -4  939.01   38.10
   8   0  -4  899.31   35.70
   8   0  -4  966.70   31.90
  -8   0   4  936.51   35.80
  -8   0   4  869.81   39.30
  -8   0   4  911.61   33.90
  -8   0   4  918.11   36.30
  -8   0   4  873.21   39.00
  -8   0   4  865.01   35.30
   6   0  -4 2453.85   86.89
   6   0  -4 2204.58   85.09
   6   0  -4 2396.76   80.19
   6   0  -4 2342.87   84.09
   6   0  -4 2309.67   83.39
   6   0  -4 2509.85   82.69
   6   0  -4 2438.16   83.29
  -6   0   4 2281.77   85.89
  -6   0   4 2261.97   86.09
  -6   0   4 2214.68   83.59
  -6   0   4 2352.76   85.59
  -6   0   4 2352.86   82.49
   4   0  -4  357.66   18.60
   4   0  -4  370.76   19.50
   4   0  -4  377.66   17.60
   4   0  -4  332.17   15.50
   4   0  -4  336.17   16.80
   4   0  -4  371.76   15.90
  -4   0   4  358.96   14.90
  -4   0   4  386.16   19.40
  -4   0   4  348.37   13.40
  -4   0   4  355.96   19.20
  -4   0   4  333.97   16.80
  -4   0   4  360.96   17.60
   2   0  -4 8609.64  307.67
   2   0  -4 9533.55  310.27
   2   0  -4 9587.94  309.57
   2   0  -4 8444.86  309.87
   2   0  -4 8845.62  310.37
   2   0  -4 8999.80  307.17
   2   0  -4 8826.82  311.87
  -2   0   4 8585.54  310.97
  -2   0   4 8819.12  309.87
  -2   0   4 9723.73  310.47
  -2   0   4 8619.84  307.57
  -2   0   4 9159.88  307.77
  -2   0   4 9505.55  311.97
   0   0  -4  119.29    7.30
   0   0  -4  116.69    9.60
   0   0  -4  117.09   13.30
   0   0  -4  103.09    9.50
   0   0  -4   93.89    7.00
   0   0  -4  107.39    9.90
   0   0   4  128.19   12.60
   0   0   4  140.79   10.70
   0   0   4  109.39    9.80
   0   0   4   94.79    8.10
   0   0   4   96.19    9.20
   0   0   4  117.99    7.50
   0   0   4  110.09   10.60
  -2   0  -4 6159.28  220.88
  -2   0  -4 6369.96  218.38
  -2   0  -4 6532.35  217.68
  -2   0  -4 6427.76  215.28
  -2   0  -4 6210.18  218.58
   2   0   4 6144.08  215.28
   2   0   4 6196.28  219.08
   2   0   4 6164.18  218.28
   2   0   4 6462.85  215.78
  -4   0  -4  427.96   26.00
  -4   0  -4  422.76   23.00
  -4   0  -4  475.45   22.20
   4   0   4  456.75   18.90
   4   0   4  454.05   22.80
   4   0   4  420.76   22.80
   4   0   4  487.05   18.30
  -6   0  -4 1917.51   69.79
  -6   0  -4 1819.82   68.19
  -6   0  -4 1827.62   74.09
  -6   0  -4 1775.82   71.69
  -6   0  -4 1872.11   71.89
   6   0   4 1837.22   69.29
   6   0   4 1885.71   67.09
   6   0   4 1812.42   70.89
  -8   0  -4  757.32   42.40
  -8   0  -4  824.52   41.50
  -8   0  -4  796.62   41.00
  -8   0  -4  801.82   38.00
   8   0   4  797.62   36.30
   8   0   4  789.42   34.10
   8   0   4  756.12   39.00
 -10   0  -4  384.56   33.10
 -10   0  -4  457.85   39.40
 -10   0  -4  424.66   35.80
 -10   0  -4  439.96   37.90
  10   0   4  449.56   30.30
  10   0   4  442.46   31.70
  10   0   4  468.75   28.60
  10   0   4  415.16   44.50
 -12   0  -4  526.65   50.79
 -12   0  -4  390.86   33.70
 -12   0  -4  499.55   49.20
 -12   0  -4  442.86   43.60
  12   0   4  436.66   36.90
  12   0   4  441.16   34.60
  12   0   4  396.86   39.60
 -14   0  -4  -26.20   29.90
 -14   0  -4   74.29   43.50
  14   0   4   55.49   32.20
  19  -1  -4   11.60   22.30
  19  -1  -4   32.30   26.10
 -19   1   4  -53.49   23.50
 -19   1   4   12.30   45.30
 -19   1   4  -14.70   21.90
 -19   1   4  -41.40   31.60
  17  -1  -4   43.00   19.00
  17  -1  -4   45.40   19.20
  17  -1  -4   26.70   18.80
 -17   1   4   47.00   24.80
 -17   1   4   54.59   18.30
 -17   1   4   -9.50   20.50
  15  -1  -4   24.10   14.30
  15  -1  -4   25.20    9.50
  15  -1  -4   54.29   14.10
  15  -1  -4   34.00   14.40
 -15   1   4   20.50   17.40
 -15   1   4   23.40   20.10
  13  -1  -4  145.39   15.50
  13  -1  -4  166.48   16.50
  13  -1  -4  160.98   15.40
  13  -1  -4  149.09   10.80
 -13   1   4  144.09   19.70
 -13   1   4  127.29   18.70
  11  -1  -4   -2.70    6.90
  11  -1  -4   11.00    8.10
  11  -1  -4   -9.40    4.70
  11  -1  -4    5.00    3.90
 -11   1   4   -0.70   11.10
 -11   1   4   -9.20    9.60
 -11   1   4   -2.20    3.30
   9  -1  -4  639.04   30.10
   9  -1  -4  648.54   27.50
   9  -1  -4  683.93   23.50
   9  -1  -4  663.53   27.80
   9  -1  -4  635.74   30.40
  -9   1   4  663.63   28.40
  -9   1   4  661.93   28.90
  -9   1   4  617.14   32.40
  -9   1   4  652.93   27.30
  -9   1   4  663.73   25.30
  -9   1   4  631.94   32.00
   7  -1  -4   80.49    9.40
   7  -1  -4   99.99    8.40
   7  -1  -4   70.49    7.70
   7  -1  -4   90.89    7.00
   7  -1  -4   81.99   11.10
   7  -1  -4   85.39    8.90
  -7   1   4  106.39   10.00
  -7   1   4   87.89   11.50
  -7   1   4   83.79    8.10
  -7   1   4  105.39   10.80
  -7   1   4   97.49   12.90
  -7   1   4   85.99   11.70
  -7   1   4   83.69    7.50
   5  -1  -4  759.62   30.00
   5  -1  -4  779.42   28.40
   5  -1  -4  666.63   31.60
   5  -1  -4  753.02   28.20
   5  -1  -4  770.42   32.80
   5  -1  -4  705.33   30.90
  -5   1   4  732.83   30.10
  -5   1   4  749.53   32.40
  -5   1   4  765.02   28.70
  -5   1   4  737.33   32.30
  -5   1   4  774.22   31.20
   3  -1  -4    3.50    4.00
   3  -1  -4    0.50    7.50
   3  -1  -4   -2.40    2.90
   3  -1  -4    3.80    4.60
   3  -1  -4    2.60    2.70
   3  -1  -4    2.30    5.30
   3  -1  -4   -3.00    4.90
  -3   1   4    2.20    5.00
  -3   1   4   -5.60    4.40
  -3   1   4   -3.60    6.00
  -3   1   4    0.40    3.40
  -3   1   4    7.40    7.20
  -3   1   4   -1.50    1.70
   1  -1  -4  478.05   22.10
   1  -1  -4  494.45   24.10
   1  -1  -4  509.65   20.40
   1  -1  -4  513.35   18.30
   1  -1  -4  513.05   21.90
   1  -1  -4  484.85   24.70
   1  -1  -4  493.35   21.90
  -1   1   4  512.55   19.80
  -1   1   4  555.54   20.80
  -1   1   4  481.25   22.00
  -1   1   4  526.05   22.30
  -1   1   4  521.35   23.90
  -1   1   4  493.15   22.80
  -1   1   4  534.55   22.10
  -1   1   4  494.65   24.50
  -1  -1  -4  269.37   14.70
  -1  -1  -4  277.37   19.30
  -1  -1  -4  283.07   13.80
  -1  -1  -4  268.97   16.70
   1   1   4  272.87   15.30
   1   1   4  279.17   13.00
   1   1   4  268.67   16.40
   1   1   4  276.67   17.70
   1   1   4  311.27   17.00
  -3  -1  -4   62.69    9.10
  -3  -1  -4   48.00   12.00
  -3  -1  -4   51.39    7.70
  -3  -1  -4   57.89    8.10
   3   1   4   52.29    5.60
   3   1   4   52.79    8.70
   3   1   4   51.39    5.30
   3   1   4   60.69    9.30
  -5  -1  -4  521.45   22.80
  -5  -1  -4  501.25   25.30
  -5  -1  -4  518.65   29.50
  -5  -1  -4  523.85   25.50
   5   1   4  454.95   26.00
   5   1   4  476.55   25.70
   5   1   4  510.15   21.00
   5   1   4  542.95   21.20
  -7  -1  -4   30.10   12.20
  -7  -1  -4   39.70   15.70
  -7  -1  -4   26.60   11.00
  -7  -1  -4   10.40   12.80
   7   1   4   28.70    7.60
   7   1   4   26.80   11.40
   7   1   4   12.80   11.10
  -9  -1  -4  120.59   17.80
  -9  -1  -4  154.68   21.60
  -9  -1  -4  203.88   22.80
  -9  -1  -4  174.78   24.70
   9   1   4  177.58   17.90
   9   1   4  150.58   14.70
   9   1   4  152.78   18.50
 -11  -1  -4   17.80   23.90
 -11  -1  -4  -28.90   18.50
 -11  -1  -4  -13.50   18.20
 -11  -1  -4  -25.10   30.60
  11   1   4    1.20   17.10
  11   1   4   -2.30   18.40
  11   1   4    4.90   15.10
 -13  -1  -4   32.00   37.00
 -13  -1  -4    4.40   25.40
 -13  -1  -4   99.49   28.90
  13   1   4   48.80   23.50
  13   1   4    0.70   24.30
 -20   2   4   75.09   53.69
  18  -2  -4   19.30   20.40
  18  -2  -4   -5.50   21.20
 -18   2   4   16.50   19.20
 -18   2   4    5.00   40.80
 -18   2   4   17.70   27.10
 -18   2   4  -27.00   23.20
  16  -2  -4   32.50   11.60
  16  -2  -4   67.09   17.80
  16  -2  -4   68.49   16.10
  16  -2  -4   44.20   16.50
 -16   2   4   68.69   21.10
 -16   2   4   96.29   25.80
  14  -2  -4   38.40   12.90
  14  -2  -4   37.90    8.20
  14  -2  -4   42.40    4.90
  14  -2  -4   59.29   12.50
  14  -2  -4   22.30   11.90
 -14   2   4   29.90   18.90
 -14   2   4   65.09   17.60
  12  -2  -4    4.40    3.70
  12  -2  -4   -7.90    7.90
  12  -2  -4  -11.00    7.10
  12  -2  -4   -2.30    9.00
  12  -2  -4   -2.10    3.00
 -12   2   4   -1.00   11.60
 -12   2   4   10.10   14.30
  10  -2  -4   28.60    3.50
  10  -2  -4   36.80    7.20
  10  -2  -4   27.70    3.80
  10  -2  -4   33.90    3.00
  10  -2  -4   42.80    9.50
  10  -2  -4   31.70    7.00
 -10   2   4   29.80   11.90
 -10   2   4   49.40    9.00
 -10   2   4   30.70   12.60
 -10   2   4   34.20    4.30
   8  -2  -4  185.68   10.50
   8  -2  -4  159.18    7.90
   8  -2  -4  149.39   12.50
   8  -2  -4  165.58   14.80
   8  -2  -4  167.78   12.70
   8  -2  -4  163.18   15.00
  -8   2   4  144.29   11.60
  -8   2   4  136.39   13.30
  -8   2   4  178.78   12.40
  -8   2   4  150.28   15.60
  -8   2   4  135.29   16.20
   6  -2  -4   45.80    7.00
   6  -2  -4   59.49   11.20
   6  -2  -4   53.89    5.80
   6  -2  -4   52.69    8.30
   6  -2  -4   47.60    6.90
   6  -2  -4   51.99    5.50
   6  -2  -4   53.39    8.20
  -6   2   4   62.59    7.50
  -6   2   4   68.89    9.60
  -6   2   4   63.49    6.50
  -6   2   4   49.99    9.50
  -6   2   4   50.69    7.70
  -6   2   4   56.69   10.50
   4  -2  -4  269.87   14.40
   4  -2  -4  237.08   14.70
   4  -2  -4  248.38   13.90
   4  -2  -4  264.07   11.00
   4  -2  -4  264.77   12.30
  -4   2   4  245.78   16.80
  -4   2   4  233.88   13.90
  -4   2   4  256.37   17.30
  -4   2   4  275.27   14.70
  -4   2   4  254.97    9.30
  -4   2   4  253.27   12.70
   2  -2  -4   59.19    7.00
   2  -2  -4   59.89   10.00
   2  -2  -4   64.69    6.60
   2  -2  -4   74.89    7.30
   2  -2  -4   73.19    3.70
   2  -2  -4   81.19    8.70
   2  -2  -4   75.89    9.00
  -2   2   4   79.19    8.20
  -2   2   4   90.89   11.10
  -2   2   4   70.69   10.00
  -2   2   4   60.29    7.80
  -2   2   4   90.59    7.60
   0  -2  -4  117.59    7.90
   0  -2  -4  134.19   10.50
   0  -2  -4  117.29   10.60
   0  -2  -4  125.19   13.60
   0  -2  -4  120.29    9.40
   0  -2  -4  117.29   10.90
   0  -2  -4  146.39   13.40
   0   2   4  104.39   12.10
   0   2   4  127.99    8.50
   0   2   4  120.79   11.00
   0   2   4  133.39   11.40
   0   2   4  132.39    9.80
   0   2   4  128.89   10.80
  -2  -2  -4    2.30    9.70
  -2  -2  -4    8.30    5.70
  -2  -2  -4   12.60    5.10
  -2  -2  -4    1.40    4.90
   2   2   4    4.40    5.70
   2   2   4   12.60    4.30
   2   2   4    5.80    7.30
  -4  -2  -4   87.09   13.80
  -4  -2  -4   96.29   10.50
  -4  -2  -4   79.49    9.90
   4   2   4   97.59   11.50
   4   2   4   97.29    6.60
   4   2   4   80.59   11.00
   4   2   4  100.39    9.40
  -6  -2  -4   57.29   10.70
  -6  -2  -4   23.60   14.10
  -6  -2  -4   49.80    7.90
  -6  -2  -4   56.39   10.90
   6   2   4   31.40   10.10
   6   2   4   49.50    7.20
   6   2   4   37.80   10.60
   6   2   4   32.90   11.20
  -8  -2  -4   34.50   13.90
  -8  -2  -4   26.50   13.60
  -8  -2  -4   22.70   14.50
  -8  -2  -4   21.10   16.40
   8   2   4   31.50    9.10
   8   2   4   35.20   13.30
   8   2   4   21.20   12.30
 -10  -2  -4   72.09   22.90
 -10  -2  -4   46.10   18.60
 -10  -2  -4   92.69   21.40
 -10  -2  -4   91.79   23.10
  10   2   4   98.69   18.90
  10   2   4   58.79   17.60
  10   2   4   59.99   13.70
 -12  -2  -4  -11.80   31.20
 -12  -2  -4   18.20   22.00
 -12  -2  -4  -43.20   22.40
  12   2   4   22.90   20.50
  12   2   4   26.00   31.20
 -14  -2  -4   62.29   44.90
  14   2   4   63.09   37.50
  19  -3  -4   37.70   26.80
  19  -3  -4   94.69   23.90
 -19   3   4   99.79   33.50
 -19   3   4  104.49   30.50
 -19   3   4   73.19   50.39
 -19   3   4   98.79   26.30
  17  -3  -4    9.40   16.10
  17  -3  -4   10.60   19.80
 -17   3   4   15.00   20.30
 -17   3   4   34.80   25.20
  15  -3  -4   60.59   10.30
  15  -3  -4   47.70   15.40
  15  -3  -4   71.49   14.80
  15  -3  -4   45.30   16.00
 -15   3   4   38.00   17.20
 -15   3   4  129.19   25.30
  13  -3  -4  248.98   12.60
  13  -3  -4  254.97   19.20
  13  -3  -4  269.47   21.10
  13  -3  -4  248.88   23.80
 -13   3   4  266.67   27.30
 -13   3   4  208.38   21.60
  11  -3  -4  173.68   18.00
  11  -3  -4  179.08   15.00
  11  -3  -4  182.38   14.10
  11  -3  -4  185.98    8.60
 -11   3   4  195.88    8.70
 -11   3   4  170.78   18.10
 -11   3   4  223.28   23.10
   9  -3  -4  672.73   27.50
   9  -3  -4  636.54   29.90
   9  -3  -4  639.64   28.50
   9  -3  -4  605.74   27.30
  -9   3   4  666.33   27.80
  -9   3   4  629.84   26.60
  -9   3   4  594.14   33.50
  -9   3   4  617.54   31.30
   7  -3  -4  363.16   14.70
   7  -3  -4  347.67   16.60
   7  -3  -4  342.67   19.00
   7  -3  -4  349.67   19.90
   7  -3  -4  348.37   17.80
   7  -3  -4  367.56   13.90
  -7   3   4  357.26   17.50
  -7   3   4  372.66   17.80
  -7   3   4  336.07   20.70
  -7   3   4  355.36   22.50
  -7   3   4  356.66   19.60
  -7   3   4  358.16   15.90
   5  -3  -4  101.39    5.40
   5  -3  -4  114.99   11.70
   5  -3  -4   99.59    6.80
   5  -3  -4  114.69   10.50
   5  -3  -4   95.69    6.70
   5  -3  -4  122.29   11.40
   5  -3  -4   95.49   10.40
  -5   3   4   97.09    9.70
  -5   3   4  118.39   11.10
  -5   3   4   84.69    9.40
  -5   3   4  107.99   12.60
  -5   3   4  107.99    8.80
  -5   3   4   85.39   11.20
   3  -3  -4  171.38   13.50
   3  -3  -4  198.38   11.50
   3  -3  -4  206.78    8.20
   3  -3  -4  208.98   11.00
   3  -3  -4  193.78    7.60
   3  -3  -4  182.08   11.20
   3  -3  -4  212.38   13.20
   3  -3  -4  190.08    8.10
   3  -3  -4  193.98   13.50
  -3   3   4  220.58   16.00
  -3   3   4  181.78   12.60
  -3   3   4  196.98   12.20
  -3   3   4  198.18   11.30
  -3   3   4  185.38   10.50
  -3   3   4  168.78   14.70
   1  -3  -4   28.40    5.40
   1  -3  -4   32.40    7.90
   1  -3  -4   24.10    9.10
   1  -3  -4   33.50    5.70
   1  -3  -4   29.00    5.60
   1  -3  -4   38.60    4.10
   1  -3  -4   39.60    7.40
  -1   3   4   32.70    9.20
  -1   3   4   35.80    7.30
  -1   3   4   29.10    5.00
  -1   3   4   33.30    5.30
  -1   3   4   30.20    6.00
  -1   3   4   38.00    6.00
  -1  -3  -4    3.70    8.90
  -1  -3  -4    4.20    4.30
  -1  -3  -4    7.00    5.70
  -1  -3  -4    9.50    7.90
  -1  -3  -4    6.30    4.40
   1   3   4   -3.10    4.20
   1   3   4   -0.10    8.40
   1   3   4   -1.60    6.70
   1   3   4    7.20    5.90
  -3  -3  -4  422.46   21.00
  -3  -3  -4  410.26   24.20
  -3  -3  -4  421.86   18.30
  -3  -3  -4  423.66   19.80
   3   3   4  420.66   23.00
   3   3   4  401.26   15.00
   3   3   4  419.66   18.40
   3   3   4  382.36   21.20
  -5  -3  -4  185.58   19.70
  -5  -3  -4  189.68   16.80
  -5  -3  -4  171.18   11.80
   5   3   4  152.48   15.20
   5   3   4  182.48   17.30
   5   3   4  178.28   12.70
   5   3   4  178.48    9.50
  -7  -3  -4  264.77   25.10
  -7  -3  -4  280.17   22.30
  -7  -3  -4  276.07   20.00
   7   3   4  275.67   23.10
   7   3   4  284.97   16.50
   7   3   4  271.07   23.30
  -9  -3  -4  259.67   26.70
  -9  -3  -4  178.18   20.30
  -9  -3  -4  233.88   25.00
   9   3   4  214.38   21.40
   9   3   4  203.48   21.60
   9   3   4  206.18   18.90
 -11  -3  -4   94.19   27.70
 -11  -3  -4   64.29   33.30
 -11  -3  -4   41.60   19.90
  11   3   4   77.49   20.80
  11   3   4   71.89   22.70
 -13  -3  -4   58.49   25.10
  13   3   4   69.09   25.80
  18  -4  -4  273.47   28.10
  18  -4  -4  301.57   30.90
 -18   4   4  274.27   31.50
 -18   4   4  353.66   53.19
 -18   4   4  250.07   36.00
  16  -4  -4   62.69   17.20
  16  -4  -4   71.89   23.30
 -16   4   4   49.50   19.60
 -16   4   4   60.59   26.50
  14  -4  -4  905.21   36.10
  14  -4  -4  906.51   41.80
  14  -4  -4  892.81   45.40
 -14   4   4  951.80   47.00
 -14   4   4 1012.40   52.09
  12  -4  -4  338.77   21.70
  12  -4  -4  317.47   19.20
  12  -4  -4  322.57   23.70
  12  -4  -4  335.97   14.00
 -12   4   4  335.87   30.40
 -12   4   4  344.17   25.40
  10  -4  -4  334.97   17.00
  10  -4  -4  365.06   22.70
  10  -4  -4  341.77   19.40
  10  -4  -4  350.06   12.50
  10  -4  -4  356.16   20.70
  10  -4  -4  345.47   19.00
 -10   4   4  383.96   27.70
 -10   4   4  333.67   17.60
 -10   4   4  362.16   20.00
 -10   4   4  301.07   23.90
   8  -4  -4 1812.52   66.69
   8  -4  -4 1834.92   69.09
   8  -4  -4 1769.92   67.99
   8  -4  -4 1840.12   64.29
   8  -4  -4 1839.12   66.19
  -8   4   4 1799.72   66.19
  -8   4   4 1748.93   72.59
  -8   4   4 1919.31   65.59
  -8   4   4 1792.82   70.79
   6  -4  -4  827.92   33.80
   6  -4  -4  657.73   29.70
   6  -4  -4  794.42   28.10
   6  -4  -4  796.42   33.60
   6  -4  -4  811.02   32.50
   6  -4  -4  830.12   30.30
  -6   4   4  832.62   32.20
  -6   4   4  816.92   33.70
  -6   4   4  826.52   33.00
  -6   4   4  761.52   35.30
   4  -4  -4 4092.49  136.59
   4  -4  -4 3944.41  137.89
   4  -4  -4 3821.92  138.79
   4  -4  -4 4009.00  139.59
   4  -4  -4 3832.12  137.49
   4  -4  -4 4006.30  135.49
   4  -4  -4 4040.50  138.69
  -4   4   4 3846.92  139.39
  -4   4   4 4197.58  138.29
  -4   4   4 3919.01  134.29
  -4   4   4 3991.10  137.69
  -4   4   4 3846.72  138.39
  -4   4   4 3986.70  140.69
  -4   4   4 3654.93  140.79
  -4   4   4 3956.30  136.39
   2  -4  -4  223.08   14.70
   2  -4  -4  259.27   16.50
   2  -4  -4  231.78   13.40
   2  -4  -4  231.68   12.00
   2  -4  -4  259.47   15.10
   2  -4  -4  243.58   13.30
   2  -4  -4  236.98    9.00
  -2   4   4  255.97   15.50
  -2   4   4  235.58   17.30
  -2   4   4  247.08   12.40
  -2   4   4  259.27   13.20
  -2   4   4  229.78   17.20
  -2   4   4  224.78   12.70
   0  -4  -4 4461.35  153.38
   0  -4  -4 4307.87  152.58
   0  -4  -4 4321.67  154.88
   0  -4  -4 4375.46  150.68
   0  -4  -4 4517.15  150.48
   0  -4  -4 4306.37  154.88
   0   4   4 4303.07  151.98
   0   4   4 4571.74  152.88
   0   4   4 4587.24  154.98
   0   4   4 4063.49  153.68
   0   4   4 4291.57  152.98
  -2  -4  -4  400.76   16.90
  -2  -4  -4  418.46   23.80
  -2  -4  -4  431.56   18.90
  -2  -4  -4  447.16   23.90
  -2  -4  -4  379.56   20.10
   2   4   4  420.46   22.70
   2   4   4  402.26   22.90
   2   4   4  368.56   18.60
   2   4   4  402.56   21.30
  -4  -4  -4 3024.70  112.29
  -4  -4  -4 3159.18  109.29
  -4  -4  -4 3095.89  114.09
   4   4   4 2967.00  113.39
   4   4   4 3077.59  113.89
   4   4   4 3460.55  112.49
   4   4   4 3115.39  107.19
  -6  -4  -4  324.77   15.20
  -6  -4  -4  322.37   25.00
  -6  -4  -4  324.07   22.20
  -6  -4  -4  353.06   18.80
   6   4   4  287.07   23.60
   6   4   4  295.27   23.60
   6   4   4  355.16   15.10
  -8  -4  -4  914.91   43.60
  -8  -4  -4  957.20   40.20
  -8  -4  -4  932.51   45.70
   8   4   4  944.71   37.50
   8   4   4  914.71   44.90
   8   4   4  887.11   43.60
 -10  -4  -4  333.57   35.40
 -10  -4  -4  394.36   33.00
 -10  -4  -4  345.07   32.40
  10   4   4  327.17   32.10
  10   4   4  323.37   27.80
  10   4   4  285.27   23.70
 -12  -4  -4  152.88   26.30
 -12  -4  -4  209.58   35.30
  12   4   4  112.69   29.20
  12   4   4  139.09   25.40
  19  -5  -4   -0.70   27.90
  19  -5  -4   -2.90   27.10
 -19   5   4   56.89   38.10
 -19   5   4   93.09   51.79
 -19   5   4  -18.80   28.70
  17  -5  -4   33.10   21.60
  17  -5  -4   33.50   18.00
 -17   5   4   27.30   40.60
 -17   5   4   -6.10   25.50
 -17   5   4  -14.80   23.30
  15  -5  -4  194.28   22.30
  15  -5  -4  213.58   21.40
 -15   5   4  224.78   29.70
 -15   5   4  207.68   28.20
  13  -5  -4   50.99    6.10
  13  -5  -4   51.99   12.40
  13  -5  -4   68.39   14.70
 -13   5   4   60.89   19.80
 -13   5   4   53.09   16.80
  11  -5  -4  316.87   23.60
  11  -5  -4  311.67   19.30
  11  -5  -4  326.37   12.50
  11  -5  -4  288.17   19.50
  11  -5  -4  298.17   21.70
 -11   5   4  315.17   12.60
 -11   5   4  332.47   12.20
 -11   5   4  278.47   21.70
 -11   5   4  313.07   25.90
 -11   5   4  286.87   28.80
   9  -5  -4  130.39   11.50
   9  -5  -4  100.69   11.70
   9  -5  -4   97.69   12.20
   9  -5  -4  125.69   11.00
  -9   5   4  100.99    9.90
  -9   5   4  104.99   15.70
  -9   5   4  102.49   16.90
  -9   5   4  101.99    9.60
  -9   5   4  129.09   10.00
   7  -5  -4  814.32   35.30
   7  -5  -4  799.72   31.90
   7  -5  -4  790.32   33.10
   7  -5  -4  831.02   35.30
  -7   5   4  759.02   37.50
  -7   5   4  935.51   39.60
  -7   5   4  810.32   32.80
  -7   5   4  818.52   30.00
   5  -5  -4  620.94   27.60
   5  -5  -4  693.63   24.80
   5  -5  -4  653.43   28.70
   5  -5  -4  641.44   24.50
   5  -5  -4  624.74   28.70
  -5   5   4  633.44   27.50
  -5   5   4  656.03   27.90
  -5   5   4  602.54   31.20
  -5   5   4  643.34   24.10
   3  -5  -4  286.97   16.90
   3  -5  -4  245.08   15.40
   3  -5  -4  265.57   13.70
   3  -5  -4  255.87   16.60
   3  -5  -4  247.68   10.10
   3  -5  -4  263.57   14.90
  -3   5   4  247.28   15.40
  -3   5   4  274.77   14.10
  -3   5   4  279.77   19.80
  -3   5   4  267.97   18.50
  -3   5   4  244.58   12.70
  -3   5   4  253.27   11.10
   1  -5  -4  239.18   17.50
   1  -5  -4  253.37   14.70
   1  -5  -4  253.77   14.90
   1  -5  -4  264.27   15.30
   1  -5  -4  255.37   10.30
   1  -5  -4  258.67   11.40
  -1   5   4  248.58   14.70
  -1   5   4  256.87   18.10
  -1   5   4  294.87   16.70
  -1   5   4  235.78   16.00
  -1  -5  -4  508.05   27.10
  -1  -5  -4  579.04   23.50
  -1  -5  -4  573.94   20.40
  -1  -5  -4  547.35   27.50
  -1  -5  -4  546.95   22.50
  -1  -5  -4  546.45   24.80
   1   5   4  550.24   26.80
   1   5   4  532.15   26.40
   1   5   4  579.24   25.90
  -3  -5  -4  104.69   10.90
  -3  -5  -4   96.19    8.20
  -3  -5  -4  106.99   10.20
  -3  -5  -4  111.99    6.50
  -3  -5  -4  123.79   14.10
  -3  -5  -4   98.29   13.20
   3   5   4   94.29   11.60
   3   5   4   93.69   12.70
  -5  -5  -4  141.19   14.40
  -5  -5  -4  160.78   11.00
  -5  -5  -4  188.28   10.40
  -5  -5  -4  172.58    9.80
  -5  -5  -4  176.98   19.50
  -5  -5  -4  175.78    9.10
  -5  -5  -4  207.38   22.40
   5   5   4  166.38   17.60
   5   5   4  191.58    8.80
   5   5   4  162.38   17.10
  -7  -5  -4  141.69   17.70
  -7  -5  -4  135.49   12.30
  -7  -5  -4  107.69   14.90
   7   5   4  128.09   11.40
   7   5   4  107.09   16.10
   7   5   4  126.19   17.50
  -9  -5  -4   44.70   18.20
  -9  -5  -4   44.30   19.00
   9   5   4   30.70   10.60
   9   5   4   38.20   17.50
   9   5   4   50.09   17.60
 -11  -5  -4  171.98   29.90
 -11  -5  -4  157.48   25.00
  11   5   4  152.98   24.30
  11   5   4  143.59   28.10
 -13  -5  -4   28.80   24.70
 -13  -5  -4   -6.90   33.10
  13   5   4   60.89   27.90
  18  -6  -4   65.49   25.60
  18  -6  -4   61.69   22.20
 -18   6   4   45.70   26.50
 -18   6   4   95.89   47.30
 -18   6   4   55.99   33.20
  16  -6  -4  176.08   24.30
  16  -6  -4  135.29   20.10
 -16   6   4  128.39   31.10
 -16   6   4  136.49   24.50
  14  -6  -4   60.49   16.70
  14  -6  -4   43.20   13.30
  14  -6  -4   45.50   14.70
 -14   6   4   10.30   22.60
 -14   6   4   58.79   18.20
  12  -6  -4  211.48   23.00
  12  -6  -4  210.78   10.30
  12  -6  -4  195.38   18.80
 -12   6   4  256.47   26.90
 -12   6   4  216.18   22.30
  10  -6  -4   -1.40    2.40
  10  -6  -4    0.60    8.20
  10  -6  -4    1.70    9.70
  10  -6  -4   -3.80    7.20
  10  -6  -4    3.70    8.20
 -10   6   4   -2.80    7.90
 -10   6   4   -0.70   12.60
 -10   6   4   -2.00    6.10
 -10   6   4   13.20    5.80
 -10   6   4    8.40   13.50
   8  -6  -4  305.17   18.20
   8  -6  -4  311.27   17.20
   8  -6  -4  305.17   20.10
   8  -6  -4  344.27   21.10
  -8   6   4  356.96   17.40
  -8   6   4  299.27   23.50
  -8   6   4  325.17   15.00
  -8   6   4  322.47   16.80
  -8   6   4  282.77   26.00
   6  -6  -4  107.59    9.30
   6  -6  -4  132.69   13.90
   6  -6  -4   96.29   11.60
   6  -6  -4  113.29   11.20
  -6   6   4   86.99   13.10
  -6   6   4  119.59   12.10
  -6   6   4   97.09    9.50
   4  -6  -4   29.90    3.60
   4  -6  -4   29.30    8.00
   4  -6  -4   21.60    6.40
   4  -6  -4   26.20    6.90
   4  -6  -4   27.30    5.30
  -4   6   4   28.70    7.30
  -4   6   4   22.80    7.00
  -4   6   4   33.10   10.60
  -4   6   4   24.70    4.10
   2  -6  -4  799.32   33.40
   2  -6  -4  861.41   33.10
   2  -6  -4  788.12   35.40
   2  -6  -4  821.42   33.40
  -2   6   4  861.11   30.80
  -2   6   4  815.72   37.90
  -2   6   4  810.42   32.60
  -2   6   4  785.62   34.30
  -2   6   4  816.52   36.00
   0  -6  -4    8.10    5.10
   0  -6  -4   18.60    8.70
   0  -6  -4    6.60    6.20
   0   6   4    0.80    7.40
   0   6   4   11.00    9.00
   0   6   4   12.00    6.60
  -2  -6  -4  818.72   31.30
  -2  -6  -4  784.12   36.40
  -2  -6  -4  814.92   35.00
  -2  -6  -4  883.61   32.70
  -2  -6  -4  765.32   35.70
   2   6   4  808.02   35.40
   2   6   4  837.12   37.40
   2   6   4  820.82   35.40
  -4  -6  -4   46.70   11.60
  -4  -6  -4   31.00   11.80
  -4  -6  -4   36.50    4.30
  -4  -6  -4   35.80    9.90
   4   6   4   35.70   12.60
   4   6   4   37.30   10.90
  -6  -6  -4    7.60    3.90
  -6  -6  -4   12.80    3.90
  -6  -6  -4   16.10   10.60
  -6  -6  -4    4.40   12.70
  -6  -6  -4   -1.40   12.20
   6   6   4   20.00    4.70
   6   6   4    9.50   12.20
   6   6   4   16.70   13.40
  -8  -6  -4  284.37   31.50
  -8  -6  -4  330.97   28.20
  -8  -6  -4  279.77   24.50
   8   6   4  338.87   31.00
   8   6   4  285.47   18.70
   8   6   4  311.77   28.90
 -10  -6  -4   19.70   18.90
 -10  -6  -4    3.00   20.70
 -10  -6  -4  -12.00   23.40
  10   6   4  -14.50   21.20
  10   6   4    2.80   17.70
 -12  -6  -4  154.48   25.80
 -12  -6  -4  135.69   33.70
  12   6   4  127.89   27.70
  12   6   4  109.99   32.60
  19  -7  -4  -16.70   39.60
  17  -7  -4   37.30   23.40
  17  -7  -4   39.90   19.90
 -17   7   4  114.69   41.60
 -17   7   4   65.09   31.20
 -17   7   4    9.20   24.80
  15  -7  -4   66.59   17.80
  15  -7  -4   85.29   20.20
 -15   7   4  105.49   27.10
 -15   7   4   86.49   22.90
  13  -7  -4   17.90   12.40
  13  -7  -4  -18.30   12.70
  13  -7  -4    3.50    5.80
 -13   7   4    7.50   19.30
 -13   7   4    3.30   16.20
  11  -7  -4  174.28   17.10
  11  -7  -4  211.28   21.00
  11  -7  -4  194.78   18.90
  11  -7  -4  192.28    9.40
 -11   7   4  178.18   13.80
 -11   7   4  157.18   20.20
 -11   7   4  164.58   23.50
   9  -7  -4   72.99   11.70
   9  -7  -4   66.99   12.00
   9  -7  -4   74.89    9.60
   9  -7  -4   46.60    8.90
  -9   7   4   87.89    9.00
  -9   7   4   93.49    8.90
  -9   7   4   60.79   16.50
  -9   7   4   67.39   15.10
  -9   7   4   86.69    9.00
   7  -7  -4  612.74   29.30
   7  -7  -4  618.44   25.70
   7  -7  -4  616.24   27.60
   7  -7  -4  621.84   29.60
  -7   7   4  538.65   32.00
  -7   7   4  610.84   26.50
  -7   7   4  623.14   26.80
   5  -7  -4  117.39   11.80
   5  -7  -4  133.09   14.20
   5  -7  -4  140.09    8.90
   5  -7  -4  131.99   13.20
  -5   7   4  108.39   14.70
  -5   7   4  128.09   13.40
  -5   7   4  164.38   13.90
  -5   7   4  130.79    7.80
   3  -7  -4  435.96   16.30
   3  -7  -4  436.46   21.60
   3  -7  -4  411.96   21.20
   3  -7  -4  432.66   20.20
   3  -7  -4  411.06   22.80
  -3   7   4  394.96   25.50
  -3   7   4  373.96   22.00
  -3   7   4  433.56   19.10
  -3   7   4  448.76   17.60
   1  -7  -4   85.19    9.80
   1  -7  -4  104.69    9.50
   1  -7  -4  100.19   11.00
   1  -7  -4   82.69   10.80
  -1   7   4   90.09    9.70
  -1   7   4   84.99   11.40
  -1   7   4  114.59   13.60
  -1  -7  -4   57.79    9.60
  -1  -7  -4   48.90    6.40
  -1  -7  -4   54.59   10.70
  -1  -7  -4   81.99    7.20
   1   7   4   60.39   10.80
   1   7   4   62.89    9.80
   1   7   4   45.20   10.60
  -3  -7  -4  206.18   18.30
  -3  -7  -4  167.38    9.30
  -3  -7  -4  170.38   17.00
  -3  -7  -4  170.28   13.90
  -3  -7  -4  176.08   17.30
   3   7   4  157.48   16.60
   3   7   4  184.48   17.20
  -5  -7  -4  120.19   13.50
  -5  -7  -4  140.99   17.00
  -5  -7  -4  159.18   16.70
  -5  -7  -4  159.58   15.90
   5   7   4  146.19    7.10
   5   7   4  143.69   18.90
   5   7   4  149.19    7.10
   5   7   4  132.59   17.20
  -7  -7  -4  183.78   19.70
  -7  -7  -4  141.19   16.70
  -7  -7  -4  168.48   19.10
  -7  -7  -4  182.18   21.10
   7   7   4  167.58   19.50
   7   7   4  175.48   23.10
   7   7   4  172.38   11.50
  -9  -7  -4   19.20   19.30
  -9  -7  -4   45.80   20.80
  -9  -7  -4    6.50   17.20
   9   7   4   29.40   18.00
   9   7   4   52.39   25.30
 -11  -7  -4   51.09   23.40
 -11  -7  -4   23.60   26.80
  11   7   4   76.49   23.20
  11   7   4   29.30   29.00
 -13  -7  -4   13.30   36.70
  13   7   4   50.59   38.20
  18  -8  -4  129.49   30.20
  18  -8  -4  116.09   28.20
 -18   8   4   79.69   31.80
 -18   8   4   85.59   54.09
 -18   8   4  107.29   38.80
  16  -8  -4   76.09   20.20
  16  -8  -4   28.20   21.00
 -16   8   4   50.79   24.40
 -16   8   4   53.89   31.10
  14  -8  -4   56.39   18.70
  14  -8  -4  113.49   20.50
 -14   8   4  107.79   21.30
 -14   8   4  162.68   30.40
  12  -8  -4  309.17   28.60
  12  -8  -4  301.37   14.50
  12  -8  -4  297.27   23.30
 -12   8   4  343.17   33.00
 -12   8   4  321.27   31.00
  10  -8  -4  458.85   24.70
  10  -8  -4  491.55   25.10
  10  -8  -4  432.06   26.90
  10  -8  -4  491.05   28.60
 -10   8   4  472.85   21.00
 -10   8   4  449.06   31.80
 -10   8   4  471.05   36.20
 -10   8   4  444.86   23.40
 -10   8   4  492.35   21.90
   8  -8  -4  524.55   28.40
   8  -8  -4  490.15   23.50
   8  -8  -4  530.45   27.90
   8  -8  -4  492.45   27.80
  -8   8   4  500.55   23.70
  -8   8   4  489.95   32.90
  -8   8   4  498.95   23.40
  -8   8   4  503.75   31.10
   6  -8  -4  679.83   32.80
   6  -8  -4  679.73   32.60
   6  -8  -4  672.63   28.00
  -6   8   4  685.13   31.80
  -6   8   4  722.83   24.90
  -6   8   4  720.93   25.60
  -6   8   4  662.03   35.10
  -6   8   4  679.33   30.20
   4  -8  -4  342.17   19.60
   4  -8  -4  291.67   18.90
   4  -8  -4  322.47   20.40
   4  -8  -4  328.17   14.00
  -4   8   4  296.57   19.50
  -4   8   4  328.67   14.30
  -4   8   4  315.07   15.00
  -4   8   4  311.07   24.10
  -4   8   4  325.97   17.20
   2  -8  -4 1786.22   70.79
   2  -8  -4 1862.11   69.49
   2  -8  -4 1934.11   68.89
   2  -8  -4 1887.11   68.69
  -2   8   4 1821.22   66.39
  -2   8   4 1842.12   67.99
  -2   8   4 1828.82   70.29
  -2   8   4 1932.21   64.89
  -2   8   4 1776.02   73.59
   0  -8  -4  255.07   19.20
   0  -8  -4  302.27   16.20
   0  -8  -4  279.67   18.50
   0   8   4  258.67   18.40
   0   8   4  272.27   19.60
   0   8   4  261.97   19.40
  -2  -8  -4 1116.29   47.50
  -2  -8  -4 1189.68   44.60
  -2  -8  -4 1117.19   49.10
  -2  -8  -4 1199.48   43.00
   2   8   4 1156.88   48.20
   2   8   4 1169.98   50.19
   2   8   4 1185.38   47.30
  -4  -8  -4  214.78   19.70
  -4  -8  -4  133.69   14.50
  -4  -8  -4  126.69   15.70
   4   8   4  166.08   17.60
   4   8   4  154.58   18.30
  -6  -8  -4  650.63   37.50
  -6  -8  -4  687.53   36.30
  -6  -8  -4  637.84   34.90
  -6  -8  -4  662.93   33.70
   6   8   4  698.53   39.30
   6   8   4  800.62   38.40
   6   8   4  654.83   25.20
  -8  -8  -4  137.29   18.70
  -8  -8  -4  130.99   19.10
  -8  -8  -4  145.39   20.50
  -8  -8  -4  120.39   21.20
   8   8   4  160.98   22.20
 -10  -8  -4  263.17   31.20
 -10  -8  -4  360.96   36.00
  10   8   4  301.07   32.80
  10   8   4  281.57   30.00
 -12  -8  -4  -18.00   32.50
 -12  -8  -4    8.50   25.70
  12   8   4   36.10   27.90
  12   8   4  126.49   35.40
  17  -9  -4  204.28   28.00
  17  -9  -4  132.99   27.40
 -17   9   4  131.59   31.00
 -17   9   4  229.58   52.49
 -17   9   4  209.08   40.60
  15  -9  -4   -8.90   17.50
  15  -9  -4   43.10   20.80
 -15   9   4   74.79   29.30
 -15   9   4   43.40   23.20
  13  -9  -4   91.39   16.10
  13  -9  -4   63.89   18.00
 -13   9   4   92.69   22.00
 -13   9   4  120.39   27.50
  11  -9  -4  542.25   28.30
  11  -9  -4  527.85   33.20
  11  -9  -4  487.05   20.80
 -11   9   4  511.75   23.50
 -11   9   4  510.45   34.80
 -11   9   4  517.75   40.20
   9  -9  -4  248.18   23.20
   9  -9  -4  256.87   21.50
   9  -9  -4  229.68   17.10
  -9   9   4  225.08   15.80
  -9   9   4  204.68   14.40
  -9   9   4  227.88   22.80
  -9   9   4  248.98   27.00
  -9   9   4  231.88   17.40
   7  -9  -4  449.06   27.00
   7  -9  -4  505.65   22.70
   7  -9  -4  499.45   27.90
  -7   9   4  441.96   32.30
  -7   9   4  483.05   23.70
  -7   9   4  461.35   29.90
   5  -9  -4  327.27   15.70
   5  -9  -4  316.57   22.30
   5  -9  -4  309.77   20.20
   5  -9  -4  316.87   21.10
  -5   9   4  305.57   19.00
  -5   9   4  338.07   15.00
  -5   9   4  314.17   14.00
  -5   9   4  249.68   24.40
  -5   9   4  308.47   20.20
   3  -9  -4  831.02   38.50
   3  -9  -4  870.81   36.90
   3  -9  -4  833.72   36.10
  -3   9   4  843.62   34.00
  -3   9   4  844.42   37.20
  -3   9   4  836.42   41.10
  -3   9   4  862.71   32.50
  -3   9   4  830.12   32.50
   1  -9  -4  361.06   18.90
   1  -9  -4  311.87   22.60
   1  -9  -4  337.27   20.50
  -1   9   4  294.27   21.20
  -1   9   4  312.07   17.40
  -1   9   4  355.56   20.10
  -1  -9  -4  184.88   17.30
  -1  -9  -4  164.18   11.90
  -1  -9  -4  109.09   14.50
   1   9   4  213.18   17.60
   1   9   4  139.69   16.20
   1   9   4  175.28   17.60
  -3  -9  -4  423.96   24.30
  -3  -9  -4  403.96   25.80
  -3  -9  -4  381.26   27.70
  -3  -9  -4  387.96   16.40
   3   9   4  497.85   25.60
   3   9   4  413.86   21.20
   3   9   4  387.06   26.90
   3   9   4  375.56   29.50
  -5  -9  -4   55.39   13.60
  -5  -9  -4   95.59   16.10
  -5  -9  -4   94.69   15.40
   5   9   4   88.09   17.20
   5   9   4   69.69   18.50
   5   9   4   88.59   12.90
  -7  -9  -4  250.77   28.70
  -7  -9  -4  276.77   28.80
  -7  -9  -4  360.06   31.90
   7   9   4  356.16   30.40
  -9  -9  -4   24.60   19.10
  -9  -9  -4   36.20   21.50
  -9  -9  -4   16.60   19.70
   9   9   4   31.30   21.70
   9   9   4   -8.00   23.70
 -11  -9  -4   57.19   26.10
 -11  -9  -4   30.80   29.50
  11   9   4   87.29   33.00
  11   9   4  104.39   28.70
  16 -10  -4   64.69   22.50
  16 -10  -4   56.69   23.40
 -16  10   4  108.69   45.50
 -16  10   4  121.79   32.80
 -16  10   4   68.49   28.10
  14 -10  -4  484.35   41.90
  14 -10  -4  439.26   34.10
 -14  10   4  411.16   42.50
 -14  10   4  455.45   40.80
  12 -10  -4   12.00   18.00
  12 -10  -4    5.70   12.70
 -12  10   4   53.59   20.30
  10 -10  -4  300.87   22.30
  10 -10  -4  326.17   27.10
  10 -10  -4  352.56   28.00
 -10  10   4  360.06   36.30
 -10  10   4  314.07   31.10
 -10  10   4  340.47   18.90
   8 -10  -4   23.50    8.70
   8 -10  -4   19.30   10.60
   8 -10  -4   24.60   11.00
  -8  10   4   25.40    8.70
  -8  10   4   28.30    3.80
  -8  10   4   22.30    4.30
  -8  10   4    1.90   15.30
  -8  10   4    6.70   18.10
   6 -10  -4  213.18   14.50
   6 -10  -4  227.48   20.60
   6 -10  -4  205.48   20.30
  -6  10   4  235.88   22.80
  -6  10   4  221.88   10.00
  -6  10   4  189.18   18.00
  -6  10   4  239.58   12.80
   4 -10  -4  426.06   18.20
   4 -10  -4  396.16   23.10
   4 -10  -4  369.46   22.70
   4 -10  -4  350.16   24.60
  -4  10   4  375.26   28.60
  -4  10   4  409.46   18.40
  -4  10   4  377.26   20.30
  -4  10   4  377.86   23.60
  -4  10   4  388.86   19.30
   2 -10  -4  178.28   18.60
   2 -10  -4  159.98   15.50
   2 -10  -4  175.08   15.70
  -2  10   4  195.38   15.30
  -2  10   4  177.28   15.30
  -2  10   4  167.88   15.80
  -2  10   4  138.59   18.50
   0 -10  -4  517.65   29.30
   0 -10  -4  525.75   27.80
   0 -10  -4  519.85   24.10
   0  10   4  494.85   27.40
   0  10   4  502.75   29.40
  -2 -10  -4   66.69   10.20
  -2 -10  -4   45.20   13.10
  -2 -10  -4   51.39    6.50
  -2 -10  -4   49.80   12.20
   2  10   4   67.89   14.10
   2  10   4   41.80   14.30
   2  10   4  104.99   14.00
  -4 -10  -4  488.75   30.50
  -4 -10  -4  500.25   32.10
  -4 -10  -4  546.65   31.40
   4  10   4  495.45   32.50
   4  10   4  497.75   35.00
   4  10   4  500.85   26.40
  -6 -10  -4  243.88   23.20
  -6 -10  -4  236.18   23.00
   6  10   4  305.17   24.80
   6  10   4  201.98   38.80
   6  10   4  270.17   29.30
  -8 -10  -4   52.39   22.30
  -8 -10  -4   60.09   19.90
   8  10   4   16.20   23.60
   8  10   4   69.29   22.00
 -10 -10  -4   88.89   24.40
 -10 -10  -4  144.29   29.60
 -10 -10  -4   95.49   24.80
  10  10   4  103.89   31.80
  10  10   4  124.79   27.70
 -17  11   4   70.59   33.90
  15 -11  -4   23.80   19.90
  15 -11  -4   47.70   22.40
 -15  11   4   24.20   30.80
 -15  11   4  -10.30   40.90
 -15  11   4  -13.40   26.00
  13 -11  -4   48.60   16.70
  13 -11  -4    7.20   18.10
 -13  11   4   22.30   26.70
  11 -11  -4   -5.10   12.10
 -11  11   4   -3.70    9.50
 -11  11   4    2.30   28.20
 -11  11   4   29.30   19.40
   9 -11  -4  140.69   17.80
   9 -11  -4  139.49   14.60
   9 -11  -4  128.89   17.40
  -9  11   4  133.99   21.80
  -9  11   4  130.99   24.70
  -9  11   4  132.29   12.40
   7 -11  -4   10.10   11.00
   7 -11  -4    3.80    8.00
   7 -11  -4   -5.40   11.20
  -7  11   4    9.20   18.70
  -7  11   4   -6.60   15.30
  -7  11   4   -5.50    9.40
   5 -11  -4   19.10    6.80
   5 -11  -4    9.90   10.50
   5 -11  -4   32.30   10.90
   5 -11  -4   11.50    9.80
  -5  11   4    1.20    7.40
  -5  11   4    9.10   10.40
  -5  11   4   24.70   14.20
  -5  11   4   17.70    5.40
  -5  11   4   10.30   11.00
   3 -11  -4   20.10    9.60
   3 -11  -4    1.50    8.80
   3 -11  -4   16.70   10.10
  -3  11   4   11.30   11.20
  -3  11   4    1.00   14.60
  -3  11   4   10.50    7.80
  -3  11   4   10.80    6.30
   1 -11  -4   -0.60    9.90
   1 -11  -4    6.30    9.80
   1 -11  -4   12.70    8.00
  -1  11   4   24.30    6.00
  -1  11   4   13.30   12.80
  -1  11   4    7.00    9.80
  -1 -11  -4   -6.70   10.80
  -1 -11  -4   -2.60    7.10
  -1 -11  -4  -12.50   10.50
   1  11   4    1.30   13.10
   1  11   4   -0.30   11.20
   1  11   4    2.10    5.00
  -3 -11  -4  -10.40   10.80
  -3 -11  -4    9.30   13.20
   3  11   4   -5.10    9.10
   3  11   4    4.50   14.10
   3  11   4    8.00   13.80
  -5 -11  -4   11.80   14.60
  -5 -11  -4   -2.10   14.70
   5  11   4    9.80   16.00
   5  11   4    0.70   12.90
  -7 -11  -4  -27.70   17.80
  -7 -11  -4    7.60   19.10
  -7 -11  -4   13.80   17.20
   7  11   4    0.10   20.30
   7  11   4   23.80   22.80
   7  11   4    8.20   16.50
  -9 -11  -4   45.60   22.60
  -9 -11  -4   39.30   25.70
  -9 -11  -4   55.39   22.90
   9  11   4  114.09   25.50
   9  11   4   45.60   27.20
  11  11   4   34.50   39.60
  16 -12  -4  160.48   33.40
  16 -12  -4  126.99   28.70
 -16  12   4   74.79   40.90
 -16  12   4  119.39   59.09
 -16  12   4  145.89   36.30
  14 -12  -4   19.10   18.90
  14 -12  -4   30.00   23.10
 -14  12   4   -1.80   24.80
 -14  12   4   46.30   34.00
  12 -12  -4  186.98   25.30
  12 -12  -4  149.09   19.70
 -12  12   4  159.68   33.70
 -12  12   4  233.58   29.90
  10 -12  -4   57.59   21.50
  10 -12  -4   24.60   12.50
 -10  12   4   31.20   25.50
 -10  12   4   49.10    9.90
 -10  12   4   66.09   21.60
   8 -12  -4  282.87   28.30
   8 -12  -4  363.26   29.60
   8 -12  -4  356.56   22.00
  -8  12   4  321.67   33.70
  -8  12   4  323.17   32.10
  -8  12   4  306.67   21.90
   6 -12  -4  139.29   16.90
   6 -12  -4  156.88   18.00
   6 -12  -4  149.19   15.30
  -6  12   4  187.78   16.80
  -6  12   4  176.98   10.10
  -6  12   4  172.68   23.80
   4 -12  -4  227.58   21.00
   4 -12  -4  245.78   23.70
   4 -12  -4  221.38   21.70
  -4  12   4  280.37   28.90
  -4  12   4  238.88   22.00
  -4  12   4  219.98   16.90
   2 -12  -4  356.96   22.80
   2 -12  -4  355.26   26.40
   2 -12  -4  333.07   24.00
  -2  12   4  317.87   26.20
  -2  12   4  280.77   28.40
  -2  12   4  348.57   22.90
   0 -12  -4   29.90   12.50
   0 -12  -4   25.70    8.90
   0 -12  -4   18.70   12.40
   0  12   4   18.00   12.30
   0  12   4   40.00    5.00
   0  12   4   39.00   14.70
  -2 -12  -4  333.37   27.60
  -2 -12  -4  303.67   26.90
  -2 -12  -4  314.47   16.20
   2  12   4  303.97   27.10
   2  12   4  312.77   28.80
   2  12   4  318.07   20.40
  -4 -12  -4  127.69   19.20
  -4 -12  -4  154.78   19.40
   4  12   4   96.49   37.40
   4  12   4  151.08   21.00
   4  12   4  146.39   15.90
  -6 -12  -4    8.90   17.90
  -6 -12  -4   43.80   18.80
  -6 -12  -4    6.90   16.60
   6  12   4   34.40   19.50
   6  12   4    7.20   23.20
   6  12   4   35.60   16.40
  -8 -12  -4  193.38   26.60
  -8 -12  -4  159.88   26.80
  -8 -12  -4  160.28   27.40
   8  12   4  198.78   28.50
   8  12   4  192.88   32.70
 -10 -12  -4   -5.50   28.10
  10  12   4  -26.90   32.30
  10  12   4    0.50   28.70
  15 -13  -4  115.99   27.60
  15 -13  -4  206.38   31.30
 -15  13   4  154.38   41.40
 -15  13   4  166.58   36.40
 -15  13   4  214.48   52.49
  13 -13  -4  117.89   22.40
  13 -13  -4  114.29   24.10
 -13  13   4   49.80   27.60
 -13  13   4   70.59   35.20
  11 -13  -4   51.99   19.30
 -11  13   4   80.79   26.00
 -11  13   4   80.89   30.00
   9 -13  -4  371.26   33.80
   9 -13  -4  356.76   45.40
   9 -13  -4  406.16   26.60
  -9  13   4  423.66   44.30
  -9  13   4  385.26   23.30
  -9  13   4  430.36   37.90
   7 -13  -4   47.40   16.10
   7 -13  -4   64.99   11.90
   7 -13  -4   43.60   15.20
  -7  13   4   49.00   24.60
  -7  13   4   39.90   12.70
  -7  13   4   19.30   18.80
   5 -13  -4  801.62   33.70
   5 -13  -4  761.72   40.20
   5 -13  -4  772.92   38.90
  -5  13   4  785.82   45.40
  -5  13   4  733.23   31.80
  -5  13   4  705.53   37.40
   3 -13  -4   20.60   13.40
   3 -13  -4   24.20   12.40
   3 -13  -4   23.60   11.10
  -3  13   4   11.50   13.30
  -3  13   4   13.90   19.00
  -3  13   4   -0.40    9.90
  -3  13   4   22.80    5.10
   1 -13  -4  475.85   30.80
   1 -13  -4  439.06   26.20
   1 -13  -4  489.95   29.90
  -1  13   4  464.25   31.90
  -1  13   4  431.46   29.00
  -1 -13  -4  345.77   29.50
  -1 -13  -4  363.36   21.00
  -1 -13  -4  352.46   28.50
   1  13   4  343.87   32.20
   1  13   4  378.16   17.90
   1  13   4  269.27   24.80
  -3 -13  -4   20.20   15.50
  -3 -13  -4   32.20   16.10
   3  13   4   37.00   18.10
   3  13   4   28.40   20.00
   3  13   4   45.40   12.30
  -5 -13  -4  355.56   31.20
  -5 -13  -4  297.97   27.50
  -5 -13  -4  273.57   26.60
   5  13   4  344.67   28.80
   5  13   4  311.87   33.40
   5  13   4  312.77   30.50
  -7 -13  -4  -17.40   20.30
  -7 -13  -4    3.20   22.50
  -7 -13  -4  -39.70   20.00
   7  13   4  -15.00   22.70
   7  13   4  -11.90   26.10
  -9 -13  -4  131.19   28.30
  -9 -13  -4  181.28   29.80
   9  13   4  130.39   35.20
   9  13   4  202.08   32.80
  14 -14  -4   47.10   24.00
  14 -14  -4    1.00   25.30
 -14  14   4   52.39   48.80
 -14  14   4    8.90   32.60
 -14  14   4   59.29   37.80
  12 -14  -4  347.07   34.30
  12 -14  -4  270.27   30.70
 -12  14   4  291.77   43.30
 -12  14   4  244.48   34.10
  10 -14  -4   10.60   17.00
  10 -14  -4   11.50   18.50
 -10  14   4   67.59   30.80
   8 -14  -4  460.35   37.90
   8 -14  -4  462.55   30.10
   8 -14  -4  559.44   37.20
  -8  14   4  469.65   43.30
  -8  14   4  521.35   29.20
   6 -14  -4   44.20   18.70
   6 -14  -4   29.50   11.90
   6 -14  -4   65.49   16.40
  -6  14   4   39.60   14.80
  -6  14   4   38.00   27.90
  -6  14   4   55.99   21.30
   4 -14  -4  201.88   21.20
   4 -14  -4  229.58   21.90
   4 -14  -4  225.08   24.50
  -4  14   4  224.58   21.20
  -4  14   4  217.18   15.70
  -4  14   4  204.58   19.60
  -4  14   4  235.08   28.40
   2 -14  -4  303.57   28.50
   2 -14  -4  252.57   22.60
   2 -14  -4  290.87   24.30
  -2  14   4  206.68   28.60
  -2  14   4  280.97   24.50
  -2  14   4  265.47   25.50
   0 -14  -4  291.87   22.30
   0 -14  -4  294.47   30.10
   0  14   4  300.17   27.70
   0  14   4  275.07   28.20
  -2 -14  -4  420.36   34.00
  -2 -14  -4  420.26   31.10
   2  14   4  303.27   28.90
   2  14   4  349.67   31.50
  -4 -14  -4  126.99   21.80
  -4 -14  -4  205.08   24.50
   4  14   4  160.28   28.00
   4  14   4  147.19   24.50
  -6 -14  -4   67.29   25.10
  -6 -14  -4  123.49   24.50
  -6 -14  -4  101.09   23.40
   6  14   4   90.39   28.20
   6  14   4   50.59   24.70
  -8 -14  -4  194.08   29.20
   8  14   4  185.48   31.60
   8  14   4  215.28   34.80
  13 -15  -4    5.20   26.50
  13 -15  -4   40.10   24.20
 -13  15   4   47.80   48.40
 -13  15   4   74.49   41.90
 -13  15   4   95.19   49.50
  11 -15  -4   46.50   20.80
  11 -15  -4   54.69   21.80
 -11  15   4   27.30   34.40
 -11  15   4   55.49   30.00
   9 -15  -4  -16.40   19.50
   9 -15  -4   25.20   17.60
  -9  15   4   48.60   33.10
  -9  15   4    4.50   28.10
   7 -15  -4    9.10   16.80
   7 -15  -4   19.90   14.40
   7 -15  -4   36.50   19.00
  -7  15   4  -15.20   23.40
  -7  15   4   34.00   16.30
  -7  15   4  -11.20   28.50
   5 -15  -4   23.70   16.50
   5 -15  -4   -9.20   14.90
  -5  15   4   -8.50   15.20
  -5  15   4  -17.30   26.00
  -5  15   4    9.50   23.00
   3 -15  -4   21.60   15.80
   3 -15  -4   11.60   13.80
   3 -15  -4   20.30   23.70
  -3  15   4   10.00   13.30
  -3  15   4   -0.90   16.70
  -3  15   4   -0.10   22.50
   1 -15  -4   27.40   15.70
   1 -15  -4   18.60   12.40
   1 -15  -4   12.10   15.80
  -1  15   4    8.40   31.50
  -1  15   4   12.70   20.80
  -1  15   4   14.90   16.90
  -1 -15  -4   28.90   19.70
  -1 -15  -4    8.10   17.10
   1  15   4   22.20   19.10
   1  15   4   57.99   19.90
  -3 -15  -4   31.70   18.90
  -3 -15  -4   12.30   19.60
   3  15   4   31.30   23.30
   3  15   4   24.10   22.60
  -5 -15  -4   -5.90   23.00
  -5 -15  -4  -22.60   19.70
   5  15   4   39.00   25.00
   5  15   4   53.89   25.50
  -7 -15  -4    1.30   25.40
   7  15   4   21.30   30.50
   7  15   4    0.70   30.10
  12 -16  -4  -30.20   24.40
  12 -16  -4   37.00   28.80
 -12  16   4   -7.10   43.00
 -12  16   4   21.80   46.70
  10 -16  -4  141.79   23.90
  10 -16  -4  128.99   26.40
 -10  16   4  108.59   45.10
 -10  16   4  163.38   35.00
 -10  16   4   65.59   38.80
   8 -16  -4   55.39   21.70
   8 -16  -4   38.70   21.70
  -8  16   4   91.99   30.90
  -8  16   4   -4.20   33.30
   6 -16  -4   52.49   20.40
   6 -16  -4   46.30   19.00
  -6  16   4   29.50   34.10
  -6  16   4  101.79   29.40
  -6  16   4   26.00   18.90
   4 -16  -4  167.48   21.20
   4 -16  -4  138.89   22.20
  -4  16   4  145.49   22.40
  -4  16   4  152.88   30.70
   2 -16  -4    7.60   17.50
   2 -16  -4    0.00   15.00
   2 -16  -4  -10.50   17.80
  -2  16   4   -9.80   26.80
  -2  16   4   13.00   17.00
  -2  16   4   12.70   20.70
   0 -16  -4  222.18   25.00
   0 -16  -4  236.88   26.00
   0  16   4  225.88   26.10
   0  16   4  240.08   34.80
   0  16   4  250.57   28.80
  -2 -16  -4    5.80   19.60
  -2 -16  -4   -6.40   20.90
   2  16   4   32.70   22.60
   2  16   4   51.89   25.00
  -4 -16  -4  121.49   24.10
  -4 -16  -4  108.29   28.00
   4  16   4  145.79   29.20
   4  16   4   73.79   29.60
  -6 -16  -4  -18.90   27.00
   6  16   4   18.10   29.50
   6  16   4   -9.10   31.50
  11 -17  -4  119.19   27.50
  11 -17  -4   68.39   30.10
 -11  17   4  184.48   52.79
 -11  17   4  114.99   47.90
   9 -17  -4    9.60   23.60
   9 -17  -4  -28.50   22.70
  -9  17   4   -8.80   37.80
  -9  17   4   60.09   35.80
  -9  17   4   33.30   44.70
   7 -17  -4  190.58   27.80
   7 -17  -4  185.28   26.50
  -7  17   4  177.48   35.40
  -7  17   4  234.08   43.50
   5 -17  -4   79.49   21.00
   5 -17  -4   28.30   20.70
  -5  17   4   45.20   37.50
  -5  17   4   26.40   24.20
  -5  17   4   52.19   32.00
   3 -17  -4  224.48   26.60
   3 -17  -4  202.08   24.30
   3 -17  -4  254.77   27.20
  -3  17   4  278.47   28.30
  -3  17   4  279.67   38.50
   1 -17  -4   91.09   23.20
   1 -17  -4   36.40   20.70
  -1  17   4  137.59   36.40
  -1  17   4   64.39   21.90
  -1  17   4   61.69   24.20
  -1 -17  -4   86.29   23.70
  -1 -17  -4   72.29   22.80
   1  17   4  116.49   26.90
   1  17   4   93.29   25.80
  -3 -17  -4  113.79   25.90
  -3 -17  -4  125.79   27.70
   3  17   4  178.18   30.80
   3  17   4   96.59   28.50
  -5 -17  -4  119.99   34.20
   5  17   4   88.29   34.10
   5  17   4   69.59   32.60
  10 -18  -4  106.49   36.30
 -10  18   4  142.49   54.69
 -10  18   4   79.19   52.09
   8 -18  -4   72.49   27.90
  -8  18   4   63.09   47.30
  -8  18   4   12.80   44.90
  -8  18   4  -38.50   37.30
   6 -18  -4  163.48   28.30
   6 -18  -4  129.49   26.90
  -6  18   4  140.69   39.10
  -6  18   4  137.89   45.80
  -6  18   4  263.57   49.00
   4 -18  -4   65.29   23.90
   4 -18  -4   71.79   23.90
  -4  18   4   51.79   42.80
  -4  18   4   23.00   34.30
  -4  18   4   53.49   25.90
   2 -18  -4  461.25   45.70
   2 -18  -4  363.96   33.60
  -2  18   4  386.96   35.20
  -2  18   4  419.06   48.50
   0 -18  -4    7.30   24.10
   0 -18  -4   44.70   23.00
   0  18   4    2.40   25.90
   0  18   4   -9.60   37.90
   0  18   4  -50.89   24.60
  -2 -18  -4  260.87   32.50
  -2 -18  -4  322.77   33.90
   2  18   4  306.07   36.70
   2  18   4  313.07   35.90
   4  18   4   33.50   34.00
   7 -19  -4   94.19   30.40
  -7  19   4  152.38   52.09
   5 -19  -4  171.68   33.50
  -5  19   4  250.17   46.60
  -5  19   4  199.28   52.89
   3 -19  -4   13.20   27.10
  -3  19   4  -31.70   29.40
  -3  19   4   83.59   50.19
  -3  19   4  102.09   40.90
   1 -19  -4  103.79   29.30
   1 -19  -4   58.79   27.70
  -1  19   4   45.30   41.50
  -1  19   4   54.99   31.20
  -1 -19  -4   -4.00   28.40
  -1 -19  -4   -1.10   44.60
   1  19   4  -94.69   43.30
   1  19   4  -12.10   33.00
   1  19   4   -1.70   42.60
  -2  20   4  246.78   40.10
   5  19  -5  -57.49   39.30
   3  19  -5  -12.20   37.20
   8  18  -5    4.00   35.40
  -8 -18   5    6.50   27.30
   6  18  -5  216.48   34.90
   6  18  -5  212.98   37.10
  -6 -18   5  221.08   33.50
  -6 -18   5  184.18   28.50
   4  18  -5   55.89   28.50
   4  18  -5   -2.70   29.80
  -4 -18   5   22.50   24.70
  -4 -18   5   21.60   27.10
   2  18  -5  189.18   37.20
   2  18  -5  212.88   35.40
  -2 -18   5  199.78   32.10
  -2 -18   5  231.08   29.80
   0  18  -5   -7.70   31.10
   0  18  -5   48.20   32.90
   0 -18   5  -38.30   30.00
   0 -18   5   -4.20   28.90
  11  17  -5  100.79   38.50
   9  17  -5  -26.00   27.50
   9  17  -5   -3.00   28.40
   9  17  -5  -26.50   31.10
  -9 -17   5  -10.70   24.80
  -9 -17   5   14.70   24.70
   7  17  -5    4.50   27.10
   7  17  -5  -26.10   27.10
  -7 -17   5   20.80   25.20
  -7 -17   5  -15.70   21.90
   5  17  -5  -10.80   26.30
   5  17  -5  -21.90   26.40
  -5 -17   5    5.00   21.70
  -5 -17   5   15.20   23.60
   3  17  -5   -9.00   24.30
   3  17  -5    8.60   27.40
  -3 -17   5   -9.90   23.00
  -3 -17   5   -1.20   20.60
   1  17  -5   32.60   26.70
   1  17  -5    3.60   27.10
  -1 -17   5  -19.00   19.90
  -1 -17   5   17.20   23.20
  -1  17  -5   21.70   28.80
  -1  17  -5  -18.70   34.50
  -1  17  -5  -24.90   27.20
   1 -17   5   -4.80   26.90
   1 -17   5   11.40   21.70
  -3  17  -5    3.50   41.00
   3 -17   5  -33.20   29.30
  12  16  -5   -7.20   33.80
 -12 -16   5   17.10   30.80
  10  16  -5  176.68   31.90
  10  16  -5  216.58   34.10
  10  16  -5  144.39   34.40
 -10 -16   5  199.28   26.80
 -10 -16   5  105.19   26.80
   8  16  -5  -17.50   24.80
   8  16  -5    4.70   28.20
  -8 -16   5   -0.40   22.80
  -8 -16   5    4.70   20.50
   6  16  -5  134.09   29.90
   6  16  -5  198.78   29.80
  -6 -16   5  183.58   24.00
  -6 -16   5  151.08   25.40
   4  16  -5   27.10   24.70
   4  16  -5   44.60   25.80
  -4 -16   5   49.40   22.10
  -4 -16   5   45.80   22.20
   2  16  -5  185.68   31.60
   2  16  -5  254.47   31.50
   2  16  -5  262.17   32.10
  -2 -16   5  218.38   26.80
  -2 -16   5  220.58   22.00
  -2 -16   5  215.68   25.10
   0  16  -5   16.10   23.60
   0  16  -5   -6.20   28.50
   0  16  -5   12.20   25.00
   0 -16   5    6.20   23.10
   0 -16   5  -10.00   18.30
  -2  16  -5   70.49   27.20
  -2  16  -5   49.99   33.70
  -2  16  -5   30.80   25.60
   2 -16   5   51.29   26.20
   2 -16   5   40.60   20.50
  -4  16  -5  -23.00   30.60
  -4  16  -5  128.79   41.70
   4 -16   5  -13.70   28.30
   4 -16   5   30.50   23.60
  13  15  -5  139.29   36.10
  13  15  -5   92.59   37.50
  13  15  -5  177.68   49.70
 -13 -15   5  183.18   31.40
 -13 -15   5   97.59   34.40
  11  15  -5  -21.50   24.40
  11  15  -5   13.70   27.70
  11  15  -5   16.80   26.40
 -11 -15   5   32.60   22.60
 -11 -15   5   41.50   21.50
   9  15  -5  220.78   31.30
   9  15  -5  197.38   30.30
  -9 -15   5  203.68   24.30
  -9 -15   5  204.48   26.50
   7  15  -5   24.20   20.90
   7  15  -5  -29.50   23.70
  -7 -15   5  -41.40   18.90
  -7 -15   5   -8.00   16.70
   5  15  -5   46.30   23.50
   5  15  -5   57.09   22.90
  -5 -15   5   74.29   19.20
  -5 -15   5   39.10   19.80
   3  15  -5  175.68   26.70
   3  15  -5  160.78   27.50
   3  15  -5  159.08   27.90
  -3 -15   5  180.78   22.30
  -3 -15   5  166.28   23.20
  -3 -15   5  191.18   19.80
   1  15  -5  -14.40   23.70
   1  15  -5   24.80   21.50
   1  15  -5   31.00   23.70
  -1 -15   5   12.70   17.20
  -1 -15   5   21.00   19.50
  -1 -15   5  -15.40   17.80
  -1  15  -5  351.06   37.70
  -1  15  -5  267.77   32.40
  -1  15  -5  296.27   33.20
   1 -15   5  345.57   30.70
   1 -15   5  396.76   33.70
  -3  15  -5   70.29   27.20
  -3  15  -5  124.49   36.10
   3 -15   5   34.80   21.00
   3 -15   5  115.29   25.50
  -5  15  -5  274.87   38.30
  -5  15  -5  381.26   48.00
   5 -15   5  249.08   30.90
   5 -15   5  277.77   33.40
  14  14  -5   94.89   35.40
  14  14  -5  151.48   34.50
  14  14  -5   65.49   34.60
 -14 -14   5   40.50   28.30
 -14 -14   5   68.89   31.50
  12  14  -5   78.59   28.50
  12  14  -5   57.59   28.40
  12  14  -5   41.20   26.80
 -12 -14   5    9.70   18.70
 -12 -14   5   26.50   23.40
  10  14  -5  -43.40   23.50
  10  14  -5    1.10   22.50
  10  14  -5  -24.50   21.10
 -10 -14   5  -28.70   18.20
 -10 -14   5    9.70   18.50
   8  14  -5  240.18   29.70
   8  14  -5  225.38   26.90
  -8 -14   5  186.98   24.60
  -8 -14   5  197.08   22.10
   6  14  -5  -21.00   19.00
   6  14  -5    5.00   22.60
  -6 -14   5   -1.50   16.50
  -6 -14   5    9.10   14.40
   4  14  -5  331.27   34.00
   4  14  -5  246.48   28.00
   4  14  -5  263.17   26.40
  -4 -14   5  288.37   25.40
  -4 -14   5  268.77   26.10
  -4 -14   5  269.17   23.80
   2  14  -5   -5.60   19.20
   2  14  -5   -9.80   19.90
   2  14  -5  -17.60   20.10
  -2 -14   5  -12.30   12.10
  -2 -14   5  -14.20   15.40
  -2 -14   5    0.30   14.60
   0  14  -5  374.36   38.10
   0  14  -5  340.27   35.30
   0  14  -5  296.57   31.80
   0 -14   5  318.07   27.50
   0 -14   5  302.77   30.80
  -2  14  -5  -15.40   27.00
  -2  14  -5   37.40   23.80
   2 -14   5  -18.50   17.60
   2 -14   5   17.50   19.20
  -4  14  -5  134.29   35.70
  -4  14  -5  127.39   28.30
   4 -14   5  109.99   24.00
   4 -14   5  131.19   23.30
  -6  14  -5  122.29   31.00
  -6  14  -5  112.49   41.50
   6 -14   5   47.50   23.60
   6 -14   5   73.69   27.90
  15  13  -5   65.09   34.90
  15  13  -5   -2.10   43.40
  15  13  -5   63.89   33.00
 -15 -13   5   51.59   28.10
  13  13  -5  -10.90   24.00
  13  13  -5   12.70   25.30
  13  13  -5   12.90   22.90
 -13 -13   5   31.80   22.90
 -13 -13   5  -12.40   20.50
  11  13  -5   25.90   22.50
  11  13  -5   11.50   23.00
  11  13  -5   11.40   21.40
 -11 -13   5   -2.30   17.30
 -11 -13   5   23.70   19.50
   9  13  -5   15.90   21.60
   9  13  -5  -20.90   17.90
  -9 -13   5   39.80   16.00
  -9 -13   5    8.00   16.00
   7  13  -5  -11.00   18.50
   7  13  -5   -2.30   18.70
  -7 -13   5    9.00   15.70
  -7 -13   5    1.70   13.70
   5  13  -5   -2.90   16.90
   5  13  -5   -4.40   15.60
  -5 -13   5   15.60   13.40
  -5 -13   5    8.80   12.00
   3  13  -5   68.79   20.60
   3  13  -5   68.19   32.10
   3  13  -5   72.39   20.20
  -3 -13   5   68.39   14.60
  -3 -13   5   76.69   18.50
  -3 -13   5   42.00   12.00
   1  13  -5   11.20   18.00
   1  13  -5    6.90   29.70
   1  13  -5  -17.70   19.30
  -1 -13   5    4.50   10.10
  -1 -13   5    2.80   20.90
  -1  13  -5  119.09   23.80
  -1  13  -5  122.59   26.60
   1 -13   5  108.99   18.80
  -3  13  -5   -3.80   21.90
  -3  13  -5   23.10   26.00
   3 -13   5    2.70   16.10
   3 -13   5   -0.10   17.30
  -5  13  -5    3.80   31.70
  -5  13  -5   10.90   23.40
   5 -13   5   31.00   19.90
   5 -13   5   -6.70   20.30
  -7  13  -5   35.80   37.50
  -7  13  -5    9.80   30.60
   7 -13   5  -49.80   20.50
  16  12  -5   48.60   34.80
  14  12  -5   25.90   23.40
  14  12  -5   -9.10   26.00
  14  12  -5   40.70   26.00
 -14 -12   5   -6.80   20.60
 -14 -12   5  -19.00   21.80
  12  12  -5   26.30   23.40
  12  12  -5   61.19   22.40
  12  12  -5   29.70   23.20
 -12 -12   5   44.90   19.70
 -12 -12   5   22.50   18.70
  10  12  -5   66.29   22.40
 -10 -12   5  101.29   19.10
 -10 -12   5   85.49   18.00
   8  12  -5  321.87   40.60
   8  12  -5  301.17   31.90
  -8 -12   5  314.27   26.10
  -8 -12   5  370.16   28.80
   6  12  -5   88.79   16.60
   6  12  -5  116.89   21.90
   6  12  -5   82.09   19.90
  -6 -12   5   75.59   13.70
  -6 -12   5   67.19   15.60
   4  12  -5  493.75   31.50
   4  12  -5  448.96   33.70
   4  12  -5  464.55   34.50
  -4 -12   5  453.85   29.00
  -4 -12   5  474.15   26.50
  -4 -12   5  479.35   30.20
   2  12  -5  194.08   25.10
   2  12  -5  233.38   24.30
   2  12  -5  204.58   23.30
  -2 -12   5  232.08   21.20
  -2 -12   5  202.28   18.00
  -2 -12   5  221.18   22.20
   0  12  -5  202.48   24.80
   0  12  -5  254.57   27.50
   0 -12   5  243.98   17.40
   0 -12   5  260.27   23.00
   0 -12   5  262.47   24.80
  -2  12  -5   51.29   23.90
  -2  12  -5   58.09   20.00
   2 -12   5   42.30   15.90
   2 -12   5   42.20   13.90
  -4  12  -5  -28.50   20.90
  -4  12  -5    4.50   27.10
   4 -12   5   -6.20   15.60
  -6  12  -5  -14.80   24.60
  -6  12  -5   14.30   31.40
   6 -12   5   26.40   21.10
   6 -12   5    2.80   17.80
  -8  12  -5   93.79   42.10
  -8  12  -5   91.79   34.70
   8 -12   5   -3.00   22.20
   8 -12   5   31.20   25.70
  17  11  -5   45.20   37.60
  15  11  -5  317.17   34.30
  15  11  -5  235.98   34.40
  15  11  -5  165.68   29.80
 -15 -11   5  220.08   27.50
 -15 -11   5  263.87   29.20
  13  11  -5  -11.10   21.50
  13  11  -5    5.80   21.50
  13  11  -5   29.40   22.80
  13  11  -5   20.20   18.00
 -13 -11   5   15.90   18.40
 -13 -11   5   24.80   16.20
 -13 -11   5   22.70   18.60
  11  11  -5  321.27   32.70
  11  11  -5  285.07   31.10
  11  11  -5  374.36   35.60
 -11 -11   5  251.27   24.00
 -11 -11   5  228.88   22.20
 -11 -11   5  320.07   29.30
   9  11  -5   -1.40   16.60
   9  11  -5   20.50   17.20
  -9 -11   5   -5.90   12.80
  -9 -11   5    6.30   12.40
   7  11  -5  273.87   28.90
   7  11  -5  278.97   27.20
  -7 -11   5  238.88   21.60
  -7 -11   5  279.97   24.00
   5  11  -5  130.49   19.20
   5  11  -5  132.19   20.90
   5  11  -5  153.58   18.60
  -5 -11   5  143.59   17.20
  -5 -11   5  151.08   15.80
  -5 -11   5  170.78   15.20
   3  11  -5   45.00   16.00
   3  11  -5   38.70   16.10
   3  11  -5   28.20   14.80
  -3 -11   5   24.10   11.20
  -3 -11   5   22.20    9.10
  -3 -11   5   27.00   12.30
   1  11  -5  311.27   26.80
   1  11  -5  324.47   28.40
  -1 -11   5  354.96   23.90
  -1 -11   5  327.87   24.60
  -1 -11   5  307.37   18.80
  -1  11  -5    6.10   18.00
  -1  11  -5  -17.60   15.50
   1 -11   5   11.10   12.40
   1 -11   5    3.90    5.60
   1 -11   5   11.90   11.50
  -3  11  -5  556.14   38.70
  -3  11  -5  536.95   42.20
   3 -11   5  482.85   36.00
   3 -11   5  571.94   32.30
  -5  11  -5   77.59   31.40
  -5  11  -5  157.18   27.70
   5 -11   5  163.48   20.00
   5 -11   5  143.29   21.20
  -7  11  -5  381.96   43.50
  -7  11  -5  312.67   36.30
  -7  11  -5  349.07   33.00
   7 -11   5  316.07   28.80
   7 -11   5  380.66   34.80
   7 -11   5  313.07   28.90
  -9  11  -5   46.80   45.00
  -9  11  -5  -19.70   38.70
   9 -11   5    6.80   26.10
   9 -11   5   26.20   25.20
  16  10  -5    9.80   24.10
  16  10  -5  -18.50   28.70
 -16 -10   5  -43.10   23.20
 -16 -10   5    2.10   20.70
  14  10  -5   11.70   22.00
  14  10  -5   -0.40   22.80
  14  10  -5    4.00   21.90
  14  10  -5   19.40   17.10
 -14 -10   5   16.70   17.80
 -14 -10   5  -31.90   16.20
  12  10  -5    8.20   18.90
  12  10  -5   32.60   30.00
 -12 -10   5    3.90   14.90
 -12 -10   5    4.00   12.80
 -12 -10   5  -21.60   13.40
  10  10  -5   57.79   18.00
  10  10  -5   68.19   18.70
 -10 -10   5   86.49   15.60
 -10 -10   5   45.60   10.10
 -10 -10   5   54.69   14.00
   8  10  -5   29.20   15.80
   8  10  -5   12.20   14.90
  -8 -10   5   -5.30   10.00
  -8 -10   5    2.60    4.50
  -8 -10   5    4.60   11.60
   6  10  -5  130.29    7.40
   6  10  -5  111.69    7.70
   6  10  -5  141.49   19.30
   6  10  -5  140.99   16.70
   6  10  -5  125.59   20.20
  -6 -10   5  107.79   13.10
  -6 -10   5  119.29   15.90
  -6 -10   5  103.29   12.90
   4  10  -5   26.20   16.10
   4  10  -5   48.80   14.90
   4  10  -5   30.90   13.50
   4  10  -5   38.20   15.70
  -4 -10   5   34.30    9.50
  -4 -10   5   40.80   10.50
  -4 -10   5   22.30   10.60
   2  10  -5  156.78   20.70
   2  10  -5  140.59   19.30
   2  10  -5  172.58   20.70
  -2 -10   5  146.79   14.50
  -2 -10   5  138.99   15.80
  -2 -10   5  139.69   14.90
   0  10  -5   -7.10   14.30
   0  10  -5   10.90   15.30
   0 -10   5   -1.00    9.80
   0 -10   5    8.50    6.60
   0 -10   5   10.20   10.40
  -2  10  -5  162.28   25.80
  -2  10  -5  118.29   20.80
   2 -10   5  120.99   15.40
   2 -10   5  139.49   15.70
  -4  10  -5   38.70   19.90
   4 -10   5    2.70   12.50
   4 -10   5   19.00   16.90
  -6  10  -5   75.19   28.80
  -6  10  -5   62.39   25.30
  -6  10  -5   54.99   20.70
   6 -10   5   47.50   16.90
   6 -10   5   64.59   17.00
   6 -10   5   20.60   17.60
  -8  10  -5  -57.19   26.60
  -8  10  -5   -4.10   26.70
  -8  10  -5   46.20   34.80
   8 -10   5    8.80   18.80
   8 -10   5  -55.49   19.30
 -10  10  -5   69.19   37.50
  10 -10   5  -10.50   27.30
  17   9  -5  -21.50   29.30
  17   9  -5  -42.10   24.70
 -17  -9   5  -31.60   22.50
 -17  -9   5  -16.50   26.00
  15   9  -5   92.59   26.40
  15   9  -5   90.49   25.40
 -15  -9   5   80.39   20.10
 -15  -9   5  132.29   20.80
 -15  -9   5   73.29   22.90
  13   9  -5   35.90   22.00
  13   9  -5   30.90   24.40
  13   9  -5    3.50   15.20
  13   9  -5   21.10   20.30
 -13  -9   5   25.00   15.20
 -13  -9   5   16.50   14.10
 -13  -9   5   22.60   16.00
  11   9  -5  115.29   20.90
  11   9  -5  123.09   19.30
 -11  -9   5  142.49   17.70
 -11  -9   5  121.89   16.90
 -11  -9   5  114.39   13.40
   9   9  -5   83.79   17.40
   9   9  -5   55.19   17.60
  -9  -9   5   58.29   12.90
  -9  -9   5   71.29    9.50
  -9  -9   5   51.89   12.90
  -9  -9   5   66.39   13.10
   7   9  -5  141.79   18.10
   7   9  -5  170.08   20.60
  -7  -9   5  156.08   15.80
  -7  -9   5  141.99   15.10
  -7  -9   5  126.89   13.80
   5   9  -5   19.40   13.80
   5   9  -5   31.50   12.30
   5   9  -5   30.10    6.50
   5   9  -5   25.90   12.90
   5   9  -5   19.80   12.80
  -5  -9   5   27.10    9.60
  -5  -9   5   20.40    8.70
  -5  -9   5   24.80    9.20
   3   9  -5    7.30   12.80
   3   9  -5   21.20   13.90
   3   9  -5   11.90   12.40
  -3  -9   5   14.20    7.50
  -3  -9   5   19.60    9.40
  -3  -9   5   22.80    8.80
   1   9  -5   72.19   15.80
   1   9  -5   91.69   16.70
  -1  -9   5  125.59   14.10
  -1  -9   5   94.99   12.80
  -1  -9   5  102.89    9.60
  -1   9  -5   27.50   17.60
  -1   9  -5   38.60   14.40
   1  -9   5   26.70   10.00
   1  -9   5   25.00    9.50
   1  -9   5   25.80    4.30
  -3   9  -5  236.18   25.80
  -3   9  -5  292.77   30.50
   3  -9   5  245.68   21.10
   3  -9   5  235.38   20.90
  -5   9  -5   26.80   23.10
  -5   9  -5   13.40   19.20
  -5   9  -5   11.80   15.80
   5  -9   5   28.50   13.60
   5  -9   5    0.50   12.90
   5  -9   5   28.00   14.00
  -7   9  -5   75.79   28.50
  -7   9  -5  141.89   35.40
  -7   9  -5  127.69   24.70
   7  -9   5   71.39   18.70
   7  -9   5  100.09   20.20
   7  -9   5  111.09   18.80
  -9   9  -5   57.79   32.10
  -9   9  -5   42.30   34.00
  -9   9  -5    0.40   31.30
   9  -9   5    5.20   21.10
   9  -9   5   -5.40   18.70
  18   8  -5   70.79   32.80
  18   8  -5   38.80   31.50
 -18  -8   5  -23.10   26.40
 -18  -8   5    7.70   29.30
  16   8  -5   -1.50   21.30
  16   8  -5   20.30   25.80
 -16  -8   5  -14.90   19.20
 -16  -8   5  -10.40   22.00
  14   8  -5   79.99   21.70
  14   8  -5   70.39   21.60
  14   8  -5   64.69   21.20
  14   8  -5   56.79   16.30
 -14  -8   5   94.79   19.20
 -14  -8   5   51.79   17.10
 -14  -8   5   45.50   15.70
 -14  -8   5   46.10   17.00
  12   8  -5   23.10   16.80
  12   8  -5   15.80   16.30
  12   8  -5   16.90   15.90
 -12  -8   5    6.30   12.40
 -12  -8   5    5.60   12.20
 -12  -8   5    5.40   10.90
 -12  -8   5  -13.10   10.40
 -12  -8   5  -27.00   13.30
  10   8  -5  118.59   18.00
  10   8  -5  153.18   20.90
 -10  -8   5  158.68   16.80
 -10  -8   5  122.89    9.70
 -10  -8   5  124.69   11.60
 -10  -8   5  137.29   14.70
 -10  -8   5  125.19   15.60
   8   8  -5  222.88   23.70
   8   8  -5  209.08   23.40
  -8  -8   5  185.98   18.40
  -8  -8   5  234.08   11.40
  -8  -8   5  252.97   19.70
  -8  -8   5  216.68   19.30
   6   8  -5  284.47   13.30
   6   8  -5  271.07   21.90
   6   8  -5  257.77   22.60
   6   8  -5  275.07   23.60
  -6  -8   5  297.97   18.00
  -6  -8   5  302.17   18.00
  -6  -8   5  287.77   19.30
  -6  -8   5  282.27   18.80
   4   8  -5  203.38   19.90
   4   8  -5  211.68   18.20
   4   8  -5  186.28   18.70
   4   8  -5  209.68   20.70
  -4  -8   5  264.57   16.40
  -4  -8   5  221.68   16.10
  -4  -8   5  210.08   17.10
  -4  -8   5  208.28   12.50
   2   8  -5  431.46   28.00
   2   8  -5  438.06   26.90
  -2  -8   5  416.16   24.00
  -2  -8   5  448.06   21.00
  -2  -8   5  471.05   22.60
   0   8  -5  214.78   23.50
   0   8  -5  166.38   19.20
   0  -8   5  179.08   15.40
   0  -8   5  192.78   17.90
   0  -8   5  183.58   16.60
   0  -8   5  239.48   18.10
  -2   8  -5  116.59   18.70
  -2   8  -5  110.79   20.50
   2  -8   5  116.29   13.50
   2  -8   5  110.49   13.60
  -4   8  -5   41.80    6.20
  -4   8  -5   34.70   20.90
  -4   8  -5   74.39   19.70
   4  -8   5   41.20   12.60
   4  -8   5   76.29   12.60
   4  -8   5   63.99   13.50
  -6   8  -5   57.89   23.90
  -6   8  -5   41.70   17.80
  -6   8  -5   46.40   26.80
   6  -8   5   39.70   14.10
   6  -8   5   38.10   14.90
   6  -8   5   50.99   14.70
  -8   8  -5   65.59   31.90
  -8   8  -5   -6.10   24.90
  -8   8  -5    9.30   24.50
   8  -8   5   -9.40   15.50
   8  -8   5   21.20   17.50
   8  -8   5   11.80   18.20
 -10   8  -5  119.79   40.70
 -10   8  -5  156.88   38.30
 -10   8  -5  127.39   36.30
  10  -8   5  171.28   26.90
  10  -8   5  164.28   26.50
  17   7  -5   17.10   26.20
  17   7  -5    2.30   23.00
 -17  -7   5   57.19   20.80
  15   7  -5    5.90   15.70
  15   7  -5   24.60   19.50
  15   7  -5    3.10   19.80
 -15  -7   5    1.10   17.90
 -15  -7   5   -9.80   14.90
 -15  -7   5    6.90   16.50
 -15  -7   5   10.80   20.60
  13   7  -5  182.38   21.80
  13   7  -5  240.18   25.50
  13   7  -5  162.78   18.70
  13   7  -5  199.88   22.20
 -13  -7   5  238.98   21.80
 -13  -7   5  241.58   24.80
 -13  -7   5  172.18   17.90
 -13  -7   5  217.18   23.70
  11   7  -5   31.70   16.20
  11   7  -5   -3.20   12.50
 -11  -7   5   24.20   12.50
 -11  -7   5   19.50   12.90
 -11  -7   5   21.70    9.80
 -11  -7   5   38.20   11.30
   9   7  -5  166.18   19.70
   9   7  -5  168.58   18.70
  -9  -7   5  171.18   17.10
  -9  -7   5  165.88   10.70
  -9  -7   5  168.78   16.60
  -9  -7   5  137.19   14.80
   7   7  -5   73.19   14.50
   7   7  -5   47.90    5.40
   7   7  -5   67.89   13.70
  -7  -7   5   67.09   10.40
  -7  -7   5   56.49   10.30
  -7  -7   5   49.90   10.20
  -7  -7   5   64.29    5.80
  -7  -7   5   61.09    5.50
  -7  -7   5   58.29    4.90
  -7  -7   5   34.80    7.30
   5   7  -5   74.99   13.40
   5   7  -5   59.69    7.30
   5   7  -5   68.49   13.10
   5   7  -5   53.39   13.90
   5   7  -5   56.49   11.90
  -5  -7   5   64.09    9.10
  -5  -7   5   66.29    5.30
  -5  -7   5   52.79    8.90
  -5  -7   5   70.99    4.60
  -5  -7   5   62.79   10.10
  -5  -7   5   74.59    9.60
   3   7  -5  273.17   22.30
   3   7  -5  225.18   19.80
   3   7  -5  238.48   19.90
  -3  -7   5  256.57   17.90
  -3  -7   5  284.17   15.60
  -3  -7   5  254.97   16.20
  -3  -7   5  258.77   12.80
   1   7  -5   18.90   11.20
   1   7  -5   24.90   13.30
  -1  -7   5   12.60    7.50
  -1  -7   5   24.90    8.10
  -1  -7   5   19.10    3.00
  -1  -7   5   34.70    8.80
  -1  -7   5   25.50    5.90
  -1  -7   5   20.90    8.20
  -1   7  -5  154.18   20.40
  -1   7  -5  195.28   20.10
   1  -7   5  158.88   16.50
   1  -7   5  210.78   18.50
   1  -7   5  189.98   15.50
   1  -7   5  158.98   14.20
   1  -7   5  176.38    9.10
  -3   7  -5   -3.00   13.60
  -3   7  -5   21.40   16.60
  -3   7  -5    4.90    4.00
   3  -7   5   -2.70    8.80
   3  -7   5    9.60    9.60
   3  -7   5    5.30    7.80
  -5   7  -5  427.76   35.90
  -5   7  -5  403.86   22.40
  -5   7  -5  380.46   33.90
  -5   7  -5  424.96   30.00
   5  -7   5  418.56   26.40
   5  -7   5  431.16   21.90
   5  -7   5  461.25   27.00
   5  -7   5  416.56   26.60
  -7   7  -5   20.40   26.00
  -7   7  -5   44.40   21.60
  -7   7  -5   29.80   22.90
  -7   7  -5    9.70   13.80
   7  -7   5   31.10   15.30
   7  -7   5   30.30   14.70
   7  -7   5   10.60   13.50
  -9   7  -5  118.29   34.20
  -9   7  -5   70.09   28.80
  -9   7  -5  113.39   31.90
   9  -7   5   90.49   21.00
   9  -7   5   92.79   26.50
   9  -7   5   96.29   21.20
 -11   7  -5  -51.09   34.70
 -11   7  -5   52.99   40.40
 -11   7  -5   43.50   45.50
  11  -7   5   -7.90   24.70
  11  -7   5   22.90   30.60
  18   6  -5   69.89   27.20
 -18  -6   5  122.39   25.20
  16   6  -5  106.79   23.30
  16   6  -5   42.80   18.20
  16   6  -5   54.69   21.40
 -16  -6   5   56.09   19.50
 -16  -6   5   65.49   23.20
 -16  -6   5  116.19   24.00
  14   6  -5  116.19   17.10
  14   6  -5  186.08   28.80
  14   6  -5  119.79   19.60
  14   6  -5  108.69   20.50
 -14  -6   5  112.49   18.80
 -14  -6   5  116.69   18.30
 -14  -6   5  104.99   15.50
  12   6  -5   15.70   14.30
  12   6  -5   30.50   12.90
  12   6  -5   30.60   13.60
  12   6  -5   43.10   14.80
 -12  -6   5   29.00   12.00
 -12  -6   5   26.70   11.20
 -12  -6   5   24.90   12.50
 -12  -6   5   36.60   14.90
  10   6  -5   35.60   13.80
  10   6  -5    9.70   12.40
 -10  -6   5   28.20    9.40
 -10  -6   5   17.50    9.90
 -10  -6   5   -0.40    9.00
 -10  -6   5    0.50   11.20
   8   6  -5   43.10   12.90
   8   6  -5   42.20    3.90
   8   6  -5   24.90   13.50
  -8  -6   5   43.90   11.20
  -8  -6   5   24.60    8.70
  -8  -6   5   46.50    6.60
   6   6  -5   34.80   12.10
   6   6  -5   32.20   12.00
   6   6  -5   19.10   10.60
   6   6  -5   -6.50    9.60
   6   6  -5   16.50    4.50
  -6  -6   5   10.20    7.40
  -6  -6   5   16.30    4.70
  -6  -6   5   27.60    5.10
  -6  -6   5   16.50    2.10
  -6  -6   5   28.80    6.90
  -6  -6   5   10.80    8.10
   4   6  -5    8.90   10.70
   4   6  -5    3.30    9.30
   4   6  -5    7.10    9.10
   4   6  -5   -4.40   10.10
  -4  -6   5    1.70    4.20
  -4  -6   5    0.30    5.60
  -4  -6   5   -1.30    7.20
  -4  -6   5   -4.30   10.00
   2   6  -5   67.49   14.00
   2   6  -5   50.09   12.10
  -2  -6   5   61.99    6.10
  -2  -6   5   63.79    7.50
  -2  -6   5   78.59    8.40
  -2  -6   5   65.29   10.20
  -2  -6   5   54.89    8.40
  -2  -6   5   61.09    8.90
   0   6  -5   86.79   16.70
   0   6  -5   64.59   13.30
   0  -6   5   77.09    9.80
   0  -6   5   69.59   10.50
   0  -6   5   76.69    9.20
   0  -6   5   57.59    9.80
   0  -6   5   76.29    5.50
   0  -6   5   71.09    6.30
  -2   6  -5   19.40   16.10
  -2   6  -5    6.20   12.00
  -2   6  -5   19.40    3.10
  -2   6  -5   20.30    3.30
   2  -6   5   19.30    9.40
   2  -6   5   21.00    8.90
   2  -6   5   37.70    8.20
  -4   6  -5    6.00   13.90
  -4   6  -5   -0.80    6.80
  -4   6  -5   21.00   18.50
   4  -6   5    4.40    7.70
   4  -6   5    3.30    9.80
   4  -6   5    8.60    9.40
   4  -6   5    2.20    9.50
  -6   6  -5   12.80   16.30
  -6   6  -5   19.90   21.80
  -6   6  -5   41.60   11.70
  -6   6  -5   54.39   20.70
   6  -6   5   42.20   13.80
   6  -6   5   41.70   12.80
   6  -6   5   35.30   12.40
   6  -6   5   37.60    9.90
  -8   6  -5   44.40   17.10
  -8   6  -5   61.59   29.70
  -8   6  -5   85.49   30.80
  -8   6  -5   63.39   27.20
   8  -6   5   92.29   17.10
   8  -6   5   63.09   16.50
   8  -6   5   55.89   18.30
 -10   6  -5   16.80   33.00
 -10   6  -5  -27.60   27.80
 -10   6  -5    3.50   33.90
  10  -6   5   33.00   19.10
  10  -6   5   36.90   20.80
  19   5  -5  -52.09   29.70
 -19  -5   5   57.59   25.90
  17   5  -5    0.20   21.40
  17   5  -5  -20.60   19.20
  17   5  -5    7.80   22.20
 -17  -5   5   36.50   24.20
 -17  -5   5   56.49   26.70
 -17  -5   5   23.00   18.90
  15   5  -5   15.90   17.70
  15   5  -5   51.19   17.50
  15   5  -5   18.10   14.90
 -15  -5   5    9.20   11.90
 -15  -5   5   38.20   16.80
 -15  -5   5   28.30   18.10
 -15  -5   5   13.20   18.30
  13   5  -5  272.57   25.70
  13   5  -5  239.88   21.30
  13   5  -5  245.48   23.50
  13   5  -5  237.08   25.90
 -13  -5   5  242.38   23.70
 -13  -5   5  243.18   20.20
 -13  -5   5  278.27   24.90
 -13  -5   5  252.17   27.20
  11   5  -5   99.99   16.20
  11   5  -5   87.69   16.20
 -11  -5   5  106.79   12.30
 -11  -5   5  101.69   13.60
 -11  -5   5   83.69   15.30
   9   5  -5  482.05   22.50
   9   5  -5  513.95   27.60
   9   5  -5  439.66   27.20
  -9  -5   5  465.95   24.60
  -9  -5   5  484.85   23.90
  -9  -5   5  456.55   27.10
   7   5  -5   46.70    7.40
   7   5  -5   35.40   12.50
   7   5  -5   35.30    5.00
   7   5  -5   29.70   10.20
  -7  -5   5   35.70    9.70
  -7  -5   5   21.10    7.40
  -7  -5   5   41.70    4.90
  -7  -5   5   28.40    6.90
   5   5  -5   41.20    6.90
   5   5  -5   53.69    6.90
   5   5  -5   51.29    9.90
   5   5  -5   34.50   11.30
   5   5  -5   39.20   10.10
   5   5  -5   63.09   13.10
  -5  -5   5   42.60    7.00
  -5  -5   5   45.50    6.40
  -5  -5   5   45.20    8.40
  -5  -5   5   42.30    8.00
  -5  -5   5   45.30    9.30
   3   5  -5    6.90   10.10
   3   5  -5    1.20   10.90
  -3  -5   5    3.90    5.50
  -3  -5   5  -10.30    5.50
  -3  -5   5   16.20    5.80
  -3  -5   5   -6.90    5.10
  -3  -5   5   -9.70    6.30
   1   5  -5   15.70   10.30
   1   5  -5   22.40   11.80
  -1  -5   5   24.40    8.10
  -1  -5   5   40.80    7.40
  -1  -5   5   21.60    7.30
  -1  -5   5   25.20    6.70
  -1  -5   5   16.20    4.80
  -1   5  -5  189.78    7.90
  -1   5  -5  200.08   22.50
  -1   5  -5  193.68   18.10
   1  -5   5  187.08   10.40
   1  -5   5  184.78   15.00
   1  -5   5  195.28   14.90
   1  -5   5  186.68    9.60
   1  -5   5  280.07   20.20
   1  -5   5  207.78   16.20
  -3   5  -5   86.19    7.20
  -3   5  -5   68.79   17.50
  -3   5  -5   98.09   17.00
   3  -5   5   61.69   11.30
   3  -5   5   78.39    9.70
   3  -5   5   91.39    8.00
   3  -5   5   89.39   10.80
   3  -5   5   90.69   12.10
  -5   5  -5  164.88   13.50
  -5   5  -5  200.68   23.30
  -5   5  -5  178.28   19.30
  -5   5  -5  187.18   25.90
   5  -5   5  140.99   14.20
   5  -5   5  168.18   16.10
   5  -5   5  173.08   16.70
   5  -5   5  140.29   14.80
   5  -5   5  145.39   11.80
  -7   5  -5   24.80   25.70
  -7   5  -5   18.90   13.40
  -7   5  -5   28.70   17.50
  -7   5  -5   35.70   20.50
   7  -5   5   23.80   13.10
   7  -5   5    8.60   12.40
   7  -5   5   33.00   16.80
   7  -5   5   22.20   11.00
  -9   5  -5   45.40   28.30
  -9   5  -5   90.59   31.60
  -9   5  -5   41.70   26.00
  -9   5  -5   61.49   20.10
   9  -5   5   47.60   17.90
   9  -5   5   54.99   17.60
   9  -5   5   65.29   17.80
 -11   5  -5   98.19   40.80
 -11   5  -5    8.90   29.40
 -11   5  -5   68.89   39.40
  11  -5   5   32.50   21.60
  11  -5   5   17.00   24.40
  18   4  -5  -17.60   23.80
 -18  -4   5   -0.50   29.30
 -18  -4   5   -9.20   19.30
 -18  -4   5   -3.10   24.00
  16   4  -5   64.79   20.30
  16   4  -5   52.19   17.60
  16   4  -5   29.40   18.20
 -16  -4   5   -0.70   17.00
 -16  -4   5   43.20   21.50
 -16  -4   5   57.19   22.30
  14   4  -5   10.90   12.70
  14   4  -5   11.70   14.00
  14   4  -5   -3.90   13.70
 -14  -4   5    9.50   10.60
 -14  -4   5   47.90   16.60
 -14  -4   5  -10.20   12.60
 -14  -4   5   24.90   17.50
  12   4  -5   10.50   13.50
  12   4  -5   16.00   12.10
  12   4  -5   12.60   10.50
  12   4  -5   24.10   11.60
 -12  -4   5    0.50    8.20
 -12  -4   5    7.60   13.00
 -12  -4   5   24.90   12.60
  10   4  -5   99.59   15.20
  10   4  -5   67.09   12.60
  10   4  -5   92.49    9.20
 -10  -4   5   91.49   10.60
 -10  -4   5   93.39   15.40
 -10  -4   5   94.69   13.10
   8   4  -5   90.09   13.70
   8   4  -5   88.89    7.90
   8   4  -5   69.39    7.40
   8   4  -5   86.09   12.70
  -8  -4   5   84.59   11.60
  -8  -4   5  107.09   13.40
  -8  -4   5   67.29    8.80
   6   4  -5   72.79    6.70
   6   4  -5   69.39   13.40
   6   4  -5   49.00   10.20
   6   4  -5   65.99    7.10
   6   4  -5   75.59   13.40
  -6  -4   5   68.19    9.40
  -6  -4   5   62.69    7.00
  -6  -4   5   53.89    9.70
  -6  -4   5   56.79    8.30
  -6  -4   5   58.29    8.50
  -6  -4   5   69.99    5.80
   4   4  -5  146.19   11.60
   4   4  -5  148.89   14.10
   4   4  -5  123.59    9.50
   4   4  -5  116.59   12.50
   4   4  -5  118.39   12.70
   4   4  -5  121.39   14.40
   4   4  -5  105.49   15.30
  -4  -4   5  126.29   11.30
  -4  -4   5  122.39   10.10
  -4  -4   5  144.69   10.70
  -4  -4   5  132.49   13.20
  -4  -4   5  105.49   11.20
   2   4  -5  108.99   14.20
   2   4  -5  107.39    9.40
   2   4  -5  108.99   15.30
  -2  -4   5  125.79   12.50
  -2  -4   5  102.19   10.70
  -2  -4   5  136.09   11.60
  -2  -4   5  120.39   10.80
   0   4  -5  120.29   11.00
   0   4  -5  134.29    5.80
   0   4  -5  112.99   13.90
   0   4  -5  153.08   17.60
   0  -4   5  137.79   12.90
   0  -4   5  130.79   14.20
   0  -4   5  131.89   10.30
   0  -4   5  119.29   11.60
  -2   4  -5   95.69   17.80
  -2   4  -5   81.99   13.90
  -2   4  -5   94.89    7.50
   2  -4   5   96.19   11.10
   2  -4   5  103.09    9.70
   2  -4   5  103.39   10.70
  -4   4  -5   -1.30   12.60
  -4   4  -5    9.80   16.30
  -4   4  -5   14.80    7.30
   4  -4   5    4.60    7.50
   4  -4   5   -7.00    7.60
   4  -4   5    5.40    8.80
   4  -4   5    9.00    7.90
   4  -4   5    9.60    7.20
  -6   4  -5  -20.60   10.10
  -6   4  -5   33.70   16.20
  -6   4  -5    5.80   16.30
  -6   4  -5   -9.70   19.40
   6  -4   5    2.10    9.80
   6  -4   5   -5.30   18.20
   6  -4   5   -1.60   11.00
   6  -4   5   -6.10    9.60
  -8   4  -5   58.19   24.00
  -8   4  -5   67.49   16.90
  -8   4  -5   72.19   28.70
   8  -4   5   95.09   15.90
   8  -4   5   69.49   15.20
   8  -4   5   77.99   16.60
   8  -4   5   70.09   13.80
 -10   4  -5   14.70   31.10
 -10   4  -5  -16.70   29.40
 -10   4  -5  -15.20   23.60
  10  -4   5   -7.80   18.80
  10  -4   5    0.50   26.80
 -12   4  -5   35.70   42.60
 -12   4  -5   79.99   46.90
 -12   4  -5   35.70   36.70
  19   3  -5  -82.69   23.10
  19   3  -5  -28.70   27.20
 -19  -3   5  -20.30   27.60
 -19  -3   5   25.20   22.70
 -19  -3   5   77.89   33.80
  17   3  -5   41.90   20.60
  17   3  -5   12.00   19.00
 -17  -3   5   67.49   22.90
 -17  -3   5   -1.80   18.70
 -17  -3   5   24.10   25.90
  15   3  -5   49.70   17.70
  15   3  -5   51.59   15.60
  15   3  -5   19.20   14.50
 -15  -3   5   50.79   18.90
 -15  -3   5   29.00   19.60
 -15  -3   5   32.80   13.60
  13   3  -5   72.39   13.30
  13   3  -5   63.19   14.00
  13   3  -5   87.19   14.00
  13   3  -5  109.79   19.40
 -13  -3   5  103.79   18.50
 -13  -3   5  113.99   18.40
 -13  -3   5   87.29   11.20
  11   3  -5    3.00   10.00
  11   3  -5    4.90   10.30
  11   3  -5   10.20    6.80
  11   3  -5    1.00   11.90
 -11  -3   5    9.70    7.30
 -11  -3   5  -17.70   10.50
 -11  -3   5   11.20   11.90
   9   3  -5  234.88   11.80
   9   3  -5  176.68   19.20
   9   3  -5  228.58   13.00
   9   3  -5  204.28   18.30
  -9  -3   5  240.08   14.90
  -9  -3   5  218.48   19.10
  -9  -3   5  244.38   18.70
   7   3  -5   29.00    8.90
   7   3  -5   28.00    5.20
   7   3  -5   16.60    5.40
   7   3  -5   20.80   10.50
  -7  -3   5   26.80    5.10
  -7  -3   5   22.10    6.90
  -7  -3   5   20.40    9.30
  -7  -3   5   12.60    9.30
  -7  -3   5   11.80    6.80
   5   3  -5   90.39   13.50
   5   3  -5  108.79   13.60
   5   3  -5   73.89    8.50
   5   3  -5   61.09    9.60
   5   3  -5   90.19    7.80
   5   3  -5   78.79   13.50
  -5  -3   5   95.59    9.80
  -5  -3   5   80.69   10.90
  -5  -3   5   85.89    6.20
  -5  -3   5   70.99    7.30
  -5  -3   5   69.19    8.90
   3   3  -5   -7.30    8.60
   3   3  -5   14.80    5.10
   3   3  -5    7.50   11.60
  -3  -3   5    4.30    4.70
  -3  -3   5    7.20    6.50
  -3  -3   5   14.30    7.80
  -3  -3   5    8.80    6.30
   1   3  -5  102.69    8.50
   1   3  -5   86.89    5.10
   1   3  -5   86.59   12.20
   1   3  -5   88.09   14.80
  -1  -3   5  103.19   10.60
  -1  -3   5   97.59    9.90
  -1  -3   5   82.59    8.90
  -1  -3   5   77.09    9.40
  -1   3  -5   47.10    4.80
  -1   3  -5   40.90    6.30
  -1   3  -5   53.99   13.60
  -1   3  -5   31.10   10.70
   1  -3   5   31.40    8.70
   1  -3   5   46.90    8.20
   1  -3   5   43.90    7.40
   1  -3   5   44.30    5.20
  -3   3  -5   48.90    7.30
  -3   3  -5   38.00   14.70
  -3   3  -5   23.00    7.70
  -3   3  -5   42.50   11.60
   3  -3   5   37.60    7.30
   3  -3   5   30.80    8.70
   3  -3   5   51.09    9.60
   3  -3   5   36.80    3.10
  -5   3  -5    6.40   13.50
  -5   3  -5   14.20    8.60
  -5   3  -5    2.70   16.10
   5  -3   5    4.70   10.10
   5  -3   5    3.00    8.00
   5  -3   5   11.90    9.00
   5  -3   5   -3.40   10.30
  -7   3  -5   93.29   23.40
  -7   3  -5   52.29   14.00
  -7   3  -5   76.19   19.80
  -7   3  -5   89.49   19.60
   7  -3   5   70.29   14.90
   7  -3   5   58.29   12.60
   7  -3   5   52.59   12.30
   7  -3   5   58.09   15.70
  -9   3  -5  -22.50   17.40
  -9   3  -5    7.60   20.60
  -9   3  -5    3.10   25.40
   9  -3   5    1.00   16.00
   9  -3   5    1.30   15.40
   9  -3   5   -9.90   16.90
 -11   3  -5   19.70   27.80
 -11   3  -5   52.19   27.10
 -11   3  -5   66.49   34.90
 -11   3  -5  115.59   38.80
  11  -3   5   61.09   24.60
  11  -3   5   63.09   22.30
 -20  -2   5  133.29   42.60
  18   2  -5  164.68   28.40
  18   2  -5  135.99   24.90
  18   2  -5  146.39   25.10
 -18  -2   5  174.48   34.20
 -18  -2   5  150.08   25.10
 -18  -2   5  209.78   29.20
  16   2  -5  275.47   27.00
  16   2  -5  356.56   31.30
 -16  -2   5  283.97   28.60
 -16  -2   5  322.27   31.70
 -16  -2   5  269.47   24.70
  14   2  -5  260.47   22.30
  14   2  -5  259.37   24.70
  14   2  -5  224.08   20.50
 -14  -2   5  261.07   25.60
 -14  -2   5  291.27   29.70
 -14  -2   5  248.08   17.60
  12   2  -5  107.09   16.20
  12   2  -5  117.29   13.20
  12   2  -5  145.69   14.00
  12   2  -5  128.69   14.70
  12   2  -5  105.49   13.80
 -12  -2   5  111.09   17.60
 -12  -2   5  107.29   18.00
 -12  -2   5  101.29   10.60
  10   2  -5   25.50    9.40
  10   2  -5   13.20    4.90
  10   2  -5   17.00   10.00
  10   2  -5   16.00    5.60
  10   2  -5    5.60    9.80
 -10  -2   5    9.90    6.50
 -10  -2   5    8.40   11.20
 -10  -2   5   -7.00   10.00
   8   2  -5   12.70    8.60
   8   2  -5    1.90    4.40
   8   2  -5    6.80    3.80
   8   2  -5   13.40   10.40
  -8  -2   5   10.30    7.30
  -8  -2   5   -1.20    9.90
  -8  -2   5   -0.80    6.00
  -8  -2   5   -6.50    8.50
  -8  -2   5   20.70    5.70
   6   2  -5   -2.20    5.60
   6   2  -5   18.70    6.60
   6   2  -5    9.70   10.20
   6   2  -5    3.90    7.70
   6   2  -5    1.10    3.40
  -6  -2   5    4.80    3.20
  -6  -2   5    1.50    6.10
  -6  -2   5   -5.70    3.60
  -6  -2   5    5.50    6.00
  -6  -2   5    2.60    8.60
   4   2  -5  165.28   16.60
   4   2  -5  140.29   15.90
   4   2  -5  158.88   14.90
   4   2  -5  132.99   13.20
  -4  -2   5  156.28    7.90
  -4  -2   5  170.38   13.40
  -4  -2   5  141.09    8.70
  -4  -2   5  149.88   14.80
   2   2  -5    1.70    8.90
   2   2  -5   -6.20   10.40
   2   2  -5    2.80    3.80
  -2  -2   5   11.60    7.60
  -2  -2   5    2.10    5.90
  -2  -2   5   16.30    7.10
  -2  -2   5    9.00    4.70
   0   2  -5   10.20    8.50
   0   2  -5    7.80    3.20
   0   2  -5    7.50   11.90
   0   2  -5    3.30    4.30
   0  -2   5    2.20    8.60
   0  -2   5   14.80    7.40
   0  -2   5    4.60    5.20
  -2   2  -5   24.40   13.00
  -2   2  -5   22.40   10.40
  -2   2  -5   29.70    5.90
   2  -2   5   29.10    8.80
   2  -2   5   31.80    4.80
   2  -2   5   41.90   10.30
   2  -2   5   29.10    8.10
   2  -2   5   40.90    8.50
  -4   2  -5   22.00   15.00
  -4   2  -5   13.10    7.40
  -4   2  -5   13.50   11.70
   4  -2   5   10.10    9.70
   4  -2   5    5.80    8.50
   4  -2   5    7.30    9.00
   4  -2   5    4.30    8.50
   4  -2   5   -3.10    6.30
  -6   2  -5  111.29   13.80
  -6   2  -5  102.39   22.50
  -6   2  -5  107.39   18.40
   6  -2   5  108.89   13.50
   6  -2   5   74.69   13.90
   6  -2   5   83.89   15.00
   6  -2   5   88.89   11.40
  -8   2  -5  144.59   24.30
  -8   2  -5  168.28   19.80
   8  -2   5  164.08   24.10
   8  -2   5  159.38   17.50
   8  -2   5  154.68   18.80
   8  -2   5  155.88   16.60
 -10   2  -5   20.00   31.30
 -10   2  -5   17.40   24.10
 -10   2  -5   15.20   28.80
 -10   2  -5   60.09   21.90
  10  -2   5   29.40   17.80
  10  -2   5   30.20   18.60
  10  -2   5   40.80   21.80
 -12   2  -5   72.19   42.30
 -12   2  -5   15.10   30.30
 -12   2  -5   34.80   40.00
  12  -2   5   25.90   25.30
  12  -2   5   76.79   30.40
  19   1  -5    1.70   33.30
  19   1  -5  -23.90   26.40
  19   1  -5  -16.10   22.90
 -19  -1   5   -7.60   22.50
 -19  -1   5  -21.80   31.70
 -19  -1   5   51.19   51.29
 -19  -1   5   12.30   26.60
  17   1  -5   43.90   18.90
  17   1  -5   23.40   19.50
 -17  -1   5    0.60   18.20
 -17  -1   5   25.40   25.00
 -17  -1   5    2.30   22.10
  15   1  -5  103.29   17.60
  15   1  -5   98.59   16.80
  15   1  -5   76.69   13.30
 -15  -1   5   80.59   27.20
 -15  -1   5  112.79   22.80
  13   1  -5   17.80   11.20
  13   1  -5    5.70   11.10
  13   1  -5    3.40    9.00
 -13  -1   5  -10.20   15.50
 -13  -1   5   22.20    7.70
 -13  -1   5    6.80   13.70
  11   1  -5  423.96   25.00
  11   1  -5  436.06   17.10
  11   1  -5  386.46   20.00
  11   1  -5  394.76   25.60
  11   1  -5  406.96   23.40
 -11  -1   5  404.76   27.40
 -11  -1   5  408.66   19.40
 -11  -1   5  343.07   21.20
 -11  -1   5  344.97   25.00
   9   1  -5   85.19    8.60
   9   1  -5   68.89   11.20
   9   1  -5   72.99   10.10
   9   1  -5   85.69   13.20
  -9  -1   5  105.39   14.10
  -9  -1   5   88.49    9.00
  -9  -1   5   80.79    9.90
  -9  -1   5   97.69   14.70
   7   1  -5  169.18   13.00
   7   1  -5  189.58   12.20
   7   1  -5  152.58   13.80
   7   1  -5  174.38   16.80
  -7  -1   5  143.69   14.90
  -7  -1   5  160.88   12.90
  -7  -1   5  159.98   11.00
   5   1  -5  -13.70    5.80
   5   1  -5   -1.60    8.40
   5   1  -5    7.60    5.90
   5   1  -5   -5.10    5.80
   5   1  -5   -1.60    9.40
  -5  -1   5   -3.90    2.50
  -5  -1   5    2.50    3.80
  -5  -1   5   -7.20    5.80
  -5  -1   5   -3.50    7.90
   3   1  -5   94.19   11.20
   3   1  -5  110.49   14.20
   3   1  -5  103.09    7.90
   3   1  -5  108.19   12.60
  -3  -1   5   89.89   10.10
  -3  -1   5  118.89   12.40
  -3  -1   5  124.09   13.00
  -3  -1   5  114.89    7.80
  -3  -1   5  116.49    7.60
   1   1  -5   18.10   12.20
   1   1  -5   25.60    4.00
   1   1  -5   17.00    3.80
   1   1  -5   15.90    9.10
  -1  -1   5   22.80    5.60
  -1  -1   5    8.30    6.70
  -1  -1   5   23.80    9.00
  -1  -1   5   17.40    8.40
  -1  -1   5   25.20    9.20
  -1   1  -5   13.50    8.90
  -1   1  -5   19.00   12.10
  -1   1  -5   19.20    4.80
  -1   1  -5    9.00    4.40
   1  -1   5   25.60    6.70
   1  -1   5   15.10    7.20
   1  -1   5   30.40    9.90
   1  -1   5    6.80    7.60
   1  -1   5    8.20    4.70
  -3   1  -5  128.69   18.10
  -3   1  -5  131.09   12.70
  -3   1  -5  121.79   14.10
   3  -1   5  107.49   12.90
   3  -1   5  135.29    9.00
   3  -1   5  123.49   12.70
   3  -1   5  113.79   11.50
  -5   1  -5   10.10   12.30
  -5   1  -5    2.40   16.00
  -5   1  -5   -6.60    8.20
   5  -1   5   -6.80    9.10
   5  -1   5   -0.30    9.30
   5  -1   5   -3.10    9.80
   5  -1   5    2.70    6.70
  -7   1  -5   84.39   18.50
  -7   1  -5   83.89   14.40
  -7   1  -5   81.09   21.60
   7  -1   5   48.30   14.40
   7  -1   5   67.29   13.60
   7  -1   5   60.29   14.30
   7  -1   5   39.70   10.90
  -9   1  -5   -1.50   21.40
  -9   1  -5   -6.30   16.90
  -9   1  -5   35.40   25.40
   9  -1   5   13.10   13.80
   9  -1   5  -29.80   15.80
   9  -1   5    2.20   15.40
   9  -1   5   10.90   17.70
 -11   1  -5   66.59   36.20
 -11   1  -5   19.50   32.30
 -11   1  -5   -6.90   23.60
  11  -1   5   15.20   22.40
  11  -1   5    3.70   19.00
  20   0  -5   50.39   31.20
 -20   0   5   74.99   62.79
 -20   0   5    2.40   26.50
 -20   0   5   24.00   57.59
  18   0  -5  -15.00   20.80
  18   0  -5   -2.40   19.10
  18   0  -5    5.50   23.30
 -18   0   5  -23.70   27.30
 -18   0   5  -15.20   22.60
 -18   0   5  -14.20   20.30
  16   0  -5   -3.00   15.60
  16   0  -5    1.90   16.80
  16   0  -5   -6.60   15.30
 -16   0   5  -15.90   19.20
 -16   0   5   12.70   40.90
  14   0  -5    4.80    8.90
  14   0  -5    2.00   12.90
  14   0  -5   -6.00   10.70
 -14   0   5    7.10   15.80
 -14   0   5    8.10    5.60
 -14   0   5  -21.50   17.20
  12   0  -5   -5.90   10.30
  12   0  -5    4.80    9.30
  12   0  -5   -6.80    7.60
  12   0  -5    0.70    4.60
 -12   0   5   -3.90    6.20
 -12   0   5   12.40   14.40
 -12   0   5   -7.40   12.80
  10   0  -5   -3.50    6.20
  10   0  -5    4.00    6.30
  10   0  -5   -2.20    8.30
  10   0  -5    8.10    7.70
  10   0  -5    1.60    2.00
  10   0  -5    3.50   10.70
 -10   0   5   -1.60    5.60
 -10   0   5    2.40    6.90
 -10   0   5   -4.80   10.50
 -10   0   5   17.60   12.10
 -10   0   5   -4.90    8.10
   8   0  -5   -5.50    5.30
   8   0  -5   -1.60    6.60
   8   0  -5    5.60    7.80
   8   0  -5    4.90    9.50
   8   0  -5   -0.50    5.80
  -8   0   5   -2.30    6.60
  -8   0   5    4.50    9.40
  -8   0   5  -15.30    9.60
  -8   0   5   -3.10    6.10
   6   0  -5    9.50    8.60
   6   0  -5   -4.60    4.80
   6   0  -5   -0.10    6.30
   6   0  -5    3.00    5.50
  -6   0   5   -6.90    4.60
  -6   0   5   -6.20    8.40
  -6   0   5   -4.20    6.10
   4   0  -5   12.40    7.00
   4   0  -5    3.90    4.80
   4   0  -5  -17.30    5.20
   4   0  -5    8.60   10.30
   4   0  -5    7.00    8.30
  -4   0   5    0.20    2.40
  -4   0   5    1.70    4.00
  -4   0   5   -7.40    6.20
  -4   0   5    1.80    7.70
  -4   0   5   -1.10    8.20
   2   0  -5    6.30    7.70
   2   0  -5   -1.10    2.60
   2   0  -5    3.90    3.50
   2   0  -5    9.20   11.10
   2   0  -5   -7.70    8.10
  -2   0   5   -9.00    4.40
  -2   0   5  -13.20    7.80
  -2   0   5   -0.50    3.30
  -2   0   5    8.10    8.50
  -2   0   5   -8.10    5.60
  -2   0   5    2.60    7.80
   0   0  -5  -10.20    7.90
   0   0  -5   -0.40    4.30
   0   0  -5    1.70    2.90
   0   0  -5    5.40   12.10
   0   0   5   -3.10    4.90
   0   0   5    4.90    6.70
   0   0   5    7.70    9.60
   0   0   5   -0.60    5.90
   0   0   5    2.20    4.40
  -2   0  -5    8.90    6.40
  -2   0  -5   -5.80   12.40
  -2   0  -5    5.90    8.40
   2   0   5    1.90    6.80
   2   0   5   -5.00    7.50
   2   0   5   -6.00    7.80
   2   0   5    4.00    4.80
  -4   0  -5    3.60    9.60
  -4   0  -5   -7.40   13.50
  -4   0  -5    2.60    8.20
   4   0   5    5.70    9.60
   4   0   5    3.80    8.20
   4   0   5    8.80    5.40
   4   0   5    4.00    4.40
   4   0   5   -5.50    8.50
  -6   0  -5   10.40   16.30
  -6   0  -5  -12.70    9.80
  -6   0  -5   -2.60   12.90
   6   0   5    2.90   11.00
   6   0   5   11.60   11.00
   6   0   5    1.50    9.80
   6   0   5   -0.10    7.70
  -8   0  -5    3.00   14.50
  -8   0  -5   23.00   23.30
  -8   0  -5   15.90   17.90
   8   0   5  -15.20   12.40
   8   0   5    5.40   15.80
   8   0   5    0.20   11.00
   8   0   5   26.40   14.40
 -10   0  -5    4.90   19.90
 -10   0  -5   20.90   26.60
 -10   0  -5    3.80   28.40
  10   0   5    6.40   19.70
  10   0   5    2.20   17.20
  10   0   5   31.90   21.80
 -12   0  -5  -54.69   27.00
 -12   0  -5   30.40   38.70
  12   0   5   18.10   28.00
  12   0   5    8.00   23.90
  19  -1  -5   16.30   26.70
  19  -1  -5   -7.90   21.40
  19  -1  -5   37.30   26.70
 -19   1   5   30.80   28.00
 -19   1   5   62.49   51.39
 -19   1   5   -6.20   35.40
 -19   1   5    2.90   22.40
  17  -1  -5   26.20   17.30
  17  -1  -5   -4.80   18.10
  17  -1  -5   19.10   19.40
 -17   1   5   26.50   21.20
 -17   1   5  -51.19   24.70
  15  -1  -5   80.39   16.30
  15  -1  -5   80.79   18.10
  15  -1  -5   82.39   15.60
 -15   1   5   90.89   23.20
  13  -1  -5   16.20    9.90
  13  -1  -5    9.90    3.60
  13  -1  -5  -10.60   11.30
  13  -1  -5    9.10    5.60
 -13   1   5    2.10   15.10
 -13   1   5   20.40   14.50
 -13   1   5    7.00    4.70
  11  -1  -5  412.66   19.00
  11  -1  -5  401.66   21.90
  11  -1  -5  396.96   21.50
  11  -1  -5  410.66   18.70
  11  -1  -5  429.36   25.80
 -11   1   5  409.46   28.10
 -11   1   5  435.56   19.20
 -11   1   5  348.07   27.90
   9  -1  -5   76.09   11.10
   9  -1  -5   88.29    9.40
   9  -1  -5   91.29    9.50
   9  -1  -5  102.19   14.00
   9  -1  -5   82.19    9.20
  -9   1   5  133.09   12.60
  -9   1   5   79.69    9.90
  -9   1   5   73.19    8.50
  -9   1   5   87.79   15.00
  -9   1   5   76.49   13.90
   7  -1  -5  168.58   13.90
   7  -1  -5  150.88   10.90
   7  -1  -5  163.38   15.30
   7  -1  -5  166.98   11.20
   7  -1  -5  154.78   15.90
  -7   1   5  152.28   16.10
  -7   1   5  142.69   11.50
  -7   1   5  148.29   13.60
   5  -1  -5   -0.10    6.80
   5  -1  -5    4.50    4.90
   5  -1  -5    5.00    7.90
   5  -1  -5   -0.60    4.30
  -5   1   5    1.40    1.80
  -5   1   5   -6.60    8.20
  -5   1   5    8.70    6.50
  -5   1   5    7.30    8.30
   3  -1  -5  133.69   14.60
   3  -1  -5  100.89    8.20
   3  -1  -5  110.49   14.30
   3  -1  -5  131.59   11.20
   3  -1  -5  112.89    6.40
   3  -1  -5  105.29   11.60
  -3   1   5  114.69    6.90
  -3   1   5   86.09   10.00
  -3   1   5  113.99   12.10
  -3   1   5  109.29   13.50
  -3   1   5  107.49    9.30
   1  -1  -5   18.90    2.30
   1  -1  -5   24.90   12.50
   1  -1  -5   19.20    9.60
   1  -1  -5   13.30    8.30
   1  -1  -5    8.30    5.10
  -1   1   5   16.20    5.70
  -1   1   5   29.60    6.30
  -1   1   5   16.90    5.20
  -1   1   5   17.10    6.60
  -1   1   5   33.00    7.50
  -1   1   5   23.40    9.80
  -1   1   5   10.00    7.10
  -1  -1  -5   13.30    7.80
  -1  -1  -5   12.90   11.10
  -1  -1  -5   15.80    6.00
  -1  -1  -5   24.30    6.80
   1   1   5   18.70    7.30
   1   1   5   11.30    4.90
   1   1   5   21.40    6.30
   1   1   5   14.60    8.10
  -3  -1  -5  131.39   12.00
  -3  -1  -5  132.69   13.00
  -3  -1  -5  138.09   18.60
   3   1   5  103.09   13.30
   3   1   5  121.29   13.60
   3   1   5  139.79   14.00
  -5  -1  -5    4.40   10.20
  -5  -1  -5   -6.10    9.10
  -5  -1  -5    6.80   15.60
   5   1   5   -1.60   10.70
   5   1   5   -5.10    4.70
   5   1   5  -14.30   10.20
  -7  -1  -5  103.29   22.20
  -7  -1  -5   80.19   15.10
  -7  -1  -5   97.29   16.70
   7   1   5   63.79   15.80
   7   1   5   56.69    9.90
   7   1   5   48.80   14.50
  -9  -1  -5    0.10   18.60
  -9  -1  -5   29.80   32.70
  -9  -1  -5  -12.70   20.70
   9   1   5  -10.30   15.40
   9   1   5    8.00   17.60
   9   1   5   -8.60   16.90
 -11  -1  -5   38.70   35.10
 -11  -1  -5   12.10   22.50
  11   1   5   24.10   18.30
  11   1   5    3.70   21.60
  18  -2  -5  185.88   23.70
  18  -2  -5  173.18   27.10
  18  -2  -5  244.48   28.80
 -18   2   5  173.08   27.70
 -18   2   5  187.48   34.10
  16  -2  -5  266.17   27.40
  16  -2  -5  287.77   28.70
 -16   2   5  328.67   35.70
 -16   2   5  290.67   29.70
  14  -2  -5  253.87   21.90
  14  -2  -5  220.08   22.00
  14  -2  -5  256.87   26.70
 -14   2   5  272.87   27.40
 -14   2   5  245.78   28.60
  12  -2  -5  110.29   12.40
  12  -2  -5  101.99   12.70
  12  -2  -5  105.09   11.60
  12  -2  -5  109.19    7.50
  12  -2  -5  117.19   15.40
 -12   2   5  121.09   20.50
 -12   2   5  122.09    9.20
 -12   2   5   98.69   17.20
  10  -2  -5   18.00    4.60
  10  -2  -5   16.80    6.80
  10  -2  -5   12.00    7.20
  10  -2  -5    8.20    8.80
 -10   2   5   11.70    5.90
 -10   2   5   17.50    7.60
 -10   2   5   29.00    9.00
 -10   2   5   18.80   13.70
 -10   2   5   26.10   12.60
   8  -2  -5    2.20    6.80
   8  -2  -5    1.30    9.10
   8  -2  -5    9.70    4.70
   8  -2  -5    2.70    6.90
   8  -2  -5    8.90    4.50
  -8   2   5   -2.30   10.10
  -8   2   5    3.40   12.20
  -8   2   5   14.40    6.80
   6  -2  -5   14.40    8.00
   6  -2  -5    6.70    3.70
   6  -2  -5    7.50    6.90
   6  -2  -5   -0.60    8.10
   6  -2  -5   17.40    5.10
  -6   2   5    1.30    6.90
  -6   2   5   11.30   10.00
  -6   2   5    0.60    5.70
   4  -2  -5  179.88   15.00
   4  -2  -5  142.79    9.00
   4  -2  -5  148.79   11.10
   4  -2  -5  155.38   13.80
   4  -2  -5  151.18   11.10
  -4   2   5  162.58   13.30
  -4   2   5  129.99   14.80
  -4   2   5  163.38   13.20
  -4   2   5  162.88   10.80
  -4   2   5  154.88    7.00
   2  -2  -5    1.30   10.80
   2  -2  -5    8.80    8.10
   2  -2  -5    7.50    1.40
   2  -2  -5   12.00    3.50
   2  -2  -5    6.80    5.00
   2  -2  -5   20.90    8.60
   2  -2  -5    3.00    7.40
  -2   2   5    5.00    6.60
  -2   2   5    1.70    3.30
  -2   2   5    8.40    5.80
  -2   2   5   12.60    9.50
  -2   2   5    3.40    6.70
  -2   2   5   -1.20    5.40
  -2   2   5   10.20    6.30
   0  -2  -5    6.90   12.00
   0  -2  -5    5.90    7.40
   0  -2  -5    5.20    5.70
   0  -2  -5   10.60    9.10
   0  -2  -5    6.00    5.00
   0   2   5   -1.70    6.10
   0   2   5  -13.70    5.20
   0   2   5    2.00    9.90
   0   2   5   10.00    8.10
  -2  -2  -5   17.80    8.00
  -2  -2  -5   34.80   13.20
  -2  -2  -5   28.80    7.40
  -2  -2  -5   21.00    7.70
   2   2   5   25.30   10.00
   2   2   5   21.10    6.50
   2   2   5   21.70    8.30
  -4  -2  -5   -2.00    8.10
  -4  -2  -5   11.00   15.10
  -4  -2  -5   13.70    8.70
   4   2   5   21.80   10.50
   4   2   5   -1.10    6.40
   4   2   5   10.40    9.50
  -6  -2  -5   93.39   14.20
  -6  -2  -5   96.99   14.30
  -6  -2  -5  103.19   20.50
   6   2   5   99.19   15.80
   6   2   5  112.89   10.20
   6   2   5   73.99   15.10
  -8  -2  -5  152.98   19.80
  -8  -2  -5  180.98   21.00
  -8  -2  -5  151.78   26.90
   8   2   5  158.08   15.70
   8   2   5  156.08   20.40
   8   2   5  170.88   21.20
 -10  -2  -5   -1.40   20.90
 -10  -2  -5   -2.60   28.90
  10   2   5   14.20   20.50
  10   2   5  -10.00   21.80
  10   2   5    6.20   17.30
 -12  -2  -5   60.69   40.30
 -12  -2  -5  -25.90   27.20
  12   2   5   48.90   28.40
  12   2   5   79.19   26.20
  19  -3  -5   42.30   24.20
  19  -3  -5  -20.40   27.10
 -19   3   5   11.10   27.40
 -19   3   5   70.79   34.30
 -19   3   5  136.09   56.89
  17  -3  -5   38.60   20.30
  17  -3  -5   43.10   17.80
 -17   3   5   63.49   23.50
 -17   3   5   31.10   27.70
  15  -3  -5   50.29   16.60
  15  -3  -5   45.70   13.40
  15  -3  -5   43.30   20.40
 -15   3   5   29.60   19.40
  13  -3  -5   91.79   13.80
  13  -3  -5   87.99   15.40
  13  -3  -5  120.69   12.90
 -13   3   5   77.09   18.50
 -13   3   5   95.09    6.90
 -13   3   5   70.39   20.10
  11  -3  -5    8.30    6.60
  11  -3  -5    4.60    8.30
  11  -3  -5   -3.90    9.30
  11  -3  -5    6.60    8.20
 -11   3   5   14.40    7.60
 -11   3   5   10.50    7.80
 -11   3   5   16.40   12.60
 -11   3   5   10.50   15.60
 -11   3   5  -20.80    9.80
   9  -3  -5  216.78   17.00
   9  -3  -5  247.08   18.20
   9  -3  -5  250.57   11.30
   9  -3  -5  233.08   12.10
   9  -3  -5  225.88   14.90
  -9   3   5  243.58   24.60
  -9   3   5  245.18   15.00
  -9   3   5  201.48   21.60
  -9   3   5  234.68   15.90
   7  -3  -5   10.10    7.20
   7  -3  -5   22.70    3.50
   7  -3  -5   21.40    4.80
   7  -3  -5    5.00    7.50
   7  -3  -5   19.50    5.80
   7  -3  -5   14.10    8.20
  -7   3   5   13.40    7.10
  -7   3   5   11.50   10.70
   5  -3  -5   87.89   11.10
   5  -3  -5   82.29    5.50
   5  -3  -5   84.69   10.50
   5  -3  -5   92.79    6.50
   5  -3  -5   80.79   10.90
   5  -3  -5   90.89    9.20
  -5   3   5   86.49   13.20
  -5   3   5   85.39    9.80
  -5   3   5   95.29   11.60
  -5   3   5   69.19    8.50
   3  -3  -5    8.80    1.70
   3  -3  -5   -4.80    6.50
   3  -3  -5    8.30    7.50
   3  -3  -5   12.20    1.80
   3  -3  -5   12.60    6.30
   3  -3  -5    6.90    3.30
   3  -3  -5   11.30    2.50
   3  -3  -5    7.40    5.70
  -3   3   5    2.90    8.70
  -3   3   5   11.00    3.00
  -3   3   5    2.40    7.10
  -3   3   5    8.70    6.50
  -3   3   5    5.30    5.80
  -3   3   5    4.80    5.40
   1  -3  -5   82.29   14.10
   1  -3  -5   78.79   11.70
   1  -3  -5  101.89    9.60
   1  -3  -5  102.69    7.50
   1  -3  -5  101.19   10.70
  -1   3   5   83.49    9.60
  -1   3   5   86.19   13.60
  -1   3   5   64.29   10.30
  -1   3   5   99.79    9.80
  -1   3   5  102.99   10.90
  -1  -3  -5   43.20   13.20
  -1  -3  -5   38.40    7.70
  -1  -3  -5   52.89   11.20
  -1  -3  -5   37.00    7.60
  -1  -3  -5   38.10    6.90
   1   3   5   47.90    9.90
   1   3   5   56.19    9.80
  -3  -3  -5   34.80    9.70
  -3  -3  -5   34.10   10.40
  -3  -3  -5   32.80   14.30
   3   3   5   24.40    9.30
   3   3   5   31.90   11.70
  -5  -3  -5   -6.40    9.20
  -5  -3  -5    4.90   10.10
  -5  -3  -5    3.80   14.70
   5   3   5   -2.60   11.90
   5   3   5    1.50    3.50
   5   3   5   14.60   11.20
  -7  -3  -5   71.89   14.50
  -7  -3  -5   56.39   20.10
  -7  -3  -5   70.39   15.50
   7   3   5   72.99   10.00
   7   3   5   41.20   16.30
   7   3   5   66.59   15.60
  -9  -3  -5   -0.90   23.80
  -9  -3  -5   12.50   18.40
   9   3   5   13.00   19.20
   9   3   5   18.70   17.50
 -11  -3  -5   51.59   24.50
 -11  -3  -5   89.19   36.20
  11   3   5   41.20   24.30
  11   3   5   41.40   28.40
  18  -4  -5   21.50   23.50
  18  -4  -5  -33.50   19.10
 -18   4   5   15.40   25.50
 -18   4   5   62.99   32.90
  16  -4  -5   36.50   16.90
  16  -4  -5   41.60   19.10
 -16   4   5   77.89   27.60
 -16   4   5   32.90   21.10
  14  -4  -5    2.50   14.20
  14  -4  -5   20.80   12.60
  14  -4  -5   20.60   10.70
 -14   4   5   10.00   17.70
 -14   4   5   25.60   21.40
  12  -4  -5   11.50    7.20
  12  -4  -5   -4.00    9.50
  12  -4  -5    1.70    9.30
  12  -4  -5    9.70   11.40
 -12   4   5   10.90   14.90
 -12   4   5  -23.60   15.50
 -12   4   5   19.30    4.40
  10  -4  -5   60.99   11.20
  10  -4  -5   73.29   10.00
  10  -4  -5   89.89   12.00
 -10   4   5   75.09    9.40
 -10   4   5   75.79    9.90
 -10   4   5   75.09   17.90
 -10   4   5   69.79   14.80
   8  -4  -5   85.19    5.70
   8  -4  -5   48.30    9.60
   8  -4  -5   79.79   10.80
   8  -4  -5   97.59    8.90
  -8   4   5   59.39   13.30
  -8   4   5   77.79    9.70
   6  -4  -5   75.69    6.90
   6  -4  -5   63.29   10.00
   6  -4  -5   65.79    9.80
   6  -4  -5   66.99    6.30
   6  -4  -5   55.89    9.40
  -6   4   5   54.29   11.80
  -6   4   5   64.89    9.20
  -6   4   5   56.09   12.40
   4  -4  -5  122.29   10.70
   4  -4  -5  136.79   12.10
   4  -4  -5  113.09   11.80
   4  -4  -5  108.49   12.10
   4  -4  -5  125.49   11.70
   4  -4  -5  124.19    6.30
  -4   4   5  127.59    6.10
  -4   4   5  145.19   12.70
  -4   4   5  136.99   15.60
  -4   4   5  124.69   12.20
  -4   4   5  107.19   10.40
   2  -4  -5  106.79    6.30
   2  -4  -5  109.29    9.80
   2  -4  -5  111.19   11.20
   2  -4  -5  133.09   17.30
   2  -4  -5  123.19   13.00
   2  -4  -5  116.49   11.50
  -2   4   5  127.79   11.20
  -2   4   5  108.19   11.50
  -2   4   5  112.99   11.80
  -2   4   5  130.09   16.30
   0  -4  -5  107.29   13.30
   0  -4  -5  132.19    9.70
   0  -4  -5  131.49    9.90
   0  -4  -5  124.79   12.70
   0  -4  -5  147.59   16.60
   0   4   5  126.39   13.40
   0   4   5  138.29   13.80
  -2  -4  -5   88.29   10.90
  -2  -4  -5   81.29    9.10
  -2  -4  -5   83.19    8.60
  -2  -4  -5   78.49   13.90
  -2  -4  -5  103.59   16.60
   2   4   5   94.49   14.10
   2   4   5   76.29   11.40
  -4  -4  -5    6.50   10.30
  -4  -4  -5   -0.30   12.50
  -4  -4  -5   13.60    6.60
  -4  -4  -5   -4.20   13.70
   4   4   5   13.50   10.90
   4   4   5    5.10   12.40
  -6  -4  -5    2.20   11.80
  -6  -4  -5   19.60   10.50
  -6  -4  -5    7.10   16.70
   6   4   5    6.00   13.00
   6   4   5   17.60   14.90
  -8  -4  -5   59.69   23.50
   8   4   5   74.19   20.50
   8   4   5   77.79   18.60
 -10  -4  -5  -14.80   29.30
 -10  -4  -5   -7.30   20.40
  10   4   5   -1.00   24.60
  10   4   5   -8.60   20.60
 -12  -4  -5   33.80   30.90
  12   4   5   18.90   43.50
  19  -5  -5   -3.20   26.40
  19  -5  -5  -37.40   28.70
 -19   5   5   45.00   30.20
 -19   5   5  106.79   50.19
 -19   5   5  109.99   60.19
  17  -5  -5   45.80   22.30
  17  -5  -5   17.40   18.10
 -17   5   5   17.10   25.60
 -17   5   5  117.49   32.90
  15  -5  -5   21.70   15.20
  15  -5  -5   18.40   15.70
 -15   5   5   14.80   19.70
 -15   5   5    0.30   23.70
  13  -5  -5  204.98   21.40
  13  -5  -5  288.47   21.80
 -13   5   5  230.28   24.90
 -13   5   5  265.97   29.40
  11  -5  -5   98.89   13.20
  11  -5  -5   96.59   12.20
  11  -5  -5   75.09   13.60
 -11   5   5   90.89   17.70
 -11   5   5  110.49   10.10
 -11   5   5   86.09   10.70
 -11   5   5  131.59   13.00
 -11   5   5  106.79   20.00
   9  -5  -5  464.45   25.70
   9  -5  -5  439.16   21.90
   9  -5  -5  431.46   25.30
  -9   5   5  445.86   31.10
  -9   5   5  440.56   28.90
  -9   5   5  479.15   23.30
   7  -5  -5   29.70    9.30
   7  -5  -5   35.60    4.80
   7  -5  -5   17.70    8.30
   7  -5  -5   28.70    6.00
  -7   5   5   47.40   13.60
  -7   5   5   32.90    8.20
   5  -5  -5   37.20    6.50
   5  -5  -5   45.90    4.40
   5  -5  -5   35.90    8.90
   5  -5  -5   31.30    8.60
   5  -5  -5   36.20    8.10
  -5   5   5   40.30    5.50
  -5   5   5   33.10   11.80
  -5   5   5   45.40    8.90
  -5   5   5   36.50    9.30
   3  -5  -5   -3.90    5.90
   3  -5  -5    2.30    6.60
   3  -5  -5  -12.80    6.40
   3  -5  -5    6.90    8.30
   3  -5  -5    1.40    5.20
  -3   5   5    4.50   11.40
  -3   5   5    4.80    7.60
  -3   5   5    4.30    5.80
  -3   5   5    4.70    6.20
   1  -5  -5   10.50    4.40
   1  -5  -5   12.60    7.00
   1  -5  -5   19.20    7.40
   1  -5  -5   12.80    8.80
  -1   5   5   20.10   12.00
  -1   5   5   16.30    6.90
  -1   5   5   21.60    9.50
  -1  -5  -5  181.88    9.70
  -1  -5  -5  159.68   14.50
  -1  -5  -5  209.78   16.20
  -1  -5  -5  181.38   13.00
  -1  -5  -5  184.88   19.40
  -1  -5  -5  199.38   20.90
   1   5   5  190.08   17.10
   1   5   5  215.08   19.60
  -3  -5  -5   64.39    8.80
  -3  -5  -5   94.09   12.50
  -3  -5  -5   70.49   14.10
  -3  -5  -5   93.39   16.80
  -3  -5  -5   81.29    7.40
   3   5   5   76.49   14.70
   3   5   5   71.89   13.20
  -5  -5  -5  158.38   12.00
  -5  -5  -5  165.98   17.10
  -5  -5  -5  155.88   19.60
  -5  -5  -5  182.58   11.40
  -5  -5  -5  177.58   21.50
   5   5   5  165.88   19.60
   5   5   5  160.18   18.30
  -7  -5  -5    3.80   14.50
  -7  -5  -5   51.09   20.20
  -7  -5  -5    1.20   18.90
   7   5   5   14.90   15.40
   7   5   5   53.49   18.10
  -9  -5  -5   63.89   26.80
  -9  -5  -5   36.80   23.20
  -9  -5  -5   78.49   21.20
   9   5   5   55.39   21.20
   9   5   5   79.09   25.00
 -11  -5  -5   28.30   23.80
 -11  -5  -5   73.89   32.50
  11   5   5   32.40   24.90
  11   5   5    4.30   30.20
  18  -6  -5   74.29   23.90
  18  -6  -5   71.69   26.20
 -18   6   5  146.89   38.90
 -18   6   5   85.59   29.40
  16  -6  -5   81.99   18.80
  16  -6  -5   63.39   21.20
 -16   6   5   64.49   24.20
 -16   6   5  116.89   31.30
  14  -6  -5  127.49   17.30
 -14   6   5  131.39   29.70
 -14   6   5  112.29   27.10
  12  -6  -5   -3.60   10.20
  12  -6  -5   56.89   13.60
  12  -6  -5   20.10   13.10
 -12   6   5   21.00    8.60
 -12   6   5   16.70   20.20
 -12   6   5   19.30    5.10
 -12   6   5   23.50   15.90
  10  -6  -5   -2.00    9.80
  10  -6  -5   16.40   10.20
  10  -6  -5   11.80    8.30
 -10   6   5    2.80   14.20
 -10   6   5   24.80    8.50
 -10   6   5   17.40    7.00
 -10   6   5   21.70   16.50
 -10   6   5    9.20    8.00
   8  -6  -5   33.90    9.60
   8  -6  -5   26.30    6.70
   8  -6  -5   50.29   11.00
  -8   6   5   38.10    8.50
  -8   6   5   32.30   13.80
   6  -6  -5   24.00    5.90
   6  -6  -5   24.40    4.70
   6  -6  -5   34.80    9.20
   6  -6  -5   14.30    8.80
  -6   6   5   21.90    8.00
  -6   6   5   25.90    9.30
  -6   6   5    4.70   11.60
   4  -6  -5    2.80    2.10
   4  -6  -5   17.30    9.10
   4  -6  -5   -0.20    6.80
   4  -6  -5    2.70    6.60
   4  -6  -5    0.40    6.50
  -4   6   5   -7.00    9.90
  -4   6   5    4.00    3.30
  -4   6   5   -4.10    7.10
  -4   6   5    1.00    8.00
  -4   6   5    2.70    5.30
   2  -6  -5   51.49   10.90
   2  -6  -5   58.29    9.60
   2  -6  -5   68.89    9.30
  -2   6   5   87.99    8.80
  -2   6   5   47.40   10.30
  -2   6   5   60.29   14.80
  -2   6   5   55.89    8.30
   0  -6  -5   71.49   12.50
   0  -6  -5   66.79    8.70
   0  -6  -5   64.69    6.30
   0  -6  -5   67.99   10.30
   0   6   5   48.90    9.60
   0   6   5   74.69   12.30
  -2  -6  -5   19.20    9.70
  -2  -6  -5   28.40   12.20
  -2  -6  -5   21.00   13.10
  -2  -6  -5   15.60    7.70
  -2  -6  -5   25.80    7.30
   2   6   5   21.80   12.30
   2   6   5   17.00    9.90
  -4  -6  -5    7.30   13.40
  -4  -6  -5   19.50   13.80
  -4  -6  -5    4.30    5.10
  -4  -6  -5   -3.20   10.40
   4   6   5   17.70   14.00
   4   6   5   13.30   12.00
  -6  -6  -5   40.00   15.00
  -6  -6  -5   54.49   19.10
  -6  -6  -5   49.00   17.80
   6   6   5   43.00   17.90
   6   6   5   42.60   15.10
  -8  -6  -5   41.10   18.00
  -8  -6  -5   37.30   21.20
  -8  -6  -5   52.89   24.80
   8   6   5   39.80   22.90
   8   6   5   58.69   21.20
 -10  -6  -5  -22.30   21.50
 -10  -6  -5  -54.99   26.70
  10   6   5   39.20   21.40
  10   6   5   46.70   30.00
  17  -7  -5   77.69   21.00
  17  -7  -5   59.09   24.20
 -17   7   5   52.39   26.80
 -17   7   5   51.39   30.60
  15  -7  -5   14.90   15.60
  15  -7  -5   25.10   18.00
 -15   7   5  -13.20   26.30
 -15   7   5   30.90   21.60
  13  -7  -5  192.28   17.90
  13  -7  -5  179.78   22.10
 -13   7   5  198.28   26.80
 -13   7   5  193.68   31.90
  11  -7  -5   23.60   12.20
  11  -7  -5   23.90   12.60
  11  -7  -5   17.20    9.50
 -11   7   5   11.60    8.50
 -11   7   5   10.00   17.00
 -11   7   5   -3.10   17.60
   9  -7  -5  151.88   14.30
   9  -7  -5  150.38   15.90
   9  -7  -5  177.18   17.00
  -9   7   5  165.58   15.50
  -9   7   5  131.09   21.60
  -9   7   5  144.29   20.50
   7  -7  -5   63.69    7.70
   7  -7  -5   66.89   12.00
   7  -7  -5   42.40    9.90
  -7   7   5   42.30   13.40
  -7   7   5   40.30    9.80
   5  -7  -5   61.09    5.90
   5  -7  -5   55.59   11.30
   5  -7  -5   72.69   10.80
   5  -7  -5   66.29    8.60
   5  -7  -5   54.09    9.80
  -5   7   5   76.69   10.90
  -5   7   5   65.09    6.70
  -5   7   5   66.89   15.60
  -5   7   5   60.09   10.60
  -5   7   5   71.39    5.00
   3  -7  -5  259.97   18.20
   3  -7  -5  247.68   18.00
   3  -7  -5  266.77   18.50
   3  -7  -5  259.27   20.10
  -3   7   5  256.17   19.90
  -3   7   5  307.47   15.00
  -3   7   5  253.17   23.20
  -3   7   5  280.07   16.30
  -3   7   5  280.47   13.90
   1  -7  -5   25.30    7.20
   1  -7  -5   15.50   10.40
   1  -7  -5   17.60    8.40
  -1   7   5   20.80    8.20
  -1   7   5   16.20    9.70
  -1  -7  -5  164.38   17.30
  -1  -7  -5  203.88   13.20
  -1  -7  -5  195.08   14.40
  -1  -7  -5  183.38   17.40
   1   7   5  141.89   16.70
   1   7   5  170.58   18.20
  -3  -7  -5    9.20    5.50
  -3  -7  -5    6.10   12.80
  -3  -7  -5   19.90   13.40
  -3  -7  -5    6.40   10.20
   3   7   5   15.80   11.70
   3   7   5   29.90   14.60
  -5  -7  -5  425.16   29.10
  -5  -7  -5  398.56   29.90
  -5  -7  -5  385.56   33.20
   5   7   5  474.25   34.10
   5   7   5  395.76   31.10
  -7  -7  -5   -2.40   24.20
  -7  -7  -5   33.90   17.50
  -7  -7  -5   46.20   21.10
   7   7   5   20.50   21.80
   7   7   5   36.30   18.40
  -9  -7  -5   71.09   23.10
  -9  -7  -5   95.89   27.50
   9   7   5  139.99   29.70
   9   7   5   84.99   24.40
 -11  -7  -5    4.70   26.00
 -11  -7  -5   -8.60   33.60
  11   7   5  -23.00   30.50
  11   7   5   19.50   35.60
  18  -8  -5  -12.90   29.10
  18  -8  -5   44.00   25.70
 -18   8   5   68.19   59.59
 -18   8   5    7.10   30.20
 -18   8   5  -29.60   65.29
  16  -8  -5   36.20   18.70
  16  -8  -5   15.70   22.60
 -16   8   5    1.30   29.30
 -16   8   5   53.69   26.60
  14  -8  -5   61.29   20.10
  14  -8  -5   70.29   29.40
 -14   8   5   68.69   27.30
 -14   8   5   47.50   22.80
  12  -8  -5   -8.20   11.30
  12  -8  -5   13.20   15.30
  12  -8  -5   13.80   13.60
 -12   8   5   17.50    9.30
 -12   8   5    4.00   19.00
 -12   8   5    2.70   22.60
  10  -8  -5  117.19   16.30
  10  -8  -5  145.09   16.60
  10  -8  -5  122.29   13.10
 -10   8   5  130.39   21.10
 -10   8   5  135.99   12.80
 -10   8   5  150.88   23.90
   8  -8  -5  256.67   22.00
   8  -8  -5  278.27   22.80
   8  -8  -5  223.58   15.50
  -8   8   5  239.28   18.40
  -8   8   5  222.98   24.20
   6  -8  -5  304.97   14.80
   6  -8  -5  277.47   22.30
   6  -8  -5  278.97   21.30
  -6   8   5  329.87   20.50
  -6   8   5  289.57   26.80
  -6   8   5  235.88   20.20
  -6   8   5  278.37   12.90
   4  -8  -5  239.78   10.20
   4  -8  -5  228.78   21.10
   4  -8  -5  239.78   18.70
   4  -8  -5  261.17   16.40
   4  -8  -5  197.58   17.50
  -4   8   5  208.88   14.40
  -4   8   5  265.07   15.60
  -4   8   5  213.28   19.90
  -4   8   5  219.98   23.10
  -4   8   5  241.68   12.20
   2  -8  -5  442.96   24.50
   2  -8  -5  485.15   24.00
   2  -8  -5  464.55   26.70
  -2   8   5  443.76   30.60
  -2   8   5  463.45   23.30
  -2   8   5  465.55   27.40
  -2   8   5  398.16   20.70
   0  -8  -5  195.98   18.90
   0  -8  -5  192.48   15.30
   0  -8  -5  217.08   22.10
   0   8   5  229.78   19.10
   0   8   5  174.58   18.20
  -2  -8  -5  106.99   10.80
  -2  -8  -5   81.99   14.70
  -2  -8  -5   84.29   13.20
   2   8   5  135.99   16.20
   2   8   5  123.89   17.90
  -4  -8  -5   57.29   14.20
  -4  -8  -5   40.70   15.50
   4   8   5   57.59   14.60
   4   8   5   30.20   17.90
  -6  -8  -5   16.30   16.80
  -6  -8  -5   37.90   18.30
   6   8   5   36.80   18.20
   6   8   5   34.80   21.80
  -8  -8  -5   -4.10   22.00
  -8  -8  -5   -5.00   18.80
   8   8   5  -17.30   19.00
   8   8   5   22.60   25.20
 -10  -8  -5  102.39   32.60
 -10  -8  -5  112.29   28.30
  10   8   5  110.89   27.70
  10   8   5  105.19   34.50
  17  -9  -5   -8.20   22.80
  17  -9  -5   -0.70   25.40
 -17   9   5  -17.80   27.50
 -17   9   5  -11.00   32.50
  15  -9  -5  144.89   22.00
  15  -9  -5   81.09   24.60
 -15   9   5  120.49   30.80
 -15   9   5   52.79   25.40
  13  -9  -5   28.70   14.60
  13  -9  -5   33.60   18.60
 -13   9   5   23.60   24.90
 -13   9   5   48.10   26.90
  11  -9  -5  133.29   18.30
  11  -9  -5  131.89   18.70
  11  -9  -5  151.98   15.40
 -11   9   5  136.59   13.10
 -11   9   5  115.89   22.10
 -11   9   5  157.78   28.10
   9  -9  -5   69.99   10.60
   9  -9  -5   74.19   14.40
   9  -9  -5   27.60   13.10
  -9   9   5   87.49   11.80
  -9   9   5   63.19   23.70
  -9   9   5   55.79   17.30
   7  -9  -5  141.49   16.50
   7  -9  -5  164.18   13.10
   7  -9  -5  150.98   16.70
  -7   9   5  176.88   17.20
  -7   9   5  142.19   20.20
   5  -9  -5   39.20   10.50
   5  -9  -5   23.70   10.00
   5  -9  -5   37.40    5.20
   5  -9  -5   22.10   11.60
  -5   9   5   46.20   10.30
  -5   9   5   27.20   15.60
  -5   9   5   46.80    5.60
  -5   9   5   31.20   11.40
   3  -9  -5   34.00   10.60
   3  -9  -5   30.10   10.80
   3  -9  -5   22.40    8.90
  -3   9   5    9.70    7.50
  -3   9   5   13.40   14.80
  -3   9   5   19.20   11.30
  -3   9   5   11.80    6.20
  -3   9   5   29.00    5.60
   1  -9  -5   87.19   10.60
   1  -9  -5   76.39   12.70
   1  -9  -5   80.09   13.70
  -1   9   5  120.49   16.50
  -1   9   5   89.09   12.80
  -1  -9  -5   22.40   11.90
  -1  -9  -5   22.40   12.00
  -1  -9  -5   12.30    7.90
   1   9   5   25.80   14.40
   1   9   5   17.70   11.50
  -3  -9  -5  222.98   23.30
  -3  -9  -5  240.48   12.90
  -3  -9  -5  278.47   27.70
   3   9   5  216.78   21.30
   3   9   5  252.97   25.30
  -5  -9  -5   35.70   17.50
  -5  -9  -5   -5.00   27.00
   5   9   5  -19.30   22.50
  -7  -9  -5   40.70   18.90
  -7  -9  -5   97.49   23.80
   7   9   5   78.09   26.30
   7   9   5   91.49   22.40
  -9  -9  -5   -3.20   26.90
  -9  -9  -5   19.00   21.30
   9   9   5   34.50   26.10
   9   9   5   30.60   29.40
  16 -10  -5  -40.70   23.90
  16 -10  -5   12.00   23.20
 -16  10   5  -16.50   33.90
 -16  10   5   12.30   28.90
  14 -10  -5   -9.40   16.80
  14 -10  -5  -13.00   20.80
 -14  10   5   44.60   24.60
 -14  10   5   20.50   30.30
  12 -10  -5    4.40   16.40
  12 -10  -5  -20.30   15.70
  12 -10  -5    9.30   13.10
 -12  10   5   18.80   26.30
 -12  10   5    8.80   10.30
  10 -10  -5   74.39   12.40
  10 -10  -5   55.89   15.50
  10 -10  -5   64.89   17.00
 -10  10   5   51.39   24.60
 -10  10   5   47.10   11.40
 -10  10   5   64.19   20.80
   8 -10  -5    0.80   11.30
   8 -10  -5    3.30   12.40
   8 -10  -5    9.90    8.30
  -8  10   5    2.30   20.40
  -8  10   5    8.30   17.50
  -8  10   5  -12.10    9.80
   6 -10  -5  122.19   16.00
   6 -10  -5  117.29   11.90
   6 -10  -5  109.49   14.30
  -6  10   5  104.79   19.60
  -6  10   5  121.29   14.60
  -6  10   5  109.29    8.90
   4 -10  -5   38.90   12.80
   4 -10  -5   48.30   12.40
   4 -10  -5   26.30   10.70
  -4  10   5   43.90   18.10
  -4  10   5   79.69    8.60
  -4  10   5   53.69   12.80
  -4  10   5   38.90    8.40
   2 -10  -5  148.19   17.60
   2 -10  -5  101.89   14.30
   2 -10  -5  119.39   13.20
  -2  10   5  105.29   21.00
  -2  10   5  140.39   17.50
  -2  10   5  156.98   14.20
   0 -10  -5    8.40   11.60
   0 -10  -5   11.70   11.40
   0 -10  -5    9.00    8.50
   0  10   5   21.60   14.40
   0  10   5    2.40   11.60
  -2 -10  -5  115.39   16.40
  -2 -10  -5  127.09   18.70
   2  10   5  126.39   21.00
   2  10   5  118.59   18.40
  -4 -10  -5  -22.90   15.00
  -4 -10  -5  -14.80   28.00
   4  10   5   22.20   17.50
   4  10   5   -6.70   19.90
  -6 -10  -5   19.50   20.10
  -6 -10  -5   -2.20   17.00
   6  10   5   18.90   19.20
   6  10   5   59.99   24.60
  -8 -10  -5    8.30   19.80
  -8 -10  -5   -1.40   25.50
   8  10   5   -8.10   26.00
   8  10   5   -9.40   23.20
 -10 -10  -5 -102.39   32.90
  10  10   5    3.50   39.00
 -17  11   5   44.10   37.50
  15 -11  -5  223.18   27.30
  15 -11  -5  241.68   31.40
 -15  11   5  293.07   42.80
 -15  11   5  234.58   35.60
  13 -11  -5   18.60   16.90
  13 -11  -5   10.80   19.70
 -13  11   5    6.50   29.20
 -13  11   5   70.89   27.30
  11 -11  -5  303.37   25.10
  11 -11  -5  295.07   32.00
  11 -11  -5  276.57   26.60
 -11  11   5  278.77   34.60
 -11  11   5  302.17   34.70
 -11  11   5  246.38   21.30
   9 -11  -5   13.00   14.10
   9 -11  -5   -5.80   13.20
   9 -11  -5    5.10   10.10
  -9  11   5   22.80   11.50
  -9  11   5   -8.80   23.10
  -9  11   5    4.80   19.60
   7 -11  -5  233.48   25.60
   7 -11  -5  246.38   16.90
   7 -11  -5  222.28   20.80
  -7  11   5  228.68   19.30
  -7  11   5  223.98   27.00
   5 -11  -5  130.99   18.40
   5 -11  -5  112.99   15.00
   5 -11  -5  162.88   17.60
   5 -11  -5  154.58   13.20
  -5  11   5  112.29   21.30
  -5  11   5  142.89   17.60
  -5  11   5  160.58   14.10
   3 -11  -5   26.80   10.70
   3 -11  -5   36.50   12.20
   3 -11  -5    4.90   12.80
  -3  11   5   36.40   19.30
  -3  11   5   16.80   13.20
  -3  11   5   11.30    9.80
   1 -11  -5  338.77   26.10
   1 -11  -5  312.57   22.10
   1 -11  -5  339.87   26.60
  -1  11   5  340.77   33.00
  -1  11   5  330.07   29.20
  -1  11   5  343.67   25.30
  -1 -11  -5    8.40    9.00
  -1 -11  -5   -3.10   13.30
  -1 -11  -5  -13.40   13.30
   1  11   5  -12.70   16.20
   1  11   5   -2.30   14.10
  -3 -11  -5  500.15   36.50
  -3 -11  -5  569.64   37.70
   3  11   5  564.14   41.90
   3  11   5  567.34   38.60
  -5 -11  -5  131.59   22.60
  -5 -11  -5  113.09   22.30
   5  11   5  136.69   27.70
   5  11   5  153.98   24.10
  -7 -11  -5  302.97   30.50
  -7 -11  -5  255.17   32.20
   7  11   5  319.37   33.90
   7  11   5  333.37   36.60
  -9 -11  -5  -44.10   30.20
  -9 -11  -5  -27.60   27.90
   9  11   5  -22.80   34.60
   9  11   5  -54.09   30.00
  16 -12  -5  -23.30   26.90
 -16  12   5  -55.19   34.70
  14 -12  -5   -9.20   21.30
  14 -12  -5   17.20   23.40
 -14  12   5    9.00   28.70
 -14  12   5  -37.10   32.10
  12 -12  -5   25.80   21.00
 -12  12   5   55.89   25.30
 -12  12   5   10.00   31.00
  10 -12  -5   62.29   18.40
  10 -12  -5   57.29   17.70
  10 -12  -5   63.49   14.50
 -10  12   5  100.09   32.10
 -10  12   5   60.69   13.60
   8 -12  -5  353.16   22.20
   8 -12  -5  363.86   31.70
  -8  12   5  335.27   36.90
  -8  12   5  310.67   25.30
  -8  12   5  310.57   30.90
   6 -12  -5   74.39   15.40
   6 -12  -5  103.59   11.40
   6 -12  -5   97.69   16.60
  -6  12   5   74.89   22.00
  -6  12   5  100.89   10.00
  -6  12   5   70.89   15.60
   4 -12  -5  478.85   30.40
   4 -12  -5  460.05   29.50
   4 -12  -5  542.45   34.30
  -4  12   5  454.95   24.80
  -4  12   5  404.26   38.50
  -4  12   5  451.85   31.00
   2 -12  -5  185.48   21.10
   2 -12  -5  203.68   20.30
   2 -12  -5  202.38   21.20
  -2  12   5  228.88   22.90
  -2  12   5  183.68   26.80
  -2  12   5  227.78   21.70
   0 -12  -5  265.67   29.00
   0 -12  -5  190.18   20.50
   0 -12  -5  243.28   20.90
   0  12   5  259.97   22.90
   0  12   5  243.18   24.30
  -2 -12  -5   25.20   16.30
  -2 -12  -5   33.90   17.50
   2  12   5   18.70   17.50
   2  12   5    7.40   18.40
  -4 -12  -5   28.10   18.50
  -4 -12  -5   -9.50   17.70
   4  12   5   14.30   21.00
   4  12   5   22.00   24.70
  -6 -12  -5   14.00   21.20
  -6 -12  -5  -17.00   22.20
   6  12   5  -30.20   25.30
   6  12   5   12.40   24.00
  -8 -12  -5   -3.80   29.10
  -8 -12  -5   76.89   26.90
   8  12   5   66.29   29.70
   8  12   5   30.70   33.90
  15 -13  -5   67.59   46.00
  15 -13  -5   32.90   26.30
 -15  13   5   14.50   35.20
 -15  13   5  -39.50   47.30
  13 -13  -5  -35.50   23.00
  13 -13  -5    4.90   21.20
 -13  13   5  -21.40   28.90
 -13  13   5  -20.70   33.20
  11 -13  -5    5.60   19.50
  11 -13  -5   14.20   20.80
  11 -13  -5   11.90   16.40
 -11  13   5   24.20   31.80
 -11  13   5   10.90   26.40
   9 -13  -5   23.40   17.70
   9 -13  -5    4.60   12.80
   9 -13  -5   15.80   17.40
  -9  13   5   -7.60   28.30
  -9  13   5   34.00   30.40
  -9  13   5   17.60   14.30
   7 -13  -5   -3.30   14.40
   7 -13  -5  -11.60   10.70
   7 -13  -5  -15.40   14.50
  -7  13   5  -26.10   21.30
  -7  13   5   -1.60   13.60
   5 -13  -5   23.80   13.90
   5 -13  -5   -8.60   15.30
  -5  13   5    7.30   14.80
  -5  13   5   13.20    9.10
  -5  13   5   16.20   22.20
   3 -13  -5   73.89   26.50
   3 -13  -5   60.79   14.20
   3 -13  -5   48.50   16.00
  -3  13   5   80.59   13.60
  -3  13   5   57.29   25.00
  -3  13   5   75.59   18.00
   1 -13  -5   11.70   12.30
   1 -13  -5   11.20   16.30
   1 -13  -5   40.00   17.10
  -1  13   5    3.90   17.70
  -1  13   5   -0.90   14.30
  -1 -13  -5  109.39   19.10
   1  13   5  130.09   23.80
   1  13   5  104.29   20.10
  -3 -13  -5  -18.50   16.60
  -3 -13  -5   19.80   20.00
   3  13   5    9.40   22.40
   3  13   5  -27.30   20.90
  -5 -13  -5   30.00   23.70
  -5 -13  -5  -16.00   20.50
   5  13   5   21.10   27.10
   5  13   5  -22.70   23.40
  -7 -13  -5  -47.80   28.00
  -7 -13  -5  -36.50   23.20
   7  13   5    6.50   33.60
   7  13   5   23.10   28.70
  14 -14  -5   86.69   33.70
  14 -14  -5   73.99   26.70
 -14  14   5  117.79   48.00
 -14  14   5   61.39   36.70
  12 -14  -5   52.59   21.70
  12 -14  -5   69.79   23.40
 -12  14   5   26.60   32.10
 -12  14   5  -23.30   34.40
  10 -14  -5   -3.80   20.90
  10 -14  -5   25.50   20.20
  10 -14  -5   33.40   17.10
 -10  14   5  -36.20   26.60
 -10  14   5   16.10   34.00
   8 -14  -5  245.88   20.00
   8 -14  -5  215.98   25.90
   8 -14  -5  187.68   24.20
  -8  14   5  207.28   31.50
  -8  14   5  224.88   21.30
  -8  14   5  264.67   37.60
   6 -14  -5  -22.50   15.60
   6 -14  -5   19.40   17.40
  -6  14   5   -8.60   16.10
  -6  14   5    4.70   24.10
   4 -14  -5  280.47   29.30
   4 -14  -5  223.08   23.80
   4 -14  -5  236.98   23.10
  -4  14   5  203.58   31.80
  -4  14   5  250.37   22.70
  -4  14   5  272.47   25.70
   2 -14  -5    3.90   13.60
   2 -14  -5   25.40   16.50
   2 -14  -5    6.40   17.00
  -2  14   5   15.90   24.40
  -2  14   5  -20.70   15.00
  -2  14   5  -23.00   30.30
   0 -14  -5  252.07   27.20
   0 -14  -5  253.57   25.00
   0  14   5  208.38   24.60
   0  14   5  369.96   35.60
   0  14   5  378.26   38.70
  -2 -14  -5    1.00   20.00
  -2 -14  -5  -32.70   17.80
   2  14   5   -1.40   24.40
   2  14   5   25.60   21.60
  -4 -14  -5   56.69   22.20
  -4 -14  -5   82.09   25.80
   4  14   5   75.69   26.50
   4  14   5   91.29   28.30
  -6 -14  -5   82.39   26.90
  -6 -14  -5   36.80   29.90
   6  14   5   86.49   33.00
   6  14   5   23.80   28.30
  13 -15  -5  154.58   41.30
  13 -15  -5  119.89   27.10
 -13  15   5   84.49   46.40
 -13  15   5  132.59   41.50
  11 -15  -5   10.40   21.50
  11 -15  -5    0.20   22.80
 -11  15   5  -25.70   31.40
 -11  15   5   32.30   38.50
   9 -15  -5  151.28   21.70
   9 -15  -5  249.28   28.00
   9 -15  -5  194.88   26.70
  -9  15   5  231.08   35.50
  -9  15   5  300.67   45.90
   7 -15  -5   31.70   19.30
   7 -15  -5   17.10   18.70
  -7  15   5   -9.70   28.40
  -7  15   5  -28.20   32.00
  -7  15   5   10.80   18.30
   5 -15  -5   62.99   20.20
   5 -15  -5   88.69   19.80
  -5  15   5   28.00   20.60
  -5  15   5   39.30   27.00
   3 -15  -5  171.58   21.20
   3 -15  -5  161.28   23.70
   3 -15  -5  173.18   21.90
  -3  15   5  172.18   19.70
  -3  15   5  158.98   23.70
  -3  15   5  259.67   34.20
   1 -15  -5    0.00   19.40
   1 -15  -5   11.00   18.50
  -1  15   5  -12.50   18.60
  -1  15   5  -25.30   20.90
  -1  15   5    9.80   30.90
  -1 -15  -5  366.26   36.60
  -1 -15  -5  260.57   29.30
   1  15   5  266.27   30.00
   1  15   5  372.26   34.80
  -3 -15  -5   68.59   26.60
  -3 -15  -5   48.60   22.30
   3  15   5  111.39   28.10
   3  15   5  113.49   27.00
  -5 -15  -5  184.28   33.00
  -5 -15  -5  292.37   33.30
   5  15   5  262.67   36.60
   5  15   5  183.78   36.50
 -12  16   5   40.50   41.30
 -12  16   5   67.49   49.00
  10 -16  -5  192.58   31.80
 -10  16   5  241.98   41.40
 -10  16   5  207.48   45.70
   8 -16  -5    9.70   21.90
   8 -16  -5   -7.40   23.70
  -8  16   5  -10.50   36.30
  -8  16   5   -7.40   32.80
   6 -16  -5  147.39   25.40
   6 -16  -5  146.39   24.80
  -6  16   5  124.69   41.60
  -6  16   5  183.38   35.90
  -6  16   5  173.78   25.30
   4 -16  -5   48.60   21.70
   4 -16  -5   21.30   20.60
  -4  16   5   29.20   22.20
  -4  16   5   40.80   30.10
   2 -16  -5  246.78   30.40
   2 -16  -5  195.28   26.40
   2 -16  -5  220.58   26.10
  -2  16   5  198.58   38.60
  -2  16   5  233.78   29.80
  -2  16   5  241.78   25.50
   0 -16  -5   26.30   23.30
   0 -16  -5  -13.30   20.00
   0  16   5    4.70   32.20
   0  16   5   -7.10   25.10
   0  16   5  -12.40   23.10
  -2 -16  -5  -26.00   25.00
  -2 -16  -5   31.50   21.50
   2  16   5    4.00   27.00
   2  16   5    4.20   26.50
  -4 -16  -5   35.80   29.30
  -4 -16  -5   18.70   27.20
   4  16   5    3.60   32.10
   4  16   5   11.20   31.10
 -11  17   5   65.79   45.30
 -11  17   5  151.58   64.09
   9 -17  -5  -45.30   27.20
  -9  17   5   28.40   44.40
  -9  17   5   57.59   38.30
   7 -17  -5   13.30   24.80
   7 -17  -5   37.80   24.50
  -7  17   5   23.10   34.90
  -7  17   5    8.20   42.50
   5 -17  -5   40.50   22.60
   5 -17  -5  -28.70   22.70
  -5  17   5  -40.30   24.30
  -5  17   5   26.70   41.60
  -5  17   5   22.50   34.30
   3 -17  -5   39.40   22.80
   3 -17  -5    4.50   21.70
  -3  17   5   11.00   24.80
  -3  17   5   43.20   35.00
   1 -17  -5    8.60   21.40
   1 -17  -5   -8.80   23.20
  -1  17   5  -10.00   26.60
  -1  17   5   54.19   38.30
  -1 -17  -5   11.50   26.60
  -1 -17  -5   -5.10   25.00
   1  17   5    1.60   28.50
   1  17   5   13.20   28.70
   1  17   5  -10.00   38.30
  -3 -17  -5   -8.20   31.00
   3  17   5   20.30   33.80
   8 -18  -5  -19.80   29.30
  -8  18   5  -18.40   50.19
  -8  18   5   27.30   44.50
   6 -18  -5  181.48   29.90
   6 -18  -5  182.28   31.70
  -6  18   5  154.38   44.70
  -6  18   5  259.27   53.89
   4 -18  -5   16.40   26.80
  -4  18   5   31.90   38.10
  -4  18   5   -9.60   28.00
  -4  18   5   53.09   46.90
   2 -18  -5  216.88   32.50
   2 -18  -5  187.88   30.70
  -2  18   5  177.38   33.70
  -2  18   5  244.68   47.20
   0 -18  -5   42.80   43.80
   0 -18  -5  -10.70   28.60
   0  18   5  -31.40   31.50
   0  18   5   28.30   44.60
  -5  19   5  -34.80   49.50
  -5  19   5  -16.00   55.89
   3 -19  -5   49.60   47.90
  -3  19   5   52.29   58.29
  -3  19   5   34.40   34.20
   9  17  -6    9.60   38.90
  -9 -17   6   22.50   28.40
   7  17  -6   15.80   35.40
   7  17  -6    4.60   33.30
  -7 -17   6  -61.09   30.00
  -7 -17   6   17.40   25.70
   5  17  -6   -3.40   32.00
   5  17  -6   92.19   36.40
  -5 -17   6   59.39   27.30
   3  17  -6   -3.20   30.50
   3  17  -6   35.90   31.70
  -3 -17   6   63.79   29.90
  -3 -17   6  -11.10   23.60
   1  17  -6   52.49   40.90
  -1 -17   6   93.69   32.60
  -1 -17   6   34.10   40.50
  10  16  -6  281.87   41.70
  10  16  -6  249.97   53.89
  10  16  -6  222.98   42.50
 -10 -16   6  219.78   34.30
 -10 -16   6  214.78   30.90
   8  16  -6   27.40   33.00
   8  16  -6   40.00   28.60
  -8 -16   6    3.20   25.00
  -8 -16   6   12.40   24.00
   6  16  -6  278.67   37.80
   6  16  -6  243.48   34.10
  -6 -16   6  236.38   30.80
  -6 -16   6  307.97   29.40
   4  16  -6   83.59   28.60
   4  16  -6   59.39   28.10
  -4 -16   6    8.20   22.20
  -4 -16   6   65.49   23.90
   2  16  -6  162.78   50.79
   2  16  -6  122.59   31.70
   2  16  -6  118.29   31.70
  -2 -16   6  117.39   27.70
  -2 -16   6   98.99   23.60
   0  16  -6   63.69   39.00
   0  16  -6   77.89   32.20
   0  16  -6  107.09   32.60
   0 -16   6   96.69   28.10
   0 -16   6   55.99   23.30
  -2  16  -6  111.19   43.50
   2 -16   6   38.50   31.40
  11  15  -6   89.89   33.90
  11  15  -6   23.80   30.80
  11  15  -6   86.19   30.80
 -11 -15   6   95.69   25.30
 -11 -15   6   67.19   27.10
   9  15  -6   78.29   30.80
   9  15  -6  102.59   28.40
  -9 -15   6   86.79   24.60
  -9 -15   6  115.69   26.50
   7  15  -6  204.68   30.10
   7  15  -6  257.37   35.50
  -7 -15   6  222.68   28.30
  -7 -15   6  274.47   26.90
   5  15  -6  103.89   28.80
   5  15  -6   99.89   27.80
  -5 -15   6  135.89   25.60
  -5 -15   6  109.89   20.90
   3  15  -6  470.65   46.90
   3  15  -6  340.97   38.20
  -3 -15   6  388.26   35.80
  -3 -15   6  363.06   32.70
   1  15  -6   51.69   26.40
   1  15  -6   56.49   27.50
   1  15  -6   72.89   32.50
  -1 -15   6   97.09   24.30
  -1 -15   6   46.90   20.30
  -1  15  -6  276.07   35.30
  -1  15  -6  223.78   34.30
  -1  15  -6  214.58   41.60
   1 -15   6  190.08   29.60
   1 -15   6  242.58   28.10
  -3  15  -6   87.99   45.80
  -3  15  -6   92.69   41.60
   3 -15   6   29.00   28.20
   3 -15   6  104.89   30.10
  14  14  -6   26.50   37.90
 -14 -14   6   54.69   33.40
  12  14  -6   17.70   27.90
  12  14  -6  -38.90   28.40
  12  14  -6  -50.79   29.00
 -12 -14   6   -0.30   23.90
 -12 -14   6   20.60   24.90
  10  14  -6   -4.30   24.00
  10  14  -6  -37.80   27.20
 -10 -14   6   -4.50   21.60
 -10 -14   6  -11.20   21.40
   8  14  -6   15.80   25.00
   8  14  -6   19.30   24.50
  -8 -14   6  -12.60   19.80
  -8 -14   6    0.00   18.70
   6  14  -6    9.30   23.20
   6  14  -6   12.30   24.50
  -6 -14   6   -6.50   18.50
  -6 -14   6    8.50   17.10
   4  14  -6  137.49   26.80
   4  14  -6  111.29   27.60
   4  14  -6   86.29   26.60
  -4 -14   6  127.29   19.00
  -4 -14   6  116.69   21.40
  -4 -14   6  122.59   22.20
   2  14  -6   23.60   24.40
   2  14  -6   48.50   23.50
  -2 -14   6  -13.00   18.50
  -2 -14   6   13.60   17.40
   0  14  -6   50.59   29.20
   0  14  -6   41.10   26.20
   0  14  -6   17.40   23.70
   0 -14   6   -9.50   16.50
   0 -14   6   -7.70   19.60
  -2  14  -6   93.69   35.90
  -2  14  -6   82.09   28.00
   2 -14   6   58.79   23.90
   2 -14   6  102.39   21.80
  -4  14  -6   59.29   33.10
  -4  14  -6   91.99   39.40
   4 -14   6    7.80   27.00
   4 -14   6   54.79   25.10
  15  13  -6  127.19   39.30
 -15 -13   6   36.60   31.20
  13  13  -6   90.79   31.70
  13  13  -6   70.49   30.10
  13  13  -6   92.79   29.00
 -13 -13   6   21.20   24.30
 -13 -13   6  111.49   25.90
  11  13  -6  201.78   32.50
  11  13  -6  194.78   31.00
 -11 -13   6  232.68   25.60
 -11 -13   6  243.38   28.40
   9  13  -6   68.89   27.70
   9  13  -6  113.19   25.10
  -9 -13   6   69.79   19.30
  -9 -13   6   32.50   20.40
   7  13  -6  123.69   27.50
   7  13  -6   80.79   23.70
  -7 -13   6   92.09   21.10
   5  13  -6   58.79   22.20
   5  13  -6   15.30   20.10
   5  13  -6   14.60   22.30
  -5 -13   6   28.80   18.90
  -5 -13   6   36.00   14.60
  -5 -13   6   30.80   16.80
   3  13  -6   26.40   22.70
   3  13  -6   -2.30   21.00
   3  13  -6    1.40   21.90
  -3 -13   6   38.30   17.70
  -3 -13   6   24.90   16.00
  -3 -13   6   14.50   13.50
   1  13  -6   79.59   24.20
   1  13  -6   84.19   24.50
  -1 -13   6   66.29   17.00
  -1 -13   6   78.39   19.60
  -1  13  -6    0.10   28.80
  -1  13  -6   23.10   23.80
   1 -13   6   12.80   18.20
   1 -13   6   -4.40   16.60
  -3  13  -6   78.69   35.40
  -3  13  -6   50.09   27.30
   3 -13   6   11.50   22.50
   3 -13   6   86.99   21.90
  -5  13  -6    7.40   37.00
  -5  13  -6  116.69   35.90
   5 -13   6   23.80   23.80
   5 -13   6   26.50   26.20
  14  12  -6   90.19   31.10
  14  12  -6   70.19   30.40
  14  12  -6  -20.50   26.80
 -14 -12   6   31.70   23.30
 -14 -12   6   40.90   24.40
  12  12  -6    8.80   24.60
  12  12  -6   35.20   25.30
  12  12  -6  -12.70   25.90
 -12 -12   6   12.40   20.40
 -12 -12   6   20.50   19.70
  10  12  -6   40.30   21.80
  10  12  -6   20.60   23.30
 -10 -12   6   14.20   18.40
 -10 -12   6   31.50   17.30
   8  12  -6  246.78   27.10
   8  12  -6  241.08   28.70
  -8 -12   6  223.58   23.80
   6  12  -6   -7.90   18.70
   6  12  -6   12.20   20.40
   6  12  -6  -18.50   18.30
  -6 -12   6   -5.50   12.90
  -6 -12   6    1.60   14.20
   4  12  -6  279.27   29.20
   4  12  -6  236.48   28.10
   4  12  -6  216.18   26.30
  -4 -12   6  274.67   25.50
  -4 -12   6  273.47   24.60
  -4 -12   6  278.07   23.80
   2  12  -6   57.29   23.30
   2  12  -6   53.59   21.30
   2  12  -6   78.19   21.70
  -2 -12   6   51.49   17.70
  -2 -12   6   43.50   12.20
  -2 -12   6   57.29   17.40
   0  12  -6   88.09   23.40
   0  12  -6   50.49   33.50
   0 -12   6  109.39   19.00
   0 -12   6   79.79   18.00
  -2  12  -6   81.69   30.00
  -2  12  -6   40.50   24.80
   2 -12   6   74.79   18.50
   2 -12   6   56.39   18.90
  -4  12  -6   -6.90   33.60
  -4  12  -6   -5.20   24.90
   4 -12   6   -1.20   18.20
   4 -12   6   33.50   21.40
  -6  12  -6  146.39   43.80
  -6  12  -6   95.99   33.90
   6 -12   6   17.90   26.60
   6 -12   6   53.89   23.90
  15  11  -6   45.30   31.40
  15  11  -6   56.09   28.20
  15  11  -6   30.80   28.60
 -15 -11   6   31.60   22.60
 -15 -11   6   79.59   25.40
  13  11  -6  178.28   30.20
  13  11  -6  287.87   32.20
  13  11  -6  248.08   31.70
 -13 -11   6  216.58   25.70
 -13 -11   6  243.88   28.10
  11  11  -6  221.28   29.30
  11  11  -6  210.58   27.00
 -11 -11   6  174.88   22.00
 -11 -11   6  198.58   23.50
   9  11  -6  264.47   30.60
   9  11  -6  303.27   29.40
  -9 -11   6  300.67   28.90
   7  11  -6  476.45   49.70
   7  11  -6  390.36   37.10
  -7 -11   6  385.86   28.10
  -7 -11   6  435.06   41.90
   5  11  -6  276.57   26.50
   5  11  -6  237.18   26.70
   5  11  -6  258.47   26.00
  -5 -11   6  245.18   23.50
  -5 -11   6  264.47   23.70
  -5 -11   6  243.48   22.60
   3  11  -6  399.36   35.30
   3  11  -6  403.76   34.50
   3  11  -6  383.86   32.30
  -3 -11   6  389.66   24.30
  -3 -11   6  402.76   27.40
  -3 -11   6  360.06   26.80
   1  11  -6  456.35   38.80
   1  11  -6  452.75   36.20
  -1 -11   6  449.16   24.50
  -1 -11   6  485.25   29.50
  -1  11  -6  507.75   39.70
  -1  11  -6  482.65   43.50
   1 -11   6  537.45   32.20
   1 -11   6  593.24   35.50
  -3  11  -6  317.87   34.20
  -3  11  -6  268.17   37.60
   3 -11   6  290.37   26.60
   3 -11   6  263.57   25.70
  -5  11  -6  239.98   33.90
  -5  11  -6  274.87   42.30
   5 -11   6  212.18   26.70
   5 -11   6  234.68   27.20
  -7  11  -6  245.58   52.79
  -7  11  -6  240.38   42.40
   7 -11   6  198.68   33.80
  16  10  -6   75.89   29.90
  16  10  -6  138.49   33.60
 -16 -10   6   77.59   24.70
  14  10  -6  -23.90   22.10
  14  10  -6    4.60   24.50
  14  10  -6    8.90   24.80
  14  10  -6  -44.00   32.60
 -14 -10   6  -22.10   19.80
 -14 -10   6    4.40   19.10
  12  10  -6    5.50   19.80
  12  10  -6   12.70   21.90
 -12 -10   6   -6.40   16.30
 -12 -10   6   -2.20   17.10
  10  10  -6  204.98   30.70
  10  10  -6  237.68   33.30
 -10 -10   6  282.87   26.70
   8  10  -6   -0.40   17.00
   8  10  -6  -30.90   17.70
  -8 -10   6    2.30   13.50
  -8 -10   6   -6.90   12.30
   6  10  -6  281.37   27.90
   6  10  -6  284.87   27.90
   6  10  -6  239.58   15.60
   6  10  -6  251.07   25.90
  -6 -10   6  227.98   22.10
  -6 -10   6  254.17   21.40
  -6 -10   6  283.77   24.50
   4  10  -6   10.30   16.20
   4  10  -6    7.00   17.80
   4  10  -6    0.80   16.80
  -4 -10   6    4.70   10.60
  -4 -10   6   -6.20   11.20
  -4 -10   6  -12.70    9.50
   2  10  -6  129.39   21.00
   2  10  -6  184.38   23.50
   2  10  -6  155.68   24.00
  -2 -10   6  140.69   17.80
  -2 -10   6  209.88   18.40
  -2 -10   6  145.19   13.70
   0  10  -6  196.38   28.20
   0  10  -6  158.78   26.20
   0 -10   6  164.88   14.60
   0 -10   6  149.88   17.80
   0 -10   6  156.58   18.70
  -2  10  -6  114.39   23.80
  -2  10  -6   97.89   27.50
   2 -10   6   79.29   17.20
  -4  10  -6  108.59   26.80
  -4  10  -6   96.69   32.40
   4 -10   6   73.39   19.10
   4 -10   6  106.29   20.30
  -6  10  -6   22.00   26.70
  -6  10  -6   -5.10   34.60
   6 -10   6  -18.90   22.50
   6 -10   6   -7.70   19.60
  -8  10  -6  250.07   58.59
  17   9  -6   70.29   33.00
  17   9  -6   17.50   29.70
 -17  -9   6   77.69   27.80
  15   9  -6   79.09   28.60
  15   9  -6  164.88   29.90
  15   9  -6  157.58   29.20
  15   9  -6   53.49   24.60
 -15  -9   6   80.79   22.30
 -15  -9   6  107.19   22.90
  13   9  -6  154.38   25.20
  13   9  -6  146.89   22.40
  13   9  -6  180.28   27.30
  13   9  -6  142.29   25.10
 -13  -9   6  159.18   22.20
 -13  -9   6  204.58   24.50
 -13  -9   6  155.18   24.50
  11   9  -6  155.18   40.50
 -11  -9   6  158.98   19.10
 -11  -9   6  192.18   21.60
 -11  -9   6  143.09   22.50
   9   9  -6  244.08   25.00
   9   9  -6  292.07   28.70
  -9  -9   6  269.47   24.40
  -9  -9   6  291.87   25.20
  -9  -9   6  294.27   24.70
   7   9  -6   21.90   15.60
   7   9  -6    9.40   16.60
   7   9  -6    6.20    4.90
  -7  -9   6   12.20   12.20
  -7  -9   6   10.20   10.80
  -7  -9   6   16.40   10.90
   5   9  -6   24.70   15.20
   5   9  -6   31.20   15.90
   5   9  -6   35.30   10.40
   5   9  -6   30.40   16.80
  -5  -9   6   20.50   10.10
  -5  -9   6   18.70   11.60
  -5  -9   6   23.90    9.30
  -5  -9   6   32.90    9.30
   3   9  -6   14.10   15.50
   3   9  -6   25.90   17.20
   3   9  -6   25.60   14.80
  -3  -9   6   35.10   11.70
  -3  -9   6   11.90   10.20
  -3  -9   6   13.10    9.40
   1   9  -6   52.59   17.60
   1   9  -6   39.90   20.60
  -1  -9   6   70.19   14.50
  -1  -9   6   60.49   12.90
  -1  -9   6   56.29    9.40
  -1   9  -6   23.00   17.80
  -1   9  -6   32.10   22.80
   1  -9   6   26.00   12.80
   1  -9   6   42.40   13.90
  -3   9  -6   24.40   21.70
  -3   9  -6   41.50   26.50
   3  -9   6    6.30   15.20
   3  -9   6   26.70   14.40
  -5   9  -6   36.10   31.60
  -5   9  -6   23.70   24.80
   5  -9   6  -10.50   17.10
   5  -9   6   22.20   17.10
  -7   9  -6   54.49   29.60
  -7   9  -6   -6.20   33.80
   7  -9   6  -46.80   22.30
   7  -9   6   -4.70   18.70
  16   8  -6   31.80   28.80
  16   8  -6    5.50   23.60
  16   8  -6    1.40   21.80
 -16  -8   6   -0.70   26.40
 -16  -8   6    0.40   19.20
  14   8  -6  -13.10   21.50
  14   8  -6    2.40   19.60
  14   8  -6    9.80   22.60
  14   8  -6  -25.30   17.10
 -14  -8   6  -15.30   19.00
 -14  -8   6   21.60   17.00
 -14  -8   6   -5.80   16.40
 -14  -8   6    1.80   18.00
  12   8  -6   10.30   28.80
  12   8  -6    9.40   20.30
 -12  -8   6  -18.60   11.40
 -12  -8   6   18.90   15.10
 -12  -8   6  -22.20   14.20
 -12  -8   6    3.00   17.60
  10   8  -6   22.40   18.40
  10   8  -6   -8.90   13.80
 -10  -8   6    5.70   11.20
 -10  -8   6    3.30   13.10
 -10  -8   6    6.90   12.30
   8   8  -6   44.10   15.00
   8   8  -6   43.60   18.10
  -8  -8   6   53.49   12.60
  -8  -8   6   61.19   13.30
  -8  -8   6   49.80   12.80
   6   8  -6    5.60   12.40
   6   8  -6  -10.20   13.50
   6   8  -6   26.20   13.90
   6   8  -6    0.60   15.00
  -6  -8   6    6.00    8.90
  -6  -8   6   -4.90    8.50
  -6  -8   6   11.90    9.90
  -6  -8   6   10.10   10.20
   4   8  -6   42.90   14.10
   4   8  -6   72.09   16.50
   4   8  -6   57.19   17.70
  -4  -8   6   56.39    5.60
  -4  -8   6   42.20    9.90
  -4  -8   6   52.89   10.10
  -4  -8   6   48.70   11.60
   2   8  -6   -2.90   13.90
   2   8  -6    4.60   16.00
  -2  -8   6   -4.80    7.10
  -2  -8   6   -2.90    8.80
  -2  -8   6   15.50   10.50
   0   8  -6   32.40   15.60
   0   8  -6   17.00   18.00
   0  -8   6   12.80   10.50
   0  -8   6    7.60   11.80
  -2   8  -6   67.19   20.30
  -2   8  -6   95.69   25.00
   2  -8   6   89.89   15.60
   2  -8   6   50.79   14.30
  -4   8  -6   -5.80   24.50
  -4   8  -6   11.50   20.50
   4  -8   6   -5.40   14.50
   4  -8   6   -3.00   14.80
  -6   8  -6  116.19   29.60
  -6   8  -6   89.99   32.90
   6  -8   6   68.19   19.30
   6  -8   6   71.89   19.90
  -8   8  -6   60.49   39.30
  -8   8  -6   81.49   36.10
   8  -8   6    8.00   20.30
  17   7  -6    7.50   28.40
  17   7  -6    8.10   25.00
 -17  -7   6   25.60   23.20
  15   7  -6  560.04   39.20
  15   7  -6  530.35   43.60
  15   7  -6  569.24   41.40
  15   7  -6  544.05   59.39
 -15  -7   6  569.44   36.80
 -15  -7   6  555.44   43.40
 -15  -7   6  573.54   39.80
  13   7  -6   57.99   21.00
  13   7  -6   60.09   19.40
  13   7  -6   36.00   16.80
 -13  -7   6   68.19   15.10
 -13  -7   6   53.89   16.30
 -13  -7   6   50.69   15.60
 -13  -7   6   35.00   20.60
  11   7  -6  668.83   38.40
  11   7  -6  626.04   38.50
 -11  -7   6  652.23   34.30
 -11  -7   6  651.03   30.40
 -11  -7   6  631.34   36.60
 -11  -7   6  657.93   33.60
   9   7  -6  112.89   19.60
   9   7  -6  138.19   18.90
  -9  -7   6  123.29   15.00
  -9  -7   6  112.89   11.20
  -9  -7   6  160.78   17.10
  -9  -7   6  108.99    9.10
  -9  -7   6   92.69   14.00
   7   7  -6  468.25   30.60
   7   7  -6  440.96   29.40
   7   7  -6  475.55   20.60
  -7  -7   6  442.66   19.00
  -7  -7   6  467.15   26.30
  -7  -7   6  486.95   19.50
  -7  -7   6  428.06   25.30
  -7  -7   6  425.96   25.30
   5   7  -6 1156.58   50.29
   5   7  -6 1065.09   50.29
   5   7  -6 1095.69   48.10
   5   7  -6 1114.89   45.10
   5   7  -6 1096.19   50.49
  -5  -7   6 1115.49   45.20
  -5  -7   6 1131.79   47.30
  -5  -7   6 1125.19   41.90
  -5  -7   6 1145.19   44.70
  -5  -7   6 1155.38   41.10
  -5  -7   6 1123.29   44.60
   3   7  -6  151.98   20.60
   3   7  -6  106.59   17.20
   3   7  -6  156.08   18.10
  -3  -7   6  118.49   12.60
  -3  -7   6  126.69   10.60
  -3  -7   6  131.69   11.70
  -3  -7   6  144.09   14.30
  -3  -7   6  121.79   14.30
   1   7  -6 1340.97   62.49
   1   7  -6 1493.85   62.79
  -1  -7   6 1453.05   58.59
  -1  -7   6 1473.25   53.89
  -1  -7   6 1453.65   50.69
  -1  -7   6 1495.15   57.09
  -1  -7   6 1469.65   56.89
  -1   7  -6  117.29   22.40
  -1   7  -6  126.49   20.10
   1  -7   6  114.69   15.60
   1  -7   6  119.49    8.10
   1  -7   6  115.69   15.20
   1  -7   6   99.19   12.60
  -3   7  -6 1156.18   60.59
  -3   7  -6 1264.87   59.69
   3  -7   6 1211.08   52.59
   3  -7   6 1235.68   49.50
   3  -7   6 1274.17   53.29
  -5   7  -6  315.87   32.70
  -5   7  -6  314.97   38.80
   5  -7   6  261.87   23.50
   5  -7   6  263.17   23.10
   5  -7   6  267.17   24.00
  -7   7  -6  502.15   47.50
  -7   7  -6  456.05   51.99
   7  -7   6  420.36   36.40
   7  -7   6  451.65   38.30
  -9   7  -6  266.37   50.49
  -9   7  -6  202.88   44.10
   9  -7   6  209.38   29.70
  18   6  -6   88.29   31.50
 -18  -6   6   80.29   25.40
 -18  -6   6   95.29   31.50
  16   6  -6  -10.00   20.50
  16   6  -6  -14.00   20.10
 -16  -6   6  -25.70   20.30
 -16  -6   6  -16.50   17.80
  14   6  -6  202.98   25.30
  14   6  -6  151.08   25.40
  14   6  -6  140.49   20.10
  14   6  -6  170.48   23.70
 -14  -6   6  204.28   21.40
 -14  -6   6  177.18   24.40
 -14  -6   6  188.98   21.40
 -14  -6   6  216.68   20.30
  12   6  -6  124.99   20.40
  12   6  -6  217.98   24.80
 -12  -6   6  207.18   22.40
 -12  -6   6  164.98   18.30
 -12  -6   6  217.88   23.10
 -12  -6   6  196.98   18.20
  10   6  -6   22.40   13.40
  10   6  -6   43.00   17.20
 -10  -6   6   37.60   11.40
 -10  -6   6    9.20   13.20
 -10  -6   6   17.00   10.30
   8   6  -6  868.71   32.50
   8   6  -6  787.42   41.50
   8   6  -6  888.81   41.40
  -8  -6   6  897.61   38.30
  -8  -6   6  735.13   31.80
  -8  -6   6  867.11   31.00
  -8  -6   6  898.41   34.90
  -8  -6   6  879.31   39.50
   6   6  -6   -3.60    7.20
   6   6  -6   10.60   13.00
   6   6  -6    5.90   11.60
   6   6  -6    0.40   13.40
  -6  -6   6  -10.40    7.70
  -6  -6   6    1.20    7.40
  -6  -6   6    8.50    9.40
  -6  -6   6    8.90    7.30
  -6  -6   6   -9.70    6.80
   4   6  -6 1112.89   49.10
   4   6  -6 1098.99   50.19
   4   6  -6 1072.39   50.09
  -4  -6   6 1100.29   46.00
  -4  -6   6 1132.39   44.00
  -4  -6   6 1132.39   46.00
  -4  -6   6 1126.79   44.00
  -4  -6   6 1151.48   42.70
   2   6  -6  104.19   19.80
   2   6  -6  122.29   18.10
  -2  -6   6   88.39   11.50
  -2  -6   6   97.89   11.40
  -2  -6   6   91.59   10.00
  -2  -6   6   96.09   11.20
  -2  -6   6  108.69   13.50
   0   6  -6  216.68   25.00
   0   6  -6  202.08   21.50
   0  -6   6  184.98   17.00
   0  -6   6  195.38   10.50
   0  -6   6  184.18   19.30
   0  -6   6  186.38   17.70
  -2   6  -6  249.48   28.20
  -2   6  -6  256.57   26.20
   2  -6   6  222.18   19.30
   2  -6   6  212.78   21.20
   2  -6   6  260.57   20.90
  -4   6  -6   94.09   21.60
   4  -6   6   71.29   13.20
   4  -6   6   80.59   15.40
   4  -6   6   87.29   15.60
  -6   6  -6  352.46   35.60
  -6   6  -6  383.46   41.80
   6  -6   6  341.37   30.90
   6  -6   6  287.77   28.90
  -8   6  -6    8.70   31.10
  -8   6  -6   27.40   33.80
   8  -6   6   -4.50   19.60
   8  -6   6  -25.30   20.50
   8  -6   6    0.30   21.90
 -10   6  -6   84.19   46.00
  19   5  -6  -28.40   33.30
  17   5  -6   16.40   23.90
  17   5  -6    4.20   21.90
 -17  -5   6   21.50   24.90
 -17  -5   6   17.10   32.10
 -17  -5   6   33.90   19.00
  15   5  -6    0.50   19.00
  15   5  -6   17.50   18.70
  15   5  -6   14.00   17.40
 -15  -5   6   12.70   14.50
 -15  -5   6   -2.40   15.50
 -15  -5   6   -6.20   19.60
 -15  -5   6    8.30   20.10
  13   5  -6  -17.40   13.60
  13   5  -6   13.20   18.20
  13   5  -6    8.10   15.20
  13   5  -6   18.60   15.10
 -13  -5   6   -6.60   11.20
 -13  -5   6   -2.00   15.80
 -13  -5   6    3.10   17.50
  11   5  -6  298.37   26.20
  11   5  -6  327.87   28.40
 -11  -5   6  346.27   22.20
 -11  -5   6  325.17   27.50
 -11  -5   6  307.37   24.10
   9   5  -6   21.60    9.40
   9   5  -6    9.10   14.50
   9   5  -6   22.50    5.10
   9   5  -6   16.40   12.40
  -9  -5   6   31.00   12.90
  -9  -5   6   17.00    9.70
  -9  -5   6   23.20    7.20
  -9  -5   6    3.60   10.60
   7   5  -6  319.97   19.40
   7   5  -6  298.67   23.60
   7   5  -6  304.57   25.30
   7   5  -6  302.67   17.80
  -7  -5   6  301.67   19.60
  -7  -5   6  303.27   22.50
  -7  -5   6  316.87   12.60
  -7  -5   6  294.17   21.00
   5   5  -6   24.40    8.80
   5   5  -6   21.80   13.00
   5   5  -6    8.60   10.80
   5   5  -6   14.80   13.70
  -5  -5   6   17.60    8.40
  -5  -5   6   25.60    9.80
  -5  -5   6   21.80    7.00
  -5  -5   6   31.70    9.70
  -5  -5   6   24.90    8.60
   3   5  -6  278.97   22.60
   3   5  -6  318.07   27.00
  -3  -5   6  320.17   20.80
  -3  -5   6  285.17   18.90
  -3  -5   6  305.67   18.50
  -3  -5   6  326.17   18.00
  -3  -5   6  318.67   19.30
   1   5  -6   28.20   13.80
   1   5  -6   34.80   16.60
  -1  -5   6   12.60    9.40
  -1  -5   6   23.60    8.80
  -1  -5   6   23.00   10.50
  -1  -5   6   25.70    7.10
  -1   5  -6  151.88   19.40
  -1   5  -6  146.39   21.60
   1  -5   6  109.09    8.50
   1  -5   6  136.69   14.20
   1  -5   6  138.19   11.20
   1  -5   6  120.79   13.20
   1  -5   6  146.79   15.70
  -3   5  -6    2.40   15.90
  -3   5  -6    9.00   18.70
  -3   5  -6   19.90    5.60
   3  -5   6   15.40   10.40
   3  -5   6   25.30   11.80
   3  -5   6    1.40    7.00
   3  -5   6   25.70   11.70
  -5   5  -6  146.19   25.00
  -5   5  -6  130.89   13.50
  -5   5  -6  103.09   26.80
   5  -5   6  129.39   18.00
   5  -5   6  135.69   22.70
   5  -5   6  133.89   16.00
  -7   5  -6   48.60   26.80
  -7   5  -6  -19.90   29.70
   7  -5   6    0.40   17.20
   7  -5   6   10.10   16.80
  -9   5  -6   94.99   38.00
  -9   5  -6   71.59   37.50
   9  -5   6   33.70   21.60
  18   4  -6  -33.50   24.60
  18   4  -6   20.00   25.80
 -18  -4   6   47.80   32.20
 -18  -4   6  -33.60   26.50
 -18  -4   6    8.40   21.50
  16   4  -6  100.69   21.60
  16   4  -6   72.69   22.00
  16   4  -6   69.69   23.90
 -16  -4   6  117.39   26.30
 -16  -4   6   99.69   25.30
 -16  -4   6  105.49   20.50
  14   4  -6   -7.20   16.00
  14   4  -6    8.00   17.00
  14   4  -6  -16.80   14.00
  14   4  -6  -11.60   14.70
 -14  -4   6    3.40   12.40
 -14  -4   6  -26.80   31.10
 -14  -4   6    8.50   18.00
  12   4  -6  200.48   19.80
  12   4  -6  218.08   23.40
  12   4  -6  214.28   20.40
 -12  -4   6  244.88   26.30
 -12  -4   6  228.68   21.20
 -12  -4   6  205.88   19.30
  10   4  -6  174.18   11.40
  10   4  -6  211.28   21.20
  10   4  -6  183.68   17.60
 -10  -4   6  161.88   16.40
 -10  -4   6  193.68   18.30
 -10  -4   6  187.08   19.60
   8   4  -6  603.94   26.40
   8   4  -6  654.93   32.80
   8   4  -6  649.54   34.70
   8   4  -6  675.73   28.10
  -8  -4   6  702.53   33.40
  -8  -4   6  682.33   32.60
  -8  -4   6  647.84   26.20
  -8  -4   6  599.64   29.70
   6   4  -6   70.79   11.90
   6   4  -6   74.19    9.90
   6   4  -6   68.79    7.80
   6   4  -6   88.29   14.70
  -6  -4   6   57.19   10.60
  -6  -4   6   66.09    5.30
  -6  -4   6   85.59   12.90
  -6  -4   6   77.69   11.20
  -6  -4   6   72.89    8.20
   4   4  -6  191.48   22.10
   4   4  -6  181.48   18.20
   4   4  -6  202.78   19.20
   4   4  -6  156.88   17.80
  -4  -4   6  192.28   16.60
  -4  -4   6  179.28   16.30
  -4  -4   6  202.18   13.40
  -4  -4   6  203.68   15.30
  -4  -4   6  171.28   16.40
   2   4  -6   23.40   13.80
   2   4  -6   23.90   12.60
  -2  -4   6   12.70    7.20
  -2  -4   6    6.40    8.30
  -2  -4   6   20.00    9.10
   0   4  -6    3.90   14.60
   0   4  -6    1.90   12.30
   0  -4   6    2.40    8.10
   0  -4   6    2.10    8.90
  -2   4  -6   -5.80   16.50
  -2   4  -6    5.60    4.30
  -2   4  -6   16.20   12.90
   2  -4   6    5.70   10.40
   2  -4   6    1.30    3.30
   2  -4   6    8.90    9.50
  -4   4  -6   27.60   21.70
  -4   4  -6   29.00    9.30
  -4   4  -6   20.60   16.70
   4  -4   6   16.50   12.20
   4  -4   6   16.70   11.90
  -6   4  -6   88.69   27.70
  -6   4  -6  108.29   15.30
  -6   4  -6  128.09   25.00
   6  -4   6   97.29   15.90
   6  -4   6  120.69   18.70
   6  -4   6   92.19   17.80
   6  -4   6   87.39   16.40
  -8   4  -6  140.89   35.70
  -8   4  -6  124.99   32.70
   8  -4   6  124.29   22.30
   8  -4   6   64.29   21.10
 -10   4  -6  201.18   43.10
 -10   4  -6  152.78   47.30
  10  -4   6  190.58   30.00
  19   3  -6  -26.40   26.10
  19   3  -6  -62.79   27.90
 -19  -3   6   77.09   36.90
 -19  -3   6   16.80   47.60
 -19  -3   6  -25.00   24.90
  17   3  -6  376.16   39.70
  17   3  -6  383.86   32.60
 -17  -3   6  329.47   33.90
 -17  -3   6  326.87   30.90
 -17  -3   6  350.36   37.10
  15   3  -6   12.40   16.20
  15   3  -6   -6.90   16.80
  15   3  -6   -3.90   15.80
 -15  -3   6   39.10   21.80
 -15  -3   6   20.10   11.90
 -15  -3   6   38.60   19.90
  13   3  -6  744.13   40.70
  13   3  -6  685.23   37.90
  13   3  -6  747.13   37.60
  13   3  -6  729.33   38.80
 -13  -3   6  707.93   41.40
 -13  -3   6  733.03   33.50
 -13  -3   6  751.32   40.70
  11   3  -6   45.30   14.60
  11   3  -6   42.80   13.20
  11   3  -6   60.39   13.60
 -11  -3   6   59.19   15.70
 -11  -3   6   60.59   10.70
 -11  -3   6   51.09   14.90
   9   3  -6  541.95   24.70
   9   3  -6  538.55   31.50
   9   3  -6  569.44   29.30
   9   3  -6  558.54   22.50
  -9  -3   6  565.44   30.80
  -9  -3   6  536.65   31.00
  -9  -3   6  518.55   24.20
  -9  -3   6  528.15   26.40
   7   3  -6  638.84   31.40
   7   3  -6  598.84   28.70
   7   3  -6  640.64   33.90
   7   3  -6  682.63   25.80
  -7  -3   6  663.53   25.50
  -7  -3   6  613.34   31.90
  -7  -3   6  631.54   29.50
  -7  -3   6  637.74   30.10
   5   3  -6   37.60    9.50
   5   3  -6   29.90    9.60
   5   3  -6   43.30   13.80
   5   3  -6   34.20   12.90
  -5  -3   6   22.90    9.00
  -5  -3   6   31.70    9.20
  -5  -3   6   32.70   10.90
  -5  -3   6   33.60    9.10
  -5  -3   6   40.10    6.40
   3   3  -6 1724.33   72.49
   3   3  -6 1897.71   70.19
   3   3  -6 1806.82   71.29
   3   3  -6 1819.12   65.79
  -3  -3   6 1816.02   65.99
  -3  -3   6 1810.52   68.59
  -3  -3   6 1814.92   69.09
   1   3  -6   55.59   16.10
   1   3  -6   72.79    8.30
   1   3  -6   69.49   13.80
  -1  -3   6   67.69    8.90
  -1  -3   6   72.89   11.70
  -1  -3   6   62.89   10.90
  -1   3  -6 1744.43   68.09
  -1   3  -6 1599.04   61.79
  -1   3  -6 1702.73   59.99
  -1   3  -6 1738.93   70.99
   1  -3   6 1728.13   64.69
   1  -3   6 1675.63   64.79
   1  -3   6 1656.13   64.09
   1  -3   6 1664.43   60.39
  -3   3  -6   28.40    8.60
  -3   3  -6   28.80   13.90
  -3   3  -6   52.49   20.50
   3  -3   6   44.30   12.00
   3  -3   6   54.79   12.40
   3  -3   6   44.90   13.00
  -5   3  -6 1150.08   54.29
  -5   3  -6 1106.49   46.10
  -5   3  -6 1104.49   63.29
   5  -3   6 1112.49   49.20
   5  -3   6 1065.09   49.99
   5  -3   6 1159.78   48.70
  -7   3  -6   -3.40   16.30
  -7   3  -6   66.09   29.00
  -7   3  -6   68.49   27.50
   7  -3   6   51.49   16.70
   7  -3   6   43.90   15.60
   7  -3   6    2.60   17.60
  -9   3  -6  342.07   42.60
  -9   3  -6  369.46   43.30
   9  -3   6  312.97   30.00
   9  -3   6  375.56   34.90
  18   2  -6   21.80   19.90
  18   2  -6    6.70   25.50
  18   2  -6   25.20   25.00
 -18  -2   6   31.30   32.20
 -18  -2   6   19.90   24.10
 -18  -2   6   24.20   20.50
  16   2  -6  100.79   29.60
  16   2  -6  143.59   23.20
 -16  -2   6  197.38   27.80
 -16  -2   6  161.58   31.70
  14   2  -6  133.59   18.70
  14   2  -6  158.78   18.90
  14   2  -6  147.39   17.10
 -14  -2   6  150.18   22.50
 -14  -2   6  150.18   14.20
  12   2  -6  151.18   16.60
  12   2  -6  150.88   19.60
  12   2  -6  146.39   17.20
 -12  -2   6  171.28   20.90
 -12  -2   6  173.38   16.50
 -12  -2   6  209.98   22.10
  10   2  -6  733.93   33.60
  10   2  -6  716.63   36.80
  10   2  -6  730.83   26.50
  10   2  -6  684.03   35.90
  10   2  -6  714.23   30.40
 -10  -2   6  691.23   37.10
 -10  -2   6  694.93   31.50
 -10  -2   6  711.73   37.10
   8   2  -6  254.77   20.90
   8   2  -6  283.97   17.70
   8   2  -6  273.07   19.50
  -8  -2   6  284.97   18.00
  -8  -2   6  284.47   15.80
  -8  -2   6  254.47   22.60
  -8  -2   6  260.97   18.80
  -8  -2   6  269.27   23.60
   6   2  -6  968.60   39.70
   6   2  -6  964.60   42.20
   6   2  -6  918.11   39.60
  -6  -2   6  981.40   34.90
  -6  -2   6  966.90   35.50
  -6  -2   6  886.21   39.30
  -6  -2   6  910.21   41.60
   4   2  -6  400.66   26.80
   4   2  -6  440.86   19.80
   4   2  -6  442.56   25.20
   4   2  -6  431.36   26.20
   4   2  -6  461.95   23.70
  -4  -2   6  411.86   19.20
  -4  -2   6  431.06   23.50
  -4  -2   6  421.16   25.10
  -4  -2   6  459.55   18.10
   2   2  -6  624.24   30.60
   2   2  -6  617.44   24.80
   2   2  -6  553.24   34.10
  -2  -2   6  626.64   30.10
  -2  -2   6  605.04   29.20
  -2  -2   6  606.64   25.90
   0   2  -6  398.86   17.90
   0   2  -6  327.57   26.90
   0   2  -6  381.86   16.40
   0   2  -6  371.36   24.50
   0  -2   6  390.96   18.10
   0  -2   6  348.57   23.40
   0  -2   6  412.66   23.10
   0  -2   6  349.87   20.10
  -2   2  -6  358.46   18.90
  -2   2  -6  397.46   31.50
  -2   2  -6  374.56   26.00
   2  -2   6  369.16   23.10
   2  -2   6  375.46   22.30
   2  -2   6  364.86   24.70
  -4   2  -6  170.08   14.50
  -4   2  -6  184.28   25.20
  -4   2  -6  191.28   21.70
   4  -2   6  158.48   18.70
   4  -2   6  160.18   16.40
   4  -2   6  171.48   19.80
   4  -2   6  201.48   17.70
  -6   2  -6  114.79   22.50
  -6   2  -6   86.49   15.60
  -6   2  -6   87.79   25.40
   6  -2   6   85.09   16.30
   6  -2   6   51.49   12.70
   6  -2   6   63.79   21.30
   6  -2   6  102.79   18.70
   6  -2   6   76.79   16.80
  -8   2  -6  216.38   34.40
  -8   2  -6  282.97   37.90
  -8   2  -6  190.38   24.20
   8  -2   6  261.17   31.40
   8  -2   6  239.88   27.80
   8  -2   6  185.78   23.60
 -10   2  -6   33.40   41.10
 -10   2  -6   62.29   40.30
  10  -2   6   14.80   22.90
  19   1  -6  -37.00   27.20
  19   1  -6   42.20   24.90
  19   1  -6   55.89   29.90
 -19  -1   6   27.80   30.00
 -19  -1   6   27.60   35.30
 -19  -1   6   29.30   25.10
  17   1  -6   -3.60   20.20
  17   1  -6    0.00   17.80
  17   1  -6    3.10   20.50
 -17  -1   6   10.00   27.60
 -17  -1   6   12.80   21.80
  15   1  -6  101.89   19.00
  15   1  -6  154.58   22.40
  15   1  -6  148.89   18.70
 -15  -1   6  153.28   25.90
 -15  -1   6  132.69   23.50
  13   1  -6   12.50   11.60
  13   1  -6   27.00   11.20
  13   1  -6   17.70   15.80
  13   1  -6   22.80   13.60
 -13  -1   6   12.30   17.40
 -13  -1   6    4.30    8.90
 -13  -1   6   26.20   16.40
  11   1  -6  182.78   15.50
  11   1  -6  163.78   18.20
  11   1  -6  205.78   22.40
  11   1  -6  168.78   18.10
 -11  -1   6  172.08   15.60
 -11  -1   6  168.98   20.90
 -11  -1   6  178.18   20.00
   9   1  -6  113.59   16.70
   9   1  -6  116.99   12.40
   9   1  -6  137.39   14.30
  -9  -1   6  141.69   13.30
  -9  -1   6  141.29   17.60
  -9  -1   6  111.79   11.50
  -9  -1   6  115.29   17.70
   7   1  -6  208.88   16.10
   7   1  -6  197.68   18.00
   7   1  -6  174.78   16.30
  -7  -1   6  194.28   13.20
  -7  -1   6  188.18   15.70
  -7  -1   6  189.08   20.60
   5   1  -6  921.51   35.90
   5   1  -6  939.21   39.60
   5   1  -6  912.21   38.00
   5   1  -6  936.51   40.80
  -5  -1   6  999.60   35.30
  -5  -1   6  891.51   41.50
  -5  -1   6  914.21   39.20
  -5  -1   6  920.11   34.20
   3   1  -6   -8.90   10.10
   3   1  -6    8.30    9.60
   3   1  -6    2.30    4.80
   3   1  -6   -1.00   11.90
  -3  -1   6   -9.90    5.60
  -3  -1   6   10.30   10.00
  -3  -1   6   -6.00    7.80
  -3  -1   6    3.00    5.30
   1   1  -6 1391.86   48.60
   1   1  -6 1308.57   54.59
   1   1  -6 1330.47   57.59
   1   1  -6 1339.57   48.90
  -1  -1   6 1354.76   54.79
  -1  -1   6 1283.27   52.79
  -1  -1   6 1415.56   51.79
  -1  -1   6 1332.47   50.59
  -1   1  -6    9.70    6.30
  -1   1  -6   -5.40   13.90
  -1   1  -6    7.40    5.90
  -1   1  -6   17.50   11.40
   1  -1   6   -5.60    8.20
   1  -1   6   -7.20    7.30
   1  -1   6    5.90    9.40
   1  -1   6    4.50   11.80
   1  -1   6    5.80    6.00
  -3   1  -6  777.12   33.70
  -3   1  -6  801.82   38.70
  -3   1  -6  853.51   43.40
   3  -1   6  798.02   35.80
   3  -1   6  787.92   38.40
   3  -1   6  778.12   37.20
   3  -1   6  769.82   39.70
  -5   1  -6   12.00   15.70
  -5   1  -6   37.20   12.40
  -5   1  -6   -1.80   21.10
   5  -1   6    6.20   13.20
   5  -1   6   -0.40   12.30
   5  -1   6   12.40   13.30
  -7   1  -6  421.86   36.40
  -7   1  -6  333.07   31.70
  -7   1  -6  383.26   42.40
   7  -1   6  350.06   31.10
   7  -1   6  378.86   32.80
   7  -1   6  398.76   32.70
  -9   1  -6   89.99   31.60
  -9   1  -6   61.39   34.80
  -9   1  -6   34.20   24.10
   9  -1   6   60.39   21.60
   9  -1   6   67.99   23.80
  18   0  -6   35.40   20.80
  18   0  -6   48.30   24.00
  18   0  -6   47.70   26.40
 -18   0   6   65.99   34.70
 -18   0   6   86.79   24.50
  16   0  -6    2.90   16.30
  16   0  -6   -7.80   15.70
  16   0  -6   28.70   18.40
 -16   0   6  -23.50   19.80
 -16   0   6  -37.80   23.20
  14   0  -6   72.99   12.30
  14   0  -6   75.39   16.30
  14   0  -6   69.79   14.40
 -14   0   6   72.79   23.80
 -14   0   6  101.19   23.10
 -14   0   6  103.19   11.30
  12   0  -6   -4.60    9.00
  12   0  -6   10.60    8.30
  12   0  -6   -5.80    9.20
  12   0  -6   -8.10   11.50
  12   0  -6   -7.50   13.40
 -12   0   6   -0.90   15.40
 -12   0   6   -8.50    7.40
 -12   0   6    1.50   13.80
  10   0  -6  987.70   40.40
  10   0  -6  960.10   39.70
  10   0  -6  990.20   44.60
  10   0  -6 1024.20   41.00
  10   0  -6  976.40   44.90
 -10   0   6 1007.10   42.00
 -10   0   6  972.40   47.50
 -10   0   6  995.20   40.00
 -10   0   6  998.80   46.60
   8   0  -6  364.36   24.90
   8   0  -6  462.35   23.60
   8   0  -6  412.46   20.90
   8   0  -6  370.06   22.30
  -8   0   6  378.76   22.30
  -8   0   6  396.26   27.30
   6   0  -6 1236.28   48.20
   6   0  -6 1250.77   51.69
   6   0  -6 1265.27   50.59
  -6   0   6 1261.87   50.39
  -6   0   6 1283.07   44.30
  -6   0   6 1272.07   53.59
  -6   0   6 1270.47   47.10
   4   0  -6  201.38   17.50
   4   0  -6  202.38   15.20
   4   0  -6  186.78   11.50
   4   0  -6  198.08   20.20
   4   0  -6  187.88   18.30
  -4   0   6  220.58   10.70
  -4   0   6  189.18   16.70
  -4   0   6  194.78   19.50
  -4   0   6  211.28   13.00
   2   0  -6  356.06   26.20
   2   0  -6  365.66   14.90
   2   0  -6  360.16   24.90
   2   0  -6  327.67   21.90
   2   0  -6  339.57   16.90
  -2   0   6  333.07   23.80
  -2   0   6  357.06   20.80
  -2   0   6  343.77   17.20
   0   0  -6   13.00    4.10
   0   0  -6   -3.90   13.30
   0   0  -6    5.30    9.90
   0   0  -6    3.70    6.50
   0   0   6    5.30   11.80
   0   0   6   17.70    7.40
   0   0   6    7.30    9.10
   0   0   6    9.90    7.60
   0   0   6   10.80    9.60
  -2   0  -6   18.60   11.40
  -2   0  -6    9.40    7.50
  -2   0  -6    8.10   14.90
   2   0   6   21.30    8.50
   2   0   6   12.90   10.50
   2   0   6   16.30    8.80
   2   0   6   23.90   14.20
   2   0   6   -1.60   10.20
  -4   0  -6  135.59   23.30
  -4   0  -6  169.78   18.40
  -4   0  -6  139.39   14.10
   4   0   6  138.59   18.00
   4   0   6  114.49   15.40
   4   0   6  152.38   16.90
  -6   0  -6  151.78   18.40
  -6   0  -6  205.18   22.20
  -6   0  -6  160.88   31.90
   6   0   6  146.79   19.00
   6   0   6  159.78   21.70
  -8   0  -6  286.37   31.70
  -8   0  -6  318.57   38.60
   8   0   6  316.17   27.60
   8   0   6  247.18   27.10
   8   0   6  334.97   33.60
 -10   0  -6   34.80   27.70
 -10   0  -6   76.19   40.10
  10   0   6   71.39   27.80
  10   0   6   95.29   25.00
  19  -1  -6   32.70   24.10
  19  -1  -6   49.50   27.80
  19  -1  -6  -35.10   27.10
 -19   1   6   40.50   36.40
 -19   1   6  -10.60   29.20
  17  -1  -6    0.20   20.90
  17  -1  -6    8.70   24.10
  17  -1  -6  -21.90   16.40
 -17   1   6  -54.59   20.60
 -17   1   6   31.70   30.20
  15  -1  -6   90.39   26.40
  15  -1  -6  145.49   17.70
 -15   1   6  189.78   28.70
 -15   1   6  112.79   23.60
  13  -1  -6   -1.90   10.00
  13  -1  -6   10.10   10.30
  13  -1  -6    6.20    7.20
  13  -1  -6   13.60   13.30
 -13   1   6   13.80   15.50
 -13   1   6   17.20    8.40
 -13   1   6   23.00   19.00
  11  -1  -6  187.88   19.90
  11  -1  -6  189.58   15.60
  11  -1  -6  170.18   17.40
  11  -1  -6  141.39   16.70
 -11   1   6  196.78   23.40
 -11   1   6  125.69   19.20
 -11   1   6  171.38   14.60
 -11   1   6  175.38   15.50
   9  -1  -6  129.29   12.80
   9  -1  -6  129.19   15.80
   9  -1  -6  114.19   12.60
   9  -1  -6  152.48   12.90
   9  -1  -6  137.19   17.00
  -9   1   6  121.29   19.20
  -9   1   6  129.99   17.50
  -9   1   6  146.09   13.80
   7  -1  -6  202.68   15.10
   7  -1  -6  212.28   17.80
   7  -1  -6  189.48   18.40
   7  -1  -6  184.18   12.40
  -7   1   6  208.48   16.10
  -7   1   6  182.88   19.00
   5  -1  -6  934.61   39.80
   5  -1  -6  968.30   35.90
   5  -1  -6  927.11   40.50
  -5   1   6  875.31   38.60
  -5   1   6  926.21   32.90
  -5   1   6  861.21   41.80
  -5   1   6  925.61   36.00
   3  -1  -6   -0.20    8.80
   3  -1  -6   -7.20   11.00
   3  -1  -6    4.00    9.40
   3  -1  -6    1.00    5.70
   3  -1  -6   -3.70    3.10
  -3   1   6   -1.30    7.70
  -3   1   6    0.20    6.50
  -3   1   6    2.10   10.80
  -3   1   6    0.70    3.70
   1  -1  -6 1373.96   49.70
   1  -1  -6 1345.57   55.79
   1  -1  -6 1250.87   56.09
   1  -1  -6 1301.47   52.49
   1  -1  -6 1304.57   49.70
   1  -1  -6 1330.87   45.50
  -1   1   6 1334.47   49.50
  -1   1   6 1317.77   52.39
  -1   1   6 1343.97   53.59
  -1   1   6 1303.27   55.79
  -1  -1  -6   -1.10    7.00
  -1  -1  -6  -16.80    9.20
  -1  -1  -6   -2.70   14.20
   1   1   6   -2.30    7.40
   1   1   6    3.80   10.30
   1   1   6  -11.40    9.00
   1   1   6    3.20   13.40
  -3  -1  -6  780.02   43.30
  -3  -1  -6  802.52   36.60
  -3  -1  -6  808.22   35.30
   3   1   6  780.12   39.20
   3   1   6  755.02   37.80
   3   1   6  786.62   35.50
  -5  -1  -6   18.30   14.40
  -5  -1  -6   18.50   13.20
  -5  -1  -6  -14.20   19.60
   5   1   6    3.60   13.70
   5   1   6   17.60   13.50
   5   1   6   15.80   12.30
  -7  -1  -6  344.07   32.40
  -7  -1  -6  343.27   36.00
  -7  -1  -6  365.16   33.30
   7   1   6  376.56   33.30
   7   1   6  362.16   31.20
   7   1   6  315.67   30.00
  -9  -1  -6   60.09   33.40
  -9  -1  -6   44.10   24.10
   9   1   6   25.20   20.50
   9   1   6   51.49   25.10
   9   1   6   44.40   23.70
  18  -2  -6   37.90   23.40
  18  -2  -6   42.30   24.10
  18  -2  -6   26.80   19.80
 -18   2   6   17.30   32.30
 -18   2   6    4.80   23.50
  16  -2  -6  140.59   20.00
  16  -2  -6  144.39   20.20
  16  -2  -6  137.69   22.70
 -16   2   6  151.98   31.30
 -16   2   6  119.59   25.40
  14  -2  -6  203.08   19.20
  14  -2  -6  160.68   20.60
  14  -2  -6  153.48   16.30
 -14   2   6  163.28   26.70
  12  -2  -6  191.08   16.30
  12  -2  -6  149.29   15.60
  12  -2  -6  151.58   11.10
  12  -2  -6  147.59   17.30
  12  -2  -6  171.78   16.10
 -12   2   6  198.38   25.20
 -12   2   6  202.38   23.30
 -12   2   6  155.48   14.90
 -12   2   6  186.08   14.50
  10  -2  -6  741.73   28.90
  10  -2  -6  711.83   29.50
  10  -2  -6  691.13   36.20
  10  -2  -6  723.33   33.50
  10  -2  -6  734.03   35.70
 -10   2   6  683.03   38.90
 -10   2   6  701.33   32.50
 -10   2   6  649.83   40.40
   8  -2  -6  313.67   21.00
   8  -2  -6  279.27   16.20
   8  -2  -6  268.37   20.90
   8  -2  -6  290.17   14.20
   8  -2  -6  255.77   20.00
  -8   2   6  274.37   19.50
  -8   2   6  268.67   25.30
   6  -2  -6  965.10   34.90
   6  -2  -6  996.50   41.00
   6  -2  -6  892.81   41.10
   6  -2  -6  917.71   39.90
   6  -2  -6  978.10   37.70
  -6   2   6  883.61   43.40
  -6   2   6  880.51   39.50
   4  -2  -6  419.26   25.10
   4  -2  -6  460.35   17.00
   4  -2  -6  429.06   20.80
   4  -2  -6  427.16   18.50
   4  -2  -6  434.36   23.10
  -4   2   6  451.85   24.00
  -4   2   6  416.56   27.40
  -4   2   6  437.16   17.10
  -4   2   6  400.66   21.00
   2  -2  -6  620.84   34.30
   2  -2  -6  612.14   27.10
   2  -2  -6  591.14   28.80
   2  -2  -6  633.94   25.50
   2  -2  -6  608.94   31.80
  -2   2   6  600.34   33.80
  -2   2   6  658.83   25.60
  -2   2   6  638.94   29.60
  -2   2   6  638.54   29.30
  -2   2   6  623.94   30.80
   0  -2  -6  342.37   25.60
   0  -2  -6  380.46   20.60
   0  -2  -6  390.46   27.90
   0  -2  -6  399.66   22.30
   0  -2  -6  370.56   19.30
   0   2   6  401.36   23.30
   0   2   6  378.06   19.60
   0   2   6  399.36   28.50
   0   2   6  344.17   23.70
  -2  -2  -6  380.76   30.10
  -2  -2  -6  370.86   22.10
  -2  -2  -6  392.26   22.80
  -2  -2  -6  368.16   29.60
   2   2   6  384.46   25.70
   2   2   6  364.86   24.90
   2   2   6  376.56   21.60
  -4  -2  -6  218.88   20.40
  -4  -2  -6  185.28   17.10
  -4  -2  -6  211.58   25.80
   4   2   6  170.78   17.00
   4   2   6  193.08   19.90
   4   2   6  153.78   18.90
  -6  -2  -6  100.09   18.10
  -6  -2  -6   82.49   16.90
  -6  -2  -6   69.79   24.90
   6   2   6   42.80   17.90
   6   2   6   61.19   18.60
  -8  -2  -6  269.17   36.80
  -8  -2  -6  204.48   25.50
   8   2   6  245.48   27.50
   8   2   6  205.08   27.20
   8   2   6  219.88   24.60
 -10  -2  -6  -56.59   37.80
 -10  -2  -6  -11.20   27.40
  10   2   6   33.00   28.50
  10   2   6   38.70   22.40
  19  -3  -6   -3.10   25.20
  19  -3  -6   -4.10   28.70
 -19   3   6  -14.80   37.60
 -19   3   6    3.60   31.60
  17  -3  -6  340.47   32.50
  17  -3  -6  339.97   34.00
 -17   3   6  263.87   32.50
 -17   3   6  316.97   38.80
  15  -3  -6   11.90   18.40
  15  -3  -6  -11.40   16.60
  15  -3  -6   12.50   13.10
 -15   3   6    7.80   20.20
 -15   3   6    6.10   25.20
  13  -3  -6  702.23   36.70
  13  -3  -6  707.43   35.30
  13  -3  -6  708.63   40.20
  13  -3  -6  736.13   32.80
 -13   3   6  700.23   43.10
 -13   3   6  749.92   47.40
 -13   3   6  720.83   29.90
  11  -3  -6   59.39    8.50
  11  -3  -6   59.49   14.00
  11  -3  -6   53.09    5.50
  11  -3  -6   43.30   11.30
  11  -3  -6   56.09   10.40
 -11   3   6   39.30   16.70
 -11   3   6   49.10    9.10
 -11   3   6   67.59   20.00
 -11   3   6   37.50   10.30
   9  -3  -6  544.15   25.30
   9  -3  -6  562.44   29.60
   9  -3  -6  535.95   23.40
   9  -3  -6  526.85   29.80
   9  -3  -6  598.34   29.90
   9  -3  -6  560.04   22.00
  -9   3   6  574.94   35.90
  -9   3   6  504.05   33.90
  -9   3   6  562.14   27.90
   7  -3  -6  633.84   32.10
   7  -3  -6  632.44   25.80
   7  -3  -6  641.04   30.10
   7  -3  -6  612.64   31.10
   7  -3  -6  618.74   26.70
   7  -3  -6  616.34   23.30
  -7   3   6  633.64   29.60
  -7   3   6  625.64   35.10
   5  -3  -6   38.10   10.50
   5  -3  -6   44.00   10.80
   5  -3  -6   34.70    9.70
   5  -3  -6   25.10    3.80
   5  -3  -6   31.70    3.80
  -5   3   6   36.50    9.80
  -5   3   6   27.00   13.20
   3  -3  -6 1883.81   64.19
   3  -3  -6 1893.91   64.79
   3  -3  -6 1779.12   67.19
   3  -3  -6 1769.32   71.29
   3  -3  -6 1812.62   68.09
  -3   3   6 1909.61   68.79
  -3   3   6 1831.92   64.59
  -3   3   6 1800.72   73.09
  -3   3   6 1749.43   69.79
  -3   3   6 1784.22   68.19
   1  -3  -6   76.19   16.20
   1  -3  -6   67.89    7.80
   1  -3  -6   69.09   10.70
   1  -3  -6   68.89    9.30
   1  -3  -6   85.69   14.30
  -1   3   6   74.29    8.10
  -1   3   6   59.29   10.70
  -1   3   6   61.79   11.60
  -1   3   6   77.89   16.90
  -1  -3  -6 1720.53   63.49
  -1  -3  -6 1696.43   63.69
  -1  -3  -6 1713.33   63.69
  -1  -3  -6 1706.13   69.59
  -1  -3  -6 1664.53   69.59
   1   3   6 1612.94   69.99
   1   3   6 1575.44   65.39
   1   3   6 1712.33   66.99
  -3  -3  -6   24.20   15.30
  -3  -3  -6   39.30   11.20
  -3  -3  -6   28.10   17.80
  -3  -3  -6   35.60   11.80
   3   3   6   30.20   13.10
   3   3   6   40.60   14.00
  -5  -3  -6 1181.78   56.99
  -5  -3  -6 1141.49   50.29
  -5  -3  -6 1098.59   47.80
   5   3   6 1125.59   52.49
  -7  -3  -6  -15.60   25.20
  -7  -3  -6   64.39   33.80
   7   3   6   44.50   19.60
   7   3   6  -21.10   32.10
  -9  -3  -6  319.47   32.00
  -9  -3  -6  332.57   43.80
   9   3   6  323.97   28.70
   9   3   6  257.77   30.80
   9   3   6  331.17   34.30
  18  -4  -6   33.10   21.40
  18  -4  -6   20.90   24.60
 -18   4   6   38.70   26.80
 -18   4   6   68.59   35.00
  16  -4  -6   94.59   20.00
  16  -4  -6   65.79   21.70
 -16   4   6  106.29   31.40
 -16   4   6   78.09   25.70
  14  -4  -6    0.00   12.90
  14  -4  -6    1.30   18.20
  14  -4  -6   16.50   11.30
 -14   4   6    2.70   18.20
  12  -4  -6  193.08   19.70
  12  -4  -6  207.68   15.70
  12  -4  -6  252.97   22.80
  12  -4  -6  220.68   21.20
 -12   4   6  185.38   26.40
 -12   4   6  227.88   24.40
 -12   4   6  239.48   16.20
 -12   4   6  241.88   19.50
  10  -4  -6  192.88   16.10
  10  -4  -6  194.18   19.70
  10  -4  -6  173.38   11.10
  10  -4  -6  193.58   20.40
  10  -4  -6  189.88   10.10
 -10   4   6  175.88   23.30
 -10   4   6  182.08   17.60
 -10   4   6  209.18   23.50
   8  -4  -6  653.33   33.40
   8  -4  -6  650.43   33.00
   8  -4  -6  657.13   31.80
   8  -4  -6  663.13   23.00
   8  -4  -6  622.74   26.60
   8  -4  -6  641.84   27.00
  -8   4   6  651.83   35.90
  -8   4   6  616.44   30.70
   6  -4  -6   69.29    6.00
   6  -4  -6   77.99   12.10
   6  -4  -6   72.09   11.20
   6  -4  -6   60.79    8.60
   6  -4  -6   73.59   12.00
  -6   4   6   66.59   10.80
  -6   4   6   70.69   15.60
   4  -4  -6  208.68   15.40
   4  -4  -6  182.68   15.20
   4  -4  -6  146.09   15.50
   4  -4  -6  191.48   18.20
  -4   4   6  182.48    9.00
  -4   4   6  198.48   14.80
  -4   4   6  175.28   19.30
  -4   4   6  245.38   16.60
  -4   4   6  206.48   17.90
   2  -4  -6   12.30    9.10
   2  -4  -6    8.20    4.60
   2  -4  -6   10.40    7.90
   2  -4  -6   17.50   10.40
   2  -4  -6   20.50    7.70
  -2   4   6   10.10    8.30
  -2   4   6   -0.90    9.30
  -2   4   6   23.50    6.10
  -2   4   6   37.20    8.60
  -2   4   6   44.50   14.70
   0  -4  -6   -1.80   14.10
   0  -4  -6    4.10   11.30
   0  -4  -6    5.20    8.30
   0  -4  -6   27.30    7.30
   0   4   6   -0.30    9.20
   0   4   6   25.70   15.10
   0   4   6   11.10   10.80
  -2  -4  -6    1.50    9.50
  -2  -4  -6    5.50   13.80
  -2  -4  -6   11.70   15.70
   2   4   6    7.20   11.30
   2   4   6    6.60   12.90
  -4  -4  -6   35.10   19.90
  -4  -4  -6   53.39   12.10
  -4  -4  -6   12.50   12.40
  -4  -4  -6   41.40   17.20
   4   4   6   26.40   13.40
   4   4   6   25.70   15.10
  -6  -4  -6   65.39   23.30
  -6  -4  -6  111.69   25.80
  -6  -4  -6  107.59   19.10
   6   4   6  129.99   35.50
   6   4   6  140.19   21.50
  -8  -4  -6   68.69   33.00
  -8  -4  -6   75.59   26.40
  -8  -4  -6   57.09   23.00
   8   4   6   66.29   26.30
   8   4   6  111.49   23.10
 -10  -4  -6  217.98   71.69
 -10  -4  -6  116.19   35.80
 -10  -4  -6  137.69   31.60
  10   4   6  170.28   28.40
  10   4   6  120.39   34.50
  10   4   6  125.99   33.20
  19  -5  -6   -2.50   33.20
  17  -5  -6   24.20   18.90
  17  -5  -6  -18.00   22.40
 -17   5   6  -18.20   25.60
 -17   5   6  -14.50   28.40
  15  -5  -6   -7.90   18.10
  15  -5  -6    7.80   14.40
 -15   5   6    2.70   21.00
 -15   5   6   -7.00   24.70
  13  -5  -6   13.50   16.30
  13  -5  -6    2.10   13.10
  13  -5  -6    0.60   11.50
 -13   5   6  -19.50   20.10
 -13   5   6  -11.30    8.70
 -13   5   6   -0.70   10.50
 -13   5   6   -1.10   19.60
  11  -5  -6  301.37   24.00
  11  -5  -6  282.07   26.40
  11  -5  -6  283.47   20.30
 -11   5   6  311.47   33.50
 -11   5   6  291.37   20.70
 -11   5   6  312.07   31.20
   9  -5  -6    9.30    7.20
   9  -5  -6    5.60   10.80
   9  -5  -6   24.60   11.80
  -9   5   6   33.40   10.30
  -9   5   6   20.20   16.30
   7  -5  -6  323.17   17.40
   7  -5  -6  313.37   15.70
   7  -5  -6  313.37   22.80
   7  -5  -6  301.27   23.50
  -7   5   6  297.77   25.80
  -7   5   6  308.97   21.30
   5  -5  -6   12.00    8.20
   5  -5  -6   26.10    3.10
   5  -5  -6   21.90    8.70
   5  -5  -6   26.80    8.60
   5  -5  -6   24.20    9.40
   5  -5  -6   15.40   10.90
  -5   5   6   16.10    9.30
  -5   5   6   45.20   11.00
  -5   5   6   24.10   15.00
   3  -5  -6  298.07   22.90
   3  -5  -6  280.87   21.10
   3  -5  -6  310.47   19.80
   3  -5  -6  306.97   17.40
  -3   5   6  325.47   18.70
  -3   5   6  306.27   13.90
  -3   5   6  337.77   22.60
  -3   5   6  278.17   25.20
  -3   5   6  292.67   19.00
   1  -5  -6   23.60    5.50
   1  -5  -6   27.10    9.00
   1  -5  -6    6.60    8.80
   1  -5  -6   25.50   11.90
   1  -5  -6   37.70    6.80
  -1   5   6   20.90   16.80
  -1   5   6   37.40   11.60
  -1   5   6   22.50    9.90
  -1  -5  -6  112.49    9.60
  -1  -5  -6  126.29   19.80
  -1  -5  -6  134.19   13.00
  -1  -5  -6  119.29   14.20
  -1  -5  -6  120.49   18.00
   1   5   6  125.69   14.60
   1   5   6  115.09   16.80
  -3  -5  -6   14.20    6.70
  -3  -5  -6    7.10   11.20
  -3  -5  -6    8.80   14.90
  -3  -5  -6    2.80    9.40
  -3  -5  -6    0.00   17.00
   3   5   6   -0.90   12.50
   3   5   6    1.40   14.70
  -5  -5  -6   82.19   21.50
  -5  -5  -6  126.19   24.10
  -5  -5  -6   88.89   17.20
   5   5   6  153.38   22.00
   5   5   6  133.69   20.10
  -7  -5  -6    6.10   18.90
  -7  -5  -6  -45.70   21.50
  -7  -5  -6   -8.70   45.20
   7   5   6   -1.40   18.60
   7   5   6  -12.80   22.60
  -9  -5  -6   60.29   26.00
  -9  -5  -6   18.00   30.30
  -9  -5  -6   34.10   37.10
   9   5   6   16.50   30.90
   9   5   6   38.50   26.00
  18  -6  -6  133.09   31.00
  18  -6  -6  148.79   28.20
 -18   6   6  114.39   39.00
 -18   6   6   74.69   31.50
  16  -6  -6    2.10   18.60
  16  -6  -6  -10.30   20.20
 -16   6   6  -21.90   27.60
 -16   6   6  -16.40   23.50
  14  -6  -6  204.88   20.60
  14  -6  -6  206.38   24.00
 -14   6   6  223.08   34.10
 -14   6   6  175.38   26.80
  12  -6  -6  201.08   20.20
  12  -6  -6  205.18   17.40
  12  -6  -6  161.18   20.30
 -12   6   6  179.58   25.80
 -12   6   6  185.88   29.50
 -12   6   6  155.98   15.60
  10  -6  -6    9.40   12.10
  10  -6  -6   22.40   12.20
  10  -6  -6   21.80    9.20
 -10   6   6    7.40   10.20
 -10   6   6   14.50   18.50
 -10   6   6    5.40   19.50
   8  -6  -6  875.41   41.20
   8  -6  -6  849.32   32.80
   8  -6  -6  872.91   34.20
   8  -6  -6  857.21   40.60
  -8   6   6  869.81   38.30
  -8   6   6  833.52   44.30
   6  -6  -6   -1.80    3.30
   6  -6  -6    4.40   10.40
   6  -6  -6   15.50    9.70
   6  -6  -6    4.10    7.70
  -6   6   6    0.10   14.10
  -6   6   6    1.90    9.80
   4  -6  -6 1096.59   49.40
   4  -6  -6 1151.18   48.20
   4  -6  -6 1186.68   47.20
  -4   6   6 1100.69   52.49
  -4   6   6 1199.88   45.40
  -4   6   6 1111.89   45.20
  -4   6   6 1189.88   41.40
  -4   6   6 1175.38   41.10
  -4   6   6 1135.89   48.90
   2  -6  -6   82.59   14.80
   2  -6  -6   90.99   11.80
   2  -6  -6   97.69   11.90
   2  -6  -6  104.89    8.90
  -2   6   6   97.09   12.20
  -2   6   6   98.49   14.40
  -2   6   6  103.49   19.10
   0  -6  -6  185.68   19.90
   0  -6  -6  201.28   19.80
   0  -6  -6  193.28   17.90
   0  -6  -6  205.18    9.90
   0   6   6  207.28   20.30
   0   6   6  206.28   25.10
   0   6   6  173.18   18.90
  -2  -6  -6  221.38   23.00
  -2  -6  -6  254.67   26.90
  -2  -6  -6  287.97   20.00
  -2  -6  -6  218.88   22.30
   2   6   6  298.57   25.00
   2   6   6  255.77   24.70
  -4  -6  -6   71.99   13.00
  -4  -6  -6   77.39   16.20
  -4  -6  -6   99.49   22.60
  -4  -6  -6   52.69   21.40
   4   6   6   86.09   20.30
   4   6   6   72.29   20.20
  -6  -6  -6  213.78   25.20
  -6  -6  -6  391.26   40.80
  -6  -6  -6  355.96   33.90
   6   6   6  307.77   30.50
   6   6   6  331.67   34.10
  -8  -6  -6  -23.90   22.00
  -8  -6  -6   19.80   32.10
  -8  -6  -6   -6.40   26.60
   8   6   6    4.60   27.40
   8   6   6    2.10   23.30
 -10  -6  -6   54.59   36.10
  10   6   6  113.59   39.00
  17  -7  -6   26.30   23.70
  17  -7  -6   28.40   23.20
 -17   7   6   76.19   28.30
 -17   7   6   82.49   37.30
  15  -7  -6  493.25   36.10
 -15   7   6  530.85   44.80
 -15   7   6  508.55   49.99
  13  -7  -6   53.19   19.70
  13  -7  -6   63.79   17.90
  13  -7  -6   42.50   13.60
 -13   7   6   62.69   28.00
 -13   7   6   42.20   12.80
 -13   7   6   61.09   23.50
  11  -7  -6  626.84   36.60
  11  -7  -6  672.93   36.30
  11  -7  -6  584.04   30.70
 -11   7   6  683.73   42.90
 -11   7   6  649.14   32.00
 -11   7   6  617.14   43.30
   9  -7  -6  110.39   11.20
   9  -7  -6  117.99   16.50
   9  -7  -6  131.19   16.90
  -9   7   6  118.99   23.60
  -9   7   6  114.19   21.70
  -9   7   6  131.89   15.10
   7  -7  -6  493.95   28.50
   7  -7  -6  467.85   21.20
   7  -7  -6  497.45   30.70
  -7   7   6  491.35   34.70
  -7   7   6  469.65   27.10
   5  -7  -6 1127.69   45.50
   5  -7  -6 1114.29   47.20
   5  -7  -6 1108.49   50.09
   5  -7  -6 1172.18   48.30
  -5   7   6 1081.99   53.79
  -5   7   6 1173.28   45.70
  -5   7   6 1151.68   43.90
  -5   7   6 1074.69   48.20
   3  -7  -6  158.28   15.20
   3  -7  -6  132.09   16.50
   3  -7  -6  132.49   14.30
  -3   7   6  129.69   12.00
  -3   7   6  131.09   13.10
  -3   7   6  118.89   20.80
  -3   7   6  168.38   13.10
  -3   7   6  119.59   15.40
   1  -7  -6 1524.25   59.59
   1  -7  -6 1517.85   62.89
   1  -7  -6 1498.55   57.99
  -1   7   6 1432.16   66.59
  -1   7   6 1476.25   59.09
  -1   7   6 1439.66   61.99
  -1  -7  -6   90.09   14.40
  -1  -7  -6  111.49   12.20
  -1  -7  -6  116.99   18.60
   1   7   6  102.79   15.10
   1   7   6   71.29   17.80
  -3  -7  -6 1181.38   57.89
  -3  -7  -6 1263.77   53.69
  -3  -7  -6 1161.48   47.70
   3   7   6 1280.47   56.29
   3   7   6 1201.28   58.19
  -5  -7  -6  250.47   24.40
  -5  -7  -6  295.87   29.80
  -5  -7  -6  253.77   28.40
   5   7   6  230.48   28.00
   5   7   6  230.18   25.20
  -7  -7  -6  389.96   32.30
  -7  -7  -6  433.36   47.10
  -7  -7  -6  350.36   36.00
   7   7   6  437.46   42.00
   7   7   6  428.46   38.50
  -9  -7  -6  178.68   31.40
  -9  -7  -6   88.19   35.80
   9   7   6  131.29   30.20
   9   7   6  229.58   37.40
  18  -8  -6   57.49   32.50
  16  -8  -6    2.00   21.80
  16  -8  -6   85.09   22.10
 -16   8   6   35.70   34.50
 -16   8   6   22.90   26.90
  14  -8  -6    1.80   18.80
  14  -8  -6   -4.10   19.50
 -14   8   6  -46.40   28.20
 -14   8   6   22.80   24.90
  12  -8  -6    5.00   16.40
  12  -8  -6   24.00   16.40
  12  -8  -6   20.50   12.80
 -12   8   6   14.00   24.50
 -12   8   6   26.80   23.90
 -12   8   6   23.90   12.00
  10  -8  -6    9.20    9.70
  10  -8  -6    1.50   12.40
  10  -8  -6   10.80   13.80
 -10   8   6    5.90   19.00
 -10   8   6    6.50   11.30
 -10   8   6   20.80   23.20
   8  -8  -6   41.60   13.40
   8  -8  -6   39.10    8.30
   8  -8  -6   51.29   14.70
  -8   8   6   38.60   12.30
  -8   8   6   17.50   18.00
   6  -8  -6   -9.50   10.00
   6  -8  -6    5.10    4.00
   6  -8  -6    2.50   11.50
  -6   8   6   21.50   16.70
  -6   8   6   16.80   10.40
   4  -8  -6   69.89   14.60
   4  -8  -6   42.40   11.10
   4  -8  -6   60.29   11.80
  -4   8   6   63.39   10.00
  -4   8   6   65.39   18.10
  -4   8   6   60.89   13.40
   2  -8  -6   -0.90   10.30
   2  -8  -6   -5.40   11.60
   2  -8  -6   -5.60    8.90
  -2   8   6  -19.60   17.80
  -2   8   6    5.80    9.50
  -2   8   6  -12.50   12.20
   0  -8  -6    1.30   13.90
   0  -8  -6    1.30   11.20
   0  -8  -6    2.30    9.50
   0   8   6   -5.70   18.90
   0   8   6  -16.10   13.00
   0   8   6  -11.50   10.80
  -2  -8  -6   76.19   16.10
  -2  -8  -6   57.29   10.70
  -2  -8  -6   67.39   18.00
   2   8   6   63.89   15.90
   2   8   6   73.49   19.50
  -4  -8  -6   23.20   16.40
  -4  -8  -6   -3.00   18.70
   4   8   6  -24.60   19.20
   4   8   6   32.80   17.30
  -6  -8  -6   21.00   23.40
  -6  -8  -6    2.80   19.10
   6   8   6   69.99   24.20
   6   8   6   47.00   25.90
  -8  -8  -6   -5.10   29.40
  -8  -8  -6   -3.90   24.30
   8   8   6    4.70   24.90
   8   8   6  -60.69   30.90
  17  -9  -6   28.90   26.90
  17  -9  -6   35.70   30.80
 -17   9   6   37.00   45.70
 -17   9   6    3.70   32.70
  15  -9  -6   94.59   23.90
  15  -9  -6  111.49   22.20
 -15   9   6   66.59   28.80
 -15   9   6  110.89   35.70
  13  -9  -6  150.18   23.10
  13  -9  -6  145.39   19.30
  13  -9  -6  165.18   24.10
 -13   9   6  137.79   16.60
 -13   9   6  127.49   28.10
 -13   9   6  173.48   34.80
  11  -9  -6  153.08   22.00
  11  -9  -6  184.38   16.70
 -11   9   6  115.69   27.90
 -11   9   6  142.59   16.60
   9  -9  -6  269.97   19.40
   9  -9  -6  294.97   28.70
   9  -9  -6  285.87   25.80
  -9   9   6  216.48   32.30
  -9   9   6  282.97   29.90
  -9   9   6  242.48   22.20
   7  -9  -6    8.70   12.70
   7  -9  -6   25.80    7.20
   7  -9  -6   28.80   13.30
  -7   9   6   -3.20   11.90
  -7   9   6   -5.70   18.10
   5  -9  -6   30.30   11.60
   5  -9  -6   56.19   15.20
   5  -9  -6   50.19   12.80
  -5   9   6   24.20    8.50
  -5   9   6   49.50   13.40
  -5   9   6   19.50   17.90
   3  -9  -6   16.00   11.20
   3  -9  -6   20.70   11.20
   3  -9  -6   33.90   13.80
  -3   9   6   24.20   13.90
  -3   9   6   40.90   19.30
  -3   9   6   13.80    9.50
   1  -9  -6   53.39   16.10
   1  -9  -6   68.79   14.60
   1  -9  -6   48.20   11.30
  -1   9   6   45.30   16.50
  -1   9   6   90.19   23.30
  -1   9   6   42.40   13.20
  -1  -9  -6   37.50   14.90
  -1  -9  -6   11.30   15.40
  -1  -9  -6   34.90   10.60
   1   9   6   57.09   17.90
   1   9   6   32.20   15.00
  -3  -9  -6  -40.30   16.10
  -3  -9  -6   17.20   15.90
   3   9   6    3.20   20.70
   3   9   6   10.90   19.90
  -5  -9  -6    9.10   21.70
  -5  -9  -6   50.99   19.60
   5   9   6    0.90   20.70
   5   9   6   -0.70   23.20
  -7  -9  -6    9.30   22.50
  -7  -9  -6   -9.30   28.50
   7   9   6  -23.70   23.20
   7   9   6   -2.10   29.00
  16 -10  -6   81.59   25.50
  16 -10  -6   99.59   30.30
 -16  10   6  174.78   41.80
 -16  10   6   87.59   33.70
  14 -10  -6    3.40   19.20
  14 -10  -6   17.50   22.20
 -14  10   6   -3.90   30.50
 -14  10   6   11.60   26.50
  12 -10  -6   -4.50   16.30
  12 -10  -6   18.30   14.80
  12 -10  -6   12.40   17.30
 -12  10   6   -9.40   24.70
 -12  10   6   -0.80   13.50
 -12  10   6   -0.40   22.90
  10 -10  -6  249.28   24.70
  10 -10  -6  215.88   22.80
  10 -10  -6  245.48   21.70
 -10  10   6  197.78   33.70
 -10  10   6  212.98   34.50
 -10  10   6  287.27   24.60
   8 -10  -6    2.30   13.80
   8 -10  -6   -2.10    8.70
   8 -10  -6   -0.30   13.50
  -8  10   6   -2.30   19.20
  -8  10   6   -9.80   12.40
   6 -10  -6  267.17   13.90
   6 -10  -6  278.67   27.80
   6 -10  -6  313.27   26.90
  -6  10   6  283.77   30.80
  -6  10   6  226.28   21.60
  -6  10   6  280.27   17.40
   4 -10  -6   -0.40   13.20
   4 -10  -6    5.10   11.70
   4 -10  -6    7.90   12.60
  -4  10   6    6.10   14.00
  -4  10   6  -11.00    8.90
  -4  10   6   14.10   19.50
   2 -10  -6  147.19   15.50
   2 -10  -6  151.38   18.50
   2 -10  -6  145.99   20.10
  -2  10   6  138.09   26.20
  -2  10   6  149.79   16.10
  -2  10   6  158.78   20.80
   0 -10  -6  167.78   15.60
   0 -10  -6  151.88   19.60
   0 -10  -6  172.28   22.10
   0  10   6  152.98   25.10
   0  10   6  123.19   31.10
   0  10   6  154.18   19.60
  -2 -10  -6   74.99   20.00
  -2 -10  -6   91.79   18.70
   2  10   6   79.59   21.50
   2  10   6   70.29   21.10
  -4 -10  -6   61.09   23.00
  -4 -10  -6   83.19   20.10
   4  10   6   54.49   26.00
   4  10   6  106.19   23.80
  -6 -10  -6  -14.40   22.50
  -6 -10  -6   -1.80   27.10
   6  10   6  -35.00   24.00
   6  10   6   -6.20   25.60
  -8 -10  -6  122.99   37.40
   8  10   6  227.78   47.40
  15 -11  -6   57.39   24.70
  15 -11  -6   23.10   25.40
 -15  11   6   18.30   30.30
 -15  11   6   -0.70   36.30
  13 -11  -6  200.88   28.80
  13 -11  -6  258.77   24.90
  13 -11  -6  197.28   27.90
 -13  11   6  260.97   34.50
 -13  11   6  183.28   36.30
  11 -11  -6  241.18   20.60
  11 -11  -6  203.38   26.00
  11 -11  -6  187.58   25.30
 -11  11   6  233.48   36.30
 -11  11   6  211.48   19.90
 -11  11   6  191.88   30.60
   9 -11  -6  302.37   22.20
   9 -11  -6  236.38   26.60
   9 -11  -6  346.97   31.90
  -9  11   6  299.77   32.30
  -9  11   6  248.48   21.60
  -9  11   6  269.67   36.60
   7 -11  -6  331.17   20.10
   7 -11  -6  341.17   31.00
  -7  11   6  384.36   27.90
  -7  11   6  364.36   39.90
   5 -11  -6  240.38   22.20
   5 -11  -6  216.78   20.70
   5 -11  -6  233.08   23.80
  -5  11   6  290.07   27.50
  -5  11   6  225.38   18.70
  -5  11   6  257.27   30.50
   3 -11  -6  429.66   28.50
   3 -11  -6  434.36   31.50
   3 -11  -6  385.56   30.00
  -3  11   6  377.86   41.60
  -3  11   6  382.46   26.40
  -3  11   6  350.26   31.80
   1 -11  -6  486.05   29.40
  -1  11   6  484.15   31.60
  -1  11   6  431.06   44.70
  -1 -11  -6  509.75   37.50
  -1 -11  -6  571.34   36.40
   1  11   6  541.85   42.10
   1  11   6  574.44   38.40
  -3 -11  -6  283.17   28.10
  -3 -11  -6  257.57   27.70
   3  11   6  282.27   30.40
   3  11   6  237.68   29.20
  -5 -11  -6  221.48   30.90
  -5 -11  -6  225.48   27.50
   5  11   6  225.78   33.80
   5  11   6  239.28   30.40
  -7 -11  -6  200.58   36.60
  -7 -11  -6  200.88   30.50
   7  11   6  228.18   40.50
   7  11   6  204.28   36.60
  14 -12  -6   55.89   27.70
  14 -12  -6   52.79   24.20
 -14  12   6   48.20   37.30
 -14  12   6   36.80   31.60
  12 -12  -6   38.60   24.10
  12 -12  -6   39.10   21.20
 -12  12   6   48.40   29.30
 -12  12   6   14.00   34.60
  10 -12  -6   46.60   15.70
  10 -12  -6   17.10   19.60
  10 -12  -6   34.20   18.70
 -10  12   6   89.09   33.20
 -10  12   6   15.90   24.50
 -10  12   6   46.80   16.30
   8 -12  -6  295.47   20.50
   8 -12  -6  174.18   23.20
   8 -12  -6  252.97   25.40
  -8  12   6  227.38   22.50
  -8  12   6  281.87   34.10
   6 -12  -6    6.50   16.00
   6 -12  -6  -17.00   14.10
  -6  12   6  -13.40   15.80
  -6  12   6  -24.20   23.40
   4 -12  -6  219.28   23.50
   4 -12  -6  293.77   28.30
   4 -12  -6  259.37   26.90
  -4  12   6  229.38   22.00
  -4  12   6  321.17   32.80
  -4  12   6  243.58   25.30
   2 -12  -6   58.29   19.50
   2 -12  -6   89.99   19.40
   2 -12  -6   64.99   15.10
  -2  12   6   59.39   15.80
  -2  12   6   52.29   27.20
  -2  12   6   59.49   19.10
   0 -12  -6   85.59   21.10
   0 -12  -6   80.99   19.90
   0  12   6   69.69   18.90
   0  12   6  118.19   23.80
   0  12   6   75.39   27.70
  -2 -12  -6   54.79   20.50
  -2 -12  -6   53.89   21.00
   2  12   6   62.49   22.40
   2  12   6   85.89   25.90
  -4 -12  -6   40.70   23.00
  -4 -12  -6   40.70   25.10
   4  12   6   -5.90   24.40
   4  12   6   37.20   26.00
  -6 -12  -6   99.59   28.50
  -6 -12  -6   21.80   31.10
   6  12   6  -10.80   35.20
   6  12   6   11.60   28.20
  15 -13  -6   78.99   28.70
  13 -13  -6   79.49   23.50
  13 -13  -6   62.19   29.50
 -13  13   6   89.39   34.00
 -13  13   6   90.19   41.70
  11 -13  -6  234.78   28.50
  11 -13  -6  210.18   22.40
  11 -13  -6  228.48   28.90
 -11  13   6  212.28   36.90
 -11  13   6  184.98   41.30
   9 -13  -6   85.49   22.30
   9 -13  -6   76.39   22.10
  -9  13   6   67.39   33.30
  -9  13   6   86.39   19.10
  -9  13   6   37.80   28.20
   7 -13  -6   82.29   20.20
   7 -13  -6   88.59   20.60
  -7  13   6   69.19   19.70
  -7  13   6   60.49   27.90
   5 -13  -6   35.30   18.00
   5 -13  -6   47.40   17.40
   5 -13  -6   40.90   19.00
  -5  13   6   42.70   25.80
   3 -13  -6   29.80   18.50
   3 -13  -6   22.90   16.20
   3 -13  -6    1.00   16.70
  -3  13   6   21.40   20.30
  -3  13   6    7.00   25.00
  -3  13   6  -16.00   14.20
   1 -13  -6   63.79   19.80
   1 -13  -6   94.39   22.50
   1 -13  -6   62.79   16.60
  -1  13   6   37.70   29.00
  -1  13   6   91.89   24.60
  -1  13   6   66.59   19.30
  -1 -13  -6    1.50   19.40
  -1 -13  -6  -22.80   19.20
   1  13   6  -20.40   23.50
   1  13   6  -32.90   21.10
   1  13   6   -0.30   31.00
  -3 -13  -6   54.39   21.70
  -3 -13  -6   43.20   26.40
   3  13   6   -7.10   26.30
   3  13   6   81.69   29.20
  -5 -13  -6   50.69   26.10
  -5 -13  -6   37.10   29.90
   5  13   6   11.60   28.90
   5  13   6   56.29   33.30
  12 -14  -6   25.20   27.00
 -12  14   6  -23.50   37.50
 -12  14   6   32.30   36.10
  10 -14  -6    0.40   22.30
  10 -14  -6  -24.40   22.00
 -10  14   6  -57.39   33.30
 -10  14   6   28.10   31.60
   8 -14  -6   16.00   21.10
   8 -14  -6   10.20   20.50
  -8  14   6  -11.10   29.60
  -8  14   6   52.49   34.50
   6 -14  -6  -18.40   18.80
   6 -14  -6   -9.40   18.50
  -6  14   6   18.70   27.50
  -6  14   6   -6.80   19.90
   4 -14  -6  106.19   23.50
   4 -14  -6  114.39   22.00
   4 -14  -6  118.59   21.20
  -4  14   6  112.79   30.50
  -4  14   6  134.39   25.10
   2 -14  -6   17.60   17.70
   2 -14  -6    2.50   17.90
   2 -14  -6   21.40   19.80
  -2  14   6   24.00   18.30
  -2  14   6   27.60   23.30
  -2  14   6    9.20   30.10
   0 -14  -6   40.90   20.30
   0 -14  -6   33.60   22.70
   0  14   6   20.50   23.70
   0  14   6   -6.60   31.40
   0  14   6  -13.40   21.50
  -2 -14  -6   97.19   24.50
  -2 -14  -6   76.19   26.90
   2  14   6   37.00   27.70
   2  14   6  121.19   28.30
  -4 -14  -6   14.60   29.50
  -4 -14  -6  -33.50   24.70
   4  14   6   21.70   33.20
   4  14   6  -82.09   30.00
  11 -15  -6   72.59   29.10
  11 -15  -6  106.89   28.10
 -11  15   6    4.90   39.80
 -11  15   6   40.00   36.50
   9 -15  -6   65.99   26.70
   9 -15  -6   79.39   25.60
  -9  15   6   35.70   40.10
  -9  15   6   97.89   36.90
   7 -15  -6  169.58   26.60
   7 -15  -6  244.58   29.40
  -7  15   6  284.57   46.40
  -7  15   6  214.88   27.00
  -7  15   6  289.07   39.80
   5 -15  -6   64.69   22.60
   5 -15  -6  100.39   24.00
  -5  15   6   87.79   33.90
  -5  15   6   86.99   25.40
   3 -15  -6  344.87   37.80
   3 -15  -6  427.96   42.30
   3 -15  -6  442.66   39.10
  -3  15   6  389.56   35.20
  -3  15   6  401.76   43.80
   1 -15  -6   62.69   23.70
   1 -15  -6   78.59   23.20
  -1  15   6   93.09   37.30
  -1  15   6  100.99   27.00
  -1  15   6   64.19   23.90
  -1 -15  -6  190.88   31.00
  -1 -15  -6  206.58   28.60
   1  15   6  265.97   43.90
   1  15   6  190.68   32.20
   1  15   6  259.07   34.60
  -3 -15  -6   98.89   41.60
  -3 -15  -6    9.40   31.60
   3  15   6   76.29   34.80
   3  15   6  167.68   54.19
  10 -16  -6  254.77   36.30
  10 -16  -6  142.59   37.40
 -10  16   6  171.28   53.99
 -10  16   6  255.97   45.70
   8 -16  -6   13.80   25.80
   8 -16  -6   40.60   25.50
  -8  16   6  -11.40   42.10
  -8  16   6   95.79   36.90
   6 -16  -6  299.67   31.90
   6 -16  -6  237.28   30.20
  -6  16   6  305.67   42.70
  -6  16   6  264.37   31.20
   4 -16  -6   39.10   24.00
   4 -16  -6    1.40   22.60
   4 -16  -6   24.50   22.90
  -4  16   6  -14.90   25.90
  -4  16   6   52.89   34.80
   2 -16  -6  115.09   26.50
   2 -16  -6   94.79   25.30
  -2  16   6  131.09   38.80
  -2  16   6  132.79   30.70
   0 -16  -6   48.90   30.30
   0 -16  -6   29.00   26.10
   0  16   6  130.99   31.80
   0  16   6   22.70   39.00
   0  16   6   49.90   29.40
  -2 -16  -6   37.20   32.20
   2  16   6  -16.70   34.00
   9 -17  -6   79.69   34.20
  -9  17   6   71.19   48.90
   7 -17  -6   -7.40   30.50
   7 -17  -6   64.79   29.30
  -7  17   6  -29.40   40.00
  -7  17   6  -69.99   49.70
   5 -17  -6    9.50   26.00
  -5  17   6  -17.40   28.00
  -5  17   6   48.40   40.60
   3 -17  -6   72.19   28.80
   3 -17  -6   79.89   27.90
  -3  17   6  -16.10   28.40
  -3  17   6  -31.80   37.80
   1 -17  -6  -12.80   29.10
  -1  17   6   -2.60   34.70
  -1  17   6   31.70   67.89
  -8 -16   7   21.90   29.20
   6  16  -7   43.00   51.49
  -4 -16   7  -35.10   27.90
   9  15  -7  -16.30   33.40
   9  15  -7    0.40   35.50
  -9 -15   7    3.30   25.80
  -9 -15   7   22.80   28.70
   7  15  -7  175.18   35.00
   7  15  -7  129.79   34.70
  -7 -15   7  146.69   27.20
  -7 -15   7  202.28   29.00
   5  15  -7  104.89   33.20
   5  15  -7   90.79   33.10
  -5 -15   7   83.49   27.70
   3  15  -7  194.48   36.40
   3  15  -7  218.68   35.70
   3  15  -7  242.18   42.70
  -3 -15   7  169.08   29.30
  -3 -15   7  283.47   31.30
   1  15  -7   59.79   34.20
   1  15  -7    6.70   40.20
   1  15  -7   81.49   39.20
  -1 -15   7   74.99   29.40
  -1 -15   7   70.39   25.60
  12  14  -7  146.49   40.30
 -12 -14   7  104.59   41.90
 -12 -14   7  185.38   37.10
  10  14  -7   22.30   29.50
  10  14  -7  -32.60   27.60
 -10 -14   7    7.50   25.40
 -10 -14   7   43.00   24.40
   8  14  -7  201.78   31.90
   8  14  -7  145.29   32.70
  -8 -14   7  159.88   26.60
  -8 -14   7  137.29   25.70
   6  14  -7  -27.70   28.20
   6  14  -7   12.60   26.70
  -6 -14   7    4.40   21.50
  -6 -14   7   18.90   20.90
   4  14  -7   41.30   32.60
   4  14  -7   52.99   28.10
   4  14  -7   78.39   28.20
  -4 -14   7   60.09   21.90
  -4 -14   7   41.80   22.20
   2  14  -7  137.49   32.70
   2  14  -7  106.09   29.50
   2  14  -7   52.29   36.10
  -2 -14   7   61.29   24.20
  -2 -14   7   80.09   22.50
   0  14  -7   85.49   31.10
   0  14  -7   22.50   31.90
   0  14  -7  -12.20   36.70
   0 -14   7  -10.00   24.20
   0 -14   7   38.00   22.50
  -2  14  -7  159.28   51.59
   2 -14   7  143.79   33.20
  13  13  -7   70.69   36.30
  13  13  -7  -12.50   37.00
  13  13  -7   44.00   35.50
 -13 -13   7   32.10   32.00
 -13 -13   7   31.40   29.30
  11  13  -7   97.69   29.80
  11  13  -7   49.20   29.40
 -11 -13   7   73.19   23.60
 -11 -13   7    8.80   23.50
   9  13  -7  -26.80   26.40
   9  13  -7   16.20   25.00
  -9 -13   7   -2.80   21.20
  -9 -13   7   13.60   22.00
   7  13  -7   27.30   27.80
   7  13  -7   27.80   24.60
  -7 -13   7   22.30   20.10
  -7 -13   7   40.20   21.30
   5  13  -7  -20.60   44.50
   5  13  -7   63.19   25.90
   5  13  -7  -23.80   24.70
  -5 -13   7   22.60   20.20
  -5 -13   7   -9.70   18.50
  -5 -13   7   25.30   18.80
   3  13  -7   13.50   29.70
   3  13  -7   37.20   25.10
   3  13  -7   -4.70   26.50
  -3 -13   7    5.20   18.70
  -3 -13   7   11.50   19.10
   1  13  -7   42.90   26.30
   1  13  -7   21.50   31.40
   1  13  -7    4.80   25.70
  -1 -13   7   37.40   20.10
  -1 -13   7   15.70   18.70
  -1  13  -7   58.49   30.20
  -1  13  -7    6.60   35.00
   1 -13   7   46.00   21.50
   1 -13   7   44.70   23.80
  -3  13  -7  -13.90   51.19
   3 -13   7  -17.10   27.70
  14  12  -7   87.79   34.60
  14  12  -7  -73.49   32.40
  14  12  -7   34.00   34.70
 -14 -12   7    5.30   28.60
 -14 -12   7   -6.90   38.60
  12  12  -7   74.59   30.10
  12  12  -7   98.89   28.50
 -12 -12   7   88.69   25.00
 -12 -12   7   94.49   23.40
  10  12  -7   49.00   26.10
  10  12  -7   17.40   25.40
 -10 -12   7   46.60   20.00
 -10 -12   7   33.30   21.10
   8  12  -7  104.79   27.80
   8  12  -7   99.39   25.50
  -8 -12   7   69.69   21.10
  -8 -12   7   69.59   20.20
   6  12  -7   -1.40   22.80
   6  12  -7   14.70   24.10
   6  12  -7    7.60   24.40
  -6 -12   7    2.00   17.10
  -6 -12   7    8.40   18.30
  -6 -12   7  -27.90   16.20
   4  12  -7   26.90   24.10
   4  12  -7  -14.30   44.30
   4  12  -7    9.40   23.10
  -4 -12   7    1.80   15.30
  -4 -12   7  -20.10   17.60
  -4 -12   7   15.10   16.40
   2  12  -7   33.10   23.50
   2  12  -7   58.89   24.90
   2  12  -7   17.80   28.70
  -2 -12   7   53.59   19.80
  -2 -12   7    1.10   16.60
   0  12  -7   42.30   26.40
   0  12  -7   64.39   32.50
   0 -12   7   69.09   20.70
   0 -12   7   46.10   20.90
  -2  12  -7   76.69   32.50
  -2  12  -7   92.89   37.80
   2 -12   7  112.89   25.60
   2 -12   7  109.39   22.70
  -4  12  -7   89.89   66.19
   4 -12   7  112.29   28.90
  15  11  -7   90.39   36.00
  15  11  -7   17.90   33.20
  15  11  -7   -7.30   33.80
 -15 -11   7   44.80   28.70
  13  11  -7   58.49   26.40
  13  11  -7   65.19   29.30
 -13 -11   7   38.10   21.70
 -13 -11   7   24.30   25.30
  11  11  -7  -26.60   21.90
  11  11  -7   14.50   23.20
 -11 -11   7   -6.80   19.50
 -11 -11   7   -8.40   19.00
   9  11  -7  250.27   29.60
   9  11  -7  228.28   33.30
  -9 -11   7  231.88   24.40
  -9 -11   7  217.08   25.50
   7  11  -7   44.80   24.70
   7  11  -7   15.30   20.70
  -7 -11   7   43.70   16.00
  -7 -11   7   22.80   16.70
   5  11  -7  444.46   41.10
   5  11  -7  516.55   41.70
   5  11  -7  426.16   39.60
  -5 -11   7  477.05   32.70
  -5 -11   7  429.46   43.00
  -5 -11   7  459.55   30.80
   3  11  -7  132.59   26.10
   3  11  -7  174.98   27.40
  -3 -11   7  165.78   21.70
  -3 -11   7  110.59   16.40
  -3 -11   7  167.78   19.80
   1  11  -7  455.65   43.10
   1  11  -7  455.95   46.20
   1  11  -7  410.86   40.40
  -1 -11   7  378.96   35.30
  -1 -11   7  429.36   33.20
  -1  11  -7   30.60   30.80
  -1  11  -7   -2.00   24.20
   1 -11   7   23.80   19.10
   1 -11   7   -2.20   18.80
  -3  11  -7   39.20   31.00
  -3  11  -7   48.20   34.40
   3 -11   7   80.09   25.50
   3 -11   7   37.70   19.90
   5 -11   7   13.10   29.00
  16  10  -7   11.60   45.30
  16  10  -7   -9.40   45.00
  16  10  -7   -4.60   34.70
  14  10  -7   82.99   26.30
  14  10  -7   73.69   27.80
  14  10  -7   74.89   30.70
  14  10  -7   86.09   28.70
 -14 -10   7   80.69   24.10
 -14 -10   7  109.49   23.40
  12  10  -7    8.40   22.90
  12  10  -7   53.59   26.90
 -12 -10   7   37.00   20.30
 -12 -10   7    9.30   18.10
  10  10  -7   37.20   21.40
  10  10  -7   37.00   23.10
 -10 -10   7   -5.00   18.60
 -10 -10   7   25.70   17.40
 -10 -10   7   26.40   17.70
   8  10  -7    8.90   21.90
   8  10  -7    0.00   19.70
  -8 -10   7    2.60   15.30
  -8 -10   7  -20.70   13.90
   6  10  -7   18.40   22.10
   6  10  -7    7.00   21.70
   6  10  -7   29.40   20.30
  -6 -10   7   30.00   14.20
  -6 -10   7    1.30   13.90
  -6 -10   7   40.70   14.00
   4  10  -7   72.69   20.70
   4  10  -7   20.30   22.80
   4  10  -7   49.70   21.70
  -4 -10   7   48.80   13.90
  -4 -10   7   47.80   16.10
  -4 -10   7   46.80   14.20
   2  10  -7   27.40   21.10
   2  10  -7   27.70   30.80
   2  10  -7   46.70   20.60
  -2 -10   7   29.00   15.90
  -2 -10   7   31.80   11.90
   0  10  -7   33.50   28.30
   0  10  -7   49.40   23.90
   0 -10   7   46.40   16.20
   0 -10   7   40.10   18.60
  -2  10  -7   19.70   29.10
  -2  10  -7   78.29   27.00
   2 -10   7   54.59   20.20
   2 -10   7   11.70   18.20
  -4  10  -7  124.39   33.00
  -4  10  -7  152.98   38.60
   4 -10   7   38.00   22.00
   4 -10   7   63.89   25.90
   6 -10   7   15.70   30.60
  17   9  -7   44.40   47.00
  15   9  -7  172.38   30.30
  15   9  -7  124.69   33.00
  15   9  -7  178.08   30.30
  15   9  -7   43.30   25.80
 -15  -9   7  131.69   25.20
 -15  -9   7  181.78   27.60
  13   9  -7  -44.10   22.80
  13   9  -7  -17.60   22.60
 -13  -9   7  -13.20   18.20
 -13  -9   7  -11.50   19.60
 -13  -9   7    6.60   22.80
  11   9  -7   33.50   20.60
  11   9  -7   49.70   24.20
 -11  -9   7   17.90   18.50
 -11  -9   7   22.50   17.70
 -11  -9   7   23.40   17.30
   9   9  -7   38.70   37.10
   9   9  -7   48.50   22.60
  -9  -9   7   32.00   17.90
  -9  -9   7   11.20   15.50
  -9  -9   7   28.50   15.10
   7   9  -7   27.00   20.90
   7   9  -7    9.40   18.10
  -7  -9   7   -5.10   12.80
  -7  -9   7   -5.40   12.90
   5   9  -7  255.17   28.70
   5   9  -7  203.78   24.90
   5   9  -7  182.48   17.90
  -5  -9   7  198.48   18.40
  -5  -9   7  192.78   17.70
  -5  -9   7  210.58   18.10
   3   9  -7   12.40   21.80
   3   9  -7    1.00   19.40
   3   9  -7   20.70   19.90
  -3  -9   7   16.80   14.90
  -3  -9   7    6.20   11.10
  -3  -9   7   27.60   13.30
   1   9  -7  133.89   24.30
   1   9  -7   91.29   28.60
  -1  -9   7   91.59   16.70
  -1  -9   7   70.69   17.20
  -1   9  -7   -2.70   20.20
  -1   9  -7   41.80   26.20
   1  -9   7    3.20   15.50
   1  -9   7    4.80   16.00
  -3   9  -7   54.29   32.00
  -3   9  -7   -7.40   26.10
   3  -9   7   -6.00   17.70
   3  -9   7    5.20   20.20
  -5   9  -7    6.60   35.90
  -5   9  -7    7.60   33.10
   5  -9   7   27.40   21.30
   5  -9   7   -2.80   24.30
  16   8  -7   57.59   31.00
  16   8  -7   42.40   25.90
  16   8  -7  121.39   30.00
  16   8  -7  108.59   34.00
 -16  -8   7   18.10   31.00
 -16  -8   7   58.39   23.60
  14   8  -7  107.09   27.00
  14   8  -7  126.79   28.20
  14   8  -7   68.29   26.00
  14   8  -7   58.89   23.00
 -14  -8   7  100.49   25.90
 -14  -8   7  116.09   22.20
 -14  -8   7  109.49   21.90
  12   8  -7   47.40   21.90
  12   8  -7   49.30   24.10
 -12  -8   7   64.69   30.40
 -12  -8   7   28.70   21.90
 -12  -8   7   42.30   18.20
  10   8  -7  144.59   25.80
  10   8  -7  147.99   22.10
 -10  -8   7  155.68   19.40
 -10  -8   7  150.18   20.80
   8   8  -7   96.19   20.30
   8   8  -7  115.69   30.40
  -8  -8   7  116.09   16.30
  -8  -8   7  119.69   16.60
  -8  -8   7  120.79   16.00
   6   8  -7   26.20   11.30
   6   8  -7   29.60   16.60
   6   8  -7   23.60   17.60
   6   8  -7    8.90   20.10
  -6  -8   7   36.40   12.10
  -6  -8   7   25.50   12.90
  -6  -8   7   27.90   11.20
  -6  -8   7   19.30   12.10
   4   8  -7  -10.20   17.10
   4   8  -7   -0.30   17.10
   4   8  -7   -4.90   19.50
  -4  -8   7    0.90    9.60
  -4  -8   7   24.80   13.40
  -4  -8   7   -2.50   10.10
  -4  -8   7   -6.80   10.90
   2   8  -7  106.59   22.00
   2   8  -7   95.69   24.20
  -2  -8   7  102.49   24.20
  -2  -8   7  147.39   16.80
  -2  -8   7  107.29   12.80
   0   8  -7  178.78   26.30
   0   8  -7  108.69   25.80
   0  -8   7  100.79   16.40
   0  -8   7  130.99   19.50
  -2   8  -7  294.17   32.70
  -2   8  -7  292.57   38.00
   2  -8   7  234.38   24.30
   2  -8   7  204.48   22.70
  -4   8  -7  133.49   37.20
  -4   8  -7  133.89   30.70
   4  -8   7  152.18   23.10
   4  -8   7  147.89   23.60
  -6   8  -7  184.18   41.60
  -6   8  -7   85.89   40.40
   6  -8   7  138.69   25.50
   6  -8   7   89.39   27.40
  17   7  -7   -9.10   29.60
  17   7  -7   44.80   27.50
 -17  -7   7  -44.80   24.70
 -17  -7   7  -35.50   30.60
  15   7  -7   15.50   26.50
  15   7  -7  114.89   27.90
  15   7  -7   33.20   25.50
  15   7  -7   63.29   22.00
 -15  -7   7   56.19   20.00
 -15  -7   7   31.40   21.20
 -15  -7   7   73.79   26.50
  13   7  -7   11.40   19.10
  13   7  -7    3.70   20.20
  13   7  -7   -6.10   19.80
 -13  -7   7  -17.40   21.20
 -13  -7   7  -11.90   15.50
 -13  -7   7  -30.90   15.70
  11   7  -7  180.28   26.60
  11   7  -7  174.68   23.00
 -11  -7   7  193.18   20.40
 -11  -7   7  151.18   20.40
 -11  -7   7  207.18   23.40
   9   7  -7   47.50   20.20
   9   7  -7   16.90   17.70
  -9  -7   7   27.30   12.70
  -9  -7   7   26.00   12.60
  -9  -7   7   51.99   15.40
   7   7  -7  303.67   28.20
   7   7  -7  329.67   29.60
   7   7  -7  318.57   22.10
  -7  -7   7  311.97   24.50
  -7  -7   7  297.27   24.90
  -7  -7   7  329.77   24.00
  -7  -7   7  331.57   18.50
  -7  -7   7  296.67   21.00
   5   7  -7   47.60   20.50
   5   7  -7   27.30   12.80
   5   7  -7   10.30   14.80
   5   7  -7   15.30   17.40
  -5  -7   7   32.00   11.40
  -5  -7   7   15.60   10.60
  -5  -7   7   27.50   13.30
  -5  -7   7   41.00   10.70
   3   7  -7  509.95   34.20
   3   7  -7  488.35   38.10
   3   7  -7  497.55   33.50
  -3  -7   7  473.65   30.20
  -3  -7   7  450.65   25.70
  -3  -7   7  534.05   27.40
  -3  -7   7  455.05   27.70
   1   7  -7   55.39   22.30
   1   7  -7   39.30   19.80
  -1  -7   7   38.70   13.20
  -1  -7   7   45.30   14.30
  -1  -7   7   26.00    9.20
  -1  -7   7   35.20   13.10
  -1   7  -7  140.29   29.70
  -1   7  -7  113.69   24.00
   1  -7   7  169.28   20.50
   1  -7   7  137.99   17.40
   1  -7   7  127.39   18.30
  -3   7  -7   66.39   29.50
  -3   7  -7   15.30   23.70
   3  -7   7   -0.90   16.10
   3  -7   7   54.29   17.40
   3  -7   7   32.40   16.30
  -5   7  -7   76.19   30.10
  -5   7  -7    9.30   34.00
   5  -7   7   60.69   20.70
   5  -7   7    8.80   22.70
  -7   7  -7   20.20   39.40
  -7   7  -7   87.59   54.59
   7  -7   7   -8.10   27.60
   7  -7   7   59.89   25.60
  18   6  -7    9.00   31.80
  16   6  -7  -10.10   26.80
  16   6  -7    6.40   22.40
  16   6  -7  -21.90   24.80
  16   6  -7   75.99   25.30
 -16  -6   7  -42.50   18.40
 -16  -6   7  -25.40   24.80
  14   6  -7   27.80   21.90
  14   6  -7    2.00   20.30
  14   6  -7   14.20   19.10
  14   6  -7   25.00   23.10
 -14  -6   7   25.60   21.70
 -14  -6   7   45.70   17.00
 -14  -6   7   -6.00   17.40
  12   6  -7   15.50   19.30
  12   6  -7   26.60   18.30
 -12  -6   7   18.20   16.30
 -12  -6   7   10.00   14.30
 -12  -6   7   -2.50   18.60
  10   6  -7  146.89   20.50
  10   6  -7  169.08   24.00
 -10  -6   7  136.69   17.20
 -10  -6   7  154.18   17.10
 -10  -6   7  175.28   20.80
   8   6  -7   -1.20    9.00
   8   6  -7   -1.20   13.80
   8   6  -7   -9.70   16.90
  -8  -6   7   26.90   13.30
  -8  -6   7    6.70   11.30
  -8  -6   7   -3.40   12.90
   6   6  -7   27.50   18.30
   6   6  -7   58.19   15.80
   6   6  -7   35.60   16.90
   6   6  -7   43.80   11.30
  -6  -6   7   38.80   12.40
  -6  -6   7   47.60    9.80
  -6  -6   7   58.19   13.40
   4   6  -7   54.79   13.80
   4   6  -7   66.39   15.90
   4   6  -7   70.89   19.40
   4   6  -7   65.29   19.50
  -4  -6   7   71.49   13.70
  -4  -6   7   59.69   13.50
  -4  -6   7   70.99   11.00
  -4  -6   7   61.99   11.70
   2   6  -7    2.40   19.10
   2   6  -7   14.40   16.60
  -2  -6   7   15.10   11.60
  -2  -6   7    9.90   10.50
  -2  -6   7   14.10    8.60
  -2  -6   7   22.70   15.40
  -2  -6   7   -7.80   11.60
   0   6  -7    8.60   20.20
   0   6  -7  -15.70   16.10
   0  -6   7    0.00    7.80
   0  -6   7    3.90   11.90
   0  -6   7    8.20   13.40
   0  -6   7   12.70   11.60
  -2   6  -7    1.00   23.70
   2  -6   7   17.00   14.00
   2  -6   7   13.10   15.10
   2  -6   7   -4.00   23.10
  -4   6  -7   40.70   25.50
  -4   6  -7   23.60   30.30
   4  -6   7    4.90   16.00
   4  -6   7    1.60   18.30
   4  -6   7   32.40   17.60
  -6   6  -7  -39.20   33.80
  -6   6  -7   23.00   33.50
   6  -6   7   37.50   23.50
   6  -6   7    4.20   19.60
  -8   6  -7   29.00   43.90
  17   5  -7  153.18   27.90
  17   5  -7  188.68   31.90
 -17  -5   7  130.49   30.20
 -17  -5   7  157.18   26.70
  15   5  -7   10.20   20.10
  15   5  -7    9.60   21.90
  15   5  -7   62.89   23.40
  15   5  -7   58.89   24.90
 -15  -5   7   32.30   23.60
 -15  -5   7   14.50   19.20
 -15  -5   7   62.39   27.80
 -15  -5   7   63.79   18.30
  13   5  -7   75.59   19.60
  13   5  -7   62.69   21.20
 -13  -5   7   34.50   22.90
 -13  -5   7   39.90   19.80
 -13  -5   7   32.10   14.70
  11   5  -7   16.10   18.50
  11   5  -7   16.50   15.10
 -11  -5   7   -8.50   15.30
 -11  -5   7   22.50   17.30
 -11  -5   7   20.60   12.80
   9   5  -7   29.30   14.00
   9   5  -7   10.40   15.30
   9   5  -7   24.60    9.50
  -9  -5   7    4.60   11.80
  -9  -5   7   25.10   15.00
  -9  -5   7   28.60   14.20
   7   5  -7  174.68   18.70
   7   5  -7  138.09   21.00
   7   5  -7  142.99   13.90
  -7  -5   7  137.89   16.60
  -7  -5   7  144.69   17.10
  -7  -5   7  139.79   16.30
  -7  -5   7  128.39   11.90
  -7  -5   7  120.39   14.60
   5   5  -7  115.79   17.00
   5   5  -7  112.09   21.20
   5   5  -7  105.49   19.40
   5   5  -7  111.19   14.60
  -5  -5   7   87.49   13.80
  -5  -5   7   64.79   12.80
  -5  -5   7  134.89   15.90
  -5  -5   7   93.59   10.60
   3   5  -7  388.36   27.80
   3   5  -7  282.47   28.20
   3   5  -7  311.87   26.80
   3   5  -7  338.27   32.90
  -3  -5   7  328.07   20.40
  -3  -5   7  348.27   23.90
  -3  -5   7  306.37   22.20
  -3  -5   7  316.97   24.60
   1   5  -7   -0.40   15.40
   1   5  -7   19.40   18.90
  -1  -5   7   20.90   12.00
  -1  -5   7   32.60   11.50
  -1  -5   7   20.30   10.60
  -1  -5   7    9.60   12.20
  -1   5  -7  101.09   31.80
  -1   5  -7   68.29   20.20
   1  -5   7   95.69   16.40
   1  -5   7   88.39   14.60
   1  -5   7   95.59   15.60
  -3   5  -7   17.20   24.80
   3  -5   7   12.40   14.60
   3  -5   7  -12.90   15.80
   3  -5   7   18.50   14.60
  -5   5  -7   41.20   26.70
  -5   5  -7   31.10   30.20
   5  -5   7   17.70   19.90
   5  -5   7   15.90   18.80
   5  -5   7   65.19   19.00
  -7   5  -7   23.80   35.30
  -7   5  -7    5.60   36.10
   7  -5   7   28.70   24.90
   7  -5   7   49.00   22.60
  18   4  -7  -16.00   26.70
  18   4  -7   -7.10   28.00
 -18  -4   7  -14.30   24.20
 -18  -4   7   60.19   31.70
  16   4  -7   47.50   22.80
  16   4  -7   -4.80   23.40
 -16  -4   7   14.20   18.80
 -16  -4   7   65.29   25.10
 -16  -4   7   78.39   27.60
  14   4  -7   22.70   19.70
  14   4  -7   18.80   18.40
  14   4  -7   37.30   17.90
  14   4  -7   69.19   22.50
 -14  -4   7   70.49   16.10
 -14  -4   7   53.69   23.40
 -14  -4   7   53.79   21.90
  12   4  -7   50.79   17.70
  12   4  -7   38.30   16.30
 -12  -4   7   36.70   19.30
 -12  -4   7   36.40   18.50
 -12  -4   7   46.40   13.30
  10   4  -7   69.49   18.50
  10   4  -7   53.39   15.00
  10   4  -7   48.10   10.00
 -10  -4   7   77.89   13.40
 -10  -4   7   48.90   16.50
 -10  -4   7   71.69   17.40
   8   4  -7   75.99   16.80
   8   4  -7   52.79   10.40
   8   4  -7   57.89   13.60
  -8  -4   7   38.60   15.30
  -8  -4   7   40.80   11.80
  -8  -4   7   33.40   13.70
  -8  -4   7   54.49   13.20
   6   4  -7   28.40   15.40
   6   4  -7   28.60   10.90
   6   4  -7   34.80   12.60
  -6  -4   7   28.40    7.60
  -6  -4   7   46.80   13.90
  -6  -4   7   21.50   11.50
  -6  -4   7   19.50   11.00
   4   4  -7   14.70   11.90
   4   4  -7   -0.10   13.30
   4   4  -7   31.70   16.30
   4   4  -7    0.50   12.20
  -4  -4   7   18.90    8.20
  -4  -4   7   -3.10   10.10
  -4  -4   7   16.80   10.50
  -4  -4   7   23.10   11.80
   2   4  -7   20.40   17.90
   2   4  -7   16.70   15.20
  -2  -4   7    6.00   11.20
  -2  -4   7   25.90    9.30
  -2  -4   7    5.30   11.30
   0   4  -7  224.58   23.30
   0   4  -7  247.88   28.30
   0  -4   7  223.38   18.90
   0  -4   7  179.98   16.50
   0  -4   7  224.88   22.40
  -2   4  -7   91.49   21.50
  -2   4  -7   74.19   26.50
   2  -4   7   69.39   15.50
   2  -4   7   81.49   15.60
  -4   4  -7  178.18   46.50
  -4   4  -7  101.49   29.00
   4  -4   7  120.49   20.00
   4  -4   7   91.99   19.50
   4  -4   7  109.49   19.00
  -6   4  -7   56.19   31.60
  -6   4  -7   23.70   29.60
   6  -4   7   54.09   22.60
   6  -4   7   19.90   19.70
  -8   4  -7   32.00   39.20
  -8   4  -7   79.89   45.80
   8  -4   7   19.40   25.80
   8  -4   7   88.79   30.10
  19   3  -7  -40.80   31.20
  19   3  -7  -21.30   32.40
  17   3  -7  141.09   28.00
  17   3  -7   98.49   24.70
 -17  -3   7   64.59   23.00
 -17  -3   7  120.39   32.40
 -17  -3   7  117.59   27.30
  15   3  -7    6.60   20.00
  15   3  -7   23.40   18.00
 -15  -3   7   56.19   15.80
 -15  -3   7   29.00   22.80
 -15  -3   7   43.10   25.60
  13   3  -7   36.20   16.60
  13   3  -7   56.69   16.90
  13   3  -7   61.99   19.30
 -13  -3   7   52.89   13.60
 -13  -3   7   30.40   19.30
  11   3  -7   28.60   14.20
  11   3  -7    8.30   15.00
  11   3  -7   25.60   16.10
  11   3  -7    8.70    8.80
 -11  -3   7   18.50   17.00
 -11  -3   7   30.30   17.20
 -11  -3   7   14.20   11.30
   9   3  -7  174.18   21.30
   9   3  -7  156.58   16.50
   9   3  -7  146.09   13.50
  -9  -3   7  111.79   14.00
  -9  -3   7  166.28   20.50
  -9  -3   7  142.69   18.90
  -9  -3   7  132.49   15.60
   7   3  -7  -13.80   14.40
   7   3  -7  -12.40   11.00
   7   3  -7    1.40    9.50
  -7  -3   7   -3.20    9.40
  -7  -3   7    9.10    6.60
  -7  -3   7   -2.40    9.60
  -7  -3   7  -17.10   12.90
   5   3  -7   38.60   11.50
   5   3  -7   38.20   17.30
   5   3  -7   43.00   12.60
   5   3  -7   33.60   14.50
  -5  -3   7   36.20   13.50
  -5  -3   7   28.20    7.30
  -5  -3   7   43.70   11.30
  -5  -3   7   50.89   11.40
   3   3  -7    3.80   13.70
   3   3  -7    5.90   16.40
   3   3  -7   -9.30   11.30
  -3  -3   7    8.40   11.00
  -3  -3   7    6.80   12.30
  -3  -3   7   14.30    7.80
   1   3  -7  148.59   23.60
   1   3  -7  153.88   19.40
  -1  -3   7  137.89   16.40
  -1  -3   7  127.89   13.40
  -1  -3   7  142.19   16.60
  -1   3  -7   32.40   17.10
  -1   3  -7   35.20   21.10
  -1   3  -7   16.90    5.80
   1  -3   7   42.10   12.50
   1  -3   7   30.90   13.20
   1  -3   7   13.50   14.30
  -3   3  -7   33.70   19.20
  -3   3  -7   43.50   24.40
   3  -3   7   41.90   14.80
   3  -3   7   44.50   17.50
   3  -3   7   18.20   14.90
  -5   3  -7   25.80   26.40
  -5   3  -7   43.00   26.50
   5  -3   7   -9.10   18.50
   5  -3   7    8.80   15.60
  -7   3  -7   74.39   34.30
  -7   3  -7   -2.80   34.10
   7  -3   7   23.20   20.20
   7  -3   7   17.40   24.80
  18   2  -7  -39.90   26.70
  18   2  -7  -26.60   22.70
  18   2  -7  -38.60   24.50
 -18  -2   7  -16.60   23.30
 -18  -2   7   -6.40   34.00
 -18  -2   7  -45.20   26.50
  16   2  -7   42.20   20.80
  16   2  -7   56.19   21.90
 -16  -2   7   21.40   23.70
 -16  -2   7   54.39   29.80
  14   2  -7   24.10   15.70
  14   2  -7   26.90   20.20
  14   2  -7   20.20   17.90
  14   2  -7    2.00   16.10
 -14  -2   7   16.70   21.30
 -14  -2   7   -1.60   23.00
 -14  -2   7   24.70   13.30
  12   2  -7  142.49   21.80
  12   2  -7  143.79   19.50
  12   2  -7  140.19   17.40
  12   2  -7  170.58   18.30
 -12  -2   7  187.28   22.70
 -12  -2   7  201.18   24.40
 -12  -2   7  171.08   16.30
  10   2  -7  172.38   21.50
  10   2  -7  186.48   17.40
  10   2  -7  193.48   18.80
 -10  -2   7  175.68   16.30
 -10  -2   7  194.58   19.30
 -10  -2   7  221.68   23.50
 -10  -2   7  203.98   21.40
   8   2  -7  114.49   13.50
   8   2  -7  130.09   14.70
   8   2  -7  105.29   18.60
  -8  -2   7  135.39   14.50
  -8  -2   7  123.19   14.90
  -8  -2   7  134.99   18.40
   6   2  -7   74.99   12.60
   6   2  -7   59.69   12.60
   6   2  -7   96.79   17.30
  -6  -2   7   72.19    8.10
  -6  -2   7   76.59   15.40
  -6  -2   7   76.19    9.40
  -6  -2   7   79.99   12.90
   4   2  -7   97.49   14.80
   4   2  -7   79.99   14.00
   4   2  -7   89.29   13.40
   4   2  -7   86.39   16.50
   4   2  -7   77.89   19.50
  -4  -2   7   96.49   15.70
  -4  -2   7   87.69   13.50
  -4  -2   7   60.09    8.70
   2   2  -7  -14.30   12.90
   2   2  -7  -24.20   16.40
   2   2  -7  -18.40   12.30
  -2  -2   7   -0.60    7.70
  -2  -2   7    7.10   12.80
  -2  -2   7    1.90   11.30
   0   2  -7  145.99   23.90
   0   2  -7  135.19   11.60
   0   2  -7  133.99   18.50
   0  -2   7  146.39   14.50
   0  -2   7  154.98   19.10
   0  -2   7  161.28   17.50
  -2   2  -7   34.40   23.20
  -2   2  -7   45.40   10.00
  -2   2  -7   57.59   18.70
   2  -2   7   53.29   12.70
   2  -2   7   38.50   17.00
   2  -2   7   15.90   14.70
  -4   2  -7   16.50   23.60
  -4   2  -7    1.40   11.70
  -4   2  -7   32.40   20.50
   4  -2   7  -16.10   13.60
   4  -2   7   16.70   16.30
   4  -2   7   12.40   20.30
  -6   2  -7   51.09   26.70
  -6   2  -7  -41.30   29.50
   6  -2   7  -31.70   27.70
   6  -2   7   23.50   19.10
  -8   2  -7  -53.19   38.80
   8  -2   7   23.00   22.20
  19   1  -7  175.28   34.20
 -19  -1   7  254.27   44.40
  17   1  -7   89.49   24.80
  17   1  -7   39.20   23.60
  17   1  -7   70.09   22.90
 -17  -1   7   44.70   24.70
 -17  -1   7  132.29   35.40
  15   1  -7   79.59   20.40
  15   1  -7   89.79   19.20
 -15  -1   7   89.29   27.20
 -15  -1   7  125.79   25.90
  13   1  -7    1.30   15.20
  13   1  -7   18.10   29.60
  13   1  -7    3.10   13.50
  13   1  -7   32.50   11.20
 -13  -1   7   -4.70   19.50
 -13  -1   7    0.60   11.40
  11   1  -7   20.00   15.50
  11   1  -7   23.80   14.70
  11   1  -7   27.40    9.90
  11   1  -7   34.60   11.80
 -11  -1   7   38.30   11.20
 -11  -1   7   18.30   18.20
 -11  -1   7   20.70   16.10
 -11  -1   7    7.80   11.70
   9   1  -7   -9.30    9.40
   9   1  -7    7.70   13.70
   9   1  -7   11.70   10.00
  -9  -1   7   11.40   10.10
  -9  -1   7   18.40   17.20
  -9  -1   7    5.00    9.80
  -9  -1   7   20.30   15.10
   7   1  -7   -9.30    9.60
   7   1  -7    6.00    9.50
   7   1  -7  -16.70   13.40
  -7  -1   7   10.80   10.50
  -7  -1   7    0.60   13.00
   5   1  -7  282.77   18.20
   5   1  -7  324.77   20.60
   5   1  -7  305.47   24.60
   5   1  -7  308.47   23.80
  -5  -1   7  317.77   25.60
  -5  -1   7  293.97   22.80
  -5  -1   7  289.37   15.30
  -5  -1   7  301.17   16.90
   3   1  -7   24.70   13.50
   3   1  -7   -4.80   15.90
   3   1  -7   23.60   13.00
  -3  -1   7   20.10   11.20
  -3  -1   7    4.50    6.90
  -3  -1   7   35.10   14.30
   1   1  -7   95.99    9.30
   1   1  -7  106.29   17.10
   1   1  -7   97.99   20.90
   1   1  -7   91.59   17.90
  -1  -1   7  105.99   11.70
  -1  -1   7  100.49   16.80
  -1  -1   7  117.59   14.80
  -1   1  -7   21.70   19.70
  -1   1  -7   16.40   14.90
  -1   1  -7  -21.00    7.80
   1  -1   7    3.30    9.90
   1  -1   7    7.20   15.40
   1  -1   7   -0.90   12.20
  -3   1  -7   13.60   17.30
  -3   1  -7   40.50   27.90
  -3   1  -7  -12.70   10.80
   3  -1   7   11.50   12.60
   3  -1   7   18.30   19.40
   3  -1   7   28.90   15.30
  -5   1  -7  105.99   24.50
  -5   1  -7   45.00   29.90
  -5   1  -7   62.39   16.80
   5  -1   7   80.29   28.00
   5  -1   7   80.49   20.10
   5  -1   7   65.59   17.20
   5  -1   7  135.49   23.10
  -7   1  -7   57.89   35.80
  -7   1  -7   79.99   33.70
   7  -1   7   62.79   23.30
   7  -1   7   24.30   19.10
   7  -1   7   60.79   24.70
  18   0  -7   27.30   30.90
  18   0  -7   10.40   23.50
  18   0  -7  -20.30   25.70
 -18   0   7  -11.50   27.30
 -18   0   7   48.10   36.70
  16   0  -7  -11.10   19.20
  16   0  -7   -4.40   18.90
  16   0  -7    8.90   19.10
 -16   0   7   20.40   28.10
 -16   0   7   11.40   24.50
  14   0  -7  -11.60   13.70
  14   0  -7    6.70   15.70
 -14   0   7  -14.90   19.70
 -14   0   7   -3.50   22.20
 -14   0   7    1.30   11.50
  12   0  -7    0.30   10.50
  12   0  -7   20.30   14.60
  12   0  -7   -8.00   16.00
  12   0  -7   12.30   11.00
 -12   0   7  -14.00   15.50
 -12   0   7   -1.70   19.60
 -12   0   7   -3.60   10.10
  10   0  -7   10.70   13.20
  10   0  -7   26.40   14.70
  10   0  -7   -1.60    9.30
  10   0  -7    7.60   10.40
 -10   0   7   -7.80   16.40
 -10   0   7   14.60   11.00
 -10   0   7    4.20    9.50
 -10   0   7   15.20   15.70
   8   0  -7  -14.20   12.40
   8   0  -7    1.80    9.60
   8   0  -7  -15.40    8.00
  -8   0   7  -13.10   14.30
  -8   0   7   10.00   10.30
   6   0  -7    1.10   12.10
   6   0  -7   -5.20   10.30
   6   0  -7   -4.50    8.70
   6   0  -7    0.00    8.10
  -6   0   7   -2.50    9.90
  -6   0   7    5.10    3.60
  -6   0   7    9.10    8.80
  -6   0   7   10.80   14.00
   4   0  -7    4.40   15.50
   4   0  -7    2.70    5.80
   4   0  -7   -9.60   12.50
   4   0  -7   -3.70   10.20
   4   0  -7    3.70    8.80
  -4   0   7  -10.90    8.00
  -4   0   7    3.80    6.00
  -4   0   7   11.50   10.80
  -4   0   7    8.90   13.50
   2   0  -7   -9.10   12.30
   2   0  -7    9.20   16.30
   2   0  -7  -15.60   11.90
   2   0  -7   14.90    7.20
  -2   0   7  -11.80   13.00
  -2   0   7    5.00    7.40
  -2   0   7    5.40   10.30
   0   0  -7    0.20   14.50
   0   0  -7  -12.30    7.70
   0   0  -7    7.50   13.00
   0   0  -7  -11.70   17.90
   0   0   7    4.60   15.00
   0   0   7    3.80   12.40
   0   0   7   -3.90    8.80
  -2   0  -7   -4.00   14.50
  -2   0  -7    3.30   10.30
  -2   0  -7   -9.70   20.10
   2   0   7  -14.30   10.20
   2   0   7   -8.10   14.00
   2   0   7  -13.50   12.40
   2   0   7  -17.20   17.40
  -4   0  -7   32.20   19.60
  -4   0  -7    1.90   13.30
  -4   0  -7   15.70   25.20
   4   0   7   15.40   17.50
   4   0   7   27.20   17.20
   4   0   7   26.00   23.40
  -6   0  -7   39.80   29.40
  -6   0  -7   29.20   23.60
  -6   0  -7  -17.70   18.50
   6   0   7   39.00   21.30
   6   0   7   35.70   37.50
   6   0   7   -0.70   17.20
   6   0   7    1.10   21.80
  -8   0  -7   18.90   40.20
   8   0   7  -21.60   27.50
   8   0   7   16.70   22.90
  19  -1  -7  158.78   33.50
  19  -1  -7  117.99   44.90
 -19   1   7  174.28   47.20
  17  -1  -7   92.69   23.10
  17  -1  -7   84.99   32.50
  17  -1  -7   84.19   24.80
 -17   1   7  104.99   34.70
 -17   1   7   46.80   25.60
  15  -1  -7   98.39   20.80
  15  -1  -7   70.49   19.20
  15  -1  -7   84.09   17.90
 -15   1   7  111.99   29.20
 -15   1   7  103.99   26.30
  13  -1  -7    9.00   11.70
  13  -1  -7   18.10   12.80
 -13   1   7   16.90   21.90
 -13   1   7    3.70   26.30
 -13   1   7   -8.00   10.60
  11  -1  -7   12.70    9.70
  11  -1  -7   13.70   10.90
  11  -1  -7   24.10   15.30
  11  -1  -7   11.90   13.00
 -11   1   7   36.10   12.20
 -11   1   7   14.40   18.90
 -11   1   7   21.40   10.90
 -11   1   7   33.30   18.10
   9  -1  -7   14.20   12.00
   9  -1  -7   19.20    8.40
   9  -1  -7    8.70   13.10
   9  -1  -7   -3.90   10.30
  -9   1   7    1.30   16.20
  -9   1   7   13.20   10.20
   7  -1  -7  -10.20   10.30
   7  -1  -7    0.80    7.90
   7  -1  -7    6.80   11.80
  -7   1   7    2.00   14.80
  -7   1   7    3.10    9.70
   5  -1  -7  306.07   19.20
   5  -1  -7  326.47   23.30
   5  -1  -7  315.57   15.80
   5  -1  -7  345.67   25.60
  -5   1   7  280.37   27.10
  -5   1   7  302.87   23.30
  -5   1   7  331.77   13.80
   3  -1  -7   14.50   12.70
   3  -1  -7   21.00    7.20
   3  -1  -7   12.10    3.50
   3  -1  -7   -3.50   15.80
   3  -1  -7   24.80    9.20
   3  -1  -7   22.90   12.90
  -3   1   7    4.90   14.10
  -3   1   7    2.00   10.40
  -3   1   7   11.60    6.90
   1  -1  -7  127.09   21.30
   1  -1  -7   85.09   17.90
   1  -1  -7   88.09   10.60
   1  -1  -7  119.29   16.40
  -1   1   7   98.59   15.30
  -1   1   7  100.19   11.00
  -1   1   7  113.29   19.10
  -1  -1  -7    0.50   19.60
  -1  -1  -7    5.10   16.10
  -1  -1  -7    6.60   13.40
  -1  -1  -7   -2.30    9.90
   1   1   7    6.70   10.00
   1   1   7    8.30   13.00
   1   1   7   -0.80   13.00
   1   1   7    0.50   16.90
  -3  -1  -7  -19.60   11.50
  -3  -1  -7   -2.70   16.00
  -3  -1  -7   14.70   27.00
   3   1   7   -0.90   20.80
   3   1   7   11.30   14.20
   3   1   7    9.40   13.30
   3   1   7   -7.50   15.80
  -5  -1  -7   46.40   27.30
  -5  -1  -7   77.59   18.10
  -5  -1  -7   95.19   23.80
   5   1   7   78.09   18.00
   5   1   7   79.59   21.60
   5   1   7   88.79   29.40
   5   1   7   80.39   21.60
  -7  -1  -7   16.20   24.00
  -7  -1  -7   61.49   36.60
   7   1   7   10.40   26.40
   7   1   7   65.79   25.40
   7   1   7   31.00   20.40
  18  -2  -7    4.50   26.20
  18  -2  -7   29.50   24.90
 -18   2   7   23.10   28.20
 -18   2   7  -42.80   37.90
  16  -2  -7   54.49   21.60
  16  -2  -7    9.80   18.70
 -16   2   7   27.70   24.20
 -16   2   7   -1.80   30.30
  14  -2  -7   13.80   13.00
  14  -2  -7   27.90   14.80
  14  -2  -7   11.60   13.60
  14  -2  -7   28.50   17.70
 -14   2   7   15.50   19.40
 -14   2   7   13.20   12.50
  12  -2  -7  150.28   16.70
  12  -2  -7  152.08   13.30
  12  -2  -7  150.38   16.00
  12  -2  -7  147.69   19.40
 -12   2   7  142.09   16.50
 -12   2   7  181.78   26.10
 -12   2   7  173.28   17.90
 -12   2   7  240.68   30.70
  10  -2  -7  177.08   17.90
  10  -2  -7  185.58   19.20
  10  -2  -7  199.78   21.10
  10  -2  -7  180.98   15.10
 -10   2   7  170.48   24.70
 -10   2   7  205.48   24.70
 -10   2   7  220.58   21.20
   8  -2  -7  117.09   15.70
   8  -2  -7  106.19   10.20
   8  -2  -7  108.19   15.80
   8  -2  -7  103.79   14.40
  -8   2   7  113.59   19.80
  -8   2   7  112.39   14.20
   6  -2  -7   70.59    7.20
   6  -2  -7   81.39   14.10
   6  -2  -7   70.69    9.30
   6  -2  -7   71.79   14.10
   6  -2  -7   57.49   13.30
  -6   2   7   67.79   13.40
  -6   2   7   57.49   17.00
   4  -2  -7   72.09    4.90
   4  -2  -7   77.39   14.40
   4  -2  -7   75.59    4.50
   4  -2  -7   49.30   13.20
   4  -2  -7   92.19    8.60
  -4   2   7   73.19   13.30
  -4   2   7   82.89   18.20
  -4   2   7   83.69    8.30
   2  -2  -7   10.30   16.20
   2  -2  -7    2.50    7.80
   2  -2  -7  -14.20   11.20
   2  -2  -7    7.50   12.00
  -2   2   7  -12.20    6.50
  -2   2   7  -17.10   14.40
  -2   2   7    1.70   11.20
   0  -2  -7  156.08   14.20
   0  -2  -7  161.28   17.80
   0  -2  -7  146.29   20.60
   0  -2  -7  137.29   22.10
   0   2   7  170.08   16.30
   0   2   7  170.28   23.10
   0   2   7  159.88   18.80
   0   2   7  142.49   17.50
  -2  -2  -7   62.49   22.70
  -2  -2  -7   47.90   20.10
  -2  -2  -7   26.90   14.50
  -2  -2  -7   38.10   12.90
   2   2   7   49.70   21.70
   2   2   7   42.70   14.60
   2   2   7   50.09   16.20
   2   2   7   39.80   12.70
  -4  -2  -7  -16.00   16.70
  -4  -2  -7  -18.70   20.50
  -4  -2  -7   36.70   24.60
  -4  -2  -7    9.60   14.30
   4   2   7   40.50   25.00
   4   2   7    3.10   16.30
   4   2   7   -1.90   17.20
  -6  -2  -7   39.20   20.50
  -6  -2  -7   24.90   30.20
  -6  -2  -7   17.70   23.50
   6   2   7   -1.60   23.20
   6   2   7   -0.20   20.50
   6   2   7   27.00   18.40
  -8  -2  -7    2.20   38.80
  -8  -2  -7   -9.40   31.00
  -8  -2  -7  -11.00   27.70
   8   2   7   35.10   28.40
   8   2   7  -64.99   21.10
   8   2   7  -18.50   29.50
  17  -3  -7  109.19   23.80
  17  -3  -7   88.79   26.30
 -17   3   7   75.69   27.40
 -17   3   7  106.19   35.70
  15  -3  -7   14.30   16.30
  15  -3  -7   26.80   20.00
 -15   3   7   30.30   27.90
 -15   3   7   23.50   22.10
  13  -3  -7   47.10   15.50
  13  -3  -7   51.09   14.40
  13  -3  -7   55.79   17.60
  13  -3  -7   62.69   11.50
 -13   3   7   65.89   26.90
 -13   3   7   83.19   12.40
 -13   3   7   35.80   21.20
 -13   3   7   51.79   14.60
  11  -3  -7   17.00   10.00
  11  -3  -7   32.60   12.70
  11  -3  -7   28.40   13.00
  11  -3  -7   22.50   13.10
 -11   3   7   18.60   20.20
 -11   3   7    1.30   11.10
 -11   3   7   50.59   19.50
   9  -3  -7  148.99   14.40
   9  -3  -7  143.99   18.10
   9  -3  -7  110.19   15.60
   9  -3  -7  133.19    8.90
   9  -3  -7  175.58   18.80
  -9   3   7  124.39   15.60
  -9   3   7  134.79   21.40
   7  -3  -7   -4.00   11.10
   7  -3  -7  -10.30    6.10
   7  -3  -7    3.10    3.40
   7  -3  -7   -5.70   11.00
   7  -3  -7   -7.90   10.80
  -7   3   7   -4.80   10.60
  -7   3   7    7.70   15.50
   5  -3  -7   30.00   12.10
   5  -3  -7   31.60    5.00
   5  -3  -7   38.80    3.90
   5  -3  -7   33.10   12.00
   5  -3  -7   30.30   12.80
   5  -3  -7   41.10    3.70
  -5   3   7   30.40   15.60
  -5   3   7   25.70   12.30
  -5   3   7   41.70    3.90
   3  -3  -7   -1.30   12.50
   3  -3  -7    2.10   10.90
   3  -3  -7   12.90    5.90
   3  -3  -7   10.90    8.90
  -3   3   7    3.70   14.10
  -3   3   7   -6.80   11.10
  -3   3   7    7.40    6.40
   1  -3  -7  116.49   18.50
   1  -3  -7  135.59   15.40
   1  -3  -7  140.09   13.30
   1  -3  -7   94.19   20.70
  -1   3   7  108.59   21.70
  -1   3   7  122.69   16.80
  -1   3   7  126.39   11.70
  -1   3   7  143.49   16.10
  -1  -3  -7   20.60   12.70
  -1  -3  -7   11.90   15.80
  -1  -3  -7   19.70   18.60
  -1  -3  -7   12.30   11.70
   1   3   7   17.40   14.10
   1   3   7    7.60   20.60
   1   3   7   32.00   14.50
   1   3   7   25.40   10.30
  -3  -3  -7   16.70   22.60
  -3  -3  -7   30.90   14.20
  -3  -3  -7   38.20   19.00
  -3  -3  -7   25.80   15.70
   3   3   7    8.10   12.70
   3   3   7   20.20   23.30
   3   3   7   43.10   17.90
   3   3   7   54.09   29.10
  -5  -3  -7  -19.80   21.00
  -5  -3  -7  -11.40   19.50
  -5  -3  -7   -5.80   27.50
   5   3   7    4.80   16.10
   5   3   7    9.30   19.90
   5   3   7    9.80   21.10
  -7  -3  -7    0.30   36.50
  -7  -3  -7   18.80   28.20
  -7  -3  -7   29.70   25.00
   7   3   7   50.09   28.10
   7   3   7   44.40   26.00
   7   3   7   46.70   21.70
  18  -4  -7   54.59   28.00
  18  -4  -7   82.79   25.30
 -18   4   7   -1.30   31.40
 -18   4   7   -6.10   37.40
  16  -4  -7   48.40   24.30
  16  -4  -7   38.90   19.70
 -16   4   7   50.99   26.70
 -16   4   7   52.99   32.10
  14  -4  -7   42.70   15.30
  14  -4  -7   23.20   16.40
  14  -4  -7   35.50   18.80
 -14   4   7   42.60   24.00
 -14   4   7   71.89   30.00
  12  -4  -7   45.60   14.90
  12  -4  -7   28.10   12.10
 -12   4   7   49.70   11.70
 -12   4   7   63.69   25.00
 -12   4   7   19.50   12.50
  10  -4  -7   65.89   15.20
  10  -4  -7   70.99   11.00
  10  -4  -7   65.89   14.20
 -10   4   7   78.59   23.70
 -10   4   7   59.19   19.80
 -10   4   7   40.90   13.30
   8  -4  -7   40.10   13.80
   8  -4  -7   59.29   13.30
   8  -4  -7   28.30   13.50
   8  -4  -7   45.40    8.40
  -8   4   7   43.00   13.30
  -8   4   7   67.99   19.20
   6  -4  -7   27.80   11.50
   6  -4  -7   38.80    4.30
   6  -4  -7   28.50   12.60
   6  -4  -7   12.10   11.50
  -6   4   7   36.60   16.60
  -6   4   7   38.20   12.90
   4  -4  -7   33.30   10.80
   4  -4  -7    7.10    9.10
   4  -4  -7   12.00   12.10
   4  -4  -7   12.00   12.10
  -4   4   7    5.50    4.40
  -4   4   7   12.40   15.10
  -4   4   7   12.50   12.50
   2  -4  -7   19.60   10.30
   2  -4  -7   24.20    9.60
   2  -4  -7   10.30   14.50
   2  -4  -7   25.10   11.80
   2  -4  -7   21.80    5.80
  -2   4   7   16.20   11.90
  -2   4   7   12.30   10.30
  -2   4   7   23.40   16.40
  -2   4   7   23.60    7.70
   0  -4  -7  171.98   18.70
   0  -4  -7  233.48   25.60
   0  -4  -7  210.28   17.30
   0  -4  -7  190.88   22.70
   0   4   7  193.88   27.10
   0   4   7  208.78   19.80
   0   4   7  208.48   21.40
   0   4   7  212.08   17.80
  -2  -4  -7   89.19   23.50
  -2  -4  -7   60.99   14.10
  -2  -4  -7   54.69   20.10
  -2  -4  -7   58.99   14.90
   2   4   7   61.99   13.20
   2   4   7   72.39   23.20
   2   4   7   71.89   18.60
   2   4   7   61.79   18.90
  -4  -4  -7  132.09   20.40
  -4  -4  -7  125.49   24.50
  -4  -4  -7  154.28   29.30
   4   4   7  125.79   23.20
   4   4   7  147.59   22.60
  -6  -4  -7  -25.70   23.50
  -6  -4  -7   40.70   22.00
  -6  -4  -7   32.60   33.40
   6   4   7   23.70   19.80
   6   4   7   33.40   25.10
   6   4   7   79.89   22.30
  -8  -4  -7    0.70   29.30
  -8  -4  -7  -27.60   39.90
  -8  -4  -7  -33.60   34.90
   8   4   7  -15.30   32.50
   8   4   7   39.30   39.90
   8   4   7   39.30   26.20
  17  -5  -7  184.68   27.60
  17  -5  -7  204.68   30.80
 -17   5   7  139.89   33.70
 -17   5   7  280.67   43.70
  15  -5  -7   24.80   17.40
  15  -5  -7   17.40   21.50
 -15   5   7   28.70   26.00
 -15   5   7   43.50   30.60
  13  -5  -7   52.29   17.10
  13  -5  -7   56.59   14.60
  13  -5  -7    8.70   16.60
 -13   5   7   50.39   27.00
 -13   5   7   20.60   23.10
 -13   5   7   50.19   15.00
 -13   5   7   53.29   12.00
  11  -5  -7   -0.60   12.60
  11  -5  -7   18.20   10.60
  11  -5  -7    0.70   13.30
 -11   5   7   18.20   12.90
 -11   5   7    4.60   21.70
 -11   5   7   16.90   18.70
   9  -5  -7    5.20    8.20
   9  -5  -7   28.50   13.60
   9  -5  -7   21.00   13.30
  -9   5   7   23.00   19.50
  -9   5   7   42.00   13.10
   7  -5  -7  137.99    9.90
   7  -5  -7  120.09   17.10
   7  -5  -7  114.59   16.60
  -7   5   7  167.38   23.00
  -7   5   7  140.89   16.40
   5  -5  -7  119.29   13.80
   5  -5  -7  106.29   16.30
   5  -5  -7  103.19   14.40
  -5   5   7  116.99   16.50
  -5   5   7  107.39   21.60
   3  -5  -7  329.27   20.40
   3  -5  -7  324.17   24.80
   3  -5  -7  331.67   22.50
   3  -5  -7  346.07   30.10
  -3   5   7  324.97   23.20
  -3   5   7  319.37   17.20
  -3   5   7  371.16   33.00
  -3   5   7  364.56   26.40
   1  -5  -7    8.50   10.00
   1  -5  -7    4.90   15.50
   1  -5  -7   13.90   11.10
   1  -5  -7   17.40   11.80
  -1   5   7   11.80    8.80
  -1   5   7    8.40   18.30
  -1   5   7   22.60   13.50
  -1   5   7   24.60   12.30
  -1  -5  -7  110.49   22.90
  -1  -5  -7   91.19   15.80
  -1  -5  -7   52.19   26.70
  -1  -5  -7   96.49   14.70
   1   5   7  104.39   24.80
   1   5   7   58.39   16.10
   1   5   7  101.49   18.70
  -3  -5  -7  -14.30   23.10
  -3  -5  -7   14.50   15.50
  -3  -5  -7    1.70   13.80
  -3  -5  -7    2.80   20.30
   3   5   7    9.70   19.00
   3   5   7    7.40   17.10
  -5  -5  -7   15.20   19.40
  -5  -5  -7   16.40   29.90
  -5  -5  -7   26.90   25.20
   5   5   7   11.20   20.30
   5   5   7   11.30   22.90
  -7  -5  -7   61.89   38.10
  -7  -5  -7   70.39   32.10
  -7  -5  -7   35.30   25.40
   7   5   7    6.20   24.90
   7   5   7    3.90   22.10
   7   5   7   41.20   29.90
  18  -6  -7   -8.20   25.80
  16  -6  -7   24.30   22.40
  16  -6  -7   17.20   23.50
 -16   6   7  -56.99   33.10
 -16   6   7  -21.70   23.80
  14  -6  -7    5.80   20.50
  14  -6  -7   16.20   16.80
  14  -6  -7   15.40   18.20
 -14   6   7    9.20   24.30
 -14   6   7  -29.90   28.20
 -14   6   7    7.00   14.80
  12  -6  -7    7.10   15.10
  12  -6  -7  -16.30   11.90
  12  -6  -7   -6.40   16.50
 -12   6   7   26.00   25.80
 -12   6   7   23.30   23.10
 -12   6   7   21.80   13.80
  10  -6  -7  165.48   20.20
  10  -6  -7  164.88   14.10
  10  -6  -7  164.68   19.50
 -10   6   7  135.39   18.00
 -10   6   7  101.09   24.70
 -10   6   7  191.68   29.80
   8  -6  -7  -16.30   12.80
   8  -6  -7   17.70    7.70
   8  -6  -7   13.50   14.00
  -8   6   7   -9.00   17.00
  -8   6   7    0.40   10.90
   6  -6  -7   34.40   13.20
   6  -6  -7   42.90   13.60
  -6   6   7   29.30   13.30
  -6   6   7   36.40   19.90
   4  -6  -7   75.39   13.10
   4  -6  -7   51.19   15.20
   4  -6  -7   47.80   13.30
  -4   6   7   70.29   20.20
  -4   6   7   78.79    7.60
  -4   6   7   62.19   12.00
  -4   6   7   50.99   13.60
   2  -6  -7   31.90   11.90
   2  -6  -7   11.70   14.90
   2  -6  -7   18.10   11.40
  -2   6   7   -3.00   14.10
  -2   6   7   -2.90   20.10
  -2   6   7    5.50    7.80
  -2   6   7   -2.60   11.10
   0  -6  -7   -1.10   12.50
   0  -6  -7    5.10   12.10
   0  -6  -7    6.80   16.90
   0   6   7    1.00   21.30
   0   6   7  -20.20   12.70
   0   6   7    3.00   16.50
  -2  -6  -7  -11.60   18.10
  -2  -6  -7    3.20   13.50
  -2  -6  -7   -7.50   15.10
   2   6   7   -5.00   19.10
   2   6   7  -19.70   15.10
  -4  -6  -7   -2.00   26.30
  -4  -6  -7   -6.20   18.20
  -4  -6  -7  -18.50   20.40
   4   6   7   44.20   23.60
   4   6   7    0.90   19.10
  -6  -6  -7  -16.00   22.30
  -6  -6  -7   -4.20   25.80
  -6  -6  -7   33.40   34.90
   6   6   7  -74.89   26.10
   6   6   7  -19.20   22.60
   8   6   7   22.30   39.30
  17  -7  -7  -27.00   24.10
  17  -7  -7   14.90   28.10
 -17   7   7   65.19   42.30
 -17   7   7   24.20   31.30
  15  -7  -7   59.59   20.80
  15  -7  -7   65.59   25.00
 -15   7   7   67.49   32.90
 -15   7   7   62.19   29.00
  13  -7  -7  -14.70   14.40
  13  -7  -7    5.90   18.70
  13  -7  -7   16.00   18.80
 -13   7   7   -2.80   14.10
 -13   7   7    0.90   29.30
 -13   7   7   -7.30   22.20
  11  -7  -7  146.19   21.00
  11  -7  -7  175.18   16.40
  11  -7  -7  173.48   24.00
 -11   7   7  224.48   34.60
 -11   7   7  200.68   19.20
 -11   7   7  220.58   30.30
   9  -7  -7   41.20    9.70
   9  -7  -7   28.00   14.90
   9  -7  -7   39.60   15.80
  -9   7   7   17.70   20.80
  -9   7   7   32.30   13.50
   7  -7  -7  316.77   28.20
   7  -7  -7  299.77   30.10
   7  -7  -7  366.06   17.50
  -7   7   7  348.47   35.50
  -7   7   7  325.77   26.80
   5  -7  -7   43.10   13.10
   5  -7  -7   24.70   12.80
   5  -7  -7   36.10   15.80
  -5   7   7   23.70   14.10
  -5   7   7   56.09   22.20
   3  -7  -7  481.95   29.60
   3  -7  -7  430.86   28.70
   3  -7  -7  415.36   32.00
  -3   7   7  496.35   22.00
  -3   7   7  486.65   27.80
  -3   7   7  434.86   39.30
  -3   7   7  501.45   31.30
   1  -7  -7   47.00   12.90
   1  -7  -7   54.89   18.40
   1  -7  -7   38.10   13.20
  -1   7   7   37.40   16.40
  -1   7   7  -20.90   23.20
  -1   7   7   28.10   13.50
  -1  -7  -7   93.49   21.70
  -1  -7  -7  151.38   19.50
  -1  -7  -7  121.39   15.80
   1   7   7   98.99   32.70
   1   7   7  120.49   19.40
   1   7   7  100.39   21.20
  -3  -7  -7   20.10   21.30
  -3  -7  -7   26.00   18.50
   3   7   7    9.00   19.00
   3   7   7    6.20   21.20
  -5  -7  -7    6.10   23.60
  -5  -7  -7   29.60   21.90
   5   7   7    0.80   21.90
   5   7   7   36.80   25.90
  -7  -7  -7   57.69   34.00
  -7  -7  -7   40.90   28.80
   7   7   7   16.90   35.50
   7   7   7   10.80   33.80
  16  -8  -7   64.59   23.90
  16  -8  -7  107.99   27.00
 -16   8   7   27.60   37.80
 -16   8   7  102.49   33.40
  14  -8  -7   75.59   23.10
  14  -8  -7   79.69   24.70
  14  -8  -7  102.89   19.90
 -14   8   7   51.49   34.50
 -14   8   7  111.09   18.50
 -14   8   7   57.79   28.00
  12  -8  -7   30.30   18.30
  12  -8  -7   32.40   19.50
  12  -8  -7   61.49   15.60
 -12   8   7  110.69   31.90
 -12   8   7   41.00   16.10
 -12   8   7   41.50   26.20
  10  -8  -7   90.89   23.50
  10  -8  -7  147.09   14.50
  10  -8  -7  139.79   21.40
 -10   8   7  132.39   17.90
 -10   8   7  177.18   32.90
 -10   8   7  190.78   28.40
   8  -8  -7  112.69   18.30
   8  -8  -7  129.19   13.50
   8  -8  -7  103.39   17.80
  -8   8   7  125.09   17.40
  -8   8   7   92.39   34.40
   6  -8  -7   11.30   14.00
   6  -8  -7   24.00   15.40
  -6   8   7   23.30   14.60
  -6   8   7   33.50   21.10
   4  -8  -7   -3.20   14.10
   4  -8  -7  -16.10   12.10
   4  -8  -7  -27.00   11.90
  -4   8   7  -15.80   15.00
  -4   8   7    5.40   10.60
  -4   8   7   19.80   21.10
   2  -8  -7  134.29   16.30
   2  -8  -7   98.49   16.60
  -2   8   7  143.19   17.80
  -2   8   7  143.99   34.70
  -2   8   7  131.29   28.30
   0  -8  -7   49.99   19.10
   0  -8  -7  106.69   15.60
   0  -8  -7  136.99   19.00
   0   8   7  102.49   21.70
   0   8   7   74.79   29.50
   0   8   7  113.49   18.60
  -2  -8  -7  213.18   27.50
  -2  -8  -7  252.07   25.60
   2   8   7  273.17   37.40
   2   8   7  288.47   27.10
   2   8   7  245.48   29.50
  -4  -8  -7   91.29   27.80
  -4  -8  -7  100.99   24.70
   4   8   7  154.18   29.40
   4   8   7  144.09   25.70
  -6  -8  -7   98.09   34.10
  -6  -8  -7  106.09   27.20
   6   8   7  113.09   27.80
   6   8   7  126.69   36.00
  15  -9  -7  126.09   28.40
  15  -9  -7  142.09   25.20
 -15   9   7   62.99   40.70
 -15   9   7  138.59   34.30
  13  -9  -7   13.70   17.30
  13  -9  -7    7.70   20.50
  13  -9  -7   19.70   21.10
 -13   9   7   63.89   32.20
 -13   9   7   -6.50   16.10
 -13   9   7  -27.20   25.40
  11  -9  -7   53.19   18.30
  11  -9  -7   33.30   14.60
  11  -9  -7   41.80   20.30
 -11   9   7   82.89   32.00
 -11   9   7   23.60   16.00
 -11   9   7   49.40   27.00
   9  -9  -7   26.70   16.50
   9  -9  -7   38.10   17.20
  -9   9   7   41.80   24.10
  -9   9   7   34.20   15.00
   7  -9  -7   -8.70   17.20
   7  -9  -7    6.20   15.00
  -7   9   7  -17.30   15.00
  -7   9   7  -34.90   21.30
   5  -9  -7  188.28   19.70
   5  -9  -7  207.08   20.50
   5  -9  -7  144.39   36.00
  -5   9   7  150.68   20.80
  -5   9   7  196.18   20.10
   3  -9  -7   -6.80   16.80
   3  -9  -7    9.20   15.30
   3  -9  -7   13.90   13.20
  -3   9   7   33.50   13.60
  -3   9   7   13.00   23.30
  -3   9   7   36.20   28.90
   1  -9  -7   88.49   19.60
   1  -9  -7   69.89   15.60
  -1   9   7   66.89   28.60
  -1   9   7   87.39   17.30
  -1   9   7   49.00   21.50
  -1  -9  -7   13.30   18.70
  -1  -9  -7    4.20   16.60
   1   9   7   43.90   22.40
   1   9   7  -14.50   27.80
   1   9   7   18.20   18.30
  -3  -9  -7  -32.60   21.30
  -3  -9  -7    2.80   20.00
   3   9   7   35.00   23.10
   3   9   7  -26.10   23.50
  -5  -9  -7    0.50   27.40
  -5  -9  -7   25.70   25.40
   5   9   7   39.50   26.30
   5   9   7    7.60   29.00
  16 -10  -7  -37.20   26.30
  14 -10  -7   33.70   22.70
  14 -10  -7  104.49   25.50
  14 -10  -7   54.79   26.30
 -14  10   7   71.09   29.80
 -14  10   7  108.59   37.00
  12 -10  -7   44.30   16.90
  12 -10  -7   28.40   20.50
  12 -10  -7   25.00   20.90
 -12  10   7   45.30   29.00
 -12  10   7   14.70   17.30
 -12  10   7   41.70   35.30
  10 -10  -7   33.00   19.10
  10 -10  -7   25.00   20.00
 -10  10   7   21.70   16.20
 -10  10   7   21.20   27.10
 -10  10   7   51.39   31.40
   8 -10  -7   -1.90   16.40
   8 -10  -7   -5.00   16.50
  -8  10   7  -19.30   23.20
  -8  10   7    9.30   15.80
   6 -10  -7   18.30   16.60
   6 -10  -7   41.60   17.00
  -6  10   7   50.69   24.50
   4 -10  -7   27.80   15.60
   4 -10  -7   13.40   16.50
   4 -10  -7   26.00   18.70
  -4  10   7   32.30   18.50
  -4  10   7   26.90   25.50
  -4  10   7   41.80   13.90
   2 -10  -7    1.90   17.80
   2 -10  -7   14.60   15.30
   2 -10  -7   18.70   16.90
  -2  10   7   19.20   20.30
  -2  10   7   17.40   15.80
  -2  10   7   31.70   26.00
   0 -10  -7   43.00   21.70
   0 -10  -7   19.20   17.40
   0  10   7   34.00   21.80
   0  10   7   76.39   32.10
   0  10   7   15.30   21.80
  -2 -10  -7   29.80   20.90
  -2 -10  -7   13.80   22.50
   2  10   7   42.90   22.80
   2  10   7   40.70   33.10
   2  10   7   67.79   24.70
  -4 -10  -7   54.59   25.10
  -4 -10  -7   11.60   26.00
   4  10   7   61.69   27.00
   4  10   7   87.39   30.50
 -15  11   7   81.39   40.10
  13 -11  -7   30.50   23.90
  13 -11  -7   70.09   23.00
 -13  11   7   67.89   38.70
 -13  11   7   78.29   32.50
  11 -11  -7  -14.60   18.30
  11 -11  -7   -1.70   20.20
 -11  11   7  -21.40   32.00
 -11  11   7   -9.70   27.50
   9 -11  -7  344.87   36.90
   9 -11  -7  258.97   27.80
  -9  11   7  223.88   40.10
  -9  11   7  237.48   28.50
  -9  11   7  293.17   37.90
   7 -11  -7   55.69   19.20
   7 -11  -7   41.10   20.10
  -7  11   7   27.60   18.20
  -7  11   7    1.50   26.80
   5 -11  -7  433.06   35.30
   5 -11  -7  487.75   35.60
   5 -11  -7  541.15   39.80
  -5  11   7  462.95   37.70
  -5  11   7  462.05   46.50
  -5  11   7  451.35   28.00
   3 -11  -7  148.59   20.10
   3 -11  -7  159.68   21.70
   3 -11  -7  132.29   24.10
  -3  11   7  161.48   19.30
  -3  11   7  129.29   31.20
  -3  11   7  144.99   24.70
   1 -11  -7  449.66   36.30
   1 -11  -7  380.76   41.20
   1 -11  -7  376.36   37.00
  -1  11   7  500.35   41.20
  -1  11   7  432.96   43.60
  -1  11   7  366.56   35.40
  -1 -11  -7   15.60   21.70
  -1 -11  -7    9.10   20.90
   1  11   7  -20.90   32.90
   1  11   7  -48.20   22.40
   1  11   7   -6.70   23.00
  -3 -11  -7   58.29   27.00
  -3 -11  -7   45.50   23.30
   3  11   7  111.39   28.60
   3  11   7   35.60   28.40
  -5 -11  -7  -40.90   34.40
  -5 -11  -7   -3.90   41.50
   5  11   7   23.50   40.90
  14 -12  -7  -29.50   37.00
 -14  12   7   24.10   37.20
 -14  12   7   68.59   61.49
  12 -12  -7   79.19   23.90
  12 -12  -7  106.49   26.30
 -12  12   7  116.39   37.80
 -12  12   7  108.29   35.00
  10 -12  -7   35.60   22.10
  10 -12  -7   71.99   23.20
 -10  12   7  104.39   37.30
 -10  12   7   68.39   30.80
 -10  12   7   74.59   21.30
   8 -12  -7  123.99   23.60
   8 -12  -7   77.09   21.50
  -8  12   7   57.19   21.50
  -8  12   7   77.29   29.50
   6 -12  -7   19.00   18.60
   6 -12  -7   -7.80   19.20
  -6  12   7   23.10   28.40
  -6  12   7   36.20   21.00
   4 -12  -7   -5.20   20.70
   4 -12  -7   18.60   18.70
   4 -12  -7   -8.30   17.40
  -4  12   7  -25.20   27.20
  -4  12   7  -19.60   19.40
  -4  12   7  -22.30   14.80
   2 -12  -7   57.49   18.40
   2 -12  -7   39.10   22.30
   2 -12  -7   33.40   18.90
  -2  12   7   24.60   24.30
  -2  12   7    8.70   17.80
  -2  12   7   37.70   30.70
   0 -12  -7   61.19   21.90
   0 -12  -7   47.60   24.00
   0  12   7    9.90   23.80
   0  12   7   27.40   32.10
   0  12   7   82.39   24.20
  -2 -12  -7  121.49   25.70
  -2 -12  -7   81.59   26.50
   2  12   7   83.49   28.50
   2  12   7  119.39   30.30
   2  12   7  137.19   41.80
  -4 -12  -7  -36.60   32.80
   4  12   7  104.19   35.50
  13 -13  -7   85.79   48.70
 -13  13   7   94.89   41.90
  11 -13  -7   53.69   26.50
  11 -13  -7   18.00   26.10
 -11  13   7   91.89   41.50
 -11  13   7   68.99   34.40
   9 -13  -7   -6.80   22.10
   9 -13  -7    8.80   20.70
  -9  13   7  -10.20   33.60
  -9  13   7    6.60   20.30
  -9  13   7   32.90   39.70
   7 -13  -7   12.00   21.30
   7 -13  -7   29.20   21.40
  -7  13   7   13.60   22.30
  -7  13   7   44.50   31.00
   5 -13  -7   16.40   21.20
   5 -13  -7  -43.10   20.10
  -5  13   7  -18.00   30.40
  -5  13   7    4.40   21.40
   3 -13  -7    7.90   19.40
   3 -13  -7   -4.70   20.00
   3 -13  -7   11.60   21.10
  -3  13   7   44.00   23.00
  -3  13   7  -18.90   21.80
  -3  13   7   34.40   33.20
   1 -13  -7  -34.40   21.30
   1 -13  -7  -14.10   20.90
  -1  13   7  -25.70   25.00
  -1  13   7  -30.90   32.90
  -1  13   7  -12.50   21.80
  -1 -13  -7   20.20   23.90
  -1 -13  -7  -12.30   24.80
   1  13   7   24.20   28.00
   1  13   7   68.99   41.00
   1  13   7   11.40   27.50
  -3 -13  -7  -31.20   32.80
   3  13   7   -9.70   33.30
 -12  14   7  222.78   52.89
  10 -14  -7   23.00   23.80
  10 -14  -7   75.29   29.40
 -10  14   7  -17.80   42.60
 -10  14   7    2.20   36.90
   8 -14  -7  143.29   27.40
   8 -14  -7  159.48   29.10
  -8  14   7  174.28   42.70
  -8  14   7  142.89   35.90
  -8  14   7  121.49   27.40
   6 -14  -7   -1.10   25.00
   6 -14  -7  -32.80   21.00
  -6  14   7   64.79   33.20
  -6  14   7    5.60   24.10
   4 -14  -7   40.40   24.10
   4 -14  -7   14.70   22.10
   4 -14  -7   37.50   22.10
  -4  14   7   -0.30   24.50
  -4  14   7   69.79   35.80
   2 -14  -7   37.10   26.10
   2 -14  -7   61.79   22.60
  -2  14   7  105.09   38.40
  -2  14   7   91.09   28.40
   0 -14  -7   -4.00   23.20
   0 -14  -7    0.30   28.90
   0  14   7  -29.50   28.70
   0  14   7  -18.80   40.20
   0  14   7   24.50   28.50
   2  14   7  151.88   36.40
   9 -15  -7   63.39   29.90
   9 -15  -7   43.40   29.70
  -9  15   7   33.70   39.10
   7 -15  -7   99.39   28.80
   7 -15  -7  160.98   30.70
  -7  15   7  163.28   40.30
  -7  15   7   97.29   28.10
   5 -15  -7   50.69   27.80
   5 -15  -7   35.40   25.50
  -5  15   7   49.70   27.90
  -5  15   7   63.69   37.80
   3 -15  -7  178.08   31.50
   3 -15  -7  225.18   30.00
  -3  15   7  216.88   42.80
  -3  15   7  270.17   33.90
   1 -15  -7   99.99   32.70
   1 -15  -7   79.49   31.60
  -1  15   7   20.20   32.90
  -1  15   7   88.69   49.30
   8 -16  -7   68.19   32.50
  -6  16   7  -32.70   29.80
  -4  16   7   15.30   31.00
  -8 -14   8  -20.40   27.00
   6  14  -8   69.19   57.29
   4  14  -8   41.50   41.60
  -4 -14   8   12.00   27.80
 -11 -13   8  132.99   32.70
   9  13  -8   58.09   33.10
   9  13  -8   38.10   34.60
  -9 -13   8   42.60   27.30
  -9 -13   8   62.39   27.40
   7  13  -8  281.77   38.40
   7  13  -8  355.36   40.70
  -7 -13   8  274.07   30.80
  -7 -13   8  325.97   33.10
   5  13  -8  -11.40   32.10
   5  13  -8   57.19   38.90
   5  13  -8   51.99   31.30
  -5 -13   8   12.90   23.40
  -5 -13   8   20.00   23.00
   3  13  -8  346.97   42.80
   3  13  -8  388.36   42.90
   3  13  -8  373.36   47.20
  -3 -13   8  299.87   34.10
  -3 -13   8  327.37   32.40
   1  13  -8  104.39   43.60
  -1 -13   8   79.29   26.60
  12  12  -8   56.89   51.69
  12  12  -8  -10.00   35.10
 -12 -12   8  -17.10   29.30
 -12 -12   8  -21.00   27.30
  10  12  -8  116.09   33.30
  10  12  -8   57.39   32.30
 -10 -12   8   83.79   26.50
 -10 -12   8  124.29   27.50
   8  12  -8  -33.40   28.20
   8  12  -8   88.79   28.80
  -8 -12   8   45.70   24.20
  -8 -12   8   30.90   22.10
   6  12  -8  169.28   33.80
   6  12  -8  237.28   37.60
   6  12  -8  181.28   33.10
  -6 -12   8  148.09   24.80
  -6 -12   8  184.48   26.60
  -6 -12   8  151.68   24.70
   4  12  -8   31.90   30.30
   4  12  -8   27.80   28.80
   4  12  -8   29.80   33.70
  -4 -12   8   10.40   21.40
  -4 -12   8   47.50   22.00
   2  12  -8   40.50   30.80
   2  12  -8   69.19   31.30
   2  12  -8   40.80   37.00
  -2 -12   8   49.20   25.50
  -2 -12   8   83.99   22.90
   0  12  -8  107.69   38.00
   0  12  -8  188.08   40.50
   0  12  -8  158.48   44.50
   0 -12   8  148.29   30.10
   0 -12   8  103.39   27.10
  13  11  -8   25.20   31.50
  13  11  -8  -47.20   31.50
 -13 -11   8  -21.60   26.50
 -13 -11   8   32.30   27.20
  11  11  -8   -7.20   30.40
  11  11  -8   40.70   28.40
 -11 -11   8   28.00   22.30
 -11 -11   8   35.90   23.90
   9  11  -8   38.20   27.00
   9  11  -8   17.00   28.90
  -9 -11   8   10.30   22.10
  -9 -11   8  -20.20   21.90
   7  11  -8    6.80   26.20
   7  11  -8   -4.80   26.20
  -7 -11   8   46.00   21.00
  -7 -11   8   56.79   20.30
   5  11  -8   19.00   27.10
   5  11  -8   34.50   30.70
   5  11  -8   26.60   25.60
  -5 -11   8   31.80   20.50
  -5 -11   8   26.80   19.50
  -5 -11   8   -4.70   19.20
   3  11  -8  -43.50   26.60
   3  11  -8    1.40   32.50
   3  11  -8   25.00   27.00
  -3 -11   8    1.70   17.90
  -3 -11   8   17.00   21.00
   1  11  -8   78.79   27.80
   1  11  -8   13.80   36.20
   1  11  -8  -39.10   28.40
  -1 -11   8   -3.00   20.60
  -1 -11   8    0.60   20.40
  -1  11  -8   66.29   37.30
  -1  11  -8   39.00   38.20
   1 -11   8   34.00   27.20
   1 -11   8  -13.50   24.40
  14  10  -8  -62.29   31.50
  14  10  -8  -23.80   28.50
  14  10  -8  -22.90   32.50
 -14 -10   8   49.20   29.10
 -14 -10   8   19.40   29.00
  12  10  -8  266.07   34.30
  12  10  -8  287.67   36.30
 -12 -10   8  210.38   28.60
 -12 -10   8  191.18   27.40
  10  10  -8  -18.80   24.00
  10  10  -8   32.20   26.70
 -10 -10   8   25.60   21.20
 -10 -10   8   20.70   21.30
   8  10  -8   60.89   25.20
   8  10  -8  107.19   27.70
  -8 -10   8   92.09   21.60
  -8 -10   8   85.89   20.70
   6  10  -8   73.39   26.60
   6  10  -8   66.99   28.60
   6  10  -8   85.09   27.00
  -6 -10   8   55.39   19.40
  -6 -10   8   58.79   21.20
  -6 -10   8   33.90   19.20
   4  10  -8   53.39   24.80
   4  10  -8   84.99   26.80
   4  10  -8   90.89   32.00
   4  10  -8   83.59   26.30
  -4 -10   8  113.49   20.30
  -4 -10   8   67.99   20.20
   2  10  -8  136.09   29.10
   2  10  -8   90.89   29.00
   2  10  -8   80.49   34.30
  -2 -10   8   87.59   20.40
  -2 -10   8   94.89   22.30
   0  10  -8  -30.30   32.40
   0  10  -8   26.70   28.20
   0 -10   8   -2.50   19.50
   0 -10   8   19.40   20.90
  -2  10  -8  132.49   39.40
  -2  10  -8  242.48   46.80
   2 -10   8  248.48   31.50
   2 -10   8  226.58   28.80
  15   9  -8  134.19   37.20
  15   9  -8  113.69   49.90
  15   9  -8   53.49   30.50
  15   9  -8   53.29   33.10
 -15  -9   8  101.69   36.30
 -15  -9   8  139.49   30.40
 -15  -9   8  112.39   41.00
  13   9  -8  150.38   31.10
  13   9  -8  113.39   32.20
 -13  -9   8  115.79   24.80
 -13  -9   8  136.49   31.30
 -13  -9   8   82.29   23.60
  11   9  -8  111.79   29.80
  11   9  -8  107.19   28.30
 -11  -9   8   99.29   22.10
 -11  -9   8   98.49   23.00
   9   9  -8  202.18   31.60
   9   9  -8  220.08   28.50
  -9  -9   8  177.08   23.40
  -9  -9   8  170.18   23.20
  -9  -9   8  180.08   24.00
   7   9  -8  232.68   30.70
   7   9  -8  237.68   30.60
  -7  -9   8  212.08   23.60
  -7  -9   8  195.68   20.80
  -7  -9   8  200.18   30.50
   5   9  -8  331.47   34.50
   5   9  -8  400.36   40.40
   5   9  -8  378.56   43.80
   5   9  -8  339.97   36.80
  -5  -9   8  393.26   31.30
  -5  -9   8  377.56   34.50
  -5  -9   8  338.57   28.90
   3   9  -8  156.88   30.80
   3   9  -8  135.79   24.00
   3   9  -8  191.28   33.30
   3   9  -8  174.08   28.90
  -3  -9   8  158.08   22.90
  -3  -9   8  167.78   20.10
   1   9  -8  309.47   40.00
   1   9  -8  230.88   33.40
  -1  -9   8  254.87   26.60
  -1  -9   8  246.08   24.70
  -1   9  -8  124.09   32.60
  -1   9  -8  106.79   34.30
   1  -9   8  106.09   23.40
   1  -9   8  119.49   24.80
  -3   9  -8  178.18   41.40
  -3   9  -8  120.49   44.80
   3  -9   8   99.29   29.10
   3  -9   8  110.19   26.50
  16   8  -8  -42.10   35.30
  16   8  -8   -5.90   28.80
 -16  -8   8   95.89   36.40
  14   8  -8   32.70   25.10
  14   8  -8   49.40   27.20
  14   8  -8   59.19   29.90
 -14  -8   8   41.80   23.10
 -14  -8   8   89.69   25.20
 -14  -8   8   13.90   29.40
  12   8  -8  136.39   27.20
  12   8  -8  103.49   28.80
 -12  -8   8  103.69   22.80
 -12  -8   8  126.79   27.30
 -12  -8   8  116.59   22.50
  10   8  -8  102.39   27.00
  10   8  -8  107.29   25.30
 -10  -8   8   99.99   21.50
 -10  -8   8   89.29   20.40
 -10  -8   8   98.69   23.10
   8   8  -8  253.47   29.20
   8   8  -8  206.48   31.20
  -8  -8   8  210.48   22.60
  -8  -8   8  211.38   23.60
   6   8  -8   51.49   27.20
   6   8  -8   52.39   25.30
   6   8  -8   83.19   22.30
   6   8  -8   39.60   16.30
  -6  -8   8   56.39   16.20
  -6  -8   8   71.19   18.10
  -6  -8   8   63.79   15.80
   4   8  -8  544.55   41.80
   4   8  -8  554.24   43.10
   4   8  -8  500.55   44.20
   4   8  -8  427.96   39.10
  -4  -8   8  529.15   31.30
  -4  -8   8  513.85   32.60
  -4  -8   8  533.95   37.10
   2   8  -8   -9.70   26.70
   2   8  -8   31.10   22.50
   2   8  -8   15.80   24.30
  -2  -8   8   21.90   16.20
  -2  -8   8   26.10   17.90
   0   8  -8  477.15   51.09
   0   8  -8  513.05   44.10
   0  -8   8  473.05   39.90
   0  -8   8  523.85   37.00
  -2   8  -8   27.00   34.10
  -2   8  -8   59.49   30.90
   2  -8   8   48.70   23.30
   2  -8   8   68.49   21.90
  -4   8  -8  296.57   46.10
   4  -8   8  256.67   32.90
   4  -8   8  281.07   35.20
  15   7  -8    5.50   27.70
  15   7  -8   33.60   31.60
  15   7  -8   -9.80   28.80
  15   7  -8  -33.20   23.90
 -15  -7   8   20.70   30.20
 -15  -7   8   19.10   25.00
 -15  -7   8   -0.80   22.40
  13   7  -8   37.00   24.40
  13   7  -8   16.70   24.40
  13   7  -8  -20.50   22.30
 -13  -7   8   -3.80   18.60
 -13  -7   8   23.20   25.30
 -13  -7   8   50.99   20.80
  11   7  -8   -6.90   21.80
  11   7  -8   25.60   24.60
 -11  -7   8   57.19   25.60
 -11  -7   8   29.40   18.90
 -11  -7   8    5.40   17.10
   9   7  -8  133.59   37.80
   9   7  -8   74.49   24.70
  -9  -7   8   87.99   21.00
  -9  -7   8   91.99   18.50
  -9  -7   8   83.39   18.30
   7   7  -8   67.69   15.60
   7   7  -8  102.09   25.80
   7   7  -8   49.80   20.60
  -7  -7   8   38.50   13.50
  -7  -7   8   66.79   18.00
  -7  -7   8   48.90   16.00
  -7  -7   8   75.19   18.20
   5   7  -8  232.88   33.30
   5   7  -8  186.68   28.30
   5   7  -8  196.08   22.00
   5   7  -8  197.88   25.10
  -5  -7   8  184.58   22.30
  -5  -7   8  252.17   25.50
  -5  -7   8  204.58   18.70
  -5  -7   8  194.98   19.40
   3   7  -8   44.50   22.50
   3   7  -8   47.70   19.80
   3   7  -8   54.69   26.60
  -3  -7   8   45.30   17.60
  -3  -7   8   58.79   15.50
  -3  -7   8   62.29   17.10
  -3  -7   8   57.79   14.50
   1   7  -8  -21.40   26.40
   1   7  -8   27.10   24.40
  -1  -7   8  -13.10   15.40
  -1  -7   8   26.10   17.30
  -1  -7   8    3.00   16.70
  -1   7  -8  -24.30   30.60
  -1   7  -8   14.00   26.10
   1  -7   8   24.20   20.00
   1  -7   8   12.00   17.90
   1  -7   8  -26.00   18.50
  -3   7  -8   18.80   32.90
  -3   7  -8   -5.00   33.90
   3  -7   8   63.99   25.80
   3  -7   8   41.60   21.80
  -5   7  -8  148.39   45.00
   5  -7   8   13.10   31.50
  16   6  -8   94.69   31.00
  16   6  -8   23.10   29.90
  16   6  -8   -8.00   25.50
 -16  -6   8   65.29   32.80
 -16  -6   8   49.50   24.40
  14   6  -8   25.30   23.90
  14   6  -8   95.39   26.40
  14   6  -8   43.40   25.50
 -14  -6   8   82.69   21.50
 -14  -6   8   86.89   21.90
 -14  -6   8   28.90   25.70
  12   6  -8   45.90   21.90
  12   6  -8   75.29   24.70
 -12  -6   8   64.79   19.10
 -12  -6   8   33.60   22.40
  10   6  -8  114.29   25.80
  10   6  -8  142.69   23.20
 -10  -6   8  165.38   24.00
 -10  -6   8  110.69   18.40
   8   6  -8  -22.60   19.00
   8   6  -8    4.50   12.50
   8   6  -8  -18.80   16.70
  -8  -6   8   -4.70   17.00
  -8  -6   8   12.00   15.30
   6   6  -8   66.79   20.30
   6   6  -8   58.59   16.00
   6   6  -8   89.59   23.10
   6   6  -8   74.89   23.90
  -6  -6   8   49.80   17.30
  -6  -6   8   81.29   16.30
  -6  -6   8   60.79   16.70
  -6  -6   8   62.89   12.70
   4   6  -8   -1.20   18.70
   4   6  -8   33.80   23.70
   4   6  -8   22.10   17.10
   4   6  -8   15.20   21.90
  -4  -6   8   20.00   12.50
  -4  -6   8   47.30   16.30
  -4  -6   8   21.40   14.60
   2   6  -8   24.60   23.60
   2   6  -8    3.50   20.70
  -2  -6   8    8.70   16.00
  -2  -6   8   15.70   14.40
  -2  -6   8    2.60   11.90
   0   6  -8  221.58   36.30
   0   6  -8  218.08   31.20
   0  -6   8  220.98   27.60
   0  -6   8  230.68   22.60
   0  -6   8  212.58   24.90
  -2   6  -8   66.19   29.00
  -2   6  -8   -4.70   29.20
   2  -6   8   28.20   20.40
   2  -6   8   39.40   19.30
   2  -6   8  -26.20   18.50
  -4   6  -8   38.40   37.40
  -4   6  -8   80.29   36.30
   4  -6   8   39.70   25.80
   4  -6   8   68.59   23.20
  17   5  -8   72.79   32.70
  17   5  -8  111.49   30.30
 -17  -5   8   79.29   37.00
  15   5  -8   28.80   22.50
  15   5  -8    1.10   24.50
  15   5  -8   38.80   27.80
  15   5  -8  -23.90   26.00
 -15  -5   8   23.90   21.20
 -15  -5   8   14.20   27.30
 -15  -5   8   22.10   21.50
  13   5  -8  139.79   25.70
  13   5  -8  182.18   26.60
  13   5  -8  154.18   27.70
 -13  -5   8  176.18   29.40
 -13  -5   8  163.88   21.80
  11   5  -8   35.70   21.80
  11   5  -8   47.50   19.10
 -11  -5   8   37.10   20.80
 -11  -5   8   19.50   21.20
   9   5  -8  420.96   34.40
   9   5  -8  451.75   37.80
   9   5  -8  397.96   27.20
  -9  -5   8  497.55   41.70
  -9  -5   8  431.86   35.00
  -9  -5   8  399.86   35.20
   7   5  -8  102.89   16.80
   7   5  -8  127.39   35.80
   7   5  -8  134.39   20.70
  -7  -5   8  127.59   25.80
  -7  -5   8  131.89   19.90
  -7  -5   8  132.19   13.60
   5   5  -8  286.87   25.50
   5   5  -8  234.48   27.90
   5   5  -8  278.17   31.00
   5   5  -8  226.58   22.10
  -5  -5   8  230.38   21.50
  -5  -5   8  218.68   26.60
  -5  -5   8  260.47   26.70
  -5  -5   8  257.27   20.10
   3   5  -8  263.57   30.90
   3   5  -8  253.27   25.50
   3   5  -8  219.18   24.10
   3   5  -8  232.58   30.60
  -3  -5   8  233.48   22.30
  -3  -5   8  264.37   27.20
  -3  -5   8  259.97   22.50
  -3  -5   8  263.27   26.20
   1   5  -8  245.08   34.40
   1   5  -8  196.28   27.70
  -1  -5   8  213.98   20.30
  -1  -5   8  177.98   26.20
  -1  -5   8  216.78   23.80
  -1   5  -8  143.19   29.00
  -1   5  -8   92.59   30.50
   1  -5   8  144.09   21.50
   1  -5   8  133.79   22.20
   1  -5   8  140.49   20.40
  -3   5  -8  117.49   33.20
  -3   5  -8  103.19   35.60
   3  -5   8  118.09   22.80
   3  -5   8   70.09   23.60
   3  -5   8   86.29   23.90
  -5   5  -8   89.49   43.40
  -5   5  -8  114.79   38.20
   5  -5   8   62.49   28.70
   5  -5   8   73.89   25.10
  16   4  -8  421.16   37.40
  16   4  -8  439.16   45.30
 -16  -4   8  443.86   48.60
  14   4  -8   36.00   22.70
  14   4  -8   54.09   21.80
  14   4  -8   25.70   23.50
 -14  -4   8   83.69   27.50
 -14  -4   8   92.69   26.50
  12   4  -8  227.88   27.70
  12   4  -8  252.07   25.70
  12   4  -8  318.87   34.50
 -12  -4   8  235.88   28.60
 -12  -4   8  290.07   28.50
 -12  -4   8  290.67   29.40
  10   4  -8  307.67   34.70
  10   4  -8  354.26   31.70
  10   4  -8  349.87   24.90
 -10  -4   8  318.27   33.10
 -10  -4   8  309.87   27.40
 -10  -4   8  325.47   29.10
   8   4  -8  174.08   20.50
   8   4  -8  152.48   24.20
   8   4  -8  132.49   16.30
  -8  -4   8  147.29   23.80
  -8  -4   8  106.69   20.20
  -8  -4   8  172.78   18.80
   6   4  -8  711.23   43.70
   6   4  -8  756.12   40.90
   6   4  -8  713.43   39.70
  -6  -4   8  736.73   38.40
  -6  -4   8  732.13   38.60
  -6  -4   8  741.13   32.10
  -6  -4   8  742.63   40.50
   4   4  -8  100.79   19.40
   4   4  -8  110.29   26.70
   4   4  -8  103.89   22.00
   4   4  -8   93.79   18.90
  -4  -4   8   78.99   12.80
  -4  -4   8  102.79   16.40
  -4  -4   8   99.09   18.00
   2   4  -8 1099.09   53.99
   2   4  -8  937.61   57.69
   2   4  -8 1051.69   52.89
  -2  -4   8 1062.49   49.70
  -2  -4   8  996.50   48.20
  -2  -4   8 1073.99   45.20
  -2  -4   8 1039.80   48.30
   0   4  -8   52.29   27.60
   0  -4   8   27.00   15.20
   0  -4   8   17.00   16.70
  -2   4  -8  990.60   55.79
  -2   4  -8  814.72   60.59
   2  -4   8  954.20   50.19
   2  -4   8  937.51   49.50
   2  -4   8  919.81   47.20
  -4   4  -8   43.70   33.10
  -4   4  -8   51.09   34.20
   4  -4   8   55.09   25.00
   4  -4   8   29.40   23.90
   4  -4   8   57.19   21.60
  -6   4  -8  467.45   52.29
   6  -4   8  660.33   59.79
   6  -4   8  475.75   42.00
  17   3  -8   22.90   26.20
  17   3  -8   -0.20   28.10
 -17  -3   8   18.50   31.30
  15   3  -8   20.40   24.70
  15   3  -8   13.10   21.70
  15   3  -8  -40.50   22.30
 -15  -3   8   24.70   33.60
 -15  -3   8   15.90   24.50
  13   3  -8  113.49   25.20
  13   3  -8   76.19   22.20
  13   3  -8   49.80   20.20
 -13  -3   8   75.69   17.10
 -13  -3   8   69.99   24.50
 -13  -3   8   79.79   26.90
  11   3  -8  108.69   20.90
  11   3  -8  121.59   15.10
  11   3  -8  125.19   18.70
  11   3  -8  142.59   24.80
 -11  -3   8   71.69   22.50
 -11  -3   8  150.18   25.90
 -11  -3   8  126.69   18.00
   9   3  -8  131.89   18.50
   9   3  -8  108.29   23.40
   9   3  -8  106.19   15.50
  -9  -3   8  131.69   22.10
  -9  -3   8  127.49   16.70
  -9  -3   8  111.99   23.20
   7   3  -8   46.50   19.60
   7   3  -8   67.59   15.90
   7   3  -8   36.50   14.50
  -7  -3   8   60.09   15.30
  -7  -3   8   66.99   15.10
  -7  -3   8   62.59   18.40
  -7  -3   8   35.20    9.10
   5   3  -8  125.69   18.60
   5   3  -8  119.99   18.30
   5   3  -8  134.69   22.60
   5   3  -8  120.69   23.80
  -5  -3   8  111.89   16.20
  -5  -3   8  112.09   12.30
  -5  -3   8  134.09   18.00
  -5  -3   8  118.89   19.90
   3   3  -8   20.90   35.90
   3   3  -8   21.60   18.60
   3   3  -8   33.60   15.90
   3   3  -8   -3.60   16.50
  -3  -3   8   28.60   17.40
  -3  -3   8   19.60   14.00
  -3  -3   8   20.70   10.90
   1   3  -8   39.40   21.80
   1   3  -8   57.19   26.80
   1   3  -8   76.39   21.30
  -1  -3   8   60.49   13.50
  -1  -3   8   83.09   20.10
  -1  -3   8   73.09   17.20
  -1   3  -8   20.40   25.20
  -1   3  -8   33.60   24.90
   1  -3   8   12.60   16.60
   1  -3   8  -27.90   19.30
  -3   3  -8   11.50   27.10
  -3   3  -8   -2.20   30.50
   3  -3   8    0.10   18.60
   3  -3   8   -6.40   22.10
  -5   3  -8  185.28   39.10
  -5   3  -8  167.38   40.50
   5  -3   8  136.79   28.60
   5  -3   8  148.29   25.30
  18   2  -8   17.20   31.00
  18   2  -8   41.50   31.40
  16   2  -8  -29.60   21.80
  16   2  -8  -12.50   23.40
 -16  -2   8   41.30   33.40
 -16  -2   8    7.40   27.10
  14   2  -8    8.30   19.70
  14   2  -8   34.50   20.50
  14   2  -8   84.29   23.70
 -14  -2   8  127.39   28.70
 -14  -2   8   30.30   16.60
 -14  -2   8   62.79   29.60
  12   2  -8    9.00   16.20
  12   2  -8   20.40   20.20
  12   2  -8    7.20   12.40
  12   2  -8   19.80   18.90
 -12  -2   8   49.00   24.40
 -12  -2   8  -13.00   19.80
 -12  -2   8    0.10   14.00
  10   2  -8   10.00   18.80
  10   2  -8    9.60   13.50
  10   2  -8    0.10   12.90
 -10  -2   8  -11.40   12.00
 -10  -2   8   -7.10   18.70
 -10  -2   8   14.20   16.90
 -10  -2   8    3.70   20.40
   8   2  -8   15.60   17.60
   8   2  -8   18.40   12.90
   8   2  -8   15.60   13.00
  -8  -2   8   -4.80   17.00
  -8  -2   8   13.20   12.80
  -8  -2   8    0.70   12.50
   6   2  -8    9.50   17.90
   6   2  -8    1.60   13.40
   6   2  -8   12.90   14.00
  -6  -2   8   22.00    8.00
  -6  -2   8   16.30   17.20
  -6  -2   8   10.70   12.20
   4   2  -8   61.59   18.30
   4   2  -8   65.39   21.40
   4   2  -8   53.59   15.50
   4   2  -8   54.09   17.10
  -4  -2   8   38.80   10.20
  -4  -2   8   49.50   18.60
  -4  -2   8   33.60   13.90
   2   2  -8   26.40   37.60
   2   2  -8   -1.50   19.30
   2   2  -8   21.80   17.80
  -2  -2   8   10.70   15.30
  -2  -2   8    3.00   17.90
  -2  -2   8   16.00   11.30
   0   2  -8   21.40   19.80
   0   2  -8    2.80   25.20
   0   2  -8    8.10   20.90
   0  -2   8    9.30   13.30
   0  -2   8   31.90   20.00
  -2   2  -8   16.80   23.50
  -2   2  -8   51.19   27.10
   2  -2   8    4.30   17.00
   2  -2   8   24.00   19.70
  -4   2  -8  -75.89   30.60
  -4   2  -8   11.60   29.60
   4  -2   8   23.90   20.50
   4  -2   8   -2.90   24.40
  -6   2  -8   -3.10   42.50
   6  -2   8  -24.30   23.80
  17   1  -8  -28.40   24.50
  17   1  -8  -19.20   25.00
 -17  -1   8   -3.80   37.70
 -17  -1   8   -2.00   30.20
  15   1  -8   41.90   21.30
  15   1  -8   45.10   20.30
 -15  -1   8    7.80   33.10
 -15  -1   8   38.60   26.00
  13   1  -8  -13.60   16.10
  13   1  -8   -9.90   13.70
  13   1  -8   27.40   20.40
  13   1  -8    9.00   17.20
 -13  -1   8  -39.30   24.90
 -13  -1   8   -7.30   14.30
 -13  -1   8  -36.70   20.60
  11   1  -8  180.98   38.30
  11   1  -8  185.48   22.70
  11   1  -8  208.98   19.20
  11   1  -8  187.18   19.10
 -11  -1   8  214.08   29.20
 -11  -1   8  206.48   21.30
 -11  -1   8  204.68   19.10
 -11  -1   8  219.98   30.40
   9   1  -8  -15.80   17.70
   9   1  -8    1.80   12.70
   9   1  -8  -10.10   12.40
  -9  -1   8  -11.70   11.70
  -9  -1   8   -8.50   18.00
  -9  -1   8    2.30   13.20
   7   1  -8  303.77   27.70
   7   1  -8  319.27   29.40
   7   1  -8  321.07   24.20
  -7  -1   8  309.07   24.70
  -7  -1   8  310.87   32.60
   5   1  -8   15.40   13.00
   5   1  -8    7.90   15.00
   5   1  -8    5.90   16.90
  -5  -1   8   -2.20   16.80
  -5  -1   8    6.10    7.50
  -5  -1   8   15.10   12.50
   3   1  -8  257.17   28.70
   3   1  -8  313.07   32.70
   3   1  -8  290.77   26.40
   3   1  -8  307.07   25.80
  -3  -1   8  321.87   27.80
  -3  -1   8  286.77   27.10
  -3  -1   8  292.27   20.30
   1   1  -8   36.30   22.70
   1   1  -8   49.30   32.10
   1   1  -8   54.39   18.70
  -1  -1   8   42.40   16.80
  -1  -1   8   33.60   12.20
  -1  -1   8   30.30   19.40
  -1   1  -8   60.99   29.40
  -1   1  -8   87.79   23.10
  -1   1  -8   39.90   21.70
   1  -1   8   66.39   18.70
   1  -1   8   80.19   16.40
   1  -1   8   44.00   23.70
  -3   1  -8  115.59   27.60
  -3   1  -8  175.28   29.90
  -3   1  -8  200.58   34.70
   3  -1   8  140.29   25.50
   3  -1   8  213.18   22.60
  -5   1  -8    6.80   36.10
   5  -1   8  -18.00   19.70
   5  -1   8  -38.40   27.00
  18   0  -8  244.78   36.20
  18   0  -8  232.68   33.10
 -18   0   8  318.87   48.30
  16   0  -8   14.90   22.20
  16   0  -8    3.20   21.90
 -16   0   8   -2.20   27.30
 -16   0   8   41.80   36.50
  14   0  -8  541.15   42.10
  14   0  -8  539.35   35.40
  14   0  -8  488.55   38.60
 -14   0   8  480.65   32.90
 -14   0   8  498.85   44.70
 -14   0   8  468.25   48.80
  12   0  -8  220.28   20.40
  12   0  -8  204.18   19.20
  12   0  -8  197.78   24.40
  12   0  -8  330.37   31.50
 -12   0   8  204.28   30.90
 -12   0   8  264.67   23.10
 -12   0   8  241.78   29.40
 -12   0   8  235.08   20.50
  10   0  -8  381.36   29.40
  10   0  -8  334.77   24.60
  10   0  -8  365.86   29.40
 -10   0   8  396.86   39.80
 -10   0   8  386.36   35.80
 -10   0   8  432.66   42.40
 -10   0   8  390.56   27.60
   8   0  -8  491.45   32.50
   8   0  -8  486.95   33.80
   8   0  -8  465.45   27.40
  -8   0   8  484.85   38.30
  -8   0   8  496.05   29.80
   6   0  -8  152.98   19.60
   6   0  -8  224.38   23.20
   6   0  -8  194.88   20.70
  -6   0   8  240.98   25.90
  -6   0   8  197.18   11.00
  -6   0   8  174.08   18.80
   4   0  -8 1091.39   52.19
   4   0  -8 1042.60   49.90
   4   0  -8 1124.49   46.60
  -4   0   8 1037.80   41.20
  -4   0   8 1026.40   52.39
  -4   0   8 1023.90   48.70
   2   0  -8   10.20   17.10
   2   0  -8   10.90   16.00
  -2   0   8   22.00   16.30
  -2   0   8   22.70   10.80
  -2   0   8   52.09   19.40
   0   0  -8 1714.43   77.59
   0   0  -8 1708.83   72.29
   0   0  -8 1690.33   64.19
   0   0  -8 1741.73   78.69
   0   0   8 1733.23   66.89
   0   0   8 1482.55   73.39
   0   0   8 1801.82   75.39
  -2   0  -8   23.30   28.20
  -2   0  -8  -13.40   22.20
  -2   0  -8   19.30   22.60
   2   0   8   47.80   26.90
   2   0   8   38.50   19.60
  -4   0  -8  831.02   62.69
  -4   0  -8  851.01   60.69
   4   0   8  960.90   48.90
   4   0   8  967.30   54.19
  -6   0  -8  141.59   44.60
   6   0   8   69.19   30.90
   6   0   8   65.39   26.80
  17  -1  -8  -62.69   23.30
  17  -1  -8   -9.40   26.20
 -17   1   8  -17.60   30.10
 -17   1   8    8.60   39.10
  15  -1  -8   38.70   20.20
  15  -1  -8   30.10   20.90
 -15   1   8   24.50   25.50
 -15   1   8   71.99   32.80
  13  -1  -8    0.60   15.30
  13  -1  -8  -10.60   17.20
  13  -1  -8  -19.70   14.50
 -13   1   8  -10.00   21.40
 -13   1   8   12.50   14.40
  11  -1  -8  183.28   20.00
  11  -1  -8  184.28   21.20
  11  -1  -8  229.78   25.80
  11  -1  -8  174.28   15.60
 -11   1   8  206.28   31.40
 -11   1   8  194.08   18.90
 -11   1   8  139.89   35.00
 -11   1   8  235.68   33.90
   9  -1  -8    3.70   14.00
   9  -1  -8  -14.00   15.70
   9  -1  -8  -11.00   15.20
   9  -1  -8  -17.40    9.80
  -9   1   8  -11.80   12.60
  -9   1   8    1.90   19.90
   7  -1  -8  309.77   29.10
   7  -1  -8  362.56   28.40
   7  -1  -8  295.67   21.50
  -7   1   8  334.77   33.40
  -7   1   8  330.77   27.40
   5  -1  -8  -17.00   14.00
   5  -1  -8  -13.80   14.80
   5  -1  -8    8.10   10.90
  -5   1   8    3.60    6.70
  -5   1   8   17.00   19.10
  -5   1   8   17.80   13.20
   3  -1  -8  263.37   23.80
   3  -1  -8  316.77   31.10
   3  -1  -8  319.57   35.10
   3  -1  -8  329.77   27.40
  -3   1   8  320.37   26.10
  -3   1   8  314.67   29.20
  -3   1   8  304.87   19.40
   1  -1  -8   -3.40   21.50
   1  -1  -8   28.00   17.60
   1  -1  -8   28.40   25.00
   1  -1  -8   23.10   11.10
  -1   1   8   23.00   12.20
  -1   1   8   11.60   20.40
  -1  -1  -8   64.49   23.50
  -1  -1  -8   71.09   14.20
  -1  -1  -8   68.09   27.60
  -1  -1  -8   63.09   22.00
   1   1   8   14.80   23.80
   1   1   8   51.79   18.70
   1   1   8   47.40   15.60
  -3  -1  -8  143.79   28.70
  -3  -1  -8  222.38   35.70
   3   1   8  143.79   20.80
   3   1   8  141.79   34.20
   3   1   8  149.49   25.10
  -5  -1  -8   65.99   36.80
  -5  -1  -8  -27.70   28.20
   5   1   8  -30.30   25.80
   5   1   8  -17.40   20.70
   5   1   8   33.00   26.30
  18  -2  -8   -6.60   47.00
  18  -2  -8   63.89   27.80
 -18   2   8  102.69   47.30
  16  -2  -8   -8.60   22.00
  16  -2  -8   27.40   23.80
 -16   2   8   14.90   27.70
 -16   2   8   41.20   38.20
  14  -2  -8   66.59   21.80
  14  -2  -8   25.70   17.40
 -14   2   8   42.70   31.60
 -14   2   8   54.29   25.80
  12  -2  -8    0.70   17.20
  12  -2  -8   -8.20   14.90
  12  -2  -8   14.60   13.80
 -12   2   8  -24.20   21.80
 -12   2   8    5.30   14.50
 -12   2   8  -11.80   13.30
 -12   2   8   28.10   38.40
  10  -2  -8   16.90   18.60
  10  -2  -8   -4.20   13.80
  10  -2  -8    4.10   11.20
  10  -2  -8   -6.90   15.40
 -10   2   8  -13.70   21.90
 -10   2   8   -6.60   15.70
 -10   2   8  -27.20   22.70
   8  -2  -8    1.00   15.30
   8  -2  -8   31.90    9.20
   8  -2  -8  -10.10   13.80
   8  -2  -8   28.50   14.40
  -8   2   8    0.80   13.30
  -8   2   8   35.90   20.00
   6  -2  -8   13.50    7.30
   6  -2  -8   11.70   14.90
   6  -2  -8    5.80   14.80
   6  -2  -8   13.80   14.80
  -6   2   8   20.10   20.60
  -6   2   8   10.00   13.80
   4  -2  -8   40.00   11.60
   4  -2  -8   37.70   16.40
   4  -2  -8   43.10   16.10
  -4   2   8   21.90   14.40
  -4   2   8   47.20   20.60
  -4   2   8   51.39    9.00
   2  -2  -8    6.80   13.20
   2  -2  -8   54.19   18.70
   2  -2  -8   24.40   34.00
   2  -2  -8   23.50   11.50
   2  -2  -8    6.90   15.70
  -2   2   8   34.90   10.70
  -2   2   8    5.60   20.80
   0  -2  -8  -19.00   19.10
   0  -2  -8   22.60   13.10
   0  -2  -8   31.00   25.10
   0  -2  -8   10.40   17.40
   0   2   8   21.10   12.80
   0   2   8   -3.90   22.30
   0   2   8   20.40   18.30
  -2  -2  -8   48.20   23.50
  -2  -2  -8   17.40   16.50
  -2  -2  -8   25.70   26.20
   2   2   8   23.60   28.70
   2   2   8   17.30   17.50
   2   2   8   31.90   20.00
   2   2   8   49.90   21.60
  -4  -2  -8  -21.20   23.90
  -4  -2  -8   -0.90   31.90
   4   2   8   16.60   21.80
   4   2   8   15.50   20.70
   4   2   8    5.40   36.60
   4   2   8  -22.30   25.90
  -6  -2  -8  -10.40   43.10
   6   2   8  -18.30   25.90
   6   2   8    7.60   31.20
  17  -3  -8   -3.40   27.20
  17  -3  -8  -31.50   23.70
 -17   3   8    4.70   38.60
 -17   3   8  -19.80   31.70
  15  -3  -8    0.50   19.90
  15  -3  -8    5.60   20.90
  15  -3  -8   18.70   21.60
 -15   3   8   34.70   32.90
 -15   3   8  -40.90   23.10
  13  -3  -8   87.89   19.10
  13  -3  -8   33.00   19.50
  13  -3  -8   65.59   17.20
 -13   3   8   60.69   18.10
 -13   3   8  109.79   27.10
 -13   3   8   79.99   30.60
 -13   3   8   92.29   16.10
  11  -3  -8  108.19   20.30
  11  -3  -8  115.69   15.20
  11  -3  -8  124.09   19.10
 -11   3   8  132.89   26.70
 -11   3   8  103.19   33.30
   9  -3  -8  114.79   18.70
   9  -3  -8  127.69   12.60
   9  -3  -8  131.09   19.10
  -9   3   8  108.89   17.80
  -9   3   8  126.29   25.60
   7  -3  -8   53.39   15.90
   7  -3  -8   45.40   15.60
   7  -3  -8   46.10   16.10
  -7   3   8   18.50   14.20
  -7   3   8   38.80   21.20
   5  -3  -8  133.99   19.30
   5  -3  -8  147.09   18.90
   5  -3  -8  113.49   18.00
  -5   3   8  129.79   18.60
  -5   3   8  136.99   24.30
   3  -3  -8   21.70   15.30
   3  -3  -8   20.40   17.40
   3  -3  -8   21.30   11.60
   3  -3  -8   26.80   15.70
  -3   3   8   11.90    9.00
  -3   3   8   28.60   20.90
   1  -3  -8   80.09   26.50
   1  -3  -8   90.39   20.10
   1  -3  -8   90.79   14.60
   1  -3  -8   69.39   17.80
  -1   3   8   91.29   25.40
  -1   3   8   82.99   19.60
  -1   3   8   61.49   13.00
  -1  -3  -8   10.70   15.30
  -1  -3  -8   31.60   25.20
  -1  -3  -8   29.40   23.80
   1   3   8  -22.10   14.50
   1   3   8   27.70   29.20
   1   3   8  -28.80   17.60
   1   3   8  -23.50   17.10
  -3  -3  -8   -1.50   25.20
  -3  -3  -8   13.60   32.70
  -3  -3  -8  -16.20   29.80
   3   3   8   13.90   18.40
   3   3   8   35.50   21.80
   3   3   8  -60.19   20.30
   3   3   8   25.20   35.90
  -5  -3  -8  156.38   34.50
  -5  -3  -8  198.88   42.50
   5   3   8  185.98   50.69
   5   3   8  192.58   33.30
   5   3   8  167.88   31.10
   5   3   8  171.98   27.30
  16  -4  -8  424.36   41.60
  16  -4  -8  437.66   46.00
 -16   4   8  487.15   48.90
 -16   4   8  351.96   39.60
  14  -4  -8   57.89   22.40
  14  -4  -8   58.19   20.60
 -14   4   8   28.00   18.80
 -14   4   8  102.19   34.50
 -14   4   8   49.10   26.00
  12  -4  -8  241.78   25.20
  12  -4  -8  251.17   20.80
  12  -4  -8  263.97   24.90
 -12   4   8  192.48   30.40
 -12   4   8  256.17   23.70
 -12   4   8  244.58   37.10
  10  -4  -8  322.77   22.10
  10  -4  -8  295.87   31.10
  10  -4  -8  305.87   31.50
 -10   4   8  304.47   32.10
   8  -4  -8  140.79   20.90
   8  -4  -8  152.48   19.60
   8  -4  -8  139.79   20.30
  -8   4   8  179.18   26.90
  -8   4   8  161.38   20.40
   6  -4  -8  685.63   41.30
   6  -4  -8  730.43   41.90
   6  -4  -8  741.43   37.20
  -6   4   8  763.72   47.50
  -6   4   8  731.83   40.30
   4  -4  -8   48.50   17.30
   4  -4  -8  105.79   16.50
   4  -4  -8   54.79   16.90
  -4   4   8  102.29   23.90
   2  -4  -8 1003.60   53.79
   2  -4  -8  974.80   44.90
   2  -4  -8 1003.30   44.90
   2  -4  -8  967.70   49.00
  -2   4   8 1021.80   50.39
  -2   4   8 1030.80   41.00
  -2   4   8  951.80   56.49
   0  -4  -8   16.80   16.80
   0  -4  -8   23.50   15.10
   0  -4  -8   19.40   21.20
   0   4   8   18.80   13.60
   0   4   8   10.60   18.70
   0   4   8   50.79   17.90
  -2  -4  -8  881.01   57.49
  -2  -4  -8  953.40   57.89
  -2  -4  -8  944.51   49.40
  -2  -4  -8  787.12   48.60
   2   4   8  880.61   66.09
   2   4   8  989.30   58.29
   2   4   8  877.31   52.19
   2   4   8  968.90   51.99
  -4  -4  -8   39.10   29.00
  -4  -4  -8   41.10   25.00
  -4  -4  -8   23.30   36.00
   4   4   8   54.69   22.20
   4   4   8   41.40   25.80
   4   4   8   53.79   43.90
   4   4   8   26.70   25.20
  -6  -4  -8  617.94   68.79
   6   4   8  538.35   47.60
   6   4   8  629.24   53.29
  17  -5  -8  116.29   35.00
  17  -5  -8  149.09   29.10
 -17   5   8  114.29   47.30
  15  -5  -8   -9.80   20.80
  15  -5  -8    1.20   22.80
  15  -5  -8   29.00   23.20
 -15   5   8  -13.50   26.40
 -15   5   8   24.30   36.80
  13  -5  -8  175.68   23.90
  13  -5  -8  172.78   20.60
  13  -5  -8  158.48   25.50
 -13   5   8  177.38   19.90
 -13   5   8  227.28   33.00
 -13   5   8  203.18   22.40
 -13   5   8  130.39   34.00
  11  -5  -8   13.90   13.40
  11  -5  -8   11.90   17.30
 -11   5   8   -9.70   23.40
 -11   5   8   42.20   16.90
 -11   5   8   39.60   27.90
   9  -5  -8  351.76   33.30
   9  -5  -8  427.46   32.90
  -9   5   8  367.46   35.50
   7  -5  -8  135.69   19.80
   7  -5  -8  108.19   19.70
   5  -5  -8  299.47   36.00
   5  -5  -8  226.08   22.60
   5  -5  -8  262.27   23.50
  -5   5   8  178.48   26.90
  -5   5   8  214.68   29.60
   3  -5  -8  223.98   25.10
   3  -5  -8  252.07   23.00
   3  -5  -8  205.68   21.70
   3  -5  -8  246.68   24.50
  -3   5   8  256.07   34.70
  -3   5   8  212.78   23.30
   1  -5  -8  183.08   19.90
   1  -5  -8  222.98   22.40
   1  -5  -8  189.68   26.80
  -1   5   8  194.08   17.00
  -1   5   8  235.58   25.00
  -1   5   8  221.78   33.10
  -1  -5  -8  170.38   23.20
  -1  -5  -8  118.09   25.90
  -1  -5  -8  116.19   21.00
   1   5   8  145.69   25.20
   1   5   8  157.28   23.00
   1   5   8  169.88   35.40
   1   5   8  142.09   18.80
  -3  -5  -8  113.99   24.40
  -3  -5  -8   45.50   26.10
  -3  -5  -8  113.09   35.20
   3   5   8   82.09   26.80
   3   5   8   97.19   41.90
   3   5   8   89.79   22.20
   3   5   8   75.89   25.40
  -5  -5  -8   85.99   34.10
  -5  -5  -8   72.89   29.50
  -5  -5  -8  113.69   41.10
   5   5   8  104.99   27.00
   5   5   8   71.09   31.90
   5   5   8  124.69   33.00
   5   5   8  155.18   51.99
  16  -6  -8   62.89   25.40
  16  -6  -8   62.99   26.60
 -16   6   8   18.20   31.30
 -16   6   8  155.98   42.20
  14  -6  -8   45.30   23.70
  14  -6  -8   65.29   23.20
 -14   6   8  100.69   37.20
 -14   6   8   80.69   20.50
 -14   6   8   44.20   30.30
  12  -6  -8    3.80   19.80
  12  -6  -8   59.19   16.70
  12  -6  -8   36.50   19.70
 -12   6   8   45.80   31.80
 -12   6   8   48.60   17.40
 -12   6   8   59.89   26.30
  10  -6  -8  142.79   22.10
  10  -6  -8  145.29   21.30
 -10   6   8  128.89   28.60
 -10   6   8  112.99   19.20
   8  -6  -8  -15.80   17.00
   8  -6  -8  -24.20   16.20
  -8   6   8  -16.30   24.40
  -8   6   8   -5.70   14.80
   6  -6  -8   69.69   17.00
   6  -6  -8   55.39   19.40
  -6   6   8   51.19   16.80
  -6   6   8   88.49   24.30
   4  -6  -8   42.30   16.30
   4  -6  -8   -0.90   17.10
   4  -6  -8   -1.10   14.20
  -4   6   8   16.70   15.90
  -4   6   8   22.20   24.90
   2  -6  -8   11.40   18.40
   2  -6  -8   35.90   14.90
   2  -6  -8    0.90   15.80
  -2   6   8   43.30   24.50
  -2   6   8    0.10   12.50
  -2   6   8    5.20   15.40
  -2   6   8   11.90   16.40
   0  -6  -8  206.88   23.20
   0  -6  -8  206.38   28.60
   0   6   8  213.48   26.50
   0   6   8  224.98   20.20
   0   6   8  236.38   25.10
   0   6   8  239.08   37.40
  -2  -6  -8   18.30   20.10
  -2  -6  -8  -25.80   24.20
   2   6   8  -22.00   22.00
   2   6   8  -38.40   36.10
   2   6   8  -22.40   18.00
   2   6   8  -11.70   22.20
  -4  -6  -8   40.40   31.00
  -4  -6  -8   29.90   27.00
   4   6   8   -6.40   22.90
   4   6   8   50.79   46.20
   4   6   8   55.59   31.20
   4   6   8   53.59   28.50
  15  -7  -8    8.80   24.60
  15  -7  -8    6.80   25.10
 -15   7   8   14.80   36.90
 -15   7   8  -41.40   29.30
  13  -7  -8  -19.70   20.60
  13  -7  -8   21.90   22.20
 -13   7   8  -17.30   31.30
 -13   7   8   68.99   29.70
 -13   7   8  -16.20   18.40
  11  -7  -8   27.80   19.40
  11  -7  -8   48.10   20.10
 -11   7   8   11.10   30.40
 -11   7   8   49.99   18.90
 -11   7   8   60.69   25.80
   9  -7  -8   85.99   19.00
   9  -7  -8   83.49   20.20
  -9   7   8   82.99   18.50
  -9   7   8   70.39   27.80
   7  -7  -8   46.90   18.60
   7  -7  -8   44.50   21.90
  -7   7   8   60.79   17.00
  -7   7   8   71.29   24.80
   5  -7  -8  169.28   24.40
   5  -7  -8  175.88   21.50
  -5   7   8  198.58   22.70
  -5   7   8  166.18   29.60
   3  -7  -8   56.39   16.90
   3  -7  -8   72.69   18.10
   3  -7  -8   28.50   20.70
  -3   7   8   45.70   26.00
  -3   7   8   14.50   17.90
  -3   7   8   68.49   17.10
   1  -7  -8   -1.40   17.00
   1  -7  -8    8.70   21.10
   1  -7  -8   10.70   16.90
  -1   7   8  -19.00   18.30
  -1   7   8    3.40   17.70
  -1   7   8  -12.20   29.10
  -1  -7  -8   11.80   24.00
  -1  -7  -8   14.20   19.60
   1   7   8   23.20   34.30
   1   7   8   -6.80   21.40
   1   7   8   -2.70   21.70
   1   7   8   31.90   17.70
  -3  -7  -8   36.40   25.50
  -3  -7  -8   54.89   30.20
   3   7   8   75.19   24.00
   3   7   8   34.10   42.80
   3   7   8   49.20   26.20
   3   7   8   41.30   27.70
  -5  -7  -8   39.50   31.00
   5   7   8   24.90   29.30
   5   7   8   63.29   57.79
  14  -8  -8   37.70   26.60
  14  -8  -8   77.29   24.80
 -14   8   8   71.59   22.90
 -14   8   8   79.49   38.20
 -14   8   8   82.59   30.50
  12  -8  -8  138.89   25.30
  12  -8  -8  146.29   24.80
 -12   8   8   97.99   32.80
 -12   8   8  123.69   39.60
 -12   8   8  137.19   22.30
  10  -8  -8  156.08   23.60
  10  -8  -8   81.39   22.00
 -10   8   8  110.69   29.50
 -10   8   8   99.19   35.90
 -10   8   8  122.79   20.90
   8  -8  -8  168.68   22.80
   8  -8  -8  178.38   24.80
  -8   8   8  190.48   22.10
  -8   8   8  198.38   32.20
   6  -8  -8   72.99   30.90
   6  -8  -8   49.50   19.80
  -6   8   8   77.19   19.30
  -6   8   8   62.79   26.30
   4  -8  -8  522.85   43.60
   4  -8  -8  498.55   37.70
   4  -8  -8  486.45   37.10
  -4   8   8  499.15   33.90
  -4   8   8  502.05   50.79
  -4   8   8  522.95   37.90
   2  -8  -8  -13.30   18.90
   2  -8  -8    3.20   17.70
   2  -8  -8   26.00   17.60
  -2   8   8   12.70   19.20
  -2   8   8   55.89   31.20
   0  -8  -8  488.55   40.00
   0  -8  -8  486.65   45.80
   0   8   8  537.65   50.99
   0   8   8  496.25   41.20
   0   8   8  487.05   41.80
  -2  -8  -8   20.20   23.70
  -2  -8  -8   -3.90   26.30
   2   8   8   27.40   21.60
   2   8   8   67.29   39.50
   2   8   8   75.49   27.30
   2   8   8   48.50   24.50
  -4  -8  -8  224.68   33.90
   4   8   8  173.48   44.10
   4   8   8  157.18   35.80
   4   8   8  189.78   56.19
   4   8   8  309.87   33.00
  15  -9  -8  178.18   33.30
  13  -9  -8   97.19   25.20
  13  -9  -8   86.69   26.50
 -13   9   8  137.79   36.00
 -13   9   8  156.48   24.60
 -13   9   8  126.89   40.20
  11  -9  -8   82.69   23.40
  11  -9  -8   67.09   23.10
 -11   9   8   51.69   36.30
 -11   9   8   67.39   21.60
 -11   9   8   90.79   31.50
   9  -9  -8  175.08   25.00
   9  -9  -8  175.08   25.40
  -9   9   8  143.89   22.90
  -9   9   8  184.58   32.60
   7  -9  -8  243.88   25.80
   7  -9  -8  185.38   26.10
  -7   9   8  261.87   36.00
  -7   9   8  211.68   25.60
   5  -9  -8  273.07   40.00
   5  -9  -8  407.86   41.60
  -5   9   8  368.36   40.60
  -5   9   8  371.56   31.90
   3  -9  -8  122.79   26.30
   3  -9  -8  187.48   23.50
   3  -9  -8  182.78   23.70
  -3   9   8  199.78   34.20
  -3   9   8  128.99   25.00
  -3   9   8  166.98   21.60
   1  -9  -8  264.57   27.30
   1  -9  -8  190.08   27.90
  -1   9   8  221.18   38.40
  -1   9   8  251.17   30.20
  -1   9   8  244.58   27.30
  -1  -9  -8   46.50   26.60
  -1  -9  -8   95.59   23.90
   1   9   8  119.99   26.20
   1   9   8  162.78   42.50
   1   9   8  135.79   28.50
  -3  -9  -8   43.90   28.70
  -3  -9  -8   62.29   35.00
   3   9   8   95.09   31.10
   3   9   8  114.89   52.19
   3   9   8   59.79   36.20
  14 -10  -8   35.70   34.30
  14 -10  -8   -8.40   27.10
 -14  10   8  -37.30   38.40
 -14  10   8   55.69   49.50
  12 -10  -8  209.98   31.30
  12 -10  -8  220.78   29.20
 -12  10   8  212.98   27.00
 -12  10   8  139.09   35.40
 -12  10   8  255.87   44.10
  10 -10  -8   11.60   22.70
  10 -10  -8   15.40   21.60
 -10  10   8   15.70   35.70
 -10  10   8    1.30   28.40
 -10  10   8   11.40   20.80
   8 -10  -8   66.39   23.90
   8 -10  -8   69.39   22.10
  -8  10   8   50.49   30.60
  -8  10   8   69.89   21.80
   6 -10  -8   20.20   22.70
   6 -10  -8   29.40   20.90
  -6  10   8   97.99   31.60
  -6  10   8   74.79   22.10
   4 -10  -8   73.49   26.60
   4 -10  -8   71.59   24.20
   4 -10  -8   59.19   21.00
  -4  10   8   84.59   18.90
  -4  10   8   73.59   32.50
  -4  10   8   91.19   23.20
   2 -10  -8   53.39   24.80
   2 -10  -8  118.19   23.30
   2 -10  -8   97.79   26.00
  -2  10   8   98.09   34.00
  -2  10   8  114.39   23.50
  -2  10   8  122.59   26.80
   0 -10  -8    8.30   22.90
   0 -10  -8   28.00   24.20
   0  10   8   -6.40   26.00
   0  10   8    7.00   23.70
   0  10   8   21.40   37.10
  -2 -10  -8  218.18   32.10
  -2 -10  -8  131.99   34.00
   2  10   8  153.38   32.70
   2  10   8  181.18   50.99
   2  10   8  247.98   39.30
  13 -11  -8   73.59   29.50
  13 -11  -8   -7.20   31.30
 -13  11   8   36.40   41.10
 -13  11   8   15.80   58.49
  11 -11  -8   -2.80   25.10
  11 -11  -8   59.49   25.40
 -11  11   8   -7.90   38.90
 -11  11   8   31.30   34.50
 -11  11   8   41.70   23.60
   9 -11  -8    9.30   22.20
   9 -11  -8    8.30   22.80
  -9  11   8   62.09   34.40
  -9  11   8    0.20   20.70
   7 -11  -8  121.09   24.70
   7 -11  -8   43.70   23.00
  -7  11   8    7.80   22.60
  -7  11   8   -1.40   31.30
   5 -11  -8   -4.50   21.50
   5 -11  -8   32.30   23.40
  -5  11   8  -51.59   27.50
  -5  11   8   32.50   23.10
   3 -11  -8  -20.20   26.20
   3 -11  -8  -27.00   19.90
   3 -11  -8  -26.80   23.60
  -3  11   8   13.70   31.30
  -3  11   8   33.70   22.00
  -3  11   8   -1.90   22.10
   1 -11  -8   14.50   22.70
   1 -11  -8  -31.20   25.20
  -1  11   8  -63.09   35.30
  -1  11   8   -0.50   24.20
  -1  11   8  -32.00   23.20
  -1 -11  -8   11.90   32.40
  -1 -11  -8    0.60   26.70
   1  11   8   21.90   29.00
   1  11   8   13.50   31.70
   1  11   8  -10.20   45.90
  12 -12  -8   24.70   31.90
  10 -12  -8  127.29   28.90
  10 -12  -8   68.49   26.20
 -10  12   8   88.49   37.20
 -10  12   8   55.39   39.90
 -10  12   8   97.99   27.40
   8 -12  -8   24.60   23.80
   8 -12  -8   46.20   26.50
  -8  12   8    2.20   22.90
  -8  12   8   20.90   32.50
   6 -12  -8  136.39   28.10
   6 -12  -8  113.29   26.50
  -6  12   8  123.89   26.80
  -6  12   8  176.28   36.90
   4 -12  -8   43.50   23.50
   4 -12  -8   66.49   25.10
   4 -12  -8   45.80   25.60
  -4  12   8   75.29   24.90
  -4  12   8   53.19   36.30
   2 -12  -8   84.29   29.10
   2 -12  -8   76.59   25.00
  -2  12   8   38.50   29.10
  -2  12   8   52.19   38.70
  -2  12   8   47.70   29.40
   0 -12  -8  150.88   39.90
   0 -12  -8   90.89   29.10
   0  12   8   38.10   63.29
   0  12   8  132.99   32.00
   0  12   8  172.38   54.69
  11 -13  -8  101.19   48.80
   9 -13  -8   78.29   29.70
   9 -13  -8   32.60   28.40
  -9  13   8    4.60   26.40
  -9  13   8  126.99   42.20
  -9  13   8   56.69   46.30
   7 -13  -8  258.17   33.60
   7 -13  -8  276.97   33.20
  -7  13   8  263.47   33.10
  -7  13   8  376.96   46.80
   5 -13  -8  -19.40   26.20
   5 -13  -8   16.00   26.70
  -5  13   8    6.70   24.50
  -5  13   8   42.40   39.30
   3 -13  -8  210.78   34.50
   3 -13  -8  394.66   34.60
  -3  13   8  300.47   36.70
  -3  13   8  297.47   47.50
   8 -14  -8   -6.10   29.60
  -8  14   8    4.20   29.00
   6 -14  -8   36.30   37.10
  -6  14   8   58.09   30.20
  -4  14   8    3.50   39.00
  -6 -12   9   86.49   41.00
   9  11  -9  151.88   38.00
  -9 -11   9  102.39   29.20
   7  11  -9   76.99   35.30
   7  11  -9   19.90   36.40
  -7 -11   9   53.19   30.00
   5  11  -9   -4.10   33.80
   5  11  -9   68.59   40.80
   5  11  -9  -23.80   43.20
  -5 -11   9    8.60   26.00
   3  11  -9  104.99   42.00
   3  11  -9   21.10   42.70
  -3 -11   9   95.39   28.10
  12  10  -9  -49.30   33.50
 -12 -10   9   -9.00   32.60
 -12 -10   9   -7.70   31.10
  10  10  -9   69.59   35.20
  10  10  -9    1.80   35.60
 -10 -10   9  -20.60   23.90
 -10 -10   9   34.70   27.10
   8  10  -9   38.10   32.70
   8  10  -9   16.60   30.20
  -8 -10   9   36.20   25.40
  -8 -10   9   11.40   21.70
   6  10  -9  -11.20   31.30
   6  10  -9  -29.10   31.20
  -6 -10   9  -12.40   22.40
  -6 -10   9   -1.60   23.10
   4  10  -9   55.89   38.40
   4  10  -9   52.79   33.20
   4  10  -9   17.80   35.70
  -4 -10   9   72.89   26.50
  -4 -10   9   45.40   24.00
   2  10  -9  -28.70   41.10
   2  10  -9   30.90   40.50
   2  10  -9   -2.90   35.30
  -2 -10   9   20.80   23.80
  13   9  -9   75.99   36.10
 -13  -9   9   34.10   41.90
 -13  -9   9   69.19   30.00
  11   9  -9   28.60   30.90
  11   9  -9    4.10   31.00
 -11  -9   9  -11.70   24.90
 -11  -9   9   39.20   26.30
   9   9  -9   67.89   30.90
   9   9  -9   42.00   29.10
  -9  -9   9   20.30   25.30
  -9  -9   9   53.59   22.50
   7   9  -9   42.40   29.90
   7   9  -9   49.99   30.10
  -7  -9   9   25.30   21.20
  -7  -9   9  -12.40   22.50
   5   9  -9   26.00   33.80
   5   9  -9    8.60   31.50
   5   9  -9   85.09   31.80
  -5  -9   9   46.90   24.00
  -5  -9   9   68.59   21.90
   3   9  -9   36.10   30.40
   3   9  -9   -6.00   33.70
   3   9  -9  -28.40   30.70
  -3  -9   9   24.50   24.10
  -3  -9   9   57.19   22.60
   1   9  -9  -61.19   35.50
   1   9  -9   42.90   35.70
   1   9  -9    3.10   33.60
   1   9  -9  -23.30   42.30
  -1  -9   9  -30.90   28.40
  -1  -9   9   51.89   25.00
  14   8  -9  -55.09   31.80
  14   8  -9    3.20   33.60
 -14  -8   9   32.80   29.00
 -14  -8   9    8.70   35.80
  12   8  -9  -47.30   28.50
  12   8  -9   -6.30   29.20
 -12  -8   9  -25.60   25.20
 -12  -8   9    9.30   33.90
 -12  -8   9  -21.70   23.40
  10   8  -9   16.30   30.80
  10   8  -9    8.70   29.00
 -10  -8   9   27.30   24.10
 -10  -8   9   38.10   20.70
   8   8  -9  107.39   30.40
   8   8  -9   40.20   29.80
  -8  -8   9   87.09   24.10
  -8  -8   9  103.79   22.30
   6   8  -9  121.89   31.00
   6   8  -9  157.58   32.30
  -6  -8   9  132.59   22.50
  -6  -8   9   89.29   22.30
   4   8  -9  163.68   36.80
   4   8  -9  159.88   29.70
   4   8  -9  143.09   33.30
   4   8  -9  108.99   31.60
  -4  -8   9  130.89   24.80
  -4  -8   9  113.49   21.90
   2   8  -9  111.49   33.50
   2   8  -9  119.69   34.00
   2   8  -9  161.08   38.20
   2   8  -9   90.49   30.30
  -2  -8   9  143.09   24.10
  -2  -8   9  114.89   26.60
   0   8  -9  102.39   43.80
   0   8  -9  152.08   41.30
   0  -8   9  113.69   27.10
   0  -8   9  123.19   30.50
  15   7  -9   16.70   34.60
  13   7  -9  -36.00   29.90
  13   7  -9  -71.39   25.40
  13   7  -9    8.80   27.90
 -13  -7   9   -3.30   31.20
 -13  -7   9  -20.20   23.70
 -13  -7   9   12.70   24.80
  11   7  -9   69.09   30.00
  11   7  -9  138.99   32.50
 -11  -7   9  140.09   25.50
 -11  -7   9  126.89   24.30
 -11  -7   9   95.49   30.40
   9   7  -9  -10.70   27.30
   9   7  -9   22.60   26.60
  -9  -7   9  -24.20   20.90
  -9  -7   9    5.70   18.90
   7   7  -9   95.69   27.90
   7   7  -9  121.29   28.20
  -7  -7   9   28.40   21.60
  -7  -7   9   96.89   21.70
   5   7  -9   57.09   31.40
   5   7  -9   44.10   26.60
   5   7  -9   15.90   35.80
   5   7  -9   19.20   28.10
  -5  -7   9   68.59   18.90
  -5  -7   9   48.50   21.60
  -5  -7   9   55.19   19.90
   3   7  -9  -34.70   26.00
   3   7  -9  -21.10   25.70
   3   7  -9   18.90   30.60
   3   7  -9    0.00   29.30
  -3  -7   9   29.00   18.30
  -3  -7   9    7.60   21.00
   1   7  -9   52.09   32.70
   1   7  -9   21.00   31.60
   1   7  -9   -8.90   35.70
   1   7  -9  -26.60   29.60
  -1  -7   9   36.50   24.70
  -1  -7   9   -1.80   24.00
  -1  -7   9   49.20   22.00
  -1   7  -9  -26.80   36.30
   1  -7   9    2.80   24.90
   1  -7   9  -30.00   27.60
  14   6  -9   22.70   31.10
  14   6  -9  -51.49   25.80
  14   6  -9    8.80   31.00
 -14  -6   9   47.30   32.30
 -14  -6   9   15.50   24.80
 -14  -6   9   -2.80   24.50
  12   6  -9   38.40   26.50
  12   6  -9    6.00   27.40
 -12  -6   9   59.29   22.00
 -12  -6   9   16.20   30.60
  10   6  -9   26.60   25.50
  10   6  -9   25.80   26.90
 -10  -6   9   48.00   20.50
 -10  -6   9   39.00   26.90
   8   6  -9  -19.10   23.30
   8   6  -9  -25.50   23.20
  -8  -6   9   -6.30   23.60
  -8  -6   9   33.80   19.00
   6   6  -9    1.90   20.40
   6   6  -9   -1.50   24.80
   6   6  -9   -3.40   24.40
  -6  -6   9   30.00   18.50
  -6  -6   9   -5.10   18.00
   4   6  -9   23.60   23.20
   4   6  -9    5.30   28.20
   4   6  -9    8.60   24.80
   4   6  -9    8.90   30.20
  -4  -6   9   -3.00   19.20
  -4  -6   9   10.60   18.50
  -4  -6   9    1.50   15.80
   2   6  -9  -21.20   25.10
   2   6  -9   27.00   29.80
   2   6  -9    8.80   31.30
   2   6  -9   29.00   28.40
  -2  -6   9   20.40   19.70
  -2  -6   9   12.60   18.80
  -2  -6   9   40.00   22.20
   0   6  -9   18.80   37.00
   0   6  -9   19.40   29.10
   0   6  -9   40.50   32.90
   0  -6   9   47.70   24.60
   0  -6   9   30.00   21.80
   0  -6   9   -0.30   24.70
  -2   6  -9  -11.20   38.70
   2  -6   9    8.40   42.20
   2  -6   9  -63.69   26.00
  15   5  -9   96.49   32.40
  15   5  -9   56.49   36.80
  15   5  -9   35.10   27.70
 -15  -5   9   47.60   28.60
 -15  -5   9   39.60   34.10
  13   5  -9   37.90   25.80
  13   5  -9   52.59   27.00
  13   5  -9   39.30   28.80
 -13  -5   9   77.89   32.80
 -13  -5   9   64.39   23.20
  11   5  -9  313.47   36.40
  11   5  -9  268.57   30.40
 -11  -5   9  352.56   36.90
 -11  -5   9  260.27   27.70
   9   5  -9   49.30   32.90
   9   5  -9   30.60   26.70
  -9  -5   9   40.80   19.30
  -9  -5   9   27.50   25.50
   7   5  -9  124.09   21.80
   7   5  -9   88.69   27.40
   7   5  -9  150.68   26.00
  -7  -5   9  116.89   21.80
  -7  -5   9   83.09   24.10
  -7  -5   9  119.19   20.30
   5   5  -9  -24.50   27.50
   5   5  -9   23.40   27.40
   5   5  -9   18.70   24.90
  -5  -5   9   31.40   14.60
  -5  -5   9    3.80   18.40
  -5  -5   9   43.40   19.70
   3   5  -9  -10.70   23.90
   3   5  -9  -10.10   28.90
   3   5  -9   31.00   25.30
   3   5  -9   23.00   28.30
  -3  -5   9   43.60   20.30
  -3  -5   9   29.50   16.60
  -3  -5   9   22.80   20.00
   1   5  -9  -36.80   24.00
   1   5  -9   40.80   30.50
   1   5  -9   -2.70   28.60
  -1  -5   9   22.10   19.20
  -1  -5   9    4.20   22.10
  -1  -5   9   -0.90   19.40
  -1   5  -9  -19.40   30.00
  -1   5  -9   77.49   38.70
  -1   5  -9   59.49   34.20
   1  -5   9   -7.30   25.20
   1  -5   9   13.00   22.90
   1  -5   9    7.20   24.60
  16   4  -9  -15.00   31.60
 -16  -4   9   60.69   42.00
  14   4  -9  -26.50   28.20
  14   4  -9  -19.50   23.30
  14   4  -9   51.19   28.50
 -14  -4   9   44.20   23.80
 -14  -4   9   11.70   32.40
  12   4  -9    4.90   29.80
  12   4  -9  -41.00   21.00
  12   4  -9   -9.60   25.40
 -12  -4   9   -2.50   28.20
 -12  -4   9  -14.50   19.00
  10   4  -9   -6.00   21.30
  10   4  -9   -2.20   25.30
 -10  -4   9   -6.10   17.30
 -10  -4   9   -5.30   24.30
   8   4  -9   46.10   21.80
   8   4  -9   86.59   25.20
   8   4  -9   78.69   19.60
  -8  -4   9   65.79   19.20
  -8  -4   9   31.60   29.80
  -8  -4   9   59.29   19.30
  -8  -4   9  114.39   25.40
   6   4  -9   41.40   22.70
   6   4  -9   10.30   19.50
   6   4  -9   72.99   27.10
  -6  -4   9   45.10   17.70
  -6  -4   9   19.00   22.70
  -6  -4   9   57.09   19.30
   4   4  -9  122.69   31.40
   4   4  -9   44.30   22.40
   4   4  -9   25.40   25.30
   4   4  -9   71.59   23.80
  -4  -4   9   75.79   16.20
  -4  -4   9   86.29   20.40
  -4  -4   9   93.79   20.70
   2   4  -9   65.49   29.00
   2   4  -9   28.70   25.20
   2   4  -9   66.79   26.80
   2   4  -9   60.39   29.80
  -2  -4   9   80.79   20.00
  -2  -4   9   74.79   20.90
  -2  -4   9   86.99   20.50
   0   4  -9   29.10   27.10
   0   4  -9   50.79   31.60
   0   4  -9   79.29   34.70
   0  -4   9   64.89   25.40
   0  -4   9   99.59   24.20
   0  -4   9   92.09   22.20
  -2   4  -9   -0.90   30.20
  -2   4  -9   56.49   41.40
  -2   4  -9   47.50   35.40
   2  -4   9   51.19   27.20
   2  -4   9    0.60   23.50
   2  -4   9   66.59   26.60
  15   3  -9   62.69   27.70
  15   3  -9  -17.30   25.50
 -15  -3   9    6.50   33.80
  13   3  -9  -13.80   23.30
  13   3  -9   -3.40   24.00
 -13  -3   9  -23.60   28.00
 -13  -3   9   23.90   19.60
  11   3  -9   48.30   24.30
  11   3  -9   96.69   27.20
  11   3  -9   72.39   22.60
 -11  -3   9   61.89   19.50
 -11  -3   9   70.99   27.10
 -11  -3   9  110.69   31.00
   9   3  -9   12.20   17.50
   9   3  -9    2.30   22.60
   9   3  -9   19.60   19.50
  -9  -3   9   10.40   17.30
  -9  -3   9   21.80   28.70
  -9  -3   9   13.60   16.90
   7   3  -9   42.20   23.50
   7   3  -9   36.50   20.10
   7   3  -9   24.60   19.20
  -7  -3   9   38.80   17.40
  -7  -3   9   37.80   23.80
  -7  -3   9   26.30   16.70
   5   3  -9    4.50   23.50
   5   3  -9    6.20   20.10
  -5  -3   9   12.20   17.20
  -5  -3   9   23.30   23.40
  -5  -3   9   -8.90   16.80
   3   3  -9   62.59   29.70
   3   3  -9   28.20   22.80
   3   3  -9   33.90   24.40
   3   3  -9   -3.30   22.20
  -3  -3   9   81.79   31.90
  -3  -3   9  -11.20   17.00
  -3  -3   9   29.90   19.70
  -3  -3   9   39.50   15.60
   1   3  -9   24.00   30.50
   1   3  -9    2.10   25.00
   1   3  -9   74.79   29.00
  -1  -3   9  -17.40   20.90
  -1  -3   9  -13.20   19.20
  -1  -3   9   35.50   21.80
  -1   3  -9  -12.40   31.10
  -1   3  -9   13.30   34.10
  -1   3  -9    8.70   27.40
   1  -3   9   -1.70   24.20
   1  -3   9   56.59   22.10
   1  -3   9   12.70   23.20
   3  -3   9   25.10   26.20
   3  -3   9   33.50   29.30
   3  -3   9   39.50   30.20
  16   2  -9  186.28   32.80
 -16  -2   9  182.98   41.60
  14   2  -9  160.08   29.20
  14   2  -9  116.39   25.30
 -14  -2   9  125.19   37.90
 -14  -2   9  148.19   23.70
 -14  -2   9  159.68   33.90
  12   2  -9   47.30   23.50
  12   2  -9   85.69   25.40
 -12  -2   9   83.39   28.20
 -12  -2   9   26.40   19.00
 -12  -2   9   56.09   33.30
  10   2  -9   71.59   23.30
  10   2  -9   47.70   19.70
  10   2  -9   37.60   19.30
  10   2  -9   87.09   25.40
 -10  -2   9   87.89   19.30
 -10  -2   9   55.19   25.90
 -10  -2   9   72.39   18.70
 -10  -2   9   81.19   32.00
   8   2  -9   -1.30   18.00
   8   2  -9  -45.00   21.10
   8   2  -9   -3.30   17.90
  -8  -2   9   20.40   16.70
  -8  -2   9   13.80   23.70
  -8  -2   9   29.70   15.90
   6   2  -9   41.90   23.50
   6   2  -9   41.70   19.50
   6   2  -9   20.60   20.50
  -6  -2   9   25.70   17.90
  -6  -2   9   27.40   23.50
  -6  -2   9   28.40   17.30
   4   2  -9   55.59   21.70
   4   2  -9   23.10   28.30
   4   2  -9    1.10   21.30
   4   2  -9    8.10   22.80
  -4  -2   9   24.80   24.20
  -4  -2   9   10.30   18.20
   2   2  -9   -0.30   29.50
   2   2  -9   16.70   22.70
   2   2  -9    4.50   25.00
   2   2  -9  -23.60   22.40
  -2  -2   9  -21.00   14.90
  -2  -2   9    1.30   18.50
  -2  -2   9   29.40   25.50
   0   2  -9   -6.70   26.70
   0   2  -9  -30.00   27.00
   0   2  -9   32.00   30.50
   0  -2   9   74.79   19.90
   0  -2   9   36.60   23.60
  -2   2  -9   15.40   37.40
  -2   2  -9  -16.10   40.30
  -2   2  -9    5.20   28.20
   2  -2   9   38.60   27.30
   2  -2   9   37.40   23.60
  15   1  -9   12.30   25.40
 -15  -1   9  -22.60   30.60
 -15  -1   9   20.40   39.30
  13   1  -9  228.18   30.00
  13   1  -9  103.09   25.10
 -13  -1   9  208.38   32.20
 -13  -1   9  222.78   39.10
 -13  -1   9  160.58   23.30
  11   1  -9   60.19   25.20
  11   1  -9   59.69   20.00
  11   1  -9   99.39   23.90
 -11  -1   9   67.89   19.40
 -11  -1   9   58.39   18.20
 -11  -1   9   87.59   33.00
 -11  -1   9   31.50   27.30
   9   1  -9  196.98   28.20
   9   1  -9  165.38   22.00
   9   1  -9  152.08   25.10
  -9  -1   9  197.38   22.90
  -9  -1   9  220.18   30.00
  -9  -1   9  150.68   20.70
   7   1  -9    3.40   18.50
   7   1  -9    6.40   26.10
   7   1  -9  -12.30   16.00
  -7  -1   9   45.50   23.70
  -7  -1   9   14.60   16.40
   5   1  -9   76.49   19.90
   5   1  -9  101.79   22.80
   5   1  -9   99.69   26.70
  -5  -1   9   71.29   19.00
  -5  -1   9   83.69   25.50
   3   1  -9   -8.20   25.60
   3   1  -9  -20.70   21.10
   3   1  -9    6.00   26.00
   3   1  -9   27.30   21.30
  -3  -1   9   -8.70   14.80
  -3  -1   9  -22.50   18.50
  -3  -1   9    6.50   26.20
   1   1  -9   19.40   29.80
   1   1  -9  -24.30   24.30
   1   1  -9  -17.70   26.10
  -1  -1   9   -7.50   27.20
  -1  -1   9    4.30   19.80
  -1  -1   9    6.30   16.50
  -1   1  -9  -10.80   25.70
  -1   1  -9  -18.10   30.20
  -1   1  -9   18.30   30.50
   1  -1   9  -10.60   25.00
   1  -1   9   40.10   20.60
  -3   1  -9   44.40   41.80
  -3   1  -9   78.49   45.00
   3  -1   9  -38.30   28.50
   3  -1   9  -13.20   25.00
  16   0  -9   24.10   26.20
  16   0  -9  -66.79   26.20
 -16   0   9    5.10   35.80
 -16   0   9  -12.20   41.00
  14   0  -9  -13.50   21.90
  14   0  -9  -28.90   20.90
 -14   0   9  -30.40   36.70
 -14   0   9   -8.40   28.90
 -14   0   9   23.80   21.30
  12   0  -9  -18.10   22.10
  12   0  -9  -15.80   20.40
  12   0  -9  -37.50   17.50
 -12   0   9    6.60   32.80
 -12   0   9  -44.90   16.20
 -12   0   9   -7.90   17.10
 -12   0   9  -22.50   26.10
  10   0  -9   -0.70   17.90
  10   0  -9   -9.90   20.20
  10   0  -9  -30.90   20.50
 -10   0   9  -16.90   15.60
 -10   0   9  -10.00   24.20
 -10   0   9  -28.00   32.30
 -10   0   9  -10.60   15.90
   8   0  -9  -25.70   17.20
   8   0  -9  -27.30   18.20
   8   0  -9   13.20   28.20
  -8   0   9  -10.30   25.90
  -8   0   9    2.00   15.40
   6   0  -9  -12.00   23.70
   6   0  -9    1.50   20.60
  -6   0   9  -13.40   16.10
  -6   0   9   10.30   24.20
   4   0  -9   -3.20   20.10
   4   0  -9  -10.90   21.00
  -4   0   9   26.90   17.50
  -4   0   9  -30.10   24.30
   2   0  -9  -12.80   23.40
   2   0  -9   20.60   26.60
   2   0  -9  -19.40   21.20
  -2   0   9   12.20   19.70
  -2   0   9   -2.90   14.20
  -2   0   9  -46.50   26.50
   0   0  -9   10.80   30.20
   0   0  -9  -16.00   25.70
   0   0  -9  -25.50   32.10
   0   0   9   12.60   33.40
   0   0   9   35.00   23.80
   0   0   9   10.30   20.30
  -2   0  -9   -4.90   28.80
  -2   0  -9   64.09   36.70
   2   0   9   65.69   24.10
   2   0   9   -3.50   25.80
  15  -1  -9   16.90   24.90
  15  -1  -9  -15.50   23.90
 -15   1   9   37.60   39.30
 -15   1   9   -5.20   28.70
  13  -1  -9  192.78   25.40
  13  -1  -9  158.98   26.40
 -13   1   9  208.08   23.90
 -13   1   9  227.28   26.00
 -13   1   9  219.38   34.70
 -13   1   9  164.98   38.40
  11  -1  -9   65.09   21.60
  11  -1  -9   73.99   21.10
  11  -1  -9   88.89   25.20
 -11   1   9   56.59   18.50
 -11   1   9   84.99   33.80
 -11   1   9   94.09   19.20
 -11   1   9   69.59   27.70
   9  -1  -9  125.29   23.60
   9  -1  -9  170.08   26.00
   9  -1  -9  178.38   26.30
  -9   1   9  194.58   22.20
  -9   1   9  177.38   28.90
   7  -1  -9  -20.00   20.30
   7  -1  -9   21.40   20.30
   7  -1  -9   13.90   24.40
  -7   1   9   18.20   17.80
  -7   1   9   48.00   25.20
   5  -1  -9  121.19   23.50
   5  -1  -9   78.19   22.40
  -5   1   9   80.89   20.50
  -5   1   9  109.59   37.50
   3  -1  -9   -0.60   22.10
   3  -1  -9   -0.80   22.10
  -3   1   9  -11.30   34.50
  -3   1   9    1.20   17.50
   1  -1  -9  -10.30   23.50
   1  -1  -9   19.30   25.10
   1  -1  -9   -1.00   27.00
  -1   1   9   10.90   16.50
  -1   1   9  -16.40   35.30
  -1   1   9    0.30   21.40
  -1  -1  -9   23.80   33.40
  -1  -1  -9  -16.80   26.70
   1   1   9   83.09   39.20
   1   1   9  -12.60   24.10
   1   1   9  -19.00   21.10
  -3  -1  -9  -27.90   39.90
   3   1   9   30.80   24.60
   3   1   9  -25.90   29.60
  16  -2  -9  190.38   35.50
  16  -2  -9  212.08   44.70
 -16   2   9  213.38   48.90
 -16   2   9  154.38   45.30
  14  -2  -9   84.09   26.20
  14  -2  -9  108.09   25.20
  14  -2  -9  131.79   34.70
 -14   2   9  157.18   32.10
 -14   2   9   81.39   40.60
  12  -2  -9   62.49   20.60
  12  -2  -9   57.09   23.20
 -12   2   9   87.69   21.00
 -12   2   9   78.79   30.40
 -12   2   9   88.89   36.00
 -12   2   9   56.19   20.00
  10  -2  -9   98.89   22.50
  10  -2  -9  106.49   23.50
  10  -2  -9   28.20   20.60
 -10   2   9   34.30   33.10
 -10   2   9   73.09   19.50
 -10   2   9   73.29   27.00
   8  -2  -9   -1.80   19.30
   8  -2  -9   30.10   19.60
   8  -2  -9    9.10   20.30
  -8   2   9    7.20   24.60
  -8   2   9   14.50   17.50
   6  -2  -9  -10.30   18.60
   6  -2  -9   16.50   20.70
   6  -2  -9   14.20   20.20
  -6   2   9    1.30   17.30
  -6   2   9   47.50   26.40
   4  -2  -9   -8.70   21.20
   4  -2  -9  -18.20   21.40
  -4   2   9    7.80   19.20
  -4   2   9   18.60   26.80
   2  -2  -9  -31.20   21.40
   2  -2  -9  -41.60   22.20
  -2   2   9   23.50   29.80
  -2   2   9   12.40   19.30
   0  -2  -9   39.10   31.30
   0  -2  -9   19.10   25.60
   0   2   9   -2.00   20.80
   0   2   9   40.90   34.60
  -2  -2  -9  -27.60   26.30
  -2  -2  -9   67.89   38.90
   2   2   9   34.20   27.20
   2   2   9   -5.30   22.50
  15  -3  -9   -7.10   25.30
 -15   3   9  -16.10   31.80
 -15   3   9  -22.00   41.90
  13  -3  -9   18.80   23.40
  13  -3  -9  -23.60   21.60
 -13   3   9  -28.80   18.50
 -13   3   9    2.00   29.20
 -13   3   9  -72.59   34.90
 -13   3   9   17.00   20.50
  11  -3  -9   73.49   22.50
  11  -3  -9   65.59   22.80
 -11   3   9   98.69   37.40
 -11   3   9   86.69   21.00
 -11   3   9  109.49   29.90
   9  -3  -9   51.69   22.60
   9  -3  -9   -2.80   19.80
   9  -3  -9   -4.40   18.50
  -9   3   9    4.00   17.50
  -9   3   9   46.30   27.20
   7  -3  -9   30.40   19.80
   7  -3  -9   13.10   19.10
   7  -3  -9   33.40   19.30
  -7   3   9   85.49   27.80
  -7   3   9   13.90   17.00
   5  -3  -9   22.00   19.70
   5  -3  -9   26.20   20.30
   5  -3  -9  -35.90   17.70
  -5   3   9   12.90   25.50
  -5   3   9    8.00   17.70
   3  -3  -9   28.50   25.80
   3  -3  -9   28.20   20.60
   3  -3  -9   13.90   23.50
  -3   3   9   25.50   18.70
  -3   3   9   50.09   29.60
   1  -3  -9    1.80   23.40
   1  -3  -9  -57.59   22.90
  -1   3   9   11.90   20.40
  -1   3   9   35.30   32.80
  -1  -3  -9    5.70   26.90
  -1  -3  -9   31.80   34.70
   1   3   9    2.70   39.30
   1   3   9    7.40   23.80
  -3  -3  -9   16.60   41.70
   3   3   9  -29.40   30.90
 -16   4   9   64.19   50.09
  14  -4  -9    7.70   23.70
  14  -4  -9   58.09   25.40
 -14   4   9   45.00   32.40
 -14   4   9    5.30   40.50
 -14   4   9   16.40   22.80
  12  -4  -9  -20.50   19.40
  12  -4  -9    2.90   21.20
 -12   4   9    4.20   19.20
 -12   4   9   14.60   34.20
 -12   4   9    5.70   28.20
 -12   4   9   16.90   19.00
  10  -4  -9   -8.10   19.70
  10  -4  -9  -21.70   20.10
 -10   4   9   23.50   18.70
 -10   4   9  -11.40   27.60
   8  -4  -9   68.69   22.50
   8  -4  -9   63.59   22.60
   8  -4  -9  109.29   22.30
  -8   4   9   50.29   28.80
  -8   4   9   68.19   19.50
   6  -4  -9   55.79   20.90
   6  -4  -9   26.00   21.10
   6  -4  -9   32.70   20.60
  -6   4   9   46.60   20.30
  -6   4   9   68.99   29.50
   4  -4  -9   78.79   21.60
   4  -4  -9   61.69   23.40
  -4   4   9  114.99   32.70
  -4   4   9   56.99   19.20
   2  -4  -9   63.89   23.70
   2  -4  -9   48.00   25.10
   2  -4  -9   75.39   19.00
  -2   4   9    3.20   20.60
  -2   4   9   54.49   32.60
   0  -4  -9    6.00   25.50
   0  -4  -9   41.90   25.50
   0   4   9   50.19   40.10
   0   4   9   66.39   25.60
  -2  -4  -9    8.60   32.80
   2   4   9   76.89   30.40
   2   4   9   16.90   44.00
  15  -5  -9   40.20   27.40
  15  -5  -9   25.50   30.50
 -15   5   9   66.19   41.80
 -15   5   9   -1.90   43.50
  13  -5  -9    9.00   24.40
  13  -5  -9   87.09   24.80
 -13   5   9   55.69   21.10
 -13   5   9   85.49   32.60
 -13   5   9   74.39   38.70
  11  -5  -9  267.87   29.10
  11  -5  -9  290.57   29.80
 -11   5   9  222.68   36.10
 -11   5   9  286.67   44.40
 -11   5   9  281.27   28.40
   9  -5  -9   21.20   21.50
   9  -5  -9   45.30   20.90
  -9   5   9   62.79   21.20
  -9   5   9   41.50   28.30
   7  -5  -9   97.39   22.40
   7  -5  -9   90.59   22.30
  -7   5   9   93.89   30.60
  -7   5   9   81.39   22.20
   5  -5  -9   18.30   20.70
   5  -5  -9   29.90   21.00
  -5   5   9   98.39   31.60
  -5   5   9   26.80   18.60
   3  -5  -9    6.60   19.60
   3  -5  -9   -4.60   21.10
   3  -5  -9   -3.50   22.00
  -3   5   9   -0.50   31.30
  -3   5   9  -11.10   20.20
   1  -5  -9   10.10   20.50
   1  -5  -9  -25.50   23.60
   1  -5  -9   11.20   26.10
  -1   5   9   58.79   37.00
  -1   5   9  -10.70   23.30
  -1  -5  -9   22.90   31.30
   1   5   9   12.20   25.30
   1   5   9   46.70   28.90
   1   5   9   10.70   42.20
  14  -6  -9   62.89   27.30
  14  -6  -9    1.10   25.90
 -14   6   9   41.10   24.00
 -14   6   9   50.49   35.40
 -14   6   9   57.29   43.20
  12  -6  -9    7.20   23.60
  12  -6  -9   47.60   23.90
 -12   6   9   34.00   21.00
 -12   6   9   69.09   38.20
 -12   6   9   42.60   31.70
  10  -6  -9   21.90   22.00
  10  -6  -9    6.30   21.70
 -10   6   9   13.40   30.80
 -10   6   9   -8.00   19.60
   8  -6  -9  -12.30   19.30
   8  -6  -9    0.30   21.00
  -8   6   9  -50.99   17.50
  -8   6   9    6.40   29.40
   6  -6  -9   10.80   21.80
   6  -6  -9   11.30   20.50
  -6   6   9   59.49   30.20
  -6   6   9   11.80   19.30
   4  -6  -9  -23.00   20.80
   4  -6  -9   28.00   22.40
  -4   6   9   -9.70   18.90
  -4   6   9   -2.60   32.10
   2  -6  -9   -7.00   20.10
   2  -6  -9  -38.10   23.20
   2  -6  -9  -24.30   21.90
  -2   6   9   56.49   24.40
  -2   6   9  -25.70   34.20
   0  -6  -9  -14.50   23.20
   0  -6  -9   -8.10   25.90
   0   6   9   26.20   23.50
   0   6   9   13.60   26.40
   0   6   9  -50.79   38.10
   2   6   9   21.40   49.90
   2   6   9  -49.30   33.40
  15  -7  -9  132.49   32.40
 -15   7   9   81.59   29.50
  13  -7  -9  -18.30   24.70
  13  -7  -9   25.20   26.20
 -13   7   9   83.79   44.50
 -13   7   9   17.80   33.00
 -13   7   9  -27.00   22.00
  11  -7  -9   93.69   26.00
  11  -7  -9  116.89   26.30
 -11   7   9  103.89   23.50
 -11   7   9  146.39   34.50
 -11   7   9  107.09   40.30
   9  -7  -9  -33.20   21.10
   9  -7  -9   20.50   22.00
  -9   7   9   39.60   22.60
  -9   7   9   18.00   29.30
   7  -7  -9   51.49   24.40
   7  -7  -9    1.80   22.30
  -7   7   9   10.90   30.20
  -7   7   9   85.89   22.00
   5  -7  -9   45.70   23.30
   5  -7  -9   43.90   23.40
  -5   7   9   43.30   32.40
  -5   7   9   34.20   21.40
   3  -7  -9  -19.20   24.10
   3  -7  -9    7.60   21.20
   3  -7  -9  -25.20   22.70
  -3   7   9   -6.90   21.20
  -3   7   9  -54.09   31.80
   1  -7  -9  -24.60   24.50
   1  -7  -9   12.90   23.00
  -1   7   9   56.29   24.60
  -1   7   9    1.40   24.90
  -1   7   9    8.80   38.20
  -1  -7  -9   -5.60   27.00
   1   7   9   23.60   46.30
   1   7   9   22.90   28.80
   1   7   9    4.00   36.10
  14  -8  -9   -8.10   31.50
 -14   8   9  -24.10   25.60
  12  -8  -9  -21.60   25.00
  12  -8  -9    4.50   26.10
 -12   8   9   24.10   24.50
 -12   8   9    6.10   31.60
 -12   8   9  -31.30   39.20
  10  -8  -9   42.80   23.80
  10  -8  -9   51.29   24.40
 -10   8   9   67.39   22.80
 -10   8   9   -5.30   31.90
   8  -8  -9   92.29   26.10
   8  -8  -9   97.89   26.00
  -8   8   9  100.29   35.50
  -8   8   9  111.49   25.10
   6  -8  -9  107.99   27.70
   6  -8  -9  112.39   25.90
  -6   8   9  146.89   36.90
  -6   8   9  116.89   23.10
   4  -8  -9  106.89   28.60
   4  -8  -9  102.29   26.30
  -4   8   9  148.99   27.50
  -4   8   9  146.09   38.10
   2  -8  -9  109.79   26.80
   2  -8  -9   77.59   27.50
  -2   8   9  154.08   31.10
  -2   8   9  134.19   39.90
  -2   8   9  109.69   26.10
   0  -8  -9   61.99   43.80
   0  -8  -9  131.19   29.90
   0   8   9  121.39   39.60
   0   8   9   71.19   30.90
   0   8   9  126.29   47.50
  13  -9  -9    2.90   31.80
 -13   9   9   67.49   27.70
  11  -9  -9   19.00   26.60
  11  -9  -9   51.89   25.20
 -11   9   9   12.90   44.00
 -11   9   9   15.20   24.60
 -11   9   9   -6.60   34.60
   9  -9  -9   76.39   26.10
   9  -9  -9   37.00   26.50
  -9   9   9    0.20   23.40
  -9   9   9   40.10   35.00
   7  -9  -9   47.50   25.60
   7  -9  -9  -14.10   24.90
  -7   9   9   15.00   32.10
  -7   9   9   11.20   21.80
   5  -9  -9   32.40   26.30
   5  -9  -9   44.70   26.60
  -5   9   9   14.90   24.00
  -5   9   9  -57.89   31.90
   3  -9  -9   21.40   25.80
   3  -9  -9    5.00   24.00
  -3   9   9  125.89   39.90
  -3   9   9    8.80   24.60
   1  -9  -9   21.50   27.40
  -1   9   9  -39.80   30.40
  -1   9   9    2.70   43.70
  -1   9   9  -27.40   27.90
 -12  10   9   16.90   28.90
  10 -10  -9   18.10   26.20
  10 -10  -9   35.00   30.30
 -10  10   9   40.90   48.40
 -10  10   9   36.80   39.80
 -10  10   9   91.89   26.40
   8 -10  -9   17.30   25.80
   8 -10  -9   41.20   28.20
  -8  10   9   21.30   24.70
  -8  10   9  138.29   40.50
   6 -10  -9  -50.69   24.90
   6 -10  -9  -38.50   26.00
  -6  10   9  -12.00   24.90
  -6  10   9   78.49   37.70
   4 -10  -9   22.10   29.10
  -4  10   9   94.99   42.50
  -4  10   9   22.00   26.10
   2 -10  -9   -8.10   27.80
  -2  10   9    2.10   29.40
  -2  10   9  -69.59   49.10
 -11  11   9  -18.10   29.10
   9 -11  -9   94.59   32.60
  -9  11   9  122.29   29.90
   7 -11  -9   36.50   29.60
   7 -11  -9    5.30   33.30
  -7  11   9   17.70   44.80
  -7  11   9   -7.20   27.20
  -5  11   9   12.70   29.10
  -5  11   9   58.69   49.90
   3 -11  -9   10.90   30.30
   8 -12  -9   39.50   32.20
  10   8 -10   -1.90   36.20
   8   8 -10   16.80   36.80
   6   8 -10  115.09   40.20
 -11  -7  10  -10.10   30.30
   9   7 -10  162.38   40.80
   9   7 -10  187.18   38.10
  -9  -7  10  201.58   32.90
  -9  -7  10  201.98   32.10
   7   7 -10  125.49   36.80
   7   7 -10   87.29   39.00
  -7  -7  10  104.99   31.80
   5   7 -10   65.49   40.80
   5   7 -10   68.69   37.10
 -12  -6  10   44.70   30.30
 -12  -6  10   15.90   34.50
  10   6 -10  176.38   40.80
 -10  -6  10  131.69   28.40
 -10  -6  10  177.88   30.40
   8   6 -10   21.80   35.40
   8   6 -10   42.20   33.30
  -8  -6  10   11.10   23.40
  -8  -6  10    2.50   25.20
   6   6 -10  418.56   42.70
   6   6 -10  381.36   46.80
  -6  -6  10  417.46   37.50
   4   6 -10   40.80   32.90
   4   6 -10   69.19   39.90
   4   6 -10    3.40   37.40
   4   6 -10   14.40   34.50
  -4  -6  10   51.69   42.40
  -4  -6  10   -3.40   27.30
  -2  -6  10  208.68   35.20
 -13  -5  10   54.59   40.00
 -13  -5  10  -32.60   27.60
  11   5 -10   19.00   34.50
 -11  -5  10   39.90   27.20
 -11  -5  10  -16.90   46.40
   9   5 -10   12.60   32.10
  -9  -5  10   11.50   24.30
   7   5 -10    7.50   32.10
  -7  -5  10   16.40   24.20
  -7  -5  10  -29.90   21.30
   5   5 -10   37.70   30.30
   5   5 -10  -35.80   34.70
  -5  -5  10   75.39   26.20
  -5  -5  10   25.10   23.30
   3   5 -10  -95.79   33.70
   3   5 -10  -68.19   31.90
   3   5 -10   21.90   45.60
  -3  -5  10  -19.20   26.50
  12   4 -10   15.40   29.50
  12   4 -10   15.00   33.70
 -12  -4  10    9.50   35.90
 -12  -4  10   22.70   26.20
  10   4 -10  142.59   36.40
 -10  -4  10  129.19   26.60
 -10  -4  10   98.99   36.60
   8   4 -10  146.49   33.50
  -8  -4  10   74.79   23.30
  -8  -4  10  129.99   25.90
   6   4 -10  112.49   33.80
   6   4 -10   56.49   29.40
  -6  -4  10   67.99   23.30
  -6  -4  10   84.89   24.90
   4   4 -10   13.10   33.90
   4   4 -10   45.30   30.20
  -4  -4  10  -33.10   21.40
  -4  -4  10   76.29   25.50
   2   4 -10  -38.10   36.50
   2   4 -10  -34.20   33.90
  -2  -4  10   28.80   28.60
  13   3 -10  -77.69   41.70
  13   3 -10  -53.09   32.60
 -13  -3  10    8.20   37.50
 -13  -3  10    7.90   26.20
  11   3 -10  227.88   33.40
  11   3 -10  212.58   35.60
 -11  -3  10  213.58   27.90
 -11  -3  10  237.68   40.00
   9   3 -10  117.99   34.20
  -9  -3  10   47.20   20.90
  -9  -3  10   93.29   35.00
  -9  -3  10   72.59   22.70
   7   3 -10   18.90   26.60
   7   3 -10   96.99   34.30
  -7  -3  10   76.39   23.10
  -7  -3  10   28.60   22.50
   5   3 -10  332.77   40.60
   5   3 -10  265.17   34.70
  -5  -3  10  344.47   33.00
  -5  -3  10  318.37   33.10
   3   3 -10  -23.70   29.20
   3   3 -10  -20.70   33.20
   3   3 -10  -28.80   32.70
  -3  -3  10   19.10   24.60
  -3  -3  10   16.10   22.40
   1   3 -10  341.27   46.40
   1   3 -10  315.07   49.20
  -1  -3  10  376.76   37.90
 -14  -2  10   21.10   40.70
  12   2 -10  185.08   36.90
  12   2 -10   85.69   29.90
 -12  -2  10  168.08   27.20
 -12  -2  10  101.59   36.90
  10   2 -10   43.30   27.70
  10   2 -10  150.68   32.90
 -10  -2  10  104.19   23.00
 -10  -2  10   38.00   21.50
 -10  -2  10  170.38   37.20
   8   2 -10  325.57   39.40
   8   2 -10  244.38   31.10
  -8  -2  10  245.78   27.00
  -8  -2  10  316.57   40.20
  -8  -2  10  269.57   28.50
   6   2 -10  104.99   33.60
   6   2 -10  137.39   28.90
  -6  -2  10  104.99   24.70
  -6  -2  10   73.59   34.20
  -6  -2  10  151.48   24.20
   4   2 -10  132.79   31.50
   4   2 -10  215.38   37.20
  -4  -2  10  260.77   29.30
  -4  -2  10  205.98   28.30
   2   2 -10  290.67   45.00
   2   2 -10  150.58   38.90
   2   2 -10  141.49   34.90
  -2  -2  10  116.69   28.90
  -2  -2  10  152.68   31.00
  13   1 -10   -4.00   27.00
  13   1 -10   83.89   32.00
 -13  -1  10    2.20   34.80
 -13  -1  10   56.69   26.50
  11   1 -10   18.30   30.90
  11   1 -10  -17.00   25.60
 -11  -1  10   49.30   22.80
 -11  -1  10   26.30   21.80
 -11  -1  10   24.70   43.20
 -11  -1  10   27.20   34.60
   9   1 -10  -16.60   24.40
   9   1 -10   92.99   31.20
   9   1 -10   21.70   25.00
  -9  -1  10   10.20   20.00
  -9  -1  10   63.49   23.00
  -9  -1  10   27.00   34.40
   7   1 -10   57.59   31.80
   7   1 -10   49.10   25.80
  -7  -1  10   63.59   35.40
  -7  -1  10   67.09   22.80
  -7  -1  10   82.19   21.70
   5   1 -10  -52.49   25.00
   5   1 -10  -46.40   31.20
  -5  -1  10   72.89   35.50
  -5  -1  10  -19.20   20.10
   3   1 -10  271.97   36.80
   3   1 -10  322.57   40.90
  -3  -1  10  288.57   32.40
   1   1 -10  -46.60   33.00
  -1  -1  10   71.19   29.70
 -14   0  10  -90.69   39.80
  12   0 -10  145.99   32.50
  12   0 -10  121.69   29.20
 -12   0  10  115.09   47.20
 -12   0  10  114.89   25.90
 -12   0  10  108.69   25.20
 -12   0  10   92.09   36.10
  10   0 -10   91.19   31.80
  10   0 -10   71.99   26.40
  10   0 -10   69.09   27.70
 -10   0  10   63.99   22.70
 -10   0  10  108.39   23.50
 -10   0  10   51.39   45.30
 -10   0  10   17.30   35.00
   8   0 -10  358.16   35.60
   8   0 -10  280.97   32.70
   8   0 -10  426.66   45.60
  -8   0  10  339.97   31.60
  -8   0  10  323.67   30.30
  -8   0  10  285.47   42.20
   6   0 -10  119.49   32.50
   6   0 -10  101.59   27.90
  -6   0  10  124.69   36.70
  -6   0  10  136.89   26.10
   4   0 -10   75.79   30.20
   4   0 -10  164.48   35.40
  -4   0  10  147.69   39.10
  -4   0  10  119.79   26.20
   2   0 -10  -42.50   30.10
  -2   0  10  -54.29   26.50
  13  -1 -10   -8.70   29.00
 -13   1  10   15.90   26.20
 -13   1  10  -47.20   44.60
 -13   1  10   19.80   24.50
 -13   1  10   49.99   37.20
  11  -1 -10  -63.19   25.90
  11  -1 -10   10.40   26.50
  11  -1 -10   81.99   30.90
 -11   1  10   28.00   22.40
 -11   1  10  -40.10   34.30
 -11   1  10  -12.90   43.20
 -11   1  10   51.29   24.00
   9  -1 -10  -35.40   24.10
   9  -1 -10   12.30   24.20
   9  -1 -10   34.40   30.10
  -9   1  10   36.10   20.20
  -9   1  10  123.99   37.20
  -9   1  10   26.70   22.70
   7  -1 -10  144.89   31.60
   7  -1 -10   76.59   26.20
   7  -1 -10   62.79   26.50
  -7   1  10  110.29   36.20
  -7   1  10  117.89   24.30
   5  -1 -10  -53.29   24.00
   5  -1 -10  -40.50   24.90
   5  -1 -10  -37.30   29.60
  -5   1  10   10.80   21.00
  -5   1  10    2.10   35.30
   3  -1 -10  257.87   35.80
  -3   1  10  329.97   34.30
  -3   1  10  334.97   46.40
   1  -1 -10  -32.40   43.40
  -1   1  10   33.00   29.40
 -14   2  10   95.79   51.49
  12  -2 -10   88.19   30.20
  12  -2 -10   94.59   28.90
 -12   2  10  122.39   24.30
 -12   2  10  132.89   26.50
 -12   2  10  156.28   39.80
 -12   2  10  159.98   48.00
  10  -2 -10  101.89   30.60
  10  -2 -10   40.90   27.20
  10  -2 -10   88.19   27.90
 -10   2  10   60.99   35.70
 -10   2  10   61.69   23.80
 -10   2  10   73.49   25.10
 -10   2  10  101.69   45.10
   8  -2 -10  189.58   30.90
   8  -2 -10  314.77   33.60
   8  -2 -10  352.96   36.60
  -8   2  10  243.58   29.20
  -8   2  10  262.87   40.60
   6  -2 -10  106.39   28.40
   6  -2 -10   63.29   26.90
   6  -2 -10   96.99   29.80
  -6   2  10  122.59   23.50
  -6   2  10   85.09   38.10
   4  -2 -10  159.48   31.60
   4  -2 -10  239.58   33.30
  -4   2  10  347.67   44.70
  -4   2  10  227.58   30.10
   2  -2 -10  130.29   33.30
   2  -2 -10  120.69   34.30
  -2   2  10  110.99   30.10
  -2   2  10  159.98   44.10
  13  -3 -10  -19.40   28.50
  13  -3 -10  -51.79   41.50
 -13   3  10    1.10   25.70
 -13   3  10   49.10   50.29
 -13   3  10   93.19   41.90
  11  -3 -10  266.07   32.80
  11  -3 -10  187.18   31.90
 -11   3  10  171.38   39.00
 -11   3  10  238.18   29.20
 -11   3  10  271.27   52.09
 -11   3  10  204.68   27.70
   9  -3 -10   50.49   26.00
   9  -3 -10   97.59   29.50
   9  -3 -10  103.29   28.20
  -9   3  10   59.59   23.40
  -9   3  10   87.49   36.30
   7  -3 -10   32.20   25.90
   7  -3 -10   17.40   24.90
  -7   3  10   33.60   22.50
  -7   3  10   17.30   35.00
   5  -3 -10  335.07   35.70
   5  -3 -10  242.78   34.30
  -5   3  10  389.56   47.70
  -5   3  10  342.97   33.30
   3  -3 -10   34.00   29.30
   3  -3 -10    6.20   28.20
  -3   3  10    5.20   39.70
  -3   3  10    8.10   25.50
  -1   3  10  465.35   58.39
  12  -4 -10   -7.60   28.30
  12  -4 -10   48.70   29.00
 -12   4  10   45.50   47.90
 -12   4  10  -25.60   24.50
 -12   4  10  -25.10   36.60
 -12   4  10   54.19   25.40
  10  -4 -10   87.09   28.00
  10  -4 -10   69.89   27.50
 -10   4  10  132.89   26.60
 -10   4  10  136.89   40.90
   8  -4 -10   72.39   27.60
   8  -4 -10   83.29   26.40
  -8   4  10  102.29   35.80
  -8   4  10   60.69   24.00
   6  -4 -10   77.29   27.70
   6  -4 -10   86.99   28.20
  -6   4  10  101.39   26.00
  -6   4  10  109.59   39.50
   4  -4 -10   -0.10   27.20
   4  -4 -10  -11.90   27.30
  -4   4  10   17.80   23.60
  -4   4  10   17.40   40.10
   2  -4 -10  -49.80   33.90
  -2   4  10   93.09   46.20
  -2   4  10  -19.70   39.20
  13  -5 -10  -17.80   31.20
 -13   5  10   91.19   41.30
  11  -5 -10  -14.40   28.60
  11  -5 -10    8.60   27.40
 -11   5  10   27.70   23.60
 -11   5  10   41.10   39.90
 -11   5  10  -69.29   45.90
   9  -5 -10   31.00   27.60
   9  -5 -10   64.49   29.10
  -9   5  10  111.69   39.20
  -9   5  10   42.20   25.30
   7  -5 -10    4.10   26.60
   7  -5 -10    9.30   27.90
  -7   5  10   -6.20   37.10
  -7   5  10   38.70   23.90
   5  -5 -10   56.69   29.20
   5  -5 -10   13.70   29.90
  -5   5  10   36.10   25.40
  -5   5  10   34.50   40.50
   3  -5 -10    8.50   34.20
   3  -5 -10    7.60   30.40
  -3   5  10   81.69   45.60
  -3   5  10  -16.70   30.30
  12  -6 -10   -3.10   31.80
 -12   6  10   90.79   35.30
  10  -6 -10  124.09   32.60
  10  -6 -10   97.29   32.50
 -10   6  10  120.49   28.60
 -10   6  10  136.69   44.20
   8  -6 -10    3.70   27.70
   8  -6 -10  -11.20   28.90
  -8   6  10    2.50   23.40
  -8   6  10    1.50   37.80
   6  -6 -10  384.26   38.30
  -6   6  10  411.86   36.70
  -6   6  10  499.15   54.59
   4  -6 -10   65.59   30.20
   4  -6 -10   43.10   34.30
  -4   6  10  -31.70   42.50
  -4   6  10    8.80   45.70
 -11   7  10   55.69   47.90
   9  -7 -10  169.68   34.50
   9  -7 -10  181.98   33.70
  -9   7  10  200.28   32.10
  -9   7  10  178.18   51.39
   7  -7 -10   24.00   33.00
   7  -7 -10  120.39   32.90
  -7   7  10  194.18   47.30
  -7   7  10   82.69   28.40
   5  -7 -10   66.69   31.40
  -5   7  10   35.80   45.70
   8  -8 -10  -13.80   31.60
   6  -8 -10   33.70   32.50
   0   0   0    0.00    0.00
_computing_structure_solution     'SHELXT 2014/5 (Sheldrick, 2014)'
_computing_structure_solution     'SHELXT 2014/5 (Sheldrick, 2014)'
;
_shelx_hkl_checksum              76978
_shelx_res_file
;
TITL mo_D18_196_j400b1_0m_a.res in C2/c
    shelx.res
    created by SHELXL-2018/3 at 14:16:06 on 22-Jul-2020
CELL  0.71073  11.8151  12.6367   6.4056   90.000  113.431   90.000
ZERR     4.00   0.0005   0.0006   0.0003    0.000    0.002    0.000
LATT   7
SYMM  - X,   Y, 1/2 - Z
SFAC  O        3.04850 13.27711  2.28680  5.70111   1.54630   0.32390 =
         0.86700  32.90894   0.25080   0.011   0.006    32.500   1.400  15.999
SFAC     P    AG   FE   ZN
UNIT  48 12 6.56 5.44 6.56
MERG   2
EXYZ Zn1 Fe1
EADP Zn1 Fe1
SHEL 50 0.62
FMAP   2
PLAN   10
ACTA
BOND
LIST   4
L.S.  10
TEMP    23.00
WGHT    0.014200    2.467000
EXTI    0.001243
FVAR       0.18834
AG1   3    1.000000    0.491015    0.750000    10.32000    0.01096    0.02768 =
         0.03547    0.00000   -0.00255    0.00000
AG2   3    0.500000    0.500000    0.000000    10.50000    0.02498    0.00877 =
         0.00979    0.00065    0.00245    0.00478
ZN1   5    0.782544    0.346896    0.372346    10.32000    0.00572    0.00818 =
         0.00660    0.00078    0.00288    0.00103
FE1   4    0.782544    0.346896    0.372346    10.68000    0.00572    0.00818 =
         0.00660    0.00078    0.00288    0.00103
ZN2   5    0.500000    0.734557    0.250000    10.50000    0.01101    0.00984 =
         0.01111    0.00000    0.00646    0.00000
P1    2    0.761441    0.611436    0.374749    11.00000    0.00653    0.00545 =
         0.00397   -0.00037    0.00202   -0.00099
P2    2    0.500000    0.285932    0.250000    10.50000    0.00515    0.00523 =
         0.00362    0.00000    0.00134    0.00000
O1    1    0.835491    0.664393    0.608438    11.00000    0.01017    0.00822 =
         0.00540   -0.00161    0.00240   -0.00116
O2    1    0.778340    0.677123    0.186092    11.00000    0.00931    0.01288 =
         0.00659    0.00052    0.00309   -0.00336
O3    1    0.624816    0.608558    0.328744    11.00000    0.00669    0.01075 =
         0.01055   -0.00030    0.00390   -0.00149
O4    1    0.815530    0.500082    0.382407    11.00000    0.01629    0.00856 =
         0.01564   -0.00230    0.00629    0.00283
O5    1    0.603685    0.359716    0.253354    11.00000    0.00618    0.00786 =
         0.01013    0.00231    0.00208   -0.00052
O6    1    0.458273    0.216426    0.032898    11.00000    0.00609    0.00862 =
         0.00622   -0.00149    0.00149   -0.00028
HKLF 4
REM  mo_D18_196_j400b1_0m_a.res in C2/c
REM wR2 = 0.0443, GooF = S = 1.074, Restrained GooF = 1.074 for all data
REM R1 = 0.0237 for 1585 Fo > 4sig(Fo) and 0.0387 for all 1924 data
REM 95 parameters refined using 0 restraints
END
WGHT      0.0142      2.4740
REM Highest difference peak  1.411,  deepest hole -0.898,  1-sigma level  0.187
Q1    1   0.9974  0.5112  0.8387  11.00000  0.05    1.41
Q2    1   0.8684  0.6375  0.5760  11.00000  0.05    0.79
Q3    1   0.6959  0.6096  0.3622  11.00000  0.05    0.67
Q4    1   0.5145  0.5651 -0.0268  11.00000  0.05    0.67
Q5    1   0.4763  0.2601  0.1211  11.00000  0.05    0.66
Q6    1   0.8076  0.6446  0.1591  11.00000  0.05    0.65
Q7    1   0.4475  0.1204 -0.1376  11.00000  0.05    0.64
Q8    1   0.4230  0.1874  0.0444  11.00000  0.05    0.63
Q9    1   0.6728  0.6374  0.2798  11.00000  0.05    0.63
Q10   1   0.8822  0.6868  0.5268  11.00000  0.05    0.61
;
_shelx_res_checksum              82779
loop_
_space_group_symop_operation_xyz
'x, y, z'
'-x, y, -z+1/2'
'x+1/2, y+1/2, z'
'-x+1/2, y+1/2, -z+1/2'
'-x, -y, -z'
'x, -y, z-1/2'
'-x+1/2, -y+1/2, -z'
'x+1/2, -y+1/2, z-1/2'
loop_
_atom_site_type_symbol
_atom_site_label
_atom_site_fract_x
_atom_site_fract_y
_atom_site_fract_z
_atom_site_U_iso_or_equiv
_atom_site_adp_type
_atom_site_calc_flag
_atom_site_occupancy
_atom_site_disorder_assembly
_atom_site_disorder_group
Ag Ag1 1.000000 0.49101(4) 0.750000 0.02841(12) Uani d 0.64 . .
Ag Ag2 0.500000 0.500000 0.000000 0.01591(7) Uani d 1 . .
Zn Zn1 0.78254(3) 0.34690(2) 0.37235(5) 0.00670(6) Uani d 0.32 . .
Fe Fe1 0.78254(3) 0.34690(2) 0.37235(5) 0.00670(6) Uani d 0.68 . .
Zn Zn2 0.500000 0.73456(3) 0.250000 0.01000(8) Uani d 1 . .
P P1 0.76144(5) 0.61144(4) 0.37475(8) 0.00534(10) Uani d 1 . .
P P2 0.500000 0.28593(6) 0.250000 0.00479(13) Uani d 1 . .
O O1 0.83549(14) 0.66439(12) 0.6084(2) 0.0081(3) Uani d 1 . .
O O2 0.77834(14) 0.67712(12) 0.1861(3) 0.0096(3) Uani d 1 . .
O O3 0.62482(14) 0.60856(12) 0.3287(3) 0.0092(3) Uani d 1 . .
O O4 0.81553(16) 0.50008(12) 0.3824(3) 0.0135(3) Uani d 1 . .
O O5 0.60368(13) 0.35972(12) 0.2534(3) 0.0084(3) Uani d 1 . .
O O6 0.45827(13) 0.21643(12) 0.0329(2) 0.0073(3) Uani d 1 . .
loop_
_atom_site_aniso_label
_atom_site_aniso_U_11
_atom_site_aniso_U_22
_atom_site_aniso_U_33
_atom_site_aniso_U_12
_atom_site_aniso_U_13
_atom_site_aniso_U_23
Ag1 0.01096(18) 0.0277(3) 0.0355(3) 0.000 -0.00255(17) 0.000
Ag2 0.02498(14) 0.00877(11) 0.00979(11) 0.00478(9) 0.00245(9) 0.00065(8)
Zn1 0.00572(12) 0.00818(13) 0.00660(12) 0.00103(10) 0.00288(9) 0.00078(10)
Fe1 0.00572(12) 0.00818(13) 0.00660(12) 0.00103(10) 0.00288(9) 0.00078(10)
Zn2 0.01101(17) 0.00984(17) 0.01111(17) 0.000 0.00646(14) 0.000
P1 0.0065(2) 0.0055(2) 0.0040(2) -0.00099(18) 0.00202(18) -0.00037(18)
P2 0.0051(3) 0.0052(3) 0.0036(3) 0.000 0.0013(2) 0.000
O1 0.0102(7) 0.0082(7) 0.0054(6) -0.0012(5) 0.0024(5) -0.0016(5)
O2 0.0093(7) 0.0129(7) 0.0066(7) -0.0034(6) 0.0031(5) 0.0005(5)
O3 0.0067(6) 0.0108(7) 0.0106(7) -0.0015(5) 0.0039(6) -0.0003(6)
O4 0.0163(8) 0.0086(7) 0.0156(8) 0.0028(6) 0.0063(6) -0.0023(6)
O5 0.0062(6) 0.0079(7) 0.0101(7) -0.0005(5) 0.0021(5) 0.0023(5)
O6 0.0061(6) 0.0086(7) 0.0062(6) -0.0003(5) 0.0015(5) -0.0015(5)
loop_
_atom_type_symbol
_atom_type_description
_atom_type_scat_dispersion_real
_atom_type_scat_dispersion_imag
_atom_type_scat_source
O O 0.0110 0.0060 'International Tables Vol C Tables 4.2.6.8 and 6.1.1.4'
P P 0.1023 0.0942 'International Tables Vol C Tables 4.2.6.8 and 6.1.1.4'
Ag Ag -0.8971 1.1015 'International Tables Vol C Tables 4.2.6.8 and 6.1.1.4'
Fe Fe 0.3463 0.8444 'International Tables Vol C Tables 4.2.6.8 and 6.1.1.4'
Zn Zn 0.2839 1.4301 'International Tables Vol C Tables 4.2.6.8 and 6.1.1.4'
loop_
_geom_angle_atom_site_label_1
_geom_angle_atom_site_label_2
_geom_angle_atom_site_label_3
_geom_angle_site_symmetry_1
_geom_angle_site_symmetry_3
_geom_angle
_geom_angle_publ_flag
O4 Ag1 O4 . 2_756 174.74(8) ?
O4 Ag1 O4 . 5_766 102.59(5) ?
O4 Ag1 O4 2_756 5_766 77.17(5) ?
O4 Ag1 O4 . 6_566 77.17(5) ?
O4 Ag1 O4 2_756 6_566 102.60(5) ?
O4 Ag1 O4 5_766 6_566 175.11(7) ?
O4 Ag1 O1 . 2_756 119.87(5) ?
O4 Ag1 O1 2_756 2_756 55.31(5) ?
O4 Ag1 O1 5_766 2_756 61.28(5) ?
O4 Ag1 O1 6_566 2_756 114.48(5) ?
O4 Ag1 O1 . . 55.31(5) ?
O4 Ag1 O1 2_756 . 119.87(5) ?
O4 Ag1 O1 5_766 . 114.48(5) ?
O4 Ag1 O1 6_566 . 61.28(5) ?
O1 Ag1 O1 2_756 . 78.45(6) ?
O4 Ag1 O6 . 8_556 70.89(5) ?
O4 Ag1 O6 2_756 8_556 114.20(5) ?
O4 Ag1 O6 5_766 8_556 83.66(5) ?
O4 Ag1 O6 6_566 8_556 100.79(5) ?
O1 Ag1 O6 2_756 8_556 144.45(4) ?
O1 Ag1 O6 . 8_556 125.39(4) ?
O4 Ag1 O6 . 7_656 114.20(5) ?
O4 Ag1 O6 2_756 7_656 70.89(5) ?
O4 Ag1 O6 5_766 7_656 100.79(5) ?
O4 Ag1 O6 6_566 7_656 83.66(5) ?
O1 Ag1 O6 2_756 7_656 125.39(4) ?
O1 Ag1 O6 . 7_656 144.45(4) ?
O6 Ag1 O6 8_556 7_656 51.96(6) ?
O5 Ag2 O5 5_665 . 180.0 ?
O5 Ag2 O3 5_665 . 98.00(5) ?
O5 Ag2 O3 . . 82.00(5) ?
O5 Ag2 O3 5_665 5_665 82.00(5) ?
O5 Ag2 O3 . 5_665 98.00(5) ?
O3 Ag2 O3 . 5_665 180.0 ?
O5 Ag2 O3 5_665 6_565 109.52(5) ?
O5 Ag2 O3 . 6_565 70.48(5) ?
O3 Ag2 O3 . 6_565 114.55(6) ?
O3 Ag2 O3 5_665 6_565 65.45(6) ?
O5 Ag2 O3 5_665 2_655 70.48(5) ?
O5 Ag2 O3 . 2_655 109.52(5) ?
O3 Ag2 O3 . 2_655 65.45(6) ?
O3 Ag2 O3 5_665 2_655 114.55(6) ?
O3 Ag2 O3 6_565 2_655 180.0 ?
O5 Ag2 O5 5_665 6_565 53.05(6) ?
O5 Ag2 O5 . 6_565 126.95(6) ?
O3 Ag2 O5 . 6_565 83.55(5) ?
O3 Ag2 O5 5_665 6_565 96.45(5) ?
O3 Ag2 O5 6_565 6_565 70.07(5) ?
O3 Ag2 O5 2_655 6_565 109.93(5) ?
O5 Ag2 O5 5_665 2_655 126.95(6) ?
O5 Ag2 O5 . 2_655 53.05(6) ?
O3 Ag2 O5 . 2_655 96.45(5) ?
O3 Ag2 O5 5_665 2_655 83.55(5) ?
O3 Ag2 O5 6_565 2_655 109.93(5) ?
O3 Ag2 O5 2_655 2_655 70.07(5) ?
O5 Ag2 O5 6_565 2_655 180.0 ?
O5 Zn1 O4 . . 95.79(7) ?
O5 Zn1 O1 . 6_565 109.03(6) ?
O4 Zn1 O1 . 6_565 88.50(6) ?
O5 Zn1 O2 . 6_566 87.17(6) ?
O4 Zn1 O2 . 6_566 101.23(7) ?
O1 Zn1 O2 6_565 6_566 160.33(6) ?
O5 Zn1 O6 . 8_556 160.35(6) ?
O4 Zn1 O6 . 8_556 102.51(6) ?
O1 Zn1 O6 6_565 8_556 78.85(6) ?
O2 Zn1 O6 6_566 8_556 82.34(6) ?
O5 Zn1 O2 . 4_645 77.79(6) ?
O4 Zn1 O2 . 4_645 171.76(6) ?
O1 Zn1 O2 6_565 4_645 88.76(6) ?
O2 Zn1 O2 6_566 4_645 83.75(6) ?
O6 Zn1 O2 8_556 4_645 84.57(6) ?
O3 Zn2 O3 . 2_655 80.82(8) ?
O3 Zn2 O6 . 6_566 113.09(6) ?
O3 Zn2 O6 2_655 6_566 92.67(6) ?
O3 Zn2 O6 . 5_665 92.67(6) ?
O3 Zn2 O6 2_655 5_665 113.09(6) ?
O6 Zn2 O6 6_566 5_665 146.50(8) ?
O3 Zn2 O1 . 7_666 85.40(6) ?
O3 Zn2 O1 2_655 7_666 164.84(6) ?
O6 Zn2 O1 6_566 7_666 86.93(6) ?
O6 Zn2 O1 5_665 7_666 73.66(5) ?
O3 Zn2 O1 . 8_465 164.84(6) ?
O3 Zn2 O1 2_655 8_465 85.40(6) ?
O6 Zn2 O1 6_566 8_465 73.66(5) ?
O6 Zn2 O1 5_665 8_465 86.93(6) ?
O1 Zn2 O1 7_666 8_465 108.94(8) ?
O3 Zn2 O5 . 5_665 84.84(5) ?
O3 Zn2 O5 2_655 5_665 61.40(5) ?
O6 Zn2 O5 6_566 5_665 146.63(5) ?
O6 Zn2 O5 5_665 5_665 51.69(5) ?
O1 Zn2 O5 7_666 5_665 123.73(5) ?
O1 Zn2 O5 8_465 5_665 83.04(5) ?
O3 Zn2 O5 . 6_566 61.40(5) ?
O3 Zn2 O5 2_655 6_566 84.84(5) ?
O6 Zn2 O5 6_566 6_566 51.69(5) ?
O6 Zn2 O5 5_665 6_566 146.63(5) ?
O1 Zn2 O5 7_666 6_566 83.04(5) ?
O1 Zn2 O5 8_465 6_566 123.73(5) ?
O5 Zn2 O5 5_665 6_566 136.14(5) ?
O3 P1 O4 . . 112.31(9) ?
O3 P1 O2 . . 108.59(9) ?
O4 P1 O2 . . 109.61(9) ?
O3 P1 O1 . . 110.16(9) ?
O4 P1 O1 . . 107.20(9) ?
O2 P1 O1 . . 108.92(9) ?
O5 P2 O5 . 2_655 105.07(12) ?
O5 P2 O6 . . 108.94(8) ?
O5 P2 O6 2_655 . 111.39(8) ?
O5 P2 O6 . 2_655 111.39(8) ?
O5 P2 O6 2_655 2_655 108.94(8) ?
O6 P2 O6 . 2_655 110.98(12) ?
loop_
_geom_bond_atom_site_label_1
_geom_bond_atom_site_label_2
_geom_bond_site_symmetry_2
_geom_bond_distance
_geom_bond_publ_flag
Ag1 O4 . 2.4953(17) ?
Ag1 O4 2_756 2.4953(17) ?
Ag1 O4 5_766 2.6368(18) ?
Ag1 O4 6_566 2.6368(18) ?
Ag1 O1 2_756 2.8281(16) ?
Ag1 O1 . 2.8282(16) ?
Ag1 O6 8_556 2.9160(15) ?
Ag1 O6 7_656 2.9160(15) ?
Ag2 O5 5_665 2.3866(15) ?
Ag2 O5 . 2.3866(15) ?
Ag2 O3 . 2.4538(15) ?
Ag2 O3 5_665 2.4538(15) ?
Ag2 O3 6_565 2.5587(15) ?
Ag2 O3 2_655 2.5587(15) ?
Ag2 O5 6_565 2.9459(16) ?
Ag2 O5 2_655 2.9459(16) ?
Zn1 O5 . 1.9473(15) ?
Zn1 O4 . 1.9706(16) ?
Zn1 O1 6_565 2.0275(15) ?
Zn1 O2 6_566 2.0525(15) ?
Zn1 O6 8_556 2.0762(15) ?
Zn1 O2 4_645 2.2463(16) ?
Zn2 O3 . 2.0911(16) ?
Zn2 O3 2_655 2.0911(16) ?
Zn2 O6 6_566 2.1497(15) ?
Zn2 O6 5_665 2.1497(15) ?
Zn2 O1 7_666 2.1975(15) ?
Zn2 O1 8_465 2.1975(15) ?
P1 O3 . 1.5217(15) ?
P1 O4 . 1.5382(16) ?
P1 O2 . 1.5431(16) ?
P1 O1 . 1.5532(15) ?
P2 O5 . 1.5328(15) ?
P2 O5 2_655 1.5328(15) ?
P2 O6 . 1.5502(15) ?
P2 O6 2_655 1.5503(15) ?

_cod_database_fobs_code 2243554
