#------------------------------------------------------------------------------
#$Date: 2020-04-06 01:10:09 +0300 (Mon, 06 Apr 2020) $
#$Revision: 250390 $
#$URL: file:///home/coder/svn-repositories/cod/cif/2/24/33/2243342.cif $
#------------------------------------------------------------------------------
#
# This file is available in the Crystallography Open Database (COD),
# http://www.crystallography.net/. The original data for this entry
# were provided by IUCr Journals, http://journals.iucr.org/.
#
# The file may be used within the scientific community so long as
# proper attribution is given to the journal article from which the
# data were obtained.
#
data_2243342
loop_
_publ_author_name
'Cui, Yu-Jin'
'Su, Feng'
'Jin, Wei-Jun'
_publ_section_title
;
 Structural and luminescent properties of co-crystals of tetraiodoethylene
 with two azaphenanthrenes
;
_journal_issue                   3
_journal_name_full               'Acta Crystallographica Section E'
_journal_page_first              438
_journal_page_last               442
_journal_paper_doi               10.1107/S2056989020002182
_journal_volume                  76
_journal_year                    2020
_chemical_formula_iupac          '0.5C2 I4 , C13 H9 N'
_chemical_formula_moiety         '0.5 (C2 I4) , (C13 H9 N)'
_chemical_formula_sum            'C14 H9 I2 N'
_chemical_formula_weight         445.02
_chemical_name_systematic
;
Tetraiodoethylene--benzo[<i>f</i>]quinoline (1/2)
;
_space_group_crystal_system      triclinic
_space_group_IT_number           2
_space_group_name_Hall           '-P 1'
_space_group_name_H-M_alt        'P -1'
_atom_sites_solution_hydrogens   geom
_audit_creation_method           SHELXL-2018/3
_cell_angle_alpha                97.050(2)
_cell_angle_beta                 92.059(2)
_cell_angle_gamma                95.579(2)
_cell_formula_units_Z            2
_cell_length_a                   7.3179(4)
_cell_length_b                   8.1089(5)
_cell_length_c                   11.3252(7)
_cell_measurement_reflns_used    4699
_cell_measurement_temperature    296(2)
_cell_measurement_theta_max      26.38
_cell_measurement_theta_min      2.80
_cell_volume                     663.02(7)
_computing_cell_refinement
;
SAINT (Bruker, 2012)
;
_computing_data_collection
;
APEX2 (Bruker, 2012)
;
_computing_data_reduction
;
SAINT (Bruker, 2012)
;
_computing_molecular_graphics
;
SHELXTL (Sheldrick, 2008),
DIAMOND (Brandenburg, 2005),
;
_computing_publication_material
;
publCIF (Westrip, 2010)
;
_computing_structure_refinement
;
<i>SHELXL2018/3</i> (Sheldrick, 2015)
;
_computing_structure_solution
;
SHELXS97 (Sheldrick, 2008)
;
_diffrn_ambient_temperature      296(2)
_diffrn_measured_fraction_theta_full 0.998
_diffrn_measured_fraction_theta_max 0.997
_diffrn_measurement_device_type  'Bruker APEXII CCD'
_diffrn_measurement_method       '\f and \w scans'
_diffrn_radiation_type           MoK\a
_diffrn_radiation_wavelength     0.71073
_diffrn_reflns_av_R_equivalents  0.0256
_diffrn_reflns_av_unetI/netI     0.0285
_diffrn_reflns_limit_h_max       9
_diffrn_reflns_limit_h_min       -9
_diffrn_reflns_limit_k_max       10
_diffrn_reflns_limit_k_min       -10
_diffrn_reflns_limit_l_max       14
_diffrn_reflns_limit_l_min       -14
_diffrn_reflns_number            8567
_diffrn_reflns_theta_full        25.242
_diffrn_reflns_theta_max         26.379
_diffrn_reflns_theta_min         2.544
_diffrn_source                   'sealed tube'
_exptl_absorpt_coefficient_mu    4.720
_exptl_absorpt_correction_T_max  0.7454
_exptl_absorpt_correction_T_min  0.6379
_exptl_absorpt_correction_type   multi-scan
_exptl_absorpt_process_details
;
(<i>SADABS</i>; Bruker, 2012)
;
_exptl_crystal_colour            yellow
_exptl_crystal_density_diffrn    2.229
_exptl_crystal_description       block
_exptl_crystal_F_000             412
_exptl_crystal_size_max          0.350
_exptl_crystal_size_mid          0.320
_exptl_crystal_size_min          0.300
_refine_diff_density_max         0.800
_refine_diff_density_min         -0.738
_refine_ls_extinction_method     none
_refine_ls_goodness_of_fit_ref   1.082
_refine_ls_hydrogen_treatment    constr
_refine_ls_matrix_type           full
_refine_ls_number_parameters     154
_refine_ls_number_reflns         2701
_refine_ls_number_restraints     0
_refine_ls_restrained_S_all      1.082
_refine_ls_R_factor_all          0.0441
_refine_ls_R_factor_gt           0.0276
_refine_ls_shift/su_max          0.001
_refine_ls_shift/su_mean         0.000
_refine_ls_structure_factor_coef Fsqd
_refine_ls_weighting_details
'w=1/[\s^2^(Fo^2^)+(0.0189P)^2^+0.7413P] where P=(Fo^2^+2Fc^2^)/3'
_refine_ls_weighting_scheme      calc
_refine_ls_wR_factor_gt          0.0523
_refine_ls_wR_factor_ref         0.0578
_reflns_number_gt                2099
_reflns_number_total             2701
_reflns_threshold_expression     'I > 2\s(I)'
_cod_data_source_file            vm2225sup1.cif
_cod_data_source_block           2
_cod_database_code               2243342
_shelx_space_group_comment
;
The symmetry employed for this shelxl refinement is uniquely defined
by the following loop, which should always be used as a source of
symmetry information in preference to the above space-group names.
They are only intended as comments.
;
_shelx_estimated_absorpt_t_min   0.289
_shelx_estimated_absorpt_t_max   0.332
_shelx_hkl_file
;
  -1   0   0  557.04   12.90
   1   0   0  433.96   13.00
  -2   0   0  485.75   13.80
  -2   0   0  509.45   13.40
  -2   0   0  471.25   13.30
   2   0   0  444.46   13.60
   2   0   0  461.75   13.30
   2   0   0  472.35   12.80
  -3   0   0  808.32   22.90
  -3   0   0  797.72   21.60
  -3   0   0  783.22   22.30
   3   0   0  817.92   22.40
   3   0   0  796.12   22.90
   3   0   0  829.32   21.60
  -4   0   0   24.50    3.30
  -4   0   0   19.70    2.50
  -4   0   0   15.10    3.10
   4   0   0   17.80    2.60
   4   0   0   19.60    3.40
   4   0   0   16.90    2.80
  -5   0   0   26.60    4.00
   5   0   0   23.70    4.20
   5   0   0   31.90    3.90
  -6   0   0  226.18   10.50
  -6   0   0  234.18    9.50
   6   0   0  228.68   11.80
   6   0   0  203.08    9.00
  -7   0   0  233.08   10.40
  -7   0   0  225.68   11.70
   7   0   0  237.98   13.40
  -8   0   0   16.80    6.20
  -8   0   0   12.00    4.60
   8   0   0    4.10    6.60
  -9   0   0   17.80    7.90
   9   0   0   23.00    8.80
   9  -1   0   89.49   13.90
  -9   1   0   65.19    9.30
   8  -1   0   27.00    7.40
  -8   1   0   37.80    6.40
  -8   1   0   18.00    4.90
   7  -1   0   14.30    5.80
  -7   1   0   18.00    4.80
  -7   1   0   19.30    4.10
   6  -1   0   16.20    3.20
   6  -1   0    7.60    4.70
  -6   1   0   13.60    3.70
  -6   1   0   12.40    3.10
   5  -1   0  137.89    6.40
   5  -1   0  147.39    8.50
  -5   1   0  144.19    7.40
   4  -1   0   42.10    4.40
   4  -1   0   42.90    3.20
   4  -1   0   45.60    3.70
  -4   1   0   40.10    3.90
  -4   1   0   44.50    3.30
   3  -1   0 2489.65   61.49
   3  -1   0 2394.36   61.99
  -3   1   0 2411.06   61.49
  -3   1   0 2458.85   62.99
  -3   1   0 2333.77   61.99
   2  -1   0 6135.39  156.98
   2  -1   0 6491.45  161.68
   2  -1   0 6163.98  156.48
  -2   1   0 6282.67  159.88
  -2   1   0 6339.97  159.58
  -2   1   0 6190.68  156.98
   1  -1   0   89.29    3.20
   1  -1   0   91.09    3.40
  -1   1   0   93.39    3.30
  -1   1   0   94.39    3.30
   0  -1   0  872.91   22.00
  -1  -1   0 3228.78   80.89
  -1  -1   0 3123.69   81.19
   1   1   0 3378.46   81.89
   1   1   0 3279.17   81.99
   1   1   0 3154.98   81.29
  -2  -1   0  260.87    8.20
  -2  -1   0  269.87    8.40
   2   1   0  268.77    8.10
   2   1   0  258.67    8.40
   2   1   0  259.57    8.40
  -3  -1   0   48.50    3.50
  -3  -1   0   47.70    3.30
  -3  -1   0   50.39    3.60
   3   1   0   58.39    4.00
   3   1   0   44.30    3.50
   3   1   0   49.40    3.30
  -4  -1   0  485.35   14.60
  -4  -1   0  461.65   15.60
  -4  -1   0  491.95   15.50
   4   1   0  470.05   14.30
   4   1   0  470.35   15.30
   4   1   0  479.35   15.70
  -5  -1   0  613.04   20.00
  -5  -1   0  644.64   19.00
   5   1   0  626.24   18.70
   5   1   0  619.14   20.50
  -6  -1   0   -0.40    2.90
   6   1   0    2.30    4.40
  -7  -1   0  131.69    8.80
  -7  -1   0  145.19   10.20
   7   1   0  143.69   10.90
  -8  -1   0   62.09    8.20
   8   1   0   53.29    8.90
   9  -2   0   10.70    8.70
  -9   2   0   11.00    7.40
   8  -2   0    5.50    6.60
  -8   2   0   10.90    4.40
  -8   2   0    9.90    5.20
  -7   2   0   17.50    4.00
  -7   2   0   19.70    4.80
   6  -2   0   72.39    6.90
   6  -2   0   76.29    8.10
  -6   2   0   72.99    5.60
  -6   2   0   73.89    6.80
  -6   2   0   75.99    6.60
   5  -2   0  999.80   27.90
   5  -2   0 1003.60   30.30
  -5   2   0 1000.10   27.80
  -5   2   0  996.30   28.90
  -5   2   0 1011.30   28.00
   4  -2   0 1708.43   46.10
   4  -2   0 1629.44   44.70
   4  -2   0 1677.83   44.20
  -4   2   0 1666.03   44.10
  -4   2   0 1674.83   44.90
  -4   2   0 1729.83   44.30
   3  -2   0    0.60    1.70
   3  -2   0    3.00    1.60
  -3   2   0    1.60    1.40
  -3   2   0    4.10    1.50
  -3   2   0    7.70    1.70
  -3   2   0    3.30    1.90
   2  -2   0 2373.16   58.69
   2  -2   0 2208.78   58.79
   2  -2   0 2293.67   58.59
  -2   2   0 2317.27   58.69
  -2   2   0 2258.37   58.59
  -2   2   0 2286.57   58.59
  -2   2   0 2308.87   58.89
   1  -2   0 1666.93   41.40
   1  -2   0 1512.85   41.40
  -1   2   0 1639.54   41.00
  -1   2   0 1594.74   41.40
   0  -2   0    0.70    1.20
   0  -2   0    1.60    0.60
   0  -2   0    5.00    1.50
   0   2   0    3.40    0.70
   0   2   0    5.40    1.50
   0   2   0    3.80    1.40
  -1  -2   0   81.39    4.00
  -1  -2   0   72.09    2.70
  -1  -2   0   77.09    3.90
   1   2   0   77.59    3.90
   1   2   0   75.39    2.80
   1   2   0   72.89    4.00
   1   2   0   73.29    3.80
  -2  -2   0 1585.74   43.40
  -2  -2   0 1680.63   43.90
  -2  -2   0 1743.43   43.00
   2   2   0 1674.03   43.90
   2   2   0 1672.03   43.90
   2   2   0 1625.44   43.50
   2   2   0 1646.24   42.90
  -3  -2   0  139.59    5.90
  -3  -2   0  136.89    6.20
  -3  -2   0  134.89    6.30
   3   2   0  128.99    6.50
   3   2   0  137.29    6.10
   3   2   0  142.39    6.20
  -4  -2   0   67.59    5.10
  -4  -2   0   61.49    4.90
  -4  -2   0   68.89    5.10
   4   2   0   56.39    5.00
   4   2   0   73.49    5.50
   4   2   0   65.19    5.10
  -5  -2   0  846.52   26.10
  -5  -2   0  836.92   25.00
   5   2   0  865.11   26.20
  -6  -2   0  260.37   11.20
  -6  -2   0  257.87   12.20
   6   2   0  249.88   12.20
   6   2   0  236.68   11.90
  -7  -2   0   13.10    5.40
  -7  -2   0   -5.20    4.10
   7   2   0    3.20    5.40
   7   2   0    3.20    5.60
  -8  -2   0    5.10    5.10
  -8  -2   0   -2.50    5.80
   8   2   0   13.30    6.40
   8   2   0   -1.90    6.90
   8  -3   0    2.90    6.70
  -8   3   0   -3.70    4.20
  -8   3   0    5.30    5.80
   7  -3   0  460.75   19.70
  -7   3   0  420.96   15.60
  -7   3   0  434.56   17.00
   6  -3   0   98.69    8.50
  -6   3   0   97.09    7.40
  -6   3   0   87.89    6.50
   5  -3   0  166.48    9.20
  -5   3   0  164.68    8.10
  -5   3   0  164.48    7.60
  -5   3   0  156.18    7.80
   4  -3   0 1949.60   52.89
   4  -3   0 2041.80   53.99
  -4   3   0 2053.49   53.09
  -4   3   0 1953.60   52.59
  -4   3   0 1986.90   52.49
   3  -3   0 1167.78   32.20
   3  -3   0 1172.88   32.50
  -3   3   0 1186.78   32.20
  -3   3   0 1196.78   32.80
   2  -3   0    1.70    1.50
   2  -3   0   -1.40    1.30
   2  -3   0    0.10    1.60
  -2   3   0    2.10    1.80
  -2   3   0    6.50    1.80
  -2   3   0    1.90    1.70
   1  -3   0  166.88    6.70
   1  -3   0  163.38    6.40
   1  -3   0  161.58    5.40
  -1   3   0  159.78    6.60
  -1   3   0  161.78    6.40
  -1   3   0  158.28    5.90
   0  -3   0  636.84   15.70
   0  -3   0  559.44   17.70
   0  -3   0  614.84   17.60
   0   3   0  601.54   17.70
   0   3   0  618.84   15.60
   0   3   0  604.64   17.90
  -1  -3   0  200.18    7.70
  -1  -3   0  199.58    7.80
   1   3   0  185.98    8.40
   1   3   0  199.78    5.70
   1   3   0  192.18    7.60
   1   3   0  201.38    8.00
   1   3   0  204.78    5.70
  -2  -3   0  563.54   15.40
  -2  -3   0  517.65   17.00
   2   3   0  563.14   17.20
   2   3   0  546.45   17.20
   2   3   0  568.94   15.40
   2   3   0  561.64   17.10
  -3  -3   0 2404.36   62.69
  -3  -3   0 2257.87   61.89
  -3  -3   0 2418.46   61.09
   3   3   0 2227.88   61.89
   3   3   0 2469.75   62.99
   3   3   0 2376.56   61.09
  -4  -3   0  418.76   14.40
  -4  -3   0  413.16   14.00
  -4  -3   0  420.76   15.00
   4   3   0  422.46   15.10
   4   3   0  399.26   13.90
  -5  -3   0   63.79    6.40
  -5  -3   0   61.79    6.30
   5   3   0   68.69    7.50
   5   3   0   65.49    6.60
  -6  -3   0   49.30    6.70
  -6  -3   0   44.50    6.60
   6   3   0   39.00    6.50
   6   3   0   30.70    5.80
  -7  -3   0    9.30    5.00
  -7  -3   0   -8.50    5.20
   7   3   0    2.20    5.70
   7   3   0    0.40    5.30
  -8  -3   0   14.00    9.00
  -8  -3   0    1.10    7.10
   8   3   0   -2.10    7.30
   8   3   0    4.10    7.10
   8  -4   0   -1.40    6.80
  -8   4   0    5.30    6.20
  -8   4   0    9.40    5.00
   7  -4   0   15.80    5.60
  -7   4   0   28.10    5.50
  -7   4   0   23.60    5.00
   6  -4   0  750.72   25.20
  -6   4   0  735.83   23.90
  -6   4   0  726.73   22.90
   5  -4   0  203.08   10.60
  -5   4   0  224.88   10.00
  -5   4   0  214.78    9.50
   4  -4   0    0.20    3.00
  -4   4   0    6.90    2.90
  -4   4   0    6.30    2.50
   3  -4   0  226.68    9.10
   3  -4   0  221.58    9.00
   3  -4   0  233.48    9.10
  -3   4   0  224.58    9.20
  -3   4   0  220.88    9.10
  -3   4   0  231.68    9.40
  -3   4   0  219.68    9.40
   2  -4   0  146.69    6.10
   2  -4   0  163.48    7.20
   2  -4   0  142.09    6.90
  -2   4   0  155.28    6.40
  -2   4   0  151.98    6.90
  -2   4   0  150.18    7.40
   1  -4   0   12.80    2.90
   1  -4   0   14.10    2.70
  -1   4   0    9.20    1.60
  -1   4   0    8.60    2.20
   0  -4   0 1720.53   42.80
   0  -4   0 1691.73   46.00
   0  -4   0 1720.93   45.60
   0   4   0 1740.13   42.80
   0   4   0 1610.84   45.80
   0   4   0 1720.03   45.80
  -1  -4   0 2989.20   78.49
  -1  -4   0 3104.09   78.69
   1   4   0 2880.81   78.29
   1   4   0 2804.92   78.39
   1   4   0 3139.19   74.89
   1   4   0 3042.10   78.49
   1   4   0 3121.19   74.99
  -2  -4   0  286.77   11.20
   2   4   0  293.27    8.70
   2   4   0  295.87   11.40
  -3  -4   0  393.96   12.50
  -3  -4   0  407.16   14.60
   3   4   0  398.26   14.90
   3   4   0  420.56   12.60
  -4  -4   0  232.68    9.90
  -4  -4   0  245.08   10.80
   4   4   0  255.77    9.90
   4   4   0  265.87   12.10
  -5  -4   0    4.30    4.10
   5   4   0    2.20    3.50
   5   4   0   -0.40    3.80
  -6  -4   0   -0.10    5.10
  -6  -4   0    2.30    4.70
   6   4   0    3.80    4.30
   6   4   0   -2.20    5.00
  -7  -4   0   27.00    6.60
   7   4   0   12.40    6.50
   7   4   0   18.40    6.10
   8  -5   0  156.98   14.40
  -8   5   0  132.59   12.70
   7  -5   0    3.00    6.80
  -7   5   0   14.30    6.00
  -7   5   0   20.90    5.30
   6  -5   0   31.90    5.70
  -6   5   0   33.90    5.70
  -6   5   0   27.20    4.90
   5  -5   0   24.20    4.90
  -5   5   0   28.00    5.00
  -5   5   0   38.80    6.10
   4  -5   0    0.00    3.20
   4  -5   0    2.70    3.00
  -4   5   0    5.90    3.20
  -4   5   0    6.70    3.30
   3  -5   0   40.00    5.60
   3  -5   0   46.10    4.70
  -3   5   0   50.69    5.50
  -3   5   0   39.80    5.10
   2  -5   0 1426.86   41.10
   2  -5   0 1478.75   38.90
  -2   5   0 1485.25   40.90
  -2   5   0 1474.55   39.20
   1  -5   0 1628.34   45.20
   1  -5   0 1634.74   41.80
  -1   5   0 1649.54   42.00
  -1   5   0 1583.94   44.60
   0  -5   0    9.60    1.50
   0  -5   0    8.60    3.00
   0   5   0    3.50    2.50
   0   5   0   10.10    1.30
  -1  -5   0  992.90   29.70
   1   5   0  991.70   29.50
  -2  -5   0  620.44   20.20
   2   5   0  588.94   15.80
   2   5   0  586.34   20.00
  -3  -5   0    0.60    2.00
  -3  -5   0   -1.00    3.70
   3   5   0    3.10    2.00
   3   5   0   10.60    4.00
   3   5   0    6.00    2.30
  -4  -5   0    2.30    2.80
  -4  -5   0    1.70    4.20
   4   5   0    1.40    3.70
   4   5   0   -0.90    3.20
  -5  -5   0   15.60    5.30
   5   5   0   22.00    5.70
   5   5   0   28.10    4.50
  -6  -5   0   36.50    7.20
   6   5   0   45.20    6.10
   6   5   0   42.30    7.50
  -7  -5   0   -0.40    7.50
   7   5   0    4.40    6.50
   7   5   0   -9.50    6.70
   7  -6   0   30.40    8.00
  -7   6   0   22.70    7.60
  -7   6   0   34.40    6.80
   6  -6   0   -1.00    5.20
  -6   6   0    6.60    4.40
  -6   6   0    2.20    4.70
   5  -6   0   37.60    5.40
  -5   6   0   28.70    5.70
  -5   6   0   41.00    5.90
   4  -6   0  754.42   24.60
   4  -6   0  756.92   23.50
  -4   6   0  742.63   24.40
  -4   6   0  742.13   24.70
   3  -6   0  441.76   14.80
   3  -6   0  451.85   17.10
  -3   6   0  437.36   16.70
   2  -6   0  179.18    7.20
   2  -6   0  184.78    9.90
  -2   6   0  177.88    7.80
  -2   6   0  175.78    9.40
   1  -6   0  893.61   24.60
   1  -6   0  950.60   29.20
  -1   6   0  937.21   24.90
  -1   6   0  927.91   28.60
   0  -6   0  865.41   27.40
   0   6   0  874.51   27.20
  -1  -6   0   -2.60    3.80
   1   6   0    2.90    3.50
  -2  -6   0    4.80    3.80
   2   6   0    8.70    4.40
  -3  -6   0   53.39    7.30
   3   6   0   68.49    7.90
  -4  -6   0   32.80    6.50
   4   6   0   24.50    3.20
  -5  -6   0   18.70    6.40
   5   6   0   27.90    6.80
  -6  -6   0  102.49   12.90
   6   6   0  100.69   13.40
   7  -7   0    0.80    6.80
  -7   7   0   14.10    7.50
  -7   7   0   17.90    7.40
   6  -7   0  119.79   11.60
  -6   7   0  101.29   14.40
  -6   7   0  115.79   11.00
   5  -7   0   28.60    5.20
   5  -7   0   15.50    6.00
  -5   7   0   24.40    6.20
  -5   7   0   20.30    6.00
   4  -7   0  276.67   12.20
   4  -7   0  280.57   14.20
  -4   7   0  276.57   13.90
  -4   7   0  287.77   14.70
   3  -7   0  829.82   24.90
   3  -7   0  859.21   28.20
  -3   7   0  863.01   27.80
   2  -7   0  311.27   10.90
   2  -7   0  331.67   15.20
  -2   7   0  308.17   14.00
  -2   7   0  317.87   11.40
   1  -7   0   40.40    3.50
   1  -7   0   51.89    7.50
  -1   7   0   36.40    5.60
   0  -7   0   11.70    5.10
   0   7   0    7.70    4.10
  -1  -7   0   26.60    5.70
   1   7   0   28.30    5.30
  -2  -7   0   -0.50    4.70
   2   7   0    3.00    4.90
  -3  -7   0  187.18   17.30
   3   7   0  180.28   12.30
  -4  -7   0  152.68   13.40
   4   7   0  141.79   12.00
  -5  -7   0    3.30    7.40
   5   7   0   10.40    7.20
   6  -8   0  132.89   13.00
  -6   8   0  180.38   15.00
  -6   8   0  141.59   13.90
   5  -8   0  299.37   14.80
   5  -8   0  318.77   16.70
  -5   8   0  307.37   17.00
  -5   8   0  304.47   16.60
   4  -8   0   40.50    7.20
   4  -8   0   48.00    6.80
  -4   8   0   52.39    8.00
   3  -8   0   54.49    8.20
   3  -8   0   50.39    6.00
  -3   8   0   51.29    8.20
   2  -8   0   72.19   10.90
  -2   8   0   66.79   10.00
   1  -8   0   -9.50    5.20
  -1   8   0    2.50    5.40
   0  -8   0   -3.10    5.70
  -1  -8   0  180.98   12.70
   1   8   0  177.18   13.30
  -2  -8   0  298.77   16.10
   2   8   0  313.17   16.90
  -3  -8   0   17.60    7.80
   3   8   0    9.60    7.40
  -4  -8   0   65.59   10.00
   4   8   0   71.29   11.10
   4  -9   0   48.80    9.30
  -4   9   0   43.90    8.70
  -4   9   0   32.00    8.10
   3  -9   0   -6.70    7.10
  -3   9   0   -6.90    6.70
   2  -9   0   35.80    8.60
  -2   9   0   41.10    7.60
   1  -9   0  214.68   16.00
  -1   9   0  153.48   13.00
   0  -9   0   78.89   11.80
   0   9   0   84.39   12.80
  -1  -9   0   20.80    9.10
   1   9   0   30.00    8.00
  -2  -9   0   69.29   10.40
   2   9   0   42.80    9.50
  -3  -9   0   45.60   10.70
   3   9   0   43.00    9.60
   1 -10   0   68.09   12.20
  -1  10   0   59.39   10.10
   0 -10   0  149.49   16.10
   0  10   0  170.88   17.20
   0  10  -1   43.00   11.00
   0 -10   1   45.70   11.50
  -1  10  -1   47.80   10.30
   1 -10   1   51.79   11.50
  -2  10  -1    0.30    8.50
   2 -10   1    1.50    8.60
  -3  -9   1   41.20   10.80
   2   9  -1   50.29    9.70
  -2  -9   1   49.50    9.60
   1   9  -1   13.20    8.10
  -1  -9   1   18.10    8.70
   0   9  -1   50.89    8.40
   0  -9   1   45.00    9.70
  -1   9  -1  401.16   19.20
   1  -9   1  417.66   20.00
  -2   9  -1  234.88   14.60
   2  -9   1  212.78   15.20
  -3   9  -1   -1.40    7.50
   3  -9   1  -12.80    7.60
  -4   9  -1   23.80    8.50
  -4   9  -1   18.90    8.30
   4  -9   1    8.40    8.10
   4   8  -1    6.60    7.60
  -4  -8   1   -7.60    7.60
   3   8  -1    0.90    6.50
  -3  -8   1    1.90    7.30
   2   8  -1   50.39    8.10
  -2  -8   1   58.09    8.70
   1   8  -1  390.16   17.90
  -1  -8   1  390.36   18.20
   0   8  -1  119.19   12.80
   0  -8   1  144.89   11.30
  -1   8  -1    9.60    6.40
   1  -8   1   -9.50    8.80
  -2   8  -1  250.87   13.80
   3  -8   1   -0.80   10.60
  -4   8  -1    1.60    6.00
  -4   8  -1   -1.40    5.20
   4  -8   1    6.10    5.40
   4  -8   1   -0.80    4.10
  -5   8  -1   88.69   10.60
  -5   8  -1  112.49   12.30
   5  -8   1   98.99   12.00
   5  -8   1   96.99   10.80
  -6   8  -1  121.79   13.60
  -6   8  -1  132.69   13.80
   6  -8   1  135.49   13.80
   5   7  -1   -1.30    6.70
  -5  -7   1   10.20    6.60
   4   7  -1   84.19   10.70
  -4  -7   1  101.39   10.80
   3   7  -1  325.67   15.90
   2   7  -1   25.40    6.40
  -2  -7   1   28.40    6.50
   1   7  -1  215.28   12.00
  -1  -7   1  216.68   12.30
   0   7  -1  321.07   14.40
   0  -7   1  324.27   14.90
  -1   7  -1   47.20    6.80
   1  -7   1   35.90    6.00
   1  -7   1   29.40    2.40
  -2   7  -1    9.80    3.00
  -2   7  -1   12.50    4.20
   2  -7   1    2.10    5.20
   2  -7   1    9.30    2.40
  -3   7  -1  193.08   11.20
   3  -7   1  204.38    9.00
   3  -7   1  197.48   11.30
  -4   7  -1  260.37   14.10
  -4   7  -1  287.27   14.30
   4  -7   1  277.37   13.90
   4  -7   1  266.47   11.80
  -5   7  -1    8.40    5.40
  -5   7  -1    3.90    5.00
   5  -7   1   -0.50    5.20
   5  -7   1    1.10    4.70
  -6   7  -1  204.38   13.10
  -6   7  -1  215.88   14.40
   6  -7   1  218.58   15.10
  -7   7  -1  135.99   13.90
   7  -7   1  144.39   14.20
   6   6  -1   37.50    8.30
  -6  -6   1   36.40    8.90
   5   6  -1  118.69   11.60
   4   6  -1    3.60    4.80
   4   6  -1    5.10    2.40
  -4  -6   1    7.90    5.80
   3   6  -1  378.26   16.60
  -3  -6   1  401.56   16.70
   2   6  -1  406.76   16.80
  -2  -6   1  412.46   16.70
   1   6  -1   29.40    4.80
  -1  -6   1   24.10    4.80
   0   6  -1   -2.70    3.00
   0  -6   1   10.30    4.20
  -1   6  -1  214.48   10.50
   1  -6   1  233.18   11.10
   1  -6   1  206.88    6.90
  -2   6  -1  244.78   11.50
  -2   6  -1  233.98    9.00
   2  -6   1  225.18   11.60
   2  -6   1  238.28    8.50
  -3   6  -1  284.37   12.50
  -3   6  -1  286.27   11.40
   3  -6   1  277.07   12.60
   3  -6   1  281.57   10.70
  -4   6  -1  678.63   23.20
  -4   6  -1  668.63   22.70
   4  -6   1  678.93   22.60
   4  -6   1  665.13   21.50
  -5   6  -1  567.84   20.20
  -5   6  -1  569.84   21.00
   5  -6   1  572.64   20.20
   5  -6   1  550.54   19.80
  -6   6  -1    0.30    4.60
  -6   6  -1    4.30    4.80
   6  -6   1    0.70    4.80
  -7   6  -1   21.10    7.00
  -7   6  -1   11.10    5.40
   7  -6   1   20.10    7.60
   7   5  -1   15.50    8.30
   7   5  -1   16.60    7.50
  -7  -5   1   35.30    8.20
   6   5  -1    0.10    4.10
   6   5  -1    8.40    5.70
  -6  -5   1   16.80    6.10
   5   5  -1  369.66   16.60
   5   5  -1  334.87   13.00
  -5  -5   1  357.86   15.80
   4   5  -1  146.59    9.40
   4   5  -1  145.49    7.50
  -4  -5   1  164.88   10.30
  -4  -5   1  142.49    7.20
   3   5  -1    1.20    1.60
   3   5  -1   -1.00    3.10
  -3  -5   1    3.30    1.80
  -3  -5   1   -0.60    3.60
   2   5  -1   35.80    5.10
  -2  -5   1   24.60    4.40
   1   5  -1  123.49    7.40
  -1  -5   1  108.39    7.20
   0   5  -1   69.69    5.70
   0  -5   1   70.59    5.80
  -1   5  -1  869.81   22.70
  -1   5  -1  825.52   25.20
   1  -5   1  797.42   25.20
   1  -5   1  853.01   22.20
  -2   5  -1 2462.65   65.69
  -2   5  -1 2475.15   63.69
   2  -5   1 2393.56   65.49
   2  -5   1 2503.45   63.39
  -3   5  -1  684.03   21.20
  -3   5  -1  696.73   22.20
   3  -5   1  693.83   20.90
   3  -5   1  707.63   21.90
  -4   5  -1  226.68   10.50
  -4   5  -1  220.38   10.10
   4  -5   1  224.28   10.00
   4  -5   1  226.48   10.40
  -5   5  -1  266.57   12.40
  -5   5  -1  252.87   11.20
   5  -5   1  261.27   12.20
  -6   5  -1   20.90    5.10
   6  -5   1   20.70    5.10
  -7   5  -1    3.50    4.50
  -7   5  -1    7.30    5.60
   7  -5   1    6.90    5.80
  -8   5  -1   40.30    8.60
   8  -5   1   57.79    9.60
   8   4  -1    6.40    7.70
   8   4  -1   15.70    7.90
   7   4  -1   95.49   10.80
   7   4  -1  148.39   12.70
  -7  -4   1  117.29   11.20
   6   4  -1   19.90    5.80
   6   4  -1   24.40    4.40
  -6  -4   1   20.70    5.60
   5   4  -1   30.20    5.80
   5   4  -1   23.10    3.80
  -5  -4   1   29.50    5.30
   4   4  -1   43.90    4.50
   4   4  -1   44.60    5.40
  -4  -4   1   42.30    4.70
  -4  -4   1   46.10    6.30
   3   4  -1    9.60    3.20
   3   4  -1    9.10    1.90
  -3  -4   1   12.00    3.50
  -3  -4   1   10.80    2.20
   2   4  -1    9.20    1.30
   2   4  -1   12.70    3.00
  -2  -4   1    9.10    1.50
  -2  -4   1   11.50    3.20
   1   4  -1 1507.05   41.20
   1   4  -1 1437.76   41.30
  -1  -4   1 1594.34   41.60
  -1  -4   1 1478.35   41.10
   0   4  -1 3509.45   93.39
   0   4  -1 3660.53   93.39
   0  -4   1 3701.03   93.29
   0  -4   1 3629.44   93.49
  -1   4  -1  444.86   12.80
  -1   4  -1  427.66   14.20
  -1   4  -1  430.96   14.10
   1  -4   1  424.16   11.90
   1  -4   1  398.76   13.90
   1  -4   1  431.06   14.10
  -2   4  -1 1052.99   30.10
  -2   4  -1 1058.79   30.00
  -2   4  -1 1075.09   29.00
   2  -4   1 1090.49   30.10
   2  -4   1 1021.70   29.90
   2  -4   1 1081.59   28.90
  -3   4  -1 1372.26   36.70
  -3   4  -1 1321.17   36.40
  -3   4  -1 1305.57   36.90
   3  -4   1 1316.97   36.30
   3  -4   1 1309.77   36.30
  -4   4  -1   47.60    5.50
  -4   4  -1   50.79    5.30
  -4   4  -1   55.39    4.60
   4  -4   1   48.90    4.60
   4  -4   1   47.30    5.50
  -5   4  -1   -1.00    3.00
  -5   4  -1    7.80    2.80
   5  -4   1    3.50    3.90
  -6   4  -1   39.80    5.70
  -6   4  -1   30.30    5.80
   6  -4   1   33.30    6.00
  -7   4  -1  187.48   10.20
  -7   4  -1  223.38   11.80
   7  -4   1  234.18   13.70
  -8   4  -1   -4.60    6.10
   8  -4   1    5.10    7.00
   8   3  -1   -7.70    6.60
  -8  -3   1   -5.20    6.90
  -8  -3   1    8.30    6.40
   7   3  -1   47.50    6.90
   7   3  -1   51.49    9.30
  -7  -3   1   50.39    8.20
  -7  -3   1   42.30    7.00
   6   3  -1   47.30    7.10
   6   3  -1   47.60    6.90
  -6  -3   1   53.09    7.20
  -6  -3   1   49.40    7.40
   5   3  -1    0.80    3.30
   5   3  -1    3.60    3.10
  -5  -3   1    3.70    3.50
  -5  -3   1   10.90    3.60
   4   3  -1   29.60    4.40
   4   3  -1   30.10    4.00
  -4  -3   1   23.80    3.80
  -4  -3   1   28.70    4.10
  -4  -3   1   28.80    3.70
   3   3  -1  617.84   19.40
   3   3  -1  600.04   19.20
   3   3  -1  637.04   17.90
  -3  -3   1  645.54   18.10
  -3  -3   1  621.64   19.30
   2   3  -1 2329.07   63.09
   2   3  -1 2483.15   63.19
   2   3  -1 2372.76   63.09
   2   3  -1 2447.66   60.99
  -2  -3   1 2487.15   63.19
  -2  -3   1 2356.16   62.99
   1   3  -1    6.00    2.00
   1   3  -1    4.10    2.00
  -1  -3   1    2.70    1.90
  -1  -3   1    0.20    1.60
   0   3  -1 4264.97  110.09
   0   3  -1 4240.48  107.99
   0   3  -1 4437.46  110.19
   0  -3   1 4376.56  107.99
   0  -3   1 4298.87  109.99
   0  -3   1 4424.26  110.29
  -1   3  -1 2817.02   72.79
  -1   3  -1 2843.02   72.89
   1  -3   1 2844.12   72.89
   1  -3   1 2865.41   71.49
   1  -3   1 2803.92   72.79
  -2   3  -1  177.28    6.70
  -2   3  -1  169.08    7.00
  -2   3  -1  163.38    6.70
   2  -3   1  169.98    6.60
   2  -3   1  167.18    6.70
   2  -3   1  178.98    7.10
  -3   3  -1    2.90    2.00
  -3   3  -1    4.30    1.80
  -3   3  -1    9.30    2.10
  -3   3  -1    7.00    2.10
   3  -3   1    4.90    1.90
   3  -3   1    5.30    1.70
   3  -3   1    4.40    2.10
  -4   3  -1  394.26   12.80
  -4   3  -1  392.56   13.70
  -4   3  -1  411.46   12.90
   4  -3   1  393.36   14.20
  -5   3  -1  186.48    8.00
  -5   3  -1  184.38    9.20
  -5   3  -1  179.68    7.60
   5  -3   1  178.88    9.80
  -6   3  -1  130.69    7.70
  -6   3  -1  139.49    8.90
  -6   3  -1  123.19    7.00
   6  -3   1  119.79    9.50
  -7   3  -1  181.78    9.00
  -7   3  -1  180.08   11.20
   7  -3   1  188.58   13.70
   8  -3   1   81.19   12.20
   8   2  -1    6.20    6.10
   8   2  -1   14.70    6.10
  -8  -2   1    6.80    5.70
  -8  -2   1    8.20    5.70
   7   2  -1    1.50    4.20
   7   2  -1    5.60    4.40
  -7  -2   1    0.30    4.30
  -7  -2   1   -0.10    4.40
   6   2  -1    1.60    4.00
   6   2  -1    4.00    3.90
  -6  -2   1   10.20    3.60
  -6  -2   1    4.50    3.60
   5   2  -1  448.96   16.00
   5   2  -1  431.06   15.70
  -5  -2   1  445.46   15.70
  -5  -2   1  448.16   15.50
   4   2  -1  641.94   19.60
   4   2  -1  639.94   19.60
   4   2  -1  666.83   20.20
  -4  -2   1  659.73   20.00
  -4  -2   1  649.34   20.10
  -4  -2   1  639.04   19.80
   3   2  -1 1034.80   29.50
   3   2  -1 1057.09   29.00
   3   2  -1 1073.99   29.50
   3   2  -1 1072.59   29.70
  -3  -2   1 1087.69   29.20
  -3  -2   1 1077.89   29.70
   2   2  -1 3292.17   83.19
   2   2  -1 3228.68   83.19
   2   2  -1 3165.98   83.19
   2   2  -1 3313.37   82.19
  -2  -2   1 3343.37   82.29
  -2  -2   1 3211.58   83.19
   1   2  -1 1843.62   46.70
   1   2  -1 1805.82   48.10
   1   2  -1 1927.11   48.40
  -1  -2   1 1831.42   48.20
  -1  -2   1 1876.11   48.20
  -1  -2   1 1893.61   46.80
   0   2  -1  893.71   24.30
   0   2  -1  859.01   24.20
   0   2  -1  903.71   22.80
   0  -2   1  911.91   22.80
   0  -2   1  862.41   22.80
   0  -2   1  974.90   24.40
   0  -2   1  928.41   24.30
  -1   2  -1  798.52   21.10
  -1   2  -1  794.62   20.70
  -1   2  -1  787.62   21.30
   1  -2   1  774.82   21.20
   1  -2   1  756.42   21.30
   1  -2   1  763.82   21.00
  -2   2  -1   39.60    3.00
  -2   2  -1   42.70    2.70
  -2   2  -1   40.90    3.00
   2  -2   1   37.60    3.00
   2  -2   1   44.00    3.00
   2  -2   1   40.50    2.60
  -3   2  -1   11.10    2.10
  -3   2  -1    6.30    2.10
  -3   2  -1    7.00    1.60
  -3   2  -1    4.80    1.20
   3  -2   1    5.70    2.10
   3  -2   1    2.90    1.90
  -4   2  -1  813.72   23.60
  -4   2  -1  814.82   22.10
  -4   2  -1  795.92   21.90
   4  -2   1  785.62   23.40
   4  -2   1  800.72   24.30
  -5   2  -1 1549.24   42.70
  -5   2  -1 1577.54   40.60
  -5   2  -1 1499.15   40.60
   5  -2   1 1530.25   43.70
  -6   2  -1  151.08    7.10
  -6   2  -1  163.18    9.30
  -6   2  -1  160.18    7.60
   6  -2   1  157.08   10.40
  -7   2  -1   15.40    3.70
  -7   2  -1   18.60    4.80
  -8   2  -1   36.10    7.90
   8  -2   1   47.40    9.50
  -9   2  -1   -4.90    7.30
   9  -2   1   -1.70    8.50
   8   1  -1    1.30    6.30
   8   1  -1   -3.10    5.90
  -8  -1   1    5.60    5.50
  -8  -1   1    2.10    5.20
   7   1  -1  112.79   10.60
  -7  -1   1  122.79    9.10
  -7  -1   1  108.39    8.30
   6   1  -1   26.40    5.20
  -6  -1   1   29.40    4.60
  -6  -1   1   18.60    3.90
   5   1  -1  475.65   16.50
   5   1  -1  463.35   15.40
  -5  -1   1  467.65   16.00
  -5  -1   1  474.85   15.50
   4   1  -1 2534.85   65.19
   4   1  -1 2571.94   64.79
   4   1  -1 2530.25   65.79
  -4  -1   1 2382.86   65.59
  -4  -1   1 2521.15   65.09
  -4  -1   1 2463.45   65.19
   3   1  -1  956.90   25.90
   3   1  -1  982.00   26.20
   3   1  -1  978.40   26.40
  -3  -1   1  920.91   26.00
  -3  -1   1  928.11   26.10
  -3  -1   1  956.60   26.40
   2   1  -1  393.36   11.60
   2   1  -1  415.26   11.70
   2   1  -1  401.56   11.70
   2   1  -1  387.96   11.50
  -2  -1   1  386.56   11.50
  -2  -1   1  405.46   11.60
  -2  -1   1  382.16   11.60
   1   1  -1  440.36   12.70
   1   1  -1  450.65   11.80
   1   1  -1  440.26   12.10
  -1  -1   1  427.76   12.30
  -1  -1   1  440.96   12.10
  -1  -1   1  426.96   11.80
   0   1  -1  101.49    3.70
   0  -1   1  107.29    3.40
   0  -1   1  107.49    3.40
  -1   1  -1  171.18    5.60
  -1   1  -1  170.78    5.10
  -1   1  -1  167.78    5.50
   1  -1   1  168.08    6.00
   1  -1   1  168.28    5.00
   1  -1   1  181.68    6.00
  -2   1  -1 2075.79   52.89
  -2   1  -1 1846.42   51.99
  -2   1  -1 2133.39   53.29
  -2   1  -1 2109.59   51.79
   2  -1   1 2143.29   52.99
   2  -1   1 2060.89   53.29
  -3   1  -1 4278.97   98.59
  -3   1  -1 3793.62   96.79
  -3   1  -1 3784.52   98.29
  -3   1  -1 3748.82   98.79
   3  -1   1 3867.31   97.29
   3  -1   1 3725.23   98.19
  -4   1  -1  175.18    7.70
  -4   1  -1  175.48    6.10
   4  -1   1  164.58    8.20
   4  -1   1  179.38    7.60
   4  -1   1  168.08    6.00
  -5   1  -1  550.24   16.00
  -5   1  -1  550.64   17.90
   5  -1   1  551.44   15.90
   5  -1   1  541.95   19.00
  -6   1  -1  383.66   14.80
  -6   1  -1  375.66   12.20
   6  -1   1  369.76   12.10
   6  -1   1  368.76   15.80
  -7   1  -1   22.00    5.40
  -7   1  -1   13.20    3.80
   7  -1   1   22.90    7.00
   8  -1   1    7.40    7.10
  -9   1  -1  -10.80    7.40
   9  -1   1   -1.20    8.50
   9   0  -1    5.80    9.00
  -9   0   1   21.10    7.60
   8   0  -1   -2.40    5.60
  -8   0   1   -2.20    4.70
  -8   0   1   -1.10    5.00
   7   0  -1  209.38   13.00
  -7   0   1  208.18   11.00
  -7   0   1  192.88   10.50
   6   0  -1  485.75   18.10
  -6   0   1  486.85   16.20
  -6   0   1  471.45   16.60
   5   0  -1  108.69    7.20
   5   0  -1  110.09    6.70
   5   0  -1  111.19    6.00
  -5   0   1  113.89    6.30
  -5   0   1  109.99    6.20
   4   0  -1  556.54   17.90
   4   0  -1  563.04   16.70
   4   0  -1  580.24   17.10
  -4   0   1  569.24   17.10
  -4   0   1  584.64   17.10
  -4   0   1  571.34   19.50
   3   0  -1  723.73   19.80
   3   0  -1  708.83   19.70
   3   0  -1  715.63   20.60
  -3   0   1  712.53   20.60
  -3   0   1  710.13   19.80
  -3   0   1  723.63   19.80
   2   0  -1  139.29    4.90
   2   0  -1  141.59    4.70
   2   0  -1  132.79    5.20
  -2   0   1  136.89    5.00
  -2   0   1  141.29    5.20
   1   0  -1 1511.15   37.10
   1   0  -1 1503.15   37.60
  -1   0   1 1409.96   37.40
  -1   0  -1 5088.19  122.19
  -1   0  -1 4324.67  120.19
  -1   0  -1 4360.66  118.89
   1   0   1 5009.30  121.59
   1   0   1 4952.10  122.09
  -2   0  -1   19.00    2.30
  -2   0  -1   18.20    1.40
  -2   0  -1   15.00    2.00
   2   0   1   13.60    2.30
   2   0   1   21.20    1.30
   2   0   1   20.10    2.10
  -3   0  -1 1069.89   30.20
  -3   0  -1 1091.29   28.50
   3   0   1 1146.49   28.40
   3   0   1 1065.29   29.80
  -4   0  -1 1978.20   53.39
  -4   0  -1 2054.79   51.69
   4   0   1 1919.31   53.29
   4   0   1 2068.19   51.49
   4   0   1 2033.00   54.19
  -5   0  -1   -1.20    2.20
  -5   0  -1   -2.70    1.90
   5   0   1    0.50    1.80
   5   0   1   -2.10    3.30
  -6   0  -1   14.00    4.30
   6   0   1   17.90    3.00
   6   0   1   13.90    4.60
  -7   0  -1   19.70    3.90
  -7   0  -1   20.30    5.70
   7   0   1   17.80    5.70
  -8   0  -1   15.40    6.10
   8   0   1   20.10    8.50
  -9   0  -1  -15.20    7.00
   9   0   1    5.40    8.90
   9  -1  -1   15.00    8.90
  -9   1   1   17.40    7.70
   8  -1  -1   81.79   12.10
  -8   1   1   87.39    9.20
  -8   1   1   83.39    9.20
   7  -1  -1   13.10    5.40
  -7   1   1   22.70    4.70
  -7   1   1   13.30    4.40
   6  -1  -1   87.69    8.40
  -6   1   1  118.79    6.90
  -6   1   1  133.19    7.50
   5  -1  -1  388.56   14.80
   5  -1  -1  410.66   13.20
   5  -1  -1  408.56   13.50
  -5   1   1  389.26   13.20
  -5   1   1  394.56   13.30
   4  -1  -1    1.90    1.70
   4  -1  -1    1.00    2.40
   4  -1  -1    2.00    1.70
  -4   1   1   -1.10    1.60
  -4   1   1    2.60    2.10
   3  -1  -1   15.30    2.20
   3  -1  -1   11.70    1.70
  -3   1   1   11.30    1.70
  -3   1   1   10.80    1.90
  -3   1   1   11.10    2.20
   2  -1  -1 2793.72   71.29
   2  -1  -1 2897.81   70.99
   2  -1  -1 2837.82   70.39
  -2   1   1 2779.32   71.29
  -2   1   1 2706.63   70.89
  -2   1   1 2793.72   70.49
   1  -1  -1 1022.60   25.60
   1  -1  -1  999.30   26.30
  -1   1   1 1001.50   25.60
  -1   1   1 1005.60   26.20
   0  -1  -1  759.62   19.40
   0  -1  -1  726.93   19.30
   0  -1  -1  716.43   19.20
   0  -1  -1  764.12   19.30
   0   1   1  722.93   19.90
  -1  -1  -1 8575.14  235.48
  -1  -1  -1 9722.63  237.38
  -1  -1  -1 9521.05  235.88
   1   1   1 8963.80  233.08
   1   1   1 9028.70  233.48
   1   1   1 9999.00  237.68
  -2  -1  -1 3377.86   85.19
  -2  -1  -1 3350.76   84.39
  -2  -1  -1 3337.17   85.29
   2   1   1 3357.76   85.29
   2   1   1 3361.76   85.29
  -3  -1  -1  121.79    5.80
  -3  -1  -1  117.39    4.80
  -3  -1  -1  114.89    5.70
   3   1   1  114.89    5.70
   3   1   1  121.49    4.70
   3   1   1  117.69    6.00
  -4  -1  -1    5.50    2.40
  -4  -1  -1    8.40    2.10
  -4  -1  -1   13.00    3.90
   4   1   1    8.20    2.70
   4   1   1    7.10    1.90
  -5  -1  -1   43.00    4.50
  -5  -1  -1   40.60    5.00
   5   1   1   42.00    5.80
   5   1   1   45.60    4.20
  -6  -1  -1   29.50    3.90
  -6  -1  -1   28.40    5.10
   6   1   1   25.50    3.50
   6   1   1   33.90    5.70
  -7  -1  -1   25.60    5.60
  -7  -1  -1   27.90    4.50
   7   1   1   26.80    6.90
  -8  -1  -1  106.59   11.50
   8   1   1  120.09   14.70
   9  -2  -1   13.80    8.80
  -9   2   1   -4.70    8.20
   8  -2  -1  134.09   12.40
  -8   2   1  127.19    9.70
  -8   2   1  121.09   10.00
  -7   2   1  178.98   10.20
  -7   2   1  178.08    9.70
   6  -2  -1   82.69    8.00
  -6   2   1   90.39    6.50
  -6   2   1   87.09    6.20
   5  -2  -1   47.60    4.70
   5  -2  -1   49.90    5.10
   5  -2  -1   53.69    5.90
  -5   2   1   54.49    4.60
  -5   2   1   54.79    4.80
  -5   2   1   59.09    5.10
   4  -2  -1  843.42   23.80
   4  -2  -1  858.11   24.00
   4  -2  -1  842.42   25.20
  -4   2   1  848.92   24.00
  -4   2   1  846.52   23.90
  -4   2   1  863.71   24.10
   3  -2  -1  444.26   13.90
   3  -2  -1  453.75   14.40
   3  -2  -1  469.55   13.50
  -3   2   1  459.75   13.90
  -3   2   1  473.05   14.00
  -3   2   1  462.15   13.50
  -3   2   1  457.85   14.50
   2  -2  -1 2309.67   57.99
   2  -2  -1 2190.68   57.89
   2  -2  -1 2300.37   57.39
  -2   2   1 2268.77   57.39
  -2   2   1 2173.88   57.89
  -2   2   1 2216.18   57.99
  -2   2   1 2316.17   57.99
   1  -2  -1 7949.90  197.48
   1  -2  -1 7928.91  197.28
   1  -2  -1 7260.67  194.38
  -1   2   1 7729.83  196.68
  -1   2   1 7945.11  197.78
  -1   2   1 7883.61  198.38
   0  -2  -1 1537.15   38.60
   0  -2  -1 1533.45   38.00
   0  -2  -1 1471.45   38.90
   0   2   1 1510.55   38.90
   0   2   1 1443.66   38.60
   0   2   1 1441.46   38.20
  -1  -2  -1  661.63   18.80
  -1  -2  -1  625.84   18.60
  -1  -2  -1  698.93   18.10
   1   2   1  677.73   18.90
   1   2   1  660.43   18.80
   1   2   1  697.03   18.80
   1   2   1  679.23   18.10
  -2  -2  -1  652.43   19.40
  -2  -2  -1  653.73   18.50
  -2  -2  -1  645.94   18.60
   2   2   1  664.93   19.30
   2   2   1  672.93   18.60
   2   2   1  680.13   18.80
   2   2   1  663.23   19.60
  -3  -2  -1   23.80    3.00
  -3  -2  -1   21.20    3.20
  -3  -2  -1   25.20    3.40
   3   2   1   26.10    3.70
   3   2   1   27.10    3.20
   3   2   1   25.00    3.60
  -4  -2  -1   -0.50    2.20
  -4  -2  -1   -4.50    2.50
   4   2   1   -0.70    2.20
   4   2   1    1.70    2.20
  -5  -2  -1  287.17   10.80
  -5  -2  -1  273.97   11.90
   5   2   1  280.17   10.70
   5   2   1  288.47   12.40
  -6  -2  -1  304.57   12.00
  -6  -2  -1  295.47   13.50
   6   2   1  306.77   14.50
  -7  -2  -1   21.90    9.40
  -7  -2  -1   23.50    4.90
   7   2   1   15.10    5.60
  -8  -2  -1   25.00    6.90
   8   2   1   26.70    7.60
   8   2   1   17.80    6.90
   8  -3  -1   -6.00    6.60
  -8   3   1   -3.10    4.70
  -8   3   1   -1.10    5.20
   7  -3  -1    2.40    5.40
  -7   3   1    8.10    4.40
  -7   3   1   16.50    4.60
   6  -3  -1   70.49    7.50
  -6   3   1   62.69    6.30
  -6   3   1   62.69    6.20
   5  -3  -1   -3.80    2.90
   5  -3  -1    5.20    2.90
  -5   3   1    3.50    2.50
  -5   3   1    1.40    2.50
   4  -3  -1 1242.78   32.90
   4  -3  -1 1188.88   34.00
  -4   3   1 1166.48   33.00
  -4   3   1 1163.38   33.10
  -4   3   1 1217.68   33.20
   3  -3  -1 4344.37  112.39
   3  -3  -1 4569.44  111.89
  -3   3   1 4408.06  112.29
  -3   3   1 4511.85  111.89
  -3   3   1 4373.76  112.29
  -3   3   1 4257.77  112.39
   2  -3  -1  330.17   10.50
   2  -3  -1  337.47   10.60
  -2   3   1  334.77   10.60
  -2   3   1  322.77   10.60
  -2   3   1  324.07   11.10
   1  -3  -1  734.33   19.70
   1  -3  -1  715.23   20.30
   1  -3  -1  716.23   21.00
  -1   3   1  730.53   20.90
  -1   3   1  737.63   20.60
  -1   3   1  754.32   19.80
   0  -3  -1  975.40   27.00
   0  -3  -1 1034.60   26.00
   0  -3  -1  979.20   26.60
   0   3   1  922.31   26.50
   0   3   1  959.70   25.10
   0   3   1  942.61   26.80
  -1  -3  -1    2.50    1.70
  -1  -3  -1   -0.80    1.40
   1   3   1    3.80    1.20
   1   3   1    0.60    1.10
   1   3   1   -3.80    1.70
   1   3   1    0.40    1.70
  -2  -3  -1   -0.10    1.80
  -2  -3  -1    3.50    1.40
   2   3   1    4.20    1.50
   2   3   1    4.50    1.70
   2   3   1    3.70    2.40
   2   3   1    2.80    2.40
  -3  -3  -1  773.32   23.70
  -3  -3  -1  782.52   22.40
  -3  -3  -1  795.42   23.00
   3   3   1  784.02   23.30
   3   3   1  777.32   23.80
   3   3   1  798.42   22.60
  -4  -3  -1  504.45   16.20
  -4  -3  -1  476.45   15.90
  -4  -3  -1  483.95   17.00
   4   3   1  484.15   17.10
   4   3   1  463.75   16.20
   4   3   1  496.55   16.20
  -5  -3  -1    7.60    3.30
  -5  -3  -1   -0.40    3.70
   5   3   1   -4.00    3.30
   5   3   1    1.70    3.50
  -6  -3  -1  300.67   14.30
  -6  -3  -1  292.47   12.50
   6   3   1  294.37   14.80
   6   3   1  285.57   13.90
  -7  -3  -1   48.70    8.10
  -7  -3  -1   67.69    8.50
   7   3   1   45.80    7.80
   7   3   1   57.39    8.50
  -8  -3  -1    6.70    6.40
   8   3   1   -5.20    6.90
   8   3   1   17.40    7.80
   8  -4  -1   10.00    6.90
  -8   4   1   14.60    5.90
  -8   4   1   21.50    6.00
   7  -4  -1   18.20    6.70
  -7   4   1   19.10    5.00
  -7   4   1   14.70    5.10
   6  -4  -1  504.75   19.20
  -6   4   1  509.75   17.60
  -6   4   1  486.35   17.70
   5  -4  -1  806.92   25.10
  -5   4   1  718.43   23.20
  -5   4   1  803.12   24.00
   4  -4  -1  132.39    7.70
   4  -4  -1  112.09    6.70
  -4   4   1  125.99    7.20
  -4   4   1  129.39    6.70
   3  -4  -1  730.93   21.30
   3  -4  -1  724.63   21.10
   3  -4  -1  685.13   21.40
  -3   4   1  733.43   21.30
  -3   4   1  702.23   21.30
  -3   4   1  701.63   21.50
   2  -4  -1 1205.68   33.60
   2  -4  -1 1179.18   32.90
   2  -4  -1 1231.58   32.40
  -2   4   1 1193.28   33.10
  -2   4   1 1181.28   32.40
   1  -4  -1   13.80    2.80
   1  -4  -1   17.40    3.00
   1  -4  -1   24.60    2.40
  -1   4   1   15.90    3.30
  -1   4   1   19.30    2.90
  -1   4   1   16.60    2.30
   0  -4  -1   40.10    3.90
   0  -4  -1   35.30    4.10
   0  -4  -1   43.10    2.70
   0   4   1   37.80    4.50
   0   4   1   35.70    3.70
  -1  -4  -1 1305.17   35.50
   1   4   1 1272.57   35.40
   1   4   1 1121.59   35.20
   1   4   1 1317.27   33.40
   1   4   1 1309.27   32.90
  -2  -4  -1  491.05   16.70
   2   4   1  522.45   17.30
   2   4   1  523.45   14.90
   2   4   1  530.05   15.00
  -3  -4  -1  136.19    7.90
  -3  -4  -1  155.68    6.70
   3   4   1  141.19    8.10
   3   4   1  142.39    6.60
   3   4   1  132.39    6.60
  -4  -4  -1  614.64   19.50
  -4  -4  -1  632.24   20.60
  -4  -4  -1  633.84   21.40
   4   4   1  637.74   19.60
   4   4   1  617.34   21.50
  -5  -4  -1  219.28   12.10
  -5  -4  -1  211.18   11.40
   5   4   1  225.88   12.60
   5   4   1  200.78   10.50
  -6  -4  -1    7.60    5.10
  -6  -4  -1   -5.30    4.70
   6   4   1   -2.40    4.90
   6   4   1    9.10    4.70
  -7  -4  -1   14.30    7.10
  -7  -4  -1    3.30    5.60
   7   4   1   -0.10    6.50
   7   4   1   -4.10    7.20
   8  -5  -1  136.19   14.70
  -8   5   1   95.49   12.00
  -8   5   1   93.49   10.60
   7  -5  -1  106.39   12.20
  -7   5   1  114.29    9.80
  -7   5   1   93.19   10.20
   6  -5  -1   63.59    8.80
  -6   5   1   67.39    7.50
  -6   5   1   70.89    8.00
   5  -5  -1  596.84   20.80
  -5   5   1  607.74   19.90
  -5   5   1  588.54   20.40
   4  -5  -1  351.36   13.60
   4  -5  -1  344.37   13.20
  -4   5   1  370.56   13.60
  -4   5   1  342.37   13.70
   3  -5  -1    1.70    2.70
   3  -5  -1   -0.90    2.40
  -3   5   1    4.40    3.10
  -3   5   1   -1.40    2.40
   2  -5  -1    5.30    2.80
  -2   5   1    4.30    2.40
  -2   5   1    3.70    2.50
   1  -5  -1  463.55   13.50
   1  -5  -1  447.56   16.20
  -1   5   1  462.15   15.70
  -1   5   1  465.25   13.50
   0  -5  -1   39.40    3.00
   0  -5  -1   41.00    5.20
   0   5   1   49.90    5.00
  -1  -5  -1  583.04   19.60
   1   5   1  575.04   15.60
   1   5   1  594.84   19.50
  -2  -5  -1 1258.47   37.50
   2   5   1 1300.77   34.10
   2   5   1 1331.77   38.10
   2   5   1 1337.17   34.30
  -3  -5  -1  249.08   11.80
   3   5   1  247.48    9.20
   3   5   1  253.97   11.80
   3   5   1  248.68    9.10
  -4  -5  -1   33.70    5.60
  -4  -5  -1   29.00    4.20
   4   5   1   24.50    5.50
   4   5   1   26.20    4.50
   4   5   1   36.80    5.40
  -5  -5  -1   29.50    6.10
   5   5   1   24.80    6.70
   5   5   1   23.90    4.60
  -6  -5  -1    5.00    5.60
   6   5   1    7.00    5.60
   6   5   1   -3.40    4.70
  -7  -5  -1    2.20    6.80
   7   5   1    5.80    6.70
   7   5   1    2.60    7.60
   7  -6  -1  231.58   15.70
  -7   6   1  237.28   14.00
   6  -6  -1   64.09    9.50
  -6   6   1   80.99    9.00
  -6   6   1   90.59    9.70
   5  -6  -1   -3.40    4.10
  -5   6   1    1.20    4.00
  -5   6   1    6.50    4.20
   4  -6  -1   -0.40    3.50
   4  -6  -1   -2.10    4.20
  -4   6   1    1.70    4.50
  -4   6   1    8.30    4.10
   3  -6  -1  117.99    8.80
   3  -6  -1  111.39    7.20
  -3   6   1  117.09    8.30
  -3   6   1  111.29    9.00
   2  -6  -1   -0.80    2.50
   2  -6  -1    7.40    3.60
  -2   6   1    1.70    2.50
  -2   6   1    2.80    3.00
   1  -6  -1 1279.87   33.90
   1  -6  -1 1281.07   37.70
  -1   6   1 1287.47   33.80
  -1   6   1 1251.37   37.00
   0  -6  -1 1084.89   33.80
   0  -6  -1 1142.49   31.10
   0   6   1 1107.29   33.30
  -1  -6  -1   41.60    6.30
   1   6   1   47.20    2.50
  -2  -6  -1  234.78   11.80
   2   6   1  248.28   12.40
  -3  -6  -1   36.50    6.30
   3   6   1   17.90    4.90
   3   6   1   30.90    3.90
  -4  -6  -1    1.40    5.30
   4   6   1    8.10    5.20
  -5  -6  -1   -3.20    5.40
   5   6   1    2.20    5.80
  -6  -6  -1   16.90    7.50
   6   6   1   15.70    7.20
   7  -7  -1   30.90    8.60
  -7   7   1   17.70    7.70
  -7   7   1   15.80    9.30
   6  -7  -1   -1.10    6.20
  -6   7   1    9.10    6.40
  -6   7   1   -0.10    6.40
   5  -7  -1   -2.40    4.50
  -5   7   1    5.30    5.30
   4  -7  -1   58.09    7.10
   4  -7  -1   55.49    7.60
  -4   7   1   63.79    8.30
  -4   7   1   60.89    9.20
   3  -7  -1  633.24   23.20
   3  -7  -1  607.54   19.70
  -3   7   1  623.74   23.20
  -3   7   1  644.74   22.30
   2  -7  -1  675.43   23.60
   2  -7  -1  659.63   19.80
  -2   7   1  684.73   23.10
  -2   7   1  639.04   20.20
   1  -7  -1    4.50    2.30
   1  -7  -1   -3.00    4.20
  -1   7   1   -0.90    2.40
  -1   7   1   -1.30    4.00
   0  -7  -1  423.76   18.00
   0   7   1  430.56   17.20
  -1  -7  -1  199.88   11.70
   1   7   1  183.48   11.40
  -2  -7  -1   18.70    5.40
   2   7   1   25.90    6.30
  -3  -7  -1   27.40    9.00
   3   7   1   15.80    6.10
  -4  -7  -1   70.59    9.20
   4   7   1   64.49    9.90
  -5  -7  -1   20.40    8.10
   5   7   1   16.50    7.60
   6  -8  -1    7.70    7.10
  -6   8   1    2.40    7.50
  -6   8   1   18.40    8.10
   5  -8  -1  203.78   12.40
   5  -8  -1  213.38   15.40
  -5   8   1  224.08   15.90
   4  -8  -1  124.59   12.00
   4  -8  -1  130.89    9.50
  -4   8   1  125.79   12.50
  -4   8   1  129.69   11.80
   3  -8  -1   60.69    9.20
   3  -8  -1   58.59    7.00
  -3   8   1   64.79    9.90
  -3   8   1   78.49   11.20
   2  -8  -1  375.96   16.80
   2  -8  -1  455.45   19.70
  -2   8   1  413.76   18.30
   1  -8  -1  194.68   13.30
  -1   8   1  205.98   13.30
   0  -8  -1   -3.30    6.30
  -1  -8  -1    3.20    6.60
   1   8   1    1.50    5.40
  -2  -8  -1   13.70    7.40
   2   8   1   20.20    6.70
  -3  -8  -1   10.50    6.60
   3   8   1   15.30    7.50
  -4  -8  -1   21.10    9.20
   4   8   1   28.50    8.40
   4  -9  -1  190.88   15.60
  -4   9   1  181.58   15.10
  -4   9   1  201.38   16.60
   3  -9  -1   61.09    9.70
  -3   9   1   79.49   12.20
  -3   9   1   64.29    9.60
   2  -9  -1    4.90    7.90
  -2   9   1   -4.10    6.40
   1  -9  -1   -7.10    7.00
  -1   9   1   -4.40    6.20
   0  -9  -1   17.80    7.70
   0   9   1   19.30    7.70
  -1  -9  -1    1.20    8.40
   1   9   1   -0.60    6.50
  -2  -9  -1  107.39   15.20
   2   9   1  112.79   12.70
   0  10  -2   10.90    8.20
   0 -10   2    5.80   10.00
  -1  10  -2    0.90    8.10
   1 -10   2   -7.50    9.50
  -2  10  -2    5.80    8.90
   2 -10   2   12.20    9.20
   3   9  -2   -7.90    7.90
  -3  -9   2   10.20    8.20
   2   9  -2   21.60    8.50
  -2  -9   2   34.00    9.30
   1   9  -2   -5.90    6.70
  -1  -9   2   12.10    7.30
   0   9  -2    4.40    7.10
   0  -9   2    3.30    6.70
  -1   9  -2  107.39   12.90
   1  -9   2   88.19   13.60
  -2   9  -2  317.87   17.20
   2  -9   2  306.77   18.40
  -3   9  -2   11.90    7.40
   3  -9   2    7.20    7.30
  -4   9  -2  100.49   12.30
   4  -9   2   98.59   13.50
   4   8  -2   14.00    7.40
  -4  -8   2   17.20    7.90
   3   8  -2   -0.20    6.00
  -3  -8   2  -12.50    6.90
   2   8  -2    6.30    7.30
  -2  -8   2    2.30    6.40
   1   8  -2  157.98   12.80
  -1  -8   2  158.98   12.40
   0   8  -2  262.77   15.10
   0  -8   2  277.07   15.60
  -2   8  -2  367.16   19.90
   2  -8   2  405.16   20.00
  -3   8  -2  370.66   17.50
   3  -8   2  348.07   12.70
   3  -8   2  361.36   19.70
  -4   8  -2   47.60    7.60
   4  -8   2   31.40    5.20
  -5   8  -2   16.90    7.10
  -5   8  -2   18.60    7.10
   5  -8   2   16.40    5.80
   5  -8   2   12.70    6.80
  -6   8  -2   10.90    7.70
  -6   8  -2   19.60    8.60
   6  -8   2    2.50    7.00
   5   7  -2   -6.00    7.40
  -5  -7   2  -11.90    6.70
   4   7  -2    1.90    5.90
  -4  -7   2   -8.70    6.70
   3   7  -2  110.19   10.90
  -3  -7   2   67.99   10.30
   2   7  -2   94.89    9.00
  -2  -7   2   88.09    9.30
   1   7  -2  107.19    9.10
  -1  -7   2  111.29    9.50
   0   7  -2  850.41   28.30
   0  -7   2  858.81   28.50
  -1   7  -2  544.45   20.40
   1  -7   2  544.15   20.60
  -2   7  -2    3.10    4.00
  -2   7  -2   -0.60    2.80
   2  -7   2   -8.20    4.70
  -3   7  -2   57.39    7.40
   3  -7   2   51.29    5.50
   3  -7   2   71.69    8.80
  -4   7  -2    0.90    5.00
   4  -7   2   -2.00    3.90
   4  -7   2    6.40    4.90
  -5   7  -2   -5.10    4.60
   5  -7   2    1.80    4.80
   5  -7   2   -0.50    5.00
  -6   7  -2   68.49   11.00
  -6   7  -2   79.19   10.70
   6  -7   2   90.89   12.40
  -7   7  -2  158.28   14.30
   7  -7   2  110.39   14.10
   6   6  -2   -5.90    7.10
  -6  -6   2   10.00    6.80
   5   6  -2   10.20    5.60
  -5  -6   2   13.90    6.00
   4   6  -2   13.90    5.10
   4   6  -2   14.40    2.60
  -4  -6   2   17.40    5.30
   3   6  -2  242.38   13.00
  -3  -6   2  234.98   12.20
   2   6  -2 1080.09   33.30
  -2  -6   2 1082.79   33.40
   1   6  -2  297.07   13.10
  -1  -6   2  294.27   13.20
   0   6  -2  115.79    8.10
   0  -6   2  132.79    9.00
  -1   6  -2  230.78   11.10
   1  -6   2  238.68    8.00
   1  -6   2  238.98   11.60
  -2   6  -2    2.40    2.70
  -2   6  -2    4.40    3.60
   2  -6   2   -3.00    3.80
   2  -6   2    3.30    2.20
  -3   6  -2    2.30    3.80
  -3   6  -2    3.60    3.60
   3  -6   2    5.40    3.80
   3  -6   2    4.60    2.90
  -4   6  -2  472.25   18.70
   4  -6   2  471.25   17.00
   4  -6   2  494.35   17.50
  -5   6  -2  425.66   16.10
  -5   6  -2  413.36   17.10
   5  -6   2  434.56   16.90
   5  -6   2  409.26   15.80
  -6   6  -2   21.60    5.30
  -6   6  -2   33.80    6.40
   6  -6   2   40.80    7.30
  -7   6  -2  132.59   11.80
  -7   6  -2  101.79   13.00
   7  -6   2  171.58   13.10
   7   5  -2    7.70    6.50
  -7  -5   2    2.70    7.10
   6   5  -2    1.30    4.40
   6   5  -2    1.90    6.00
   5   5  -2  140.19    7.90
   5   5  -2  135.59    9.90
  -5  -5   2  140.69   11.10
   4   5  -2  491.05   15.00
   4   5  -2  473.95   18.10
  -4  -5   2  490.05   18.50
  -4  -5   2  452.65   15.00
   3   5  -2   38.20    3.10
   3   5  -2   45.90    6.00
  -3  -5   2   44.10    6.80
  -3  -5   2   37.80    3.30
   2   5  -2  633.94   21.40
  -2  -5   2  671.03   21.70
   1   5  -2  413.86   15.10
  -1  -5   2  427.46   15.40
   0   5  -2   24.00    4.00
   0  -5   2   20.80    3.70
  -1   5  -2  113.89    4.70
  -1   5  -2  103.79    6.60
   1  -5   2  103.59    4.20
   1  -5   2  103.09    6.70
  -2   5  -2  484.65   15.00
  -2   5  -2  480.85   16.80
   2  -5   2  503.55   14.80
   2  -5   2  472.65   16.60
  -3   5  -2  721.13   22.70
  -3   5  -2  767.02   24.00
   3  -5   2  767.52   22.50
   3  -5   2  760.92   23.20
  -4   5  -2   13.40    3.50
  -4   5  -2   11.10    3.60
   4  -5   2   11.60    3.70
   4  -5   2    7.30    3.20
  -5   5  -2  617.14   21.50
  -5   5  -2  602.34   19.40
   5  -5   2  581.64   21.00
  -6   5  -2  305.97   14.40
  -6   5  -2  266.67   11.80
   6  -5   2  282.77   14.30
  -7   5  -2   52.69    9.30
  -7   5  -2   45.30    6.90
   7  -5   2   50.99    8.20
  -8   5  -2   26.30    8.30
   8  -5   2   32.00    9.60
   8   4  -2   -7.10    7.10
   7   4  -2   51.19    7.30
   7   4  -2   75.29    9.70
  -7  -4   2   43.40   10.60
   6   4  -2  167.58    9.60
   6   4  -2  155.18   11.40
  -6  -4   2  156.98   10.50
   5   4  -2    4.40    3.70
   5   4  -2    2.20    2.70
  -5  -4   2   11.40    4.80
   4   4  -2  537.55   16.10
   4   4  -2  514.85   18.30
  -4  -4   2  509.95   16.40
  -4  -4   2  519.15   18.30
   3   4  -2  222.78    7.70
   3   4  -2  220.88   10.10
  -3  -4   2  234.08   10.50
  -3  -4   2  225.48    7.90
   2   4  -2  171.28    5.40
   2   4  -2  164.88    8.00
  -2  -4   2  159.18    8.00
  -2  -4   2  170.68    5.40
   1   4  -2    2.20    2.00
  -1  -4   2    3.40    2.50
  -1  -4   2    1.90    2.40
   0   4  -2  535.45   16.80
   0   4  -2  532.05   16.90
   0  -4   2  535.65   13.70
   0  -4   2  541.95   13.70
   0  -4   2  518.15   16.80
   0  -4   2  515.15   16.80
  -1   4  -2  371.36   13.00
  -1   4  -2  391.96   13.00
  -1   4  -2  390.36   11.30
   1  -4   2  382.76   13.10
   1  -4   2  358.26   12.90
   1  -4   2  392.36   11.10
  -2   4  -2  270.77   10.50
  -2   4  -2  258.47    9.80
  -2   4  -2  260.47    9.30
   2  -4   2  269.27    9.30
   2  -4   2  266.77   10.00
  -3   4  -2 2035.80   55.39
  -3   4  -2 2055.59   54.89
  -3   4  -2 2055.19   54.29
   3  -4   2 2088.49   54.29
   3  -4   2 2047.20   54.59
  -4   4  -2  832.62   25.70
  -4   4  -2  833.92   24.30
  -4   4  -2  838.22   24.10
   4  -4   2  855.21   25.90
   4  -4   2  840.02   24.00
  -5   4  -2    1.20    3.20
  -5   4  -2    1.20    3.20
  -5   4  -2    2.10    2.30
   5  -4   2    2.10    3.60
  -6   4  -2   47.50    6.60
  -6   4  -2   46.80    5.50
   6  -4   2   47.30    6.80
  -7   4  -2    1.40    3.40
  -7   4  -2   14.60    5.70
   7  -4   2    1.80    6.60
  -8   4  -2   -1.10    7.10
   8  -4   2   10.40    8.20
   8   3  -2   12.00    7.50
   8   3  -2   12.10    6.80
  -8  -3   2    8.80    8.70
   7   3  -2   36.30    7.20
   7   3  -2   31.30    6.40
  -7  -3   2   33.50    6.20
   6   3  -2  240.08   11.70
   6   3  -2  247.68   12.50
  -6  -3   2  236.28   12.20
   5   3  -2  178.98    8.90
   5   3  -2  168.88    9.40
  -5  -3   2  180.78    9.40
   4   3  -2   13.50    3.80
   4   3  -2    8.50    2.30
  -4  -3   2    8.20    3.00
  -4  -3   2   11.60    3.10
   3   3  -2    3.20    1.60
   3   3  -2    1.90    2.10
   3   3  -2   -0.80    2.30
  -3  -3   2   -0.20    1.80
  -3  -3   2   -0.30    2.00
   2   3  -2  493.65   15.80
   2   3  -2  539.35   16.50
   2   3  -2  494.05   15.80
   2   3  -2  512.85   14.10
  -2  -3   2  504.45   15.80
  -2  -3   2  518.25   14.20
  -2  -3   2  510.95   16.20
   1   3  -2   37.60    3.30
   1   3  -2   39.00    1.90
  -1  -3   2   41.70    1.80
  -1  -3   2   36.00    3.70
   0   3  -2 2931.71   76.69
   0   3  -2 2955.30   76.69
   0  -3   2 3015.60   74.69
   0  -3   2 2975.30   76.69
   0  -3   2 2993.10   74.69
   0  -3   2 3037.70   76.69
  -1   3  -2 4130.59  105.09
  -1   3  -2 4166.28  105.69
  -1   3  -2 4170.88  104.29
   1  -3   2 4032.90  105.09
   1  -3   2 4245.38  105.59
   1  -3   2 4122.49  104.19
  -2   3  -2 1550.34   40.00
  -2   3  -2 1484.85   40.80
  -2   3  -2 1524.65   40.30
   2  -3   2 1505.25   40.00
   2  -3   2 1464.65   40.10
   2  -3   2 1569.84   40.90
  -3   3  -2  252.17    8.70
  -3   3  -2  253.87    9.70
  -3   3  -2  247.38    9.70
   3  -3   2  247.38    9.60
   3  -3   2  252.97    8.50
   3  -3   2  244.58    9.60
  -4   3  -2  459.75   13.60
  -4   3  -2  459.35   13.90
  -4   3  -2  451.75   15.50
   4  -3   2  437.06   15.70
  -5   3  -2   -4.90    3.20
  -5   3  -2    0.20    1.90
  -5   3  -2    3.20    2.50
   5  -3   2   -5.00    3.50
  -6   3  -2   -0.40    3.00
  -6   3  -2   10.00    4.80
   6  -3   2   -1.70    4.10
  -7   3  -2   58.79    7.70
  -7   3  -2   57.39    5.80
   7  -3   2   88.59    9.80
  -8   3  -2  114.99   11.70
   8  -3   2  114.69   13.60
   8   2  -2   94.79   10.50
  -8  -2   2   74.49   10.40
   7   2  -2   22.30    5.80
   7   2  -2   24.90    5.50
  -7  -2   2   21.50    5.40
  -7  -2   2   21.00    5.30
   6   2  -2   26.20    4.90
   6   2  -2   17.50    4.70
  -6  -2   2   21.30    4.70
  -6  -2   2   23.40    4.40
   5   2  -2   83.49    6.50
   5   2  -2   64.79    6.20
  -5  -2   2   69.59    5.80
  -5  -2   2   73.49    6.20
   4   2  -2  117.09    6.50
   4   2  -2   94.19    5.70
   4   2  -2  103.99    6.10
  -4  -2   2  103.59    6.50
  -4  -2   2   97.29    6.20
  -4  -2   2  112.09    6.10
   3   2  -2    4.80    2.30
   3   2  -2    2.50    1.50
   3   2  -2    7.40    2.10
  -3  -2   2    3.80    1.80
  -3  -2   2    5.00    2.00
   2   2  -2 2078.79   54.69
   2   2  -2 2044.70   54.89
   2   2  -2 2101.59   54.69
   2   2  -2 2156.28   53.99
  -2  -2   2 2166.18   55.19
  -2  -2   2 2175.98   53.99
  -2  -2   2 2058.99   54.59
   1   2  -2 4871.31  122.39
   1   2  -2 4863.61  122.99
   1   2  -2 4886.51  122.69
  -1  -2   2 4959.30  122.79
  -1  -2   2 4914.81  123.39
  -1  -2   2 4776.92  122.99
   0   2  -2 4799.42  121.09
   0   2  -2 4936.51  121.09
   0  -2   2 4660.63  120.09
   0  -2   2 5000.10  121.19
   0  -2   2 4679.53  120.99
  -1   2  -2 9658.33  243.28
  -1   2  -2 9858.71  244.28
  -1   2  -2 9456.85  242.38
   1  -2   2 9617.84  241.18
   1  -2   2 9342.37  242.28
   1  -2   2 9420.56  242.58
  -2   2  -2 1643.64   43.30
  -2   2  -2 1643.04   43.40
   2  -2   2 1629.74   42.10
   2  -2   2 1663.73   43.30
   2  -2   2 1641.14   43.40
  -3   2  -2   78.79    3.60
  -3   2  -2   74.89    4.60
  -3   2  -2   78.69    3.30
  -3   2  -2   75.69    5.00
   3  -2   2   75.89    5.00
   3  -2   2   78.39    5.00
  -4   2  -2    5.40    1.60
  -4   2  -2    6.60    2.70
  -4   2  -2    3.80    1.40
   4  -2   2    4.80    2.70
  -5   2  -2  422.66   12.50
  -5   2  -2  431.66   15.50
  -5   2  -2  438.56   12.80
   5  -2   2  410.96   16.20
  -6   2  -2  361.36   11.80
  -6   2  -2  356.46   11.70
  -6   2  -2  376.06   15.10
   6  -2   2  381.36   16.80
  -7   2  -2    1.70    2.90
  -7   2  -2   -5.00    4.60
   7  -2   2   -9.70    5.70
  -8   2  -2   91.29   10.90
   8  -2   2   95.09   12.50
   8   1  -2   41.50    7.50
   8   1  -2   31.40    6.70
  -8  -1   2   29.30    6.50
  -8  -1   2   31.60    6.70
   7   1  -2   23.10    5.70
   7   1  -2   30.20    5.60
  -7  -1   2   22.90    4.90
  -7  -1   2   22.80    5.20
   6   1  -2    3.40    3.50
   6   1  -2   -1.10    3.50
  -6  -1   2    0.30    3.50
  -6  -1   2    4.30    3.20
   5   1  -2   -2.30    2.50
   5   1  -2    3.80    3.00
  -5  -1   2    1.20    2.70
  -5  -1   2    5.10    2.70
   4   1  -2 1220.68   32.80
   4   1  -2 1209.28   33.50
   4   1  -2 1195.68   33.00
  -4  -1   2 1208.28   33.20
  -4  -1   2 1162.18   33.50
   3   1  -2 2780.22   69.99
   3   1  -2 2639.74   69.49
   3   1  -2 2796.02   70.09
   3   1  -2 2721.93   69.39
  -3  -1   2 2681.83   71.29
  -3  -1   2 2716.03   69.99
  -3  -1   2 2677.73   69.49
   2   1  -2   58.79    3.20
   2   1  -2   66.29    3.20
   2   1  -2   58.39    3.60
   2   1  -2   61.09    3.10
  -2  -1   2   55.79    3.60
  -2  -1   2   60.99    3.30
   1   1  -2 4673.83  121.59
   1   1  -2 5028.70  124.39
   1   1  -2 4831.42  120.79
  -1  -1   2 4941.61  122.49
  -1  -1   2 4654.03  120.69
  -1  -1   2 4780.22  121.59
   0   1  -2 1394.16   35.30
   0   1  -2 1333.97   35.30
   0  -1   2 1393.66   35.80
   0  -1   2 1392.36   35.40
   0  -1   2 1376.46   35.40
  -1   1  -2  177.78    6.30
  -1   1  -2  187.68    5.40
  -1   1  -2  188.28    6.40
   1  -1   2  187.18    6.30
   1  -1   2  174.98    5.40
   1  -1   2  192.08    6.50
  -2   1  -2   14.90    2.10
  -2   1  -2   13.80    0.90
  -2   1  -2   12.90    1.00
  -2   1  -2   11.00    1.90
   2  -1   2   10.60    2.00
   2  -1   2   13.30    2.10
  -3   1  -2  540.35   17.50
  -3   1  -2  592.04   15.00
  -3   1  -2  577.84   14.90
  -3   1  -2  584.44   17.70
   3  -1   2  584.34   17.30
   3  -1   2  552.54   17.70
  -4   1  -2  139.69    4.70
   4  -1   2  131.39    7.60
  -5   1  -2  126.09    7.70
  -5   1  -2  122.49    4.90
  -5   1  -2  115.79    4.90
   5  -1   2  115.49    4.80
   5  -1   2  117.99    8.10
  -6   1  -2  641.94   18.50
  -6   1  -2  661.93   22.10
  -6   1  -2  645.44   18.60
   6  -1   2  670.83   18.60
   6  -1   2  680.23   23.70
  -7   1  -2  123.69    9.40
  -7   1  -2  142.79    7.10
  -8   1  -2   -3.00    5.20
   8  -1   2    3.90    6.70
   9  -1   2   21.50    9.70
   9   0  -2  -11.10    7.40
   9   0  -2    0.50    6.90
  -9   0   2    5.00    8.20
   8   0  -2    3.70    6.30
  -8   0   2   -8.20    5.00
  -8   0   2    8.00    5.10
   7   0  -2    2.30    4.60
  -7   0   2    5.20    3.80
  -7   0   2    0.30    4.00
   6   0  -2  585.24   20.50
  -6   0   2  588.54   19.20
  -6   0   2  562.14   18.50
   5   0  -2  180.38    9.40
   5   0  -2  178.68    8.00
  -5   0   2  192.38    8.40
  -5   0   2  179.58    7.80
   4   0  -2  507.75   15.60
   4   0  -2  513.25   15.10
   4   0  -2  504.65   16.40
  -4   0   2  499.05   15.70
  -4   0   2  508.35   15.10
   3   0  -2 3595.34   93.79
   3   0  -2 3754.52   93.09
  -3   0   2 3727.73   93.99
  -3   0   2 3741.73   94.39
  -3   0   2 3658.73   93.09
   2   0  -2 1286.77   39.50
   2   0  -2 1510.75   39.70
   2   0  -2 1635.24   39.80
  -2   0   2 1547.55   38.60
  -2   0   2 1585.54   39.70
  -2   0   2 1567.34   39.70
   1   0  -2    0.80    0.80
   1   0  -2   -0.20    0.30
   1   0  -2    0.30    0.80
  -1   0   2    0.90    0.40
  -1   0   2    0.60    0.80
  -1   0   2   -0.60    0.70
   0   0  -2    1.60    0.60
   0   0   2    3.90    0.90
   0   0   2   -0.30    0.60
   0   0   2    1.40    0.90
  -1   0  -2 1728.93   44.70
  -1   0  -2 1750.52   44.40
   1   0   2 1681.23   44.70
   1   0   2 1737.73   43.30
   1   0   2 1735.23   44.40
   1   0   2 1744.13   43.20
  -2   0  -2  261.57    6.80
  -2   0  -2  258.27    8.80
  -2   0  -2  265.97    9.00
   2   0   2  261.77    9.10
   2   0   2  267.27    6.80
   2   0   2  258.57    8.70
  -3   0  -2 1812.22   46.20
  -3   0  -2 1836.22   48.70
  -3   0  -2 1849.71   49.00
   3   0   2 1830.62   49.20
   3   0   2 1869.81   46.20
   3   0   2 1823.02   48.60
  -4   0  -2 1462.45   40.90
  -4   0  -2 1486.25   38.30
   4   0   2 1520.25   39.50
   4   0   2 1491.65   41.80
  -5   0  -2  284.07   11.90
  -5   0  -2  272.97    8.90
   5   0   2  272.47    8.70
   5   0   2  283.07   12.40
  -6   0  -2   75.09    7.60
  -6   0  -2   68.59    5.00
   6   0   2   76.49    4.70
   6   0   2   70.49    8.20
  -7   0  -2  106.69    6.60
  -7   0  -2  105.59   10.20
  -8   0  -2  -13.00    6.00
   8   0   2    0.30    7.00
   9  -1  -2    2.40    7.50
   8  -1  -2   64.29    9.30
  -8   1   2   86.69    8.80
  -8   1   2   97.59    9.20
   7  -1  -2   62.99    8.90
  -7   1   2   80.89    7.40
  -7   1   2   60.89    7.10
   6  -1  -2  689.93   23.00
  -6   1   2  659.33   21.10
  -6   1   2  661.23   20.60
   5  -1  -2 1245.28   33.50
   5  -1  -2 1262.37   35.70
  -5   1   2 1135.29   34.70
  -5   1   2 1264.77   34.30
   4  -1  -2  373.56   13.00
   4  -1  -2  360.16   12.10
   4  -1  -2  369.96   11.30
  -4   1   2  359.66   12.20
  -4   1   2  368.36   11.40
   3  -1  -2  422.06   13.40
   3  -1  -2  444.56   12.40
   3  -1  -2  431.66   13.90
  -3   1   2  437.46   12.40
  -3   1   2  452.65   13.60
  -3   1   2  454.25   14.10
   2  -1  -2  202.88    7.00
   2  -1  -2  192.48    7.10
   2  -1  -2  205.98    5.80
  -2   1   2  188.88    7.00
  -2   1   2  199.48    5.70
   1  -1  -2  356.86   10.50
   1  -1  -2  347.37   10.50
   1  -1  -2  373.06    9.40
  -1   1   2  362.36    9.40
  -1   1   2  356.56   10.50
  -1   1   2  356.26   10.50
  -1   1   2  359.06   10.50
   0  -1  -2  214.38    6.60
   0  -1  -2  204.48    6.30
   0  -1  -2  211.98    6.80
   0   1   2  209.88    6.50
   0   1   2  207.58    7.00
   0   1   2  208.28    6.30
   0   1   2  214.38    6.80
  -1  -1  -2 4408.56  103.09
  -1  -1  -2 4037.70  102.19
  -1  -1  -2 3731.53  102.19
   1   1   2 4261.67  102.29
   1   1   2 3947.21  102.39
   1   1   2 4160.48  101.69
   1   1   2 3876.31  102.29
  -2  -1  -2 3964.10  102.89
  -2  -1  -2 4068.19  102.99
   2   1   2 4019.60  103.09
   2   1   2 4015.60  101.69
   2   1   2 4220.68  103.09
  -3  -1  -2  322.17    9.60
  -3  -1  -2  313.07   11.20
  -3  -1  -2  325.27   11.30
   3   1   2  319.57   11.50
   3   1   2  336.47   11.50
   3   1   2  328.37    9.70
  -4  -1  -2  468.95   13.80
  -4  -1  -2  467.65   15.90
   4   1   2  478.75   16.30
   4   1   2  488.65   13.70
  -5  -1  -2  377.56   12.00
  -5  -1  -2  401.06   14.90
   5   1   2  382.66   11.80
   5   1   2  368.36   15.00
  -6  -1  -2    2.70    2.60
  -6  -1  -2   -2.90    3.30
   6   1   2    0.40    4.80
   6   1   2    0.30    2.50
  -7  -1  -2    5.70    3.20
  -7  -1  -2   -7.40    5.00
   7   1   2    3.80    7.00
  -8  -1  -2    7.90    7.10
   8   1   2   10.50    7.60
   9  -2  -2    0.00    7.80
   8  -2  -2  112.49   13.70
  -8   2   2  139.79   10.20
  -8   2   2  149.09   10.90
   7  -2  -2  183.48   12.60
  -7   2   2  199.48   10.10
  -7   2   2  182.48    9.90
   6  -2  -2  109.19    9.40
  -6   2   2  108.09    7.40
  -6   2   2  120.79    6.80
   5  -2  -2  249.58    9.40
   5  -2  -2  249.18   11.30
  -5   2   2  263.57   10.30
   4  -2  -2  107.29    5.70
   4  -2  -2   96.19    6.40
   4  -2  -2  107.19    5.00
  -4   2   2  107.49    5.10
  -4   2   2  102.09    5.80
  -4   2   2  111.59    6.00
   3  -2  -2   80.69    4.70
   3  -2  -2   70.99    4.60
   3  -2  -2   78.89    3.60
  -3   2   2   72.39    4.80
  -3   2   2   74.19    3.60
  -3   2   2   81.79    4.90
  -3   2   2   73.49    4.30
   2  -2  -2    6.70    1.60
   2  -2  -2    4.10    1.60
   2  -2  -2    8.40    1.40
  -2   2   2    9.30    1.80
  -2   2   2    5.80    1.70
  -2   2   2    6.30    1.80
  -2   2   2   10.00    1.40
   1  -2  -2 3528.45   88.29
   1  -2  -2 3429.76   87.79
  -1   2   2 3486.65   87.79
  -1   2   2 3440.86   87.39
  -1   2   2 3511.65   88.19
  -1   2   2 3460.85   88.29
   0  -2  -2 2508.45   64.49
   0  -2  -2 2388.96   64.69
   0  -2  -2 2620.74   64.59
   0   2   2 2572.14   64.59
   0   2   2 2620.94   64.59
   0   2   2 2492.65   64.79
   0   2   2 2532.55   64.29
  -1  -2  -2   33.60    2.90
  -1  -2  -2   30.90    2.80
   1   2   2   33.60    2.70
   1   2   2   35.20    3.00
   1   2   2   34.90    3.00
   1   2   2   37.90    2.90
   1   2   2   35.50    2.90
  -2  -2  -2 2628.14   67.39
  -2  -2  -2 2602.34   66.79
  -2  -2  -2 2593.04   66.39
   2   2   2 2604.24   66.89
   2   2   2 2560.54   66.49
   2   2   2 2558.44   67.19
  -3  -2  -2 1322.67   36.20
  -3  -2  -2 1330.37   35.30
  -3  -2  -2 1369.76   37.00
   3   2   2 1302.77   36.40
   3   2   2 1292.37   35.30
  -4  -2  -2    6.50    2.20
  -4  -2  -2   -1.00    2.40
   4   2   2    3.50    2.30
   4   2   2    4.00    3.10
  -5  -2  -2    4.60    2.80
  -5  -2  -2   -2.20    3.70
   5   2   2    0.50    3.30
   5   2   2    4.00    2.70
  -6  -2  -2   73.79    6.20
  -6  -2  -2   78.19    7.90
   6   2   2   60.99    8.00
   6   2   2   88.99    9.30
  -7  -2  -2   30.00    4.70
  -7  -2  -2   37.90    7.20
   7   2   2   30.40    7.90
  -8  -2  -2  -10.10    5.50
   8   2   2    5.70    7.90
   8  -3  -2   -7.60    6.30
  -8   3   2   -2.50    4.90
  -8   3   2    1.80    5.40
   7  -3  -2  142.09   11.60
  -7   3   2  172.88   10.30
  -7   3   2  158.58    9.40
   6  -3  -2   64.69    7.60
  -6   3   2   58.69    6.80
  -6   3   2   69.69    5.90
   5  -3  -2   -1.60    2.90
   5  -3  -2    6.20    2.80
  -5   3   2    3.50    2.20
  -5   3   2    1.70    2.60
   4  -3  -2  178.68    8.80
   4  -3  -2  175.18    7.20
  -4   3   2  185.48    7.10
  -4   3   2  166.88    7.90
   3  -3  -2 1829.62   46.00
   3  -3  -2 1766.72   47.20
  -3   3   2 1668.83   47.10
  -3   3   2 1808.72   47.30
  -3   3   2 1658.33   47.00
  -3   3   2 1839.62   46.10
   2  -3  -2 1151.08   30.00
   2  -3  -2 1078.99   31.00
   2  -3  -2 1133.09   30.60
  -2   3   2 1136.99   30.60
  -2   3   2 1083.09   31.00
  -2   3   2 1121.69   30.10
  -2   3   2 1172.28   31.30
   1  -3  -2  626.74   18.60
   1  -3  -2  612.54   17.60
   1  -3  -2  638.34   17.70
  -1   3   2  636.84   17.50
  -1   3   2  607.54   17.70
  -1   3   2  617.54   18.50
   0  -3  -2 4119.69  104.19
   0  -3  -2 4079.79  103.59
   0   3   2 4151.18  103.39
   0   3   2 4022.60  104.59
   0   3   2 4237.68  104.39
   0   3   2 4034.30  104.29
   1   3   2 1061.39   29.90
   1   3   2 1092.09   30.00
   1   3   2 1086.09   28.80
   1   3   2 1084.19   29.00
   1   3   2 1067.69   29.90
  -2  -3  -2   19.20    2.80
  -2  -3  -2   21.90    3.30
   2   3   2   22.00    3.10
   2   3   2   21.00    3.60
   2   3   2   14.80    2.90
   2   3   2   18.40    3.00
   2   3   2   17.40    2.60
  -3  -3  -2   52.79    4.80
  -3  -3  -2   56.49    5.00
  -3  -3  -2   57.79    4.60
   3   3   2   49.60    5.00
   3   3   2   57.89    5.50
   3   3   2   56.89    4.90
  -4  -3  -2   51.69    5.80
  -4  -3  -2   55.59    5.40
   4   3   2   53.39    6.10
   4   3   2   55.79    6.20
   4   3   2   49.30    5.90
  -5  -3  -2   15.10    4.70
  -5  -3  -2   15.00    3.50
   5   3   2   12.70    4.90
   5   3   2   12.80    4.20
  -6  -3  -2   35.10    6.10
  -6  -3  -2   28.40    4.80
   6   3   2   45.00    7.00
   6   3   2   29.30    6.30
  -7  -3  -2  101.19    9.00
  -7  -3  -2  109.99   10.60
   7   3   2  108.99   12.30
   7   3   2   93.89   10.90
  -8  -3  -2   17.80    7.70
   8   3   2   -2.10    7.70
   8   3   2   10.70    6.90
   8  -4  -2    0.10    6.50
  -8   4   2   18.20    6.60
   7  -4  -2   -6.40    5.60
  -7   4   2    2.10    4.60
  -7   4   2    4.20    4.20
   6  -4  -2   14.30    4.70
  -6   4   2   14.60    4.40
  -6   4   2   14.70    3.90
   5  -4  -2  319.87   13.40
   5  -4  -2  286.47   11.90
  -5   4   2  321.57   11.70
  -5   4   2  328.87   13.10
   4  -4  -2   95.79    7.00
   4  -4  -2  106.89    6.00
  -4   4   2   94.39    7.00
  -4   4   2  106.59    5.90
   3  -4  -2 1201.48   33.10
   3  -4  -2 1192.78   34.30
   3  -4  -2 1222.58   33.80
  -3   4   2 1224.08   34.50
   2  -4  -2 3670.43   92.59
   2  -4  -2 3622.04   91.09
   2  -4  -2 3326.87   92.39
  -2   4   2 3633.84   92.59
  -2   4   2 3561.74   91.09
   1  -4  -2  481.35   14.30
   1  -4  -2  488.05   15.10
   1  -4  -2  469.25   15.80
  -1   4   2  484.65   15.20
  -1   4   2  488.05   14.20
   0  -4  -2   18.20    2.60
   0  -4  -2   10.90    2.60
   0  -4  -2   10.30    3.00
   0   4   2   14.10    2.20
   0   4   2   10.70    2.70
   0   4   2   13.10    3.00
  -1  -4  -2  188.58    8.60
   1   4   2  204.48    7.20
   1   4   2  197.18    8.70
   1   4   2  211.88    7.50
  -2  -4  -2   18.40    3.40
   2   4   2   16.20    2.50
   2   4   2   19.60    3.40
  -3  -4  -2    0.50    2.90
  -3  -4  -2    9.00    2.70
  -3  -4  -2   -0.20    2.80
   3   4   2    6.40    3.00
   3   4   2    1.20    2.50
   3   4   2    0.60    3.40
  -4  -4  -2  210.28   10.70
  -4  -4  -2  193.58    9.90
   4   4   2  197.88   10.80
   4   4   2  200.28    9.40
  -5  -4  -2  253.87   11.90
  -5  -4  -2  260.47   13.00
   5   4   2  256.87   13.40
   5   4   2  262.87   12.20
  -6  -4  -2   19.20    5.70
  -6  -4  -2   29.80    5.40
   6   4   2   21.00    5.50
   6   4   2   15.00    5.90
  -7  -4  -2   18.70    7.70
  -7  -4  -2   26.70    6.40
   7   4   2   33.10    8.60
   7   4   2   43.70    9.00
   8  -5  -2   10.30    7.70
  -8   5   2   -3.10    6.60
   7  -5  -2   75.39   11.90
  -7   5   2   67.29    8.90
  -7   5   2   46.40    7.30
   6  -5  -2   -5.20    4.10
  -6   5   2   -4.00    3.50
  -6   5   2   -0.80    3.70
   5  -5  -2  568.94   20.00
  -5   5   2  574.54   20.00
  -5   5   2  549.85   18.60
   4  -5  -2 1185.08   34.40
  -4   5   2 1201.18   35.20
  -4   5   2 1169.38   33.70
   3  -5  -2   55.29    5.00
   3  -5  -2   48.60    5.70
  -3   5   2   46.10    5.10
  -3   5   2   56.49    5.60
   2  -5  -2  371.86   14.30
   2  -5  -2  373.86   12.50
  -2   5   2  374.06   12.60
  -2   5   2  386.66   13.50
  -2   5   2  369.16   14.40
   1  -5  -2  430.26   13.30
   1  -5  -2  432.26   15.70
  -1   5   2  423.46   13.10
  -1   5   2  422.56   14.80
   0  -5  -2   28.20    3.40
   0  -5  -2   25.80    4.40
   0   5   2   39.10    4.70
   0   5   2   30.30    3.20
  -1  -5  -2   61.79    5.90
   1   5   2   65.49    4.00
   1   5   2   69.29    4.20
   1   5   2   68.19    5.90
  -2  -5  -2  655.63   21.80
   2   5   2  664.23   22.10
   2   5   2  672.43   19.20
   2   5   2  684.33   19.40
  -3  -5  -2  545.65   19.00
   3   5   2  524.35   16.80
   3   5   2  548.75   19.70
  -4  -5  -2   25.10    5.20
   4   5   2   31.00    5.50
   4   5   2   22.10    4.10
  -5  -5  -2  138.19   10.10
   5   5   2  140.79   11.70
   5   5   2  140.99    9.90
  -6  -5  -2   36.10    6.90
   6   5   2   46.60    8.30
   6   5   2   32.60    6.60
   7   5   2    1.80    7.80
   7   5   2    1.50    7.10
   7  -6  -2  174.08   13.90
  -7   6   2  206.48   14.00
   6  -6  -2  280.97   15.00
  -6   6   2  299.67   13.80
   5  -6  -2    3.30    4.50
  -5   6   2    5.10    5.00
  -5   6   2   -3.70    4.00
   4  -6  -2  365.56   14.10
   4  -6  -2  356.96   15.10
  -4   6   2  335.97   13.90
  -4   6   2  355.26   15.20
   3  -6  -2  183.78   11.10
   3  -6  -2  190.38    9.10
  -3   6   2  184.78   11.10
  -3   6   2  190.28   10.00
   2  -6  -2    0.70    2.40
   2  -6  -2   -3.70    4.00
  -2   6   2    3.30    3.60
  -2   6   2   -1.10    2.60
   1  -6  -2   28.30    4.10
   1  -6  -2   20.50    4.50
  -1   6   2   20.10    3.00
  -1   6   2   19.80    4.20
   0  -6  -2  510.55   15.10
   0  -6  -2  486.05   18.30
   0   6   2  509.95   18.00
   0   6   2  494.05   14.90
   0   6   2  495.55   14.50
  -1  -6  -2  260.17   12.40
   1   6   2  270.67   12.60
   1   6   2  249.78    8.80
   1   6   2  252.47    8.40
  -2  -6  -2   39.10    5.90
   2   6   2   41.50    4.00
   2   6   2   39.40    4.30
   2   6   2   45.70    7.30
  -3  -6  -2  644.14   22.70
   3   6   2  637.44   19.20
   3   6   2  630.54   23.00
  -4  -6  -2   97.79    9.90
   4   6   2   89.19   10.50
   4   6   2   88.19    7.00
  -5  -6  -2    0.80    5.80
   5   6   2    5.80    6.70
  -6  -6  -2   11.10    7.60
   6   6   2    7.10    7.10
   6  -7  -2  232.38   15.00
  -6   7   2  237.48   13.70
  -6   7   2  263.17   15.60
   5  -7  -2  126.69   10.00
  -5   7   2   91.29   10.40
  -5   7   2  115.99   10.60
   4  -7  -2   -6.10    4.00
  -4   7   2   -3.50    8.40
  -4   7   2    1.00    4.60
   3  -7  -2   36.80    7.00
   3  -7  -2   59.49    6.20
  -3   7   2   42.10    6.10
  -3   7   2   39.20    6.30
   2  -7  -2  235.48   13.10
   2  -7  -2  228.18    9.80
  -2   7   2  261.07   12.60
   1  -7  -2   53.69    5.30
   1  -7  -2   62.89    7.90
  -1   7   2   48.80    7.70
   0  -7  -2  331.77   15.30
   0   7   2  315.27   10.50
   0   7   2  336.07   14.60
  -1  -7  -2  647.74   23.30
   1   7   2  645.44   18.30
   1   7   2  634.04   23.10
  -2  -7  -2   29.80    6.70
   2   7   2   27.40    9.90
   3   7   2    6.70    5.50
  -4  -7  -2   15.70    6.70
   4   7   2   18.20    6.40
  -5  -7  -2   -0.50    7.00
   5   7   2    5.40    7.50
   5  -8  -2   -4.70    5.90
  -5   8   2   -4.60    7.30
  -5   8   2    6.80    6.80
   4  -8  -2   82.79    8.50
   4  -8  -2   75.09   10.80
  -4   8   2   61.29    8.90
  -4   8   2   80.09   10.40
   3  -8  -2   32.00    7.30
   3  -8  -2   38.20    5.00
  -3   8   2   45.80    7.20
  -3   8   2   45.60    7.70
   2  -8  -2  333.77   13.00
   2  -8  -2  372.06   18.50
  -2   8   2  372.86   16.80
   1  -8  -2  464.15   19.60
  -1   8   2  410.26   18.40
   0  -8  -2   21.70    7.20
   0   8   2   24.30    7.80
  -1  -8  -2   50.59    8.20
   1   8   2   74.79   11.00
  -2  -8  -2    6.40    6.30
   2   8   2   22.90    7.00
  -3  -8  -2   -9.40    7.10
   3   8   2   12.40    7.10
  -4  -8  -2    2.80    8.30
   4   8   2    1.40    7.00
   4  -9  -2  183.78   17.40
  -4   9   2  209.28   17.40
  -4   9   2  175.78   16.10
   3  -9  -2  241.98   16.60
  -3   9   2  227.28   15.50
  -3   9   2  220.68   15.30
   2  -9  -2   -7.50    7.00
  -2   9   2   -3.50    7.20
   1  -9  -2  131.79   14.90
  -1   9   2  148.79   12.60
   0  -9  -2   52.19   10.20
   0   9   2   50.99    9.40
  -1  -9  -2  -10.80    7.40
  -2  -9  -2   -4.40    8.70
   0  10  -3   42.50    9.70
   0 -10   3   52.69   11.40
  -1  10  -3   70.59   11.50
   1 -10   3   53.49   12.20
  -2  10  -3   11.10    9.60
   2 -10   3   20.70   10.50
   3   9  -3   -4.80    7.70
  -3  -9   3   14.80    9.00
   2   9  -3  125.29   15.20
  -2  -9   3  152.58   14.60
   1   9  -3  128.29   12.80
  -1  -9   3  136.89   13.90
   0   9  -3   18.80    6.90
   0  -9   3    1.50    8.10
  -1   9  -3    9.70    6.40
   1  -9   3   -0.70    7.50
  -2   9  -3   36.70    9.10
   2  -9   3   49.70   10.00
  -3   9  -3   24.20    8.60
   3  -9   3   19.00    7.30
  -4   9  -3   44.20    9.00
   4  -9   3   26.40    9.00
   4   8  -3  106.79   14.00
  -4  -8   3  128.39   15.20
   3   8  -3   38.10    8.90
  -3  -8   3   62.19    9.50
   2   8  -3   -7.30    5.80
  -2  -8   3   -1.60    6.00
   1   8  -3    4.10    5.90
  -1  -8   3   16.40    7.50
   0   8  -3    4.20    5.60
   0  -8   3   -2.80    5.90
  -1   8  -3   -6.40    4.90
   1  -8   3   -4.90    8.20
  -2   8  -3  215.48   13.80
   2  -8   3  199.98   13.20
  -3   8  -3  564.14   22.60
   3  -8   3  587.34   22.90
   3  -8   3  568.34   18.00
  -4   8  -3   48.90    8.20
   4  -8   3   55.29    6.20
   4  -8   3   56.09    8.40
  -5   8  -3    2.40    7.20
   5  -8   3    6.00   12.00
   5  -8   3    4.90    5.50
  -6   8  -3   95.79   14.00
  -6   8  -3   81.49   12.50
   6  -8   3   95.89   12.50
   5   7  -3   22.10    7.80
  -5  -7   3   39.40    8.40
   4   7  -3   32.90    7.70
  -4  -7   3   17.20    6.50
   3   7  -3   14.10    5.60
  -3  -7   3   17.50    6.70
   2   7  -3    6.20    4.90
  -2  -7   3    1.70    5.30
   1   7  -3    7.40    4.60
  -1  -7   3   -0.20    5.30
   0   7  -3  373.36   16.00
   0  -7   3  356.86   16.40
  -1   7  -3  698.13   24.20
   1  -7   3  735.33   24.60
   1  -7   3  652.33   18.00
  -2   7  -3   27.10    5.70
  -2   7  -3   46.40    6.70
   2  -7   3   42.50    4.30
   2  -7   3   42.40    6.60
  -3   7  -3  321.07   14.70
   3  -7   3  302.57   11.70
   3  -7   3  302.17   14.80
  -4   7  -3  380.26   17.40
   4  -7   3  378.76   15.40
   4  -7   3  407.96   16.50
  -5   7  -3   13.70    5.50
  -5   7  -3   11.10    6.10
   5  -7   3   11.10    5.60
   5  -7   3   13.20    5.70
  -6   7  -3   -4.60    5.20
  -6   7  -3   -4.90    6.20
   6  -7   3   -1.90    6.50
  -7   7  -3    7.20    7.30
   7  -7   3   12.80    8.00
   6   6  -3   51.99    9.10
  -6  -6   3   43.70    8.80
   5   6  -3   30.70    6.90
  -5  -6   3   24.80    6.40
   4   6  -3   -0.40    4.60
   4   6  -3    0.80    3.00
  -4  -6   3    3.30    4.40
   3   6  -3   19.10    4.80
  -3  -6   3   22.00    5.70
   2   6  -3  308.07   13.80
  -2  -6   3  323.47   14.20
   1   6  -3  716.83   23.90
  -1  -6   3  709.53   23.90
   0   6  -3   16.30    4.50
   0  -6   3   13.50    4.60
  -1   6  -3 1082.09   33.00
   1  -6   3 1119.99   33.10
   1  -6   3 1066.39   28.60
   1  -6   3 1101.29   29.00
  -2   6  -3  864.41   27.30
  -2   6  -3  857.81   24.50
   2  -6   3  841.62   24.00
   2  -6   3  833.72   26.50
  -3   6  -3   31.50    5.40
   3  -6   3   32.20    4.30
   3  -6   3   18.90    5.10
  -4   6  -3    5.40    4.10
   4  -6   3    9.70    4.10
   4  -6   3    4.10    3.90
  -5   6  -3   24.50    5.00
  -5   6  -3   26.20    6.20
   5  -6   3   34.80    6.20
   5  -6   3   21.90    4.80
  -6   6  -3    6.30    4.60
  -6   6  -3   27.30    7.00
  -7   6  -3  -16.20    7.20
   7  -6   3   21.50    8.50
   7   5  -3    9.50    6.50
  -7  -5   3   16.60    7.40
   6   5  -3   -1.50    4.20
   6   5  -3    1.30    6.00
  -6  -5   3    8.20    6.20
   5   5  -3    3.00    5.10
   5   5  -3   -5.50    3.10
  -5  -5   3    1.00    5.20
   4   5  -3  185.58   10.30
  -4  -5   3  194.18   10.80
  -4  -5   3  171.88    8.10
   3   5  -3   86.79    7.70
   3   5  -3   80.79    4.30
  -3  -5   3   78.99    4.50
  -3  -5   3   88.99    8.20
   2   5  -3  167.98    9.20
   2   5  -3  161.18    5.00
  -2  -5   3  162.38    5.10
  -2  -5   3  169.48    9.70
   1   5  -3 1916.21   51.89
  -1  -5   3 1857.01   51.79
   0   5  -3 1070.69   31.30
   0  -5   3 1058.49   27.00
   0  -5   3 1054.19   27.00
   0  -5   3 1053.59   31.10
  -1   5  -3    7.40    2.00
  -1   5  -3    0.00    2.60
   1  -5   3    1.80    3.00
  -2   5  -3   82.79    5.40
  -2   5  -3   96.79    6.70
   2  -5   3   89.19    5.10
   2  -5   3   85.19    6.50
  -3   5  -3   26.00    4.60
   3  -5   3   23.60    3.80
   3  -5   3   22.30    4.20
  -4   5  -3    9.40    3.70
   4  -5   3    8.00    3.00
   4  -5   3    8.20    3.60
  -5   5  -3  299.17   13.80
  -5   5  -3  296.87   11.70
   5  -5   3  312.17   11.60
   5  -5   3  301.97   13.70
  -6   5  -3  421.36   15.60
  -6   5  -3  469.45   19.30
   6  -5   3  490.55   19.60
  -7   5  -3   29.40    6.80
   7  -5   3   26.60    8.10
  -8   5  -3    3.60    8.00
   8  -5   3   12.40    9.50
   7   4  -3   -3.60    5.30
   7   4  -3    0.90    6.10
  -7  -4   3   11.50    6.90
   6   4  -3   66.69    7.70
   6   4  -3   57.29    7.80
  -6  -4   3   68.79    9.60
   5   4  -3   28.50    4.90
   5   4  -3   29.70    4.20
  -5  -4   3   17.20    4.80
   4   4  -3  390.26   15.00
   4   4  -3  390.26   12.80
  -4  -4   3  372.16   13.30
  -4  -4   3  384.26   15.10
   3   4  -3 1835.12   47.90
   3   4  -3 1852.71   50.49
  -3  -4   3 1835.52   50.89
  -3  -4   3 1846.72   48.10
   2   4  -3  126.49    7.00
   2   4  -3  137.39    5.00
  -2  -4   3  137.69    7.70
  -2  -4   3  140.59    5.00
   1   4  -3  274.67   10.50
   1   4  -3  271.97    7.80
  -1  -4   3  257.27   10.40
  -1  -4   3  266.07    7.80
   0   4  -3  551.64   17.70
   0   4  -3  553.04   17.60
   0  -4   3  574.64   17.70
   0  -4   3  542.85   17.80
   0  -4   3  559.44   15.10
  -1   4  -3  711.03   19.60
  -1   4  -3  666.23   21.10
  -1   4  -3  700.53   20.90
   1  -4   3  693.83   19.30
   1  -4   3  702.53   21.00
   1  -4   3  704.33   19.60
  -2   4  -3  464.45   14.40
  -2   4  -3  433.16   15.30
  -2   4  -3  457.25   14.70
   2  -4   3  461.65   14.80
   2  -4   3  460.95   14.40
  -3   4  -3  919.91   26.30
  -3   4  -3  907.71   27.80
  -3   4  -3  926.11   27.40
   3  -4   3  972.40   27.30
  -4   4  -3  990.50   27.70
  -4   4  -3  981.50   29.80
   4  -4   3 1000.20   29.70
  -5   4  -3   20.60    4.40
  -5   4  -3   20.60    3.70
   5  -4   3   26.00    5.20
  -6   4  -3  249.68    9.90
  -6   4  -3  257.27   13.20
   6  -4   3  280.57   14.60
  -7   4  -3  127.49   11.70
   7  -4   3  123.79   11.50
  -8   4  -3    5.60    6.80
   8  -4   3    9.60    7.40
   8   3  -3   18.80    6.70
   8   3  -3   23.30    8.00
  -8  -3   3    3.90    7.10
   7   3  -3    3.40    5.10
   7   3  -3    4.70    5.50
  -7  -3   3   -6.40    5.20
   6   3  -3  290.57   13.30
   6   3  -3  288.27   12.70
  -6  -3   3  262.47   13.70
   5   3  -3  608.24   19.60
   5   3  -3  602.24   20.20
  -5  -3   3  601.24   20.90
   4   3  -3   27.70    4.20
   4   3  -3   34.10    4.80
  -4  -3   3   33.90    5.20
  -4  -3   3   33.90    4.90
   3   3  -3  639.14   17.80
   3   3  -3  617.74   18.90
   3   3  -3  572.64   18.80
  -3  -3   3  616.54   19.50
  -3  -3   3  624.54   17.80
  -3  -3   3  590.64   18.90
   2   3  -3  547.65   17.90
   2   3  -3  578.14   17.50
   2   3  -3  575.54   16.00
  -2  -3   3  590.74   16.00
  -2  -3   3  571.74   17.50
  -2  -3   3  566.64   17.90
   1   3  -3    0.40    1.00
   1   3  -3    0.00    1.80
  -1  -3   3   -0.40    1.60
  -1  -3   3    2.50    1.80
   0   3  -3  154.28    6.50
   0  -3   3  147.39    6.40
   0  -3   3  152.48    5.40
   0  -3   3  143.09    7.10
  -1   3  -3 1164.28   31.00
  -1   3  -3 1180.98   31.30
  -1   3  -3 1134.79   31.90
   1  -3   3 1127.79   31.20
   1  -3   3 1126.29   30.80
   1  -3   3 1191.18   32.00
   1  -3   3 1164.18   31.00
  -2   3  -3 2148.89   53.69
  -2   3  -3 2093.49   54.39
   2  -3   3 2028.50   54.69
   2  -3   3 2036.40   53.69
   2  -3   3 2046.50   54.29
  -3   3  -3    6.20    2.30
  -3   3  -3    4.70    2.40
  -3   3  -3    6.30    1.80
   3  -3   3   10.10    2.00
   3  -3   3    7.00    2.50
  -4   3  -3 1261.37   36.50
  -4   3  -3 1299.67   33.80
  -4   3  -3 1302.67   34.00
   4  -3   3 1277.77   37.00
  -5   3  -3  568.54   19.90
  -5   3  -3  592.94   16.80
  -5   3  -3  573.94   16.40
   5  -3   3  592.54   20.60
  -6   3  -3    1.20    4.40
  -6   3  -3    4.50    4.30
  -6   3  -3    2.20    2.20
   6  -3   3    2.00    4.40
  -7   3  -3   -2.30    5.50
   7  -3   3    0.60    5.80
  -8   3  -3    3.20    6.70
   8  -3   3    0.20    7.90
   8   2  -3   35.00    6.90
   8   2  -3   41.60    7.80
  -8  -2   3   40.20    9.10
   7   2  -3   88.99    8.80
   7   2  -3   82.79    8.70
  -7  -2   3   95.69    9.80
   6   2  -3   22.10    4.80
   6   2  -3   25.10    5.30
  -6  -2   3   31.30    5.00
   5   2  -3  365.26   13.30
   5   2  -3  351.16   13.70
  -5  -2   3  361.36   14.10
   4   2  -3  427.46   14.00
   4   2  -3  427.36   14.10
   4   2  -3  430.36   14.20
  -4  -2   3  408.66   14.30
  -4  -2   3  408.06   14.50
   3   2  -3    7.10    2.20
   3   2  -3   12.90    3.00
   3   2  -3    7.30    2.00
   3   2  -3    8.80    2.00
  -3  -2   3    7.70    2.30
  -3  -2   3    8.80    2.20
   2   2  -3  164.48    7.10
   2   2  -3  159.18    6.00
   2   2  -3  159.48    6.30
  -2  -2   3  163.68    5.90
  -2  -2   3  164.98    6.30
  -2  -2   3  152.98    6.70
   1   2  -3 1465.45   38.30
   1   2  -3 1399.76   37.80
   1   2  -3 1431.56   37.30
  -1  -2   3 1438.56   38.30
  -1  -2   3 1460.35   37.30
  -1  -2   3 1458.25   37.90
   0   2  -3  198.88    6.60
   0   2  -3  188.28    6.70
   0   2  -3  184.18    6.80
   0  -2   3  190.68    6.40
   0  -2   3  187.78    6.50
   0  -2   3  184.08    6.70
   0  -2   3  186.08    6.80
  -1   2  -3  769.72   20.20
  -1   2  -3  747.93   20.90
  -1   2  -3  744.93   21.00
   1  -2   3  726.73   20.70
   1  -2   3  731.23   20.20
   1  -2   3  758.02   21.00
   1  -2   3  738.33   20.90
  -2   2  -3 3889.51   93.99
  -2   2  -3 3709.13   95.59
   2  -2   3 3756.42   95.59
   2  -2   3 3696.53   95.69
   2  -2   3 3655.23   94.09
  -3   2  -3 1043.10   29.60
  -3   2  -3 1029.40   29.20
  -3   2  -3 1050.09   26.80
  -3   2  -3 1021.60   26.70
   3  -2   3 1019.00   29.60
   3  -2   3 1028.20   29.30
   3  -2   3 1038.70   26.60
  -4   2  -3   71.09    3.30
  -4   2  -3   75.19    5.70
  -4   2  -3   71.99    3.20
   4  -2   3   78.89    6.80
  -5   2  -3  145.19    8.90
   5  -2   3  148.49    9.40
  -6   2  -3   11.60    4.50
  -6   2  -3   11.70    2.30
   6  -2   3    6.10    4.80
  -7   2  -3   13.40    5.20
   7  -2   3   22.20    6.70
  -8   2  -3   19.50    7.60
   8  -2   3   15.90    8.00
   8   1  -3   18.90    6.70
   8   1  -3   21.50    6.60
  -8  -1   3   32.80    6.90
  -8  -1   3   29.80    6.10
   7   1  -3  205.68   12.20
   7   1  -3  205.38   11.50
  -7  -1   3  223.38   12.10
  -7  -1   3  224.48   10.80
   6   1  -3    0.90    4.00
   6   1  -3    0.80    3.10
  -6  -1   3    4.20    3.90
  -6  -1   3    6.80    3.30
   5   1  -3   19.70    3.40
   5   1  -3   17.60    3.50
   5   1  -3   13.60    3.40
  -5  -1   3   15.00    3.50
  -5  -1   3   16.80    3.00
   4   1  -3    0.00    2.00
   4   1  -3    0.90    2.00
   4   1  -3   -0.20    2.30
  -4  -1   3    0.90    2.20
  -4  -1   3    2.10    1.90
   3   1  -3  491.65   14.30
   3   1  -3  511.45   14.20
   3   1  -3  491.05   15.20
   3   1  -3  445.46   15.80
  -3  -1   3  508.25   15.50
  -3  -1   3  484.45   15.00
   2   1  -3  216.68    7.70
   2   1  -3  224.28    7.10
   2   1  -3  227.48    8.10
   2   1  -3  226.68    7.20
  -2  -1   3  227.88    7.70
  -2  -1   3  234.18    8.30
  -2  -1   3  233.48    7.20
   1   1  -3 3621.54   89.99
   1   1  -3 3567.94   90.49
   1   1  -3 3456.35   90.29
  -1  -1   3 3680.53   89.89
  -1  -1   3 3521.15   90.59
  -1  -1   3 3629.14   90.29
   0   1  -3 5037.50  130.99
   0   1  -3 5351.06  130.49
   0   1  -3 5364.96  132.49
   0  -1   3 5203.28  130.59
   0  -1   3 5207.38  131.89
   0  -1   3 5120.89  130.99
  -1   1  -3 2076.99   54.69
  -1   1  -3 2147.59   55.19
   1  -1   3 2211.98   54.89
   1  -1   3 2057.09   55.19
   1  -1   3 2166.08   55.29
   1  -1   3 2128.29   53.69
  -2   1  -3  614.64   18.30
  -2   1  -3  634.04   18.60
   2  -1   3  639.94   18.30
   2  -1   3  631.94   15.90
   2  -1   3  623.94   18.70
  -3   1  -3  946.11   26.90
   3  -1   3  929.71   26.70
   3  -1   3  945.11   27.40
  -4   1  -3   29.60    4.20
   4  -1   3   32.80    5.00
  -5   1  -3    1.30    3.00
   5  -1   3    2.20    3.70
  -6   1  -3  226.08   11.30
   6  -1   3  205.78   12.40
  -7   1  -3  171.48   11.30
   7  -1   3  190.38   13.10
  -8   1  -3   28.20    7.30
   8  -1   3   10.80    7.70
   8   0  -3    3.00    5.10
   8   0  -3    9.10    6.30
  -8   0   3    0.10    5.40
  -8   0   3    6.60    5.00
   7   0  -3   -2.90    3.80
   7   0  -3    5.70    4.70
  -7   0   3    4.80    4.60
  -7   0   3    6.80    4.10
   6   0  -3   91.09    8.80
  -6   0   3  103.79    7.70
  -6   0   3  104.59    6.40
   5   0  -3  337.97   11.60
   5   0  -3  346.87   13.40
  -5   0   3  351.66   12.90
   4   0  -3    7.50    1.90
   4   0  -3    4.10    2.20
  -4   0   3    4.20    2.40
  -4   0   3    1.50    1.60
   3   0  -3 2427.46   62.19
   3   0  -3 2352.96   61.79
   3   0  -3 2421.66   60.29
  -3   0   3 2337.17   61.89
  -3   0   3 2445.46   60.29
  -3   0   3 2294.07   61.89
   2   0  -3 6514.65  165.58
   2   0  -3 6653.03  165.48
   2   0  -3 6739.73  165.68
  -2   0   3 6641.74  165.68
  -2   0   3 6455.25  165.58
   1   0  -3  341.77    8.90
   1   0  -3  317.07   10.20
   1   0  -3  334.97   10.20
  -1   0   3  327.57   10.10
  -1   0   3  344.97    8.90
  -1   0   3  337.77   10.30
   0   0  -3 2387.06   61.39
   0   0  -3 2403.66   60.49
   0   0  -3 2470.55   60.89
   0   0   3 2388.96   61.29
   0   0   3 2337.47   60.49
   0   0   3 2380.66   60.39
  -1   0  -3 1471.05   39.60
  -1   0  -3 1506.45   38.60
  -1   0  -3 1569.04   40.40
   1   0   3 1491.75   38.90
   1   0   3 1551.94   38.60
   1   0   3 1567.74   39.80
   1   0   3 1577.04   40.50
   1   0   3 1467.45   40.30
  -2   0  -3    4.40    1.80
  -2   0  -3    1.10    1.50
   2   0   3    1.60    1.60
   2   0   3    2.30    1.80
   2   0   3    1.40    0.50
  -3   0  -3    2.00    2.10
  -3   0  -3   -0.20    1.90
   3   0   3   -1.60    2.00
   3   0   3   -1.50    2.20
  -4   0  -3  612.84   19.50
  -4   0  -3  596.94   15.70
   4   0   3  624.74   20.40
   4   0   3  602.94   15.60
  -5   0  -3  362.26   14.00
  -5   0  -3  339.47    9.90
   5   0   3  361.16   14.90
  -6   0  -3    9.90    2.80
  -6   0  -3   12.60    4.40
   6   0   3    6.20    4.70
  -7   0  -3  152.08   16.20
   7   0   3  149.09   12.40
  -8   0  -3   62.39    9.90
   8   0   3   44.90    9.50
   9  -1  -3   18.20    8.30
   8  -1  -3   13.50    6.60
  -8   1   3   14.60    4.80
  -8   1   3   22.80    6.00
   7  -1  -3   -0.10    5.30
  -7   1   3   -1.60    4.20
  -7   1   3   -1.30    3.40
   6  -1  -3   26.00    4.90
   6  -1  -3   21.30    4.00
  -6   1   3   16.20    3.90
  -6   1   3   20.50    3.50
   5  -1  -3  799.22   24.80
   5  -1  -3  769.72   21.90
  -5   1   3  787.42   22.00
  -5   1   3  767.32   23.50
   4  -1  -3 1266.67   32.80
   4  -1  -3 1262.47   35.40
  -4   1   3 1250.67   34.70
  -4   1   3 1236.98   32.80
   3  -1  -3   -0.40    1.50
   3  -1  -3   -2.70    1.80
  -3   1   3    1.20    1.90
  -3   1   3    1.10    1.50
  -3   1   3    0.70    0.80
   2  -1  -3 3962.50  100.59
   2  -1  -3 3981.70  100.79
  -2   1   3 3964.20  100.69
  -2   1   3 3961.40  100.69
   1  -1  -3 1740.53   46.00
   1  -1  -3 1785.82   46.30
  -1   1   3 1807.62   46.20
  -1   1   3 1735.13   46.10
  -1   1   3 1779.02   44.60
  -1   1   3 1824.12   44.60
   0  -1  -3  117.39    4.30
   0  -1  -3  117.29    4.50
   0  -1  -3  119.69    5.10
   0   1   3  115.49    4.50
   0   1   3  112.99    4.50
   0   1   3  120.79    5.10
  -1  -1  -3   85.69    3.60
  -1  -1  -3   90.79    4.60
  -1  -1  -3   83.49    4.10
   1   1   3   93.29    4.60
   1   1   3   89.89    4.10
   1   1   3   90.39    3.60
   1   1   3   84.09    3.50
   1   1   3   89.99    4.80
  -2  -1  -3 1105.69   28.40
  -2  -1  -3 1087.69   30.20
   2   1   3 1041.40   30.10
   2   1   3 1078.19   30.00
   2   1   3 1108.89   30.40
   2   1   3 1128.69   29.20
  -3  -1  -3  629.04   17.00
  -3  -1  -3  634.04   19.30
   3   1   3  619.54   19.60
  -4  -1  -3  201.88    9.40
  -4  -1  -3  201.88    6.80
   4   1   3  213.18    6.80
   4   1   3  206.88    9.80
  -5  -1  -3  711.13   23.00
  -5  -1  -3  665.53   19.00
   5   1   3  685.23   18.80
   5   1   3  690.13   23.30
  -6  -1  -3  189.68    7.50
  -6  -1  -3  190.88   10.90
   6   1   3  199.58   11.70
  -7  -1  -3   22.30    6.00
   7   1   3   18.20    6.60
  -8  -1  -3    5.70    6.70
   8   1   3    9.20    8.40
   8  -2  -3   30.50    7.80
  -8   2   3   19.50    5.80
   7  -2  -3  245.48   13.60
  -7   2   3  248.98   10.60
  -7   2   3  248.98   12.20
   6  -2  -3  173.88    8.40
   6  -2  -3  193.58   10.70
  -6   2   3  182.38    9.80
  -6   2   3  189.38    8.30
   5  -2  -3  331.47   13.50
   5  -2  -3  325.17   10.80
  -5   2   3  336.37   12.80
  -5   2   3  331.97   10.90
   4  -2  -3 2280.27   58.19
   4  -2  -3 2338.27   61.09
  -4   2   3 2198.28   60.19
  -4   2   3 2290.67   58.19
   3  -2  -3  175.68    7.60
   3  -2  -3  184.98    5.70
   3  -2  -3  170.58    7.40
  -3   2   3  172.08    7.50
  -3   2   3  159.28    7.40
  -3   2   3  170.98    7.30
   2  -2  -3    0.30    0.90
   2  -2  -3   -0.50    2.00
  -2   2   3    0.70    0.90
  -2   2   3    0.70    1.80
  -2   2   3    0.40    1.40
   1  -2  -3    3.70    1.50
  -1   2   3    2.30    1.00
  -1   2   3    4.40    1.70
  -1   2   3    4.40    1.70
  -1   2   3    2.70    1.40
   0  -2  -3  397.76   12.30
   0  -2  -3  381.16   11.70
   0  -2  -3  406.26   12.20
   0   2   3  402.66   11.80
   0   2   3  397.06   12.00
   0   2   3  382.96   12.10
   0   2   3  385.56   11.80
   0   2   3  407.96   12.20
  -1  -2  -3  321.97   10.20
  -1  -2  -3  319.57   10.80
  -1  -2  -3  317.37   10.50
   1   2   3  317.67   10.60
   1   2   3  325.17   10.60
   1   2   3  314.97   10.20
   1   2   3  318.47   10.40
  -2  -2  -3 1603.54   42.50
  -2  -2  -3 1616.24   43.60
  -2  -2  -3 1704.33   43.60
   2   2   3 1603.94   43.60
   2   2   3 1575.44   43.50
   2   2   3 1691.53   43.70
   2   2   3 1567.34   42.50
  -3  -2  -3 2440.46   64.19
  -3  -2  -3 2329.67   63.69
  -3  -2  -3 2444.96   62.19
   3   2   3 2433.26   62.39
   3   2   3 2430.96   64.09
  -4  -2  -3  241.88   11.00
  -4  -2  -3  235.58    8.80
   4   2   3  253.37    9.10
   4   2   3  242.18   11.10
  -5  -2  -3   50.59    6.40
  -5  -2  -3   47.50    4.70
   5   2   3   39.80    4.90
   5   2   3   38.90    6.20
  -6  -2  -3   61.69    7.80
  -7  -2  -3   -7.20    5.30
   7   2   3    9.90    6.30
  -8  -2  -3   13.50    7.60
   8   2   3   -9.70    8.50
   8  -3  -3    6.90    6.70
  -8   3   3    6.60   10.20
   7  -3  -3  229.18   13.50
  -7   3   3  202.88   10.30
  -7   3   3  227.18   12.10
   6  -3  -3  621.14   19.60
   6  -3  -3  677.03   23.10
  -6   3   3  647.84   19.70
  -6   3   3  639.24   21.60
   5  -3  -3  139.29    8.70
   5  -3  -3  141.89    6.70
  -5   3   3  147.59    6.60
  -5   3   3  149.19    8.50
   4  -3  -3   49.70    5.10
   4  -3  -3   57.39    3.90
  -4   3   3   45.20    3.40
  -4   3   3   52.69    5.40
   3  -3  -3   16.30    2.20
   3  -3  -3   17.70    2.90
  -3   3   3   15.40    2.50
  -3   3   3   20.40    3.30
   2  -3  -3  220.98    8.50
   2  -3  -3  219.78    7.30
  -2   3   3  211.08    8.70
  -2   3   3  217.58    8.30
  -2   3   3  211.28    8.80
  -2   3   3  225.28    7.60
   1  -3  -3    2.90    2.00
   1  -3  -3   -0.70    1.50
   1  -3  -3    2.70    1.60
  -1   3   3    4.00    2.00
  -1   3   3    0.30    1.40
  -1   3   3   -0.30    2.20
  -1   3   3    4.40    1.60
  -1   3   3    1.80    1.50
   0  -3  -3 2724.13   68.49
   0  -3  -3 2533.95   67.69
   0   3   3 2625.14   67.89
   0   3   3 2632.14   68.19
   0   3   3 2647.14   67.49
   0   3   3 2605.24   67.79
  -1  -3  -3 1981.60   51.59
  -1  -3  -3 1897.61   51.59
  -1  -3  -3 1984.70   51.89
   1   3   3 1985.40   51.79
   1   3   3 1985.00   51.99
   1   3   3 1964.00   51.49
   1   3   3 1936.01   51.19
   1   3   3 1924.11   51.79
  -2  -3  -3   58.79    4.50
  -2  -3  -3   54.49    4.90
   2   3   3   50.59    4.50
   2   3   3   53.29    4.50
   2   3   3   42.20    4.60
  -3  -3  -3  461.95   14.70
  -3  -3  -3  447.66   15.20
  -3  -3  -3  448.66   15.90
   3   3   3  456.25   15.30
   3   3   3  463.85   16.20
   3   3   3  430.46   15.30
   3   3   3  479.55   15.70
  -4  -3  -3  244.38   10.00
  -4  -3  -3  251.17   11.50
   4   3   3  246.18   11.40
   4   3   3  252.67   10.60
  -5  -3  -3    6.10    3.20
  -5  -3  -3   -0.30    4.00
   5   3   3    4.10    4.60
   5   3   3    5.20    4.10
  -6  -3  -3    2.30    4.50
  -6  -3  -3    1.00    3.70
   6   3   3   -5.40    5.20
   6   3   3   -8.00    4.60
  -7  -3  -3   40.80    8.30
   7   3   3   26.00    7.90
   7   3   3   23.60    6.90
   8   3   3   13.40    8.70
   8   3   3   15.50    8.20
   8  -4  -3  130.39   13.30
  -8   4   3  140.49   12.30
   7  -4  -3   -3.10    5.30
  -7   4   3    8.50    4.20
  -7   4   3   -4.90    4.80
   6  -4  -3  113.99    9.40
  -6   4   3  122.79    7.50
  -6   4   3  123.19    9.30
   5  -4  -3   43.80    6.40
   5  -4  -3   40.50    5.50
  -5   4   3   44.50    6.80
   4  -4  -3   18.60    3.70
   4  -4  -3   20.40    3.30
  -4   4   3   21.40    3.90
  -4   4   3   19.60    4.60
   3  -4  -3  180.58    7.20
   3  -4  -3  174.18    8.00
  -3   4   3  178.68    7.50
  -3   4   3  172.28    8.70
   2  -4  -3 2045.30   53.99
   2  -4  -3 2073.99   54.69
   2  -4  -3 2079.19   55.69
  -2   4   3 2071.29   55.79
  -2   4   3 2110.59   54.39
  -2   4   3 2030.00   54.49
   1  -4  -3 2184.18   57.29
   1  -4  -3 2215.28   58.59
  -1   4   3 2124.09   57.59
  -1   4   3 2268.87   58.79
  -1   4   3 2180.98   56.99
  -1   4   3 2153.18   57.29
   0  -4  -3  123.29    6.70
   0  -4  -3  124.19    6.80
   0  -4  -3  139.59    6.20
   0   4   3  114.79    6.20
   0   4   3  118.39    6.20
   0   4   3  118.69    5.50
  -1  -4  -3 1247.28   35.30
   1   4   3 1265.27   33.90
   1   4   3 1235.28   35.30
   1   4   3 1271.47   34.30
  -2  -4  -3  392.36   14.10
  -2  -4  -3  398.56   14.40
   2   4   3  382.66   14.40
   2   4   3  397.56   13.20
  -3  -4  -3   50.69    5.60
  -3  -4  -3   59.29    6.00
   3   4   3   51.59    5.90
   3   4   3   40.90    5.30
   3   4   3   32.80    4.60
  -4  -4  -3   15.20    4.60
   4   4   3   19.00    4.10
   4   4   3   19.80    4.90
  -5  -4  -3   46.50    7.50
  -5  -4  -3   63.79    7.20
   5   4   3   56.59    8.20
   5   4   3   64.19    8.10
  -6  -4  -3   20.40    5.10
  -6  -4  -3   13.40    6.10
   6   4   3   21.90    6.60
   6   4   3   17.70    5.90
  -7  -4  -3   12.40    6.90
   7   4   3    7.60    8.00
   7   4   3    4.80    7.30
   8  -5  -3   29.20    9.60
  -8   5   3   37.60    8.30
   7  -5  -3   13.50    7.60
  -7   5   3   10.40    6.10
  -6   5   3    4.30    4.00
  -6   5   3    8.20    5.20
   5  -5  -3   70.79    7.40
  -5   5   3   81.49    6.70
  -5   5   3   85.09    8.70
   4  -5  -3  693.63   22.20
   4  -5  -3  643.74   20.90
  -4   5   3  699.63   21.10
  -4   5   3  718.03   23.40
   3  -5  -3  268.47   12.10
   3  -5  -3  245.28   10.30
   3  -5  -3  273.57   11.10
  -3   5   3  254.67   10.30
  -3   5   3  278.77   11.90
   2  -5  -3  287.57   11.40
   2  -5  -3  304.87   11.20
   2  -5  -3  309.97   12.70
  -2   5   3  301.67   12.70
  -2   5   3  289.37   11.10
  -2   5   3  305.47   11.60
   1  -5  -3 1808.72   50.59
   1  -5  -3 1840.92   48.70
  -1   5   3 1862.41   49.60
  -1   5   3 1793.82   48.20
   0  -5  -3  560.04   17.20
   0  -5  -3  563.14   19.00
   0   5   3  559.84   16.60
   0   5   3  546.25   18.30
  -1  -5  -3   -4.20    2.50
   1   5   3   -0.50    2.10
   1   5   3    1.40    3.10
   1   5   3   -0.90    2.10
  -2  -5  -3   -1.60    3.50
   2   5   3    9.50    3.90
   2   5   3    5.30    2.80
  -3  -5  -3   10.30    4.00
   3   5   3    3.70    3.50
   3   5   3    7.20    3.90
   3   5   3    2.40    2.90
  -4  -5  -3  107.09    9.20
   4   5   3   83.49    8.00
   4   5   3   89.39    8.60
  -5  -5  -3   58.39    8.60
  -5  -5  -3   55.09    8.30
   5   5   3   37.90    7.90
   5   5   3   36.80    6.00
  -6  -5  -3   74.49   10.10
  -6  -5  -3   96.79   11.30
   6   5   3   93.19   10.80
   6   5   3   67.89   10.00
   7  -6  -3   32.80    8.30
  -7   6   3   51.59    8.50
   6  -6  -3  121.39   12.00
  -6   6   3  124.09    9.30
  -6   6   3  147.79   12.00
   5  -6  -3   36.40    5.90
  -5   6   3   34.50    7.50
  -5   6   3   47.10    6.90
   4  -6  -3  362.26   14.40
  -4   6   3  339.17   15.80
  -4   6   3  344.47   13.60
   3  -6  -3  944.11   28.50
   3  -6  -3  961.60   30.60
  -3   6   3  969.10   30.70
  -3   6   3  956.50   28.90
   2  -6  -3  162.88   10.10
   2  -6  -3  179.38    8.70
  -2   6   3  171.88   10.40
  -2   6   3  182.78    9.50
   1  -6  -3   28.70    5.20
   1  -6  -3   40.40    5.00
  -1   6   3   31.40    4.70
  -1   6   3   27.90    4.50
   0  -6  -3   52.09    8.10
   0  -6  -3   33.60    5.60
   0   6   3   28.70    4.30
  -1  -6  -3   18.40    4.90
   1   6   3   18.30    3.20
   1   6   3   23.30    5.10
   1   6   3   18.80    3.20
  -2  -6  -3    5.30    4.70
   2   6   3    8.10    3.10
   2   6   3   11.80    4.50
  -3  -6  -3  158.58   11.10
   3   6   3  155.08    8.20
   3   6   3  171.08   10.80
  -4  -6  -3  190.18   12.30
   4   6   3  190.38   12.60
   4   6   3  178.78   10.10
  -5  -6  -3    8.30    6.00
   5   6   3   -2.20    6.20
   6   6   3   15.60    8.20
   6  -7  -3  286.77   15.30
  -6   7   3  258.37   17.30
   5  -7  -3  389.16   16.90
  -5   7   3  359.06   16.10
  -5   7   3  365.26   18.50
   4  -7  -3   21.90    5.10
   4  -7  -3    9.30    5.90
  -4   7   3   10.80    5.10
  -4   7   3   20.50    5.60
   3  -7  -3   48.00    9.00
   3  -7  -3   62.19    6.90
  -3   7   3   57.29    8.80
  -3   7   3   48.10    7.50
   2  -7  -3   29.80    4.60
   2  -7  -3   20.60    5.70
  -2   7   3   24.50    5.20
  -2   7   3   20.90    5.90
   1  -7  -3   -0.50    4.70
   1  -7  -3    3.90    3.50
  -1   7   3   -2.60    3.60
   0  -7  -3   16.20    5.30
   0   7   3   28.30    6.10
  -1  -7  -3  290.87   14.50
   1   7   3  301.07   14.50
   1   7   3  286.87   10.60
  -2  -7  -3  210.08   13.40
   2   7   3  209.68   12.50
  -3  -7  -3   -4.90    6.80
   3   7   3    2.00    5.50
  -4  -7  -3   77.69   11.80
   4   7   3   90.69   11.40
  -5  -7  -3   29.10    8.70
   5   7   3   41.80    9.60
   5  -8  -3   67.49   13.60
  -5   8   3   64.79    9.50
  -5   8   3   70.59   11.30
   4  -8  -3  151.48   13.30
   4  -8  -3  155.08   10.80
  -4   8   3  107.79   11.40
  -4   8   3  147.79   13.20
   3  -8  -3    4.40    7.30
   3  -8  -3   15.40    4.90
  -3   8   3   14.40    6.10
  -3   8   3   18.30    7.10
   2  -8  -3   75.99   10.60
   2  -8  -3   81.49    7.80
  -2   8   3   72.99    9.80
  -2   8   3   72.09   10.30
   1  -8  -3  265.57   16.10
  -1   8   3  254.97   14.60
   0  -8  -3  133.19   11.80
   0   8   3  110.69   10.70
  -1  -8  -3   40.60    8.90
   1   8   3   38.40    8.00
  -2  -8  -3  196.28   15.00
   2   8   3  217.38   14.40
  -3  -8  -3   24.60    8.90
   3   8   3   29.80    7.60
   3  -9  -3   57.29   10.50
  -3   9   3   51.79    9.50
  -3   9   3   68.19   10.70
   2  -9  -3    6.90    9.10
  -2   9   3   12.40    8.60
  -2   9   3    7.40    7.00
   1  -9  -3  108.09   15.10
  -1   9   3  139.69   13.50
   0  -9  -3  181.88   16.30
   0   9   3  188.28   15.30
  -1  -9  -3   52.29   10.40
   1   9   3   37.30    8.40
  -2  -9  -3    7.10    8.80
   2   9   3    8.10    8.50
   1 -10   4  214.78   17.00
   3   9  -4  -15.30    7.50
  -3  -9   4    2.80   10.10
   2   9  -4   92.49   14.20
  -2  -9   4   74.89   11.40
   1   9  -4  223.38   15.70
  -1  -9   4  280.97   17.00
   0   9  -4   99.29   11.80
   0  -9   4   79.69   11.30
  -1   9  -4   18.90    7.30
   1  -9   4   10.80    7.60
  -2   9  -4   86.19   11.30
   2  -9   4   59.19    9.70
  -3   9  -4   12.70    7.50
   3  -9   4   -7.30    7.50
  -4   9  -4   -4.40    7.40
   4  -9   4   -2.30    7.60
   4   8  -4   37.50    9.00
  -4  -8   4   38.10    9.10
   3   8  -4  126.49   12.40
  -3  -8   4  150.08   15.00
   2   8  -4    2.90    6.00
  -2  -8   4    1.60    6.50
   1   8  -4  177.98   12.80
  -1  -8   4  191.28   13.30
   0   8  -4  207.88   13.20
   0  -8   4  205.48   14.20
  -1   8  -4   17.90    6.70
  -2   8  -4   22.00    6.20
   2  -8   4   16.90    5.90
  -3   8  -4  135.89   12.70
   3  -8   4  155.08   12.80
   3  -8   4  152.38    8.40
  -4   8  -4  130.99   12.40
   4  -8   4  140.89   12.00
   4  -8   4  156.38   10.10
  -5   8  -4   10.70    6.80
  -5   8  -4   13.30    7.70
   5  -8   4   11.00    5.90
   5  -8   4    0.40    6.40
   5   7  -4   28.20    8.20
   4   7  -4   14.30    7.00
  -4  -7   4   11.90    7.20
   3   7  -4  202.98   13.70
  -3  -7   4  207.18   13.30
   2   7  -4  227.08   12.90
  -2  -7   4  246.78   18.30
   1   7  -4   -1.90    4.10
  -1  -7   4   -0.30    4.70
   0   7  -4    8.40    4.20
   0  -7   4    1.60    4.90
  -1   7  -4  149.99   10.90
   1  -7   4  169.58   11.30
   1  -7   4  146.19    5.50
  -2   7  -4   23.30    5.70
   2  -7   4   31.50    5.80
  -3   7  -4  134.09   10.00
   3  -7   4  148.49   10.90
   3  -7   4  141.09    8.50
  -4   7  -4  593.44   22.90
   4  -7   4  597.84   20.80
   4  -7   4  589.84   21.20
  -5   7  -4  196.88   12.10
  -5   7  -4  170.58   12.70
   5  -7   4  175.48   12.20
   5  -7   4  170.88   11.10
  -6   7  -4   18.50    8.90
  -6   7  -4   -3.40    6.60
   6  -7   4    6.40    6.40
   6   6  -4   23.60    8.40
  -6  -6   4   22.80    8.10
   5   6  -4  205.28   14.20
  -5  -6   4  194.28   14.30
   4   6  -4   85.59    9.70
   3   6  -4    3.90    4.70
  -3  -6   4   12.80    5.50
   2   6  -4   23.40    5.10
  -2  -6   4   20.00    5.00
   1   6  -4   20.60    4.90
  -1  -6   4   20.50    4.90
   0   6  -4    2.70    3.70
   0  -6   4   -5.30    3.90
   0  -6   4    2.40    1.10
  -1   6  -4  588.94   20.30
   1  -6   4  554.14   19.60
   1  -6   4  563.24   16.20
   1  -6   4  562.24   16.50
  -2   6  -4  857.01   27.60
  -2   6  -4  876.71   25.10
   2  -6   4  892.51   27.20
   2  -6   4  833.32   25.00
   2  -6   4  834.52   24.80
  -3   6  -4  272.57   13.50
   3  -6   4  271.37   12.90
   3  -6   4  297.07   11.80
  -4   6  -4   79.19    8.20
   4  -6   4   66.39    7.80
   4  -6   4   72.49    7.50
  -5   6  -4  157.78    9.40
   5  -6   4  122.79    9.70
   5  -6   4  139.69    9.20
  -6   6  -4   -3.30    3.90
  -6   6  -4    8.20    5.70
   6  -6   4   16.60    7.00
  -7   6  -4   -3.20    7.20
   7  -6   4    9.20    8.50
   7   5  -4   40.80    8.70
  -7  -5   4   54.79    9.80
   6   5  -4   14.80    4.70
  -6  -5   4   -5.70    7.00
   5   5  -4   28.40    6.80
   5   5  -4   24.40    4.10
  -5  -5   4   26.00    6.50
   4   5  -4   21.20    4.90
   4   5  -4   25.90    3.50
  -4  -5   4   27.20    4.10
  -4  -5   4   23.20    4.90
   3   5  -4   11.40    4.00
   3   5  -4   17.20    2.50
  -3  -5   4   16.20    2.90
  -3  -5   4   26.10    5.00
   2   5  -4   13.10    2.00
   2   5  -4   15.90    3.90
  -2  -5   4   14.40    4.00
  -2  -5   4   12.50    2.10
   1   5  -4 1192.78   34.70
  -1  -5   4 1177.98   34.70
  -1  -5   4 1203.08   30.60
   0   5  -4 1684.93   47.10
   0  -5   4 1722.53   43.70
   0  -5   4 1650.53   46.80
   0  -5   4 1730.73   43.70
  -1   5  -4   13.40    3.70
   1  -5   4   13.30    2.60
   1  -5   4   13.50    2.50
   1  -5   4   16.50    3.60
  -2   5  -4  540.65   19.00
  -2   5  -4  575.44   17.70
   2  -5   4  555.54   17.30
   2  -5   4  560.44   18.50
  -3   5  -4  617.14   21.20
   3  -5   4  596.94   19.60
   3  -5   4  617.94   19.60
  -4   5  -4   15.70    4.10
  -4   5  -4   20.30    4.90
   4  -5   4   17.80    3.60
   4  -5   4   21.80    4.80
  -5   5  -4   -0.20    4.50
  -5   5  -4   -1.30    2.80
   5  -5   4   -3.90    4.60
   5  -5   4    2.60    3.00
  -6   5  -4   75.69    6.30
  -6   5  -4   68.89    9.20
   6  -5   4   63.09   10.00
  -7   5  -4   81.19   12.00
   7  -5   4   83.99   12.80
   7   4  -4   21.00    6.70
  -7  -4   4   32.30    7.80
   6   4  -4   15.70    5.10
   6   4  -4   20.80    5.70
  -6  -4   4    8.60    7.60
   5   4  -4   -1.20    4.10
   5   4  -4    4.10    3.00
  -5  -4   4   -0.40    4.40
   4   4  -4    3.30    3.80
   4   4  -4    2.60    2.80
  -4  -4   4   -1.00    3.10
  -4  -4   4   -0.40    3.50
   3   4  -4  648.74   18.90
   3   4  -4  662.33   21.00
  -3  -4   4  643.44   18.80
   2   4  -4  834.52   22.80
   2   4  -4  818.92   24.90
  -2  -4   4  827.82   22.50
  -2  -4   4  842.82   25.60
   1   4  -4   44.10    4.50
   1   4  -4   32.10    2.90
  -1  -4   4   30.10    2.80
  -1  -4   4   27.20    2.50
   0   4  -4 1188.38   34.30
   0   4  -4 1154.18   33.40
   0  -4   4 1168.88   31.40
   0  -4   4 1223.38   31.50
   0  -4   4 1199.28   33.50
  -1   4  -4 3913.81   98.09
  -1   4  -4 3787.62   97.19
  -1   4  -4 3790.52   98.79
   1  -4   4 3767.22   97.99
   1  -4   4 3814.32   96.99
   1  -4   4 3809.52   97.29
  -2   4  -4   28.90    4.40
  -2   4  -4   28.90    4.20
  -2   4  -4   28.70    4.30
   2  -4   4   23.40    3.40
   2  -4   4   30.10    3.90
  -3   4  -4    6.70    2.90
  -3   4  -4   -0.80    2.30
   3  -4   4   -1.60    2.50
   3  -4   4   -1.60    2.40
  -4   4  -4   93.49    5.80
  -4   4  -4   80.09    7.00
   4  -4   4   85.49    7.90
   4  -4   4   83.69    5.10
  -5   4  -4  140.89    7.00
  -5   4  -4  150.28    6.60
  -5   4  -4  139.99    9.20
   5  -4   4  157.68   10.70
  -6   4  -4   71.39    5.20
  -6   4  -4   87.99    9.90
   6  -4   4   95.29    9.70
  -7   4  -4  278.87   15.90
   7  -4   4  240.18   15.60
  -8   4  -4   46.30    9.20
   8  -4   4   56.69   10.10
   8   3  -4   19.30    7.90
   8   3  -4   21.40    8.10
  -8  -3   4   17.20    8.10
   7   3  -4   -6.60    4.50
   7   3  -4    1.50    5.20
  -7  -3   4    0.20    6.30
   6   3  -4   10.00    4.30
   6   3  -4   10.70    4.60
  -6  -3   4   11.90    5.60
   5   3  -4  169.18    9.10
   5   3  -4  167.28    8.90
  -5  -3   4  163.68    9.80
   4   3  -4  294.17   10.80
   4   3  -4  283.17   11.30
  -4  -3   4  277.17   12.00
   3   3  -4  270.17   10.40
   3   3  -4  284.77   10.60
  -3  -3   4  283.17   11.70
  -3  -3   4  285.27    9.90
  -3  -3   4  269.87   10.40
   2   3  -4 2840.32   73.29
   2   3  -4 2818.52   72.19
  -2  -3   4 2851.61   73.29
  -2  -3   4 2806.62   74.09
  -2  -3   4 2809.22   72.09
   1   3  -4  898.81   25.40
   1   3  -4  890.61   24.30
   1   3  -4  881.41   25.60
  -1  -3   4  868.11   25.60
  -1  -3   4  912.61   24.00
  -1  -3   4  892.41   25.30
   0   3  -4   58.39    3.70
   0   3  -4   56.49    4.10
   0   3  -4   62.69    4.70
   0  -3   4   58.79    3.70
   0  -3   4   58.79    3.70
   0  -3   4   55.49    4.50
  -1   3  -4    1.00    1.60
  -1   3  -4    2.40    1.80
  -1   3  -4    0.90    1.60
   1  -3   4    1.10    1.60
   1  -3   4   -1.70    1.90
   1  -3   4    4.10    2.00
   1  -3   4   -1.50    1.50
  -2   3  -4  191.18    8.10
  -2   3  -4  172.18    8.20
  -2   3  -4  177.08    6.80
   2  -3   4  171.78    7.60
   2  -3   4  177.88    7.00
  -3   3  -4    7.20    2.70
  -3   3  -4    7.20    1.90
   3  -3   4   10.30    1.90
   3  -3   4    7.30    3.00
  -4   3  -4  705.83   22.70
  -4   3  -4  699.43   19.30
  -4   3  -4  711.63   19.40
   4  -3   4  735.33   23.40
  -5   3  -4  650.23   21.90
  -5   3  -4  605.24   17.10
   5  -3   4  648.44   22.60
  -6   3  -4  105.19    9.00
   6  -3   4   95.79   10.70
  -7   3  -4   28.80    6.50
   7  -3   4   40.20    8.00
  -8   3  -4   40.50    8.60
   8  -3   4   39.80   10.50
   8   2  -4  -13.20    6.50
   8   2  -4    3.00    6.20
  -8  -2   4   -4.40    6.40
   7   2  -4   44.70    6.70
   7   2  -4   45.40    6.60
  -7  -2   4   55.89    7.50
   6   2  -4   26.60    5.40
   6   2  -4   30.00    4.80
  -6  -2   4   27.10    5.40
   5   2  -4  788.02   24.60
   5   2  -4  785.02   23.80
  -5  -2   4  804.12   25.40
   4   2  -4 1320.77   36.70
   4   2  -4 1321.97   35.90
   4   2  -4 1286.67   35.80
  -4  -2   4 1314.27   37.30
   3   2  -4  245.78    9.10
   3   2  -4  246.38    8.90
   3   2  -4  253.97    9.00
  -3  -2   4  256.87    9.10
  -3  -2   4  252.77    9.20
  -3  -2   4  231.08    9.90
   2   2  -4  330.37   10.40
   2   2  -4  319.57   10.40
   2   2  -4  320.67   11.20
  -2  -2   4  326.97   10.40
  -2  -2   4  312.27   11.30
  -2  -2   4  311.97   10.30
   1   2  -4   89.29    4.50
   1   2  -4   97.09    4.60
   1   2  -4   98.99    5.00
  -1  -2   4  102.69    4.60
  -1  -2   4   99.79    4.70
   0   2  -4  105.39    4.80
   0   2  -4  104.79    4.90
   0   2  -4  104.29    5.00
   0  -2   4  104.79    5.00
   0  -2   4  106.29    5.00
   0  -2   4  102.69    5.00
   0  -2   4  103.69    4.90
  -1   2  -4   22.10    2.30
  -1   2  -4   21.20    2.90
  -1   2  -4   19.50    3.10
   1  -2   4   18.40    2.40
   1  -2   4   15.10    2.40
   1  -2   4   21.60    3.40
   1  -2   4   20.80    2.90
  -2   2  -4 2248.48   60.29
  -2   2  -4 2396.16   60.79
   2  -2   4 2260.67   60.19
   2  -2   4 2298.07   58.39
   2  -2   4 2288.47   60.59
  -3   2  -4 2134.89   56.89
  -3   2  -4 2321.17   60.19
   3  -2   4 2336.87   56.69
   3  -2   4 2247.48   60.59
  -4   2  -4    2.80    3.10
   4  -2   4    5.20    3.50
  -5   2  -4  302.67   12.90
   5  -2   4  295.87   14.10
  -6   2  -4  192.88   11.40
   6  -2   4  203.98   12.40
  -7   2  -4    4.90    5.80
   7  -2   4   -2.30    6.10
   8  -2   4    8.10    8.20
   8   1  -4   -3.30    4.80
   8   1  -4    1.00    6.40
  -8  -1   4    6.00    6.20
   7   1  -4  155.28    9.60
   7   1  -4  147.29   16.60
  -7  -1   4  161.68   11.40
   6   1  -4  681.43   23.20
   6   1  -4  664.23   21.10
  -6  -1   4  704.53   23.00
   5   1  -4    2.90    2.80
   5   1  -4    3.10    3.00
   5   1  -4    5.50    2.70
  -5  -1   4    5.40    3.60
   4   1  -4  542.55   16.30
   4   1  -4  563.74   16.30
   4   1  -4  544.65   17.80
  -4  -1   4  578.94   18.30
   3   1  -4  434.56   12.50
   3   1  -4  411.96   12.40
   3   1  -4  431.56   13.80
  -3  -1   4  427.66   13.80
  -3  -1   4  420.66   14.10
   2   1  -4   79.29    3.60
   2   1  -4   84.29    4.80
   2   1  -4   80.29    4.40
  -2  -1   4   86.49    5.00
  -2  -1   4   85.89    4.70
  -2  -1   4   89.09    3.70
   1   1  -4  185.48    7.00
   1   1  -4  184.88    6.20
   1   1  -4  194.38    7.00
  -1  -1   4  196.78    6.30
  -1  -1   4  186.28    7.10
  -1  -1   4  188.18    7.00
   0   1  -4 3317.37   83.69
   0   1  -4 3185.48   84.39
   0   1  -4 3361.06   83.59
   0  -1   4 3314.77   84.49
   0  -1   4 3393.26   83.69
   0  -1   4 3271.57   83.69
  -1   1  -4 2277.97   57.69
  -1   1  -4 2142.89   58.29
   1  -1   4 2221.68   56.49
   1  -1   4 2233.38   58.39
   1  -1   4 2218.38   58.39
   1  -1   4 2296.97   57.69
  -2   1  -4  170.38    5.00
  -2   1  -4  182.78    7.80
  -2   1  -4  165.08    7.10
   2  -1   4  175.88    7.80
   2  -1   4  164.18    7.10
   2  -1   4  182.88    7.80
   2  -1   4  176.88    5.10
  -3   1  -4 1826.32   49.70
   3  -1   4 1861.31   50.39
  -4   1  -4  735.43   23.00
   4  -1   4  733.13   23.80
  -5   1  -4   11.00    4.20
   5  -1   4    8.90    4.70
  -6   1  -4   14.50    5.20
   6  -1   4   18.80    5.80
  -7   1  -4   55.69    8.60
   7  -1   4   37.60    7.60
  -8   1  -4    6.50    6.40
   8  -1   4   12.20    7.60
   8   0  -4   35.80    7.90
  -8   0   4   35.40    7.90
   7   0  -4   18.00    4.50
   7   0  -4   19.70    7.40
  -7   0   4   22.80    4.10
  -7   0   4   22.20    5.30
   6   0  -4  145.89    7.50
   6   0  -4  149.79    9.60
   6   0  -4  133.59    7.40
  -6   0   4  154.78    9.50
  -6   0   4  147.39    7.30
   5   0  -4  212.08    7.90
   5   0  -4  199.98    7.90
   5   0  -4  209.38   10.50
  -5   0   4  198.98    7.80
  -5   0   4  206.68    9.60
   4   0  -4   -1.40    2.10
   4   0  -4    1.70    1.50
   4   0  -4    3.40    1.50
  -4   0   4   -2.50    2.30
   3   0  -4  453.15   14.40
   3   0  -4  419.56   14.20
   3   0  -4  452.15   12.00
  -3   0   4  447.26   14.40
  -3   0   4  440.66   14.40
   2   0  -4  620.74   15.50
   2   0  -4  629.84   15.50
   2   0  -4  607.74   17.80
  -2   0   4  550.94   17.80
  -2   0   4  611.34   17.90
   1   0  -4 1579.24   40.40
   1   0  -4 1623.64   41.90
   1   0  -4 1582.24   42.30
  -1   0   4 1578.04   40.50
  -1   0   4 1624.54   42.00
  -1   0   4 1618.04   42.30
   0   0  -4 1378.66   36.90
   0   0  -4 1399.86   38.20
   0   0  -4 1487.55   37.20
   0   0   4 1438.96   37.10
   0   0   4 1451.85   36.90
   0   0   4 1397.86   38.10
  -1   0  -4 4140.59  105.19
  -1   0  -4 4040.70  106.19
   1   0   4 4034.00  106.09
   1   0   4 4269.57  105.19
   1   0   4 4367.66  104.19
   1   0   4 4096.99  106.19
  -2   0  -4 1106.39   30.20
   2   0   4 1058.29   29.80
   2   0   4 1126.99   27.50
   2   0   4 1116.69   27.60
   2   0   4 1047.10   30.50
   2   0   4 1042.80   30.60
  -3   0  -4   23.70    3.80
   3   0   4   29.30    4.60
  -4   0  -4   94.09    6.70
   4   0   4   97.29    7.30
  -5   0  -4   17.00    4.50
   5   0   4   16.60    4.70
  -6   0  -4    7.10    4.60
   6   0   4    3.60    5.20
  -7   0  -4   63.89    9.40
   7   0   4   91.09   11.20
  -8   0  -4   85.59   10.90
   8   0   4  102.39   15.80
   8  -1  -4  125.39   12.20
  -8   1   4   89.59   11.20
   7  -1  -4   25.60    6.00
   7  -1  -4   29.00    4.40
  -7   1   4   32.10    4.40
  -7   1   4   33.40    6.00
   6  -1  -4    7.00    3.10
   6  -1  -4    3.50    4.00
  -6   1   4    1.10    3.70
  -6   1   4   11.90    3.70
   5  -1  -4   48.00    6.30
   5  -1  -4   56.59    3.90
  -5   1   4   49.99    3.80
  -5   1   4   56.49    5.90
   4  -1  -4  557.34   14.80
   4  -1  -4  584.34   18.50
  -4   1   4  512.95   17.40
  -4   1   4  543.85   16.40
   3  -1  -4   78.89    5.40
  -3   1   4   76.29    4.90
   2  -1  -4 2490.45   65.39
   2  -1  -4 2597.84   65.79
  -2   1   4 2436.86   65.39
  -2   1   4 2572.24   65.69
   1  -1  -4 5655.83  141.89
   1  -1  -4 5733.63  142.19
   1  -1  -4 5465.95  142.49
  -1   1   4 5703.33  142.09
  -1   1   4 5848.21  142.39
  -1   1   4 5476.85  142.49
   0  -1  -4  960.80   26.70
   0  -1  -4  984.10   25.80
   0  -1  -4  931.91   25.30
   0   1   4  928.01   25.70
   0   1   4  937.71   25.30
   0   1   4  993.50   25.80
   0   1   4  957.40   26.60
  -1  -1  -4  339.47   10.80
  -1  -1  -4  351.16   11.90
   1   1   4  337.77   10.10
   1   1   4  322.47   10.70
   1   1   4  337.67   10.10
   1   1   4  346.07   11.70
   1   1   4  343.67   11.70
  -2  -1  -4  202.48    8.20
  -2  -1  -4  202.18    8.70
  -2  -1  -4  209.98    6.70
   2   1   4  210.68    6.90
   2   1   4  205.98    8.30
   2   1   4  208.28    6.60
   2   1   4  217.88    8.90
   2   1   4  216.28    8.80
  -3  -1  -4   25.40    3.80
  -3  -1  -4   23.30    2.20
   3   1   4   25.10    3.80
  -4  -1  -4   -4.80    2.50
   4   1   4    3.70    3.20
   4   1   4   -1.00    1.70
  -5  -1  -4  225.08   11.50
   5   1   4  234.88   12.20
  -6  -1  -4  176.88   10.80
   6   1   4  168.48   11.70
  -7  -1  -4   -1.40    5.70
   7   1   4    2.00    6.30
  -8  -1  -4   17.10    7.50
   8   1   4   22.80    9.10
   8  -2  -4   21.20    7.80
  -8   2   4    6.70    6.10
   7  -2  -4    4.10    5.30
  -7   2   4   -4.20    4.20
  -7   2   4   -4.00    3.10
   6  -2  -4   85.39    6.50
   6  -2  -4   88.79    8.40
  -6   2   4   82.79    5.50
  -6   2   4   80.59    7.80
   5  -2  -4    2.90    3.70
   5  -2  -4    3.90    2.00
  -5   2   4    0.70    1.80
  -5   2   4    4.20    3.60
   4  -2  -4 1373.56   39.40
   4  -2  -4 1404.66   35.80
  -4   2   4 1412.56   39.10
   3  -2  -4 2502.75   61.09
   3  -2  -4 2373.86   64.39
  -3   2   4 2398.96   64.29
  -3   2   4 2486.15   60.99
   2  -2  -4  118.89    6.00
   2  -2  -4  116.19    5.90
  -2   2   4  115.29    4.00
  -2   2   4  113.49    5.80
  -2   2   4  116.39    3.90
  -2   2   4  125.19    6.10
  -2   2   4  119.49    6.30
   1  -2  -4 1550.14   40.90
  -1   2   4 1534.55   39.40
  -1   2   4 1496.85   40.80
  -1   2   4 1540.45   40.90
  -1   2   4 1473.75   40.70
  -1   2   4 1573.24   39.30
   0  -2  -4  168.08    6.80
   0  -2  -4  175.18    7.30
   0  -2  -4  164.68    6.40
   0   2   4  173.88    6.50
   0   2   4  172.78    6.90
   0   2   4  171.78    7.20
   0   2   4  174.88    6.50
   0   2   4  165.98    6.70
  -1  -2  -4  215.28    7.80
   1   2   4  207.28    7.70
   1   2   4  212.28    7.70
   1   2   4  209.88    8.40
   1   2   4  216.38    8.10
  -2  -2  -4   87.39    4.60
  -2  -2  -4   76.19    5.20
   2   2   4   82.59    4.60
   2   2   4   86.99    5.50
   2   2   4   80.29    5.80
   2   2   4   84.79    5.80
  -3  -2  -4  704.03   22.10
  -3  -2  -4  701.13   19.90
   3   2   4  687.73   20.10
   3   2   4  730.63   22.40
  -4  -2  -4  351.06   11.40
  -4  -2  -4  365.46   14.30
   4   2   4  351.66   14.30
   4   2   4  354.76   11.60
  -5  -2  -4    1.70    3.80
  -5  -2  -4    0.10    2.30
   5   2   4   -1.40    2.50
   5   2   4   -3.70    4.50
  -6  -2  -4  135.69    7.10
   6   2   4  148.29   11.10
  -7  -2  -4   39.70    8.80
   7   2   4   53.29    8.50
  -8  -2  -4   -5.40    7.10
   8   2   4   20.50    8.30
   8  -3  -4   14.30    8.20
  -8   3   4    9.60    6.60
   7  -3  -4   13.50    5.70
  -7   3   4   19.90    5.60
   6  -3  -4  555.14   20.90
  -6   3   4  516.15   19.20
  -6   3   4  546.65   16.50
   5  -3  -4  576.54   20.30
   5  -3  -4  578.44   16.80
  -5   3   4  579.54   16.70
  -5   3   4  589.24   20.10
   4  -3  -4   16.30    3.80
   4  -3  -4   18.30    2.90
  -4   3   4   21.10    4.00
  -4   3   4   22.40    2.80
   3  -3  -4 1268.67   35.60
   3  -3  -4 1264.47   32.90
  -3   3   4 1218.08   35.60
  -3   3   4 1298.37   33.00
   2  -3  -4  510.05   14.20
   2  -3  -4  485.35   15.80
  -2   3   4  500.25   14.20
  -2   3   4  493.65   16.20
  -2   3   4  510.05   14.20
  -2   3   4  460.65   15.70
   1  -3  -4   -0.60    1.90
   1  -3  -4   -2.40    1.70
  -1   3   4    0.60    1.50
  -1   3   4   -1.80    1.40
  -1   3   4    0.40    2.00
  -1   3   4   -2.30    1.70
   0  -3  -4    5.40    2.80
   0  -3  -4    1.50    2.00
   0   3   4    0.50    2.00
   0   3   4    3.00    2.20
   0   3   4    3.50    2.20
   0   3   4    1.00    1.80
   0   3   4    4.60    1.90
  -1  -3  -4 1075.99   31.00
  -1  -3  -4 1144.99   31.00
  -1  -3  -4 1091.39   31.30
   1   3   4 1133.39   31.00
   1   3   4 1097.89   30.90
   1   3   4 1126.99   31.20
   1   3   4 1103.09   31.10
   1   3   4 1101.09   31.20
  -2  -3  -4  280.17   10.50
  -2  -3  -4  299.37   11.40
   2   3   4  282.17   11.00
   2   3   4  289.67   11.50
   2   3   4  278.87   11.00
   2   3   4  291.27   10.90
  -3  -3  -4  192.78    9.40
  -3  -3  -4  191.68    8.30
   3   3   4  197.68    9.70
   3   3   4  177.18    8.70
  -4  -3  -4 1101.49   33.60
  -4  -3  -4 1117.09   31.20
   4   3   4 1138.49   33.60
   4   3   4 1083.29   31.50
  -5  -3  -4   74.09    6.30
  -5  -3  -4   78.39    8.20
   5   3   4   77.39    9.10
  -6  -3  -4   10.40    5.30
  -6  -3  -4   10.20    3.60
   6   3   4    6.20    5.80
  -7  -3  -4    4.80    6.50
   7   3   4   14.30    7.10
   7   3   4    1.20    6.50
   8  -4  -4   96.39   14.30
  -8   4   4   92.89   12.60
   7  -4  -4   43.60    7.80
  -7   4   4   59.49    7.80
  -6   4   4   85.19    8.00
  -6   4   4   93.99    9.30
   5  -4  -4  789.62   25.90
   5  -4  -4  758.32   22.30
  -5   4   4  802.22   22.30
  -5   4   4  769.42   25.50
   4  -4  -4  255.77    9.10
   4  -4  -4  252.17   11.70
  -4   4   4  248.88    9.00
  -4   4   4  259.87   11.70
   3  -4  -4    7.60    2.80
   3  -4  -4    8.30    2.40
  -3   4   4    4.70    2.20
   2  -4  -4   55.79    5.50
   2  -4  -4   47.80    5.00
   2  -4  -4   56.59    4.50
  -2   4   4   58.69    4.40
  -2   4   4   51.69    5.40
  -2   4   4   46.60    4.20
   1  -4  -4  465.45   15.20
   1  -4  -4  455.25   15.90
  -1   4   4  476.05   14.80
  -1   4   4  447.36   15.80
  -1   4   4  472.85   14.80
  -1   4   4  455.25   14.90
   0  -4  -4  116.49    6.50
   0  -4  -4  133.09    7.20
   0   4   4  115.49    6.90
   0   4   4  120.39    6.90
   0   4   4  126.09    6.40
   0   4   4  121.09    6.30
  -1  -4  -4  617.94   19.70
  -1  -4  -4  620.74   19.40
   1   4   4  607.04   19.60
   1   4   4  620.64   18.90
   1   4   4  629.04   19.30
  -2  -4  -4 1137.09   32.20
  -2  -4  -4 1106.29   32.70
   2   4   4 1085.69   31.60
   2   4   4 1156.88   32.10
   2   4   4 1099.59   32.80
  -3  -4  -4  246.58   10.80
  -3  -4  -4  252.37   11.70
   3   4   4  253.27   12.10
   3   4   4  256.07   11.20
  -4  -4  -4  127.09    9.30
  -4  -4  -4  110.49    7.90
   4   4   4  126.59    9.30
   4   4   4  134.89    8.70
  -5  -4  -4   44.50    7.00
  -5  -4  -4   49.80    7.20
   5   4   4   42.90    7.20
   5   4   4   38.30    6.40
  -6  -4  -4    5.10    4.40
   6   4   4   -8.00    5.50
   6   4   4    2.60    6.00
  -7  -4  -4  -13.30    7.30
   7   4   4  -11.00    6.80
   7   4   4   -0.80    7.90
   7  -5  -4  198.58   15.20
  -7   5   4  169.18   13.30
   6  -5  -4   57.69    8.70
  -6   5   4   52.39    7.50
   5  -5  -4   19.90    4.60
  -5   5   4   22.80    3.80
  -5   5   4   19.70    5.20
   4  -5  -4    0.20    3.40
   4  -5  -4   -4.50    3.70
  -4   5   4    1.50    3.70
  -4   5   4    0.20    2.90
   3  -5  -4   91.29    6.60
   3  -5  -4   82.09    6.60
  -3   5   4   90.29    6.10
  -3   5   4   93.39    8.20
   2  -5  -4   20.80    3.80
   2  -5  -4   28.30    4.40
   2  -5  -4   21.80    4.30
  -2   5   4   19.00    3.50
  -2   5   4   20.40    3.80
  -2   5   4   19.40    4.20
   1  -5  -4 1143.69   33.30
   1  -5  -4 1210.28   35.20
  -1   5   4 1192.78   34.70
  -1   5   4 1199.68   35.10
  -1   5   4 1162.78   33.60
   0  -5  -4 1461.85   40.10
   0  -5  -4 1461.65   41.50
   0   5   4 1435.96   39.40
   0   5   4 1449.85   40.70
  -1  -5  -4   32.00    5.00
   1   5   4   29.30    3.90
   1   5   4   27.70    4.40
   1   5   4   22.40    3.70
  -2  -5  -4  308.07   13.00
   2   5   4  285.47   12.90
   2   5   4  306.97   11.90
   2   5   4  274.17   11.60
  -3  -5  -4   19.70    4.70
   3   5   4   19.10    4.10
   3   5   4   27.90    5.30
  -4  -5  -4   -3.10    4.30
   4   5   4   -6.90    4.10
  -5  -5  -4   -1.90    4.60
  -5  -5  -4    3.20    5.70
   5   5   4   -2.40    5.20
  -6  -5  -4   36.90    9.00
  -6  -5  -4   25.50    7.40
   6   5   4   28.30    8.70
   6   5   4   39.40    7.40
   7  -6  -4   34.30    8.30
  -7   6   4   38.10    8.70
   6  -6  -4    4.30    6.30
  -6   6   4    1.40    6.30
   5  -6  -4   18.30    5.30
  -5   6   4   21.60    5.60
  -5   6   4   21.70    4.60
   4  -6  -4   22.20    5.20
  -4   6   4   24.50    4.50
  -4   6   4   25.20    7.00
   3  -6  -4 1178.98   36.50
   3  -6  -4 1171.28   34.50
  -3   6   4 1174.08   36.60
  -3   6   4 1177.18   34.10
   2  -6  -4  317.97   14.80
   2  -6  -4  310.97   12.90
  -2   6   4  318.87   12.90
  -2   6   4  329.87   14.90
   1  -6  -4   34.30    5.80
   1  -6  -4   38.40    5.60
  -1   6   4   51.59    6.30
  -1   6   4   33.10    5.50
   0  -6  -4  518.85   19.50
   0  -6  -4  547.45   17.80
   0   6   4  535.65   19.10
   0   6   4  534.65   17.40
   0   6   4  512.05   16.80
  -1  -6  -4  185.08   11.20
   1   6   4  178.28   10.60
   1   6   4  174.78    8.50
   1   6   4  179.18    9.10
  -2  -6  -4    3.50    4.10
   2   6   4    0.00    4.00
   2   6   4   12.20    3.70
  -3  -6  -4   12.80    5.00
   3   6   4   14.60    4.20
   3   6   4   11.40    5.80
  -4  -6  -4   39.60    6.90
   4   6   4   55.69    8.50
   4   6   4   48.00    8.40
  -5  -6  -4   17.40    6.90
   5   6   4   22.30    7.80
   6  -7  -4   39.10    8.70
  -6   7   4   29.00    8.40
   5  -7  -4  273.57   17.90
  -5   7   4  317.37   17.50
   4  -7  -4  123.79   10.30
  -4   7   4  134.09   12.40
  -4   7   4  120.99    9.70
   3  -7  -4   61.29    8.40
   3  -7  -4   58.59    7.70
  -3   7   4   43.80    7.90
  -3   7   4   69.69    8.60
   2  -7  -4  628.14   23.80
   2  -7  -4  600.04   20.60
  -2   7   4  630.74   21.80
  -2   7   4  596.34   23.10
   1  -7  -4  107.09    8.30
  -1   7   4   98.59   14.90
  -1   7   4  123.99    9.60
   0  -7  -4    4.00    4.10
   0  -7  -4  -10.10    7.80
   0   7   4    6.10    3.60
   0   7   4   -1.40    5.10
   1   7   4    7.50    4.90
   1   7   4    5.10    3.30
   2   7   4   59.99    8.60
  -3  -7  -4   -6.40    5.80
   3   7   4   10.90    6.00
  -4  -7  -4   17.30    7.40
   4   7   4   37.10    8.70
   5  -8  -4  172.48   13.90
  -5   8   4  153.58   16.20
   4  -8  -4  251.77   13.70
  -4   8   4  246.38   15.70
  -4   8   4  228.68   14.10
   3  -8  -4   64.79    9.30
   3  -8  -4   83.49   11.60
  -3   8   4   66.29    9.50
  -3   8   4   76.79   10.90
   2  -8  -4    2.20    4.60
   2  -8  -4    1.00    6.20
  -2   8   4   -0.60    5.60
  -2   8   4    5.50    6.00
   1  -8  -4    7.30    7.40
  -1   8   4   -2.80    6.60
  -1   8   4   -8.50    5.70
   0  -8  -4   13.40    7.40
   0   8   4   10.90    6.10
  -1  -8  -4   -3.90    6.90
   1   8   4    1.60    6.50
  -2  -8  -4   85.99   13.30
   2   8   4  106.49   13.60
  -3  -8  -4   65.99   11.10
   3   8   4   91.79   12.00
   3  -9  -4   35.10    9.90
  -3   9   4    2.20    8.60
  -3   9   4   15.60    8.20
   2  -9  -4    0.70    7.80
  -2   9   4   -2.70    7.20
  -2   9   4   13.90    8.00
   1  -9  -4    1.00    8.00
  -1   9   4    4.00    7.20
  -1   9   4    4.60    7.30
   0  -9  -4  172.68   16.50
   0   9   4  176.88   15.60
  -1  -9  -4   56.69   11.10
   2   9  -5    4.90    7.40
  -2  -9   5  -11.00    8.00
   1   9  -5  123.49   14.40
  -1  -9   5  130.59   14.00
   0   9  -5   88.09   13.10
   0  -9   5  108.59   12.80
  -1   9  -5   -5.80    6.90
   1  -9   5    1.90    8.30
  -2   9  -5  179.68   14.20
   2  -9   5  227.38   16.00
   3  -9   5  182.88   15.50
  -4   9  -5    4.70    8.10
   4  -9   5    6.80    8.50
   4   8  -5   -6.80    8.00
  -4  -8   5   10.60    9.10
   3   8  -5   35.30    8.20
  -3  -8   5   38.80    9.90
   2   8  -5   24.80    7.00
  -2  -8   5    4.30    6.70
   1   8  -5   61.79    9.80
  -1  -8   5   43.10    8.30
   0   8  -5  551.54   23.00
   0  -8   5  571.44   22.50
  -1   8  -5  222.08   13.70
   1  -8   5  227.38   17.60
  -2   8  -5    3.00    5.80
   2  -8   5   -6.90    5.90
  -3   8  -5   25.00    6.90
   3  -8   5   16.40    7.30
  -4   8  -5    8.50    6.90
   4  -8   5   -0.50    4.80
   4  -8   5   14.10    7.20
  -5   8  -5    8.10    7.50
   5  -8   5    1.80    6.10
   5  -8   5   -4.40    6.00
   5   7  -5    0.80    6.90
  -5  -7   5    4.90    7.10
   4   7  -5    6.90    6.60
  -4  -7   5    4.10    7.00
   3   7  -5  145.49   12.90
  -3  -7   5  174.38   12.80
   2   7  -5  354.46   18.40
  -2  -7   5  371.26   17.00
   1   7  -5   61.69    8.30
   0   7  -5   80.69    8.70
   0  -7   5   62.39    8.50
  -1   7  -5  117.99    9.70
   1  -7   5  121.29    9.60
   1  -7   5  105.69    5.60
  -2   7  -5   27.70    6.60
   2  -7   5   29.20    6.30
   2  -7   5   24.50    3.90
  -3   7  -5   16.00    5.30
   3  -7   5   16.40    4.40
   3  -7   5   10.50    5.30
  -4   7  -5  199.28   13.20
   4  -7   5  218.08   12.50
   4  -7   5  207.78   12.20
  -5   7  -5  248.28   16.20
  -5   7  -5  227.38   12.80
   5  -7   5  240.58   13.70
   5  -7   5  239.18   12.90
  -6   7  -5    0.80    7.60
   6  -7   5   15.30    8.00
   6   6  -5    6.40    7.60
  -6  -6   5   -0.10    7.20
   5   6  -5   87.89    9.90
  -5  -6   5  126.09   13.30
   4   6  -5  272.97   14.80
  -4  -6   5  301.37   15.30
   3   6  -5    0.30    4.90
   3   6  -5    8.90    2.60
  -3  -6   5   10.50    6.00
   2   6  -5  343.17   14.80
  -2  -6   5  331.57   15.00
   1   6  -5  159.48   10.40
  -1  -6   5  176.58    7.00
  -1  -6   5  174.58   10.80
   0   6  -5    0.90    3.90
   0  -6   5   -4.50    4.00
   0  -6   5    2.70    2.00
   0  -6   5    4.40    1.90
  -1   6  -5   19.00    5.10
   1  -6   5   12.60    2.70
   1  -6   5   11.00    4.00
   1  -6   5   14.50    3.20
  -2   6  -5 1111.19   33.30
  -2   6  -5 1017.70   30.30
   2  -6   5 1032.60   30.60
   2  -6   5 1049.70   30.10
   2  -6   5 1079.49   32.20
  -3   6  -5  115.99   10.30
   3  -6   5  141.49    8.70
   3  -6   5  129.49    8.00
  -4   6  -5   47.40    7.00
   4  -6   5   33.90    5.60
   4  -6   5   34.10    5.40
  -5   6  -5  383.66   14.80
  -5   6  -5  373.46   17.70
   5  -6   5  385.26   17.20
   5  -6   5  383.56   14.50
  -6   6  -5  142.19   12.20
   6  -6   5  130.79   13.20
  -7   6  -5   -7.10    7.90
   7  -6   5    6.00    8.30
   7   5  -5   42.70    9.30
  -7  -5   5   29.20    9.90
   6   5  -5   59.89   12.90
  -6  -5   5   56.79    9.30
   5   5  -5   22.00    4.30
   5   5  -5   21.80    5.90
  -5  -5   5   14.60    6.40
   4   5  -5  375.76   15.80
   4   5  -5  373.06   13.10
  -4  -5   5  366.16   16.20
   3   5  -5  233.98   11.20
   3   5  -5  229.98    8.80
  -3  -5   5  238.78    8.90
  -3  -5   5  224.68   12.10
   2   5  -5    3.00    3.70
   2   5  -5   -0.40    2.00
  -2  -5   5    7.70    4.10
  -2  -5   5    0.40    1.90
   1   5  -5   31.20    4.60
  -1  -5   5   40.20    3.50
  -1  -5   5   43.40    5.60
  -1  -5   5   38.90    3.40
   0   5  -5  457.25   16.70
   0  -5   5  457.55   14.10
   0  -5   5  490.15   16.90
   0  -5   5  469.95   14.20
  -1   5  -5   73.69    6.80
   1  -5   5   88.79    5.70
   1  -5   5   94.59    7.00
   1  -5   5   89.39    5.30
  -2   5  -5  148.79    8.10
  -2   5  -5  144.49    8.90
   2  -5   5  152.78    7.80
   2  -5   5  161.48    8.60
   2  -5   5  159.38    8.60
  -3   5  -5 1295.97   37.40
   3  -5   5 1217.68   35.50
   3  -5   5 1182.78   34.60
  -4   5  -5  365.66   13.50
  -4   5  -5  379.96   15.80
   4  -5   5  365.06   13.20
   4  -5   5  374.26   15.60
  -5   5  -5    7.60    3.30
  -5   5  -5    2.40    4.30
   5  -5   5   -3.80    4.80
   5  -5   5    0.80    3.00
  -6   5  -5   24.50    7.90
   6  -5   5   36.60    7.90
  -7   5  -5    2.20    6.80
   7  -5   5   -1.30    8.10
   7   4  -5   18.60    6.20
   7   4  -5   28.00    7.30
  -7  -4   5   29.40    7.30
   6   4  -5  155.18   11.50
   6   4  -5  177.38   10.90
  -6  -4   5  196.18   13.30
   5   4  -5   23.70    4.40
   5   4  -5   27.50    5.50
  -5  -4   5   27.60    5.70
   4   4  -5   -1.20    2.70
   4   4  -5    2.20    3.50
  -4  -4   5   -0.60    3.70
   3   4  -5   -0.50    2.00
   3   4  -5   -2.00    3.20
  -3  -4   5    2.40    2.60
  -3  -4   5    1.40    3.20
   2   4  -5  154.88    6.80
   2   4  -5  165.38    8.40
  -2  -4   5  163.38    6.60
  -2  -4   5  164.88    8.70
   1   4  -5    0.90    1.80
   1   4  -5   -0.40    2.40
  -1  -4   5    3.70    3.00
  -1  -4   5    0.70    1.70
  -1  -4   5   -0.20    1.80
   0   4  -5 1423.36   39.30
   0  -4   5 1422.06   37.80
   0  -4   5 1408.46   37.60
   0  -4   5 1372.06   39.00
  -1   4  -5 2035.30   54.89
  -1   4  -5 2129.19   55.99
   1  -4   5 2017.20   54.89
   1  -4   5 2089.79   54.79
  -2   4  -5  265.97   10.00
  -2   4  -5  258.97   11.10
  -2   4  -5  252.87   10.40
   2  -4   5  254.47   10.20
   2  -4   5  263.97   10.10
   2  -4   5  260.77   10.70
  -3   4  -5  144.99    6.80
  -3   4  -5  139.39    8.50
   3  -4   5  144.89    7.00
   3  -4   5  145.99    8.40
  -4   4  -5   73.39    7.40
  -4   4  -5   87.39    5.70
   4  -4   5   83.19    5.10
   4  -4   5   86.49    7.70
  -5   4  -5   43.80    5.60
  -5   4  -5   35.00    3.90
  -5   4  -5   37.80    6.00
   5  -4   5   30.00    6.00
  -6   4  -5    4.40    6.00
  -7   4  -5   52.99    8.50
   7  -4   5   47.10    8.80
  -8   4  -5   45.00    9.50
   8  -4   5   52.09   11.10
   8   3  -5   48.20    9.10
  -8  -3   5   39.80    9.50
   7   3  -5    3.70    6.30
   7   3  -5   -0.50    5.50
  -7  -3   5   -5.50    5.50
   6   3  -5   81.59    7.40
   6   3  -5   50.29    7.40
  -6  -3   5   64.49    8.50
   5   3  -5   43.40    6.40
   5   3  -5   38.80    5.50
  -5  -3   5   32.50    5.60
   4   3  -5   14.20    3.20
   4   3  -5    7.90    3.30
  -4  -3   5   10.30    3.80
   3   3  -5   10.70    2.80
   3   3  -5   11.70    3.20
   3   3  -5   15.00    2.80
  -3  -3   5    7.70    3.40
  -3  -3   5   11.80    3.00
  -3  -3   5   15.70    2.80
   2   3  -5 1387.66   37.30
   2   3  -5 1343.47   37.90
  -2  -3   5 1339.27   37.20
  -2  -3   5 1353.06   36.50
  -2  -3   5 1383.16   38.30
   1   3  -5 2283.57   61.19
   1   3  -5 2344.97   60.79
  -1  -3   5 2373.96   61.39
  -1  -3   5 2349.36   60.49
  -1  -3   5 2332.87   61.79
   0   3  -5    1.30    1.70
   0   3  -5   -3.10    2.10
   0   3  -5    1.30    1.80
   0  -3   5   -0.10    1.80
   0  -3   5    1.40    2.00
   0  -3   5    1.70    2.00
   0  -3   5    0.90    2.10
  -1   3  -5  746.23   22.30
  -1   3  -5  745.03   21.30
   1  -3   5  733.83   23.30
   1  -3   5  737.03   22.00
   1  -3   5  760.22   21.50
  -2   3  -5  960.00   28.70
  -2   3  -5 1000.10   28.90
  -2   3  -5 1036.30   27.00
   2  -3   5  980.80   28.70
   2  -3   5 1009.00   27.10
   2  -3   5  930.41   28.60
  -3   3  -5   37.20    3.30
  -3   3  -5   33.20    4.90
   3  -3   5   33.20    4.70
   3  -3   5   39.90    3.30
  -4   3  -5    1.90    3.10
   4  -3   5    2.80    3.40
  -5   3  -5  272.67   13.10
   5  -3   5  266.87   13.50
  -6   3  -5  132.39   11.10
   6  -3   5  130.29   13.40
  -7   3  -5    9.00    6.90
   7  -3   5    3.60    7.20
  -8   3  -5   49.50    9.30
   8  -3   5   44.10   10.20
   8   2  -5   26.30    8.00
  -8  -2   5   23.30    8.20
   7   2  -5    8.10   10.50
   7   2  -5   10.80    4.90
  -7  -2   5   11.30    6.20
   6   2  -5    7.40    3.60
   6   2  -5    7.70    4.30
  -6  -2   5   14.90    5.50
   5   2  -5    1.30    2.70
   5   2  -5   12.10    3.50
   5   2  -5   11.80    3.70
  -5  -2   5    0.30    3.50
   4   2  -5 1142.89   32.30
   4   2  -5 1123.59   31.40
   4   2  -5 1108.89   31.10
  -4  -2   5 1126.69   33.10
   3   2  -5 1097.89   29.60
   3   2  -5 1040.80   28.40
   3   2  -5 1023.00   28.40
  -3  -2   5 1032.30   28.40
  -3  -2   5 1043.40   30.30
  -3  -2   5  975.20   29.00
   2   2  -5    8.10    2.00
   2   2  -5    8.60    2.10
  -2  -2   5    8.20    2.70
  -2  -2   5   12.20    2.30
  -2  -2   5    7.40    2.00
   1   2  -5 3028.10   79.19
   1   2  -5 3109.49   79.39
   1   2  -5 3019.30   78.79
  -1  -2   5 3113.29   79.19
  -1  -2   5 3094.89   79.59
  -1  -2   5 3117.19   78.89
   0   2  -5 1254.67   34.60
   0   2  -5 1231.68   34.00
   0   2  -5 1311.97   34.00
   0  -2   5 1265.27   34.50
   0  -2   5 1286.77   34.20
   0  -2   5 1249.57   34.50
   0  -2   5 1248.88   34.00
  -1   2  -5    6.90    2.00
   1  -2   5   -0.10    1.80
   1  -2   5    4.30    2.50
   1  -2   5    2.80    1.70
   1  -2   5    5.10    2.10
  -2   2  -5    2.90    1.40
  -2   2  -5    0.20    2.60
  -2   2  -5    0.10    2.30
   2  -2   5    5.70    2.60
   2  -2   5    2.90    1.40
   2  -2   5    1.90    2.30
  -3   2  -5  417.36   14.80
  -3   2  -5  407.56   10.90
   3  -2   5  391.36   14.90
   3  -2   5  412.96   11.00
  -4   2  -5  162.58    9.20
   4  -2   5  171.88    9.90
  -5   2  -5  175.08   10.30
   5  -2   5  146.29   11.40
  -6   2  -5  384.26   16.50
   6  -2   5  364.56   17.60
  -7   2  -5   54.59    8.60
   7  -2   5   31.20    7.90
  -8   2  -5   -9.80    7.30
   8  -2   5   12.60    8.50
   8   1  -5  -14.10    7.10
  -8  -1   5    4.00    7.40
   7   1  -5    6.10    6.00
   7   1  -5   11.50    4.20
  -7  -1   5    5.30    7.90
   6   1  -5  222.58    9.70
   6   1  -5  221.88   12.30
  -6  -1   5  228.18   11.70
   5   1  -5   78.69    5.10
   5   1  -5   79.99    5.40
   5   1  -5   80.39    6.80
  -5  -1   5   85.39    7.70
   4   1  -5  329.17   10.60
   4   1  -5  340.47   10.50
   4   1  -5  331.87   12.60
  -4  -1   5  330.67   12.90
   3   1  -5 1946.11   49.80
   3   1  -5 1948.91   49.80
   3   1  -5 1937.91   51.99
  -3  -1   5 1929.91   52.19
   2   1  -5 1151.48   31.80
   2   1  -5 1163.78   30.00
   2   1  -5 1148.09   31.90
  -2  -1   5 1126.19   31.90
  -2  -1   5 1203.58   30.10
  -2  -1   5 1097.19   31.60
   1   1  -5   44.80    2.80
   1   1  -5   45.60    3.70
  -1  -1   5   49.10    4.10
  -1  -1   5   40.60    4.30
  -1  -1   5   51.79    3.10
   0   1  -5    5.40    1.50
   0   1  -5    5.40    1.60
   0  -1   5    9.60    1.80
   0  -1   5   10.00    2.50
   0  -1   5    6.80    1.70
  -1   1  -5  330.97   12.00
  -1   1  -5  341.97   10.00
  -1   1  -5  335.17   11.20
   1  -1   5  332.67   10.00
   1  -1   5  332.57   11.90
   1  -1   5  332.37   11.00
   1  -1   5  333.67   11.90
  -2   1  -5    9.50    1.20
  -2   1  -5   11.10    2.40
  -2   1  -5    7.90    2.80
   2  -1   5   10.70    2.70
   2  -1   5    9.40    2.70
   2  -1   5   11.80    1.80
   2  -1   5   10.70    3.10
  -3   1  -5  812.22   24.50
   3  -1   5  809.52   25.30
  -4   1  -5 1409.96   40.10
   4  -1   5 1392.96   41.10
  -5   1  -5  129.69    8.80
   5  -1   5  120.99   10.00
  -6   1  -5   43.90    7.10
   6  -1   5   41.30    7.20
  -7   1  -5   77.09    9.80
   7  -1   5   74.99   10.50
  -8   1  -5   14.10    7.70
   8  -1   5  -12.20    7.50
   8   0  -5   55.39    8.80
  -8   0   5   68.29    9.20
   7   0  -5    8.80    5.40
   7   0  -5    3.60    3.40
  -7   0   5    3.40    5.60
   6   0  -5  325.57   14.30
   6   0  -5  293.67   11.00
  -6   0   5  306.77   14.00
   5   0  -5 1041.60   27.80
   5   0  -5 1050.19   31.40
   5   0  -5 1031.10   27.60
  -5   0   5 1018.70   30.90
   4   0  -5  125.29    4.50
   4   0  -5  127.79    7.40
  -4   0   5  116.39    7.00
   3   0  -5  550.04   17.50
   3   0  -5  543.95   14.10
   3   0  -5  554.34   14.10
  -3   0   5  539.65   17.40
   2   0  -5    1.60    2.00
   2   0  -5   -2.20    1.60
   2   0  -5   -0.60    0.60
  -2   0   5    1.00    0.70
  -2   0   5    0.30    1.70
  -2   0   5   -0.10    2.00
   1   0  -5  138.39    6.10
   1   0  -5  136.79    6.40
  -1   0   5  137.29    6.40
  -1   0   5  134.09    4.70
   0   0  -5   68.09    3.60
   0   0  -5   71.19    3.90
   0   0  -5   71.39    4.70
   0   0   5   67.39    4.70
   0   0   5   72.59    3.90
   0   0   5   71.49    3.60
  -1   0  -5 1309.27   36.70
  -1   0  -5 1307.77   35.30
  -1   0  -5 1369.46   34.30
   1   0   5 1317.67   35.30
   1   0   5 1272.07   36.40
   1   0   5 1272.97   36.50
   1   0   5 1347.27   34.30
  -2   0  -5 2677.43   75.29
  -2   0  -5 2915.51   74.49
   2   0   5 2855.71   74.29
   2   0   5 2907.11   76.99
   2   0   5 2823.32   75.39
   2   0   5 2984.80   71.99
  -3   0  -5   27.00    4.30
   3   0   5   21.00    4.10
  -4   0  -5  627.84   20.90
   4   0   5  605.04   21.40
  -5   0  -5  219.18   11.20
   5   0   5  229.28   12.60
  -6   0  -5    1.30    4.80
   6   0   5   11.80    5.80
  -7   0  -5   -7.60    6.20
   7   0   5   -4.20    7.30
  -8   0  -5   20.60    7.50
   8   0   5   18.70    8.90
   8  -1  -5  154.68   13.50
  -8   1   5  156.98   13.20
   7  -1  -5  251.67   14.00
  -7   1   5  259.47   13.20
   6  -1  -5    2.90    3.90
   6  -1  -5    1.60    2.40
  -6   1   5   -4.70    3.40
   5  -1  -5  259.17   11.90
   5  -1  -5  254.97    8.80
  -5   1   5  244.08   11.10
   4  -1  -5   75.59    6.20
  -4   1   5   84.69    6.10
   3  -1  -5   15.70    3.20
  -3   1   5   17.00    3.20
   2  -1  -5  181.68    7.90
   2  -1  -5  173.48    7.80
  -2   1   5  183.58    7.90
   1  -1  -5 2516.45   61.89
   1  -1  -5 2352.96   61.69
   1  -1  -5 2307.07   62.39
  -1   1   5 2379.66   61.89
  -1   1   5 2322.47   62.29
  -1   1   5 2384.26   59.89
   0  -1  -5 2428.96   61.89
   0  -1  -5 2464.95   62.39
   0  -1  -5 2361.16   63.59
   0   1   5 2375.06   62.39
   0   1   5 2367.66   63.49
   0   1   5 2445.76   61.99
   0   1   5 2502.05   62.49
  -1  -1  -5  336.67   12.50
  -1  -1  -5  346.47   11.50
   1   1   5  345.97   10.60
   1   1   5  333.47   12.30
   1   1   5  333.17   10.50
   1   1   5  348.07   11.40
   1   1   5  340.57   12.30
  -2  -1  -5 1355.96   36.40
   2   1   5 1220.08   36.00
   2   1   5 1336.87   34.20
   2   1   5 1338.27   34.40
   2   1   5 1301.27   37.10
  -3  -1  -5  436.56   15.40
   3   1   5  458.75   16.50
   3   1   5  417.96   12.60
   3   1   5  443.36   12.30
  -4  -1  -5    3.90    3.10
   4   1   5    5.10    1.30
   4   1   5    4.80    3.70
  -5  -1  -5   -0.20    3.80
   5   1   5   -1.10    4.00
  -6  -1  -5   21.30    7.60
   6   1   5   22.50    6.70
  -7  -1  -5   10.10    6.40
   7   1   5    8.50    7.20
  -8  -1  -5    7.10    8.00
   8   1   5    3.90    9.40
   8  -2  -5   11.30    7.20
   7  -2  -5  132.39   11.30
   6  -2  -5   61.19    8.90
  -6   2   5   59.49    3.90
  -6   2   5   49.40    7.10
   5  -2  -5    1.10    3.40
  -5   2   5    2.40    3.70
   4  -2  -5  119.49    7.50
  -4   2   5  118.29    7.60
   3  -2  -5 1347.57   37.80
  -3   2   5 1327.97   37.50
   2  -2  -5  480.25   15.70
  -2   2   5  477.35   12.70
  -2   2   5  476.95   12.60
  -2   2   5  478.15   15.60
   1  -2  -5  825.22   24.50
   1  -2  -5  870.41   25.10
  -1   2   5  827.82   24.70
  -1   2   5  841.32   24.60
  -1   2   5  868.41   22.90
  -1   2   5  874.21   24.70
  -1   2   5  872.71   22.90
   0  -2  -5 3981.70  101.89
   0  -2  -5 3912.21  103.39
   0   2   5 4158.68  102.59
   0   2   5 3862.01  103.09
   0   2   5 4228.38  102.79
   0   2   5 3980.60  101.89
  -1  -2  -5  642.34   19.10
  -1  -2  -5  648.74   20.30
   1   2   5  623.74   19.90
   1   2   5  647.64   19.20
   1   2   5  636.14   18.70
   1   2   5  632.14   20.00
  -2  -2  -5   45.70    4.80
  -2  -2  -5   49.70    3.90
   2   2   5   48.50    3.70
   2   2   5   49.60    4.30
   2   2   5   51.69    5.10
  -3  -2  -5   37.30    5.50
  -3  -2  -5   35.70    3.70
   3   2   5   34.70    4.30
   3   2   5   40.90    3.70
   3   2   5   41.80    5.80
  -4  -2  -5  259.87    9.10
  -4  -2  -5  251.47   12.10
   4   2   5  278.77   13.20
   4   2   5  274.97    9.80
  -5  -2  -5    1.90    2.30
  -5  -2  -5   12.20    4.70
   5   2   5    3.60    4.50
  -6  -2  -5   70.59   10.30
   6   2   5   62.79    9.80
  -7  -2  -5   77.39   10.90
   7   2   5  117.89   14.70
   8  -3  -5   12.40    7.70
  -8   3   5   16.50    7.20
   7  -3  -5    0.80    5.60
  -7   3   5   -2.70    5.60
  -6   3   5   19.90    5.40
   5  -3  -5  392.66   15.70
  -5   3   5  377.76   15.30
   4  -3  -5   20.70    4.30
  -4   3   5   25.80    2.10
  -4   3   5   35.70    5.30
   3  -3  -5 1293.57   36.40
  -3   3   5 1241.18   36.30
  -3   3   5 1271.87   32.60
   2  -3  -5 2046.90   55.69
  -2   3   5 2071.59   55.99
  -2   3   5 2105.49   53.19
  -2   3   5 2091.79   53.29
   1  -3  -5  366.96   13.10
  -1   3   5  369.36   11.60
  -1   3   5  368.06   11.70
  -1   3   5  366.86   13.00
   0  -3  -5  260.37    9.80
   0  -3  -5  266.57   10.20
   0  -3  -5  275.27   10.90
   0   3   5  263.27   10.40
   0   3   5  273.07   10.10
   0   3   5  270.37   10.30
   0   3   5  272.67    9.80
  -1  -3  -5   67.39    5.60
  -1  -3  -5   67.19    5.20
   1   3   5   71.09    5.50
   1   3   5   68.19    5.60
   1   3   5   88.29    5.60
   1   3   5   61.99    4.90
  -2  -3  -5   25.50    4.00
  -2  -3  -5   19.70    3.30
   2   3   5   25.60    3.80
   2   3   5   22.00    3.20
   2   3   5   21.60    4.10
  -3  -3  -5   75.59    5.70
  -3  -3  -5   80.29    6.80
   3   3   5   73.09    7.60
   3   3   5   74.09    6.50
  -4  -3  -5   97.19    8.60
  -4  -3  -5   91.89    6.30
   4   3   5   82.59    7.50
   4   3   5   93.39    8.20
  -5  -3  -5  277.87   10.90
  -5  -3  -5  259.57   17.60
   5   3   5  291.77   14.10
  -6  -3  -5    4.00    6.30
  -7  -3  -5   17.20    7.70
   7   3   5   32.30    8.60
   8  -4  -5   -2.20    7.80
  -8   4   5    8.10    7.40
   7  -4  -5   90.19   10.60
  -7   4   5   62.19    9.00
   6  -4  -5   36.70    6.20
  -6   4   5   31.30    7.60
   5  -4  -5  567.24   20.20
  -5   4   5  521.45   15.50
  -5   4   5  527.85   19.70
   4  -4  -5  949.21   25.60
   4  -4  -5  961.00   29.40
  -4   4   5  924.71   25.40
   3  -4  -5   24.00    3.70
   3  -4  -5   18.40    3.80
  -3   4   5   23.30    3.50
  -3   4   5   22.90    3.60
  -3   4   5   26.00    4.60
   2  -4  -5  288.07   11.60
  -2   4   5  269.57   12.10
  -2   4   5  277.07    9.90
  -2   4   5  281.57    9.90
   1  -4  -5  118.69    7.20
   1  -4  -5  124.29    7.90
  -1   4   5  122.99    7.70
  -1   4   5  126.99    6.50
  -1   4   5  118.39    6.50
   0  -4  -5    3.60    2.80
   0  -4  -5    9.70    3.10
   0   4   5    7.90    3.10
   0   4   5    1.20    2.20
  -1  -4  -5   33.10    4.70
  -1  -4  -5   31.30    4.90
   1   4   5   34.50    4.80
   1   4   5   35.50    4.40
   1   4   5   27.80    4.30
  -2  -4  -5  505.65   18.00
  -2  -4  -5  515.85   17.40
   2   4   5  532.15   17.90
   2   4   5  509.25   18.10
  -3  -4  -5  186.98    9.20
  -3  -4  -5  181.78   10.20
   3   4   5  178.38    9.70
   3   4   5  195.58   10.60
  -4  -4  -5    9.20    5.10
  -4  -4  -5   10.80    4.10
   4   4   5   13.40    4.50
   4   4   5   12.50    5.20
  -5  -4  -5  167.08   11.70
  -5  -4  -5  160.88    9.80
   5   4   5  163.88   12.00
   5   4   5  158.38   12.00
  -6  -4  -5   31.90    7.80
   6   4   5   27.00    7.50
   7  -5  -5  210.58   15.10
  -7   5   5  218.28   15.20
   6  -5  -5  206.88   13.50
  -6   5   5  230.98   14.40
   5  -5  -5   55.89    7.50
  -5   5   5   45.40    7.60
   4  -5  -5  458.85   17.40
  -4   5   5  439.36   17.70
   3  -5  -5   89.89    7.30
   3  -5  -5   97.59    6.50
  -3   5   5   84.79    8.20
  -3   5   5   93.19    6.50
  -3   5   5  103.99    6.50
   2  -5  -5    2.30    3.10
  -2   5   5    0.70    3.20
  -2   5   5    1.40    3.80
  -2   5   5   -1.20    2.70
   1  -5  -5  115.69    8.30
   1  -5  -5  127.79    7.60
  -1   5   5  123.29    8.20
  -1   5   5  126.79    7.50
   0  -5  -5  602.94   19.90
   0  -5  -5  605.84   20.80
   0   5   5  612.74   20.10
   0   5   5  609.34   20.80
  -1  -5  -5  193.28   10.60
  -1  -5  -5  201.18   10.50
   1   5   5  189.48   10.30
   1   5   5  189.18    9.60
  -2  -5  -5  121.99    8.80
   2   5   5  118.29    8.20
   2   5   5  124.29    8.60
  -3  -5  -5  382.96   15.10
  -3  -5  -5  362.56   15.70
   3   5   5  373.46   14.90
   3   5   5  347.37   15.80
  -4  -5  -5   75.09    8.90
  -4  -5  -5   65.39    8.30
   4   5   5   66.39    9.40
   4   5   5   74.69    8.90
  -5  -5  -5   21.80    5.30
  -5  -5  -5    8.60    6.10
   5   5   5   13.20    6.00
   5   5   5   -6.10    6.50
  -6  -5  -5   14.90    8.00
   6   5   5   20.00    8.30
   6   5   5    1.80    8.10
   6  -6  -5  212.88   15.20
  -6   6   5  186.88   14.50
   5  -6  -5   41.10    7.00
  -5   6   5   45.90    7.90
   4  -6  -5    5.20    4.20
  -4   6   5    2.70    5.00
  -4   6   5    9.30    4.00
   3  -6  -5   13.20    4.50
  -3   6   5    9.70    3.70
   2  -6  -5  364.76   15.80
   2  -6  -5  351.16   14.60
  -2   6   5  349.77   13.80
  -2   6   5  355.46   15.70
   1  -6  -5    6.70    4.50
   1  -6  -5   14.80    4.20
  -1   6   5    9.20    3.80
  -1   6   5    7.00    4.00
   0  -6  -5  366.16   14.70
   0  -6  -5  391.36   16.70
   0   6   5  391.56   15.60
   0   6   5  378.06   16.50
   0   6   5  378.86   14.30
  -1  -6  -5  720.03   24.80
   1   6   5  725.93   24.40
   1   6   5  702.23   22.80
  -2  -6  -5   69.49    8.90
   2   6   5   76.79    8.20
   2   6   5   66.09    7.80
  -3  -6  -5   29.50    6.40
   3   6   5   41.90    7.60
   3   6   5   32.40    5.80
  -4  -6  -5    6.10    5.80
   4   6   5   11.00    6.30
   4   6   5    4.90    5.40
  -5  -6  -5   11.50    6.70
   5   6   5   12.10    6.70
   6  -7  -5    2.10    7.90
  -6   7   5   -0.70    6.70
   5  -7  -5    9.10    6.80
  -5   7   5    2.10    6.50
   4  -7  -5   78.19    9.80
  -4   7   5   90.99   10.30
  -4   7   5   72.69   10.00
   3  -7  -5   27.80    5.50
  -3   7   5   22.40    5.50
  -3   7   5   17.60    6.60
   2  -7  -5  373.86   15.80
   2  -7  -5  378.06   18.30
  -2   7   5  370.76   18.10
  -2   7   5  382.86   16.20
   1  -7  -5  380.36   15.50
   1  -7  -5  367.06   17.40
  -1   7   5  390.46   16.40
  -1   7   5  366.96   17.20
   0  -7  -5   -0.60    4.60
   0  -7  -5    4.30    5.30
   0   7   5   -3.50    4.80
   0   7   5   -4.10    4.20
   0   7   5    4.70    3.90
  -1  -7  -5   78.39   10.70
   1   7   5   70.99    7.50
   1   7   5   93.49   11.80
  -2  -7  -5   36.60    7.60
   2   7   5   45.60    8.30
  -3  -7  -5   -2.60    6.40
   3   7   5   -6.70    5.80
  -4  -7  -5    6.10    7.20
   4   7   5    5.50    8.30
  -4   8   5  274.17   17.50
   3  -8  -5  164.98   12.50
  -3   8   5  182.48   12.80
  -3   8   5  182.48   15.50
   2  -8  -5    6.70    6.90
   2  -8  -5    7.40    5.80
  -2   8   5    7.80    6.80
  -2   8   5   -0.70    6.10
   1  -8  -5  151.08   14.90
  -1   8   5  176.48   14.30
  -1   8   5  135.89   14.20
   0  -8  -5   21.50    7.70
   0   8   5   18.10    6.80
   0   8   5   30.50    7.10
  -1  -8  -5    5.10    6.70
   1   8   5    8.50    7.00
  -2  -8  -5    3.20    8.10
   2   8   5    6.90    7.00
   2   9  -6   -2.60    8.60
  -2  -9   6    9.70    9.90
   1   9  -6   13.30    7.70
  -1  -9   6    3.60    9.50
   0   9  -6    6.20    7.40
   0  -9   6   13.00    8.60
  -1   9  -6   -5.10    7.30
   1  -9   6    0.80    7.40
  -2   9  -6  108.69   13.20
   2  -9   6  127.39   14.40
  -3   9  -6  215.98   16.10
   3  -9   6  182.88   16.50
   4   8  -6   21.40    9.50
  -4  -8   6   11.30    8.80
   3   8  -6   16.00    7.80
  -3  -8   6   14.50    8.10
   2   8  -6   -1.90    6.60
  -2  -8   6   -5.70    6.70
   1   8  -6   35.80    7.80
  -1  -8   6   41.90    9.00
   0   8  -6  204.98   13.60
   0  -8   6  198.08   14.90
  -1   8  -6  290.37   16.20
   1  -8   6  321.77   17.20
  -2   8  -6    7.10    6.50
   3  -8   6   49.40    8.40
  -4   8  -6  123.99   13.80
   4  -8   6  122.89   13.20
   4  -8   6  143.39   10.80
  -5   8  -6   -3.80    7.70
   5  -8   6   29.50   11.90
   5   7  -6   10.50    8.50
  -5  -7   6   17.70    8.90
   4   7  -6  -13.80    7.40
  -4  -7   6    1.70    6.80
   3   7  -6    8.90    6.40
  -3  -7   6   13.20    6.80
  -2  -7   6  205.58   13.80
   1   7  -6  178.58   12.30
  -1  -7   6  182.48   17.10
   0   7  -6   63.19    9.20
   0  -7   6   46.30    4.10
   0  -7   6   45.20    6.90
  -1   7  -6  585.04   24.20
   1  -7   6  571.54   21.30
  -2   7  -6  296.67   15.20
   2  -7   6  301.87   12.00
   2  -7   6  296.97   14.60
  -3   7  -6    7.50    5.80
   3  -7   6    6.10    4.60
   3  -7   6   10.30    5.10
  -4   7  -6   14.70    6.40
   4  -7   6    2.20    5.10
   4  -7   6   -7.80    5.40
  -5   7  -6   29.00    8.60
   5  -7   6   19.30    6.90
  -6   7  -6   16.50    8.00
   6  -7   6    4.80    8.00
   6   6  -6    4.20    7.80
  -6  -6   6   10.10    9.20
   5   6  -6    8.20    6.50
  -5  -6   6   13.60    7.10
   4   6  -6   71.29   10.10
  -4  -6   6   98.29   11.90
   3   6  -6   66.29    5.70
   3   6  -6   51.99    8.00
  -3  -6   6   60.39   13.80
   2   6  -6  146.99   10.60
  -2  -6   6  132.59    6.60
  -2  -6   6  150.18   10.50
   1   6  -6  677.33   23.30
  -1  -6   6  658.43   18.70
  -1  -6   6  632.44   18.80
  -1  -6   6  679.03   23.10
   0   6  -6  280.67   13.40
   0  -6   6  266.27   10.00
   0  -6   6  270.77    9.80
   0  -6   6  276.97   12.90
  -1   6  -6   24.10    5.10
   1  -6   6   27.00    4.20
   1  -6   6   17.20    3.40
  -2   6  -6  176.48   10.60
   2  -6   6  152.98    8.90
   2  -6   6  178.68   10.70
  -3   6  -6    7.70    4.80
   3  -6   6    8.70    4.20
   3  -6   6    7.10    4.30
  -4   6  -6    0.60    5.00
   4  -6   6   -1.90    4.20
   4  -6   6   -4.80    4.20
  -5   6  -6   82.29   10.10
  -5   6  -6   86.59    7.90
   5  -6   6   77.49   10.80
   5  -6   6   78.29   10.60
  -6   6  -6  257.47   16.80
   6  -6   6  271.77   17.00
   6   5  -6    7.60    6.50
   6   5  -6   10.20    5.70
  -6  -5   6   16.80    7.40
   5   5  -6   -8.20    5.10
   5   5  -6    9.90    4.30
   4   5  -6  140.09    9.30
   4   5  -6  138.29    8.10
  -4  -5   6  140.09   12.20
   3   5  -6  717.83   21.30
   3   5  -6  720.73   23.60
  -3  -5   6  679.73   20.90
  -3  -5   6  724.43   24.70
   2   5  -6  156.78    9.50
   2   5  -6  143.79    8.30
  -2  -5   6  176.68   10.20
  -2  -5   6  172.98    7.30
   1   5  -6  147.39    6.90
   1   5  -6  139.09    9.00
  -1  -5   6  143.39    6.70
  -1  -5   6  149.29    7.10
  -1  -5   6  145.09    9.50
   0   5  -6   85.19    7.10
   0  -5   6   79.29    5.70
   0  -5   6   84.99    6.80
  -1   5  -6   12.80    3.80
   1  -5   6    4.50    3.30
   1  -5   6   14.30    3.80
   1  -5   6    7.10    3.00
  -2   5  -6   26.30    4.90
   2  -5   6   14.40    4.00
   2  -5   6   24.00    4.10
  -3   5  -6  511.65   19.20
   3  -5   6  505.25   17.10
   3  -5   6  514.65   18.30
  -4   5  -6  472.15   17.60
  -4   5  -6  484.65   19.10
   4  -5   6  495.95   18.90
   4  -5   6  461.35   15.70
  -5   5  -6    4.70    5.30
   5  -5   6    6.40    5.30
  -6   5  -6   87.39   11.20
   6  -5   6   90.89   11.20
   7  -5   6   55.69    9.90
   7   4  -6    6.40    6.90
   7   4  -6   -7.10    7.30
  -7  -4   6    9.00    7.90
   6   4  -6  117.69   10.00
   6   4  -6  107.59   10.60
  -6  -4   6  106.39   11.10
   5   4  -6  431.46   16.10
   5   4  -6  431.16   16.90
   4   4  -6   35.20    5.30
   4   4  -6   38.80    5.90
  -4  -4   6   32.00    6.50
   3   4  -6  328.97   12.90
   3   4  -6  332.77   12.00
  -3  -4   6  311.47   11.70
  -3  -4   6  329.97   14.20
   2   4  -6  201.48    9.60
   2   4  -6  210.68    8.90
  -2  -4   6  214.78   10.50
  -2  -4   6  207.48    8.50
   1   4  -6   -1.20    2.70
  -1  -4   6    0.80    2.80
  -1  -4   6    2.90    2.30
  -1  -4   6    1.50    2.80
   0   4  -6  115.49    7.20
   0  -4   6  117.99    6.40
   0  -4   6  118.19    7.30
   0  -4   6  120.89    6.50
  -1   4  -6 1071.59   30.90
   1  -4   6  998.30   30.00
   1  -4   6 1037.00   29.80
   1  -4   6 1054.19   29.90
  -2   4  -6  643.54   21.80
  -2   4  -6  675.33   20.10
   2  -4   6  683.13   21.40
   2  -4   6  669.63   20.30
  -3   4  -6   71.79    5.60
  -3   4  -6   57.59    6.50
   3  -4   6   57.29    5.50
   3  -4   6   46.10    5.90
  -4   4  -6  749.92   25.20
  -4   4  -6  742.03   20.80
   4  -4   6  753.02   25.20
   4  -4   6  703.53   20.60
  -5   4  -6  196.78    7.90
  -5   4  -6  212.48   12.40
   5  -4   6  232.28   13.70
  -6   4  -6    1.00    5.50
   6  -4   6    4.60    6.10
  -7   4  -6    7.60    6.90
   7  -4   6    2.10    7.30
   7   3  -6   71.29    9.40
  -7  -3   6   46.70    9.10
   6   3  -6    4.30    4.50
   6   3  -6    3.40    4.80
   5   3  -6  379.26   14.30
   5   3  -6  385.36   15.20
  -5  -3   6  381.16   16.20
   4   3  -6  125.59    7.90
   4   3  -6  115.69    7.20
  -4  -3   6  134.39    8.90
   3   3  -6    0.30    3.00
   3   3  -6    5.90    2.80
   3   3  -6    3.00    2.60
  -3  -3   6    4.10    3.20
  -3  -3   6    9.60    3.30
   2   3  -6    6.60    2.50
   2   3  -6    8.90    2.80
  -2  -3   6    5.90    2.60
  -2  -3   6    7.80    2.80
  -2  -3   6    5.10    2.90
   1   3  -6  937.61   26.60
   1   3  -6  915.81   26.60
  -1  -3   6  937.51   27.20
  -1  -3   6  931.01   26.30
  -1  -3   6  894.71   26.50
   0   3  -6  204.78    8.70
   0   3  -6  214.68    9.00
   0   3  -6  212.68    9.10
   0  -3   6  225.78    9.10
   0  -3   6  207.08    8.70
   0  -3   6  212.48    9.20
   0  -3   6  201.48    8.90
  -1   3  -6  690.73   19.80
  -1   3  -6  683.13   20.90
   1  -3   6  642.14   20.90
   1  -3   6  664.03   20.00
   1  -3   6  674.23   20.90
  -2   3  -6 2226.28   59.29
  -2   3  -6 2231.78   56.89
   2  -3   6 2144.99   59.29
   2  -3   6 2185.78   57.09
  -3   3  -6  447.76   16.40
  -3   3  -6  464.15   13.30
   3  -3   6  439.16   13.50
   3  -3   6  464.15   16.90
  -4   3  -6   13.80    2.00
   4  -3   6    9.40    4.20
  -5   3  -6   30.20    6.50
   5  -3   6   19.10    5.80
  -6   3  -6    7.20    5.70
   6  -3   6   15.50    6.60
  -7   3  -6   -3.70    6.60
   7  -3   6    4.20    7.20
   8  -3   6   17.30    9.80
   8   2  -6   55.19    9.50
  -8  -2   6   44.40    9.20
   7   2  -6  133.29   11.80
   7   2  -6  146.69   13.50
  -7  -2   6  138.49   12.70
   6   2  -6   17.80    4.40
   6   2  -6   17.50    4.70
  -6  -2   6   15.10    6.40
   5   2  -6   -4.60    3.10
   5   2  -6   -0.60    2.70
   5   2  -6    1.20    3.20
  -5  -2   6   -4.10    4.00
   4   2  -6   40.70    5.30
   4   2  -6   29.90    4.50
  -4  -2   6   35.50    5.60
   3   2  -6  462.95   15.60
   3   2  -6  445.36   14.10
   3   2  -6  471.05   14.30
  -3  -2   6  455.05   14.30
  -3  -2   6  460.75   16.40
   2   2  -6   51.79    4.60
   2   2  -6   49.70    3.90
  -2  -2   6   43.10    4.30
  -2  -2   6   49.99    4.10
  -2  -2   6   52.19    5.30
   1   2  -6  829.02   24.20
   1   2  -6  808.42   22.50
   1   2  -6  801.72   23.50
  -1  -2   6  754.22   23.10
  -1  -2   6  759.92   23.20
  -1  -2   6  803.02   22.60
   0   2  -6 3254.57   82.49
   0   2  -6 3272.27   82.79
   0   2  -6 3132.29   83.59
   0  -2   6 3285.97   82.69
   0  -2   6 3139.69   83.49
   0  -2   6 3115.29   83.39
   0  -2   6 3289.67   82.79
  -1   2  -6  268.67    9.00
  -1   2  -6  261.77    9.80
   1  -2   6  248.18   10.00
   1  -2   6  248.48   10.90
   1  -2   6  266.57   10.80
   1  -2   6  275.77    9.20
  -2   2  -6  341.27   12.50
  -2   2  -6  353.96   10.40
   2  -2   6  332.07   10.60
   2  -2   6  338.57   13.10
  -3   2  -6  143.79    8.30
   3  -2   6  154.98    5.10
   3  -2   6  163.48    9.70
  -4   2  -6   -2.70    3.20
   4  -2   6    0.70    3.70
  -5   2  -6   -5.50    4.40
   5  -2   6   -1.40    4.50
  -6   2  -6   97.19    9.90
   6  -2   6  124.19   11.90
  -7   2  -6  107.29   11.50
   7  -2   6  120.49   13.90
  -8   2  -6   -8.20    8.20
   8  -2   6   -4.40    8.70
   8   1  -6   11.50    7.70
  -8  -1   6  -13.00    6.40
   7   1  -6   34.70    6.80
  -7  -1   6   19.30    6.70
   6   1  -6   -5.70    4.30
   6   1  -6   -0.40    4.50
  -6  -1   6    7.40    4.60
   5   1  -6   67.39    4.90
   5   1  -6   67.29    7.10
   5   1  -6   70.79    4.90
  -5  -1   6   70.99    8.00
   4   1  -6   41.10    3.40
   4   1  -6   42.60    3.40
   4   1  -6   53.99    5.60
  -4  -1   6   40.40    5.60
   3   1  -6 1542.75   42.80
   3   1  -6 1582.64   40.10
   3   1  -6 1546.25   40.00
  -3  -1   6 1523.45   43.00
   2   1  -6 2511.15   66.69
   2   1  -6 2516.05   64.19
  -2  -1   6 2536.65   64.29
  -2  -1   6 2551.64   66.69
   1   1  -6   16.90    3.30
   1   1  -6   15.80    2.30
   1   1  -6   15.10    2.80
  -1  -1   6   14.60    3.20
  -1  -1   6   17.10    2.60
  -1  -1   6   11.00    2.40
   0   1  -6 1150.38   30.30
   0   1  -6 1133.99   30.40
   0   1  -6 1109.69   31.80
   0  -1   6 1057.19   31.60
   0  -1   6 1122.69   30.30
  -1   1  -6  498.65   15.90
  -1   1  -6  522.05   14.90
  -1   1  -6  518.75   17.30
   1  -1   6  523.15   15.00
   1  -1   6  510.65   17.20
   1  -1   6  510.05   16.00
  -2   1  -6    5.50    1.40
  -2   1  -6    2.60    2.30
   2  -1   6    5.70    1.50
   2  -1   6    2.60    2.90
  -3   1  -6   24.70    4.10
   3  -1   6   24.40    4.60
  -4   1  -6  353.46   14.20
   4  -1   6  352.66   15.50
  -5   1  -6  195.78   11.10
   5  -1   6  194.58   12.40
  -6   1  -6   14.40    5.30
   6  -1   6    6.50    6.40
   7  -1   6   63.79    9.90
  -8   1  -6   23.00    8.50
   8  -1   6   21.50    9.60
   8   0  -6    9.60    6.90
  -8   0   6   12.90    7.20
   7   0  -6   28.50    6.70
  -7   0   6   12.40    6.00
   6   0  -6   11.70    4.90
   6   0  -6   12.60    2.80
  -6   0   6   23.90    5.60
   5   0  -6  647.84   22.10
  -5   0   6  641.94   21.80
   4   0  -6  613.84   20.30
  -4   0   6  603.34   20.10
   3   0  -6  146.29    7.80
  -3   0   6  149.69    7.80
   2   0  -6 1513.05   42.00
   2   0  -6 1523.85   38.50
  -2   0   6 1519.45   41.60
  -2   0   6 1546.95   38.60
   1   0  -6  815.02   24.00
   1   0  -6  841.22   22.50
   1   0  -6  832.02   24.90
  -1   0   6  848.62   24.20
  -1   0   6  874.51   22.60
   0   0  -6   19.20    3.10
   0   0  -6   20.10    3.20
   0   0  -6   22.80    3.00
   0   0   6   23.40    3.00
   0   0   6   23.20    4.00
  -1   0  -6  364.96   12.40
  -1   0  -6  392.26   11.60
  -1   0  -6  383.06   14.10
   1   0   6  363.26   13.80
   1   0   6  388.76   12.60
   1   0   6  386.76   11.60
  -2   0  -6  418.86   14.50
   2   0   6  438.66   12.40
   2   0   6  431.86   12.40
   2   0   6  445.56   16.00
  -3   0  -6  116.99    7.60
   3   0   6  102.99    4.00
   3   0   6  105.79    8.10
   3   0   6  107.29    3.60
   4   0   6  286.97   14.20
  -5   0  -6  325.57   14.70
   5   0   6  334.07   15.90
  -6   0  -6  118.89   10.10
   6   0   6   77.59   11.00
  -7   0  -6   -7.20    6.20
   7   0   6    5.70    8.50
  -8   0  -6    8.10    8.00
   8   0   6   10.50    9.70
   8  -1  -6   17.90    7.50
  -8   1   6    4.90    7.00
   7  -1  -6  218.28   14.20
  -7   1   6  206.48   13.50
   6  -1  -6   71.29    9.40
  -6   1   6   63.99    7.30
   5  -1  -6  280.37   12.90
  -5   1   6  269.77   12.70
   4  -1  -6 1084.09   31.70
  -4   1   6 1010.80   31.00
   3  -1  -6  352.66   13.40
  -3   1   6  349.87   13.30
   2  -1  -6   26.40    4.10
  -2   1   6   27.10    3.70
   1  -1  -6    9.40    2.70
   1  -1  -6    6.00    1.40
   1  -1  -6    2.30    2.40
  -1   1   6    4.60    1.50
   0  -1  -6  398.56   14.30
   0  -1  -6  400.06   12.40
   0  -1  -6  405.36   12.90
   0   1   6  390.46   12.30
   0   1   6  420.56   13.10
   0   1   6  405.76   13.00
  -1  -1  -6  104.79    6.90
  -1  -1  -6  105.69    5.60
   1   1   6  107.39    5.90
   1   1   6  103.39    5.00
   1   1   6  103.79    6.70
   1   1   6   95.89    5.10
  -2  -1  -6  964.60   28.10
   2   1   6  973.70   26.00
   2   1   6  963.10   26.10
   2   1   6  946.51   29.20
  -3  -1  -6 1145.09   33.70
   3   1   6 1156.98   30.20
   3   1   6 1130.59   30.50
   3   1   6 1188.88   35.10
  -4  -1  -6  207.28   10.70
   4   1   6  211.58   11.90
   4   1   6  207.48    6.20
  -5  -1  -6  232.78   12.90
   5   1   6  227.08   13.30
  -6  -1  -6   28.50    6.90
   6   1   6   32.10    7.40
  -7  -1  -6   -1.60    6.40
   7   1   6    5.80    8.00
   8  -2  -6    8.00    7.00
   7  -2  -6  201.58   13.30
  -7   2   6  183.08   12.10
   6  -2  -6  411.46   17.70
  -6   2   6  388.56   16.40
   5  -2  -6   90.09    8.30
  -5   2   6   83.79    8.10
   4  -2  -6  104.99    7.70
  -4   2   6  116.89    8.20
   3  -2  -6    3.60    2.80
  -3   2   6    1.90    3.10
   2  -2  -6  167.78    8.50
  -2   2   6  167.08    8.30
  -2   2   6  162.18    5.00
  -2   2   6  170.18    5.10
   1  -2  -6   53.09    5.00
   1  -2  -6   55.59    3.40
  -1   2   6   59.39    3.50
  -1   2   6   55.69    3.50
  -1   2   6   59.29    5.00
   0  -2  -6 1422.06   40.50
   0  -2  -6 1466.05   38.60
   0   2   6 1414.86   39.20
   0   2   6 1489.35   39.40
   0   2   6 1424.36   38.50
  -1  -2  -6 1690.93   45.50
  -1  -2  -6 1695.33   47.20
   1   2   6 1738.63   45.10
   1   2   6 1616.94   45.30
   1   2   6 1659.33   46.80
   1   2   6 1730.63   45.10
  -2  -2  -6   31.00    4.80
   2   2   6   19.70    4.10
   2   2   6   24.20    3.40
  -3  -2  -6  265.77   11.50
   3   2   6  261.77    9.30
   3   2   6  262.97    9.90
   3   2   6  273.77   12.50
  -4  -2  -6  223.58   11.50
   4   2   6  229.38    8.10
   4   2   6  216.38   12.20
   4   2   6  224.28    9.00
  -5  -2  -6   -6.40    4.60
   5   2   6    1.50    4.80
   5   2   6   -1.80    2.30
  -6  -2  -6    2.30    5.70
   6   2   6   -9.40    6.70
  -7  -2  -6   -1.00    7.40
   7   2   6   -5.90    7.50
   8  -3  -6  102.59   13.90
  -8   3   6   84.29   11.00
   7  -3  -6    3.90    6.40
  -7   3   6    0.80    5.50
  -6   3   6   59.09    9.10
   5  -3  -6    8.10    5.00
  -5   3   6    9.50    4.10
   4  -3  -6   13.00    4.30
  -4   3   6   13.80    4.30
   3  -3  -6  126.69    7.90
  -3   3   6  126.99    8.10
   2  -3  -6 1270.77   36.90
  -2   3   6 1269.97   33.60
  -2   3   6 1286.37   33.80
  -2   3   6 1331.87   37.20
   1  -3  -6  903.41   27.40
  -1   3   6  907.31   25.20
  -1   3   6  910.11   25.20
  -1   3   6  914.61   27.20
   0  -3  -6   85.49    5.20
   0  -3  -6   79.29    6.80
   0   3   6   77.19    5.40
   0   3   6   87.49    6.20
   0   3   6   78.19    5.10
  -1  -3  -6 1193.68   33.60
  -1  -3  -6 1202.48   33.40
  -1  -3  -6 1185.08   34.90
   1   3   6 1123.69   34.30
   1   3   6 1199.98   33.50
   1   3   6 1201.98   33.80
  -2  -3  -6  307.37   11.50
  -2  -3  -6  307.17   12.50
   2   3   6  314.47   13.00
   2   3   6  299.67   11.30
  -3  -3  -6    9.40    3.10
  -3  -3  -6   12.60    4.20
   3   3   6    9.20    3.80
   3   3   6   13.30    3.00
   3   3   6   17.70    5.10
  -4  -3  -6    6.90    3.20
  -4  -3  -6    4.50    4.00
   4   3   6    3.00    4.80
   4   3   6    6.70    3.00
  -5  -3  -6   79.49    6.40
  -5  -3  -6   96.39    9.60
   5   3   6   94.49    6.40
   5   3   6  100.79   10.70
  -6  -3  -6   21.90    7.30
   6   3   6   22.00    7.70
  -7  -3  -6   16.60    8.50
   7   3   6   11.20    9.10
   7  -4  -6    3.90    7.40
  -7   4   6   -4.20    6.80
   6  -4  -6   11.20    6.10
  -6   4   6   15.00    5.50
   5  -4  -6  100.29    8.80
   4  -4  -6  598.64   20.90
  -4   4   6  553.94   20.60
   3  -4  -6  501.35   18.10
  -3   4   6  492.85   14.70
  -3   4   6  532.45   18.80
  -3   4   6  502.75   14.80
   2  -4  -6  997.70   29.50
  -2   4   6  960.50   26.70
  -2   4   6  932.51   29.40
  -2   4   6  955.20   26.60
   1  -4  -6  986.40   29.50
  -1   4   6  969.40   27.70
  -1   4   6  958.80   27.70
  -1   4   6 1002.30   29.80
   0  -4  -6  220.58   10.70
   0  -4  -6  203.48    9.90
   0   4   6  190.78    9.60
   0   4   6  208.98    9.20
  -1  -4  -6   42.70    5.90
  -1  -4  -6   35.20    5.50
  -1  -4  -6   33.60    5.00
   1   4   6   38.20    5.30
   1   4   6   44.90    5.70
   1   4   6   35.50    4.90
  -2  -4  -6    6.80    4.10
  -2  -4  -6    8.80    3.70
   2   4   6   10.90    3.60
   2   4   6    4.70    3.80
   2   4   6    5.30    3.90
  -3  -4  -6  114.89    8.00
  -3  -4  -6  116.09    8.70
   3   4   6  117.69    8.80
   3   4   6  117.69    8.70
   3   4   6  104.29    7.80
  -4  -4  -6   -2.60    3.80
   4   4   6   -6.80    4.80
   4   4   6    0.70    8.20
  -5  -4  -6   58.59    9.50
  -5  -4  -6   69.39    7.50
   5   4   6   81.49   10.20
   5   4   6   60.89    9.50
  -6  -4  -6   95.59   13.30
   6   4   6   95.49   11.80
   6   4   6   73.29   11.40
   7  -5  -6   17.30    7.90
  -7   5   6   21.20    7.70
   6  -5  -6  150.28   12.60
  -6   5   6  160.98   13.50
   5  -5  -6   16.90    6.10
  -5   5   6    9.20    5.40
   4  -5  -6  495.95   19.10
  -4   5   6  418.26   25.20
  -4   5   6  477.75   14.70
   3  -5  -6  690.63   23.10
  -3   5   6  674.23   23.80
   2  -5  -6  218.08   11.40
  -2   5   6  219.98    9.70
  -2   5   6  213.98    9.60
  -2   5   6  219.18   11.50
   1  -5  -6   85.79    7.70
   1  -5  -6   85.79    8.00
  -1   5   6   91.69    7.70
  -1   5   6   84.79    6.70
   0  -5  -6    7.90    3.90
   0  -5  -6    3.60    4.30
   0   5   6    7.70    3.60
   0   5   6    5.60    4.30
  -1  -5  -6   43.40    6.30
  -1  -5  -6   50.59    7.60
   1   5   6   37.10    5.30
   1   5   6   45.60    6.10
   1   5   6   47.30    7.20
  -2  -5  -6   -0.20    4.00
   2   5   6    5.90    4.10
   2   5   6    4.40    4.30
   2   5   6   -2.30    3.80
  -3  -5  -6  186.48   11.20
  -3  -5  -6  194.08   12.30
   3   5   6  198.98   11.60
   3   5   6  177.38   12.10
  -4  -5  -6  123.39   10.10
  -4  -5  -6  124.79   10.60
   4   5   6   86.69   10.70
   4   5   6   99.09   11.30
  -5  -5  -6   -2.20    7.60
  -5  -5  -6    0.40    6.20
   5   5   6  -10.30    6.10
   5   5   6   -5.30    6.30
   6  -6  -6  192.78   14.90
  -6   6   6  238.18   15.40
   5  -6  -6  264.27   14.90
  -5   6   6  265.37   16.20
   4  -6  -6   -2.60    4.30
  -4   6   6   -2.40    5.10
   3  -6  -6   91.49    9.50
  -3   6   6   88.29    7.50
  -3   6   6   94.29   10.00
   2  -6  -6   21.80    5.40
  -2   6   6   13.20    6.20
  -2   6   6   14.00    4.50
   1  -6  -6   -4.70    4.10
   1  -6  -6    4.40    5.30
  -1   6   6   -4.50    4.60
  -1   6   6   -3.80    3.80
   0  -6  -6   73.99    9.50
   0  -6  -6   78.19    8.60
   0   6   6  102.89    8.40
   0   6   6   92.89    8.00
   0   6   6   94.69    9.40
  -1  -6  -6  243.28   13.20
   1   6   6  261.87   12.70
   1   6   6  268.17   13.10
   1   6   6  259.97   12.80
  -2  -6  -6  163.98   11.20
   2   6   6  158.68   12.20
   2   6   6  150.48   11.20
   2   6   6  139.49   10.00
  -3  -6  -6    6.40    5.40
   3   6   6    5.70    5.30
   3   6   6    2.00    5.90
  -4  -6  -6   76.99   11.30
   4   6   6   62.79    9.30
   4   6   6   83.99   11.00
   5   6   6   14.80    8.00
   5  -7  -6  114.39   13.20
  -5   7   6   90.79   12.50
   4  -7  -6    4.70    6.30
  -4   7   6    3.70    6.70
   3  -7  -6  -10.70    4.90
  -3   7   6    2.00    4.90
  -3   7   6    0.00    6.20
   2  -7  -6   30.80    6.30
  -2   7   6   29.60    7.50
  -2   7   6   30.00    6.20
   1  -7  -6  208.08   12.80
   1  -7  -6  227.98   14.70
  -1   7   6  205.08   12.50
  -1   7   6  220.78   14.20
   0  -7  -6   74.69   10.30
   0  -7  -6   65.99    9.30
   0   7   6   93.89    9.90
   0   7   6   73.39   10.90
   0   7   6   82.09    8.90
  -1  -7  -6  102.99   12.00
   1   7   6  109.69   11.90
   1   7   6  101.99    9.50
   1   7   6  121.99   10.70
  -2  -7  -6  147.89   12.80
   2   7   6  162.88   12.00
   2   7   6  181.98   13.60
  -3  -7  -6   21.40    7.70
   3   7   6   17.00    6.90
   3  -8  -6  112.99   11.70
  -3   8   6  103.09   14.90
   2  -8  -6    2.00    6.40
   2  -8  -6   -0.60    8.30
  -2   8   6    8.20    8.20
  -2   8   6   17.10    6.80
   1  -8  -6  117.89   12.60
  -1   8   6  135.69   13.00
   0  -8  -6  155.88   15.90
   0   8   6  156.48   14.70
   0   8   6  170.18   13.60
  -1  -8  -6    6.40    8.30
   1   8   6   16.40    7.80
   1   8   6   11.80    7.80
   1   9  -7   49.20   10.50
  -1  -9   7   42.00   11.00
   0   9  -7   55.59    9.40
   0  -9   7   93.79   12.90
  -1   9  -7   -9.60    7.30
   1  -9   7   11.40    8.50
  -2   9  -7    8.70    8.10
   2  -9   7    0.20    8.60
   3   8  -7   86.39   12.80
  -3  -8   7  125.19   14.20
   2   8  -7   87.19   11.50
  -2  -8   7   73.59   10.30
   1   8  -7    8.70    6.70
  -1  -8   7    6.40    7.00
   0   8  -7   -5.70    5.80
   0  -8   7    4.60    7.10
  -1   8  -7   24.90    7.20
   1  -8   7   26.30    7.50
  -2   8  -7  117.99   13.60
   2  -8   7   96.89   14.50
  -3   8  -7  204.08   14.80
   3  -8   7  205.88   14.20
  -4   8  -7  220.98   15.80
   4  -8   7  171.98   14.60
   4   7  -7   40.40    8.90
  -4  -7   7   35.00    9.70
   3   7  -7   -2.80    5.50
  -3  -7   7    4.60    6.80
   2   7  -7    9.50    6.40
  -2  -7   7    8.90    6.10
   1   7  -7   24.50    6.30
  -1  -7   7   22.50    6.10
   0   7  -7   -4.70    5.90
   0  -7   7    8.50    5.80
   0  -7   7   -0.20    3.50
  -1   7  -7  365.96   16.70
   1  -7   7  358.06   16.50
   1  -7   7  334.47   12.80
   2  -7   7  375.76   16.80
   2  -7   7  349.07   14.30
  -3   7  -7  121.19   11.50
   3  -7   7  122.19   11.00
   3  -7   7  107.79    9.70
  -4   7  -7   27.90    7.40
   4  -7   7   30.80    6.50
   4  -7   7   27.70    6.60
  -5   7  -7   28.30    8.30
   5  -7   7   34.60    7.90
   5   6  -7   24.00    7.80
  -5  -6   7   15.90    8.00
   4   6  -7    1.80    5.50
  -4  -6   7   -7.90    6.10
   3   6  -7   -5.00    5.70
   3   6  -7    4.90    3.50
  -3  -6   7   14.60    5.90
   2   6  -7   20.90    5.90
  -2  -6   7   18.10    5.50
  -2  -6   7   22.00    5.20
   1   6  -7  463.95   18.30
  -1  -6   7  470.55   18.60
  -1  -6   7  415.06   17.80
   0   6  -7  448.66   17.80
   0  -6   7  438.86   14.90
   0  -6   7  447.06   15.10
   0  -6   7  450.65   17.40
  -1   6  -7    2.50    3.90
   1  -6   7    0.10    4.30
  -2   6  -7  330.57   15.30
   2  -6   7  326.67   13.60
   2  -6   7  348.37   14.60
  -3   6  -7  196.68   14.80
   3  -6   7  175.28   10.50
   3  -6   7  165.68   10.80
  -4   6  -7   13.50    6.80
   4  -6   7   16.70    6.00
  -5   6  -7   34.50    7.30
   5  -6   7    7.50    8.10
  -6   6  -7   10.00    8.00
   6  -6   7   11.80    7.90
   6   5  -7    4.60    6.90
   6   5  -7   14.60    6.90
  -6  -5   7   -5.00    6.80
   5   5  -7   26.80    6.50
   5   5  -7   25.70    5.50
  -5  -5   7   26.90    6.80
   4   5  -7   92.39    9.00
   4   5  -7   76.99    7.40
  -4  -5   7   84.39   10.00
   3   5  -7  330.37   14.20
   3   5  -7  325.87   12.80
  -3  -5   7  311.17   15.00
   2   5  -7  303.97   11.70
   2   5  -7  317.97   13.60
  -2  -5   7  302.07   13.90
  -2  -5   7  282.77   11.30
   1   5  -7   69.69    6.10
   1   5  -7   66.59    7.20
  -1  -5   7   48.20    5.90
  -1  -5   7   67.69    7.50
  -1  -5   7   58.09    5.90
   0   5  -7  780.52   25.00
   0  -5   7  723.53   23.10
   0  -5   7  793.42   25.00
   0  -5   7  793.92   23.50
  -1   5  -7  296.17   13.20
   1  -5   7  268.97   11.80
   1  -5   7  286.17   12.40
  -2   5  -7   11.20    4.40
   2  -5   7   11.30    4.00
   2  -5   7   10.10    4.20
  -3   5  -7    1.50    4.20
   3  -5   7   -1.40    3.30
   3  -5   7   -3.20    4.10
   4  -5   7   24.70    4.30
   4  -5   7   33.60    6.60
  -5   5  -7   20.30    6.60
  -6   5  -7   48.00    9.20
   6  -5   7   45.30    9.30
  -7   5  -7  136.59   15.20
   7  -5   7  110.09   14.70
   7   4  -7   -6.80    6.60
  -7  -4   7   -5.60    6.90
   6   4  -7   14.20    6.00
   6   4  -7   10.40    6.00
  -6  -4   7    4.70    6.40
   5   4  -7   25.50    5.60
   5   4  -7   27.40    5.30
  -5  -4   7   33.80    6.50
   4   4  -7  136.79    8.80
   4   4  -7  127.39    8.70
  -4  -4   7  138.79   11.00
   3   4  -7  292.77   11.90
   3   4  -7  284.77   12.00
  -3  -4   7  277.67   13.50
   2   4  -7  929.21   28.20
   2   4  -7  935.81   27.80
  -2  -4   7  974.10   29.80
   1   4  -7  615.24   20.20
   1   4  -7  637.74   19.80
  -1  -4   7  652.33   19.90
  -1  -4   7  573.54   19.20
  -1  -4   7  628.54   21.00
   0   4  -7   25.60    4.40
   0  -4   7   26.10    4.00
   0  -4   7   14.90    3.40
  -1   4  -7    5.10    3.30
   1  -4   7   10.20    3.40
   1  -4   7    4.40    3.00
  -2   4  -7   68.49    6.10
  -2   4  -7   80.39    7.00
   2  -4   7   74.19    5.80
   2  -4   7   73.09    7.40
  -3   4  -7    1.20    3.50
  -3   4  -7    4.40    3.00
   3  -4   7   -1.70    4.00
  -4   4  -7  276.07   13.30
   4  -4   7  260.57    9.20
   4  -4   7  255.87   14.10
  -5   4  -7  358.16   16.90
   5  -4   7  364.96   17.30
  -6   4  -7   14.90    6.80
   6  -4   7   21.10    7.70
  -7   4  -7   20.30    8.60
   7  -4   7   29.50    9.20
   7   3  -7   11.80    6.80
  -7  -3   7   23.40    8.00
   6   3  -7   -0.60    4.50
   6   3  -7    1.30    4.50
  -6  -3   7   -6.40    5.10
   5   3  -7  272.77   11.80
   5   3  -7  298.97   13.50
   4   3  -7  460.05   15.80
   4   3  -7  479.35   17.00
  -4  -3   7  456.15   18.00
   3   3  -7   65.79    5.80
   3   3  -7   56.49    5.70
  -3  -3   7   51.99    6.20
  -3  -3   7   63.79    6.80
   2   3  -7  117.19    6.70
   2   3  -7  121.59    7.30
  -2  -3   7  119.59    7.00
  -2  -3   7  120.19    7.60
   1   3  -7   80.89    5.70
   1   3  -7   85.49    6.40
  -1  -3   7  100.49    7.30
  -1  -3   7   92.59    6.50
   0   3  -7   16.70    3.40
   0   3  -7   18.10    3.40
   0  -3   7   22.70    3.60
   0  -3   7   17.20    3.30
  -1   3  -7   79.59    6.30
  -1   3  -7   84.39    5.70
   1  -3   7   77.69    5.60
   1  -3   7   82.59    6.30
  -2   3  -7  971.00   29.30
  -2   3  -7 1002.90   26.90
   2  -3   7  981.40   27.30
   2  -3   7  940.91   29.60
  -3   3  -7  724.43   24.00
  -3   3  -7  740.13   20.30
   3  -3   7  733.63   20.80
   3  -3   7  760.72   25.10
  -4   3  -7    3.10    4.10
   4  -3   7    8.60    4.90
  -5   3  -7  222.48   17.60
   5  -3   7  226.28   14.10
  -6   3  -7  112.09   12.40
   6  -3   7  124.09   12.30
  -7   3  -7    4.20    7.40
   7  -3   7    4.60    8.30
   7   2  -7  135.39   12.90
  -7  -2   7  172.08   14.10
   6   2  -7  187.58    9.10
   6   2  -7  215.18   12.90
  -6  -2   7  200.08   13.60
   5   2  -7    2.60    3.70
   5   2  -7    0.50    2.90
  -5  -2   7    1.30    4.80
   4   2  -7  292.27   12.70
   4   2  -7  285.97   10.60
   4   2  -7  280.87   11.20
  -4  -2   7  336.57   14.10
   3   2  -7  121.99    7.70
   3   2  -7  119.09    5.90
  -3  -2   7  123.49    8.50
  -3  -2   7  120.79    6.30
   2   2  -7   70.09    4.70
   2   2  -7   66.09    5.60
  -2  -2   7   64.99    4.80
  -2  -2   7   64.99    6.10
   1   2  -7  118.29    7.30
   1   2  -7  103.89    7.80
  -1  -2   7  109.39    6.80
  -1  -2   7  121.59    6.30
   0   2  -7 1331.37   35.70
   0   2  -7 1295.77   37.00
   0   2  -7 1293.27   35.50
   0  -2   7 1286.77   35.70
   0  -2   7 1275.17   36.90
   0  -2   7 1301.07   35.70
  -1   2  -7  453.95   13.90
  -1   2  -7  444.16   15.00
   1  -2   7  419.86   15.60
  -2   2  -7   11.60    2.20
  -2   2  -7   11.30    3.10
   2  -2   7   21.50    4.20
   2  -2   7   12.80    2.40
  -3   2  -7 1097.69   33.30
   3  -2   7 1138.19   34.60
  -4   2  -7  349.57   15.00
   4  -2   7  357.86   16.00
  -5   2  -7   -1.80    4.50
   5  -2   7    2.70    5.80
  -6   2  -7    2.50    5.60
   6  -2   7    3.30    6.60
  -7   2  -7    0.10    7.60
   7  -2   7   10.80    8.80
   8   1  -7   41.50    9.60
  -8  -1   7   43.00    9.00
   7   1  -7   21.80    6.90
  -7  -1   7   44.50    8.30
   6   1  -7  218.28   14.20
  -6  -1   7  216.28   12.40
   5   1  -7   73.59    7.50
   5   1  -7   57.19    4.30
  -5  -1   7   55.49    7.40
   4   1  -7   -1.00    3.20
   4   1  -7    5.20    1.80
   4   1  -7    2.90    1.80
  -4  -1   7   -0.80    3.80
   3   1  -7  113.89    4.90
   3   1  -7  116.39    4.70
   3   1  -7  122.69    7.50
  -3  -1   7  117.79    8.20
  -3  -1   7  118.19    4.90
   2   1  -7  995.60   26.70
   2   1  -7 1010.30   29.70
  -2  -1   7  995.10   26.90
  -2  -1   7 1011.40   29.40
   1   1  -7  254.67    8.70
   1   1  -7  254.87   10.70
  -1  -1   7  248.68    9.90
  -1  -1   7  257.47    8.90
   0   1  -7  559.04   18.90
   0   1  -7  557.54   17.20
   0  -1   7  574.24   17.30
   0  -1   7  573.94   17.10
  -1   1  -7 2654.43   67.39
  -1   1  -7 2612.34   68.69
  -1   1  -7 2583.44   70.39
   1  -1   7 2676.23   67.59
   1  -1   7 2576.14   70.29
  -2   1  -7  204.78    7.00
  -2   1  -7  192.78    9.10
   2  -1   7  200.48   10.40
   2  -1   7  198.78    7.10
  -3   1  -7   26.10    4.80
   3  -1   7   26.90    5.60
   3  -1   7   28.20    2.30
  -4   1  -7   15.80    4.80
   4  -1   7   24.50    6.40
  -5   1  -7   48.10    7.70
   5  -1   7   43.90    7.50
  -6   1  -7   -4.30    5.50
   6  -1   7    8.40    6.60
  -7   1  -7   35.60    8.30
   7  -1   7   41.70   10.20
   8   0  -7   47.90    9.50
  -8   0   7   36.80    9.20
   7   0  -7    8.00    7.30
  -7   0   7   17.30    7.30
   6   0  -7   10.00    5.60
  -6   0   7    7.30    5.60
   5   0  -7   16.00    5.00
  -5   0   7    4.70    4.00
   4   0  -7  291.07   13.00
  -4   0   7  309.77   13.40
   3   0  -7    6.70    3.10
  -3   0   7    0.50    3.30
   2   0  -7 1492.25   37.50
   2   0  -7 1510.95   41.70
  -2   0   7 1436.76   40.70
  -2   0   7 1446.66   37.80
   1   0  -7 2478.35   68.29
   1   0  -7 2540.65   65.39
  -1   0   7 2613.44   65.49
  -1   0   7 2621.94   67.39
   0   0  -7  298.47   12.20
   0   0  -7  300.67   10.70
   0   0  -7  297.37   10.30
   0   0   7  309.27   10.70
   0   0   7  301.07   10.30
  -1   0  -7  356.86   12.60
  -1   0  -7  367.46   14.40
  -1   0  -7  371.96   11.80
   1   0   7  363.86   11.70
   1   0   7  354.06   12.50
   1   0   7  365.26   14.20
  -2   0  -7  142.09    7.90
   2   0   7  136.89    8.80
   2   0   7  146.19    5.70
   2   0   7  147.09    5.90
  -3   0  -7   19.70    4.30
   3   0   7   17.80    4.70
   3   0   7   13.60    2.90
  -4   0  -7   10.80    4.80
   4   0   7    6.90    5.00
  -5   0  -7  316.97   15.10
   5   0   7  354.46   17.00
  -6   0  -7  114.19   10.90
   6   0   7  137.99   12.80
   7   0   7   13.10    8.40
   8  -1  -7   -9.00    7.10
  -8   1   7    2.90    8.10
   7  -1  -7   -7.30    5.60
  -7   1   7    8.70    6.00
   6  -1  -7   48.70    7.70
  -6   1   7   45.50    7.00
   5  -1  -7    5.80    3.90
  -5   1   7    4.60    4.10
   4  -1  -7  973.00   30.40
  -4   1   7  975.00   30.00
   3  -1  -7 1296.47   37.50
  -3   1   7 1276.67   37.20
   2  -1  -7    4.70    3.10
  -2   1   7    2.00    2.50
   1  -1  -7  582.44   16.60
   1  -1  -7  571.44   19.60
  -1   1   7  607.54   18.80
  -1   1   7  607.94   16.70
   0  -1  -7  325.17   10.80
   0  -1  -7  323.57   13.00
   0  -1  -7  305.27   11.30
   0   1   7  316.47   11.30
   0   1   7  327.57   10.80
   0   1   7  318.77   11.60
  -1  -1  -7   19.30    4.20
  -1  -1  -7   15.30    2.90
   1   1   7    8.10    2.60
   1   1   7   20.30    4.00
   1   1   7   12.60    2.60
   1   1   7    7.60    3.00
  -2  -1  -7   61.99    5.50
   2   1   7   71.69    5.00
   2   1   7   64.49    4.20
   2   1   7   69.89    6.80
  -3  -1  -7  539.55   18.60
   3   1   7  531.55   15.20
   3   1   7  525.35   15.60
   3   1   7  546.55   20.10
  -4  -1  -7   49.99    7.40
   4   1   7   53.79    8.10
   4   1   7   44.00    4.40
   5   1   7   -7.30    5.00
  -6  -1  -7  124.49   11.50
   6   1   7  137.79   14.10
  -7  -1  -7   28.80    8.50
   7   1   7   36.40   10.50
   7  -2  -7   22.50    7.10
  -7   2   7   12.80    6.70
   6  -2  -7  532.85   21.30
  -6   2   7  509.75   20.00
   5  -2  -7  184.08   11.30
  -5   2   7  188.58   10.80
   4  -2  -7   51.09    7.00
  -4   2   7   49.20    7.40
   3  -2  -7  759.32   24.60
  -3   2   7  760.52   24.30
   2  -2  -7  114.39    7.70
  -2   2   7  111.09    7.00
  -2   2   7  100.59    3.80
   1  -2  -7    4.10    3.00
   1  -2  -7    6.20    2.00
  -1   2   7    5.40    2.10
  -1   2   7    2.20    2.60
  -1   2   7    3.30    1.80
   0  -2  -7  130.69    7.90
   0  -2  -7  105.19    5.90
   0   2   7  106.19    6.30
   0   2   7  115.49    6.60
  -1  -2  -7  536.05   18.90
  -1  -2  -7  503.25   16.80
   1   2   7  540.55   18.00
   1   2   7  530.95   16.60
   1   2   7  504.85   18.40
  -2  -2  -7  129.09    8.00
   2   2   7  116.59    8.40
   2   2   7  125.29    7.00
   2   2   7  127.29    6.40
  -3  -2  -7  251.67   12.20
   3   2   7  248.08   12.60
   3   2   7  228.28    9.70
  -4  -2  -7  334.17   14.60
   4   2   7  318.87   10.60
   4   2   7  329.47   16.40
  -5  -2  -7   47.50    7.30
   5   2   7   36.70   13.20
  -6  -2  -7    9.50    7.10
   6   2   7   12.50    7.00
  -7  -2  -7    5.50    7.90
   7   2   7   17.10    9.80
   7  -3  -7   11.80    7.90
  -7   3   7   21.00    6.50
   6  -3  -7  137.59   12.90
  -6   3   7  145.89   10.80
   4  -3  -7   64.89    7.70
  -4   3   7   61.29    7.30
   3  -3  -7   21.70    4.90
  -3   3   7   21.50    4.50
   2  -3  -7   39.30    5.70
  -2   3   7   48.70    6.60
  -2   3   7   38.40    3.50
  -2   3   7   43.30    3.50
   1  -3  -7  460.15   17.20
  -1   3   7  449.76   14.30
  -1   3   7  481.45   16.80
  -1   3   7  462.85   14.50
   0  -3  -7    2.10    2.30
   0  -3  -7    8.80    3.70
   0   3   7    6.80    3.30
   0   3   7   11.70    3.20
  -1  -3  -7  678.93   23.10
  -1  -3  -7  675.83   21.50
   1   3   7  689.63   21.40
   1   3   7  700.03   21.80
   1   3   7  676.23   22.80
  -2  -3  -7  882.81   27.00
   2   3   7  853.31   27.90
   2   3   7  860.71   25.50
  -3  -3  -7   58.69    6.80
   3   3   7   61.59    8.90
   3   3   7   48.30    5.40
  -4  -3  -7   52.59    7.40
   4   3   7   45.20    5.50
   4   3   7   58.79    8.70
  -5  -3  -7   26.00    7.30
   5   3   7   25.60    6.90
  -6  -3  -7    4.70    7.70
   6   3   7  -10.90    7.50
   7  -4  -7  134.39   13.60
  -7   4   7  144.59   12.80
   6  -4  -7    7.50    6.50
  -6   4   7    5.10    5.70
   5  -4  -7   20.90    5.70
  -5   4   7    9.70    6.10
   4  -4  -7   10.40    5.10
  -4   4   7    7.20    8.40
   3  -4  -7   14.90    4.50
  -3   4   7   11.30    4.50
  -3   4   7    9.00    2.30
   2  -4  -7   -1.80    3.50
  -2   4   7    3.10    2.50
  -2   4   7    8.70    2.90
  -2   4   7    8.00    3.70
   1  -4  -7  944.31   29.00
  -1   4   7  913.81   26.40
  -1   4   7  860.01   26.20
  -1   4   7  948.01   28.90
   0  -4  -7  740.83   24.50
   0   4   7  703.33   22.30
   0   4   7  726.53   23.60
  -1  -4  -7    6.60    4.20
  -1  -4  -7   13.80    3.90
   1   4   7    8.40    4.00
   1   4   7    7.30    3.70
   1   4   7    3.90    3.70
  -2  -4  -7  252.07   12.00
  -2  -4  -7  253.27   11.70
   2   4   7  272.47   11.50
   2   4   7  269.47   12.40
   2   4   7  254.87   13.10
  -3  -4  -7   99.89    9.30
  -3  -4  -7   88.69    8.00
   3   4   7  106.79    7.80
   3   4   7   73.59    8.30
   3   4   7   98.99    8.80
  -4  -4  -7   -8.00    4.70
  -4  -4  -7   -2.60    4.10
   4   4   7    2.90    4.10
   4   4   7   -2.60    5.00
   4   4   7   -0.60    5.60
  -5  -4  -7   -0.30    5.70
   5   4   7   -6.60    7.10
   5   4   7    6.50    6.80
  -6  -4  -7   13.30    7.90
   6   4   7   27.10    8.50
   6   4   7   23.10    8.00
   6  -5  -7    2.40    6.80
  -6   5   7   -2.70    7.30
   5  -5  -7   23.60    6.20
  -5   5   7   27.10    7.00
  -4   5   7   71.49   10.40
   3  -5  -7  719.13   24.40
  -3   5   7  664.83   20.20
  -3   5   7  667.23   26.70
   2  -5  -7  336.07   15.00
  -2   5   7  299.87   12.00
  -2   5   7  311.77   14.40
   1  -5  -7   54.79    7.60
  -1   5   7   59.99    6.60
  -1   5   7   53.19    7.40
   0  -5  -7  395.46   16.30
   0   5   7  391.26   16.10
   0   5   7  400.16   16.10
   0   5   7  418.66   15.70
  -1  -5  -7   44.30    6.70
  -1  -5  -7   43.70    6.30
   1   5   7   34.80    5.70
   1   5   7   34.80    5.70
   1   5   7   55.29    7.60
   2   5   7    7.50    5.00
   2   5   7   10.80    4.50
  -3  -5  -7    1.90    5.30
  -3  -5  -7   -0.70    4.90
   3   5   7    3.40    5.00
   3   5   7    5.90    5.30
   3   5   7   -2.50    4.60
  -4  -5  -7   33.00    7.50
  -4  -5  -7   37.60    6.50
   4   5   7   37.90    7.60
   4   5   7   43.40    6.40
   4   5   7   28.70    7.60
  -5  -5  -7    6.10    8.10
   5   5   7   -1.50    7.30
   5   5   7   12.40    7.60
   5  -6  -7  239.68   15.90
  -5   6   7  222.88   15.10
   4  -6  -7   58.59    8.70
  -4   6   7   76.89   10.60
   3  -6  -7  172.98   11.90
  -3   6   7  190.58   13.60
   2  -6  -7  424.06   17.70
  -2   6   7  420.66   16.20
  -2   6   7  448.66   18.90
   1  -6  -7   72.99    9.40
  -1   6   7   65.09    9.80
  -1   6   7   84.99    8.20
   0  -6  -7    3.00    5.50
   0   6   7   11.90    4.80
   0   6   7   10.80    4.80
  -1  -6  -7    2.80    5.90
   1   6   7   12.50    6.20
   1   6   7   -0.40    4.90
   1   6   7   13.30    4.80
  -2  -6  -7   49.40    7.70
   2   6   7   58.79    8.50
   2   6   7   47.20    7.30
   2   6   7   44.20    7.20
  -3  -6  -7    9.40    6.00
   3   6   7   -4.00    6.00
   3   6   7    2.20    6.00
   3   6   7    1.30    6.00
  -4  -6  -7   37.50    7.30
   4   6   7   33.70    9.10
   4   6   7   30.30    7.10
   4   6   7   29.90    7.40
   4  -7  -7  254.07   16.50
  -4   7   7  248.48   16.90
   3  -7  -7    4.20    6.30
  -3   7   7   17.50    7.70
   2  -7  -7   22.10    7.00
  -2   7   7   20.00    6.10
  -2   7   7   30.10    7.80
   1  -7  -7    3.60    6.50
  -1   7   7    5.70    5.60
  -1   7   7   -0.70    6.30
   0  -7  -7   17.10    7.40
   0  -7  -7   13.10    6.90
   0   7   7   22.60    6.60
   0   7   7   26.60    7.50
   0   7   7   17.10    6.20
  -1  -7  -7   -0.30    7.20
   1   7   7    8.50    6.20
   1   7   7    1.80    5.50
  -2  -7  -7   84.59   12.80
   2   7   7  117.09   12.30
   2   7   7  121.99   12.60
  -3  -7  -7   92.79   14.10
   3   7   7  105.19   13.90
  -2   8   7   -2.70    8.60
   1  -8  -7    6.00    7.80
  -1   8   7    9.00    7.50
  -1   8   7   -3.90    7.40
   0  -8  -7  116.99   13.80
   0   8   7  121.69   13.50
   0   8   7   87.89   12.30
   3   8  -8   48.40   10.80
  -3  -8   8   34.10    9.20
   2   8  -8  171.78   15.70
  -2  -8   8  184.58   15.10
   1   8  -8   13.20    7.10
  -1  -8   8   31.60    8.10
   0   8  -8   15.50    7.00
   0  -8   8   12.90    7.30
  -1   8  -8    9.80    6.60
   1  -8   8   27.40    7.40
  -2   8  -8   28.40    7.90
   2  -8   8   28.20    8.30
  -3   8  -8    0.80    8.30
   3  -8   8   16.50   12.50
  -4   8  -8   56.59   11.30
   4   7  -8   21.20    9.00
  -4  -7   8   37.30    9.20
   3   7  -8    7.20    6.80
  -3  -7   8    8.00    7.00
   2   7  -8  102.79   11.80
  -2  -7   8  145.39   12.40
   1   7  -8   81.39    9.90
  -1  -7   8   77.29   10.30
   0   7  -8    2.60    5.30
   0  -7   8   -5.10    4.30
  -1   7  -8   33.30    6.70
   1  -7   8   16.40    6.70
   1  -7   8   14.30    4.40
  -2   7  -8  163.98   12.60
   2  -7   8  190.78   13.10
   2  -7   8  162.78   10.60
   3  -7   8   84.09   10.30
   3  -7   8  106.49   11.40
  -4   7  -8    7.10    7.20
   4  -7   8   14.70    7.20
  -5   7  -8  187.68   15.80
   5  -7   8  175.58   15.10
   5   6  -8    5.90    7.20
  -5  -6   8   -0.50    8.00
   4   6  -8  252.97   15.20
  -4  -6   8  286.07   17.70
   3   6  -8   23.00    5.00
   3   6  -8   23.00    6.40
  -3  -6   8   12.90    7.10
   2   6  -8   -2.30    3.60
   2   6  -8    0.50    5.30
  -2  -6   8   -1.90    3.60
  -2  -6   8    8.30    6.20
   1   6  -8    1.40    4.60
  -1  -6   8   20.00    5.60
  -1  -6   8    5.60    3.60
   0   6  -8  172.28   10.90
   0  -6   8  210.28   11.80
   0  -6   8  173.88    9.50
  -1   6  -8   18.50    5.70
   1  -6   8   25.40    4.90
   1  -6   8   32.80    6.00
   2  -6   8  199.98   12.00
   2  -6   8  188.58   11.00
  -3   6  -8  493.85   20.90
   3  -6   8  498.75   18.60
   3  -6   8  510.65   19.40
  -4   6  -8  118.39   11.60
   4  -6   8   88.29   11.50
  -5   6  -8    5.50    7.40
   5  -6   8    8.40    7.10
  -6   6  -8   -9.20    8.60
   6  -6   8   -3.80    8.30
   6   5  -8   83.59   13.40
  -6  -5   8  124.19   14.60
   5   5  -8   35.60    7.60
   5   5  -8   29.00    6.10
  -5  -5   8   34.90    8.70
   4   5  -8    4.60    4.70
   4   5  -8    3.70    5.20
  -4  -5   8    3.50    6.70
   3   5  -8   -0.80    4.60
   3   5  -8   -0.60    4.10
  -3  -5   8   -1.90    4.80
   2   5  -8   55.09    7.10
   2   5  -8   72.89    7.30
  -2  -5   8   74.99    8.10
   1   5  -8    7.20    4.40
   1   5  -8    6.80    3.80
  -1  -5   8    7.80    4.30
  -1  -5   8    5.10    3.70
   0   5  -8  539.95   19.30
   0  -5   8  525.95   18.20
   0  -5   8  533.05   19.30
  -1   5  -8  737.63   24.70
   1  -5   8  723.73   23.60
   1  -5   8  727.03   23.60
  -2   5  -8   81.59    8.60
   2  -5   8   75.39    8.20
   2  -5   8   86.79    7.80
  -3   5  -8  103.49    9.30
   3  -5   8  108.99    9.80
   3  -5   8  101.39    8.30
  -4   5  -8   80.59    9.70
   4  -5   8   79.39    9.00
   4  -5   8   91.69   10.70
  -5   5  -8  -10.20    5.80
   5  -5   8   -2.10    6.60
  -6   5  -8   -7.40    7.90
   6  -5   8    3.20    8.70
   6   4  -8   20.30    6.80
  -6  -4   8   19.10    7.40
   5   4  -8    5.60    5.00
  -5  -4   8   -3.50    6.20
   4   4  -8    8.20    4.80
   4   4  -8   15.50    4.80
  -4  -4   8   14.90    5.70
   3   4  -8   45.10    6.30
   3   4  -8   48.80    6.90
  -3  -4   8   32.10    6.30
   2   4  -8  960.50   28.70
   2   4  -8  926.11   28.50
  -2  -4   8  965.00   30.20
   1   4  -8  427.76   15.80
   1   4  -8  422.16   15.70
  -1  -4   8  433.26   16.60
  -1  -4   8  418.16   15.40
   0   4  -8   15.80    3.90
   0  -4   8   17.70    4.30
  -1   4  -8  393.26   15.50
   1  -4   8  407.36   14.70
   1  -4   8  407.66   15.80
  -2   4  -8  234.38   11.60
   2  -4   8  233.18   10.20
   2  -4   8  245.48   12.00
  -3   4  -8    2.90    4.20
  -3   4  -8   -0.40    3.20
   3  -4   8    3.90    3.60
   3  -4   8   -1.40    4.80
   4  -4   8    8.30    5.80
  -5   4  -8   98.29   11.20
   5  -4   8   99.39   11.40
  -6   4  -8   23.70    8.50
   6  -4   8   45.50    8.80
   7  -4   8   -7.10   10.40
   7   3  -8    6.60    6.70
  -7  -3   8  -12.50    7.00
   6   3  -8    1.30    7.10
  -6  -3   8   -3.60    5.80
   5   3  -8   21.10    4.40
   5   3  -8   27.50    5.50
  -5  -3   8   27.10    6.50
   4   3  -8  397.76   15.80
   4   3  -8  374.96   13.70
  -4  -3   8  366.06   16.30
   3   3  -8  237.88   11.30
   3   3  -8  242.08   10.20
  -3  -3   8  250.07   12.30
   2   3  -8   86.09    7.20
   2   3  -8  107.59    6.80
  -2  -3   8  102.79    8.40
   1   3  -8 1122.59   32.20
   1   3  -8 1131.79   33.40
  -1  -3   8 1143.59   33.30
   0   3  -8  398.06   15.30
   0   3  -8  378.36   14.20
   0  -3   8  399.16   15.10
   0  -3   8  393.96   14.20
  -1   3  -8    0.40    3.30
   1  -3   8   -5.40    3.00
   1  -3   8   -1.80    2.50
  -2   3  -8   31.50    5.00
  -2   3  -8   38.60    4.90
   2  -3   8   30.80    4.50
   2  -3   8   44.10    6.70
  -3   3  -8  139.49    9.30
  -3   3  -8  150.18    6.60
   3  -3   8  165.98    7.10
   3  -3   8  163.98   10.70
  -4   3  -8   41.00    7.30
   4  -3   8   34.60    6.60
  -5   3  -8   79.19   10.20
   5  -3   8   67.29    8.80
  -6   3  -8  153.28   12.90
   6  -3   8  146.39   14.20
  -7   3  -8    5.10    8.10
   7  -3   8   20.40   10.10
   7   2  -8   10.40    7.40
  -7  -2   8    5.80    7.80
   6   2  -8  134.99   11.00
  -6  -2   8  129.09   11.50
   5   2  -8   72.19    9.20
  -5  -2   8   60.69    8.40
   4   2  -8  240.68    9.60
   4   2  -8  240.48    9.20
   4   2  -8  274.67   12.80
  -4  -2   8  248.38   12.60
   3   2  -8  889.21   26.80
   3   2  -8  832.52   23.60
  -3  -2   8  813.42   26.60
  -3  -2   8  815.92   23.80
   2   2  -8  134.09    8.30
  -2  -2   8  140.79    8.20
  -2  -2   8  132.39    6.90
   1   2  -8   26.50    3.70
   1   2  -8   20.60    4.10
  -1  -2   8   17.80    3.70
  -1  -2   8   15.10    3.30
   0   2  -8    0.20    2.50
   0   2  -8    0.00    3.10
   0  -2   8    3.40    3.20
   0  -2   8    2.20    2.70
  -1   2  -8  272.37   10.30
  -1   2  -8  275.57   11.20
   1  -2   8  284.27   12.40
   1  -2   8  282.97   10.40
  -2   2  -8   27.80    4.00
  -2   2  -8   27.00    4.70
   2  -2   8   19.30    3.20
   2  -2   8   26.30    5.10
  -3   2  -8  510.15   14.70
  -3   2  -8  555.44   19.60
   3  -2   8  546.85   20.60
   3  -2   8  512.75   15.00
  -4   2  -8  585.24   21.30
   4  -2   8  528.15   21.70
  -5   2  -8    0.80    5.20
   5  -2   8   -2.20    6.00
  -6   2  -8   11.20    6.90
   6  -2   8    8.40    7.00
  -7   2  -8   25.00    8.90
   7  -2   8   27.80    9.80
   7   1  -8   11.20    6.00
  -7  -1   8   -2.60    6.70
   6   1  -8  245.38   14.90
  -6  -1   8  240.28   13.80
   5   1  -8  470.15   18.70
   4   1  -8   28.30    5.00
  -4  -1   8   29.10    5.60
   3   1  -8   65.49    3.90
   3   1  -8   64.69    3.60
   3   1  -8   62.99    6.70
  -3  -1   8   66.79    4.00
  -3  -1   8   62.99    6.70
   2   1  -8    7.60    1.90
   2   1  -8    8.70    3.70
  -2  -1   8    4.20    2.20
  -2  -1   8    1.50    2.80
   1   1  -8   67.69    4.50
   1   1  -8   65.19    6.40
  -1  -1   8   72.19    5.10
  -1  -1   8   64.99    5.90
   0   1  -8   18.20    4.20
   0   1  -8   20.40    3.30
   0  -1   8   21.40    4.30
   0  -1   8   18.30    3.30
  -1   1  -8  917.21   25.90
  -1   1  -8  920.81   29.10
  -1   1  -8  925.41   27.30
   1  -1   8  909.71   29.00
   1  -1   8  945.21   26.20
  -2   1  -8  878.31   26.50
  -2   1  -8  866.11   23.70
   2  -1   8  855.51   27.90
   2  -1   8  838.72   23.80
  -3   1  -8    1.10    3.60
   3  -1   8    0.60    2.10
   3  -1   8    4.00    4.40
  -4   1  -8  165.18   10.30
   4  -1   8  160.58   11.90
  -5   1  -8  265.17   14.20
   5  -1   8  262.67   15.70
  -6   1  -8    9.80    6.50
   6  -1   8    5.40    7.30
  -7   1  -8    1.10    7.60
   7  -1   8    6.90    9.60
   7   0  -8   95.19   12.90
  -7   0   8   84.29   12.70
   6   0  -8   10.30    5.90
  -6   0   8   21.40    5.90
   5   0  -8   89.39    9.00
  -5   0   8  110.89   13.80
   4   0  -8   80.49    7.50
  -4   0   8   72.39    8.10
   3   0  -8    6.00    3.60
  -3   0   8   10.00    3.90
   2   0  -8  147.19    8.80
   2   0  -8  135.59    5.20
  -2   0   8  139.89    7.90
   1   0  -8 1234.18   37.20
   1   0  -8 1267.67   34.00
  -1   0   8 1293.67   34.10
  -1   0   8 1303.17   36.10
   0   0  -8  588.34   17.90
   0   0  -8  603.84   20.60
   0   0   8  579.34   18.40
   0   0   8  591.44   17.90
  -1   0  -8   68.89    5.20
  -1   0  -8   68.49    5.70
  -1   0  -8   73.09    7.30
   1   0   8   73.79    5.00
   1   0   8   64.79    6.90
   1   0   8   74.39    5.40
  -2   0  -8  795.42   24.70
   2   0   8  791.02   22.10
   2   0   8  787.32   26.50
   2   0   8  793.72   22.20
  -3   0  -8  200.78   10.60
   3   0   8  194.98    7.10
   3   0   8  192.28    6.90
   3   0   8  209.78   12.00
  -4   0  -8   -0.70    4.40
   4   0   8    3.30    5.40
  -5   0  -8   -0.50    5.50
   5   0   8   10.00    6.30
  -6   0  -8   11.60    7.40
   6   0   8   21.30    7.70
  -7   0  -8    1.20    7.70
   7   0   8   -5.20   10.30
  -7   1   8   66.09    9.40
   6  -1  -8    2.70    5.20
  -6   1   8    9.00    5.10
   4  -1  -8  124.49    9.70
  -4   1   8  124.29    9.30
   3  -1  -8  593.44   20.90
  -3   1   8  599.84   20.60
   2  -1  -8   89.59    7.50
  -2   1   8   79.49    4.60
  -2   1   8   83.09    7.00
  -2   1   8   88.79    3.20
   1  -1  -8  515.55   18.60
   1  -1  -8  512.55   15.00
  -1   1   8  501.15   17.10
  -1   1   8  526.55   15.10
   0  -1  -8 1460.95   39.20
   0  -1  -8 1469.15   42.30
   0   1   8 1439.66   39.20
   0   1   8 1442.76   40.00
  -1  -1  -8  267.97   13.00
  -1  -1  -8  273.57   10.90
   1   1   8  268.87   12.90
   1   1   8  259.97   10.60
   1   1   8  271.47   10.00
  -2  -1  -8   39.80    5.70
   2   1   8   24.60    5.20
   2   1   8   38.20    4.10
   2   1   8   43.40    5.10
  -3  -1  -8   10.10    4.20
   3   1   8   12.80    2.40
   3   1   8    6.80    2.90
   3   1   8   15.20    5.20
  -4  -1  -8   48.20    7.30
   4   1   8   55.49    7.70
  -5  -1  -8    8.80    5.70
   5   1   8    8.00    6.30
  -6  -1  -8   57.79    9.20
   6   1   8   58.99   10.60
   7   1   8   46.50   11.00
   7  -2  -8   16.90    7.70
  -7   2   8  -14.20    6.60
   6  -2  -8   16.80    7.20
  -6   2   8   24.80    6.00
   5  -2  -8  275.87   15.20
  -5   2   8  249.18   13.30
   4  -2  -8    4.30    4.10
  -4   2   8   -2.80    4.30
   3  -2  -8  513.95   19.30
  -3   2   8  521.25   18.70
   2  -2  -8 2177.78   59.89
  -2   2   8 2175.98   59.09
  -2   2   8 2124.89   54.49
   1  -2  -8    1.90    2.00
   1  -2  -8    1.60    3.30
  -1   2   8    1.50    2.20
  -1   2   8    1.60    2.20
  -1   2   8    3.80    2.70
   0  -2  -8  133.59    7.10
   0  -2  -8  145.89    9.40
   0   2   8  135.39    7.20
   0   2   8  137.49    7.80
  -1  -2  -8   32.30    5.50
  -1  -2  -8   36.60    5.30
   1   2   8   35.30    5.60
   1   2   8   34.00    4.80
  -2  -2  -8   43.40    6.40
   2   2   8   44.10    4.90
   2   2   8   38.40    5.80
  -3  -2  -8   -0.70    3.80
   3   2   8   -1.20    2.60
   3   2   8   -1.00    4.20
  -4  -2  -8  256.37   13.70
   4   2   8  221.68   14.00
   4   2   8  246.28   10.10
  -5  -2  -8   88.59   11.30
   5   2   8   92.39   11.50
  -6  -2  -8   -8.70    6.80
   6   2   8   -5.20    8.00
   7  -3  -8   32.10    8.50
  -7   3   8   37.90    8.20
   6  -3  -8   17.10    6.70
  -6   3   8   16.40    6.70
   5  -3  -8  499.95   20.60
  -5   3   8  493.65   20.10
   4  -3  -8  531.55   20.50
   3  -3  -8   -1.30    3.70
  -3   3   8    4.30    4.10
   2  -3  -8  129.19    9.10
  -2   3   8  110.99    5.10
  -2   3   8  129.89    9.10
  -2   3   8  120.19    5.50
   1  -3  -8  140.49    9.30
  -1   3   8  129.09    8.40
  -1   3   8  136.19    7.00
   0  -3  -8    9.80    4.90
   0  -3  -8    9.70    3.30
   0   3   8    8.60    3.20
   0   3   8   15.40    4.10
  -1  -3  -8   37.60    5.90
  -1  -3  -8   34.90    4.80
   1   3   8   49.10    6.20
   1   3   8   33.10    5.60
   1   3   8   36.10    5.90
  -2  -3  -8  302.27   13.60
   2   3   8  311.77   14.90
   2   3   8  313.77   12.20
  -3  -3  -8  161.08   10.20
   3   3   8  168.68   11.60
   3   3   8  158.88    8.50
  -4  -3  -8   21.30    6.30
   4   3   8   13.90    4.10
  -5  -3  -8   89.49   11.90
   5   3   8   70.29    9.50
  -6  -3  -8    5.80    8.50
   6   3   8    6.80    8.50
   6  -4  -8   84.09   11.10
  -6   4   8   62.89    9.50
   5  -4  -8   60.39    8.90
  -5   4   8   46.10    7.40
   4  -4  -8  285.37   14.60
  -4   4   8  275.27   15.20
   3  -4  -8   35.30    6.10
  -3   4   8   31.00   10.30
   2  -4  -8    4.40    4.90
  -2   4   8    4.40    2.80
  -2   4   8    2.40    4.00
   1  -4  -8   91.59    9.50
  -1   4   8  100.39    9.10
  -1   4   8  119.49    8.90
  -1   4   8   99.89    6.90
   0  -4  -8  377.86   16.90
   0   4   8  411.66   14.90
   0   4   8  434.06   16.20
  -1  -4  -8   31.20    5.40
  -1  -4  -8   26.00    6.40
   1   4   8   21.70    4.80
   1   4   8   31.80    5.00
   1   4   8   32.30    6.40
  -2  -4  -8  130.59   10.00
   2   4   8  118.39    9.90
   2   4   8  114.49    8.90
   2   4   8  129.49    9.60
  -3  -4  -8  267.77   20.30
   3   4   8  278.07   12.60
   3   4   8  290.87   15.40
  -4  -4  -8   26.40    6.50
   4   4   8   27.20    7.60
   4   4   8   11.20    6.90
  -5  -4  -8   -7.20    7.70
   5   4   8  -10.80    7.50
   5   4   8   -2.00    6.70
   6  -5  -8  114.59   13.80
  -6   5   8  129.49   14.50
   5  -5  -8   11.90    6.30
  -5   5   8    4.50    6.20
   4  -5  -8   18.90    7.30
  -4   5   8    0.40    6.90
  -3   5   8   78.39    9.70
   2  -5  -8  151.48   10.90
  -2   5   8  143.79   10.70
  -2   5   8  131.99    7.90
   1  -5  -8    4.80    5.00
  -1   5   8   11.60    4.20
  -1   5   8   15.90    5.60
   0  -5  -8  282.27   14.80
   0   5   8  264.77   13.70
   0   5   8  268.57   12.30
   0   5   8  262.37   14.00
  -1  -5  -8  439.16   18.90
   1   5   8  417.86   17.10
   1   5   8  394.46   17.40
   1   5   8  393.56   16.70
   2   5   8   15.00    5.30
   2   5   8    7.20    5.30
   2   5   8    1.00    4.70
  -3  -5  -8   48.30    8.30
   3   5   8   39.90    7.90
   3   5   8   37.10    6.30
   3   5   8   46.10    7.90
  -4  -5  -8   -0.90    6.20
   4   5   8   -2.20    6.40
   4   5   8   -7.60    6.40
   5  -6  -8   -2.20    6.90
  -5   6   8    0.10    7.40
   4  -6  -8   50.79    8.90
  -4   6   8   49.50    9.40
   3  -6  -8   15.70    6.70
  -3   6   8    9.80    6.60
   2  -6  -8  388.16   19.90
  -2   6   8  390.46   18.90
   1  -6  -8  320.27   16.20
  -1   6   8  293.37   16.30
  -1   6   8  306.77   14.30
   0  -6  -8   -5.00    6.00
   0   6   8    2.30    6.00
   0   6   8    4.20    4.90
   0   6   8    7.50    5.30
   1   6   8   75.49   10.20
   1   6   8   84.69    9.80
   1   6   8   69.09   10.50
  -2  -6  -8   -5.40    6.00
   2   6   8   16.20    6.30
   2   6   8   13.30    5.90
   2   6   8   -3.10    6.00
  -3  -6  -8   -2.60    6.70
   3   6   8   14.80    8.20
   3   6   8   -1.00    6.50
   3   6   8    9.20    7.00
   3  -7  -8  100.19   13.60
  -3   7   8   93.19   12.60
   2  -7  -8   14.70    7.80
  -2   7   8   17.50    8.00
   1  -7  -8  100.39   17.10
  -1   7   8  113.99   11.90
  -1   7   8  123.59   11.80
   0  -7  -8   18.40    7.50
   0   7   8   11.40    7.00
   0   7   8   32.80    7.60
  -1  -7  -8    2.00    7.90
   1   7   8   -0.20    6.50
   1   7   8    3.80    6.60
   1   7   8    0.70    6.80
   2   8  -9   52.69    9.40
  -2  -8   9   62.39   11.00
   1   8  -9   23.50    9.20
  -1  -8   9   42.10    9.20
   0   8  -9   28.40    8.40
   0  -8   9   24.00    8.40
  -1   8  -9  158.78   14.30
   1  -8   9  163.28   15.20
  -2   8  -9   55.99    9.30
  -3   8  -9   15.30    9.10
   3  -8   9    6.40    9.50
   3   7  -9   10.90    7.90
  -3  -7   9   10.30    8.80
   2   7  -9   83.89   12.00
  -2  -7   9   89.89   13.30
   1   7  -9  264.67   15.20
  -1  -7   9  323.37   17.50
   0   7  -9   67.29   10.90
   0  -7   9   52.19    8.50
  -1   7  -9    7.10    7.20
   1  -7   9   10.30    7.50
   1  -7   9   -4.70    4.60
  -2   7  -9   -2.40    6.60
   2  -7   9   -5.40    4.90
   2  -7   9   -2.00    6.60
  -3   7  -9   10.20    7.30
   3  -7   9  -11.50    6.30
   3  -7   9    0.50    6.40
  -4   7  -9   -1.00    8.60
   4  -7   9   12.20    8.20
  -4  -6   9   45.40    9.50
   3   6  -9  219.28   13.80
  -3  -6   9  258.37   15.40
  -3  -6   9  248.38   14.20
   2   6  -9    3.30    6.00
   2   6  -9    9.10    4.80
  -2  -6   9   19.10    4.80
  -2  -6   9    8.50    6.80
   1   6  -9    7.40    5.00
  -1  -6   9    6.50    4.70
   0   6  -9   97.79   10.40
   0  -6   9   92.49    8.80
   0  -6   9  103.09    9.80
  -1   6  -9   10.40    6.90
   1  -6   9   -7.90    4.70
   1  -6   9   -3.80    5.00
  -2   6  -9   26.80    6.60
   2  -6   9   17.30    6.00
   2  -6   9   16.60    5.80
  -3   6  -9  201.18   13.30
   3  -6   9  211.78   12.60
   3  -6   9  188.48   12.10
  -4   6  -9  138.39   12.80
   4  -6   9  162.48   13.60
  -5   6  -9  -10.30    8.40
   5  -6   9   11.10    8.50
   5   5  -9   88.59   11.30
   5   5  -9  102.99   10.30
  -5  -5   9   94.99   14.30
   4   5  -9    4.80    5.40
   4   5  -9   14.30    5.60
  -4  -5   9   11.90    7.10
   3   5  -9   79.59    9.70
   3   5  -9  108.59    9.60
  -3  -5   9   96.79   10.20
   2   5  -9   38.90    6.00
   2   5  -9   39.30    6.10
  -2  -5   9   41.50    9.70
  -2  -5   9   51.49    7.40
   1   5  -9   -0.20    4.10
   1   5  -9   -0.90    4.10
  -1  -5   9    0.90    4.20
  -1  -5   9    6.80    4.80
   0   5  -9   40.30    6.10
   0  -5   9   47.40    7.20
   0  -5   9   54.89    8.00
  -1   5  -9  313.97   15.00
   1  -5   9  324.57   13.80
   1  -5   9  304.37   14.10
  -2   5  -9  126.69   10.40
   2  -5   9  111.19   10.40
   2  -5   9  119.89    8.80
  -3   5  -9   42.50    7.00
   3  -5   9   58.29    7.90
   3  -5   9   55.49    8.60
  -4   5  -9  253.97   14.90
   4  -5   9  255.27   16.00
  -5   5  -9   90.69   11.80
   5  -5   9  114.49   14.50
  -6   5  -9   -2.90    8.30
   6  -5   9    9.00    9.40
   6   4  -9   24.80    7.90
  -6  -4   9   35.60    8.60
   5   4  -9  107.19   11.60
   5   4  -9  137.99   10.60
  -5  -4   9  115.89   13.60
   4   4  -9   47.00    6.50
   4   4  -9   52.29    7.50
  -4  -4   9   31.60    6.50
   3   4  -9    4.90    4.60
   3   4  -9    1.20    4.00
   2   4  -9   21.30    4.50
   2   4  -9   22.90    4.50
  -2  -4   9   22.60    5.60
   1   4  -9  346.97   14.60
   1   4  -9  335.07   13.60
  -1  -4   9  324.77   14.10
  -1  -4   9  325.37   14.20
   0   4  -9   65.19    7.60
   0  -4   9   92.19    7.70
   0  -4   9   66.89    7.40
  -1   4  -9  354.26   14.70
   1  -4   9  325.57   13.40
   1  -4   9  340.57   15.10
  -2   4  -9  419.76   16.90
   2  -4   9  416.56   17.10
   2  -4   9  414.26   15.00
  -3   4  -9  218.68   12.30
   3  -4   9  182.18    9.30
   3  -4   9  179.38   12.20
  -4   4  -9    0.70    5.70
   4  -4   9    6.30    6.40
  -5   4  -9   14.60    7.40
   5  -4   9   15.70    7.20
  -6   4  -9   -4.40    9.40
   6   3  -9   20.30    7.50
  -6  -3   9    3.20    6.80
   5   3  -9   14.80    6.10
  -5  -3   9   26.50    7.70
   4   3  -9   10.40    3.60
   4   3  -9    4.90    5.10
  -4  -3   9    8.30    5.60
   3   3  -9  107.69    8.50
   3   3  -9  111.09    7.30
  -3  -3   9  105.99   10.00
   2   3  -9    0.20    4.10
   2   3  -9   -1.80    3.00
  -2  -3   9    3.70    3.90
   1   3  -9  736.33   23.10
   1   3  -9  759.52   25.00
  -1  -3   9  743.03   24.30
   0   3  -9  963.60   28.80
   0   3  -9  956.30   30.30
   0  -3   9  954.30   28.80
   0  -3   9  966.80   30.10
  -1   3  -9  115.19    7.80
   1  -3   9  102.69    9.50
   1  -3   9  113.69    7.20
  -2   3  -9  195.18   10.80
  -2   3  -9  177.28    8.50
   2  -3   9  194.98    8.90
   2  -3   9  188.88   11.20
  -3   3  -9   25.80    5.70
   3  -3   9   30.30    6.40
   3  -3   9   25.10    3.50
  -4   3  -9    1.30    5.10
  -5   3  -9    3.20    6.10
   5  -3   9   -1.40    7.00
  -6   3  -9   95.59   14.10
   6  -3   9   91.29   13.40
   7   2  -9   -4.20    7.70
  -7  -2   9    4.90    7.80
   6   2  -9    4.20    6.00
  -6  -2   9   10.60    7.70
   5   2  -9   23.40   11.30
  -5  -2   9   30.40    7.50
   4   2  -9    4.00    4.90
   4   2  -9   11.80    3.00
   3   2  -9  627.94   19.60
   3   2  -9  641.84   22.30
  -3  -2   9  638.04   22.30
  -3  -2   9  643.54   20.90
   2   2  -9  609.94   18.60
   2   2  -9  633.54   21.60
  -2  -2   9  597.14   18.90
  -2  -2   9  626.34   21.10
   1   2  -9    2.80    3.50
   1   2  -9    4.30    2.80
  -1  -2   9    2.10    3.30
  -1  -2   9    4.20    3.60
   0   2  -9  482.55   16.40
   0   2  -9  484.65   18.50
   0  -2   9  496.55   18.40
   0  -2   9  494.15   16.80
  -1   2  -9  242.98   10.90
   1  -2   9  234.68   10.00
   1  -2   9  258.57   12.40
  -2   2  -9    7.00    4.10
  -2   2  -9   -2.40    2.80
   2  -2   9    3.70    4.20
  -3   2  -9    7.70    4.70
   3  -2   9    8.90    2.70
   3  -2   9    8.40    5.30
  -4   2  -9  134.59   11.80
  -5   2  -9  124.09   11.90
   5  -2   9  155.58   13.50
  -6   2  -9   25.40    8.10
   6  -2   9    9.30    8.20
   7   1  -9   14.10    7.80
  -7  -1   9   23.00    8.10
   6   1  -9   35.00    8.10
  -6  -1   9   26.60    7.10
   5   1  -9  320.77   15.40
  -5  -1   9  296.97   15.60
   4   1  -9  261.57   13.80
  -4  -1   9  248.78   13.10
   3   1  -9   81.69    8.00
   3   1  -9   85.39    4.30
  -3  -1   9   87.69    4.50
  -3  -1   9   74.19    8.20
   2   1  -9  695.33   23.50
   2   1  -9  687.53   19.60
  -2  -1   9  696.43   22.90
  -2  -1   9  665.83   19.70
   1   1  -9  135.39    6.90
   1   1  -9  140.69    9.30
  -1  -1   9  134.09    7.00
  -1  -1   9  137.89    8.30
   0   1  -9   -0.80    2.60
   0   1  -9    4.20    4.30
   0  -1   9    0.80    3.40
   0  -1   9   -2.20    2.80
  -1   1  -9   14.70    4.00
  -1   1  -9   14.30    4.80
   1  -1   9   10.00    4.40
   1  -1   9   12.00    2.90
  -2   1  -9  280.57   10.30
  -2   1  -9  285.77   12.40
   2  -1   9  293.47   14.10
  -3   1  -9   24.80    5.70
   3  -1   9   29.50    6.70
   3  -1   9   24.00    3.00
  -4   1  -9  243.68   13.00
   4  -1   9  228.18   15.10
  -5   1  -9  135.69   12.50
   5  -1   9  118.79   12.90
  -6   1  -9   25.20    7.70
   6  -1   9   17.90    8.60
  -7   0   9   76.39   11.10
   6   0  -9   19.70    7.70
  -6   0   9   24.40    6.90
   5   0  -9  330.17   15.80
   4   0  -9  459.35   18.70
  -4   0   9  437.66   18.30
   3   0  -9   88.19    8.80
  -3   0   9   82.79    7.50
   2   0  -9   38.90    5.80
   2   0  -9   42.50    3.20
  -2   0   9   42.00    3.70
  -2   0   9   42.70    5.70
   1   0  -9  156.28    9.80
   1   0  -9  145.39    6.70
  -1   0   9  149.29    8.50
  -1   0   9  152.58    7.00
   0   0  -9  164.28    7.90
   0   0  -9  163.98   10.30
   0   0   9  152.48   10.00
   0   0   9  152.98    7.90
   0   0   9  155.78    8.20
  -1   0  -9   -1.20    3.80
  -1   0  -9    0.80    3.10
   1   0   9   -4.20    2.30
   1   0   9   -3.10    3.70
  -2   0  -9  464.05   17.00
   2   0   9  453.45   14.40
   2   0   9  464.85   18.90
   2   0   9  439.16   14.50
  -3   0  -9  498.95   18.80
   3   0   9  496.05   20.20
   3   0   9  460.15   14.20
  -4   0  -9    2.80    4.60
   4   0   9    1.60    5.90
  -5   0  -9   39.40    7.70
   5   0   9   43.50    8.60
  -6   0  -9   20.10    8.30
   6   0   9   16.80    8.40
   7  -1  -9  114.89   13.90
  -7   1   9  128.39   13.10
   6  -1  -9  215.48   14.40
  -6   1   9  211.08   13.60
   5  -1  -9   14.20    5.40
  -5   1   9   -8.10    5.60
   4  -1  -9   92.19   10.70
  -4   1   9  103.39   13.60
   3  -1  -9    0.70    4.00
  -3   1   9   -2.70    4.00
   2  -1  -9   67.59    7.60
  -2   1   9   75.29    6.90
   1  -1  -9   22.00    2.90
   1  -1  -9   17.60    4.80
  -1   1   9   22.40    3.20
  -1   1   9   14.20    3.70
   0  -1  -9 1064.79   30.00
   0  -1  -9 1081.59   33.60
   0   1   9 1076.19   31.00
   0   1   9 1073.69   33.40
   0   1   9 1017.50   29.90
  -1  -1  -9  695.93   24.70
  -1  -1  -9  665.03   21.30
   1   1   9  659.93   20.70
   1   1   9  678.73   23.90
  -2  -1  -9    5.30    3.40
   2   1   9   -3.20    4.20
   2   1   9    1.10    2.60
   2   1   9    4.10    3.60
  -3  -1  -9  223.98   12.10
   3   1   9  199.98    9.00
   3   1   9  222.68   13.20
   4   1   9   44.50    8.70
  -5  -1  -9   -1.30    5.90
   5   1   9   -6.40    7.40
  -6  -1  -9    0.50    7.30
   6   1   9   -2.10    7.40
   7  -2  -9   -4.20    8.80
  -7   2   9  -11.00    7.60
   6  -2  -9   45.70    8.50
  -6   2   9   46.80    8.60
   5  -2  -9   -3.60    5.10
  -5   2   9   -1.40    5.70
   4  -2  -9    8.30    5.50
  -4   2   9   -3.10    4.20
   3  -2  -9  133.09   10.70
  -3   2   9  128.89   10.00
   2  -2  -9  416.06   17.40
  -2   2   9  437.66   16.80
   1  -2  -9  398.36   16.50
   1  -2  -9  374.66   12.60
  -1   2   9  387.36   12.70
  -1   2   9  384.86   12.60
  -1   2   9  386.96   14.90
   0  -2  -9  110.69    9.30
   0  -2  -9   98.19    6.70
   0   2   9  106.79    7.70
   0   2   9  100.39    8.90
  -1  -2  -9  433.16   15.90
  -1  -2  -9  430.86   18.30
   1   2   9  445.66   18.00
   1   2   9  443.66   15.40
  -2  -2  -9  159.68   10.00
   2   2   9  157.98    8.20
   2   2   9  161.88   11.00
  -3  -2  -9    2.80    5.10
   3   2   9    2.80    3.00
   3   2   9    0.50    5.20
  -4  -2  -9   -4.70    4.90
   4   2   9    3.50    7.00
  -5  -2  -9   23.80    7.60
   5   2   9   30.50    9.30
  -6  -2  -9    5.60    8.40
   6   2   9    7.70    8.10
   6  -3  -9    2.40    7.10
  -6   3   9   -4.90    6.20
   5  -3  -9   82.89   10.50
  -5   3   9   71.69   10.10
   4  -3  -9  422.36   18.90
  -4   3   9  429.06   18.20
   3  -3  -9   39.20   10.60
   2  -3  -9  313.27   15.00
  -2   3   9  271.37    9.40
  -2   3   9  296.67   13.50
   1  -3  -9  675.83   24.20
  -1   3   9  659.13   20.20
  -1   3   9  697.73   23.20
   0  -3  -9   59.79    6.10
   0  -3  -9   53.59    7.80
   0   3   9   50.59    5.90
   0   3   9   57.99    7.40
   0   3   9   66.39    9.10
  -1  -3  -9   38.90    6.30
  -1  -3  -9   46.00    7.00
   1   3   9   43.20    5.50
   1   3   9   52.89    8.00
   1   3   9   47.10    7.00
  -2  -3  -9    9.60    4.60
   2   3   9    5.60    5.30
   2   3   9    0.70    3.80
  -3  -3  -9   17.90    5.80
   3   3   9   25.90    4.70
   3   3   9   28.20    7.90
  -4  -3  -9    5.20    6.60
   4   3   9   -3.60    6.50
  -5  -3  -9   36.20    8.10
   5   3   9   29.20    8.60
   6  -4  -9   78.29   10.80
  -6   4   9   77.69   10.80
   5  -4  -9    7.00    6.80
  -5   4   9  -13.10    6.50
   4  -4  -9  348.87   18.20
  -4   4   9  350.46   17.90
   3  -4  -9  500.75   20.70
  -3   4   9  535.95   21.30
   2  -4  -9   14.30    5.50
  -2   4   9    6.80    5.60
   1  -4  -9   44.40    6.90
  -1   4   9   78.19    8.20
  -1   4   9   60.29    6.40
   0  -4  -9    8.20    5.50
   0   4   9    2.50    4.40
   0   4   9    4.10    4.60
   0   4   9    9.20    3.90
  -1  -4  -9   33.40    5.70
  -1  -4  -9   28.50    7.10
   1   4   9   22.40    6.80
   1   4   9   35.70    5.50
   1   4   9   40.30    5.90
  -2  -4  -9    7.50    5.40
   2   4   9    7.30    6.00
   2   4   9    3.50    4.50
   2   4   9   10.80    5.40
  -3  -4  -9  129.79   10.90
   3   4   9  125.59   11.80
   3   4   9  139.29    9.60
   3   4   9  105.79   10.30
  -4  -4  -9   71.19   10.60
   4   4   9   98.49   13.40
   4   4   9   54.49    9.30
   5  -5  -9  192.58   15.20
  -5   5   9  175.38   16.20
   4  -5  -9   -1.70    6.30
  -4   5   9    6.80    7.00
   3  -5  -9   99.69   12.00
  -3   5   9   74.89    9.80
   2  -5  -9   20.50    6.90
  -2   5   9   12.70    5.70
  -1   5   9   15.70    5.90
  -1   5   9   22.30    4.90
   0  -5  -9   17.90    7.00
   0   5   9   21.40    5.50
   0   5   9   32.70    6.90
   0   5   9   22.80    7.30
   1   5   9  193.48   12.40
   1   5   9  219.58   13.00
   2   5   9   48.50    7.40
   2   5   9   70.79    9.70
   2   5   9   48.70    7.50
  -3  -5  -9    8.50    7.70
   3   5   9   10.30    6.40
   3   5   9   22.20    6.50
   3   5   9    9.50    5.90
   4  -6  -9   -7.40    8.10
  -4   6   9   -3.70    8.50
   3  -6  -9   -8.10    8.00
  -3   6   9   11.70    7.40
   2  -6  -9   41.00    8.90
  -2   6   9   45.00    8.80
   1  -6  -9  215.58   15.50
  -1   6   9  210.68   14.00
   0  -6  -9   10.80    7.60
   0   6   9   24.20    6.30
   0   6   9   14.80    6.80
   0   6   9   41.30    7.60
   1   6   9   35.80    8.40
   1   6   9   59.99    8.60
   1   6   9   60.89    8.60
   2   6   9  132.59   13.50
   2   6   9  102.09   12.40
   2   6   9   90.99   12.90
   2   7 -10    6.40    7.70
  -2  -7  10    8.70    7.60
   1   7 -10  117.79   11.90
  -1  -7  10  129.69   12.50
   0   7 -10  156.58   14.30
   0  -7  10  188.68   14.00
  -1   7 -10    2.90    7.60
   1  -7  10   -0.40    6.40
   1  -7  10    7.00    7.10
  -2   7 -10   94.69   12.10
   2  -7  10   90.49   12.20
   2  -7  10   80.29   10.40
  -3   7 -10   51.29    9.50
   3  -7  10   56.29   13.20
   4   6 -10   16.00    7.10
  -4  -6  10    5.50    8.40
  -3  -6  10  161.38   13.70
   2   6 -10   61.09    7.80
   2   6 -10   76.29   15.10
  -2  -6  10   69.69    9.70
  -2  -6  10   73.79    9.90
  -1  -6  10   81.49    9.80
  -1  -6  10   88.39   11.90
   0   6 -10  180.58   13.30
   0  -6  10  208.48   12.00
   0  -6  10  204.48   20.90
  -1   6 -10  111.49   12.10
   1  -6  10  131.19   11.50
   1  -6  10  109.39   11.40
  -2   6 -10    3.40    6.20
   2  -6  10   14.40    6.00
   2  -6  10    0.50    6.00
  -3   6 -10   -7.20    7.20
  -4   6 -10   62.79   10.40
   4  -6  10   52.29    9.60
  -5  -5  10   49.40   10.70
   4   5 -10    3.10    6.60
   4   5 -10    4.00    5.70
  -4  -5  10   -9.50    7.10
   3   5 -10  145.89   11.00
   3   5 -10  122.79   10.60
  -3  -5  10   91.79   11.40
   2   5 -10  295.87   14.30
   2   5 -10  293.27   14.70
  -2  -5  10  315.57   16.30
  -2  -5  10  294.37   14.30
   1   5 -10   93.69    9.60
   1   5 -10  100.39    9.40
  -1  -5  10   84.69    9.10
  -1  -5  10   76.69    9.40
   0   5 -10   10.30    5.40
   0  -5  10   14.20    5.20
   0  -5  10    5.60    4.80
  -1   5 -10    5.80    5.50
   1  -5  10    3.60    4.70
   1  -5  10    2.10    5.20
  -2   5 -10   12.80    5.70
   2  -5  10   21.20    6.30
   2  -5  10   27.40    5.70
  -3   5 -10   10.80    6.50
  -4   5 -10   82.59   11.20
   4  -5  10  102.79   13.50
  -5   5 -10  145.49   14.90
   5  -5  10  108.49   16.20
   5   4 -10  109.09   12.40
  -5  -4  10  112.59   12.90
   4   4 -10  216.58   13.70
   4   4 -10  214.18   11.10
  -4  -4  10  227.08   15.50
   3   4 -10    6.20    5.00
   3   4 -10   11.70    4.80
  -3  -4  10   12.40    6.60
   2   4 -10   61.89    8.80
   2   4 -10   64.99    7.70
  -2  -4  10   51.19    7.90
   1   4 -10    4.50    3.90
   1   4 -10   11.00    4.50
  -1  -4  10   11.00    4.80
  -1  -4  10    5.50    4.40
   0   4 -10   13.40    4.70
   0  -4  10    9.00    5.10
   0  -4  10    3.60    4.60
  -1   4 -10   20.00    5.20
   1  -4  10   13.70    4.60
   1  -4  10    8.20    4.80
  -2   4 -10  422.66   17.50
   2  -4  10  392.86   17.60
   2  -4  10  403.16   15.20
  -3   4 -10  181.48   12.80
   3  -4  10  171.88   13.90
  -4   4 -10    9.90    7.50
   4  -4  10    0.50    7.20
  -5   4 -10  150.88   15.40
   5  -4  10  119.09   13.70
   6   3 -10   79.39   11.30
  -6  -3  10   56.79    9.80
   5   3 -10   -6.30    6.30
  -5  -3  10   -3.90    7.10
   4   3 -10  131.59   11.60
  -4  -3  10  129.79   12.40
   3   3 -10   12.50    4.00
   3   3 -10    9.70    5.10
  -3  -3  10   18.80    5.60
   2   3 -10   -3.00    4.50
   2   3 -10    0.70    3.30
  -2  -3  10   -0.30    4.50
   1   3 -10   86.19    7.50
   1   3 -10   91.69    9.20
  -1  -3  10   79.79    9.40
  -1  -3  10   84.09    8.10
   0   3 -10  442.16   17.90
   0   3 -10  407.56   16.00
   0  -3  10  431.96   16.20
   0  -3  10  426.46   17.50
  -1   3 -10  227.58   11.40
   1  -3  10  201.48   12.80
   1  -3  10  206.48   10.20
  -2   3 -10   63.69    7.80
   2  -3  10   55.79    6.60
   2  -3  10   75.89    8.80
  -3   3 -10  288.57   16.10
  -4   3 -10   62.99    9.30
   4  -3  10   48.60    8.80
  -5   3 -10   13.80    7.30
   5  -3  10   10.40    7.90
  -6   3 -10   16.90    8.90
   6  -3  10   20.10    9.10
   6   2 -10   94.09   13.70
  -6  -2  10   71.69   10.90
   5   2 -10    1.00    5.90
  -5  -2  10    6.90    6.80
   4   2 -10   -3.50    5.40
  -4  -2  10    2.40    5.20
   3   2 -10   13.50    5.50
  -3  -2  10   23.60    5.70
   2   2 -10  271.87   10.70
   2   2 -10  292.57   14.10
  -2  -2  10  308.17   13.90
   1   2 -10   26.90    5.60
   1   2 -10   39.10    5.50
  -1  -2  10   28.90    5.10
   0   2 -10  318.97   13.30
   0   2 -10  338.47   15.40
   0  -2  10  345.67   13.60
   0  -2  10  342.17   15.80
  -1   2 -10  665.63   21.90
   1  -2  10  655.33   20.70
   1  -2  10  642.24   23.60
  -2   2 -10  142.49    9.40
   2  -2  10  127.29    7.70
   2  -2  10  150.98   10.90
  -3   2 -10    5.30    4.80
  -4   2 -10   -6.00    5.40
   4  -2  10    6.80    7.50
  -5   2 -10    6.60    6.40
   5  -2  10  -14.80    6.20
  -6   2 -10   15.50    9.60
   6  -2  10  -12.90    8.80
   6   1 -10   10.30    7.40
  -6  -1  10    0.10    6.60
   5   1 -10   26.60    7.40
  -5  -1  10   31.10    7.00
   4   1 -10  172.98   12.10
  -4  -1  10  141.79   10.90
   3   1 -10   -0.50    2.30
   3   1 -10    4.00    4.70
  -3  -1  10    4.30    4.70
   2   1 -10  584.34   21.80
   2   1 -10  568.44   17.30
  -2  -1  10  601.04   21.00
   1   1 -10  579.64   18.40
   1   1 -10  628.24   22.10
  -1  -1  10  584.84   18.70
  -1  -1  10  585.84   20.00
   0   1 -10   24.60    5.80
   0   1 -10   24.70    4.40
   0  -1  10   27.30    4.30
   0  -1  10   24.70    5.60
  -1   1 -10  134.89    8.50
  -1   1 -10  136.69   10.50
   1  -1  10  125.59    7.60
   1  -1  10  128.59   10.10
  -2   1 -10   44.30    6.80
   2  -1  10   65.09    9.70
   2  -1  10   36.20    5.30
  -3   1 -10   -1.80    4.60
   3  -1  10    5.90    5.80
  -4   1 -10    4.80    5.70
   4  -1  10   -8.10    6.30
  -5   1 -10   99.19   11.90
   5  -1  10   95.19   13.40
  -6   1 -10   46.20   10.00
   6  -1  10   32.20    9.80
   6   0 -10   29.00    8.10
  -6   0  10   25.40    7.40
   5   0 -10   22.20    7.60
  -5   0  10   11.40    6.30
   4   0 -10  506.55   20.40
  -4   0  10  473.65   19.50
   3   0 -10  442.76   18.20
  -3   0  10  404.06   17.00
   2   0 -10   31.60    3.60
   2   0 -10   36.70    6.80
  -2   0  10   31.10    5.30
   1   0 -10  662.23   20.90
   1   0 -10  713.73   24.50
  -1   0  10  655.03   20.30
  -1   0  10  711.73   22.50
   0   0 -10    6.50    3.40
   0   0 -10   12.50    5.20
   0   0  10   13.40    3.60
   0   0  10    9.90    4.60
  -1   0 -10    4.90    4.10
  -1   0 -10   13.80    5.00
   1   0  10    7.60    4.60
   1   0  10    1.90    3.00
  -2   0 -10    1.60    4.70
   2   0  10    4.40    3.10
   2   0  10    0.50    4.90
  -3   0 -10  192.48   11.70
   3   0  10  197.28   13.40
   3   0  10  176.78   11.20
  -4   0 -10   77.49   10.20
   4   0  10   90.59   12.00
  -5   0 -10   32.70    8.20
   5   0  10   -0.10    7.80
  -6   0 -10   59.19   10.60
   6   0  10   35.40   10.10
   6  -1 -10  176.28   14.20
  -6   1  10  152.18   13.50
   5  -1 -10   87.79   11.40
  -5   1  10  110.79   10.60
   4  -1 -10  104.09   10.80
  -4   1  10   84.89    9.30
   3  -1 -10  329.47   18.70
  -3   1  10  369.96   17.40
   2  -1 -10   32.90    6.10
  -2   1  10   31.80    5.80
   1  -1 -10    5.80    4.80
  -1   1  10   13.00    3.80
   0  -1 -10   29.90    6.20
   0  -1 -10   36.10    4.70
   0   1  10   36.30    6.40
   0   1  10   41.60    5.30
  -1  -1 -10  265.07   11.90
  -1  -1 -10  274.47   14.60
   1   1  10  273.47   11.50
   1   1  10  281.97   15.20
  -2  -1 -10   19.80    5.10
   2   1  10   23.20    3.90
  -3  -1 -10   91.19    9.00
   3   1  10   81.59    8.40
   3   1  10   97.69   11.00
  -4  -1 -10  191.38   13.10
   4   1  10  186.38   14.70
  -5  -1 -10    4.80    7.10
   5   1  10    1.80    7.80
   6  -2 -10   88.19   13.10
  -6   2  10   89.49   11.90
   5  -2 -10  174.98   13.90
  -5   2  10  209.38   14.40
   4  -2 -10   -2.50    5.80
  -4   2  10    2.60    5.30
   3  -2 -10   16.60    5.80
  -3   2  10    4.80    4.70
  -2   2  10   17.60    5.60
   1  -2 -10  206.48   12.60
  -1   2  10  208.48   11.30
   0  -2 -10   -5.80    5.00
   0  -2 -10   -5.80    3.10
   0   2  10   -2.00    3.60
   0   2  10    1.40    4.70
  -1  -2 -10  475.95   21.00
  -1  -2 -10  462.75   17.20
   1   2  10  473.05   20.70
   1   2  10  487.35   16.90
  -2  -2 -10  301.47   14.20
   2   2  10  309.67   12.50
  -3  -2 -10   10.10    6.60
   3   2  10    3.20    6.00
  -4  -2 -10   35.40    8.20
   4   2  10   42.90    8.50
  -5  -2 -10   -5.30    8.10
   5   2  10    7.40    9.20
   5  -3 -10   23.70    7.30
  -5   3  10    6.40    6.80
   4  -3 -10   18.80    6.90
  -4   3  10    5.50    5.90
   3  -3 -10  129.39   12.20
  -3   3  10   90.99   11.00
   2  -3 -10   33.00    6.80
  -2   3  10   47.30   10.90
   1  -3 -10  374.16   21.40
  -1   3  10  453.45   17.70
  -1   3  10  418.46   14.30
   0  -3 -10  279.57   12.00
   0   3  10  293.47   13.60
   0   3  10  273.27   12.10
  -1  -3 -10   -0.30    4.30
  -1  -3 -10   -2.00    5.60
   1   3  10    0.30    4.20
   1   3  10   -2.40    4.00
   1   3  10   -8.30    5.00
  -2  -3 -10  151.98   10.70
   2   3  10  136.09   11.70
   2   3  10  142.99    9.70
  -3  -3 -10   20.40    6.90
   3   3  10   20.50    7.30
  -4  -3 -10  -11.50    6.80
   4   3  10   14.80    9.20
   5  -4 -10  -12.50    7.40
  -5   4  10   -9.70    6.70
   4  -4 -10   38.00    8.70
  -4   4  10   37.10    7.70
   3  -4 -10  385.86   18.70
  -3   4  10  381.96   18.10
   2  -4 -10  160.88   14.00
  -2   4  10  146.99   11.50
   1  -4 -10   43.20    7.20
  -1   4  10   37.90    7.00
   0  -4 -10  226.98   14.70
   0   4  10  223.08   12.90
   0   4  10  211.18   11.20
   0   4  10  235.98   13.90
  -1  -4 -10   33.60    6.20
  -1  -4 -10   36.30    8.40
   1   4  10   25.00    6.00
   1   4  10   22.60    7.70
   1   4  10   43.10    6.50
  -2  -4 -10   -2.10    6.00
   2   4  10   -5.10    9.80
   2   4  10    1.50    5.80
   2   4  10    1.60    5.40
  -3  -4 -10    5.80    7.10
   3   4  10   -8.00    6.50
   3   4  10    2.90    8.10
   4   4  10   17.20    9.40
   4  -5 -10   12.40    8.90
  -4   5  10   19.10    8.60
   3  -5 -10  131.99   13.40
  -3   5  10  137.29   12.80
   2  -5 -10  250.67   17.10
  -2   5  10  239.38   14.90
   1  -5 -10   30.40    7.80
  -1   5  10   22.40    7.10
   0  -5 -10   -3.50    6.40
   0   5  10    9.70    5.40
   0   5  10    5.10    5.90
   0   5  10   17.50    5.90
   1   5  10   16.20    6.50
   1   5  10    6.70    7.20
   1   5  10    4.00    5.90
   2   5  10   28.40    7.40
   2   5  10   25.70    7.70
   2   5  10   28.10    8.30
   2  -6 -10    3.00    8.60
  -2   6  10   21.20    7.40
   1  -6 -10   -6.90    8.20
  -1   6  10    2.80    7.70
  -1   6  10    1.90    7.40
   0  -6 -10    4.80    8.90
   0   6  10   16.70    8.30
   0   6  10   24.30    8.50
   1   7 -11    6.70    8.20
  -1  -7  11   21.00    7.20
   0   7 -11   50.49    9.20
   0  -7  11   40.40    9.20
  -1   7 -11    5.10    8.30
   1  -7  11    3.40    7.30
  -2   7 -11   75.49   11.80
   2  -7  11   42.00    9.60
   3   6 -11   -3.30    6.30
  -3  -6  11    3.20    8.00
   2   6 -11    6.70    6.70
  -2  -6  11    5.70    6.70
  -2  -6  11   24.50    8.10
   1   6 -11    6.90    7.00
  -1  -6  11    0.10    7.10
   0   6 -11  154.18   12.80
   0  -6  11  184.88   13.60
   0  -6  11  182.58   12.80
  -1   6 -11  240.18   15.10
   1  -6  11  251.57   15.60
   1  -6  11  273.37   15.60
  -2   6 -11    7.20    7.70
   2  -6  11   -2.60    5.80
   2  -6  11   -1.40    7.00
  -3   6 -11   22.40    9.30
   3  -6  11   -8.50    7.40
   4   5 -11   17.60    7.40
  -4  -5  11   -9.30    7.80
   3   5 -11   27.30    6.90
   3   5 -11   17.70    6.10
  -3  -5  11   11.00    7.80
   2   5 -11  201.08   13.80
   2   5 -11  205.98   13.40
  -2  -5  11  210.68   13.70
  -2  -5  11  230.18   14.30
   1   5 -11  186.28   13.50
   1   5 -11  190.48   12.40
  -1  -5  11  184.28   13.30
  -1  -5  11  179.58   12.80
   0   5 -11    2.70    5.80
   0  -5  11    0.70    5.90
   0  -5  11    5.70    6.00
  -1   5 -11  144.39   11.00
   1  -5  11  132.29   11.50
   1  -5  11  130.99   12.00
  -2   5 -11   78.29   10.40
   2  -5  11  102.19   11.00
   2  -5  11  108.79   10.00
  -3   5 -11   -0.50    6.30
   3  -5  11  -11.00    7.80
  -4   5 -11   -2.60    8.90
   4  -5  11    0.10    7.80
   4   4 -11  110.49   13.40
  -4  -4  11  130.69   13.90
   3   4 -11   84.69   11.10
   3   4 -11   88.49    9.00
  -3  -4  11   58.99    9.40
   2   4 -11   55.49    7.70
   2   4 -11   78.19    8.90
  -2  -4  11   45.20    7.30
  -2  -4  11   51.99    8.40
   1   4 -11  262.77   13.30
   1   4 -11  285.27   15.00
  -1  -4  11  306.87   15.70
  -1  -4  11  276.67   14.60
   0   4 -11   73.69    9.20
   0  -4  11   64.29    8.80
   0  -4  11   68.69    9.20
  -1   4 -11    4.20    4.90
   1  -4  11    2.30    4.90
   1  -4  11    1.10    5.50
  -2   4 -11    3.10    5.70
   2  -4  11    2.10    6.50
   2  -4  11    6.60    4.70
  -3   4 -11   38.80    7.90
   3  -4  11   18.20    8.60
  -4   4 -11   11.30    8.50
   4  -4  11  -10.50    7.20
  -5   4 -11   29.80    9.50
   5  -4  11   14.00   10.30
   5   3 -11    1.10    6.60
  -5  -3  11   10.40    8.60
   4   3 -11   89.09   12.20
  -4  -3  11  110.89   13.00
   3   3 -11  300.37   16.60
  -3  -3  11  320.87   16.60
   2   3 -11   55.49    7.50
   2   3 -11   38.00    6.50
   1   3 -11    2.90    3.90
   1   3 -11    7.70    6.20
  -1  -3  11    1.80    5.60
  -1  -3  11   17.10    5.50
   0   3 -11    2.60    4.20
   0   3 -11    9.40    5.10
   0  -3  11    3.20    4.30
   0  -3  11    1.50    5.00
  -1   3 -11   49.20    7.30
   1  -3  11   49.70    6.20
   1  -3  11   40.30    6.80
  -2   3 -11    3.70    5.70
   2  -3  11    4.60    6.00
   2  -3  11    4.40    4.20
  -3   3 -11  196.08   12.90
   3  -3  11  175.08   14.10
  -4   3 -11  154.08   13.30
   4  -3  11  148.09   14.60
  -5   3 -11    4.10    8.20
   5  -3  11    2.00    8.80
   5   2 -11  145.09   14.60
  -5  -2  11  177.58   14.40
   4   2 -11    4.70    6.20
  -4  -2  11   -3.50    6.20
   3   2 -11   35.20    7.70
  -3  -2  11   28.70    6.30
   2   2 -11    0.60    5.30
   2   2 -11    0.20    3.30
  -2  -2  11    2.50    4.80
   1   2 -11   97.79   11.10
   1   2 -11   94.09    7.70
  -1  -2  11  101.19    9.90
  -1  -2  11  104.79    9.10
   0   2 -11  140.59    9.60
   0   2 -11  132.49   11.00
   0  -2  11  146.39   11.00
   0  -2  11  143.19    9.70
  -1   2 -11  387.36   16.10
   1  -2  11  380.36   20.00
   1  -2  11  360.96   14.50
  -2   2 -11  231.08   13.10
   2  -2  11  220.68   10.50
   2  -2  11  241.18   14.20
   3  -2  11    1.80    6.70
  -4   2 -11   96.59   11.30
   4  -2  11  102.99   13.70
  -5   2 -11   21.70    8.70
   5  -2  11   10.70    9.50
   5   1 -11   57.49    9.00
  -5  -1  11   68.89   10.40
   4   1 -11    3.70    6.10
  -4  -1  11   10.80    5.80
   3   1 -11   14.60    6.30
  -3  -1  11   17.10    6.30
  -2  -1  11   66.19    8.10
   1   1 -11  326.87   16.40
   1   1 -11  309.27   12.20
  -1  -1  11  310.77   14.10
   0   1 -11  236.18   11.10
   0   1 -11  234.18   14.00
   0  -1  11  215.28   11.40
   0  -1  11  240.48   14.00
  -1   1 -11  104.69    8.70
   1  -1  11  125.29   12.70
   1  -1  11  111.99    7.70
  -2   1 -11  338.47   15.30
   2  -1  11  304.97   12.60
   2  -1  11  353.86   17.40
   3  -1  11   80.39   11.60
  -4   1 -11    1.60    6.50
   4  -1  11    2.90    7.90
  -5   1 -11    4.50    7.70
   5  -1  11   -6.00    8.30
   5   0 -11   -0.20    6.90
  -5   0  11   -1.50    7.30
   4   0 -11   54.69    8.40
  -4   0  11   64.99    9.60
   3   0 -11  288.97   16.30
  -3   0  11  257.97   14.60
   2   0 -11    4.20    5.60
  -2   0  11    9.20    5.30
   1   0 -11  179.18   14.70
   1   0 -11  168.98    8.30
  -1   0  11  178.88   10.10
   0   0 -11  345.27   20.60
   0   0 -11  378.56   14.20
   0   0  11  394.46   15.10
   0   0  11  392.56   25.50
  -1   0 -11   33.60    7.70
  -1   0 -11   30.60    5.30
   1   0  11   29.10    4.90
   1   0  11   36.40    7.70
  -2   0 -11   -4.10    4.50
   2   0  11   -6.90    6.20
   2   0  11    4.00    3.70
   3   0  11   10.40    6.70
  -4   0 -11   11.10    6.60
   4   0  11    0.70    7.80
  -5   0 -11    7.10    8.20
   5   0  11  -15.80    9.10
   5  -1 -11   61.99   10.70
  -5   1  11   72.59   10.40
   4  -1 -11    5.50    6.30
  -4   1  11    5.90    5.40
   3  -1 -11  456.85   20.10
  -3   1  11  437.16   18.50
   2  -1 -11  399.66   18.80
  -2   1  11  415.96   19.10
   1  -1 -11   19.70    3.80
   1  -1 -11   16.50    6.10
  -1   1  11   23.60    4.90
   0  -1 -11   84.09   10.60
   0  -1 -11   60.49    7.00
   0   1  11   81.59   10.10
   0   1  11   90.19    8.30
  -1  -1 -11    5.30    4.50
  -1  -1 -11   10.60    6.40
   1   1  11   -0.40    5.70
   1   1  11    3.20    4.00
  -2  -1 -11   30.30    6.30
   2   1  11   39.50    8.10
   2   1  11   40.30    5.20
  -3  -1 -11    7.50    6.50
   3   1  11   19.70    7.30
  -4  -1 -11   60.39    9.80
   4   1  11   58.19   10.20
   5   1  11   21.30   10.90
   5  -2 -11  207.38   16.00
  -5   2  11  209.08   15.80
   4  -2 -11  162.38   14.00
  -4   2  11  186.38   13.80
   3  -2 -11    3.10    6.20
  -3   2  11    6.10    5.20
   2  -2 -11  200.98   15.10
  -2   2  11  192.58   12.70
   1  -2 -11   18.60    5.30
   1  -2 -11   21.00    6.80
  -1   2  11    8.80    4.90
   0  -2 -11   -0.60    4.00
   0   2  11   -1.80    5.60
   0   2  11    1.40    4.50
  -1  -2 -11   25.80    5.60
  -1  -2 -11   32.60    7.50
   1   2  11   18.90    6.50
   1   2  11   27.00    5.50
  -2  -2 -11  190.18   12.10
   2   2  11  159.58   13.50
   2   2  11  170.48   10.00
  -3  -2 -11   45.40    8.30
   3   2  11   40.90    8.70
  -4  -2 -11   11.80    7.20
   4   2  11   23.50    9.80
   5  -3 -11   17.20    8.60
  -5   3  11    6.10    8.80
   4  -3 -11  120.09   13.10
  -4   3  11  117.69   12.70
   3  -3 -11   10.50    6.80
  -3   3  11   -5.30    6.10
   2  -3 -11    1.70    6.30
  -2   3  11   -4.30    5.20
   1  -3 -11   18.90    7.00
  -1   3  11   34.50    6.40
   0  -3 -11  148.39   12.80
   0  -3 -11  136.29    9.10
   0   3  11  131.29   13.50
   0   3  11  151.68   11.40
   0   3  11  148.79    9.60
  -1  -3 -11   13.10    8.00
  -1  -3 -11   23.10    5.90
   1   3  11   11.90    5.70
   1   3  11   13.90    5.40
   1   3  11   15.70    7.40
  -2  -3 -11   96.89   10.20
   2   3  11   87.89    9.40
   2   3  11   96.89   13.50
  -3  -3 -11  140.29   13.40
   3   3  11  125.79   14.90
   4  -4 -11  -13.00    8.40
  -4   4  11    0.40    7.00
   3  -4 -11   39.40    9.50
  -3   4  11   26.80    7.50
   2  -4 -11   84.89   12.80
  -2   4  11   88.89   12.30
   1  -4 -11   -1.20    7.40
  -1   4  11   11.00    6.40
   0  -4 -11  213.08   15.60
   0   4  11  220.58   14.30
   0   4  11  201.28   13.80
  -1  -4 -11  161.58   11.90
  -1  -4 -11  137.29   14.20
   1   4  11  139.79   11.60
   1   4  11  142.19   13.10
  -2  -4 -11   -0.60    6.50
   2   4  11    3.60    7.70
   2   4  11    4.00    6.60
   2   4  11    6.20    6.10
   2  -5 -11  263.87   18.80
  -2   5  11  237.08   16.90
   1  -5 -11   93.99   12.30
  -1   5  11  106.09   14.70
  -1   5  11  117.39   13.40
   0  -5 -11   -6.00    7.80
   0   5  11   -0.90    7.20
   0   5  11    7.50    6.80
   1   5  11   42.50    9.70
   1   5  11   40.50   11.30
   1   5  11   39.60    8.60
   1   6 -12   10.50    7.50
  -1  -6  12   -7.60    7.70
   0   6 -12   27.10    8.50
   0  -6  12   25.90    7.90
   0  -6  12   10.60    7.90
  -1   6 -12   99.59   12.10
   1  -6  12   63.69    9.90
   1  -6  12  106.49   12.90
   3   5 -12   -1.10    8.20
  -3  -5  12   12.60    7.70
  -3  -5  12   -3.70    8.30
   2   5 -12   29.10    6.80
   2   5 -12   19.00    7.80
  -2  -5  12   21.40    8.20
  -2  -5  12   14.10    7.40
   1   5 -12   91.09   12.20
   1   5 -12   74.49   11.00
  -1  -5  12   63.99    9.10
  -1  -5  12   91.79   11.60
   0   5 -12   16.10    6.70
   0  -5  12   -6.10    6.80
   0  -5  12    3.40    6.70
  -1   5 -12   96.09   12.20
   1  -5  12  115.99   13.20
   1  -5  12  107.59   11.00
  -2   5 -12  234.28   15.50
   2  -5  12  191.68   16.40
  -3   5 -12   21.60    8.50
   3  -5  12   -3.70    8.20
   4   4 -12   13.50    8.80
   3   4 -12    5.00    7.20
  -3  -4  12   -3.70    7.50
   2   4 -12    2.90    5.10
  -2  -4  12   -2.70    6.50
  -2  -4  12  -10.50    6.60
   1   4 -12  229.78   15.60
   1   4 -12  237.18   13.30
  -1  -4  12  228.38   14.20
  -1  -4  12  260.67   15.00
   0   4 -12  186.58   12.00
   0  -4  12  161.78   12.90
   0  -4  12  174.68   12.10
  -1   4 -12    7.40    5.60
   1  -4  12   10.80    5.50
   1  -4  12    0.30    7.30
  -2   4 -12   22.80    7.00
   2  -4  12   21.70    8.30
  -3   4 -12   12.90    7.50
   3  -4  12   -2.80    8.20
   4  -4  12    8.60    9.90
   4   3 -12    7.00    8.10
  -4  -3  12   24.10    8.00
   3   3 -12  288.47   17.00
  -3  -3  12  272.87   16.90
   2   3 -12  165.48   13.40
   2   3 -12  142.59   12.50
  -2  -3  12  178.08   13.40
   1   3 -12   13.50    4.90
   1   3 -12    8.20    6.90
  -1  -3  12   16.20    7.10
   0   3 -12  141.89   13.20
   0   3 -12  109.99    9.90
   0  -3  12  118.69   10.10
   0  -3  12   94.79   12.50
  -1   3 -12   32.00    7.20
   1  -3  12   22.70    5.70
   1  -3  12   24.20    7.20
  -2   3 -12   -8.10    6.30
   2  -3  12   13.90    6.90
  -3   3 -12    0.70    6.90
   3  -3  12   -0.10    7.70
  -4   3 -12   26.90    9.40
   4  -3  12   28.20   10.80
   4   2 -12   49.80    8.80
  -4  -2  12   22.40    9.00
   3   2 -12   33.30    7.80
  -3  -2  12   41.10    7.50
   2   2 -12  185.38   13.50
  -2  -2  12  157.08   11.90
   1   2 -12  166.38   10.00
   1   2 -12  173.18   13.10
  -1  -2  12  172.68   14.10
  -1  -2  12  168.68   11.60
   0   2 -12   19.40    7.10
   0   2 -12   29.00    6.10
   0  -2  12   28.80    7.30
   0  -2  12   24.10    5.90
  -1   2 -12   15.80    6.30
   1  -2  12   23.20    7.50
   1  -2  12   21.60    5.40
  -2   2 -12   84.29   12.80
   2  -2  12   94.09   11.70
  -3   2 -12    5.90    7.40
   3  -2  12   13.50    8.90
  -4   2 -12   59.99   10.50
   4  -2  12   37.50    9.90
   5   1 -12   68.29   11.10
  -5  -1  12   56.49   10.70
   4   1 -12  182.98   14.40
  -4  -1  12  186.98   13.90
   3   1 -12    5.90    6.50
  -3  -1  12    9.90    5.90
   2   1 -12    5.20    6.50
  -2  -1  12   16.40    6.60
   1   1 -12   28.90    4.60
   1   1 -12   28.90    7.70
  -1  -1  12   32.40    6.00
  -1  -1  12   39.30    7.50
   0   1 -12   35.20    7.50
   0   1 -12   31.10    5.60
   0  -1  12   47.60    7.50
   0  -1  12   33.60    5.80
  -1   1 -12    5.70    5.10
   1  -1  12    5.80    6.50
   1  -1  12    1.30    4.50
  -2   1 -12  234.58   14.10
   2  -1  12  258.97   16.70
  -3   1 -12  120.49   13.50
   3  -1  12  155.18   14.70
  -4   1 -12   -5.60    7.10
   4  -1  12   16.40    8.60
   5   0 -12   -3.90    8.10
  -5   0  12  -10.50    6.80
   4   0 -12   17.80    7.90
  -4   0  12    9.60    6.60
   3   0 -12   12.70    7.20
  -3   0  12   -0.40    5.90
   2   0 -12   42.70    8.10
  -2   0  12   34.30    7.10
   1   0 -12   21.30    7.70
  -1   0  12    6.10    5.10
   0   0 -12  352.46   19.20
   0   0 -12  329.07   14.00
   0   0  12  340.57   14.80
   0   0  12  385.86   19.00
  -1   0 -12  190.68   14.40
  -1   0 -12  187.88   11.20
   1   0  12  197.98   14.10
   1   0  12  178.78   10.70
  -2   0 -12   16.00    6.30
   2   0  12    4.10    6.80
  -3   0 -12   87.59   12.00
   3   0  12  109.39   15.00
  -4   0 -12   22.50    7.50
   4   0  12   23.50    9.90
   4  -1 -12    8.30    7.60
  -4   1  12    9.90    7.00
   3  -1 -12   44.60    9.00
  -3   1  12   39.00    7.10
   2  -1 -12  373.96   19.80
  -2   1  12  348.47   17.00
   1  -1 -12  105.49   12.00
   0  -1 -12   56.69    7.30
   0  -1 -12   44.20    8.80
   0   1  12   60.69    8.10
   0   1  12   53.29    8.30
  -1  -1 -12  148.79   13.80
  -1  -1 -12  153.98   10.80
   1   1  12  155.38   10.30
   1   1  12  168.98   13.60
  -2  -1 -12   25.80    6.60
   2   1  12   12.20    7.70
  -3  -1 -12    8.60    7.50
   3   1  12   18.40    8.30
   4  -2 -12   74.79   11.10
  -4   2  12   96.49   13.50
   3  -2 -12   15.60    7.70
  -3   2  12   17.20    7.00
   2  -2 -12  159.18   14.20
  -2   2  12  166.78   13.20
   1  -2 -12  249.88   16.00
  -1   2  12  266.87   14.20
   0  -2 -12   20.90    8.30
   0   2  12   16.20    5.50
   0   2  12   32.60    7.80
  -1  -2 -12  -11.80    7.00
  -1  -2 -12    6.60    5.30
   1   2  12    8.70    7.00
   1   2  12   -9.70    4.90
   2   2  12  -13.10    7.00
  -3  -2 -12   17.50    8.10
   3   2  12   13.60    8.50
   3  -3 -12  110.79   13.50
  -3   3  12  116.89   13.60
   2  -3 -12   -8.80    7.40
  -2   3  12   -9.70    6.40
   1  -3 -12   31.20    8.50
  -1   3  12   26.00    8.40
  -1   3  12   25.80    6.60
   0  -3 -12    4.60    7.20
   0   3  12    6.30    6.20
   0   3  12   17.50    8.00
  -1  -3 -12    0.60    5.50
  -1  -3 -12   -5.50    7.50
   1   3  12   -8.10    5.60
   1   3  12   29.10    8.00
   1   3  12   13.90    6.20
  -2  -3 -12   -2.50    7.20
   2   3  12   -2.10    7.60
   2   3  12   -7.10    6.30
   2  -4 -12    0.90    8.20
  -2   4  12    2.80    7.00
   1  -4 -12   -8.70    8.10
  -1   4  12    8.30    7.90
  -1   4  12   -0.20    8.40
   0  -4 -12    3.20    8.60
   0   4  12   16.50    7.40
   0   4  12    5.90    7.50
   0   5 -13    3.50    7.20
   0  -5  13   15.10    8.30
   0  -5  13   -0.60    7.80
   2   4 -13   -0.80    7.70
  -2  -4  13   -4.00    8.10
  -2  -4  13   -6.30    6.60
   1   4 -13    6.70    7.30
   1   4 -13   16.40    6.30
  -1  -4  13   -7.40    6.60
  -1  -4  13  -13.90    6.70
   0  -4  13  239.68   18.00
   0  -4  13  237.58   15.00
  -1   4 -13    4.90    7.60
   1  -4  13   12.40    7.50
   1  -4  13    6.70    6.60
  -2   4 -13   27.40    9.30
   2  -4  13   44.90   10.70
   3   3 -13   21.30    8.00
  -3  -3  13   28.20    8.50
   2   3 -13   77.49   11.00
  -2  -3  13   88.49   12.60
  -2  -3  13  100.89   14.30
   1   3 -13   -1.20    7.50
  -1  -3  13   -4.50    6.60
   0   3 -13   67.89   10.30
   0   3 -13   62.59    9.80
   0  -3  13   44.90   12.20
   0  -3  13   59.99    9.20
  -1   3 -13  216.98   14.60
   1  -3  13  200.98   17.20
   1  -3  13  207.58   13.00
  -2   3 -13    7.90    7.20
   2  -3  13   36.50    9.20
  -3   3 -13   18.80    7.80
   3  -3  13   -1.00    9.30
   3   2 -13    6.30    9.10
  -3  -2  13    6.70    6.70
   2   2 -13  201.58   15.90
  -2  -2  13  238.28   15.30
   1   2 -13  125.49   13.60
  -1  -2  13  166.48   14.20
  -1  -2  13  142.39   12.50
   0   2 -13    8.60    5.60
   0   2 -13   -3.20    8.10
   0  -2  13   -1.90    6.00
   0  -2  13    1.50    7.70
  -1   2 -13   24.20    7.60
   1  -2  13   24.90    6.10
  -2   2 -13   -0.30    6.70
   2  -2  13   -5.50    7.30
  -3   2 -13    0.50    8.10
   3  -2  13   -7.90    7.60
   3   1 -13  108.99   15.50
  -3  -1  13  107.59   13.00
   2   1 -13   26.60    8.30
  -2  -1  13   12.80    6.40
   1   1 -13   51.99    9.40
  -1  -1  13   54.09    9.10
  -1  -1  13   75.09    9.80
   0   1 -13   19.80    7.90
   0   1 -13   23.90    5.70
   0  -1  13   27.90    6.50
   0  -1  13   37.20    8.90
  -1   1 -13    2.40    6.30
   1  -1  13   -8.80    6.90
   1  -1  13   -6.90    5.10
  -2   1 -13    3.10    7.10
   2  -1  13   18.80    8.00
  -3   1 -13   78.39   10.80
   3  -1  13  110.29   15.70
   3   0 -13  144.09   16.60
  -3   0  13  115.19   13.00
   2   0 -13    9.00    7.50
  -2   0  13   12.20    6.70
   1   0 -13    9.50    7.50
  -1   0  13   -1.20    7.30
  -1   0  13    7.60    5.70
   0   0 -13   13.20    9.00
   0   0  13    9.40    5.90
   0   0  13    1.00    8.10
  -1   0 -13   84.19    9.50
   1   0  13   78.99    9.60
   1   0  13  118.59   13.20
  -2   0 -13   -4.60    6.40
   2   0  13   10.50    8.10
   3   0  13   60.59   10.80
   3  -1 -13  -12.80    8.10
  -3   1  13    7.60    7.30
   2  -1 -13   20.40    8.90
  -2   1  13   23.50    7.20
   1  -1 -13   62.59   10.50
  -1   1  13   41.90    7.20
  -1   1  13   40.20   10.20
   0  -1 -13  -15.20    7.30
   0   1  13   -4.20    6.80
   0   1  13   10.90    6.90
  -1  -1 -13  105.89   10.70
   1   1  13  130.59   14.20
   1   1  13  104.39   10.60
  -2  -1 -13  106.39   12.70
   2   1  13  123.49   14.40
   2  -2 -13   14.30    8.50
  -2   2  13   13.80    7.10
   1  -2 -13  179.58   16.20
  -1   2  13  216.98   17.90
  -1   2  13  181.48   14.30
   0  -2 -13  130.19   15.10
   0   2  13  142.19   13.00
   0   2  13  150.68   14.30
   1   2  13    4.00    7.50
   1   2  13    6.10    8.30
   1   2 -14  128.79   15.40
  -1  -2  14   85.19   10.80
   0   2 -14   36.10    9.90
   0  -2  14   20.50    9.10
   0  -2  14   42.70    8.20
   1   1 -14   82.59   13.30
  -1  -1  14  121.79   12.70
  -1  -1  14  114.09   15.90
   0   1 -14  151.28   17.80
   0  -1  14  131.99   13.40
   0  -1  14  129.39   16.60
   1  -1  14  -14.90    8.10
   1   0 -14    7.70    9.80
  -1   0  14   17.30    7.60
  -1   0  14    3.00    9.50
   0   0 -14   22.80   10.00
   0   0  14   28.30   10.80
   0   0  14   24.90    7.50
   0   0   0    0.00    0.00
_computing_structure_solution     'SHELXT 2014/5 (Sheldrick, 2014)'
;
_shelx_hkl_checksum              76594
_shelx_res_file
;
TITL 180321A-2_a.res in P-1
    180321A-2_a.res
    created by SHELXL-2018/3 at 19:16:30 on 28-Oct-2019
CELL  0.71073   7.3179   8.1089  11.3252   97.050   92.059   95.579
ZERR    2.000   0.0004   0.0005   0.0007    0.002    0.002    0.002
LATT 1
SFAC C  H  N  I
UNIT 28  18  2  4
L.S. 10
ACTA
BOND $H
FMAP 2
PLAN 5
size 0.35 0.32 0.3
conf
EQIV $2 x+1, y, z
HTAB C1 I2_$2
HTAB C6 I1
TEMP 23.000
WGHT    0.018900    0.741300
FVAR       0.49904
I1    4    0.209881    0.453073    0.825947    11.00000    0.05788    0.04585 =
         0.04064    0.00193    0.01030    0.01385
I2    4   -0.089343    0.753743    0.913906    11.00000    0.07000    0.04158 =
         0.04756    0.00849    0.00980    0.02041
N1    3    0.456473    0.359625    0.639978    11.00000    0.05753    0.05111 =
         0.04865    0.00830    0.00349    0.01167
C1    1    0.626749    0.426998    0.661548    11.00000    0.06799    0.05187 =
         0.05768    0.00561   -0.01556    0.00697
AFIX  43
H1    2    0.655445    0.495377    0.733212    11.00000   -1.20000
AFIX   0
C2    1    0.765492    0.402219    0.584071    11.00000    0.04164    0.06711 =
         0.07634    0.02385   -0.01010   -0.00163
AFIX  43
H2    2    0.883874    0.453358    0.603495    11.00000   -1.20000
AFIX   0
C3    1    0.727380    0.302552    0.479362    11.00000    0.03949    0.05527 =
         0.07302    0.02632    0.01345    0.00567
AFIX  43
H3    2    0.819507    0.286190    0.425958    11.00000   -1.20000
AFIX   0
C4    1    0.549248    0.224049    0.451406    11.00000    0.03573    0.04119 =
         0.04878    0.02209    0.00752    0.01093
C5    1    0.417054    0.258694    0.534965    11.00000    0.04143    0.03588 =
         0.04317    0.01350    0.00646    0.01080
C6    1    0.232707    0.186915    0.511910    11.00000    0.04162    0.05366 =
         0.04804    0.00902    0.01470    0.00831
AFIX  43
H6    2    0.144788    0.211154    0.566982    11.00000   -1.20000
AFIX   0
C7    1    0.184407    0.084484    0.411381    11.00000    0.03626    0.05107 =
         0.05647    0.01593    0.00608    0.00339
AFIX  43
H7    2    0.062732    0.038787    0.398340    11.00000   -1.20000
AFIX   0
C8    1    0.312775    0.043094    0.323781    11.00000    0.05075    0.03590 =
         0.04387    0.01441    0.00588    0.00873
C9    1    0.495998    0.114363    0.342392    11.00000    0.04597    0.04170 =
         0.04437    0.01986    0.01356    0.01611
C10   1    0.619913    0.073078    0.254409    11.00000    0.05868    0.06575 =
         0.05206    0.02195    0.02134    0.02285
AFIX  43
H10   2    0.741510    0.119847    0.264207    11.00000   -1.20000
AFIX   0
C11   1    0.564291   -0.034825    0.154644    11.00000    0.09913    0.07991 =
         0.05113    0.01784    0.03129    0.04317
AFIX  43
H11   2    0.648615   -0.060734    0.097457    11.00000   -1.20000
AFIX   0
C12   1    0.384180   -0.106258    0.137349    11.00000    0.11498    0.05905 =
         0.04379    0.00445    0.00660    0.02531
AFIX  43
H12   2    0.347907   -0.180218    0.069304    11.00000   -1.20000
AFIX   0
C13   1    0.261190   -0.067575    0.220325    11.00000    0.07173    0.04718 =
         0.04869    0.00979   -0.00262    0.00949
AFIX  43
H13   2    0.140145   -0.115380    0.208420    11.00000   -1.20000
AFIX   0
C14   1    0.023808    0.535998    0.953611    11.00000    0.05432    0.03897 =
         0.04098   -0.00172    0.00212    0.01059
HKLF 4
REM  180321A-2_a.res in P-1
REM wR2 = 0.0578, GooF = S = 1.082, Restrained GooF = 1.082 for all data
REM R1 = 0.0276 for 2099 Fo > 4sig(Fo) and 0.0441 for all 2701 data
REM 154 parameters refined using 0 restraints
END
WGHT      0.0174      0.7998
REM Highest difference peak  0.800,  deepest hole -0.738,  1-sigma level  0.099
Q1    1  -0.1843  0.6976  0.9331  11.00000  0.05    0.80
Q2    1   0.4956 -0.1569  0.2618  11.00000  0.05    0.71
Q3    1  -0.0193  0.7911  0.9637  11.00000  0.05    0.69
Q4    1   0.2778  0.4840  0.8929  11.00000  0.05    0.67
Q5    1   0.3797 -0.0524 -0.0020  11.00000  0.05    0.66
;
_shelx_res_checksum              75860
loop_
_space_group_symop_operation_xyz
'x, y, z'
'-x, -y, -z'
loop_
_atom_site_type_symbol
_atom_site_label
_atom_site_fract_x
_atom_site_fract_y
_atom_site_fract_z
_atom_site_U_iso_or_equiv
_atom_site_adp_type
_atom_site_calc_flag
_atom_site_occupancy
_atom_site_disorder_assembly
_atom_site_disorder_group
I I1 0.20988(4) 0.45307(3) 0.82595(2) 0.04767(10) Uani d 1 . .
I I2 -0.08934(4) 0.75374(3) 0.91391(3) 0.05167(11) Uani d 1 . .
N N1 0.4565(5) 0.3596(5) 0.6400(3) 0.0518(9) Uani d 1 . .
C C1 0.6267(7) 0.4270(6) 0.6615(4) 0.0597(13) Uani d 1 . .
H H1 0.655445 0.495377 0.733212 0.072 Uiso calc 1 . .
C C2 0.7655(7) 0.4022(6) 0.5841(5) 0.0613(13) Uani d 1 . .
H H2 0.883874 0.453358 0.603495 0.074 Uiso calc 1 . .
C C3 0.7274(6) 0.3026(6) 0.4794(5) 0.0541(12) Uani d 1 . .
H H3 0.819507 0.286190 0.425958 0.065 Uiso calc 1 . .
C C4 0.5492(5) 0.2240(5) 0.4514(4) 0.0399(10) Uani d 1 . .
C C5 0.4171(5) 0.2587(5) 0.5350(4) 0.0389(9) Uani d 1 . .
C C6 0.2327(6) 0.1869(5) 0.5119(4) 0.0470(11) Uani d 1 . .
H H6 0.144788 0.211154 0.566982 0.056 Uiso calc 1 . .
C C7 0.1844(6) 0.0845(5) 0.4114(4) 0.0471(11) Uani d 1 . .
H H7 0.062732 0.038787 0.398340 0.057 Uiso calc 1 . .
C C8 0.3128(6) 0.0431(5) 0.3238(4) 0.0424(10) Uani d 1 . .
C C9 0.4960(6) 0.1144(5) 0.3424(4) 0.0418(10) Uani d 1 . .
C C10 0.6199(7) 0.0731(6) 0.2544(4) 0.0561(12) Uani d 1 . .
H H10 0.741510 0.119847 0.264207 0.067 Uiso calc 1 . .
C C11 0.5643(9) -0.0348(7) 0.1546(5) 0.0730(16) Uani d 1 . .
H H11 0.648615 -0.060734 0.097457 0.088 Uiso calc 1 . .
C C12 0.3842(9) -0.1063(7) 0.1373(4) 0.0716(16) Uani d 1 . .
H H12 0.347907 -0.180218 0.069304 0.086 Uiso calc 1 . .
C C13 0.2612(7) -0.0676(6) 0.2203(4) 0.0555(12) Uani d 1 . .
H H13 0.140145 -0.115380 0.208420 0.067 Uiso calc 1 . .
C C14 0.0238(6) 0.5360(5) 0.9536(4) 0.0449(10) Uani d 1 . .
loop_
_atom_site_aniso_label
_atom_site_aniso_U_11
_atom_site_aniso_U_22
_atom_site_aniso_U_33
_atom_site_aniso_U_12
_atom_site_aniso_U_13
_atom_site_aniso_U_23
I1 0.0579(2) 0.04585(18) 0.04064(16) 0.01385(14) 0.01030(14) 0.00193(12)
I2 0.0700(2) 0.04158(18) 0.04756(18) 0.02041(15) 0.00980(15) 0.00849(13)
N1 0.058(3) 0.051(2) 0.049(2) 0.0117(19) 0.003(2) 0.0083(18)
C1 0.068(3) 0.052(3) 0.058(3) 0.007(3) -0.016(3) 0.006(2)
C2 0.042(3) 0.067(3) 0.076(4) -0.002(2) -0.010(3) 0.024(3)
C3 0.039(3) 0.055(3) 0.073(3) 0.006(2) 0.013(2) 0.026(3)
C4 0.036(2) 0.041(2) 0.049(2) 0.0109(18) 0.008(2) 0.0221(19)
C5 0.041(2) 0.036(2) 0.043(2) 0.0108(18) 0.0065(19) 0.0135(18)
C6 0.042(2) 0.054(3) 0.048(3) 0.008(2) 0.015(2) 0.009(2)
C7 0.036(2) 0.051(3) 0.056(3) 0.003(2) 0.006(2) 0.016(2)
C8 0.051(3) 0.036(2) 0.044(2) 0.0087(19) 0.006(2) 0.0144(18)
C9 0.046(2) 0.042(2) 0.044(2) 0.0161(19) 0.014(2) 0.0199(19)
C10 0.059(3) 0.066(3) 0.052(3) 0.023(2) 0.021(2) 0.022(2)
C11 0.099(5) 0.080(4) 0.051(3) 0.043(4) 0.031(3) 0.018(3)
C12 0.115(5) 0.059(3) 0.044(3) 0.025(3) 0.007(3) 0.004(2)
C13 0.072(3) 0.047(3) 0.049(3) 0.009(2) -0.003(3) 0.010(2)
C14 0.054(3) 0.039(2) 0.041(2) 0.011(2) 0.002(2) -0.0017(18)
loop_
_atom_type_symbol
_atom_type_description
_atom_type_scat_dispersion_real
_atom_type_scat_dispersion_imag
_atom_type_scat_source
C C 0.0033 0.0016 'International Tables Vol C Tables 4.2.6.8 and 6.1.1.4'
H H 0.0000 0.0000 'International Tables Vol C Tables 4.2.6.8 and 6.1.1.4'
N N 0.0061 0.0033 'International Tables Vol C Tables 4.2.6.8 and 6.1.1.4'
I I -0.4742 1.8119 'International Tables Vol C Tables 4.2.6.8 and 6.1.1.4'
loop_
_geom_angle_atom_site_label_1
_geom_angle_atom_site_label_2
_geom_angle_atom_site_label_3
_geom_angle_site_symmetry_1
_geom_angle_site_symmetry_3
_geom_angle
_geom_angle_publ_flag
C1 N1 C5 . . 117.4(4) ?
N1 C1 C2 . . 123.8(5) ?
N1 C1 H1 . . 118.1 ?
C2 C1 H1 . . 118.1 ?
C3 C2 C1 . . 119.2(4) ?
C3 C2 H2 . . 120.4 ?
C1 C2 H2 . . 120.4 ?
C2 C3 C4 . . 120.1(4) ?
C2 C3 H3 . . 120.0 ?
C4 C3 H3 . . 120.0 ?
C3 C4 C5 . . 116.5(4) ?
C3 C4 C9 . . 124.0(4) ?
C5 C4 C9 . . 119.5(4) ?
N1 C5 C4 . . 123.0(4) ?
N1 C5 C6 . . 117.1(4) ?
C4 C5 C6 . . 119.9(4) ?
C7 C6 C5 . . 120.4(4) ?
C7 C6 H6 . . 119.8 ?
C5 C6 H6 . . 119.8 ?
C6 C7 C8 . . 122.3(4) ?
C6 C7 H7 . . 118.9 ?
C8 C7 H7 . . 118.9 ?
C13 C8 C9 . . 119.4(4) ?
C13 C8 C7 . . 121.7(4) ?
C9 C8 C7 . . 118.9(4) ?
C10 C9 C8 . . 118.0(4) ?
C10 C9 C4 . . 123.0(4) ?
C8 C9 C4 . . 119.0(4) ?
C11 C10 C9 . . 120.9(5) ?
C11 C10 H10 . . 119.6 ?
C9 C10 H10 . . 119.6 ?
C10 C11 C12 . . 121.0(5) ?
C10 C11 H11 . . 119.5 ?
C12 C11 H11 . . 119.5 ?
C13 C12 C11 . . 119.5(5) ?
C13 C12 H12 . . 120.3 ?
C11 C12 H12 . . 120.3 ?
C12 C13 C8 . . 121.3(5) ?
C12 C13 H13 . . 119.4 ?
C8 C13 H13 . . 119.4 ?
C14 C14 I2 2_567 . 121.4(4) ?
C14 C14 I1 2_567 . 126.2(4) ?
I2 C14 I1 . . 112.33(18) ?
loop_
_geom_bond_atom_site_label_1
_geom_bond_atom_site_label_2
_geom_bond_site_symmetry_2
_geom_bond_distance
_geom_bond_publ_flag
I1 C14 . 2.116(4) ?
I2 C14 . 2.111(4) ?
N1 C1 . 1.313(6) ?
N1 C5 . 1.363(5) ?
C1 C2 . 1.379(7) ?
C1 H1 . 0.9300 ?
C2 C3 . 1.354(7) ?
C2 H2 . 0.9300 ?
C3 C4 . 1.402(6) ?
C3 H3 . 0.9300 ?
C4 C5 . 1.401(5) ?
C4 C9 . 1.448(6) ?
C5 C6 . 1.418(6) ?
C6 C7 . 1.339(6) ?
C6 H6 . 0.9300 ?
C7 C8 . 1.423(6) ?
C7 H7 . 0.9300 ?
C8 C13 . 1.402(6) ?
C8 C9 . 1.405(6) ?
C9 C10 . 1.403(6) ?
C10 C11 . 1.365(7) ?
C10 H10 . 0.9300 ?
C11 C12 . 1.384(8) ?
C11 H11 . 0.9300 ?
C12 C13 . 1.355(7) ?
C12 H12 . 0.9300 ?
C13 H13 . 0.9300 ?
C14 C14 2_567 1.305(8) ?
loop_
_geom_hbond_atom_site_label_D
_geom_hbond_atom_site_label_H
_geom_hbond_atom_site_label_A
_geom_hbond_site_symmetry_A
_geom_hbond_distance_DH
_geom_hbond_distance_HA
_geom_hbond_distance_DA
_geom_hbond_angle_DHA
C1 H1 I2 1_655 0.93 3.16 4.019(5) 155
C6 H6 I1 . 0.93 3.31 3.945(4) 127
loop_
_geom_torsion_atom_site_label_1
_geom_torsion_atom_site_label_2
_geom_torsion_atom_site_label_3
_geom_torsion_atom_site_label_4
_geom_torsion_site_symmetry_1
_geom_torsion_site_symmetry_2
_geom_torsion_site_symmetry_3
_geom_torsion_site_symmetry_4
_geom_torsion
_geom_torsion_publ_flag
C5 N1 C1 C2 . . . . 0.5(7) ?
N1 C1 C2 C3 . . . . -0.3(8) ?
C1 C2 C3 C4 . . . . -0.9(7) ?
C2 C3 C4 C5 . . . . 1.7(6) ?
C2 C3 C4 C9 . . . . -179.4(4) ?
C1 N1 C5 C4 . . . . 0.5(6) ?
C1 N1 C5 C6 . . . . -179.7(4) ?
C3 C4 C5 N1 . . . . -1.6(6) ?
C9 C4 C5 N1 . . . . 179.5(4) ?
C3 C4 C5 C6 . . . . 178.6(4) ?
C9 C4 C5 C6 . . . . -0.3(6) ?
N1 C5 C6 C7 . . . . -179.0(4) ?
C4 C5 C6 C7 . . . . 0.8(6) ?
C5 C6 C7 C8 . . . . -0.1(7) ?
C6 C7 C8 C13 . . . . 178.4(4) ?
C6 C7 C8 C9 . . . . -1.1(6) ?
C13 C8 C9 C10 . . . . 1.1(6) ?
C7 C8 C9 C10 . . . . -179.4(4) ?
C13 C8 C9 C4 . . . . -177.9(4) ?
C7 C8 C9 C4 . . . . 1.6(6) ?
C3 C4 C9 C10 . . . . 1.3(6) ?
C5 C4 C9 C10 . . . . -179.8(4) ?
C3 C4 C9 C8 . . . . -179.7(4) ?
C5 C4 C9 C8 . . . . -0.9(6) ?
C8 C9 C10 C11 . . . . -0.9(6) ?
C4 C9 C10 C11 . . . . 178.1(4) ?
C9 C10 C11 C12 . . . . 0.1(8) ?
C10 C11 C12 C13 . . . . 0.4(8) ?
C11 C12 C13 C8 . . . . -0.2(7) ?
C9 C8 C13 C12 . . . . -0.5(6) ?
C7 C8 C13 C12 . . . . 180.0(4) ?

_cod_database_fobs_code 2243342
