#------------------------------------------------------------------------------
#$Date: 2020-12-12 07:50:48 +0200 (Sat, 12 Dec 2020) $
#$Revision: 259830 $
#$URL: file:///home/coder/svn-repositories/cod/cif/2/24/37/2243700.cif $
#------------------------------------------------------------------------------
#
# This file is available in the Crystallography Open Database (COD),
# http://www.crystallography.net/. The original data for this entry
# were provided by IUCr Journals, http://journals.iucr.org/.
#
# The file may be used within the scientific community so long as
# proper attribution is given to the journal article from which the
# data were obtained.
#
data_2243700
loop_
_publ_author_name
'Archana, Sreeramapura D.'
'Kavitha, Channappa N.'
'Yathirajan, Hemmige S.'
'Foro, Sabine'
'Glidewell, Christopher'
_publ_section_title
;
 Two 3-amino-1<i>H</i>-pyrazol-2-ium salts containing organic anions, and
 an orthorhombic polymorph of 3-amino-1<i>H</i>-pyrazol-2-ium nitrate
;
_journal_coeditor_code           DX2033
_journal_issue                   1
_journal_name_full               'Acta Crystallographica Section E'
_journal_page_first              34
_journal_page_last               41
_journal_paper_doi               10.1107/S2056989020015959
_journal_volume                  77
_journal_year                    2021
_chemical_formula_iupac          'C7 H3 N2 O6 +, C3 H6 N3 -, H2 O'
_chemical_formula_moiety         'C7 H3 N2 O6 +, C3 H6 N3 -, H2 O'
_chemical_formula_sum            'C10 H11 N5 O7'
_chemical_formula_weight         313.24
_chemical_name_systematic
;
3-Amino-1<i>H</i>-pyrazol-2-ium 3,5-dinitrobenzoate monohydrate
;
_space_group_crystal_system      triclinic
_space_group_IT_number           2
_space_group_name_Hall           '-P 1'
_space_group_name_H-M_alt        'P -1'
_atom_sites_solution_hydrogens   mixed
_atom_sites_solution_primary     difmap
_audit_creation_method           SHELXL-2014
_cell_angle_alpha                79.424(9)
_cell_angle_beta                 85.583(9)
_cell_angle_gamma                75.586(9)
_cell_formula_units_Z            2
_cell_length_a                   6.6864(7)
_cell_length_b                   8.1857(9)
_cell_length_c                   12.6490(10)
_cell_measurement_reflns_used    2812
_cell_measurement_temperature    296(2)
_cell_measurement_theta_max      27.808
_cell_measurement_theta_min      2.607
_cell_volume                     658.78(12)
_computing_cell_refinement
;
CrysAlis RED (Oxford Diffraction, 2009)
;
_computing_data_collection
;
CrysAlis CCD (Oxford Diffraction, 2009)
;
_computing_data_reduction
;
CrysAlis RED (Oxford Diffraction, 2009)
;
_computing_molecular_graphics
;
PLATON (Spek, 2020)
;
_computing_publication_material
;
SHELXL-2014 (Sheldrick, 2015b) and PLATON (Spek, 2020)
;
_computing_structure_refinement
;
SHELXL-2014 (Sheldrick, 2015b)
;
_computing_structure_solution
;
SHELXT (Sheldrick, 2015a)
;
_diffrn_ambient_temperature      296(2)
_diffrn_measured_fraction_theta_full 0.999
_diffrn_measured_fraction_theta_max 0.923
_diffrn_measurement_device_type
;
Oxford Diffraction Xcalibur with Sapphire CCD
;
_diffrn_measurement_method       '\w scans'
_diffrn_radiation_monochromator  graphite
_diffrn_radiation_type           MoK\a
_diffrn_radiation_wavelength     0.71073
_diffrn_reflns_av_R_equivalents  0.0139
_diffrn_reflns_av_unetI/netI     0.0225
_diffrn_reflns_limit_h_max       8
_diffrn_reflns_limit_h_min       -8
_diffrn_reflns_limit_k_max       10
_diffrn_reflns_limit_k_min       -5
_diffrn_reflns_limit_l_max       16
_diffrn_reflns_limit_l_min       -16
_diffrn_reflns_number            4597
_diffrn_reflns_theta_full        25.242
_diffrn_reflns_theta_max         27.542
_diffrn_reflns_theta_min         2.607
_diffrn_source                   'Enhance (Mo) X-ray Source'
_diffrn_standards_decay_%        0
_diffrn_standards_interval_count 0
_diffrn_standards_interval_time  0
_diffrn_standards_number         0
_exptl_absorpt_coefficient_mu    0.136
_exptl_absorpt_correction_T_max  0.995
_exptl_absorpt_correction_T_min  0.886
_exptl_absorpt_correction_type   multi-scan
_exptl_absorpt_process_details
;
(CrysAlis RED; Oxford Diffraction, 2009)
;
_exptl_crystal_colour            yellow
_exptl_crystal_density_diffrn    1.579
_exptl_crystal_description       plate
_exptl_crystal_F_000             324
_exptl_crystal_size_max          0.500
_exptl_crystal_size_mid          0.400
_exptl_crystal_size_min          0.040
_refine_diff_density_max         0.214
_refine_diff_density_min         -0.233
_refine_ls_extinction_method     none
_refine_ls_goodness_of_fit_ref   1.041
_refine_ls_hydrogen_treatment    mixed
_refine_ls_matrix_type           full
_refine_ls_number_parameters     217
_refine_ls_number_reflns         2805
_refine_ls_number_restraints     0
_refine_ls_restrained_S_all      1.041
_refine_ls_R_factor_all          0.0627
_refine_ls_R_factor_gt           0.0441
_refine_ls_shift/su_max          0.000
_refine_ls_shift/su_mean         0.000
_refine_ls_structure_factor_coef Fsqd
_refine_ls_weighting_details
'w=1/[\s^2^(Fo^2^)+(0.0501P)^2^+0.2176P] where P=(Fo^2^+2Fc^2^)/3'
_refine_ls_weighting_scheme      calc
_refine_ls_wR_factor_gt          0.1047
_refine_ls_wR_factor_ref         0.1143
_reflns_number_gt                2093
_reflns_number_total             2805
_reflns_threshold_expression     'I > 2\s(I)'
_cod_data_source_file            dx2033sup1.cif
_cod_data_source_block           I
_cod_database_code               2243700
_shelx_space_group_comment
;
The symmetry employed for this shelxl refinement is uniquely defined
by the following loop, which should always be used as a source of
symmetry information in preference to the above space-group names.
They are only intended as comments.
;
_shelx_estimated_absorpt_t_min   0.935
_shelx_estimated_absorpt_t_max   0.995
_shelx_hkl_file
;
   0   0  -2 57518.4 438.503   5
   0   0  -2 58832.5 118.544   2
   0   0  -3 58479.8 139.997   5
   0   0  -3 58371.6 148.472   2
   0   0  -4 2926.82 41.2379   2
   0   0  -4 2929.01 39.3785   5
   0   0  -5 649.801 28.2095   5
   0   0  -5 648.618 28.7469   2
   0   0  -6 86.7037 25.0084   2
   0   0  -6 68.3042 25.2216   5
   0   0  -7 12861.9 109.040   2
   0   0  -7 11840.5 50.7970   0
   0   0  -7 12631.9 100.952   5
   0   0  -8 4781.78 71.2233   5
   0   0  -8 4338.32 72.5840   2
   0   0  -9 1409.22 51.3877   2
   0   0  -9 1327.75 51.6179   5
   0   0 -10 5402.47 93.6212   2
   0   0 -10 5145.71 87.4431   5
   0   0 -11 324.201 46.4508   2
   0   0 -11 373.277 46.7873   5
   0   0 -12 148.942 46.0773   2
   0   0 -12 193.166 46.1097   5
   0   0 -13 2597.24 80.7035   5
   0   0 -13 2554.40 84.6517   2
   0   0 -14 912.446 61.5696   5
   0   0 -14 1127.49 67.8637   2
   0   0 -15 56.0158 54.1789   2
   0   0 -16 403.190 66.5961   2
   0   1 -15 137.794 56.6142   2
   0   1 -14-12.7798 51.8367   5
   0   1 -14 101.141 49.8725   2
   0   1 -13 184.835 51.2719   5
   0   1 -13 165.552 46.9075   2
   0   1 -12 438.646 53.8208   2
   0   1 -12 460.481 52.8993   5
   0   1 -11 3521.39 81.5893   5
   0   1 -11 3057.39 81.5270   2
   0   1 -10-9.78060 38.9429   5
   0   1 -10 3.12401 36.9377   2
   0   1  -9 828.160 46.6464   2
   0   1  -9 833.481 44.3492   5
   0   1  -8 5860.32 87.9217   2
   0   1  -8 5839.37 80.3658   5
   0   1  -7 409.773 17.9260   0
   0   1  -7 424.683 34.5700   2
   0   1  -7 390.113 33.5426   5
   0   1  -6 44814.5 127.284   0
   0   1  -6 45254.7 197.336   2
   0   1  -6 43604.4 186.031   5
   0   1  -5 13520.0 100.698   2
   0   1  -5 12834.8 72.0898   6
   0   1  -5 13474.0 90.9967   5
   0   1  -5 12882.2 66.1263   0
   0   1  -4 652.181 28.7393   2
   0   1  -4 601.830 17.8760   6
   0   1  -4 702.487 26.3527   5
   0   1  -3 43622.1 147.551   2
   0   1  -3 43277.0 125.821   5
   0   1  -3 43400.4 112.591   6
   0   1  -2 103794. 652.948   5
   0   1  -2 103031. 201.082   2
   0   1  -2 100387. 630.947   6
   0   1  -1 21075.7 64.1729   0
   0   1  -1 20946.2 82.7657   2
   0   1   0 17124.8 52.5458   0
   0  -1  -1 50046.7 331.542   0
   0   1   1 49663.6 332.185   0
   0  -1  -2 36429.1 85.9071   5
   0   1   2 36695.5 122.546   3
   0  -1  -2 36568.8 107.839   2
   0  -1  -2 35939.6 270.184   0
   0  -1  -3 27.4481 16.9132   5
   0  -1  -3 33.8271 17.0981   2
   0  -1  -4 34.8458 16.3176   5
   0  -1  -4 32.0709 17.4346   2
   0  -1  -5 4085.98 52.6135   2
   0  -1  -5 4088.36 50.1232   5
   0  -1  -6 1466.06 39.2705   5
   0  -1  -6 1646.47 41.1948   2
   0  -1  -7 5205.12 71.9904   2
   0  -1  -7 5482.14 68.9680   5
   0  -1  -8 89.7853 27.7802   2
   0  -1  -8 128.053 30.9147   5
   0  -1  -9 162.814 35.4408   2
   0  -1  -9 193.774 35.7578   5
   0  -1 -10 49521.5 261.841   2
   0  -1 -10 50051.6 246.328   5
   0  -1 -11 9269.17 127.283   2
   0  -1 -11 9863.42 121.820   5
   0  -1 -12 11633.7 148.875   2
   0  -1 -12 11349.9 138.099   5
   0  -1 -13 3767.49 96.1904   2
   0  -1 -14 168.347 51.3751   2
   0  -1 -15 145.711 46.8738   2
   0   2 -14 49.1141 46.7369   2
   0   2 -14 29.9242 52.1832   5
   0   2 -13 573.990 58.7222   5
   0   2 -13 696.182 64.2867   2
   0   2 -12 1090.70 61.4612   5
   0   2 -12 1013.59 63.8315   2
   0   2 -11 162.324 45.3112   5
   0   2 -11 227.050 45.3889   2
   0   2 -10 23.5051 39.1716   5
   0   2 -10 13.2588 42.5822   2
   0   2  -9 1374.40 53.3618   5
   0   2  -9 1413.33 59.4948   2
   0   2  -8 2331.48 58.3626   5
   0   2  -8 2268.65 64.2252   2
   0   2  -7 19765.9 153.654   2
   0   2  -7 20178.5 105.761   0
   0   2  -7 19967.4 140.921   5
   0   2  -6 3512.64 68.2178   2
   0   2  -6 3703.14 50.9042   6
   0   2  -6 3792.51 46.8752   0
   0   2  -6 3675.77 58.3808   5
   0   2  -5 4124.42 47.2671   0
   0   2  -5 4186.92 68.7228   2
   0   2  -5 4167.30 56.6207   5
   0   2  -5 4226.65 51.5143   6
   0   2  -4 45.9006 14.7235   6
   0   2  -4 49.5711 28.6842   2
   0   2  -4 69.1322 16.5057   0
   0   2  -4 53.7330 20.1415   5
   0   2  -3 3274.90 43.2561   6
   0   2  -3 3388.70 55.6258   2
   0   2  -3 3499.05 42.4372   5
   0   2  -3 3591.01 41.2734   0
   0   2  -2 5090.55 47.1166   0
   0   2  -2 5241.36 43.7891   5
   0   2  -2 5160.97 51.3450   6
   0   2  -2 5147.24 62.0961   2
   0   2  -1 18400.5 107.308   2
   0   2  -1 18404.2 71.2549   5
   0   2  -1 18416.0 80.8882   0
   0   2   0 21302.1 83.2029   0
   0   2   0 21172.7 119.655   3
   0   2   0 21640.4 112.425   2
   0   2   1 4935.23 55.2847   2
   0  -2  -1 5201.94 42.2771   0
   0   2   1 5119.53 63.2686   3
   0   2   1 5032.26 41.3176   0
   0  -2  -2 5650.70 41.7977   0
   0   2   2 5518.88 66.5421   3
   0   2   2 5697.39 42.8181   0
   0  -2  -3 8964.98 49.3626   0
   0   2   3 8900.34 85.2508   3
   0   2   4 18309.1 124.741   3
   0  -2  -4 18064.0 65.4929   0
   0  -2  -5 2026.33 43.5537   2
   0  -2  -5 1978.23 22.3026   0
   0   2   5 2053.87 51.1528   3
   0  -2  -6 16320.2 56.3586   0
   0   2   6 16509.4 136.035   3
   0  -2  -6 16354.6 117.701   2
   0  -2  -6 17123.8 106.094   5
   0  -2  -7 21353.8 144.178   2
   0   2   7 21186.9 162.174   3
   0  -2  -7 20754.3 130.211   5
   0  -2  -8 3045.03 60.0748   5
   0  -2  -8 3241.69 65.5543   2
   0  -2  -9 5024.85 77.6027   5
   0  -2  -9 5258.85 87.7304   2
   0  -2 -10 35.7890 37.7195   2
   0  -2 -11 22185.4 199.308   2
   0  -2 -12 2150.01 78.1738   2
   0  -2 -13 1585.11 74.3195   2
   0   2  14 14.7599 46.4913   3
   0   2  15 6.58479 46.5841   3
   0   2  16-23.5026 45.3381   3
   0   3 -14-9.03050 53.2675   5
   0   3 -14-48.1405 52.7159   2
   0   3 -13-1.30122 44.5901   2
   0   3 -13-0.89568 44.7529   5
   0   3 -12 85.6129 52.8116   2
   0   3 -12 15.5075 45.1908   5
   0   3 -11 4697.42 95.2195   5
   0   3 -11 4733.85 109.542   2
   0   3 -10 1727.74 63.5725   5
   0   3 -10 1695.54 73.5081   2
   0   3  -9 202.752 47.0858   2
   0   3  -9 216.056 40.4653   5
   0   3  -8 5220.09 82.3820   5
   0   3  -8 4828.43 94.3330   2
   0   3  -7 979.680 43.0985   5
   0   3  -7 951.493 53.4854   2
   0   3  -7 951.086 33.4840   0
   0   3  -6 3338.64 75.5856   2
   0   3  -6 3398.45 51.7423   0
   0   3  -6 3436.33 59.6985   5
   0   3  -6 3376.37 56.3327   6
   0   3  -5 621.154 29.2744   6
   0   3  -5 635.966 31.9230   5
   0   3  -5 646.462 28.6162   0
   0   3  -5 611.142 42.1443   2
   0   3  -4 538.112 27.3120   6
   0   3  -4 557.646 24.5878   0
   0   3  -4 545.222 27.9587   5
   0   3  -4 490.109 38.7504   2
   0   3  -3 72.2963 19.0985   0
   0   3  -3 94.8484 31.1380   2
   0   3  -3 97.2927 19.5746   5
   0   3  -3 78.6279 20.8859   6
   0   3  -2 501.044 35.6807   2
   0   3  -2 502.712 27.0283   6
   0   3  -2 496.680 21.2272   5
   0   3  -2 492.001 24.9769   0
   0   3  -1 7400.75 85.9044   2
   0   3  -1 7443.10 95.1328   3
   0   3  -1 7506.86 52.9319   5
   0   3  -1 7501.58 64.7012   0
   0   3   0 27261.6 116.236   0
   0   3   0 27354.9 94.5072   5
   0   3   0 27306.6 152.592   2
   0   3   0 27076.4 166.001   3
   0   3   1 8858.09 70.3885   1
   0   3   1 8843.13 88.0911   2
   0   3   1 8890.40 98.2840   3
   0   3   1 9149.32 66.9936   0
   0   3   2 25807.3 167.501   3
   0  -3  -2 26596.5 111.488   0
   0   3   2 26053.4 110.867   5
   0   3   2 25660.2 108.928   0
   0   3   3 17386.0 141.061   3
   0  -3  -3 17513.7 87.2413   0
   0  -3  -4 18334.1 86.3627   0
   0   3   4 17719.8 146.835   3
   0   3   5 26164.7 182.363   3
   0  -3  -5 26103.2 99.3217   0
   0   3   6 1181.51 50.6081   3
   0  -3  -6 1221.43 24.2043   0
   0   3   7 1182.43 51.8662   3
   0   3   8 72.5865 35.6352   3
   0  -3  -9 3045.84 74.1951   2
   0   3   9 3058.16 80.8860   3
   0  -3 -10 2460.38 75.1870   2
   0   3  10 2353.39 78.3926   3
   0  -3 -11 720.534 57.5016   2
   0   3  11 570.959 49.3876   3
   0   3  12 374.116 52.8182   3
   0   3  13 658.017 59.5214   3
   0   3  14 562.190 55.8421   3
   0   3  15 510.137 59.3244   3
   0   4 -13 70.6393 59.8396   2
   0   4 -13 42.9843 50.6678   5
   0   4 -12 29.8070 57.9554   2
   0   4 -12 133.477 50.6414   5
   0   4 -11 2282.53 87.8043   2
   0   4 -11 2179.70 73.4423   5
   0   4 -10 148.885 40.3374   5
   0   4 -10 228.423 56.4127   2
   0   4  -9 401.223 57.7168   2
   0   4  -9 549.284 45.2478   5
   0   4  -8 0.00000 35.8845   5
   0   4  -8 46.0050 46.1100   2
   0   4  -7 3034.46 84.1967   2
   0   4  -7 3269.97 66.3353   5
   0   4  -6 3011.01 59.5276   6
   0   4  -6 2912.74 80.5480   2
   0   4  -6 3019.06 58.1668   5
   0   4  -5 3376.48 56.7166   5
   0   4  -5 3282.00 63.8743   6
   0   4  -5 3387.89 79.7852   2
   0   4  -4 5545.39 63.8666   5
   0   4  -4 5692.23 79.1960   6
   0   4  -4 5437.84 93.2036   2
   0   4  -3 127.747 19.8337   5
   0   4  -3 88.8982 25.3618   6
   0   4  -3 82.3942 35.3919   2
   0   4  -2 3301.85 60.3997   6
   0   4  -2 3249.61 52.4859   0
   0   4  -2 3244.14 69.4289   2
   0   4  -2 3193.79 42.3677   5
   0   4  -1 15203.5 104.398   0
   0   4  -1 14344.5 149.314   3
   0   4  -1 14883.7 80.7737   5
   0   4  -1 15106.0 134.955   2
   0   4   0 38445.2 160.406   0
   0   4   0 38736.4 206.022   2
   0   4   0 37900.1 228.889   3
   0   4   0 38509.9 122.237   5
   0   4   1 178.171 16.6538   5
   0   4   1 138.108 38.9008   3
   0   4   1 169.061 24.1709   0
   0   4   1 153.371 25.8343   1
   0   4   1 211.653 34.0124   2
   0   4   2 19964.0 171.615   3
   0   4   2 19926.8 122.392   1
   0   4   2 19807.0 149.686   2
   0   4   2 20044.2 114.544   0
   0   4   2 20081.3 104.347   5
   0   4   3 1078.76 54.7828   3
   0   4   3 1276.28 34.0505   0
   0   4   3 1262.50 34.1499   5
   0   4   4-10.6603 19.7958   5
   0   4   4 21.0582 36.1283   3
   0   4   5 4667.51 92.3808   3
   0   4   6 237.255 44.1527   3
   0   4   7 1296.13 62.5268   3
   0   4   8-1.57642 40.7900   3
   0   4   9 109.113 43.0579   3
   0   4  10 137.266 46.6086   3
   0   4  11 89.6574 49.2553   3
   0   4  12 2976.63 96.6527   3
   0   4  13 16.6212 50.8787   3
   0   4  14 216.301 52.4249   3
   0   4  15 277.933 65.0169   3
   0   5 -11 773.751 70.7795   2
   0   5 -10 610.335 65.0576   2
   0   5  -9 0.00000 50.3660   2
   0   5  -8 1526.50 75.6656   2
   0   5  -7-14.9103 50.5828   2
   0   5  -6 1278.39 70.5887   2
   0   5  -5 12975.8 134.307   6
   0   5  -5 13034.1 155.499   2
   0   5  -4 1977.64 68.7145   2
   0   5  -4 2121.00 60.9146   6
   0   5  -3 563.008 38.6847   6
   0   5  -3 589.208 49.2499   2
   0   5  -2 1027.15 52.4678   2
   0   5  -2 1225.33 47.4112   6
   0   5  -1 13006.9 141.874   2
   0   5   0 2028.64 64.5535   2
   0   5   0 2031.86 71.1306   3
   0   5   1 15689.1 175.790   3
   0   5   1 16249.7 150.465   2
   0   5   2 9037.63 136.867   3
   0   5   2 9345.35 94.0088   1
   0   5   2 9122.21 115.063   2
   0   5   3 407.837 34.6452   1
   0   5   3 325.448 40.7102   2
   0   5   3 323.755 49.4832   3
   0   5   4 1169.72 65.1387   3
   0   5   5 1316.10 66.7607   3
   0   5   6 1813.31 74.8493   3
   0   5   7 954.750 62.5952   3
   0   5   8 6612.05 130.286   3
   0   5   9 846.759 64.7296   3
   0   5  10 1596.15 81.9480   3
   0   5  11 259.971 54.6597   3
   0   5  12 645.669 64.3805   3
   0   5  13 121.701 47.8616   3
   0   5  14 215.856 57.1381   3
   0   6 -10 2074.55 93.6591   2
   0   6  -9 889.478 72.0834   2
   0   6  -8 267.305 57.2592   2
   0   6  -7 609.561 59.4770   2
   0   6  -6 1319.00 74.7486   2
   0   6  -5 1287.28 72.1435   2
   0   6  -5 1411.21 59.6847   6
   0   6  -4 898.909 52.9023   6
   0   6  -4 880.564 62.3998   2
   0   6  -3 5050.25 104.571   2
   0   6  -3 5257.36 96.4143   6
   0   6  -2 3097.90 75.8225   6
   0   6  -2 3030.67 83.7842   2
   0   6  -1 223.157 45.8093   2
   0   6   0 883.798 56.4686   2
   0   6   0 871.662 62.1200   3
   0   6   1 2733.33 89.4641   3
   0   6   1 2699.29 75.0358   2
   0   6   2 1254.97 57.2071   2
   0   6   2 1191.40 71.5979   3
   0   6   3 1107.41 68.8809   3
   0   6   3 1055.74 55.1238   2
   0   6   4 6975.76 136.820   3
   0   6   4 7250.83 118.247   2
   0   6   5 2853.20 102.138   3
   0   6   5 2813.90 80.0632   2
   0   6   6 13504.6 193.959   3
   0   6   7-9.03303 55.5851   3
   0   6   8 85.0887 56.3030   3
   0   6   9 2234.48 95.3717   3
   0   6  10-7.62421 59.5240   3
   0   6  11 294.158 62.1099   3
   0   6  12 1864.47 95.5133   3
   0   6  13 673.072 73.1176   3
   0   7  -9 1190.61 79.1992   2
   0   7  -8 583.846 63.6113   2
   0   7  -7 927.755 67.0610   2
   0   7  -6 680.835 71.7172   2
   0   7  -5 1011.87 67.0269   2
   0   7  -4 425.467 48.7215   6
   0   7  -4 464.605 56.1236   2
   0   7  -3 351.009 46.3623   6
   0   7  -3 375.908 53.8126   2
   0   7  -2 429.817 44.9792   6
   0   7  -2 481.278 54.3908   2
   0   7  -1 314.056 50.5885   2
   0   7  -1 419.535 48.0541   6
   0   7   0 1897.51 75.7460   2
   0   7   0 1877.79 87.2863   3
   0   7   1 4153.42 98.8025   2
   0   7   1 4419.98 121.303   3
   0   7   2 995.822 75.2740   3
   0   7   2 1043.50 59.2976   2
   0   7   3 6304.06 142.819   3
   0   7   3 5986.40 115.567   2
   0   7   4 4574.98 128.549   3
   0   7   5 1226.88 82.2330   3
   0   7   6 48.2066 57.5210   3
   0   7   7 247.895 61.4032   3
   0   7   8 3217.79 116.589   3
   0   7   9 735.055 76.5064   3
   0   7  10 860.721 78.6148   3
   0   7  11 367.922 66.6683   3
   0   7  12 518.057 68.1200   3
   0   8  -7 2505.61 103.931   2
   0   8  -6 50.8539 62.0836   2
   0   8  -5 559.696 60.9177   2
   0   8  -4 19.1267 48.6769   2
   0   8  -4 41.0056 42.2105   6
   0   8  -3 269.646 53.8022   6
   0   8  -3 300.104 49.1383   2
   0   8  -2 86.4931 49.9253   2
   0   8  -2 68.0083 43.9400   6
   0   8  -1 110.920 47.6337   2
   0   8  -1 144.797 45.9856   6
   0   8   0 3537.24 98.7019   2
   0   8   0 3907.17 100.719   6
   0   8   1 3525.09 97.3758   2
   0   8   1 3747.84 123.647   3
   0   8   2 2141.45 99.8701   3
   0   8   3-31.0569 58.1936   3
   0   8   4 758.427 80.0064   3
   0   8   5-46.4337 62.1046   3
   0   8   6 858.534 78.0850   3
   0   8   7 390.653 70.3419   3
   0   8   8 90.1847 57.1443   3
   0   8   9 344.215 69.5408   3
   0   8  10 1665.81 101.236   3
   0   8  11 1593.17 128.466   3
   0   9  -5 1253.13 77.7908   2
   0   9  -4 69.0543 47.3379   2
   0   9  -3 517.328 56.8679   6
   0   9  -3 533.957 62.3754   2
   0   9  -2-115.387 46.3817   6
   0   9  -2 17.2796 42.8092   2
   0   9  -1 153.885 44.3889   6
   0   9   0 642.475 63.3284   6
   0   9   1 29.8356 44.2238   6
   0   9   2 14.6213 59.3033   3
   0   9   3 29.4846 57.3106   3
   0   9   4 38.9566 59.9184   3
   0   9   5 311.663 73.3879   3
   0   9   6-58.2155 68.6929   3
   0   9   7 171.734 64.1770   3
   0   9   8 173.373 75.4706   3
   0  10   3 280.434 80.9993   3
   0  10   4 140.298 70.3558   3
  -1   9   7 428.444 75.8439   3
  -1   9   6 302.582 67.5475   3
  -1   9   5 838.815 87.7195   3
  -1   9   4 785.581 91.5801   3
  -1   9   3 366.702 73.5775   3
  -1   9   2-13.8555 65.8296   3
  -1   9   1 341.737 59.4887   2
  -1   9   0 210.254 56.3062   2
  -1   9  -1 229.654 62.6866   2
  -1   9  -1 274.101 50.3230   6
  -1   9  -2 14.2961 48.2186   6
  -1   9  -2 24.0532 48.6718   2
  -1   9  -3-3.42787 57.1422   2
  -1   8  10 265.894 71.7423   3
  -1   8   9-38.1470 56.0352   3
  -1   8   8 145.321 70.0736   3
  -1   8   7 1258.87 93.7250   3
  -1   8   6 1129.95 93.7693   3
  -1   8   5 1088.37 93.8062   3
  -1   8   4-13.5498 57.6586   3
  -1   8   3 171.560 53.1392   2
  -1   8   3 243.874 67.6175   3
  -1   8   2 82.7055 53.4192   2
  -1   8   2 37.8233 60.0834   3
  -1   8   1 98.5445 55.6569   2
  -1   8   1 77.8215 67.1857   3
  -1   8   0 205.809 59.0905   2
  -1   8  -1 152.367 54.4059   2
  -1   8  -2 733.083 55.7080   6
  -1   8  -2 547.633 60.3756   2
  -1   8  -3 292.711 60.8929   2
  -1   8  -3 296.403 48.6030   6
  -1   8  -4 778.542 69.2016   2
  -1   8  -5 1959.41 93.9562   2
  -1   8  -6 148.651 60.0321   2
  -1   7  12-117.824 58.6498   3
  -1   7  11 55.1383 67.5490   3
  -1   7  10 381.135 69.6728   3
  -1   7   9 538.819 77.9273   3
  -1   7   8 1523.93 90.2930   3
  -1   7   7 3346.94 120.767   3
  -1   7   6 1196.41 82.6602   3
  -1   7   6 1133.88 72.5843   2
  -1   7   5 7157.14 160.803   3
  -1   7   5 7565.62 147.920   2
  -1   7   4 519.605 61.9371   2
  -1   7   4 537.384 76.4697   3
  -1   7   3 1760.08 81.7509   2
  -1   7   3 1865.81 92.3215   3
  -1   7   2 2555.59 91.9823   2
  -1   7   2 2423.50 104.503   3
  -1   7   1 135.507 63.4515   3
  -1   7   1 221.751 52.3834   2
  -1   7   0 2345.25 91.8984   2
  -1   7  -1 3045.05 99.1587   2
  -1   7  -2 29.3163 52.6229   2
  -1   7  -3 346.123 55.4105   2
  -1   7  -3 392.449 44.1186   6
  -1   7  -4 472.295 48.7976   6
  -1   7  -4 507.526 60.5182   2
  -1   7  -5 106.595 52.6900   2
  -1   7  -6 37.1422 51.1094   2
  -1   7  -7 110.463 61.6291   2
  -1   7  -8 106.490 60.9871   2
  -1   6  13 312.785 61.8397   3
  -1   6  12 58.4933 56.0700   3
  -1   6  11 1207.63 86.9209   3
  -1   6  10 115.305 59.3968   3
  -1   6   9 111.105 62.2361   3
  -1   6   8 4666.87 128.164   3
  -1   6   7 3006.81 109.466   3
  -1   6   6 2726.56 105.468   3
  -1   6   5 45858.8 353.055   3
  -1   6   4 5951.90 135.921   3
  -1   6   4 6090.61 124.039   2
  -1   6   3 109.335 56.4878   3
  -1   6   3 252.742 54.5006   2
  -1   6   2 142.141 49.3681   2
  -1   6   2 114.312 55.7473   3
  -1   6   1 215.950 56.2291   3
  -1   6   1 230.675 46.8312   2
  -1   6   0 489.541 54.4565   2
  -1   6   0 447.697 59.8282   3
  -1   6  -1 1040.06 69.3852   2
  -1   6  -2 183.377 56.4707   2
  -1   6  -3 100.796 49.8582   2
  -1   6  -4 639.407 65.2010   2
  -1   6  -4 769.339 46.7451   6
  -1   6  -5 2811.23 92.8682   2
  -1   6  -6 172.248 55.5692   2
  -1   6  -7 39.5593 53.9862   2
  -1   6  -8 487.843 67.5879   2
  -1   6  -9 282.872 60.9896   2
  -1   6 -10 656.089 77.7689   2
  -1   5  14 79.0751 64.0411   3
  -1   5  13-12.7194 44.2161   3
  -1   5  12 368.855 57.2720   3
  -1   5  11 3865.53 116.528   3
  -1   5  10 733.042 64.8308   3
  -1   5  10 878.171 61.0226   5
  -1   5   9 3303.69 91.2132   5
  -1   5   9 3155.82 101.968   3
  -1   5   8 1340.97 78.2780   3
  -1   5   8 1648.19 66.6395   5
  -1   5   7 11212.2 171.072   3
  -1   5   6 1837.55 80.9536   3
  -1   5   5 3359.23 98.8966   3
  -1   5   4 500.933 58.2467   3
  -1   5   3 3481.99 98.2780   3
  -1   5   3 3482.09 88.1877   2
  -1   5   2 395.690 50.2844   2
  -1   5   2 427.548 54.2561   3
  -1   5   1 681.178 53.0323   2
  -1   5   1 738.090 59.7264   3
  -1   5   0 567.690 50.4427   2
  -1   5   0 455.790 52.9627   3
  -1   5  -1 237.060 43.9470   2
  -1   5  -2 5710.68 110.595   2
  -1   5  -3 253.728 52.4463   2
  -1   5  -4 3851.85 96.6061   2
  -1   5  -4 3938.52 76.2391   6
  -1   5  -5 37007.5 272.474   2
  -1   5  -6 24230.5 226.673   2
  -1   5  -7 6821.03 131.999   2
  -1   5  -8 42.0090 56.7458   2
  -1   5  -9 112.372 55.4643   2
  -1   5 -10 583.658 58.8426   2
  -1   5 -11 155.310 58.4407   2
  -1   4  15-33.3804 60.6965   3
  -1   4  14 86.4012 60.0350   3
  -1   4  13-125.572 52.1624   3
  -1   4  12 170.299 54.5422   3
  -1   4  11 808.833 63.5463   3
  -1   4  10 519.930 58.0573   3
  -1   4   9 4315.80 108.706   3
  -1   4   8-5.74766 40.8743   3
  -1   4   7 190.514 38.3002   5
  -1   4   7 262.929 46.5594   3
  -1   4   6 8618.07 134.744   3
  -1   4   6 8927.36 117.130   5
  -1   4   5 6909.43 98.8871   5
  -1   4   5 7022.80 121.791   3
  -1   4   5 7169.52 67.8228   0
  -1   4   4 92.3768 29.1177   5
  -1   4   4 104.716 19.0862   0
  -1   4   4 102.295 41.1241   3
  -1   4   3 7001.59 90.8755   5
  -1   4   3 7018.68 69.3370   0
  -1   4   3 6836.87 113.862   3
  -1   4   2 195.163 29.7722   5
  -1   4   2 123.443 43.0603   3
  -1   4   2 181.101 23.4702   0
  -1   4   2 156.515 37.7913   2
  -1   4   1 40185.7 258.686   3
  -1   4   1 40297.6 168.382   0
  -1   4   1 39851.7 194.605   5
  -1   4   1 42474.2 253.305   2
  -1   4   0 9455.12 123.573   2
  -1   4   0 9771.27 87.1510   0
  -1   4   0 9808.23 95.6723   5
  -1   4   0 9645.21 132.544   3
  -1   4  -1 8117.94 114.664   2
  -1   4  -1 8134.69 85.7255   5
  -1   4  -2 14807.7 153.761   2
  -1   4  -2 14826.4 113.195   5
  -1   4  -3 26686.6 154.657   5
  -1   4  -3 25705.0 208.587   2
  -1   4  -4 308.420 32.5507   5
  -1   4  -4 230.922 46.3269   2
  -1   4  -5 5514.03 78.4391   5
  -1   4  -5 5255.66 104.277   2
  -1   4  -5 5712.15 77.0815   6
  -1   4  -6 2288.88 58.6478   5
  -1   4  -6 2129.48 76.1650   2
  -1   4  -7 2355.79 63.7429   5
  -1   4  -7 2422.84 83.4988   2
  -1   4  -8 2621.04 70.3846   5
  -1   4  -8 2690.14 90.7473   2
  -1   4  -9 2209.46 84.7587   2
  -1   4  -9 2190.61 68.7442   5
  -1   4 -10 87.4533 51.4380   2
  -1   4 -10 77.9221 42.2627   5
  -1   4 -11 108.999 50.8376   2
  -1   4 -11 83.6849 46.6815   5
  -1   4 -12 114.578 50.2501   2
  -1   4 -12 84.4143 49.5593   5
  -1   4 -13 195.271 51.7566   5
  -1   3  15 475.965 64.5473   3
  -1   3  14 1237.64 74.8485   3
  -1   3  13 294.342 48.9363   3
  -1   3  12 821.184 62.4388   3
  -1   3  11 1711.12 73.1176   3
  -1   3  10 580.704 51.8006   3
  -1   3   9 343.388 46.9610   3
  -1   3   8 4548.84 96.6339   3
  -1   3   7 17928.1 174.616   3
  -1   3   6 1347.44 57.3045   3
  -1   3   5 584.285 38.2597   5
  -1   3   5 648.644 21.1599   0
  -1   3   5 568.255 42.3810   3
  -1   3   4 56.8086 16.2182   0
  -1   3   4 47.2712 26.7327   5
  -1   3   4 117.047 33.6859   3
  -1   3   3 523.513 42.4020   3
  -1   3   3 601.068 23.2929   0
  -1   3   3 557.864 34.7026   5
  -1   3   2 3404.53 61.3842   5
  -1   3   2 3563.36 72.4269   3
  -1   3   1 16115.4 141.861   3
  -1   3   1 15612.6 117.991   5
  -1   3   1 15597.5 138.834   2
  -1   3   0 51686.3 209.088   5
  -1   3   0 52765.9 251.805   2
  -1   3   0 52177.5 255.130   3
  -1   3  -1 10029.5 115.187   2
  -1   3  -1 9713.64 89.7831   5
  -1   3  -2 196.693 38.3627   2
  -1   3  -2 150.474 26.8661   5
  -1   3  -3 9654.25 116.560   2
  -1   3  -3 9364.26 91.4461   5
  -1   3  -4 65.5131 29.1193   5
  -1   3  -4 82.3447 35.3512   2
  -1   3  -5 2831.21 48.0977   6
  -1   3  -5 2798.38 72.6531   2
  -1   3  -5 2670.31 57.5268   5
  -1   3  -6 5408.91 95.7474   2
  -1   3  -6 5298.47 77.1024   5
  -1   3  -7 1323.58 61.2998   2
  -1   3  -7 1165.54 48.4155   5
  -1   3  -8 1.06382 43.5151   2
  -1   3  -8 2.01174 35.9963   5
  -1   3  -9 4023.94 83.8714   5
  -1   3  -9 4469.43 102.119   2
  -1   3 -10 516.075 48.6805   5
  -1   3 -10 501.983 54.4104   2
  -1   3 -11 420.536 50.3886   5
  -1   3 -11 319.429 51.8534   2
  -1   3 -12 457.211 52.3000   5
  -1   3 -12 460.803 60.1781   2
  -1   3 -13 779.071 62.3571   5
  -1   3 -13 897.538 71.7474   2
  -1   3 -14-24.3212 52.1451   5
  -1   3 -14 125.813 60.9331   2
  -1   2  16 635.874 69.6868   3
  -1   2  15-8.87640 46.1604   3
   1  -2 -15 73.2372 56.6624   2
   1  -2 -14 21.0850 53.2556   2
  -1   2  14 0.33150 38.6555   3
   1  -2 -13 41.3623 53.7819   2
  -1   2  13-66.7118 45.6626   3
   1  -2 -12 3493.31 98.9610   2
  -1   2  12 3306.16 93.1564   3
   1  -2 -11 177.671 50.4997   2
  -1   2  11 241.393 45.8116   3
   1  -2 -10 458.794 52.7070   2
  -1   2  10 505.945 46.8728   3
   1  -2  -9 285.144 41.5252   2
  -1   2   9 350.884 40.6271   3
  -1   2   8 6.38801 30.4618   3
   1  -2  -8 8.19080 33.4931   2
  -1   2   7 623.787 40.6600   3
   1  -2  -7 634.974 43.7166   2
  -1   2   6 17750.9 149.651   3
  -1   2   5 32832.4 194.752   3
  -1   2   5 32851.4 87.3711   0
  -1   2   4 32597.3 185.300   3
  -1   2   4 32621.5 95.8923   0
  -1   2   3 44731.6 194.864   5
  -1   2   3 45868.0 208.448   3
  -1   2   2 18299.9 130.743   3
  -1   2   2 18327.1 120.120   5
  -1   2   1 3474.63 55.2413   5
  -1   2   1 3578.99 60.4586   3
  -1   2   0 6174.96 80.5801   2
  -1   2   0 6208.52 69.5357   5
  -1   2   0 6504.67 80.6924   3
  -1   2  -1 26762.3 135.905   5
  -1   2  -1 26999.2 159.496   2
  -1   2  -2 16284.9 127.868   2
  -1   2  -2 15799.3 107.776   5
  -1   2  -3 9253.76 85.8584   5
  -1   2  -3 9591.66 103.950   2
  -1   2  -4 576.036 34.8669   5
  -1   2  -4 549.186 38.6209   2
  -1   2  -5 2456.75 53.9118   5
  -1   2  -5 2275.83 36.8879   6
  -1   2  -5 2814.14 63.0713   2
  -1   2  -6 3789.60 65.3576   5
  -1   2  -6 4037.56 77.2672   2
  -1   2  -7 2969.69 71.8274   2
  -1   2  -7 2973.99 63.0203   5
  -1   2  -8 178.970 39.0157   2
  -1   2  -8 410.028 40.1670   5
  -1   2  -9 6936.98 111.945   2
  -1   2  -9 7103.93 103.200   5
  -1   2 -10 1361.38 63.6966   2
  -1   2 -10 1405.78 60.2620   5
  -1   2 -11 3115.87 87.3069   2
  -1   2 -11 3401.37 86.9628   5
  -1   2 -12 417.131 53.9526   5
  -1   2 -12 407.030 55.5507   2
  -1   2 -13 24.2254 48.2224   5
  -1   2 -13 22.0368 51.8861   2
  -1   2 -14 4.80513 50.8029   2
  -1   2 -14 158.030 54.3983   5
   1  -1 -16 554.954 66.4515   2
   1  -1 -15 393.517 67.4840   2
  -1   1  15 339.580 48.4522   3
  -1   1  14 1685.07 77.9882   3
   1  -1 -14 1639.42 83.6290   2
   1  -1 -13 186.387 54.7019   2
   1  -1 -12 207.580 54.9774   2
   1  -1 -11 171.348 52.6075   2
   1  -1 -10 13265.9 154.256   2
   1  -1  -9 188.505 39.7121   2
   1  -1  -8 124.652 34.7204   2
   1  -1  -7 2377.96 59.9393   2
  -1   1   6 27005.1 162.425   3
   1  -1  -6 26268.5 161.603   2
   1  -1  -5 44538.8 194.280   2
  -1   1   5 43844.5 198.350   3
   1  -1  -4 22692.7 133.601   2
  -1   1   4 22685.0 129.155   3
  -1   1   3 10148.8 83.8294   3
  -1   1   2 117264. 268.975   5
  -1   1   2 116956. 259.989   3
  -1   1   1-6.37530 21.8174   3
  -1   1   1 11.8687 22.4708   5
  -1   1   0 3766.68 51.2227   5
  -1   1   0 4065.75 52.8633   3
  -1   1  -1 56146.7 177.288   5
  -1   1  -1 56448.2 190.077   2
  -1   1  -2 74.5745 26.9511   5
  -1   1  -2 60.4477 28.5483   2
  -1   1  -3 14412.9 97.8925   5
  -1   1  -3 14877.9 102.952   2
  -1   1  -4 70567.3 228.937   2
  -1   1  -4 70301.8 222.699   5
  -1   1  -5 93003.4 259.311   5
  -1   1  -5 91996.0 283.597   2
  -1   1  -6 1078.54 42.8033   2
  -1   1  -6 1113.79 41.7188   5
  -1   1  -7 1448.02 48.5344   5
  -1   1  -7 1573.62 49.8638   2
  -1   1  -8 1300.05 49.8059   2
  -1   1  -8 1236.63 50.5236   5
  -1   1  -9 1489.43 54.5983   2
  -1   1  -9 1449.04 54.2941   5
  -1   1 -10 1598.22 60.9939   5
  -1   1 -10 1539.04 61.1493   2
  -1   1 -11 1875.47 68.5149   5
  -1   1 -11 1863.51 69.3143   2
  -1   1 -12 112.333 44.5749   2
  -1   1 -12 127.468 46.2749   5
  -1   1 -13-10.2426 45.0420   2
  -1   1 -13 30.5867 48.6144   5
  -1   1 -14 990.174 63.7283   5
  -1   1 -14 1001.25 68.8179   2
  -1   1 -15 43.9775 47.0507   2
  -1   1 -15 7.03081 55.3040   5
   1   0 -15 2165.98 91.3846   2
   1   0 -14 1375.24 81.1576   2
   1   0 -13 78.6793 46.0103   2
   1   0 -12 38.9803 48.2335   2
   1   0 -11 2820.43 84.5829   2
   1   0 -10 1384.10 62.1780   2
   1   0  -9 321.106 40.9957   2
   1   0  -8-21.8165 32.4987   2
   1   0  -7 1165.54 46.5341   2
   1   0  -6 21565.2 142.911   2
   1   0  -5 16140.3 114.193   2
   1   0  -4 55090.2 188.523   2
   1   0  -3 759.813 27.2544   2
   1   0  -2 10703.7 72.6878   2
  -1   0   1 8515.89 63.9437   5
   1   0  -1 8346.86 58.3058   2
  -1   0   0 1488.00 31.7259   5
  -1   0  -1 6693.33 55.3180   5
  -1   0  -2 27662.6 102.860   2
  -1   0  -2 27493.4 115.254   5
  -1   0  -3 4247.90 52.2987   5
  -1   0  -3 4564.16 46.9522   2
  -1   0  -4 21585.3 111.341   5
  -1   0  -4 21281.9 105.634   2
  -1   0  -5 32593.7 144.661   5
  -1   0  -5 32355.3 141.271   2
  -1   0  -6 567.799 30.5086   2
  -1   0  -6 624.688 34.4383   5
  -1   0  -7 1253.29 40.5571   2
  -1   0  -7 1465.59 45.0977   5
  -1   0  -8 4362.95 72.9572   5
  -1   0  -8 4428.99 70.1315   2
  -1   0  -9 3412.35 69.6669   2
  -1   0  -9 3552.77 70.4844   5
  -1   0 -10 5849.77 96.6711   5
  -1   0 -10 5436.94 92.5049   2
  -1   0 -11 486.377 49.8007   5
  -1   0 -11 518.666 45.1791   2
  -1   0 -12 68.5110 45.4245   5
  -1   0 -12 149.833 42.7181   2
  -1   0 -13 1230.48 64.5781   5
  -1   0 -13 1138.21 61.4178   2
  -1   0 -14 3180.51 92.3811   5
  -1   0 -14 3136.03 93.5140   2
  -1   0 -15 1113.56 76.4591   5
   1   1 -15 90.1580 53.0342   2
   1   1 -14 503.384 62.1527   2
   1   1 -13 582.042 60.5267   2
   1   1 -12 16.4302 45.9213   2
   1   1 -11 3443.55 88.9309   2
   1   1 -10 4495.53 93.6467   2
   1   1  -9 374.430 41.3068   2
   1   1  -8 2641.60 65.6021   2
   1   1  -7 14116.1 125.217   2
   1   1  -7 13558.2 112.893   5
   1   1  -6 239.735 29.9595   5
   1   1  -6 299.104 32.7435   2
   1   1  -6 303.146 17.0995   4
   1   1  -5 32705.4 118.753   4
   1   1  -5 32457.0 161.232   2
   1   1  -4 22985.3 121.041   6
  -1  -1   4 22813.1 73.7127   0
   1   1  -4 22310.0 122.693   2
   1   1  -4 22224.6 98.4323   4
   1   1  -3 7106.91 64.0217   2
  -1  -1   3 7250.04 42.5313   0
   1   1  -3 7765.07 67.5246   6
   1   1  -3 7361.61 56.5652   4
   1   1  -2 3926.20 43.4587   2
   1   1  -2 3865.20 45.8937   6
   1   1  -2 3746.29 40.6441   4
   1   1  -1 6346.56 43.8687   2
   1   1  -1 6241.07 48.6805   4
   1   1  -1 6167.56 51.5075   6
   1   1   0 2119.53 29.6196   6
   1   1   0 2054.80 36.4860   1
   1   1   1 716.132 18.5368   6
   1   1   1 705.239 28.5194   1
  -1  -1  -2 6234.56 46.8722   5
  -1  -1  -3 102986. 196.775   5
  -1  -1  -4 1072.03 28.6561   5
  -1  -1  -4 1120.59 22.8964   2
  -1  -1  -5 11687.5 82.1299   5
  -1  -1  -5 11477.0 75.0970   2
  -1  -1  -6 708.023 32.7599   5
  -1  -1  -6 697.088 27.2354   2
  -1  -1  -7 11896.2 99.3182   5
  -1  -1  -7 12459.6 98.0240   2
  -1  -1  -8 1634.42 43.9068   2
  -1  -1  -8 1613.25 47.2984   5
  -1  -1  -9 40.5388 32.6672   5
  -1  -1  -9 57.9398 27.5602   2
  -1  -1 -10 7215.50 98.5340   2
  -1  -1 -10 7240.70 102.722   5
  -1  -1 -11 2227.62 67.0542   2
  -1  -1 -11 2104.01 68.3033   5
  -1  -1 -12 4.21204 44.6501   5
  -1  -1 -12 1.93981 37.4459   2
  -1  -1 -13 332.254 52.3539   5
  -1  -1 -13 415.445 50.4210   2
  -1  -1 -14 653.627 58.9365   5
  -1  -1 -15 887.254 67.3263   5
   1   2 -14 218.826 51.4063   2
   1   2 -13 132.865 48.3876   2
   1   2 -12 39.6007 49.0831   2
   1   2 -11 3033.01 88.1653   2
   1   2 -10 410.330 45.2315   5
   1   2 -10 421.195 49.9627   2
   1   2  -9 620.880 45.9054   5
   1   2  -9 683.676 50.4472   2
   1   2  -8-7.50770 33.2788   5
   1   2  -8 59.2687 36.2416   2
   1   2  -7 1396.63 53.7133   2
   1   2  -7 1400.63 46.1964   5
   1   2  -7 1394.08 40.3347   6
   1   2  -6 4601.57 64.4713   5
   1   2  -6 4732.41 74.6623   2
   1   2  -6 4479.06 64.7532   6
   1   2  -5 4592.45 59.2203   5
   1   2  -5 4580.57 68.4901   2
   1   2  -5 4577.57 62.7053   6
   1   2  -4 46273.2 185.938   2
   1   2  -4 46717.8 182.850   6
   1   2  -4 46807.3 158.916   5
  -1  -2   4 45981.6 135.379   0
   1   2  -3 39455.4 159.373   6
   1   2  -3 39807.1 129.388   5
  -1  -2   3 39929.0 122.516   0
   1   2  -3 39859.8 156.086   2
   1   2  -2 15722.6 96.1120   6
   1   2  -2 15816.6 89.6473   2
  -1  -2   2 15900.2 77.8080   0
   1   2  -1 4012.05 49.6721   6
   1   2  -1 4524.53 47.6776   4
   1   2  -1 4220.03 42.9355   2
   1   2   0 33424.5 126.642   6
   1   2   0 33191.1 122.409   3
   1   2   0 33060.2 95.1262   2
   1   2   0 32759.7 115.953   4
   1   2   0 33020.2 138.549   1
   1   2   1 49855.0 150.877   6
   1   2   1 50538.4 175.419   1
   1   2   1 50398.9 157.339   3
   1   2   2 18187.4 89.7032   6
   1   2   2 18344.4 101.936   3
  -1  -2  -3 3828.11 34.0553   5
   1   2   3 3697.77 52.8332   3
  -1  -2  -4 30474.0 108.773   5
  -1  -2  -4 30280.4 102.076   2
  -1  -2  -5 2729.00 41.1961   5
  -1  -2  -5 2710.89 38.2134   2
  -1  -2  -6 33859.0 142.595   2
  -1  -2  -6 34410.4 144.453   5
  -1  -2  -7 1547.23 41.0900   5
  -1  -2  -7 1410.67 37.7809   2
  -1  -2  -8 11.6371 23.8668   2
  -1  -2  -8 13.9074 26.7885   5
  -1  -2  -9 5296.57 78.6327   5
  -1  -2  -9 5856.89 83.3127   2
  -1  -2 -10 3949.19 76.3549   5
  -1  -2 -10 4292.41 79.3526   2
  -1  -2 -11 1174.92 54.8673   2
  -1  -2 -11 893.622 60.5225   5
  -1  -2 -12 255.284 48.3137   5
  -1  -2 -13 281.938 50.2535   5
  -1  -2 -14 277.007 51.8458   5
  -1  -2 -15 873.585 66.0164   5
   1   3 -13 904.094 68.5079   2
   1   3 -12 25.1205 44.6136   2
   1   3 -11 43.5745 49.3837   2
   1   3 -10 6028.26 101.406   5
   1   3 -10 6449.40 116.802   2
   1   3  -9 91.1150 43.0997   2
   1   3  -9 54.3120 37.4325   5
   1   3  -8 2464.32 61.2051   5
   1   3  -8 2232.20 70.2649   2
   1   3  -7 6.28856 23.3649   6
   1   3  -7-15.5097 28.8819   5
   1   3  -7-23.5821 36.3373   2
   1   3  -6 3280.04 57.2963   5
   1   3  -6 3071.47 67.6109   2
   1   3  -6 3237.37 61.2996   6
   1   3  -5 6683.65 73.2764   5
   1   3  -5 7150.26 90.0128   2
   1   3  -5 7107.31 84.7707   6
   1   3  -4 2713.21 52.9605   6
  -1  -3   4 2747.30 44.5407   0
   1   3  -4 2610.78 43.6101   5
   1   3  -4 2589.59 54.7757   2
   1   3  -3 8708.34 86.2970   6
  -1  -3   3 8661.20 70.3643   0
   1   3  -3 8346.27 63.6968   5
   1   3  -3 8517.25 85.3083   2
   1   3  -2 53002.2 191.341   2
  -1  -3   2 53355.5 164.702   0
   1   3  -2 52827.5 128.888   5
   1   3  -2 52906.4 202.344   6
   1   3  -1 15074.9 94.2005   2
   1   3  -1 15266.2 113.237   3
  -1  -3   1 14803.7 86.4600   0
   1   3  -1 14875.4 105.479   6
  -1  -3   0 357.738 19.9041   0
   1   3   0 374.168 22.0663   2
   1   3   0 387.955 28.2955   3
   1   3   0 366.595 24.0755   6
  -1  -3  -1 2229.76 37.1255   0
   1   3   1 2086.76 35.7618   2
   1   3   1 2318.17 49.6887   3
   1   3   1 2281.31 50.6752   1
   1   3   1 2261.52 43.5568   6
   1   3   2 5384.11 73.7323   1
   1   3   2 5493.16 72.3389   3
   1   3   2 5437.07 51.7018   2
  -1  -3  -3 53642.4 110.619   5
   1   3   3 53730.3 224.011   3
  -1  -3  -4 4726.64 42.5958   5
   1   3   4 4459.68 71.5362   3
  -1  -3  -5 4814.70 50.8425   5
   1   3   5 4776.28 78.0098   3
  -1  -3  -6 71496.5 201.314   5
   1   3   6 71435.5 298.514   3
  -1  -3  -7 8161.98 77.4991   5
   1   3   7 7777.64 109.871   3
  -1  -3  -7 8089.52 84.3670   2
  -1  -3  -8 147.389 26.4755   2
   1   3   8 159.830 37.8257   3
  -1  -3  -8 145.895 27.9386   5
  -1  -3  -9 928.861 40.8103   5
   1   3   9 853.116 52.8038   3
  -1  -3 -10 7231.76 96.2908   5
   1   3  10 6924.20 120.326   3
  -1  -3 -11-35.4038 39.0091   5
   1   3  11 82.0628 40.1242   3
  -1  -3 -12 43.5689 40.5443   5
   1   3  12 86.5718 45.7597   3
  -1  -3 -13 2915.01 81.5212   5
   1   3  13 2576.96 93.7327   3
   1   3  14 104.037 46.8026   3
   1   3  15 126.046 50.4135   3
   1   4 -13 296.090 64.5968   2
   1   4 -12 277.933 55.7731   2
   1   4 -11 36.5990 51.3991   2
   1   4 -10 598.330 47.9112   5
   1   4 -10 621.704 58.2443   2
   1   4  -9 166.477 39.3151   5
   1   4  -9 104.413 44.6275   2
   1   4  -8 5956.82 90.3974   5
   1   4  -8 5823.06 108.426   2
   1   4  -7 1555.48 64.5934   2
   1   4  -7 1645.02 51.5316   5
   1   4  -6 1848.87 49.2435   5
   1   4  -6 1870.32 53.9375   6
   1   4  -6 1799.22 61.8136   2
   1   4  -5 2711.18 50.1845   5
   1   4  -5 2678.93 60.6340   6
   1   4  -5 2766.70 67.6451   2
   1   4  -4 6673.36 88.6623   6
   1   4  -4 6680.65 92.7973   2
   1   4  -4 6622.85 65.6543   5
   1   4  -3 7961.39 94.4934   6
   1   4  -3 8040.30 94.9719   2
   1   4  -3 7988.49 63.0169   5
  -1  -4   3 7965.58 78.3013   0
   1   4  -2 87.5964 26.9876   6
   1   4  -2 77.0141 13.9441   5
  -1  -4   2 91.2933 23.5651   0
   1   4  -2 69.1135 26.9546   2
   1   4  -1 6429.39 76.8277   2
   1   4  -1 6474.19 90.9407   3
   1   4  -1 6590.70 84.2967   6
  -1  -4   1 6412.61 66.5125   0
   1   4   0 54544.8 252.837   3
  -1  -4   0 53731.1 185.181   0
   1   4   0 54109.5 226.766   6
   1   4   0 54351.4 205.797   2
   1   4   1 9384.64 86.1228   2
  -1  -4  -1 9612.49 79.7257   0
   1   4   1 9311.38 108.785   3
   1   4   1 9792.82 101.194   1
   1   4   1 9522.83 96.0290   6
   1   4   2 40680.0 226.978   3
   1   4   2 40009.8 167.134   2
  -1  -4  -2 40205.0 158.021   0
   1   4   2 40146.8 199.965   1
   1   4   3 4050.41 72.5091   1
   1   4   3 4065.68 57.1828   2
   1   4   3 4234.59 79.4540   3
  -1  -4  -3 4238.58 53.8215   0
   1   4   4 26.5761 31.7185   3
  -1  -4  -4 21.5340 18.6834   0
   1   4   5 3928.52 82.8742   3
  -1  -4  -5 3966.71 51.2595   0
   1   4   6 2753.81 74.4645   3
  -1  -4  -6 2794.52 43.2487   0
   1   4   7 1034.65 53.8894   3
  -1  -4  -7 1007.96 29.1475   0
  -1  -4  -8 762.483 33.4535   5
   1   4   8 841.996 53.1549   3
   1   4   9 820.386 55.6796   3
   1   4  10 583.160 57.4102   3
   1   4  11 1943.32 78.7072   3
   1   4  12 133.862 52.4866   3
   1   4  13 817.805 67.6915   3
   1   4  14 67.9761 47.0382   3
   1   4  15 817.440 70.7371   3
   1   5 -12 161.204 61.6309   2
   1   5 -11 212.709 51.0809   2
   1   5 -10 331.967 60.5968   2
   1   5  -9 392.496 57.3139   2
   1   5  -8 96.6823 47.5168   2
   1   5  -7 2429.22 79.3658   2
   1   5  -6 27834.6 203.475   6
   1   5  -6 28171.9 219.367   2
   1   5  -5 1849.25 66.3295   2
   1   5  -5 1852.44 59.1698   6
   1   5  -4 14824.0 148.279   2
   1   5  -4 15106.3 146.189   6
   1   5  -3 1162.26 51.7849   2
   1   5  -3 1114.05 47.8997   6
   1   5  -2 21203.3 159.588   2
   1   5  -2 21271.0 167.864   6
   1   5  -1 70.5009 36.5948   3
   1   5  -1 88.8454 29.8348   2
   1   5  -1 79.8587 30.3191   6
   1   5   0 259.855 35.6549   6
   1   5   0 213.464 39.5992   3
   1   5   0 277.761 32.7970   2
   1   5   1 9179.29 100.273   2
   1   5   1 9260.29 107.726   1
   1   5   1 9440.01 109.267   6
   1   5   1 9469.47 126.649   3
   1   5   2 13122.9 114.361   2
   1   5   2 13545.2 151.496   3
   1   5   2 13434.9 128.289   1
   1   5   3 17.5647 36.6089   3
   1   5   3 12.4517 25.6866   2
   1   5   3 34.4277 35.0628   1
   1   5   4 589.650 45.9499   1
   1   5   4 592.293 34.2097   2
  -1  -5  -4 558.616 29.8053   0
   1   5   4 520.231 47.4802   3
   1   5   5 6579.55 113.593   3
  -1  -5  -5 6521.96 70.7655   0
   1   5   6 3828.91 92.4375   3
  -1  -5  -6 3639.52 53.8266   0
   1   5   7 330.285 49.1341   3
   1   5   8 855.271 62.8323   3
   1   5   9 56.5917 47.5162   3
   1   5  10 2726.70 94.8737   3
   1   5  11 2327.45 93.0869   3
   1   5  12 211.086 55.9309   3
   1   5  13 98.7926 51.4387   3
   1   5  14 4.36070 46.2720   3
   1   6 -10 1064.97 70.9390   2
   1   6  -9 367.470 51.8621   2
   1   6  -8 2188.08 84.1643   2
   1   6  -7 3326.52 95.6315   2
   1   6  -6 392.894 45.0214   6
   1   6  -6 296.400 51.4651   2
   1   6  -5 32599.3 239.069   6
   1   6  -5 32080.3 243.420   2
   1   6  -4 2302.90 76.6492   2
   1   6  -4 2242.18 71.6955   6
   1   6  -3 74.2196 36.5817   6
   1   6  -3 67.1327 42.2019   2
   1   6  -2 6540.44 103.195   2
   1   6  -2 6566.40 108.162   6
   1   6  -1 178.452 34.3197   2
   1   6  -1 171.616 38.7988   6
   1   6   0 96.1652 33.9754   2
   1   6   0 102.681 41.5307   3
   1   6   0 42.3185 35.3468   6
   1   6   1-10.3887 41.0124   3
   1   6   1 40.9863 30.8463   2
   1   6   1 27.9708 35.8523   6
   1   6   2 2111.68 58.4460   2
   1   6   2 2025.34 63.4773   1
   1   6   2 2047.46 76.2491   3
   1   6   3 4011.35 100.727   3
   1   6   3 3839.63 81.5360   1
   1   6   4 4876.40 110.426   3
   1   6   4 4683.83 92.5523   1
   1   6   5 9759.88 132.546   1
   1   6   5 9849.31 153.756   3
   1   6   6 6890.65 118.426   1
   1   6   6 6638.31 133.485   3
   1   6   7 724.364 67.7820   3
   1   6   8 18230.5 217.141   3
   1   6   9 35.4224 49.1830   3
   1   6  10 300.701 61.2255   3
   1   6  11 4566.68 128.667   3
   1   6  12-15.1853 55.5659   3
   1   6  13 52.1637 64.9966   3
   1   6  14-103.667 57.4748   3
   1   7  -9 145.460 60.5529   2
   1   7  -8 98.6173 57.8481   2
   1   7  -7 66.4459 51.0798   2
   1   7  -6 121.081 52.7739   2
   1   7  -5 2028.09 74.8126   6
   1   7  -5 1841.56 78.1544   2
   1   7  -4 529.363 55.0447   2
   1   7  -4 509.860 51.1563   6
   1   7  -3 106.962 41.6704   6
   1   7  -3 159.966 47.2233   2
   1   7  -2 802.925 56.0047   6
   1   7  -2 826.947 53.8680   2
   1   7  -1 3.71731 37.8923   6
   1   7  -1 49.8354 37.5851   2
   1   7   0 412.241 58.0102   3
   1   7   0 470.983 46.6800   6
   1   7   0 331.081 44.1147   2
   1   7   1 71.3237 48.5067   3
   1   7   1 98.9692 41.0297   6
   1   7   2 412.415 48.8566   6
   1   7   2 410.633 57.4967   3
   1   7   3 750.958 68.3736   3
   1   7   4 273.038 65.2580   3
   1   7   5 40462.4 330.024   3
   1   7   6 11808.9 188.395   3
   1   7   7 217.221 58.5128   3
   1   7   8 749.688 70.0006   3
   1   7   9 214.371 61.0877   3
   1   7  10 691.936 73.9112   3
   1   7  11-9.80075 59.5982   3
   1   7  12-16.7660 59.0446   3
   1   7  13 114.849 61.9770   3
   1   8  -7 27.7081 60.1562   2
   1   8  -6-73.7028 50.4802   2
   1   8  -5 14.2854 47.8668   2
   1   8  -5-20.8710 38.1843   6
   1   8  -4 950.025 66.0237   2
   1   8  -4 899.705 62.6606   6
   1   8  -3 16.8163 46.4566   2
   1   8  -3-102.143 42.9415   6
   1   8  -2 899.366 57.1275   2
   1   8  -2 1010.63 66.5770   6
   1   8  -1 1833.57 77.9725   6
   1   8   0 581.438 53.6567   6
   1   8   1 2215.21 94.9014   3
   1   8   1 2153.88 80.7401   6
   1   8   2 1411.71 69.7206   6
   1   8   2 1457.25 86.2122   3
   1   8   3 242.954 57.3688   3
   1   8   3 224.203 44.8327   6
   1   8   4 1065.28 63.9163   6
   1   8   4 1052.20 79.6441   3
   1   8   5 4301.59 127.151   3
   1   8   6 253.289 61.2004   3
   1   8   7 44.6196 54.3861   3
   1   8   8 428.961 71.4895   3
   1   8   9 3.94295 55.8148   3
   1   8  10 784.074 76.5924   3
   1   8  11 132.148 56.3551   3
   1   9  -6 206.168 52.3651   2
   1   9  -5 466.280 52.3595   2
   1   9  -4 254.036 57.1195   6
   1   9  -3 384.172 52.1253   6
   1   9  -2 29.4695 39.1323   6
   1   9  -1 103.493 49.5859   6
   1   9   0 207.965 55.4895   6
   1   9   1 80.0637 60.4482   3
   1   9   1-19.0578 46.5584   6
   1   9   2 55.9301 54.7950   3
   1   9   2 23.4278 49.4304   6
   1   9   3-26.3949 48.5130   6
   1   9   3 69.3765 59.5853   3
   1   9   4 231.418 47.5676   6
   1   9   4 183.841 64.4458   3
   1   9   5-42.3039 58.9105   3
   1   9   5 87.9838 45.4638   6
   1   9   6 154.141 50.3305   6
   1   9   6 113.249 56.4401   3
   1   9   7 847.430 84.7822   3
   1   9   8 472.243 71.9514   3
   1   9   9 55.5775 69.6690   3
   1  10  -1 228.881 55.1552   6
   1  10   0 149.153 50.0436   6
   1  10   1 35.2249 51.0754   6
   1  10   2 172.711 68.7906   3
   1  10   2 7.36299 46.2712   6
   1  10   3 263.716 69.3599   3
   1  10   3 300.746 51.6433   6
   1  10   4 195.010 75.8344   3
   1  10   4 66.2621 54.3652   6
   1  10   5 677.230 72.9248   6
   1  10   5 564.485 81.4568   3
   1  10   6 563.864 87.5592   3
  -2   9   3 23.5914 60.2539   2
  -2   9   2 182.689 64.8108   2
  -2   9   1 488.749 75.3354   2
  -2   9   0 614.450 81.5293   2
  -2   9  -1 191.948 65.5893   2
  -2   8   8 63.0000 69.0267   3
  -2   8   7 155.140 57.1258   3
  -2   8   6-61.7316 49.8370   2
  -2   8   6-64.8767 54.0841   3
  -2   8   5 7.37150 63.4288   3
  -2   8   5-63.3094 61.2502   2
  -2   8   4 167.997 72.3190   3
  -2   8   4 21.0853 59.5796   2
  -2   8   3 396.809 74.5846   3
  -2   8   3 359.024 67.8152   2
  -2   8   2 1853.46 93.5827   2
  -2   8   2 1819.08 103.778   3
  -2   8   1 206.259 65.7606   2
  -2   8   0 373.507 71.7538   2
  -2   8  -1 21.7845 59.0948   2
  -2   8  -2 213.473 62.5639   2
  -2   8  -3 28.4956 64.4508   2
  -2   8  -4 510.453 69.9131   2
  -2   7  11 105.836 62.4189   3
  -2   7  10 1198.49 91.6538   3
  -2   7   9-161.750 55.3889   3
  -2   7   8 738.010 84.7243   3
  -2   7   7 474.770 79.4999   3
  -2   7   6 61.5409 55.1075   2
  -2   7   6 39.7451 66.0191   3
  -2   7   5 1139.18 82.3730   2
  -2   7   5 1367.59 89.2115   3
  -2   7   4 332.476 68.0927   2
  -2   7   4 179.911 73.1184   3
  -2   7   3 198.132 64.5008   2
  -2   7   3 116.885 65.9008   3
  -2   7   2 40.8567 62.2139   3
  -2   7   2 65.2023 58.3238   2
  -2   7   1 1229.20 80.7791   2
  -2   7   0 2648.63 101.158   2
  -2   7  -1 13.7455 63.5209   2
  -2   7  -2 76.0582 60.7839   2
  -2   7  -3 551.165 70.2847   2
  -2   7  -4 19.4067 56.5631   2
  -2   7  -5 83.0133 61.4065   2
  -2   7  -6 816.006 76.4346   2
  -2   7  -7 17.5384 48.8128   2
  -2   6  12 144.920 65.5114   3
  -2   6  11 106.612 69.5615   3
  -2   6  10-104.012 61.5855   3
  -2   6   9 3999.28 131.793   3
  -2   6   8 182.363 63.5605   3
  -2   6   7 1565.73 88.2651   3
  -2   6   6 3630.14 119.399   3
  -2   6   5 1914.33 98.4714   3
  -2   6   4 3223.77 114.394   3
  -2   6   4 3370.10 110.180   2
  -2   6   3 7571.38 157.866   3
  -2   6   3 7687.35 153.513   2
  -2   6   2 486.150 71.3399   3
  -2   6   2 551.542 68.8138   2
  -2   6   1 18.3609 54.1487   2
  -2   6   1-42.1574 60.7337   3
  -2   6   0 8403.61 151.954   2
  -2   6  -1 64.3896 53.5050   2
  -2   6  -2 379.790 65.3183   2
  -2   6  -3 37.3172 56.7035   2
  -2   6  -4 651.163 72.2757   2
  -2   6  -5 4476.18 121.404   2
  -2   6  -6 51.6046 55.8498   2
  -2   6  -7 122.272 60.0137   2
  -2   6  -8 417.640 70.9555   2
  -2   6  -9 1020.79 86.5337   2
  -2   5  14 61.8130 68.5038   3
  -2   5  13-92.8106 55.5816   5
  -2   5  13 132.490 61.7684   3
  -2   5  12 731.952 75.4961   5
  -2   5  12 600.348 73.7277   3
  -2   5  11 2458.10 100.027   5
  -2   5  11 2066.98 95.5179   3
  -2   5  10 519.022 70.4549   3
  -2   5  10 413.526 57.7082   5
  -2   5   9 511.559 60.0392   5
  -2   5   9 533.451 63.9374   3
  -2   5   8 349.717 53.4176   5
  -2   5   8 371.699 63.3175   3
  -2   5   7 6.47402 52.2357   3
  -2   5   7 16.6933 49.4011   5
  -2   5   6 2231.33 91.3447   3
  -2   5   6 2056.05 82.1492   5
  -2   5   5 7986.76 128.634   5
  -2   5   5 7961.68 148.030   3
  -2   5   4 78.6649 48.4188   3
  -2   5   4 8.02404 37.8478   5
  -2   5   3 15.8061 35.3944   5
  -2   5   3 0.87023 46.9888   3
  -2   5   2 43.6555 47.8162   3
  -2   5   2 21.7405 36.5844   5
  -2   5   2 67.1740 50.7028   2
  -2   5   1 892.453 50.7044   5
  -2   5   1 835.394 63.6319   2
  -2   5   1 824.523 63.3364   3
  -2   5   0 5575.11 95.2433   5
  -2   5   0 5825.25 121.927   2
  -2   5  -1 1914.82 78.5568   2
  -2   5  -1 1710.47 59.2108   5
  -2   5  -2 87.5067 49.8207   2
  -2   5  -2 119.351 36.2955   5
  -2   5  -3 7540.67 142.453   2
  -2   5  -3 7175.98 103.758   5
  -2   5  -4 1910.79 61.4145   5
  -2   5  -4 1909.52 91.5788   2
  -2   5  -5 378.456 50.9604   5
  -2   5  -5 400.739 65.1378   2
  -2   5  -6 8.04141 55.3661   2
  -2   5  -7 2986.32 99.7320   2
  -2   5  -8 55.8587 55.7802   2
  -2   5  -9 0.49623 52.6878   2
  -2   5 -10 1401.24 79.8041   2
  -2   5 -11 206.372 64.4702   2
  -2   4  15-57.0506 56.7698   3
  -2   4  14 535.091 65.3645   3
  -2   4  13 701.843 74.5459   5
  -2   4  13 657.331 65.9761   3
  -2   4  12 58.9662 53.2030   3
  -2   4  12 103.717 54.3164   5
  -2   4  11 1431.64 81.5336   3
  -2   4  11 1625.83 81.0727   5
  -2   4  10-7.29922 53.7130   5
  -2   4  10-47.2717 51.7794   3
  -2   4   9 509.507 57.5249   5
  -2   4   9 531.653 61.3526   3
  -2   4   8 851.274 64.0215   3
  -2   4   8 908.259 61.3290   5
  -2   4   7 505.827 50.8367   5
  -2   4   7 454.595 56.8461   3
  -2   4   6 5189.67 115.010   3
  -2   4   6 5211.10 107.654   5
  -2   4   5-23.3749 41.7396   3
  -2   4   5 25.6797 17.1363   0
  -2   4   5-9.71568 34.7861   5
  -2   4   4 3241.92 82.1961   5
  -2   4   4 3316.47 89.7703   3
  -2   4   3 1790.38 72.0655   3
  -2   4   3 1873.42 66.7558   5
  -2   4   2 28567.7 209.148   5
  -2   4   2 28135.4 232.414   3
  -2   4   1 249.125 38.9846   5
  -2   4   1 193.866 48.2783   3
  -2   4   1 270.060 50.8136   2
  -2   4   0 167.815 48.2878   2
  -2   4   0 156.122 46.9914   3
  -2   4   0 103.326 34.0588   5
  -2   4  -1 2490.61 64.2872   5
  -2   4  -1 2417.92 80.3497   2
  -2   4  -2 387.010 39.6682   5
  -2   4  -2 401.728 52.2581   2
  -2   4  -3 713.546 44.1394   5
  -2   4  -3 625.560 59.4281   2
  -2   4  -4 106.251 48.3520   2
  -2   4  -4 134.511 36.5292   5
  -2   4  -5 9986.07 123.027   5
  -2   4  -5 10360.7 149.524   2
  -2   4  -6 2021.62 82.4981   2
  -2   4  -6 2003.91 67.5516   5
  -2   4  -7 796.975 66.7548   2
  -2   4  -7 739.239 53.5987   5
  -2   4  -8 17.9245 50.9072   2
  -2   4  -8-7.85420 42.4446   5
  -2   4  -9-5.47958 42.5249   5
  -2   4  -9 24.9509 49.7684   2
  -2   4 -10 248.134 55.8107   2
  -2   4 -10 272.504 47.3186   5
  -2   4 -11 19.9590 47.1260   5
  -2   4 -11-3.10382 56.3181   2
  -2   4 -12 234.195 49.8294   5
  -2   4 -12 203.137 55.7452   2
  -2   3  14 246.483 56.4776   3
  -2   3  13 825.246 71.5493   3
  -2   3  12 127.849 48.5869   3
  -2   3  11 6.83622 44.1364   3
  -2   3  10 714.772 61.4529   3
  -2   3   9 229.143 48.1105   3
  -2   3   8 508.560 51.0537   5
  -2   3   8 527.095 51.2511   3
  -2   3   7 1675.82 66.5347   3
  -2   3   7 1715.94 70.3528   5
  -2   3   6 58.0590 36.3205   5
  -2   3   6 21.0736 36.8086   3
  -2   3   5 1441.23 60.0631   5
  -2   3   5 1482.11 62.2874   3
  -2   3   4 2054.98 66.1454   3
  -2   3   4 2023.88 65.4863   5
  -2   3   3 92.3635 36.4908   5
  -2   3   3 95.8062 33.6025   3
  -2   3   2 2943.70 71.7405   5
  -2   3   2 2771.44 73.0398   3
  -2   3   1 7777.09 106.024   5
  -2   3   1 7227.60 110.124   3
  -2   3   0 570.125 50.6707   3
  -2   3   0 486.523 41.5422   5
  -2   3   0 560.555 51.1501   2
  -2   3  -1 12675.1 145.977   2
  -2   3  -1 12481.7 128.633   5
  -2   3  -2 3334.72 70.6149   5
  -2   3  -2 3469.84 84.9286   2
  -2   3  -3 6026.29 91.8678   5
  -2   3  -3 6060.73 108.087   2
  -2   3  -4 239.579 47.0844   2
  -2   3  -4 262.163 37.4400   5
  -2   3  -5 3975.12 79.5065   5
  -2   3  -5 4050.41 91.1266   2
  -2   3  -6 10.9558 42.9227   2
  -2   3  -6 11.3099 38.1236   5
  -2   3  -7 269.191 47.1733   2
  -2   3  -7 278.992 42.2626   5
  -2   3  -8 61.9040 48.5711   2
  -2   3  -8 81.9454 41.3481   5
  -2   3  -9-3.37851 43.4070   5
  -2   3  -9 7.14092 46.8340   2
  -2   3 -10 1300.12 68.4736   2
  -2   3 -10 1125.91 61.2229   5
  -2   3 -11 3021.66 87.0432   5
  -2   3 -11 3013.91 94.1629   2
  -2   3 -12 27.0360 44.9584   5
  -2   3 -12 61.7210 43.8207   2
  -2   3 -13 92.4389 56.1816   2
  -2   3 -13 58.3018 49.7313   5
   2  -2 -15 175.814 60.1084   2
   2  -2 -14 5.71143 67.0575   2
  -2   2  13 339.027 49.8648   3
   2  -2 -13 450.266 70.1866   2
   2  -2 -12 1047.72 73.7108   2
  -2   2  12 1060.16 65.7834   3
   2  -2 -11 1081.61 71.5674   2
  -2   2  11 1026.11 61.9391   3
  -2   2  10 2.89548 39.3930   3
   2  -2 -10-44.5748 51.8091   2
  -2   2   9 1983.03 71.2881   3
  -2   2   8 2872.70 76.6674   3
  -2   2   7 4261.52 87.5612   3
  -2   2   6 4536.40 86.2786   3
  -2   2   6 4591.00 92.3309   5
  -2   2   5 15663.2 153.746   5
  -2   2   5 15431.8 145.026   3
  -2   2   4 6438.89 99.2442   5
  -2   2   4 6068.68 91.3305   3
  -2   2   3 3461.24 74.3822   5
  -2   2   3 3311.99 67.5459   3
  -2   2   2 1026.67 43.1905   3
  -2   2   2 913.116 47.3246   5
  -2   2   1 13018.9 128.854   5
  -2   2   1 13698.5 125.511   3
  -2   2   0 670.264 42.1591   3
  -2   2   0 505.783 40.8721   5
  -2   2  -1 4360.43 84.2524   2
  -2   2  -1 4125.07 76.2077   5
  -2   2  -2 1360.20 51.3159   5
  -2   2  -2 1431.73 55.4733   2
  -2   2  -3 4887.91 82.0925   5
  -2   2  -3 5400.49 88.7580   2
  -2   2  -4 1877.63 57.0825   5
  -2   2  -4 2083.38 62.3039   2
  -2   2  -5 67.3805 35.5330   2
  -2   2  -5 104.146 35.3968   5
  -2   2  -6 1849.94 62.4005   5
  -2   2  -6 1873.03 61.2363   2
  -2   2  -7 154.900 39.0566   5
  -2   2  -7 141.207 38.4353   2
  -2   2  -8 333.323 44.3791   2
  -2   2  -8 411.509 45.0633   5
  -2   2  -9 4533.32 98.4647   2
  -2   2  -9 4251.96 90.1221   5
  -2   2 -10 1266.62 62.6586   5
  -2   2 -10 1419.27 65.8107   2
  -2   2 -11 1735.80 74.0686   5
  -2   2 -11 1546.45 69.4062   2
  -2   2 -12 1307.15 69.9618   5
  -2   2 -12 1244.73 78.4416   2
  -2   2 -13 80.2561 48.6836   5
  -2   2 -13-14.5028 46.8426   2
  -2   2 -14 25.8895 52.3901   5
  -2   2 -14 16.3140 52.6878   2
   2  -1 -15 14.8516 53.3124   2
   2  -1 -14 158.379 61.1374   2
   2  -1 -13 643.992 67.9388   2
   2  -1 -12 80.8786 55.2605   2
  -2   1  12 112.490 41.2561   3
  -2   1  11 20466.5 199.489   3
   2  -1 -11 20351.3 213.386   2
   2  -1 -10 18801.7 194.810   2
  -2   1  10 18081.9 178.407   3
  -2   1   9 3063.43 74.5254   3
   2  -1  -9 2974.89 84.6304   2
   2  -1  -8 1622.91 64.1775   2
  -2   1   8 1541.05 54.2992   3
  -2   1   7 10053.4 114.462   3
   2  -1  -7 9702.11 122.755   2
   2  -1  -6 786.914 46.3765   2
  -2   1   6 857.411 40.6021   3
  -2   1   5 2148.92 52.2019   3
  -2   1   4 667.112 42.1713   5
  -2   1   4 669.702 32.4527   3
  -2   1   3 4013.09 73.0736   5
  -2   1   3 4039.56 60.6586   3
  -2   1   2 10930.5 111.306   5
  -2   1   2 11127.5 93.5106   3
  -2   1   1 6154.38 71.4554   3
  -2   1   1 5854.34 83.7887   5
  -2   1   0 74389.8 269.243   5
  -2   1  -1 25234.3 156.992   5
  -2   1  -1 25554.9 159.019   2
   2  -1   1 25451.4 98.3630   1
  -2   1  -2 3840.64 67.3335   5
   2  -1   2 3762.42 44.6711   1
  -2   1  -2 3825.56 67.4928   2
  -2   1  -3 1209.74 45.4071   5
  -2   1  -3 1340.38 45.5087   2
  -2   1  -4 326.258 36.2838   2
  -2   1  -4 324.614 38.0243   5
  -2   1  -5 2289.10 60.9219   5
  -2   1  -5 2409.75 58.3475   2
  -2   1  -6 25477.6 174.691   5
  -2   1  -6 26342.5 172.094   2
  -2   1  -7 15003.1 137.295   5
  -2   1  -7 16056.6 142.484   2
  -2   1  -8 4073.98 80.1047   5
  -2   1  -8 3974.24 79.7846   2
  -2   1  -9-0.84759 40.2650   5
  -2   1  -9 13.3322 36.0899   2
  -2   1 -10 284.045 47.9463   5
  -2   1 -10 187.324 41.9227   2
  -2   1 -11 126.999 47.7594   5
  -2   1 -11 223.990 41.0313   2
  -2   1 -12 1338.34 67.1039   5
  -2   1 -12 1189.60 65.9837   2
  -2   1 -13 319.642 55.1498   5
  -2   1 -13 132.224 44.5485   2
  -2   1 -14-9.73936 49.7226   5
  -2   1 -14-23.9840 46.2376   2
   2   0 -15 25.0365 66.7220   2
   2   0 -14 346.613 65.0855   2
   2   0 -13 6590.98 140.472   2
   2   0 -12 500.127 61.1052   2
   2   0 -11 1836.20 80.2600   2
   2   0 -10 16235.1 180.767   2
   2   0  -9 2010.60 73.1332   2
   2   0  -8 1089.52 56.1070   2
   2   0  -7 758.038 50.6252   2
  -2   0   7 736.045 35.8431   3
   2   0  -6 495.876 41.3604   2
  -2   0   6 482.690 28.8360   3
   2   0  -5 3173.12 64.9002   2
  -2   0   5 3303.27 53.5127   3
   2   0  -4 2966.41 60.1509   2
  -2   0   4 2965.31 46.4226   3
  -2   0   3 2509.21 59.0455   5
  -2   0   3 2633.30 39.8937   3
   2   0  -3 2689.56 55.1943   2
  -2   0   2 18957.2 91.1299   3
  -2   0   2 19370.3 137.878   5
  -2   0   1 138751. 235.155   3
  -2   0   1 138544. 347.558   5
  -2   0   0 340585. 533.053   5
  -2   0  -1 106023. 291.133   5
   2   0   1 105453. 240.635   1
  -2   0  -2 3962.51 65.3364   5
  -2   0  -2 3871.74 56.3753   2
   2   0   2 3682.12 53.5073   1
  -2   0  -3 23734.3 128.872   2
  -2   0  -3 24970.8 150.553   5
  -2   0  -4 1856.15 50.0968   5
  -2   0  -4 1931.03 43.2261   2
  -2   0  -5 7844.54 83.2796   2
  -2   0  -5 8265.25 94.2673   5
  -2   0  -6 1803.17 45.4750   2
  -2   0  -6 1673.29 53.7910   5
  -2   0  -7 6254.03 87.2018   5
  -2   0  -7 6079.60 81.4802   2
  -2   0  -8 2961.48 62.5517   2
  -2   0  -8 2863.82 70.0191   5
  -2   0  -9 44.9548 46.3874   5
  -2   0  -9 59.8745 30.8437   2
  -2   0 -10 5354.84 95.9251   5
  -2   0 -10 5344.20 90.0181   2
  -2   0 -11 5.17172 44.7646   5
  -2   0 -11 14.8900 37.0002   2
  -2   0 -12 173.549 49.5530   5
  -2   0 -12 217.454 42.6065   2
  -2   0 -13 515.195 58.1175   5
  -2   0 -14 395.781 57.8559   5
  -2   0 -15-36.5035 49.4243   5
   2   1 -14 435.187 70.3965   2
   2   1 -13 69.3224 56.1418   2
   2   1 -12-2.31498 47.4458   2
   2   1 -11 750.272 62.8928   2
   2   1 -10 1146.92 63.9589   2
   2   1  -9 83.6128 42.2304   2
   2   1  -8 3202.61 78.8308   2
   2   1  -7 323.782 40.7412   2
   2   1  -7 299.554 25.9599   4
   2   1  -6 14.5821 31.6454   2
   2   1  -6-13.0624 20.6822   4
  -2  -1   6-18.4521 11.7895   0
   2   1  -5 33.8187 29.5201   2
   2   1  -4 1102.55 39.6442   2
  -2  -1   3 25094.4 152.414   5
   2   1  -3 24949.7 137.371   2
   2   1  -2 16013.7 102.723   2
  -2  -1   2 16677.0 117.963   5
  -2  -1   1 309983. 487.459   5
   2   1  -1 309211. 1878.65   6
   2   1  -1 308357. 1648.80   2
  -2  -1   0 356885. 1980.96   5
   2   1   0 341873. 1879.50   6
  -2  -1  -1 372378. 494.689   5
   2   1   1 375606. 2036.62   1
  -2  -1  -2 21165.5 122.244   5
   2   1   2 20604.5 129.193   1
   2   1   2 21757.2 102.586   6
  -2  -1  -3 13931.2 102.517   5
  -2  -1  -3 13802.4 74.7344   2
   2   1   3 13372.1 74.1201   6
   2   1   4 7002.45 49.3980   6
  -2  -1  -4 6269.25 54.0218   2
  -2  -1  -4 6609.19 74.7401   5
  -2  -1  -5 1117.82 42.7715   5
  -2  -1  -5 1106.00 28.9171   2
  -2  -1  -6 7851.54 88.6549   5
  -2  -1  -6 8124.27 72.0096   2
  -2  -1  -7 2023.46 41.7760   2
  -2  -1  -7 1909.09 52.3963   5
  -2  -1  -8-23.5727 32.5720   5
  -2  -1  -8-5.26219 20.5011   2
  -2  -1  -9 5058.61 84.7525   5
  -2  -1  -9 5158.51 76.2873   2
  -2  -1 -10 10333.8 123.861   5
  -2  -1 -10 10012.4 112.176   2
  -2  -1 -11 787.853 55.9980   5
  -2  -1 -12 1628.37 70.0876   5
  -2  -1 -13 5965.32 114.265   5
  -2  -1 -14 17.4195 45.1620   5
  -2  -1 -15 381.471 65.2430   5
   2   2 -14 103.368 58.2752   2
   2   2 -13 207.675 59.5995   2
   2   2 -12 457.222 57.2548   2
   2   2 -11 0.78481 49.0665   2
   2   2 -10 718.022 58.4581   2
   2   2  -9 55.5189 42.1389   2
   2   2  -8 1894.13 65.2620   2
   2   2  -7 18729.7 123.164   4
   2   2  -7 19201.8 161.565   2
   2   2  -6 22106.5 160.856   2
  -2  -2   6 22390.6 100.705   0
   2   2  -6 22627.1 133.734   4
   2   2  -5 2470.41 57.4068   2
  -2  -2   5 2380.97 36.7791   0
   2   2  -5 2455.61 55.6040   6
   2   2  -5 2359.27 48.2685   4
   2   2  -4 5724.14 69.2843   4
   2   2  -4 5747.15 77.3723   6
   2   2  -4 5479.51 73.2361   2
   2   2  -3 2976.29 50.9441   2
   2   2  -3 2939.74 50.6997   4
   2   2  -3 2840.84 54.6873   6
   2   2  -2 7302.94 67.2234   2
   2   2  -2 7228.68 73.4674   4
   2   2  -2 7211.61 78.3834   6
  -2  -2   2 7492.23 77.2625   5
   2   2  -1 4595.48 59.1726   4
  -2  -2   1 4342.45 59.7012   5
   2   2  -1 4428.50 60.3586   6
   2   2  -1 4653.17 48.8906   2
  -2  -2   0 33852.9 141.113   5
   2   2   0 33777.8 107.237   2
   2   2   0 33537.5 151.848   6
   2   2   0 33313.3 146.238   4
  -2  -2  -1 159.889 21.2604   5
   2   2   1 153.276 15.1803   3
   2   2   1 166.441 21.7802   4
   2   2   1 139.281 34.1152   1
   2   2   1 140.067 21.5531   6
  -2  -2  -2 6932.52 66.8993   5
   2   2   2 7124.41 65.7113   6
   2   2   2 7069.97 87.7249   1
   2   2   2 7247.63 65.7564   4
   2   2   3 1832.96 52.4493   1
   2   2   3 1874.54 34.6701   6
   2   2   3 1949.84 35.8813   4
  -2  -2  -3 1939.98 38.9007   5
  -2  -2  -4 9789.90 81.2780   5
   2   2   4 9352.40 68.3295   6
   2   2   4 9439.04 69.0885   4
  -2  -2  -5 39.9391 25.8261   5
   2   2   5 24.3678 14.8672   4
  -2  -2  -5 22.1896 11.0108   2
   2   2   5 59.1669 12.5904   6
  -2  -2  -6 325.882 29.5386   5
   2   2   6 350.826 15.9741   6
   2   2   6 313.095 15.6357   4
  -2  -2  -6 351.418 18.7073   2
  -2  -2  -7 6992.96 79.5161   5
  -2  -2  -7 7073.44 66.7506   2
  -2  -2  -8 1884.22 50.2137   5
  -2  -2  -8 1849.65 41.7694   2
  -2  -2  -9 4302.94 74.7592   5
  -2  -2 -10 11600.5 124.000   5
  -2  -2 -11 56699.1 279.060   5
  -2  -2 -12 1219.49 62.4380   5
  -2  -2 -13-58.2720 45.4069   5
  -2  -2 -14 204.738 50.2671   5
  -2  -2 -15 276.148 56.5424   5
   2   3 -13 91.4760 59.2522   2
   2   3 -12 1152.83 70.5265   2
   2   3 -11 1499.52 72.5191   2
   2   3 -10 1008.56 62.8630   2
   2   3  -9 3099.39 84.3154   2
   2   3  -8 123.756 39.8387   2
   2   3  -8 85.7666 30.5581   6
   2   3  -7-2.05874 35.2690   2
   2   3  -7 42.3203 30.7415   6
  -2  -3   6 95.0031 20.3793   0
   2   3  -6 113.898 34.1481   2
   2   3  -6 159.126 31.8002   6
  -2  -3   5 3895.54 50.6120   0
   2   3  -5 4246.14 74.2686   2
   2   3  -5 4299.85 76.0028   6
  -2  -3   4 54.3873 18.9405   0
   2   3  -4 36.4824 24.1885   6
   2   3  -4 73.7424 27.0639   2
   2   3  -4 87.3408 24.8874   4
  -2  -3   3 1827.32 39.1889   0
   2   3  -3 1686.80 47.9247   6
   2   3  -3 1893.25 45.0652   4
   2   3  -3 1789.28 43.9141   2
  -2  -3   2 2833.79 47.6365   5
   2   3  -2 2778.15 56.0933   6
   2   3  -2 2902.60 51.5446   4
   2   3  -2 2809.59 46.6388   2
  -2  -3   1 6603.17 66.4463   5
   2   3  -1 6870.54 73.1089   4
   2   3  -1 6940.90 61.2917   2
   2   3  -1 6892.87 79.7729   6
  -2  -3   0 6002.74 57.0364   5
   2   3   0 6509.88 63.4784   3
   2   3   0 6461.58 69.8503   4
   2   3   0 6322.68 50.6673   2
   2   3   0 6554.42 75.5132   6
  -2  -3  -1 15583.6 81.6046   5
   2   3   1 15787.0 133.924   1
   2   3   1 15496.1 101.662   4
   2   3   1 15489.9 63.0686   2
   2   3   1 15547.9 101.931   3
   2   3   1 15389.1 110.373   6
   2   3   2 10697.6 90.8949   6
   2   3   2 10434.2 91.2821   3
  -2  -3  -2 10555.8 66.9800   5
   2   3   2 10781.1 114.350   1
   2   3   2 10688.5 83.5145   4
  -2  -3  -3 3967.82 44.1691   5
   2   3   3 4246.75 78.7374   1
   2   3   3 4067.97 51.5397   4
   2   3   3 4156.21 61.3455   3
   2   3   3 4040.09 56.5235   6
  -2  -3  -4 3594.65 44.1497   5
   2   3   4 3395.48 51.2550   6
   2   3   4 3697.10 47.5667   4
   2   3   4 3642.43 63.6781   3
  -2  -3  -5 43208.9 153.855   5
   2   3   5 43301.7 217.969   3
   2   3   5 43597.6 169.517   6
  -2  -3  -6 6642.92 68.3052   5
   2   3   6 6435.04 67.6996   6
  -2  -3  -7 2644.32 51.0547   5
  -2  -3  -8 10883.1 99.2489   5
  -2  -3  -9 335.018 34.2288   5
  -2  -3 -10 686.352 45.7915   5
  -2  -3 -11 2006.06 62.3266   5
  -2  -3 -12 435.081 46.1916   5
  -2  -3 -13 635.429 52.4253   5
  -2  -3 -14 53.3564 49.0281   5
  -2  -3 -15 60.8474 50.3164   5
   2   4 -12 158.992 56.5344   2
   2   4 -11 1779.05 80.3432   2
   2   4 -10 18.6170 48.5199   2
   2   4  -9 3527.70 93.8575   2
   2   4  -8 9.44899 42.5938   2
   2   4  -7 89.7221 32.7853   6
   2   4  -7 58.8379 41.7690   2
   2   4  -6 878.121 48.2030   2
   2   4  -6 885.457 45.9523   6
   2   4  -5 2306.75 60.9648   2
   2   4  -5 2518.52 64.5469   6
   2   4  -4 57.6595 27.3106   6
   2   4  -4 51.6768 27.4295   2
   2   4  -3 1294.36 41.0861   2
  -2  -4   3 1255.26 36.6604   0
   2   4  -3 1361.04 48.7002   6
   2   4  -2 12152.4 119.418   6
  -2  -4   2 12230.7 98.3055   0
   2   4  -2 11628.3 96.1361   2
  -2  -4   1 14595.5 86.3727   5
   2   4  -1 14792.1 127.569   6
  -2  -4   1 14974.2 106.863   0
   2   4  -1 14759.7 118.400   3
   2   4  -1 15007.4 98.4377   2
   2   4   0 1001.67 27.8003   2
   2   4   0 1005.00 40.9281   6
   2   4   0 1007.77 38.4348   3
   2   4   1 4504.13 45.6226   2
   2   4   1 4678.77 72.2159   6
   2   4   1 4675.43 86.7103   1
   2   4   1 4655.70 72.7902   3
   2   4   2 4909.01 72.2560   6
   2   4   2 4818.41 40.0853   2
   2   4   2 5022.24 76.4340   3
   2   4   2 4990.49 88.9719   1
  -2  -4  -3 1284.14 19.5969   5
   2   4   3 1390.17 58.4349   1
   2   4   3 1385.73 46.5332   3
   2   4   3 1342.51 42.7240   6
  -2  -4  -4 9572.20 57.6091   5
   2   4   4 9727.84 120.892   1
   2   4   4 9625.40 97.9751   6
   2   4   4 9588.27 112.197   3
  -2  -4  -5 2992.60 39.5367   5
   2   4   5 2849.82 68.5223   3
   2   4   5 2991.27 55.8486   6
   2   4   6 78.7531 21.5952   6
   2   4   6 54.7262 32.8997   3
  -2  -4  -6 68.1929 17.8853   5
  -2  -4  -7 259.437 24.1448   5
   2   4   7 269.909 39.1247   3
   2   4   7 201.130 23.3833   6
   2   4   8 115.584 39.0662   3
  -2  -4  -8 117.973 25.9055   5
   2   4   9 306.461 46.2648   3
  -2  -4  -9 244.863 30.8864   5
   2   4  10 79.8538 43.8674   3
  -2  -4 -10 42.8544 30.8081   5
   2   4  11-12.4916 41.9777   3
  -2  -4 -11 21.5193 34.1988   5
  -2  -4 -12 519.586 45.6176   5
   2   4  12 417.846 57.7743   3
  -2  -4 -13 1577.86 63.8599   5
   2   4  13 1387.72 77.9415   3
   2   4  14 307.814 54.3964   3
  -2  -4 -14 145.636 46.9277   5
  -2  -4 -15 519.351 56.6269   5
   2   4  15 455.380 62.6651   3
   2   5 -11-30.6619 47.1001   2
   2   5 -10 68.5399 47.7595   2
   2   5  -9 365.719 56.1308   2
   2   5  -8-5.19836 43.9461   2
   2   5  -7 45.2252 38.4346   6
   2   5  -7 89.4505 42.4784   2
   2   5  -6 2937.40 79.5606   6
   2   5  -6 2875.06 78.5622   2
   2   5  -5 5764.49 95.0347   2
   2   5  -5 6384.31 106.490   6
   2   5  -4 1795.78 55.9740   2
   2   5  -4 2006.19 62.5377   6
   2   5  -3 299.316 33.2002   2
   2   5  -3 300.930 36.2567   6
   2   5  -2 1455.61 53.8968   6
   2   5  -2 1484.46 44.6272   2
   2   5  -1 251.187 36.1229   6
   2   5  -1 237.876 26.1714   2
   2   5   0 6356.63 72.2104   2
   2   5   0 6188.01 94.3191   3
   2   5   0 6198.02 93.8158   6
   2   5   1 108.645 33.3586   6
   2   5   1 81.4576 32.9625   3
   2   5   1 90.3015 44.0656   1
   2   5   1 94.8124 18.8517   2
   2   5   2 11172.0 128.675   3
   2   5   2 10922.0 133.311   1
   2   5   2 11377.8 121.143   6
   2   5   3 1736.38 65.7630   1
   2   5   3 1842.01 54.6215   6
   2   5   3 1704.39 58.8721   3
   2   5   4 103.434 29.0564   6
   2   5   4 109.682 35.9734   3
   2   5   4 117.938 44.3849   1
   2   5   5 623.849 54.2689   1
   2   5   5 740.202 39.2188   6
   2   5   5 612.521 47.2599   3
   2   5   6 2028.25 69.9496   3
   2   5   6 2023.78 55.4103   6
   2   5   7 373.774 43.0867   3
   2   5   7 394.495 33.9787   6
   2   5   8 1543.77 67.7356   3
   2   5   9 91.2732 45.4328   3
   2   5  10 44.5766 47.0313   3
   2   5  11 359.046 55.6595   3
   2   5  12 544.490 58.9675   3
   2   5  13 968.629 71.7054   3
   2   5  14 449.583 62.6466   3
   2   6 -10 1438.64 79.0540   2
   2   6  -9 86.2390 54.2314   2
   2   6  -8 555.516 56.0442   2
   2   6  -7 3139.25 90.9813   2
   2   6  -6 522.197 51.0957   2
   2   6  -6 631.934 54.9703   6
   2   6  -5 1185.20 63.6084   6
   2   6  -5 1134.12 59.3179   2
   2   6  -4 2250.17 67.8816   2
   2   6  -4 2395.73 74.7954   6
   2   6  -3 1589.29 62.8612   6
   2   6  -3 1551.46 56.7151   2
   2   6  -2 1140.75 55.3185   6
   2   6  -2 1010.61 46.9574   2
   2   6  -1 2425.49 58.4841   2
   2   6  -1 2517.82 72.9362   6
   2   6   0 10191.4 136.885   3
   2   6   0 10478.8 133.111   6
   2   6   1 1414.92 59.5706   6
   2   6   1 1397.09 62.8022   3
   2   6   2 83.0368 36.5142   6
   2   6   2 65.7266 41.6107   1
   2   6   2 13.5364 36.9025   3
   2   6   3-21.0086 34.0868   6
   2   6   3-3.18120 36.6282   3
   2   6   3 10.0790 46.9716   1
   2   6   4 5418.52 107.787   1
   2   6   4 5741.45 97.6283   6
   2   6   4 5351.43 112.063   3
   2   6   5 3793.49 97.2018   1
   2   6   5 3633.64 95.6951   3
   2   6   5 3805.03 80.9890   6
   2   6   6 505.980 61.6356   1
   2   6   6 491.244 42.5822   6
   2   6   6 560.010 58.3933   3
   2   6   7 932.571 70.4607   1
   2   6   7 904.927 62.0233   3
   2   6   7 887.838 47.7623   6
   2   6   8 1582.30 77.8895   3
   2   6   8 1574.64 55.9250   6
   2   6   9 3316.01 106.366   3
   2   6  10 635.332 64.3335   3
   2   6  11 3526.73 114.585   3
   2   6  12 254.635 60.4253   3
   2   6  13-61.6775 57.4965   3
   2   6  14 8.96001 53.6465   3
   2   7  -9 1933.82 87.1046   2
   2   7  -8 125.004 48.2551   2
   2   7  -7 299.171 50.5538   2
   2   7  -6 123.929 47.3966   6
   2   7  -6 118.542 45.1723   2
   2   7  -5 2416.45 78.4171   2
   2   7  -5 2262.71 83.2206   6
   2   7  -4 208.757 49.3320   6
   2   7  -4 392.110 48.3647   2
   2   7  -3 43.9411 42.2847   6
   2   7  -3 78.4716 39.4718   2
   2   7  -2 3391.31 91.0565   6
   2   7  -1 10.6160 40.4386   6
   2   7   0 6406.58 125.516   3
   2   7   0 6404.26 116.882   6
   2   7   1 3718.79 100.525   3
   2   7   1 3718.51 91.5852   6
   2   7   2 628.352 57.8022   3
   2   7   2 728.832 54.4439   6
   2   7   3 6966.46 132.909   3
   2   7   3 7807.93 125.581   6
   2   7   3 7126.86 126.248   1
   2   7   4 1007.66 67.5909   1
   2   7   4 1018.71 59.2709   6
   2   7   4 931.013 66.7350   3
   2   7   5 6416.84 135.653   3
   2   7   5 6435.95 128.321   1
   2   7   5 6746.99 117.893   6
   2   7   6 5656.15 124.316   1
   2   7   6 5787.15 109.172   6
   2   7   6 5623.12 131.430   3
   2   7   7 899.051 75.3125   1
   2   7   7 970.880 70.8836   3
   2   7   7 967.888 56.2956   6
   2   7   8 105.505 37.6335   6
   2   7   8 78.2329 58.5930   1
   2   7   8 58.6956 49.2610   3
   2   7   9 1817.76 85.5484   1
   2   7   9 1825.87 90.4492   3
   2   7  10 1082.80 79.4679   3
   2   7  11 16.7560 55.8598   3
   2   7  12 44.7778 57.0915   3
   2   7  13 430.495 71.6059   3
   2   8  -8-144.878 48.2134   2
   2   8  -7 52.0651 52.7531   2
   2   8  -6 7.02054 46.5725   2
   2   8  -5-21.3037 39.9607   2
   2   8  -5-11.1696 40.5971   6
   2   8  -4 400.869 54.6518   6
   2   8  -3-43.2074 40.6954   6
   2   8  -2-5.39709 44.3855   6
   2   8  -1 207.444 51.3124   6
   2   8   0 1100.51 66.9385   6
   2   8   1 4038.18 113.499   3
   2   8   1 4118.88 105.049   6
   2   8   2 39.4000 45.2217   6
   2   8   2 35.5664 50.7664   3
   2   8   3 667.414 67.8216   3
   2   8   3 710.167 60.7750   6
   2   8   4 1334.55 79.3269   3
   2   8   4 1368.88 68.2551   6
   2   8   5 506.591 64.0370   3
   2   8   5 580.946 57.3539   6
   2   8   6 75.1827 54.7836   3
   2   8   6 84.1788 47.6921   6
   2   8   7 418.343 51.4674   6
   2   8   7 539.816 71.2700   3
   2   8   8 1358.25 87.4496   3
   2   8   8 1212.12 61.9065   6
   2   8   9 196.497 64.1486   3
   2   8   9 417.118 64.7911   1
   2   8  10-1.35039 61.1225   1
   2   8  10 76.0081 64.4595   3
   2   8  11 169.625 59.2919   1
   2   8  11 71.6517 63.6146   3
   2   8  12 579.928 71.7808   1
   2   8  12 821.406 81.1983   3
   2   9  -5 24.0545 52.6638   6
   2   9  -4-58.6774 48.8292   6
   2   9  -3 131.032 45.1079   6
   2   9  -2 172.654 56.4118   6
   2   9  -1 575.595 60.7807   6
   2   9   0 278.307 51.8116   6
   2   9   1 839.769 65.6714   6
   2   9   2 880.720 70.1342   3
   2   9   2 1125.01 71.7758   6
   2   9   3 1234.08 79.7675   3
   2   9   3 1442.54 77.5794   6
   2   9   4-28.6520 47.1730   6
   2   9   4 142.769 55.3736   3
   2   9   5 249.379 49.3001   6
   2   9   5 299.448 58.5791   3
   2   9   6 92.7318 42.6587   6
   2   9   6 88.7553 60.5999   3
   2   9   7 111.262 46.7402   6
   2   9   7 13.6086 52.4506   3
   2   9   8 103.896 41.8169   6
   2   9   8-30.6259 60.3848   3
   2   9   9 870.717 81.6173   3
   2   9   9 803.629 61.5689   6
   2   9  10 136.113 66.2568   3
   2  10   0 366.696 59.8750   6
   2  10   1 298.541 55.7747   6
   2  10   2 119.930 48.4153   6
   2  10   3 38.2267 55.2570   6
   2  10   4 1480.53 93.8056   3
   2  10   4 2317.95 96.8991   6
   2  10   5 278.825 63.8498   3
   2  10   5 600.073 62.1661   6
   2  10   6 54.1840 43.7491   6
   2  10   6 37.7678 58.1952   3
   2  10   7-77.1646 46.8307   6
   2  10   7 55.3325 61.3032   3
   2  10   8 309.299 63.0898   3
  -3   8   8 146.444 60.6595   2
  -3   8   7 284.719 71.9104   2
  -3   8   6 38.3436 59.5440   3
  -3   8   6 15.8882 73.3131   2
  -3   8   5-20.6613 54.6388   3
  -3   8   5-20.6406 78.6426   2
  -3   8   4 621.015 88.0676   2
  -3   8   4 443.262 68.2993   3
  -3   8   3 95.8388 71.1329   2
  -3   8   3 175.123 77.2400   3
  -3   8   2 61.5818 62.2614   2
  -3   8   1-48.4660 73.4102   2
  -3   8   0 74.9917 61.0226   2
  -3   8  -1-117.800 73.4585   2
  -3   8  -2 38.8327 62.4325   2
  -3   7   9 581.549 80.9639   3
  -3   7   8-33.5437 72.2615   3
  -3   7   7 346.766 71.4569   3
  -3   7   6 265.677 65.5928   2
  -3   7   6 334.026 69.4104   3
  -3   7   5 1371.52 103.738   2
  -3   7   5 1442.79 95.6134   3
  -3   7   4 5.94160 66.0432   3
  -3   7   4-64.2077 64.5307   2
  -3   7   3-173.739 66.9520   2
  -3   7   3-76.4073 66.5175   3
  -3   7   2 556.596 70.8469   2
  -3   7   1 346.733 65.7669   2
  -3   7   0 166.670 65.3775   2
  -3   7  -1 1161.98 83.0020   2
  -3   7  -2 311.310 73.7662   2
  -3   7  -3 181.583 72.0962   2
  -3   7  -4 429.518 77.4630   2
  -3   7  -5-32.0453 64.2911   2
  -3   6  12 24.5690 72.8798   3
  -3   6  11 52.1101 68.7594   3
  -3   6  10 18.6932 58.4563   3
  -3   6   9 103.127 62.2097   3
  -3   6   8 44.9004 54.9556   3
  -3   6   7 501.678 72.5564   3
  -3   6   6 1332.91 87.8601   3
  -3   6   5 12013.9 206.183   3
  -3   6   4 1058.77 86.2663   2
  -3   6   4 855.871 82.1654   3
  -3   6   3 2815.16 111.847   3
  -3   6   3 2984.59 115.667   2
  -3   6   2 18.9875 64.4201   2
  -3   6   2 94.5112 64.1623   3
  -3   6   1 1008.45 82.2138   2
  -3   6   0 1322.93 88.1676   2
  -3   6  -1 348.146 64.4665   2
  -3   6  -2 445.295 67.1785   2
  -3   6  -3-54.2110 66.3043   2
  -3   6  -4 754.423 73.6179   2
  -3   6  -5 1399.46 85.6983   2
  -3   6  -6 75.0405 58.8044   2
  -3   6  -7-36.2380 54.5924   2
  -3   6  -8-37.5123 52.8936   2
  -3   5  13 16.0857 67.7320   5
  -3   5  12 105.908 60.5854   5
  -3   5  12 102.709 65.0998   3
  -3   5  11 1409.47 95.3571   5
  -3   5  11 1145.51 84.0488   3
  -3   5  10 312.952 65.7837   5
  -3   5  10 300.562 67.8746   3
  -3   5   9 469.909 69.8812   3
  -3   5   9 498.427 72.4237   5
  -3   5   8 4976.90 130.531   5
  -3   5   8 4945.93 135.177   3
  -3   5   7 1602.83 83.9269   5
  -3   5   7 1528.33 86.5176   3
  -3   5   6 13652.8 199.800   3
  -3   5   6 13623.9 193.730   5
  -3   5   5 3566.49 113.082   3
  -3   5   5 3556.00 106.579   5
  -3   5   4 6555.72 130.619   5
  -3   5   4 6519.45 140.189   3
  -3   5   3 43.7015 56.2621   3
  -3   5   3-30.2126 47.3298   5
  -3   5   2 4.72916 57.1044   2
  -3   5   2 47.2565 50.4284   3
  -3   5   2 32.8302 44.1652   5
  -3   5   1 112.502 58.3058   2
  -3   5   1 94.4486 43.0758   5
  -3   5   0 518.068 65.6781   2
  -3   5   0 514.235 51.4186   5
  -3   5  -1 1052.04 57.8750   5
  -3   5  -1 1007.81 73.0857   2
  -3   5  -2 794.667 60.0057   5
  -3   5  -2 1031.49 74.4960   2
  -3   5  -3 473.607 71.1087   2
  -3   5  -3 461.790 50.2079   5
  -3   5  -4 578.696 53.4665   5
  -3   5  -4 421.571 76.7007   2
  -3   5  -5 6936.24 151.971   2
  -3   5  -5 7593.52 123.913   5
  -3   5  -6 752.796 58.3808   5
  -3   5  -6 593.621 74.6568   2
  -3   5  -7 2082.48 91.2496   2
  -3   5  -7 1902.36 73.8493   5
  -3   5  -8 168.405 57.0751   2
  -3   5  -8 103.999 42.0671   5
  -3   5  -9 35.3198 58.3139   2
  -3   5 -10 567.083 69.5109   2
  -3   4  13-28.7010 56.1525   5
  -3   4  12 152.004 60.4784   5
  -3   4  11 679.348 74.4840   5
  -3   4  11 652.058 65.2131   3
  -3   4  10 3485.04 118.376   5
  -3   4  10 3444.21 111.033   3
  -3   4   9 67.0133 48.7681   3
  -3   4   9 79.5501 56.8442   5
  -3   4   8 2785.84 103.282   5
  -3   4   8 2773.63 96.3016   3
  -3   4   7 574.125 61.9972   5
  -3   4   7 631.924 60.7324   3
  -3   4   6 2045.94 83.2047   5
  -3   4   6 1962.26 79.9083   3
  -3   4   5-18.3107 44.0921   3
  -3   4   5 3.44558 44.6358   5
  -3   4   4 657.283 57.4911   3
  -3   4   4 643.826 57.0402   5
  -3   4   3 335.731 52.5191   3
  -3   4   3 220.068 46.9838   5
  -3   4   2 4665.29 107.453   3
  -3   4   2 4783.68 105.645   5
  -3   4   1 938.517 60.0895   5
  -3   4   1 987.092 70.5392   2
  -3   4   1 1029.57 67.7194   3
  -3   4   0 451.069 50.9185   5
  -3   4   0 515.881 63.3894   2
  -3   4  -1 266.178 66.7911   2
  -3   4  -1 271.570 45.5619   5
  -3   4  -2 2100.81 72.0084   5
  -3   4  -2 2271.81 89.2719   2
  -3   4  -3 4690.96 100.404   5
  -3   4  -3 4553.28 112.628   2
  -3   4  -4 11406.1 147.644   5
  -3   4  -4 12349.4 177.870   2
  -3   4  -5 192.614 66.7338   2
  -3   4  -5 225.946 49.3639   5
  -3   4  -6 29295.4 264.311   2
  -3   4  -6 28614.7 228.259   5
  -3   4  -7 123.348 59.2793   2
  -3   4  -7 156.975 52.2978   5
  -3   4  -8 488.698 55.3566   5
  -3   4  -8 411.380 60.3281   2
  -3   4  -9-22.3695 51.3979   2
  -3   4  -9 52.9011 44.3564   5
  -3   4 -10 58.3349 46.0062   5
  -3   4 -10 76.5194 55.7808   2
  -3   4 -11 98.3366 51.3358   5
  -3   4 -11 32.0268 53.4177   2
  -3   4 -12 203.493 52.2434   5
  -3   3  13-37.2336 50.9600   5
  -3   3  12 238.298 65.5351   5
  -3   3  11 664.598 74.7667   5
  -3   3  10 40.8317 42.9311   3
  -3   3  10 25.8555 56.3600   5
  -3   3   9 0.75000 42.6086   3
  -3   3   9 34.2633 47.8693   5
  -3   3   8 26.2759 41.6415   3
  -3   3   8 44.1167 49.7368   5
  -3   3   7 58.7518 50.1867   5
  -3   3   7 33.2900 41.2869   3
  -3   3   6 313.775 45.5858   3
  -3   3   6 75.8427 49.9913   5
  -3   3   5 2075.88 80.5949   5
  -3   3   5 1968.88 69.0268   3
  -3   3   4 217.380 42.2073   3
  -3   3   4 158.766 45.0975   5
  -3   3   3 211.440 42.5492   3
  -3   3   3 212.181 48.5306   5
  -3   3   2 12515.6 158.860   5
  -3   3   2 12946.6 153.677   3
  -3   3   1 691.680 54.2717   3
  -3   3   1 747.105 55.1446   5
  -3   3   0 32946.8 237.688   5
  -3   3   0 33734.3 259.997   2
  -3   3  -1 1733.70 70.6784   5
  -3   3  -1 1807.42 77.9357   2
  -3   3  -2 1605.94 64.6560   5
  -3   3  -2 1708.09 73.7822   2
  -3   3  -3 3055.69 82.7686   5
  -3   3  -3 3046.37 91.3717   2
  -3   3  -4 1949.11 70.9409   5
  -3   3  -4 2047.47 79.1182   2
  -3   3  -5 906.053 57.2922   5
  -3   3  -5 944.361 65.4683   2
  -3   3  -6 123.535 50.3218   2
  -3   3  -6 196.930 48.3042   5
  -3   3  -7 209.018 53.3586   2
  -3   3  -7 131.068 53.0216   5
  -3   3  -8 2731.82 85.2016   5
  -3   3  -8 2688.64 87.9020   2
  -3   3  -9 60.9984 45.0823   2
  -3   3  -9 19.2174 47.7865   5
  -3   3 -10 340.910 54.0178   5
  -3   3 -10 402.387 56.3959   2
  -3   3 -11 31.7171 50.9048   5
  -3   3 -11 77.8841 54.3196   2
  -3   3 -12 122.941 49.6452   5
  -3   3 -12 204.305 55.2227   2
  -3   3 -13 477.345 61.8117   2
  -3   2  14 482.037 73.8845   5
  -3   2  13 1149.24 87.6617   5
  -3   2  12 41.0545 55.8173   5
  -3   2  11 82.3355 56.2270   5
  -3   2  10 2087.59 88.7784   5
  -3   2   9 419.515 60.4627   5
  -3   2   8 29.2714 36.9273   3
  -3   2   8 90.3721 49.1273   5
  -3   2   7 5037.81 114.971   5
  -3   2   7 4921.96 97.2071   3
  -3   2   6 13935.6 177.948   5
  -3   2   6 14718.3 155.237   3
  -3   2   5 965.152 62.9230   5
  -3   2   5 1007.12 49.5382   3
  -3   2   4 649.617 55.4942   5
  -3   2   4 641.897 41.0033   3
  -3   2   3 2419.24 64.0435   3
  -3   2   3 2451.71 78.4195   5
  -3   2   2 3186.35 71.7541   3
  -3   2   2 2967.34 82.2548   5
  -3   2   1 1464.44 55.5678   3
  -3   2   1 1386.16 61.6014   5
  -3   2   0 777.978 54.5457   5
  -3   2  -1 3373.96 84.4671   5
  -3   2  -1 3261.77 86.3346   2
  -3   2  -2 5087.82 97.2209   5
  -3   2  -2 5055.85 103.556   2
  -3   2  -3 4289.92 89.2647   5
  -3   2  -3 4439.46 92.1835   2
  -3   2  -4 790.502 53.0873   5
  -3   2  -4 822.374 53.8386   2
  -3   2  -5 5972.39 103.822   5
  -3   2  -5 5611.62 106.359   2
  -3   2  -6 1577.19 65.0957   2
  -3   2  -6 1557.46 64.0376   5
  -3   2  -7 11.9117 40.1281   2
  -3   2  -7 44.5295 46.1309   5
  -3   2  -8 2100.01 77.9391   5
  -3   2  -8 2214.04 75.0389   2
  -3   2  -9-0.10673 47.1785   5
  -3   2  -9 60.2918 45.8977   2
  -3   2 -10 5512.94 111.339   5
  -3   2 -10 5691.04 117.320   2
  -3   2 -11 47.6766 48.9475   5
  -3   2 -11-39.5491 52.0100   2
  -3   2 -12 44.4015 54.0461   5
  -3   2 -12 51.7746 47.1763   2
  -3   2 -13 602.109 62.8393   5
  -3   2 -13 442.786 63.8080   2
   3  -1 -14 588.560 73.3194   2
   3  -1 -13 470.275 66.0673   2
   3  -1 -12 260.504 62.8376   2
   3  -1 -11 488.286 63.7497   2
   3  -1 -10 324.308 63.0078   2
  -3   1   9-20.0618 47.7184   5
   3  -1  -9 21.0375 55.9208   2
  -3   1   8 471.138 55.8559   5
  -3   1   7 89.3492 29.4973   3
  -3   1   7 81.2963 46.8048   5
  -3   1   6 715.227 56.1985   5
  -3   1   6 788.508 41.5462   3
  -3   1   5 12012.6 149.992   5
  -3   1   5 11966.5 118.718   3
  -3   1   4 19881.9 186.221   5
  -3   1   4 19636.4 144.210   3
  -3   1   3 5581.07 77.9663   3
  -3   1   3 5844.30 102.884   5
  -3   1   2 1022.11 39.5252   3
  -3   1   2 1006.94 57.1575   5
  -3   1   1 4997.70 93.6535   5
  -3   1   1 5183.45 74.2587   3
  -3   1   0 5618.00 97.4828   5
  -3   1  -1 1799.05 62.9418   5
  -3   1  -2 4155.65 86.2573   5
  -3   1  -2 4127.96 84.3617   2
   3  -1   2 3842.82 56.3966   1
  -3   1  -3 7316.40 106.984   5
  -3   1  -3 7599.09 105.408   2
   3  -1   3 7316.82 78.4255   1
  -3   1  -4 29374.4 206.670   5
   3  -1   4 29628.5 159.706   1
  -3   1  -4 29920.1 197.672   2
  -3   1  -5 931.894 55.5710   5
  -3   1  -5 920.966 49.0419   2
  -3   1  -6 1581.11 56.0840   2
  -3   1  -6 1708.82 63.4131   5
  -3   1  -7 1494.79 64.0999   5
  -3   1  -7 1561.61 59.7732   2
  -3   1  -8 809.804 58.2499   5
  -3   1  -8 765.627 50.2555   2
  -3   1  -9 369.473 52.5103   5
  -3   1  -9 461.669 48.3236   2
  -3   1 -10 1751.02 72.5751   5
  -3   1 -10 1965.41 72.6982   2
  -3   1 -11 3253.38 91.9824   5
  -3   1 -11 3515.75 90.9999   2
  -3   1 -12-20.1520 51.5932   5
  -3   1 -13 248.810 52.8173   5
  -3   1 -14 415.997 65.4819   5
   3   0 -14 208.586 68.6106   2
   3   0 -13 273.528 58.5322   2
   3   0 -12 21.4011 58.4522   2
   3   0 -11 3123.83 103.095   2
   3   0 -10 2584.53 95.4609   2
   3   0  -9 2161.63 82.5763   2
   3   0  -8 41.3274 46.5344   2
  -3   0   7 8211.81 131.623   5
   3   0  -7 8384.68 125.823   2
  -3   0   6 4640.36 99.2646   5
   3   0  -6 4880.81 95.5888   2
  -3   0   5 7842.17 117.874   5
   3   0  -5 7455.41 107.912   2
  -3   0   5 7701.38 81.8068   3
  -3   0   4 5932.61 102.203   5
  -3   0   4 5671.55 66.9583   3
  -3   0   3 13625.8 94.5176   3
  -3   0   3 13534.3 145.915   5
  -3   0   2 155.403 18.7807   3
  -3   0   2 138.919 40.9322   5
  -3   0   1 17214.8 156.194   5
  -3   0   0 6181.67 95.7995   5
  -3   0  -1 1256.50 54.6325   5
  -3   0  -2 1398.63 55.6268   5
  -3   0  -2 1398.77 47.8707   2
   3   0   2 1295.51 45.4839   1
  -3   0  -3 845.643 47.6573   5
  -3   0  -3 832.410 39.9927   2
   3   0   3 970.090 43.3888   1
  -3   0  -4 864.349 48.8649   5
   3   0   4 871.104 43.8441   1
  -3   0  -4 859.509 39.9002   2
  -3   0  -5 20462.1 165.053   5
  -3   0  -5 20115.2 148.083   2
  -3   0  -6 2350.66 67.4236   5
  -3   0  -6 2323.95 57.1646   2
  -3   0  -7 124.942 30.4622   2
  -3   0  -7 121.810 48.0587   5
  -3   0  -8 5121.53 97.4004   5
  -3   0  -8 4979.03 85.7348   2
  -3   0  -9 165.329 46.8309   5
  -3   0  -9 248.671 38.3411   2
  -3   0 -10 1330.38 67.9559   5
  -3   0 -11 110.369 49.5008   5
  -3   0 -12 4.98924 51.8450   5
  -3   0 -13 172.731 51.4759   5
  -3   0 -14 1252.14 72.9585   5
   3   1 -14 868.132 81.5711   2
   3   1 -13 176.214 59.5748   2
   3   1 -12 9.95306 55.9995   2
   3   1 -11 1645.78 85.3057   2
   3   1 -10 591.314 61.2766   2
   3   1  -9 50.6379 47.4272   2
   3   1  -8 380.683 52.1585   2
   3   1  -7 700.597 53.5206   2
  -3  -1   6 382.323 45.0686   5
   3   1  -6 435.857 44.0238   2
  -3  -1   5 6365.12 103.824   5
   3   1  -5 6644.91 98.9240   2
  -3  -1   4 10744.6 127.012   5
   3   1  -4 10766.1 116.720   2
   3   1  -3 3701.43 70.1729   2
  -3  -1   3 3628.09 78.6083   5
  -3  -1   2 3289.63 72.0294   5
  -3  -1   1 8043.17 105.573   5
  -3  -1   0 1165.75 50.6887   5
   3   1   1 9015.35 99.6600   1
  -3  -1  -1 8712.65 104.864   5
  -3  -1  -2 630.783 43.9456   5
   3   1   2 685.676 43.3458   1
  -3  -1  -3 1409.30 51.3259   5
  -3  -1  -3 1396.39 36.7623   2
   3   1   3 1468.37 53.5819   1
  -3  -1  -4 1332.95 53.1718   5
   3   1   4 1474.07 55.8585   1
  -3  -1  -4 1278.82 37.4303   2
  -3  -1  -5 10870.5 115.711   5
  -3  -1  -5 10903.8 91.1439   2
  -3  -1  -6 3620.69 78.6296   5
  -3  -1  -6 4070.80 60.0672   2
  -3  -1  -7 739.928 50.5104   5
  -3  -1  -7 775.404 33.3229   2
  -3  -1  -8 1270.26 58.5744   5
  -3  -1  -9 1849.47 66.3909   5
  -3  -1 -10 392.323 49.9105   5
  -3  -1 -11 33.0280 49.6183   5
  -3  -1 -12 107.712 47.1245   5
  -3  -1 -13 212.190 56.7616   5
  -3  -1 -14 1981.57 85.6490   5
   3   2 -13-22.6157 57.9963   2
   3   2 -12 3.00719 52.2300   2
   3   2 -11 2413.67 92.1903   2
   3   2 -10 124.901 52.8983   2
   3   2  -9 495.629 53.5569   2
   3   2  -8 431.083 51.2037   2
   3   2  -7 3863.32 86.1755   2
   3   2  -7 3763.26 69.7888   4
   3   2  -6 346.008 33.1438   4
   3   2  -6 378.870 42.1068   2
   3   2  -5 10362.0 118.111   2
   3   2  -5 10043.7 107.619   4
  -3  -2   5 10292.3 124.766   5
  -3  -2   4 34720.3 221.254   5
   3   2  -4 35243.9 197.626   2
   3   2  -3 117.193 29.4528   2
  -3  -2   3 130.526 34.6651   5
   3   2  -3 116.122 29.5558   6
   3   2  -2 1465.15 42.7066   2
  -3  -2   2 1427.63 51.7702   5
   3   2  -2 1511.70 48.8425   6
   3   2  -1 7398.63 78.3057   2
  -3  -2   1 7525.21 96.2376   5
   3   2  -1 7459.74 90.0495   6
  -3  -2   0 8371.75 98.3026   5
   3   2   0 8586.53 92.5139   6
  -3  -2  -1 3577.47 66.2634   5
   3   2   1 3874.10 61.8131   6
   3   2   1 3746.11 76.0017   1
  -3  -2  -2 23018.0 155.839   5
   3   2   2 23549.5 173.192   1
   3   2   2 23431.9 138.196   6
  -3  -2  -3 9533.92 103.277   5
  -3  -2  -3 9171.04 62.0664   2
   3   2   3 10046.1 118.920   1
   3   2   3 9640.68 87.2327   6
  -3  -2  -4 1062.01 45.4336   5
   3   2   4 1063.36 56.2875   1
  -3  -2  -4 995.612 22.1508   2
   3   2   4 1016.44 31.0447   6
   3   2   5 7129.47 67.2806   6
  -3  -2  -5 7665.20 93.4630   5
  -3  -2  -6 24595.5 164.982   5
  -3  -2  -7 78.6091 35.9743   5
  -3  -2  -8 907.707 46.9469   5
  -3  -2  -9 468.844 46.3106   5
  -3  -2 -10 10110.5 124.963   5
  -3  -2 -11 280.511 52.0537   5
  -3  -2 -12 173.631 52.1133   5
  -3  -2 -13 33.3204 47.7802   5
  -3  -2 -14 475.989 61.2867   5
  -3  -2 -15 422.325 66.0244   5
   3   3 -13 11.8356 57.4072   2
   3   3 -12 15.5718 46.4662   2
   3   3 -11 984.213 68.2364   2
   3   3 -10 774.565 62.9477   2
   3   3  -9 1739.16 74.5808   2
   3   3  -8 366.816 49.1492   2
   3   3  -7 588.571 38.8320   4
   3   3  -7 656.132 49.7796   2
   3   3  -6-31.3198 29.0657   4
   3   3  -6 2.28565 35.5632   2
   3   3  -6 18.6307 31.5246   6
   3   3  -5 1240.35 53.2902   6
   3   3  -5 1216.60 45.1172   4
   3   3  -5 1208.07 49.6173   2
  -3  -3   4 369.979 37.1887   5
   3   3  -4 380.290 36.1625   4
   3   3  -4 392.367 37.3606   6
   3   3  -4 340.642 34.3295   2
  -3  -3   3 393.927 35.0960   5
   3   3  -3 488.961 36.8602   4
   3   3  -3 411.733 36.0552   6
   3   3  -3 453.686 33.2837   2
  -3  -3   2 130.911 27.8197   5
   3   3  -2 78.7932 28.7319   6
   3   3  -2 65.8242 28.9279   4
   3   3  -2 97.6798 24.6764   2
  -3  -3   1 1146.61 42.6839   5
   3   3  -1 1205.00 45.3599   4
   3   3  -1 1278.20 45.6317   6
   3   3  -1 1237.15 34.5297   2
   3   3   0 7546.69 54.6733   3
   3   3   0 7604.94 67.1465   2
  -3  -3   0 7458.54 86.2850   5
   3   3   0 7784.85 93.4120   6
   3   3   0 7790.46 89.7837   4
   3   3   1 2937.44 77.0751   1
   3   3   1 3020.34 39.1920   2
  -3  -3  -1 2772.13 54.4272   5
   3   3   1 3016.16 59.5805   6
   3   3   1 3058.04 42.3471   3
   3   3   1 3164.40 60.5050   4
  -3  -3  -2 1315.01 40.4415   5
   3   3   2 1292.36 41.6967   4
   3   3   2 1242.13 60.7090   1
   3   3   2 1343.68 34.3110   3
   3   3   2 1257.45 40.6453   6
  -3  -3  -3 10335.3 96.8456   5
   3   3   3 10679.9 100.218   6
   3   3   3 10484.1 129.725   1
   3   3   3 10669.6 97.7484   4
   3   3   3 10809.9 94.5814   3
  -3  -3  -4 208.728 27.6006   5
   3   3   4 198.512 51.6249   1
   3   3   4 221.963 26.0209   4
   3   3   4 202.115 23.5305   6
  -3  -3  -5 349.461 29.7603   5
   3   3   5 417.823 54.2180   1
   3   3   5 370.489 24.3578   6
   3   3   5 371.278 26.7046   4
  -3  -3  -6 16161.0 123.974   5
   3   3   6 15616.9 110.128   6
   3   3   6 15874.1 106.759   4
  -3  -3  -7 391.564 33.7537   5
  -3  -3  -8 2263.46 58.0984   5
  -3  -3  -9 19.9104 34.4761   5
  -3  -3 -10 1140.72 52.9867   5
  -3  -3 -11 137.108 43.0422   5
  -3  -3 -12 584.749 52.2131   5
  -3  -3 -13 76.3814 46.9146   5
  -3  -3 -14 986.659 66.3019   5
  -3  -3 -15 156.779 51.0560   5
   3   4 -12 103.969 61.5344   2
   3   4 -11 328.719 54.4809   2
   3   4 -10 393.695 53.0772   2
   3   4  -9 2324.48 81.1557   2
   3   4  -8 83.4817 44.7195   2
   3   4  -8 52.6737 37.5905   6
   3   4  -7 9.78282 37.8971   2
   3   4  -7 58.1463 39.4364   6
   3   4  -6 2963.90 74.2542   2
   3   4  -6 2982.22 79.0347   6
   3   4  -5 362.446 36.8416   4
   3   4  -5 306.466 40.9997   6
   3   4  -5 330.893 37.0418   2
  -3  -4   4 1429.53 49.5641   5
   3   4  -4 1385.46 48.4674   4
   3   4  -4 1270.43 54.4358   6
   3   4  -4 1387.05 47.2978   2
   3   4  -3 1463.33 49.1629   4
   3   4  -3 1455.29 44.6782   2
   3   4  -3 1395.95 53.9994   6
  -3  -4   3 1396.97 45.7969   5
  -3  -4   2 61.0457 22.6944   5
   3   4  -2 46.9404 31.8875   6
   3   4  -2 83.9759 30.1075   4
   3   4  -2 80.2288 23.6696   2
  -3  -4   1 17436.7 125.697   5
   3   4  -1 17325.4 152.096   6
   3   4  -1 17280.8 135.009   4
   3   4  -1 17421.4 110.190   2
  -3  -4   0 6066.69 71.1692   5
   3   4   0 6226.20 91.3348   6
   3   4   0 6065.76 81.3184   4
   3   4   0 5901.66 58.6734   2
   3   4   1 1277.50 65.0822   1
  -3  -4  -1 1278.29 35.7460   5
   3   4   1 1166.24 37.7359   3
   3   4   1 1247.57 43.1123   4
   3   4   1 1103.92 43.0065   6
  -3  -4  -2 851.689 31.1179   5
   3   4   2 799.393 37.0111   4
   3   4   2 833.067 39.4817   6
   3   4   2 927.040 62.0861   1
   3   4   2 803.022 33.1084   3
  -3  -4  -3 3305.07 48.1425   5
   3   4   3 3436.77 88.5417   1
   3   4   3 3173.52 57.4313   4
   3   4   3 3264.36 62.2750   3
   3   4   3 3297.86 64.1417   6
   3   4   4 35.0123 24.9667   3
   3   4   4 46.2206 50.0750   1
  -3  -4  -4 81.4124 18.3916   5
   3   4   4 50.1704 23.1270   4
   3   4   4 62.8814 23.9535   6
  -3  -4  -5 4993.56 61.0853   5
   3   4   5 5248.25 106.560   1
   3   4   5 5196.38 67.4174   4
   3   4   5 4987.08 84.1296   3
   3   4   5 5074.97 73.7025   6
  -3  -4  -6 2820.44 50.3952   5
   3   4   6 2938.92 89.6226   1
   3   4   6 2910.82 71.5676   3
   3   4   6 2718.10 55.1121   6
  -3  -4  -7 5651.27 70.7097   5
   3   4   7 5627.92 99.5779   3
  -3  -4  -8 1442.38 44.7098   5
   3   4   8 1387.63 61.2336   3
  -3  -4  -9 331.154 35.8438   5
   3   4   9 399.965 47.5649   3
  -3  -4 -10 1518.51 52.7804   5
  -3  -4 -11 1926.21 57.3919   5
  -3  -4 -12 840.747 52.3619   5
  -3  -4 -13 404.824 49.8586   5
   3   4  13 437.910 61.6780   3
  -3  -4 -14 154.993 43.0206   5
   3   4  14 166.321 46.3810   3
  -3  -4 -15 283.227 56.8388   5
   3   5 -11 8.57192 53.4164   2
   3   5 -10-10.2532 51.0724   2
   3   5  -9 1220.65 66.5827   2
   3   5  -8 2032.99 77.6083   6
   3   5  -8 2198.73 78.6945   2
   3   5  -7 2257.38 78.9880   6
   3   5  -7 2373.15 74.3111   2
   3   5  -6 471.795 48.2549   6
   3   5  -6 487.143 46.2010   2
   3   5  -5 26.1683 35.3206   2
   3   5  -5 56.5746 39.2421   6
   3   5  -4-3.02590 29.3475   2
   3   5  -4 2.96165 35.0144   6
   3   5  -3 9012.93 102.798   2
   3   5  -3 8916.77 125.468   6
   3   5  -2 11636.2 138.413   6
   3   5  -2 10952.6 104.279   2
   3   5  -1 2881.21 52.0965   2
   3   5  -1 2933.28 73.2808   6
   3   5   0 1222.18 54.4654   6
   3   5   1 24873.2 186.000   6
   3   5   2 689.739 60.5421   1
   3   5   2 714.035 41.5940   6
   3   5   2 690.236 41.2267   3
   3   5   3 7397.14 124.308   1
   3   5   3 7456.22 101.506   6
   3   5   3 7127.25 100.765   3
   3   5   4 1500.00 72.5783   1
   3   5   4 1583.55 56.3887   3
   3   5   4 1573.28 52.3872   6
   3   5   5 675.708 64.6097   1
   3   5   5 733.081 46.7380   3
   3   5   5 618.230 37.5175   6
   3   5   6 2062.15 86.1340   1
   3   5   6 2048.29 69.7323   3
   3   5   6 2059.55 55.2500   6
   3   5   7 3242.79 100.405   1
   3   5   7 3000.46 82.7610   3
   3   5   7 3032.80 65.3839   6
   3   5   8 40.9971 39.8946   3
   3   5   9 3347.59 93.5270   3
   3   5  10 1053.74 66.5084   3
   3   5  11 115.193 45.0257   3
   3   5  12 62.9123 50.6867   3
   3   5  13 527.923 63.1770   3
   3   5  14 358.043 66.3749   3
   3   6 -10 161.036 53.2170   2
   3   6  -9 85.5899 47.8582   2
   3   6  -8-36.1242 47.1934   2
   3   6  -7 1115.27 61.1933   2
   3   6  -7 1108.91 65.5150   6
   3   6  -6 8092.13 125.978   2
   3   6  -6 8093.48 140.009   6
   3   6  -5 25774.0 205.436   2
   3   6  -5 25192.1 233.753   6
   3   6  -4 781.265 49.1938   2
   3   6  -4 840.935 59.7414   6
   3   6  -3 1774.17 55.7096   2
   3   6  -3 1822.91 67.9519   6
   3   6  -2 3062.13 82.6320   6
   3   6  -1 2.65579 36.6815   6
   3   6   0 820.015 53.1492   6
   3   6   1 242.434 40.1806   6
   3   6   2 1915.05 80.5122   1
   3   6   2 2037.74 66.3474   6
   3   6   3 6542.86 106.333   6
   3   6   3 6511.78 125.469   1
   3   6   3 6512.18 110.712   3
   3   6   4 190.771 39.8390   6
   3   6   4 196.131 42.1799   3
   3   6   4 232.809 62.5847   1
   3   6   5 6800.03 132.778   1
   3   6   5 7028.75 107.918   6
   3   6   5 7055.36 121.139   3
   3   6   6 140.843 34.9556   6
   3   6   6 216.172 45.4412   3
   3   6   6 292.690 68.0287   1
   3   6   7 2677.87 103.169   1
   3   6   7 2621.49 86.9488   3
   3   6   7 2519.38 68.1755   6
   3   6   8 2748.93 101.961   1
   3   6   8 2673.03 92.1511   3
   3   6   9 750.768 79.6639   1
   3   6   9 790.673 65.4640   3
   3   6  10 36.3417 45.7592   3
   3   6  11 2730.05 99.6791   3
   3   6  12 3.31729 43.0357   3
   3   6  13 188.549 56.9131   3
   3   6  14 86.8439 49.2377   3
   3   7  -9 832.473 71.4144   2
   3   7  -8 444.154 53.4253   2
   3   7  -7 190.962 44.6905   2
   3   7  -7 271.419 48.5434   6
   3   7  -6 1674.54 80.0483   6
   3   7  -6 1742.84 71.2922   2
   3   7  -5 2413.68 88.7020   6
   3   7  -4 2736.87 91.7786   6
   3   7  -3 927.282 61.2763   6
   3   7  -2-4.21873 38.9513   6
   3   7  -1 616.339 53.5191   6
   3   7   0-0.38175 39.6924   6
   3   7   1 1134.27 63.3271   6
   3   7   2 142.953 45.6516   6
   3   7   3 20.3119 42.4202   6
   3   7   3-32.7339 65.0081   1
   3   7   4 3737.26 100.617   3
   3   7   4 3537.15 109.468   1
   3   7   4 3730.29 93.7499   6
   3   7   5 23845.8 245.838   1
   3   7   5 25052.6 219.134   6
   3   7   5 24840.1 243.759   3
   3   7   6 131.290 42.3603   6
   3   7   6 155.833 57.1012   3
   3   7   6 152.346 73.6638   1
   3   7   7 5393.59 137.769   1
   3   7   7 5525.37 106.793   6
   3   7   7 5350.03 127.106   3
   3   7   8 2182.38 99.6942   1
   3   7   8 2475.58 97.4436   3
   3   7   9 1323.35 86.6177   1
   3   7   9 1376.73 77.9841   3
   3   7  10 1138.96 88.8303   1
   3   7  10 1158.00 77.4135   3
   3   7  11 899.857 87.4948   1
   3   7  11 858.988 75.3854   3
   3   7  12 484.993 63.0981   3
   3   7  13 113.106 58.3219   3
   3   8  -6 124.788 45.0154   6
   3   8  -5 234.430 54.4122   6
   3   8  -4 115.832 47.3580   6
   3   8  -3 311.106 55.1933   6
   3   8  -2 42.2590 41.2202   6
   3   8  -1 156.356 49.0451   6
   3   8   0 45.4367 42.1388   6
   3   8   1 1606.83 75.0456   6
   3   8   2 566.775 56.7251   6
   3   8   3 87.7220 44.8916   6
   3   8   4 2701.62 87.6657   6
   3   8   4 2719.11 101.282   1
   3   8   5 3793.02 117.744   1
   3   8   5 4083.01 104.097   6
   3   8   6 8096.55 163.343   3
   3   8   6 7856.20 161.288   1
   3   8   6 8284.42 140.147   6
   3   8   7 321.653 43.5318   6
   3   8   7 456.834 66.0932   3
   3   8   7 253.851 74.7667   1
   3   8   8 384.057 47.1256   6
   3   8   8 414.353 63.2331   3
   3   8   8 294.042 70.1420   1
   3   8   9 886.788 80.2698   1
   3   8   9 766.574 76.3961   3
   3   8  10 126.466 58.7800   3
   3   8  10 0.00000 69.9788   1
   3   8  11 26.9353 61.7019   3
   3   8  11 59.9571 67.6516   1
   3   8  12 44.7985 71.0477   1
   3   8  12-13.4476 51.4105   3
   3   9  -6-177.650 54.5935   6
   3   9  -5 344.159 52.6434   6
   3   9  -4 316.528 43.5203   6
   3   9  -3 298.749 56.9089   6
   3   9  -2 736.980 67.0696   6
   3   9  -1 381.218 57.5102   6
   3   9   0 977.133 67.0752   6
   3   9   1 227.169 47.8802   6
   3   9   2-48.7393 48.2639   6
   3   9   3 1281.64 74.0926   6
   3   9   4 319.357 60.3040   6
   3   9   5 377.421 50.7049   6
   3   9   6 1065.72 66.2266   6
   3   9   7 159.497 48.6813   6
   3   9   7 8.62852 56.9804   3
   3   9   8 101.414 43.3021   6
   3   9   8 85.5202 63.1962   3
   3   9   9 311.263 72.7487   3
   3   9  10-22.2011 63.6739   3
   3   9  10 14.6394 73.9917   1
   3   9  11 167.445 67.4559   1
   3  10   1 19.7221 54.5806   6
   3  10   2 30.8186 46.4486   6
   3  10   3 91.2809 61.1188   6
   3  10   4-1.15943 47.8678   6
   3  10   5 222.100 48.0768   6
   3  10   6 284.778 54.6492   6
   3  10   7 596.776 63.4293   6
   3  10   8 23.4566 45.3586   6
  -4   7   7-51.5822 70.1302   3
  -4   7   6 35.5680 59.8654   2
  -4   7   6 215.772 59.7931   3
  -4   7   5 58.6446 71.9434   2
  -4   7   4-185.846 65.6933   2
  -4   7   4 66.7771 69.0554   3
  -4   7   3 8.64826 71.6238   2
  -4   7   2 730.649 98.8417   2
  -4   7   1 1008.00 87.9530   2
  -4   7   0 474.683 84.9423   2
  -4   7  -1 210.342 74.2544   2
  -4   7  -2 29.6213 63.8831   2
  -4   6   8 863.169 79.8720   3
  -4   6   7 332.026 74.9130   3
  -4   6   6-63.7099 62.2687   3
  -4   6   5 61.9172 53.7760   3
  -4   6   4 287.395 75.6521   2
  -4   6   4 367.437 70.2173   3
  -4   6   3 726.166 76.5892   3
  -4   6   3 706.205 84.1587   2
  -4   6   2 417.800 81.7433   2
  -4   6   1 40.4888 69.6709   2
  -4   6   0 2016.08 104.753   2
  -4   6  -1 68.9966 72.4369   2
  -4   6  -2 226.965 66.9697   2
  -4   6  -3 14.1602 72.7629   2
  -4   6  -4 343.290 77.7378   2
  -4   6  -5 366.664 72.6422   2
  -4   6  -6 78.4775 66.5648   2
  -4   5  11 185.511 69.7233   5
  -4   5  10 74.6482 63.1573   5
  -4   5   9 472.934 75.9503   5
  -4   5   8 190.622 52.3684   3
  -4   5   8 153.515 62.8365   5
  -4   5   7 238.078 58.8774   3
  -4   5   7 219.620 64.6908   5
  -4   5   6 3386.95 115.582   3
  -4   5   6 3438.48 120.051   5
  -4   5   5 1497.38 90.8664   5
  -4   5   5 1240.88 80.2353   3
  -4   5   4 5783.50 142.057   5
  -4   5   4 5487.44 136.453   3
  -4   5   3-38.1437 56.3859   3
  -4   5   3-25.8230 62.9949   2
  -4   5   3-61.4231 58.1998   5
  -4   5   2 54.0896 66.9324   2
  -4   5   2-19.2893 54.5395   5
  -4   5   1 3633.17 110.173   5
  -4   5   1 3769.59 128.859   2
  -4   5   0 514.697 71.8620   2
  -4   5   0 430.865 61.4143   5
  -4   5  -1 374.868 72.2885   2
  -4   5  -1 426.027 57.6612   5
  -4   5  -2 127.338 60.4386   2
  -4   5  -2 45.7156 56.1027   5
  -4   5  -3 3426.41 102.309   5
  -4   5  -3 3985.54 123.900   2
  -4   5  -4 320.614 69.2237   2
  -4   5  -4 420.663 55.2283   5
  -4   5  -5 363.354 56.6972   5
  -4   5  -5 236.507 74.8069   2
  -4   5  -6 1101.56 67.8574   5
  -4   5  -6 865.870 76.4773   2
  -4   5  -7 44.8050 54.9258   2
  -4   5  -7 56.5583 53.6030   5
  -4   5  -8 7.78952 62.6540   2
  -4   5  -8 28.2082 45.9292   5
  -4   5  -9 57.0166 46.3351   5
  -4   4  12 14.7630 72.3917   5
  -4   4  11-31.7818 57.7201   5
  -4   4  10 530.754 73.1114   5
  -4   4   9 186.888 65.3347   5
  -4   4   8 383.887 69.8212   5
  -4   4   7 214.673 52.8635   3
  -4   4   7 139.698 54.5824   5
  -4   4   6 363.995 67.0062   3
  -4   4   6 296.921 63.5062   5
  -4   4   5 755.723 60.4748   3
  -4   4   5 733.492 71.9062   5
  -4   4   4 87.0633 46.4229   3
  -4   4   4 37.3235 54.3638   5
  -4   4   3 19.9377 46.6100   3
  -4   4   3 19.6888 50.4109   5
  -4   4   2 1391.24 75.6016   5
  -4   4   2 1362.84 77.2470   3
  -4   4   1 346.032 66.1348   2
  -4   4   1 260.753 55.0272   5
  -4   4   0 49.9369 59.6218   2
  -4   4   0 101.574 53.9652   5
  -4   4  -1 1299.68 73.2522   5
  -4   4  -1 1349.05 85.0461   2
  -4   4  -2 826.472 60.9698   5
  -4   4  -2 906.300 76.8675   2
  -4   4  -3 182.133 64.7694   2
  -4   4  -3 49.4071 57.2019   5
  -4   4  -4 2101.56 87.9842   5
  -4   4  -4 2344.49 102.008   2
  -4   4  -5 2702.25 95.1043   5
  -4   4  -5 2885.68 109.787   2
  -4   4  -6 380.020 56.0743   5
  -4   4  -6 503.457 72.1803   2
  -4   4  -7-65.3386 50.1663   2
  -4   4  -7 9.00498 49.4314   5
  -4   4  -8 437.841 61.7791   5
  -4   4  -8 314.559 66.5426   2
  -4   4  -9 266.907 60.8494   2
  -4   4  -9 262.495 63.4953   5
  -4   4 -10 184.117 74.6200   2
  -4   4 -10 120.619 58.0547   5
  -4   3  12 254.092 74.5457   5
  -4   3  11 146.051 62.6310   5
  -4   3  10 506.726 75.7536   5
  -4   3   9 18.4998 67.8299   5
  -4   3   8 245.973 62.3066   5
  -4   3   7 258.555 60.6141   5
  -4   3   6 458.887 66.2878   5
  -4   3   5 2753.26 84.2105   3
  -4   3   5 2832.21 102.526   5
  -4   3   4 2076.96 75.1581   3
  -4   3   4 2151.45 91.2342   5
  -4   3   3 1038.19 60.5267   3
  -4   3   3 1175.30 71.5521   5
  -4   3   2 590.668 52.6176   3
  -4   3   2 551.526 59.8357   5
  -4   3   1 1612.73 78.3241   5
  -4   3   0 53.5015 53.5328   2
  -4   3   0 65.0456 51.8067   5
  -4   3  -1 2132.15 85.5126   5
  -4   3  -1 2181.49 94.0727   2
  -4   3  -2 759.237 62.9997   5
  -4   3  -2 761.673 68.8658   2
  -4   3  -3 144.516 57.4096   2
  -4   3  -3 63.7263 52.6397   5
  -4   3  -4 208.306 53.0200   2
  -4   3  -4 124.814 52.5661   5
  -4   3  -5 2029.98 83.4589   5
  -4   3  -5 2003.63 86.2440   2
  -4   3  -6 2240.19 85.5593   5
  -4   3  -6 2124.66 91.5289   2
  -4   3  -7 13.2547 51.5122   2
  -4   3  -7 38.3236 51.7210   5
  -4   3  -8 269.306 59.5165   2
  -4   3  -8 413.498 66.7797   5
  -4   3  -9 16.3069 45.8609   2
  -4   3  -9-11.4558 52.7317   5
  -4   3 -10 108.358 55.1737   2
  -4   3 -10 29.0603 50.8800   5
  -4   3 -11 778.254 68.3953   5
  -4   3 -11 924.549 70.5468   2
  -4   3 -12 120.909 49.4444   2
  -4   2  12 1071.70 90.1880   5
  -4   2  11 122.682 58.8502   5
  -4   2  10 374.938 71.7096   5
  -4   2   9 1876.29 95.3379   5
  -4   2   8 19.6142 54.3593   5
  -4   2   7 80.2023 59.0125   5
  -4   2   6 29.9855 50.1279   5
  -4   2   5 967.462 69.9305   5
  -4   2   4 51.5093 31.6169   3
  -4   2   4 70.2698 52.3962   5
  -4   2   3 572.546 43.8640   3
  -4   2   3 475.032 60.6074   5
  -4   2   2 1929.94 81.0672   5
  -4   2   2 1891.59 65.7231   3
  -4   2   1 59.3578 48.2094   5
  -4   2   0 7320.55 133.041   5
  -4   2  -1 544.777 58.7573   5
  -4   2  -1 723.320 60.4854   2
  -4   2  -2 308.277 53.4850   2
  -4   2  -2 271.346 53.1505   5
  -4   2  -3 37.6479 45.7100   2
  -4   2  -3 123.280 49.6286   5
  -4   2  -4 1080.15 69.0234   5
  -4   2  -4 1009.29 65.1310   2
  -4   2  -5 1096.62 66.8299   5
  -4   2  -5 1034.40 65.4268   2
  -4   2  -6 56.4422 46.6295   2
  -4   2  -6-4.70358 49.0597   5
  -4   2  -7 285.569 50.8898   2
  -4   2  -7 329.754 56.5689   5
  -4   2  -8-9.48966 41.9733   2
  -4   2  -8 52.3743 52.7744   5
  -4   2  -9 1058.14 72.7507   5
  -4   2  -9 1025.00 61.3795   2
  -4   2 -10 989.156 68.5347   5
  -4   2 -10 1091.19 68.0172   2
  -4   2 -11 572.403 61.8149   5
  -4   2 -11 415.991 58.6262   2
  -4   2 -12 235.913 61.2084   5
  -4   1  13 305.769 70.7385   5
  -4   1  12 810.195 79.4050   5
  -4   1  11 3928.46 125.420   5
  -4   1  10 90.4842 54.0441   5
  -4   1   9 952.557 72.4912   5
  -4   1   8 60.5930 53.2115   5
  -4   1   7 2472.76 94.5847   5
  -4   1   6 1497.97 79.6251   5
  -4   1   5 115.222 50.1445   5
  -4   1   4 8382.38 142.655   5
  -4   1   3 655.602 62.4711   5
  -4   1   2 1895.17 78.8803   5
  -4   1   1 2770.00 87.7666   5
  -4   1   0 1091.59 63.2045   5
  -4   1  -1 797.261 58.7161   5
  -4   1  -2 8.11245 41.8768   2
  -4   1  -2 51.5356 48.6363   5
  -4   1  -3 17.2697 39.8759   2
  -4   1  -3 27.0700 43.1958   5
  -4   1  -4 757.604 61.2459   5
  -4   1  -4 774.865 51.7298   2
  -4   1  -5 9.02119 40.5763   2
  -4   1  -5 1.36683 48.6910   5
  -4   1  -6 1034.49 64.4941   5
  -4   1  -6 954.521 56.2577   2
  -4   1  -7 619.162 58.3567   5
  -4   1  -7 514.509 48.9677   2
  -4   1  -8 34.7456 41.5032   2
  -4   1  -8 80.5644 49.9095   5
  -4   1  -9 215.929 46.4667   2
  -4   1  -9 254.446 62.7761   5
  -4   1 -10 282.368 59.7612   5
  -4   1 -11 445.246 62.3775   5
  -4   1 -12 401.504 62.9777   5
  -4   1 -13 105.272 50.3423   5
   4   0 -13 420.370 77.2670   2
  -4   0  13 498.394 72.7390   5
  -4   0  12 1014.94 83.4775   5
   4   0 -12 965.551 85.6463   2
   4   0 -11 201.325 67.8179   2
  -4   0  11 181.101 62.0555   5
  -4   0  10 16539.7 222.322   5
   4   0 -10 16447.7 214.399   2
   4   0  -9 223.836 59.3850   2
  -4   0   9 185.708 57.7401   5
  -4   0   8 2955.23 96.8018   5
  -4   0   7 712.263 63.6267   5
  -4   0   6 933.056 66.9488   5
  -4   0   5 23.9597 47.3738   5
  -4   0   4 103.287 47.8454   5
  -4   0   3 1222.52 69.1227   5
  -4   0   2 8819.57 135.946   5
  -4   0   1 4589.53 101.231   5
  -4   0   0 7025.31 118.591   5
  -4   0  -1 44.4351 43.6256   5
   4   0   2 4300.27 77.0938   1
  -4   0  -2 4307.11 95.8590   5
  -4   0  -2 4381.01 85.2982   2
  -4   0  -3 3875.37 90.0663   5
  -4   0  -3 3876.66 79.9367   2
   4   0   3 4060.67 78.1066   1
  -4   0  -4 633.821 56.7803   5
  -4   0  -4 614.013 41.7315   2
   4   0   4 622.933 46.8598   1
  -4   0  -5 2758.12 83.0299   5
  -4   0  -5 2600.99 66.2215   2
   4   0   5 2849.73 73.8080   1
  -4   0  -6 7439.13 121.791   5
   4   0   6 7681.52 111.876   1
  -4   0  -6 6996.83 101.796   2
  -4   0  -7 1519.00 70.7943   5
  -4   0  -7 1719.00 58.4184   2
  -4   0  -8 2220.46 81.5462   5
  -4   0  -9 27.1114 52.3893   5
  -4   0 -10 561.922 61.9130   5
  -4   0 -11 465.294 58.4800   5
  -4   0 -12 393.363 59.1526   5
  -4   0 -13 96.1106 58.0347   5
  -4  -1  13 296.550 60.8078   5
   4   1 -13 260.739 70.4037   2
   4   1 -12 598.592 71.4752   2
  -4  -1  12 525.843 64.5235   5
  -4  -1  11 1652.89 87.6072   5
   4   1 -11 1405.85 84.2439   2
  -4  -1  10 1075.91 73.9156   5
   4   1 -10 938.867 70.2255   2
  -4  -1   9 2044.64 85.8825   5
   4   1  -9 2110.97 89.5279   2
   4   1  -8 3.15092 50.5952   2
  -4  -1   8 26.6243 48.6698   5
  -4  -1   7 626.144 57.8956   5
   4   1  -7 599.691 58.1139   2
  -4  -1   6 786.659 59.8809   5
   4   1  -6 701.802 56.2733   2
   4   1  -5 270.891 47.7387   2
  -4  -1   5 296.096 48.1735   5
  -4  -1   4 668.012 54.5367   5
  -4  -1   3 1159.70 61.0898   5
  -4  -1   2-13.4908 43.7615   5
  -4  -1   1 213.391 47.6195   5
  -4  -1   0 192612. 550.096   5
  -4  -1  -1 15965.4 162.291   5
  -4  -1  -2 27151.2 208.809   5
   4   1   2 27099.9 191.398   1
  -4  -1  -3 2849.46 79.3702   5
  -4  -1  -3 2722.14 62.5399   2
   4   1   3 2953.28 76.0855   1
  -4  -1  -4 393.749 48.9401   5
  -4  -1  -4 337.719 30.9284   2
   4   1   4 396.186 49.1092   1
  -4  -1  -5 1771.33 65.8177   5
   4   1   5 1745.17 67.6834   1
   4   1   6 14.0686 43.7905   1
  -4  -1  -6 1.25776 42.4289   5
  -4  -1  -7 48.2750 44.0753   5
  -4  -1  -8 4076.62 97.5775   5
  -4  -1  -9 849.301 62.2599   5
  -4  -1 -10 2378.68 81.8314   5
  -4  -1 -11 1589.35 73.8610   5
  -4  -1 -12 62.4606 49.4861   5
  -4  -1 -13 915.394 69.0602   5
  -4  -1 -14 120.427 52.4704   5
  -4  -2  13-134.755 53.0461   5
  -4  -2  12 28.8975 51.5451   5
   4   2 -12 103.466 64.7171   2
  -4  -2  11 600.244 59.9977   5
   4   2 -11 805.583 68.7239   2
   4   2 -10 102.368 57.8473   2
  -4  -2  10 124.039 46.7655   5
   4   2  -9 227.235 55.8328   2
  -4  -2   9 164.178 45.8920   5
   4   2  -8 352.138 52.7089   2
  -4  -2   8 287.285 48.8287   5
   4   2  -7 259.274 54.0893   2
  -4  -2   7 248.758 48.0337   5
   4   2  -7 158.734 41.1914   4
   4   2  -6 3734.47 90.5865   2
  -4  -2   6 3628.01 92.9670   5
   4   2  -5 613.837 50.8500   2
  -4  -2   5 599.992 53.9331   5
  -4  -2   4 874.603 58.0524   5
   4   2  -4 760.159 48.2239   2
  -4  -2   3 495.978 50.9599   5
   4   2  -3 503.568 42.2237   2
  -4  -2   2 27725.2 216.599   5
  -4  -2   1 16068.3 163.134   5
  -4  -2   0 4549.69 90.3220   5
  -4  -2  -1 49317.4 265.671   5
  -4  -2  -2 228.586 43.6728   5
   4   2   2 336.649 51.1464   1
  -4  -2  -3 2550.13 70.1599   5
   4   2   3 2561.88 76.7312   1
  -4  -2  -4 1380.51 58.0056   5
   4   2   4 1517.30 68.1088   1
   4   2   5 22.8234 48.3492   1
  -4  -2  -5 83.3756 39.5148   5
  -4  -2  -6 2441.67 67.7813   5
   4   2   6 2370.05 81.6930   1
  -4  -2  -7 2262.63 70.1992   5
   4   2   7 2349.31 84.3233   1
  -4  -2  -8 92.3044 46.7434   5
  -4  -2  -9 153.953 50.7555   5
  -4  -2 -10 12134.5 147.857   5
  -4  -2 -11 9054.83 133.937   5
  -4  -2 -12 3836.83 97.0197   5
  -4  -2 -13 102.915 57.8523   5
  -4  -2 -14 321.150 57.8777   5
   4   3 -12 429.243 74.0028   2
   4   3 -11 89.1674 61.8572   2
  -4  -3  10-4.54256 43.2860   5
   4   3 -10-13.5053 49.6891   2
   4   3  -9 180.699 54.3028   2
  -4  -3   9 230.571 43.3147   5
  -4  -3   8 1461.69 69.9639   5
   4   3  -8 1268.05 69.8082   2
  -4  -3   7 2917.93 86.8056   5
   4   3  -7 2944.15 86.6716   2
   4   3  -7 2932.77 74.9103   4
   4   3  -6-19.4465 42.5789   2
  -4  -3   6 4.22188 36.5051   5
   4   3  -6 0.56259 36.6322   4
   4   3  -5 8037.63 117.134   2
  -4  -3   5 8053.82 130.041   5
   4   3  -5 8292.35 115.191   4
   4   3  -4 847.490 48.5746   2
  -4  -3   4 900.403 53.9948   5
   4   3  -4 809.911 48.6835   4
   4   3  -4 881.325 50.2541   6
   4   3  -3 18.4019 30.2973   2
  -4  -3   3 26.1248 35.9048   5
   4   3  -3 57.1876 36.9140   4
   4   3  -3 0.86853 34.2505   6
   4   3  -2 8.48530 31.1732   2
  -4  -3   2-33.8794 35.6295   5
   4   3  -2-9.14014 36.3190   4
   4   3  -2 2.87716 34.0477   6
  -4  -3   1 6171.66 102.455   5
   4   3  -1 6069.56 81.1919   2
   4   3  -1 6461.25 97.5279   4
   4   3  -1 6287.47 97.7584   6
  -4  -3   0 1407.03 55.4794   5
   4   3   0 1406.74 52.7356   6
  -4  -3  -1-8.03400 30.7911   5
   4   3   1 11.7432 28.1006   6
   4   3   2 256.173 54.4183   1
  -4  -3  -2 175.145 36.7745   5
   4   3   2 222.776 31.2848   6
  -4  -3  -3 5636.76 91.0326   5
   4   3   3 5621.51 111.055   1
   4   3   3 5626.91 83.3302   6
  -4  -3  -4 419.677 40.6428   5
   4   3   4 424.721 35.9744   4
   4   3   4 445.416 57.8108   1
   4   3   4 399.372 30.4380   6
  -4  -3  -5 670.224 44.0496   5
   4   3   5 698.943 64.1632   1
   4   3   5 725.392 38.7699   4
   4   3   5 751.154 35.0217   6
  -4  -3  -6 1029.53 49.5868   5
   4   3   6 1078.16 70.4074   1
   4   3   6 1086.06 42.8478   4
   4   3   7 171.432 58.2372   1
  -4  -3  -7 162.485 42.3790   5
  -4  -3  -8 4292.53 86.4380   5
   4   3   8 4259.32 113.057   1
  -4  -3  -9 1115.08 56.4196   5
  -4  -3 -10 2817.50 78.6769   5
  -4  -3 -11 15142.8 162.177   5
  -4  -3 -12 2135.34 76.1969   5
  -4  -3 -13 212.067 52.7600   5
  -4  -3 -14 96.1032 52.7339   5
   4   4 -11 1380.70 80.5723   2
   4   4 -10 475.714 56.5548   2
   4   4  -9 427.916 52.8289   2
   4   4  -8 715.836 60.2943   2
   4   4  -7 107.712 44.8994   2
   4   4  -7 116.783 35.8034   4
   4   4  -6 183.497 42.6544   2
   4   4  -6 199.887 38.0722   4
   4   4  -6 211.692 41.7558   6
   4   4  -5 1115.41 52.4654   4
   4   4  -5 1184.01 60.2598   6
   4   4  -5 1223.53 56.1458   2
   4   4  -4 197.958 36.1209   2
   4   4  -4 276.305 40.5062   4
   4   4  -4 257.396 42.1615   6
   4   4  -3 512.239 44.7990   4
   4   4  -3 495.716 44.6509   6
   4   4  -3 460.184 37.3224   2
   4   4  -2 32.7891 26.6870   2
   4   4  -2 33.9958 36.2766   4
   4   4  -2 0.40522 34.1635   6
   4   4  -1 7.83245 36.3011   4
   4   4  -1 1.35205 34.5643   6
   4   4   0 54.3447 37.7233   4
   4   4   0 14.0684 35.2928   6
   4   4   1 918.016 48.1853   4
   4   4   1 962.076 48.3776   6
   4   4   2 2689.52 90.4668   1
   4   4   2 2915.01 67.3883   4
   4   4   2 2808.04 67.4084   6
  -4  -4  -3 2953.13 65.1639   5
   4   4   3 2883.68 66.9009   4
   4   4   3 2696.01 65.4537   6
   4   4   3 2701.88 91.8800   1
  -4  -4  -4 7021.33 92.3384   5
   4   4   4 6976.34 94.5330   4
   4   4   4 6866.28 128.751   1
   4   4   4 7311.04 99.3953   6
  -4  -4  -5 11336.0 114.161   5
   4   4   5 10624.6 157.660   1
   4   4   5 11204.1 114.752   4
   4   4   5 10979.1 120.962   3
   4   4   5 10934.4 117.528   6
  -4  -4  -6 414.176 38.1688   5
   4   4   6 283.849 66.6026   1
   4   4   6 383.397 32.9773   4
   4   4   6 359.237 37.3988   3
   4   4   7 473.997 71.0346   1
  -4  -4  -7 380.754 39.5148   5
  -4  -4  -8 1661.23 54.5051   5
   4   4   8 1610.04 86.4801   1
   4   4   9 273.845 71.8933   1
  -4  -4  -9 239.482 38.7342   5
  -4  -4 -10 137.172 38.8030   5
  -4  -4 -11 90.5518 40.3439   5
  -4  -4 -12-4.26932 42.2911   5
  -4  -4 -13 453.789 54.9909   5
   4   5 -11 116.349 56.9340   2
   4   5 -10 306.580 58.0812   2
   4   5  -9 584.803 62.3561   2
   4   5  -8 675.484 57.4488   6
   4   5  -8 770.462 61.1893   2
   4   5  -7 320.870 48.3499   2
   4   5  -7 259.479 51.7944   6
   4   5  -6 1200.28 70.1047   6
   4   5  -6 1231.18 65.2968   2
   4   5  -5 2039.73 67.2590   4
   4   5  -5 1972.13 76.6733   6
   4   5  -5 1814.97 65.1654   2
   4   5  -4 350.683 41.3980   4
   4   5  -4 407.776 40.9768   2
   4   5  -4 332.959 45.2610   6
   4   5  -3-3.72120 37.1929   4
   4   5  -3 14.7307 38.7762   6
   4   5  -2 1215.01 54.2865   4
   4   5  -2 1133.21 58.7075   6
   4   5  -1 5885.75 96.5892   4
   4   5  -1 6036.36 108.300   6
   4   5   0 3666.68 78.4674   4
   4   5   0 3571.65 84.7322   6
   4   5   1 828.977 46.7612   4
   4   5   1 765.388 47.1406   6
   4   5   2 1665.85 84.1371   1
   4   5   2 1593.07 54.5771   4
   4   5   2 1690.90 59.2880   6
   4   5   3 415.258 64.1130   1
   4   5   3 413.634 36.8420   4
   4   5   3 377.783 39.1901   6
   4   5   4 277.946 34.0903   4
   4   5   4 262.702 64.0792   1
   4   5   4 212.526 34.3066   6
   4   5   5 976.556 45.1734   6
   4   5   5 930.901 77.3944   1
   4   5   5 994.410 44.2715   4
   4   5   6 1457.64 84.8922   1
   4   5   6 1378.96 47.9272   4
   4   5   6 1317.20 57.2576   3
   4   5   6 1319.25 49.2232   6
   4   5   7-15.4269 34.3987   3
   4   5   7 0.00000 66.8882   1
   4   5   8 273.429 43.1982   3
   4   5   8 326.297 75.9031   1
   4   5   9 439.812 78.5203   1
   4   5   9 413.030 47.0657   3
   4   5  10 207.195 45.9108   3
   4   5  10 283.244 74.4464   1
   4   5  11 29.6697 40.2532   3
   4   5  12 1774.86 80.6684   3
   4   5  13 42.9567 44.1115   3
   4   5  14 57.4490 43.3335   3
   4   6 -10 224.968 50.3902   2
   4   6  -9 372.338 57.7484   2
   4   6  -8 289.867 54.6299   2
   4   6  -8 310.025 55.5710   6
   4   6  -7-31.9358 46.2386   2
   4   6  -7-12.2473 48.8846   6
   4   6  -6 70.7247 42.4559   2
   4   6  -6 36.1467 51.3041   6
   4   6  -5 2138.99 84.8606   6
   4   6  -4 1494.96 68.6611   6
   4   6  -3 292.365 47.6472   6
   4   6  -2 91.1452 44.8471   6
   4   6  -1 375.783 45.4169   6
   4   6   0 650.658 49.4879   6
   4   6   1 1465.84 63.2291   6
   4   6   2 366.287 43.6994   6
   4   6   3-15.5183 59.7628   1
   4   6   3-15.2018 32.9720   6
   4   6   4 628.117 72.5944   1
   4   6   4 457.871 43.0376   6
   4   6   5 6.60886 68.1833   1
   4   6   5 17.2612 31.5251   6
   4   6   6-72.1962 63.2603   1
   4   6   6-26.3285 29.0234   6
   4   6   7 193.514 44.4681   3
   4   6   7 227.631 72.9857   1
   4   6   8 1312.80 87.4969   1
   4   6   8 1235.62 66.7980   3
   4   6   9 1452.65 93.0929   1
   4   6   9 1426.67 69.1979   3
   4   6  10 433.932 53.8006   3
   4   6  10 424.179 80.0025   1
   4   6  11 184.846 76.8849   1
   4   6  11 61.5512 42.0836   3
   4   6  12 163.563 51.2098   3
   4   6  12 210.937 78.3881   1
   4   6  13 11.2284 43.8843   3
   4   7  -9 147.750 50.0394   2
   4   7  -7 380.089 63.1960   6
   4   7  -6 102.916 56.6857   6
   4   7  -5 92.0772 51.1702   6
   4   7  -4 318.123 54.1727   6
   4   7  -3 464.664 55.0927   6
   4   7  -2 2450.18 87.3777   6
   4   7  -1 539.725 54.6991   6
   4   7   0 116.337 40.4384   6
   4   7   1 0.00000 38.8043   6
   4   7   2 47.2266 42.8087   6
   4   7   3 65.5191 70.1831   1
   4   7   3 54.6080 39.9995   6
   4   7   4 448.722 79.2750   1
   4   7   4 588.830 49.3719   6
   4   7   5 1027.90 81.3415   1
   4   7   5 1259.69 60.7661   6
   4   7   6 3295.52 117.106   1
   4   7   6 3371.59 86.7818   6
   4   7   7 472.921 78.7689   1
   4   7   7 561.790 43.2589   6
   4   7   8-10.0428 65.3959   1
   4   7   9 1675.76 98.0725   1
   4   7   9 1463.78 82.9347   3
   4   7  10 33.0867 52.8984   3
   4   7  10 83.5952 75.7003   1
   4   7  11 69.2462 48.6250   3
   4   7  11 222.062 83.8039   1
   4   7  12 471.566 81.9172   1
   4   7  12 588.528 68.2371   3
   4   7  13 115.186 54.1064   3
   4   8  -7 86.4374 60.6307   6
   4   8  -6 488.948 69.0361   6
   4   8  -5 72.0098 51.9370   6
   4   8  -4 272.254 56.6412   6
   4   8  -3 619.761 67.2785   6
   4   8  -2 359.200 54.0005   6
   4   8  -1 329.877 56.5253   6
   4   8   0 530.912 60.2716   6
   4   8   1 4258.93 112.605   6
   4   8   2 256.953 48.3636   6
   4   8   3 860.264 63.1055   6
   4   8   4 3162.17 117.840   1
   4   8   4 3530.75 100.222   6
   4   8   5 2079.49 80.6684   6
   4   8   5 1825.83 96.8603   1
   4   8   6-77.9427 66.0210   1
   4   8   6-90.7311 42.3323   6
   4   8   7 349.833 82.0569   1
   4   8   7 224.940 42.4677   6
   4   8   8 337.113 80.8322   1
   4   8   9 36.3747 74.7339   1
   4   8  10 592.193 88.7217   1
   4   8  11 108.916 53.6486   3
   4   8  11 68.2082 78.9450   1
   4   8  12-61.9989 60.6729   3
   4   9  -4-80.8314 51.7304   6
   4   9  -3 215.356 57.7644   6
   4   9  -2-7.37662 50.9267   6
   4   9  -1 193.210 57.7567   6
   4   9   0 540.328 64.4810   6
   4   9   1 1885.49 89.1284   6
   4   9   2 1141.01 72.9457   6
   4   9   3 253.080 44.0321   6
   4   9   4 757.637 64.5092   6
   4   9   5 85.1057 71.1143   1
   4   9   5 89.1087 47.5012   6
   4   9   6 107.517 82.3651   1
   4   9   6 26.9948 40.3983   6
   4   9   7 295.654 52.0889   6
   4   9   7 359.242 75.7739   1
   4   9   8 129.961 77.6026   1
   4   9   9 240.961 86.4380   1
   4  10   5-170.026 52.9220   6
   4  10   6 13.8710 46.3540   6
  -5   6   5 990.099 99.2662   2
  -5   6   4-16.1864 79.9638   2
  -5   6   3 533.145 83.7451   2
  -5   6   2 315.837 80.2671   2
  -5   6   1-11.0228 75.0619   2
  -5   6   0 534.229 93.3586   2
  -5   6  -1 1353.75 101.301   2
  -5   6  -2 99.0585 66.6794   2
  -5   5   9 22.2371 74.9616   5
  -5   5   8-27.7881 62.1191   5
  -5   5   7 13.3547 59.7956   5
  -5   5   6 648.182 78.0008   5
  -5   5   5 4192.75 136.538   5
  -5   5   4 3512.90 123.316   5
  -5   5   3 152.576 74.6305   2
  -5   5   3 154.529 62.7155   5
  -5   5   2 416.757 87.4891   2
  -5   5   2 308.065 66.4249   5
  -5   5   1 404.321 78.8283   2
  -5   5   1 374.935 68.3276   5
  -5   5   0 34.1434 58.4167   2
  -5   5  -1 21.8888 65.4604   2
  -5   5  -1-66.6700 54.0753   5
  -5   5  -2 528.986 69.3889   5
  -5   5  -2 508.882 82.2302   2
  -5   5  -3 201.693 73.9141   2
  -5   5  -3 109.870 55.5308   5
  -5   5  -4 81.2960 70.3251   2
  -5   5  -4 41.9081 56.8724   5
  -5   5  -5 1023.29 72.8866   5
  -5   5  -5 1023.13 88.4644   2
  -5   5  -6 132.702 71.1230   2
  -5   5  -6 49.1979 51.5265   5
  -5   5  -7 96.0977 49.7336   5
  -5   4  10 1242.60 97.7434   5
  -5   4   9 661.018 82.8045   5
  -5   4   8 18.6847 68.8537   5
  -5   4   7 3559.89 134.635   5
  -5   4   6 2197.03 108.219   5
  -5   4   5 264.487 69.2790   5
  -5   4   4 3302.03 122.735   5
  -5   4   3 370.611 68.9927   5
  -5   4   2 47.7900 65.2902   2
  -5   4   2 142.311 62.8022   5
  -5   4   1 76.4639 68.8479   2
  -5   4   1 54.6200 61.0577   5
  -5   4   0 37.8010 68.2246   2
  -5   4   0-38.0340 59.1107   5
  -5   4  -1 249.753 70.0912   2
  -5   4  -1 333.428 66.2591   5
  -5   4  -2 286.167 71.9579   2
  -5   4  -2 276.517 60.4539   5
  -5   4  -3 52.1107 67.5936   2
  -5   4  -3-18.1364 65.8676   5
  -5   4  -4 513.313 69.3509   5
  -5   4  -4 584.412 72.5302   2
  -5   4  -5 2438.99 100.451   5
  -5   4  -5 2376.84 108.585   2
  -5   4  -6 6391.18 142.255   5
  -5   4  -6 6643.73 158.298   2
  -5   4  -7 591.898 67.6348   5
  -5   4  -7 567.480 68.9624   2
  -5   4  -8 220.592 68.2338   2
  -5   4  -8 339.524 63.7922   5
  -5   4  -9 216.265 66.4828   2
  -5   3  10 802.237 86.9671   5
  -5   3   9 903.057 84.1527   5
  -5   3   8 560.270 77.4578   5
  -5   3   7 109.965 56.2350   5
  -5   3   6 227.191 67.0778   5
  -5   3   5 1013.44 86.4610   5
  -5   3   4 57.1168 57.6731   5
  -5   3   3 167.425 60.5071   5
  -5   3   2 84.0085 55.6399   5
  -5   3   1 2456.61 103.453   5
  -5   3   0 2045.96 95.2943   5
  -5   3   0 1891.47 97.3707   2
  -5   3  -1 253.977 66.9879   2
  -5   3  -1 335.150 64.9848   5
  -5   3  -2 185.042 60.0769   2
  -5   3  -2 137.783 60.8891   5
  -5   3  -3 4041.99 117.479   5
  -5   3  -3 3928.71 116.424   2
  -5   3  -4 344.158 57.2292   2
  -5   3  -4 139.640 67.1922   5
  -5   3  -5 7192.69 151.108   5
  -5   3  -5 6781.00 148.236   2
  -5   3  -6 2298.24 98.0049   5
  -5   3  -6 1994.59 98.1291   2
  -5   3  -7 1926.37 91.0236   5
  -5   3  -7 1690.98 84.9786   2
  -5   3  -8 2.97266 53.9615   2
  -5   3  -8 12.4327 54.1963   5
  -5   3  -9 43.9366 56.8748   2
  -5   3  -9-35.8576 67.6121   5
  -5   3 -10-12.6820 64.9673   5
  -5   2  11-48.0349 64.6093   5
  -5   2  10 235.399 72.8204   5
  -5   2   9-16.1115 62.7435   5
  -5   2   8 135.746 71.3171   5
  -5   2   7 1079.12 82.9291   5
  -5   2   6 123.750 64.6133   5
  -5   2   5 86.1229 57.2894   5
  -5   2   4 15.1936 54.5592   5
  -5   2   3 588.596 68.6308   5
  -5   2   2 97.3006 53.9299   5
  -5   2   1 3179.34 109.111   5
  -5   2   0 4141.86 117.391   5
  -5   2  -1 1698.15 88.6325   5
  -5   2  -1 1775.18 85.7488   2
  -5   2  -2 1556.13 84.9744   5
  -5   2  -2 1742.59 86.5448   2
  -5   2  -3 846.671 71.0049   5
  -5   2  -3 876.123 71.9214   2
  -5   2  -4-34.9809 50.3876   2
  -5   2  -4-35.3041 57.1012   5
  -5   2  -5 969.101 76.1557   5
  -5   2  -5 876.655 69.2838   2
  -5   2  -6 19.5155 48.3658   2
  -5   2  -6 11.8448 57.2216   5
  -5   2  -7 57.9109 49.1179   2
  -5   2  -7 94.1046 55.8645   5
  -5   2  -8 65.5592 47.2173   2
  -5   2  -8 58.7345 54.9049   5
  -5   2  -9 1065.49 80.3971   5
  -5   2 -10 87.3859 62.0691   5
  -5   1  11-20.0935 59.1344   5
  -5   1  10 27.1182 65.7156   5
  -5   1   9 385.476 71.2595   5
  -5   1   8 10.1717 56.3894   5
  -5   1   7 56.9332 59.6325   5
  -5   1   6 1882.33 89.0966   5
  -5   1   5 1073.41 79.2564   5
  -5   1   4 2843.44 103.556   5
  -5   1   3 235.025 61.1415   5
  -5   1   2 396.307 62.5812   5
  -5   1   1 19.2299 52.6509   5
  -5   1   0 20.6788 54.4364   5
  -5   1  -1 26.8299 42.6340   2
  -5   1  -1 83.2979 53.2178   5
  -5   1  -2 128.119 48.6389   2
  -5   1  -2 168.616 55.3357   5
  -5   1  -3 402.274 56.7778   5
  -5   1  -3 504.330 55.3990   2
  -5   1  -4 1144.80 73.0272   5
  -5   1  -4 1046.20 64.8329   2
  -5   1  -5 4.81714 40.3258   2
  -5   1  -5 2.96113 53.7788   5
  -5   1  -6 425.334 63.2379   5
  -5   1  -6 435.567 53.5337   2
  -5   1  -7 47.4405 54.6008   5
  -5   1  -8 41.5788 51.0285   5
  -5   1  -9 2674.69 100.200   5
  -5   1 -10 379.005 68.6858   5
  -5   1 -11 1558.26 87.4605   5
  -5   0  11-39.7222 60.6572   5
  -5   0  10 1080.34 84.4268   5
  -5   0   9 406.282 76.0101   5
  -5   0   8-139.586 64.4828   5
  -5   0   7 396.504 67.8216   5
  -5   0   6 117.699 55.8995   5
  -5   0   5 4093.68 116.504   5
  -5   0   4 35.5171 54.3626   5
  -5   0   3 1190.87 76.7300   5
  -5   0   2 1768.28 84.6775   5
  -5   0   1 38.9218 52.3566   5
  -5   0   0 35.1718 50.9704   5
  -5   0  -1 1057.97 71.6446   5
  -5   0  -2 216.553 44.3719   2
  -5   0  -2 178.238 54.6821   5
  -5   0  -3 370.609 58.5323   5
  -5   0  -3 300.114 47.8803   2
  -5   0  -4 4379.84 108.732   5
  -5   0  -4 3740.18 88.7812   2
  -5   0  -5 7764.62 138.530   5
  -5   0  -6 385.206 61.6347   5
  -5   0  -7 84.9536 54.3714   5
  -5   0  -8 177.712 54.0541   5
  -5   0  -9 686.997 68.4538   5
  -5   0 -10 1288.96 79.2112   5
  -5   0 -11 156.404 59.0416   5
  -5   0 -12 207.151 60.3831   5
  -5  -1  11 1420.83 93.2720   5
  -5  -1  10 33.2840 66.2010   5
  -5  -1   9 1329.05 85.5224   5
  -5  -1   8 44.5163 56.5328   5
  -5  -1   7 402.477 63.5628   5
  -5  -1   6 4444.08 120.380   5
  -5  -1   5 95.9923 51.9782   5
  -5  -1   4 2090.90 87.2704   5
  -5  -1   3 403.744 59.4355   5
  -5  -1   2 4813.75 116.500   5
  -5  -1   1 4.32301 48.0673   5
  -5  -1   0 31.4697 48.1570   5
  -5  -1  -1 43.2181 48.9284   5
  -5  -1  -2 334.092 53.0420   5
   5   1   3 12.0571 46.3522   1
  -5  -1  -3 39.2998 45.2318   5
  -5  -1  -4-9.79732 43.3514   5
   5   1   4 31.3551 48.1996   1
  -5  -1  -5 981.828 68.8041   5
   5   1   5 1149.17 66.8485   1
  -5  -1  -6 969.183 69.7396   5
   5   1   6 1220.11 68.4944   1
  -5  -1  -7 1207.96 69.9607   5
   5   1   7 1151.84 70.1622   1
   5   1   8 152.069 58.5131   1
  -5  -1  -8 197.852 52.6062   5
  -5  -1  -9-21.9162 53.9978   5
  -5  -1 -10 257.406 61.2764   5
  -5  -1 -11 88.7258 58.8705   5
  -5  -1 -12-17.4130 55.5551   5
  -5  -1 -13 104.997 56.4315   5
   5   2 -11 587.949 81.4896   2
  -5  -2  11 454.182 68.1252   5
   5   2 -10-18.5393 57.5722   2
  -5  -2  10 32.9755 56.6139   5
   5   2  -9 274.365 58.4098   2
  -5  -2   9 272.033 54.2017   5
   5   2  -8-14.6892 54.5414   2
  -5  -2   8 3.76362 48.7062   5
  -5  -2   7 1188.07 77.0635   5
   5   2  -7 1170.07 71.6218   2
   5   2  -6 146.250 53.7529   2
  -5  -2   6 169.134 53.3708   5
  -5  -2   5 1565.88 79.3680   5
  -5  -2   4 2135.75 85.0221   5
  -5  -2   3 607.050 56.6017   5
  -5  -2   2 167.610 45.7043   5
  -5  -2   1 1208.18 65.5109   5
  -5  -2   0 3565.66 92.0274   5
  -5  -2  -1 2358.60 77.7842   5
  -5  -2  -2-33.4653 41.2313   5
  -5  -2  -3 2097.18 75.0606   5
   5   2   3 2022.42 79.6316   1
  -5  -2  -4 2044.16 74.9205   5
   5   2   4 2271.45 86.0683   1
  -5  -2  -5 56.2081 47.6227   5
   5   2   5 48.0193 53.0026   1
   5   2   6 140.359 58.8781   1
  -5  -2  -6 19.8105 47.1193   5
   5   2   7 109.417 59.9216   1
  -5  -2  -7 80.7649 46.2320   5
  -5  -2  -8 1097.84 63.8335   5
   5   2   8 1211.98 78.2692   1
   5   2   9 184.696 59.7099   1
  -5  -2  -9-10.4275 61.1595   5
   5   2  10 513.758 75.0402   1
  -5  -2 -10 311.505 60.1035   5
   5   2  11-127.740 74.3542   1
  -5  -2 -11-41.0449 49.9739   5
  -5  -2 -12 55.2067 51.9902   5
  -5  -2 -13 8.75134 54.3076   5
   5   3 -11 404.395 68.5578   2
  -5  -3  11 241.480 60.1744   5
   5   3 -10 231.725 57.6657   2
  -5  -3  10 244.262 62.6438   5
   5   3  -9 741.489 65.8845   2
  -5  -3   9 808.398 70.9145   5
   5   3  -8 16.2775 54.0868   2
  -5  -3   8 17.2098 47.2633   5
   5   3  -7-4.97072 47.0286   2
  -5  -3   7 70.7760 45.9856   5
   5   3  -7 55.2153 41.5123   4
   5   3  -6 47.7161 48.2359   2
  -5  -3   6 55.4939 54.2242   5
   5   3  -6 16.0223 42.4618   4
   5   3  -5 319.869 47.6349   2
  -5  -3   5 313.313 52.6043   5
   5   3  -5 343.874 46.8991   4
  -5  -3   4 3542.30 100.093   5
   5   3  -4 3102.60 82.7191   2
   5   3  -4 3220.58 86.1085   4
  -5  -3   3 1994.95 76.4196   5
  -5  -3   2 38.3203 39.5424   5
  -5  -3   1 97.5318 41.2108   5
  -5  -3   0 4536.32 98.7522   5
  -5  -3  -1 1166.75 58.6058   5
  -5  -3  -2 499.832 50.0259   5
   5   3   3 14.5043 53.3571   1
  -5  -3  -3-7.13730 39.0298   5
  -5  -3  -4 544.583 54.2399   5
   5   3   4 475.179 65.4227   1
  -5  -3  -5 26.6689 43.4873   5
   5   3   5-2.77201 58.4481   1
  -5  -3  -6 4835.53 98.7228   5
   5   3   6 4507.79 118.498   1
  -5  -3  -7 688.398 55.6341   5
   5   3   7 681.500 75.2700   1
  -5  -3  -8 555.265 57.0890   5
   5   3   8 444.558 69.3289   1
   5   3   9 529.285 74.3381   1
  -5  -3  -9 401.408 58.8320   5
  -5  -3 -10 1206.27 70.7770   5
   5   3  10 1498.04 91.5574   1
  -5  -3 -11 933.694 68.6421   5
   5   3  11 1028.03 85.0603   1
   5   3  12 24.6383 73.5525   1
  -5  -3 -12-58.4378 55.5037   5
  -5  -3 -13-46.5152 49.7629   5
   5   4 -10 962.668 73.7726   2
   5   4  -9-13.4818 44.7896   2
   5   4  -8 465.214 57.3248   2
   5   4  -7 1.27445 44.4500   2
   5   4  -7 17.7445 37.9859   4
   5   4  -6 38.0571 43.0244   2
   5   4  -6 79.6599 42.9420   4
   5   4  -5 24.9686 41.0707   2
   5   4  -5 87.7933 46.9818   4
   5   4  -4 398.500 43.8184   2
   5   4  -4 336.272 49.3262   4
   5   4  -3 54.3413 43.2853   4
   5   4  -3-31.8689 35.8993   6
   5   4  -2 986.641 60.4081   4
   5   4  -2 959.129 58.3484   6
   5   4  -1 1189.18 63.8504   4
   5   4  -1 1345.98 63.2122   6
   5   4   0 852.108 56.1579   4
   5   4   0 862.047 51.8051   6
   5   4   1-28.0346 39.4435   4
   5   4   1-0.63373 33.6248   6
   5   4   2 71.1636 39.3937   4
   5   4   2 83.2675 35.5903   6
   5   4   3 1585.14 61.9201   4
   5   4   3 1470.51 58.1359   6
   5   4   3 1649.57 86.6421   1
   5   4   4 73.1825 35.5876   4
   5   4   4 26.4972 30.2728   6
   5   4   4 88.1808 66.0376   1
   5   4   5 574.585 45.1773   4
   5   4   5 586.497 72.7065   1
   5   4   5 504.270 38.9851   6
   5   4   6 3558.36 112.328   1
   5   4   6 3530.51 78.8018   4
   5   4   7 2450.18 102.267   1
   5   4   8 251.218 69.0748   1
   5   4   9 296.458 68.8636   1
   5   4  10 1907.61 102.593   1
   5   4  11 403.176 82.1123   1
   5   4  12 30.6694 66.7159   1
   5   4  13 620.762 81.5120   1
   5   5 -10 232.892 56.9186   2
   5   5  -9 258.947 61.4748   2
   5   5  -8 1094.89 68.9682   2
   5   5  -7-10.8947 45.6845   2
   5   5  -7 102.265 40.7017   4
   5   5  -6 616.664 51.7687   4
   5   5  -6 575.976 60.7421   6
   5   5  -5 485.328 49.6497   4
   5   5  -5 435.891 52.4265   6
   5   5  -4 552.422 49.8267   4
   5   5  -4 454.728 55.5396   6
   5   5  -3 1837.27 69.5843   4
   5   5  -3 1807.72 76.3986   6
   5   5  -2 442.059 52.4223   4
   5   5  -2 534.962 54.9793   6
   5   5  -1 23.0154 43.3109   4
   5   5  -1-35.9745 40.5503   6
   5   5   0 4150.20 94.3709   4
   5   5   0 3948.52 96.4975   6
   5   5   1 116.086 42.6673   4
   5   5   1 65.8533 38.2075   6
   5   5   2 477.433 48.1155   4
   5   5   2 522.945 46.3002   6
   5   5   3 42.3451 66.4202   1
   5   5   3 89.4232 42.2429   4
   5   5   3 33.3127 34.7516   6
   5   5   4 2.37993 70.3920   1
   5   5   4 29.1899 38.5835   4
   5   5   4 20.1440 33.6599   6
   5   5   5 699.320 47.5163   4
   5   5   5 564.629 76.5393   1
   5   5   5 632.907 44.9842   6
   5   5   6 591.510 42.7105   4
   5   5   6 569.774 75.6732   1
   5   5   7 218.169 75.5424   1
   5   5   8-6.36003 66.2419   1
   5   5   9 51.1558 76.9828   1
   5   5  10 9.10322 67.0271   1
   5   5  11 312.920 44.9494   3
   5   5  11 411.306 77.8407   1
   5   5  12 62.7503 38.5058   3
   5   5  12 78.7369 81.9525   1
   5   5  13 238.882 47.3219   3
   5   6  -7 1006.24 73.8626   6
   5   6  -6 3351.12 110.965   6
   5   6  -5 1188.61 73.8807   6
   5   6  -4 1646.48 68.0432   4
   5   6  -4 1512.76 78.0862   6
   5   6  -3 171.403 45.2403   4
   5   6  -3 120.050 46.2776   6
   5   6  -2 3180.13 85.5779   4
   5   6  -2 2871.71 91.9188   6
   5   6  -1 26.5255 38.2829   4
   5   6  -1 12.1412 39.8224   6
   5   6   0 739.278 55.6340   4
   5   6   0 738.871 57.9052   6
   5   6   1 3499.01 85.0387   4
   5   6   1 3639.60 95.5876   6
   5   6   2 4496.82 93.4814   4
   5   6   2 4320.90 101.325   6
   5   6   3 161.862 40.1694   4
   5   6   3 155.275 42.4134   6
   5   6   4 299.707 78.8886   1
   5   6   4 321.701 43.0722   4
   5   6   4 272.408 40.5620   6
   5   6   5 2600.54 70.4891   4
   5   6   5 2449.60 76.7042   6
   5   6   5 2552.31 114.309   1
   5   6   6 460.280 82.6500   1
   5   6   7 514.682 78.2273   1
   5   6   8-17.4771 66.5011   1
   5   6   9 50.7408 72.3566   1
   5   6  10 1323.65 101.345   1
   5   6  11 452.378 88.4904   1
   5   6  12 20.7424 69.5793   1
   5   6  13-47.6382 45.4309   3
   5   7  -7 375.974 68.8212   6
   5   7  -6 194.345 55.3059   6
   5   7  -5 7955.76 164.281   6
   5   7  -4 1316.97 77.8541   6
   5   7  -3 1416.64 76.6059   6
   5   7  -2 215.140 53.0170   6
   5   7  -1 252.222 50.3522   6
   5   7   0 9.77456 41.4911   6
   5   7   1 91.2041 44.4399   6
   5   7   2 439.366 48.2482   6
   5   7   3 1555.39 70.8066   6
   5   7   4 1990.54 107.717   1
   5   7   4 2015.71 75.8355   6
   5   7   5 2742.51 85.4308   6
   5   7   5 2746.16 117.974   1
   5   7   6 3.98195 77.6128   1
   5   7   6 31.7275 37.7134   6
   5   7   7 125.114 77.6772   1
   5   7   8 2904.16 122.124   1
   5   7   9 292.796 85.8754   1
   5   7  10 374.676 81.7599   1
   5   7  11 1162.71 109.778   1
   5   8  -5-96.5552 59.4594   6
   5   8  -4 735.347 72.7811   6
   5   8  -3 51.8225 52.4913   6
   5   8  -2 377.605 58.3371   6
   5   8  -1 18.1111 51.7593   6
   5   8   0 60.8194 48.4708   6
   5   8   1 14.8580 42.2700   6
   5   8   2 689.433 66.0035   6
   5   8   3 74.9828 49.0119   6
   5   8   4 136.911 50.8196   6
   5   8   5 7857.30 179.500   1
   5   8   5 8017.97 146.447   6
   5   8   6 6048.81 129.185   6
   5   8   6 5845.39 158.091   1
   5   8   7 679.744 98.5989   1
   5   8   8 87.0247 87.2860   1
   5   8   9 637.422 95.7277   1
   5   9  -1 75.3658 49.6739   6
   5   9   0 1068.80 76.0219   6
   5   9   1 337.852 63.5296   6
   5   9   2-108.074 43.3861   6
   5   9   3 607.961 57.7797   6
   5   9   4 895.846 66.7794   6
   5   9   5 23.0461 45.3265   6
   5   9   6 1396.74 108.896   1
   5   9   6 1345.95 81.7218   6
   5   9   7-102.291 79.3716   1
  -6   5   5 91.1050 70.6530   5
  -6   5   4 389.155 77.9662   5
  -6   5   3 426.599 80.9949   5
  -6   5   2-14.4994 69.5304   2
  -6   5   2-11.5309 67.8666   5
  -6   5   1 574.170 96.4773   2
  -6   5   1 527.117 77.3632   5
  -6   5   0 772.873 85.1643   5
  -6   5   0 760.665 89.3793   2
  -6   5  -1 335.348 74.7130   2
  -6   5  -1 405.840 72.9702   5
  -6   5  -2 82.7341 62.9944   5
  -6   5  -3-31.6418 56.5569   5
  -6   4   7-57.9275 66.5911   5
  -6   4   6 390.550 73.5336   5
  -6   4   5 2428.07 120.075   5
  -6   4   4 122.997 74.9021   5
  -6   4   3 999.124 97.1964   5
  -6   4   2 92.3017 75.4253   2
  -6   4   2 171.357 71.4510   5
  -6   4   1 255.787 72.5774   2
  -6   4   1 279.518 77.8779   5
  -6   4   0 356.765 74.8268   2
  -6   4   0 416.949 81.1243   5
  -6   4  -1 60.7856 64.3575   2
  -6   4  -1 5.19066 69.9590   5
  -6   4  -2 195.268 74.1296   2
  -6   4  -2 75.3288 62.4404   5
  -6   4  -3 1065.88 97.1194   5
  -6   4  -3 1261.27 99.7988   2
  -6   4  -4 539.419 76.5917   2
  -6   4  -4 607.216 82.4392   5
  -6   4  -5-76.5004 98.0109   2
  -6   4  -5-19.0000 58.9653   5
  -6   4  -6 100.497 74.7503   2
  -6   4  -6 4.87551 63.5118   5
  -6   3   8 46.6934 75.4591   5
  -6   3   7 75.0284 70.2172   5
  -6   3   6 25.7785 60.4253   5
  -6   3   5 270.749 74.2237   5
  -6   3   4 93.0246 61.5149   5
  -6   3   3 339.268 69.6232   5
  -6   3   2 407.788 80.1334   5
  -6   3   1 118.176 71.0900   2
  -6   3   1 192.024 72.8906   5
  -6   3   0 154.768 69.7160   2
  -6   3   0 115.244 69.0615   5
  -6   3  -1 110.505 71.9561   2
  -6   3  -1 74.7049 70.5541   5
  -6   3  -2-30.3463 60.8396   2
  -6   3  -2-23.0768 56.8509   5
  -6   3  -3-57.5898 65.1840   2
  -6   3  -3 2.02334 58.0843   5
  -6   3  -4 98.8927 67.0454   2
  -6   3  -4 32.8836 66.9334   5
  -6   3  -5 2436.17 109.988   5
  -6   3  -5 2114.77 107.094   2
  -6   3  -6 200.393 65.7525   2
  -6   3  -6 7.43723 59.2838   5
  -6   3  -7 501.846 70.6871   2
  -6   3  -7 469.368 71.0701   5
  -6   2   9-45.4926 66.7263   5
  -6   2   8 74.2593 65.6855   5
  -6   2   7-79.6750 62.8543   5
  -6   2   6 86.9323 64.9031   5
  -6   2   5 1154.19 88.1958   5
  -6   2   4 72.4211 68.8138   5
  -6   2   3 109.748 61.8166   5
  -6   2   2 400.343 70.1021   5
  -6   2   1 65.8013 66.7760   5
  -6   2   0 479.722 68.9430   2
  -6   2   0 333.724 67.9702   5
  -6   2  -1 61.8434 64.2984   2
  -6   2  -1-116.090 63.6035   5
  -6   2  -2 282.104 65.3929   2
  -6   2  -2 390.657 72.0123   5
  -6   2  -3 144.781 59.1803   2
  -6   2  -3 59.3121 58.5841   5
  -6   2  -4 112.065 54.7209   2
  -6   2  -4-11.5438 63.7054   5
  -6   2  -5 276.936 52.6032   2
  -6   2  -5 280.610 72.8095   5
  -6   2  -6 214.088 67.3550   5
  -6   2  -7 127.145 64.7427   5
  -6   2  -8 63.7869 63.2089   5
  -6   1   9-56.3211 69.2121   5
  -6   1   8 285.987 61.6193   5
  -6   1   7 40.0648 55.7918   5
  -6   1   6 12.0526 55.8588   5
  -6   1   5 643.245 72.9794   5
  -6   1   4 629.932 74.1478   5
  -6   1   3-55.5897 61.4668   5
  -6   1   2-73.4096 56.5502   5
  -6   1   1-35.9442 61.5892   5
  -6   1   0 656.091 73.8958   5
  -6   1  -1 434.438 56.6019   2
  -6   1  -1 361.088 69.7939   5
  -6   1  -2-1.17824 45.4853   2
  -6   1  -2 20.3892 63.2761   5
  -6   1  -3 345.875 51.8199   2
  -6   1  -3 404.260 65.8820   5
  -6   1  -4 85.2192 60.6891   5
  -6   1  -5 57.0134 60.3304   5
  -6   1  -6 438.522 67.9850   5
  -6   1  -7 223.416 64.1755   5
  -6   1  -8 20.7283 55.4033   5
  -6   1  -9 142.914 56.9465   5
  -6   0  10 2426.96 122.850   5
  -6   0   9 382.106 71.3338   5
  -6   0   8 257.071 68.2249   5
  -6   0   7 633.698 80.0339   5
  -6   0   6 42.4639 61.4469   5
  -6   0   5 233.811 67.1183   5
  -6   0   4 950.929 83.9773   5
  -6   0   3 1143.84 81.7407   5
  -6   0   2 505.674 72.0748   5
  -6   0   1 1467.33 87.0372   5
  -6   0   0 1083.49 83.1120   5
  -6   0  -1 586.760 71.9538   5
  -6   0  -2 694.530 74.7336   5
  -6   0  -3-5.53073 56.8080   5
  -6   0  -4-3.56696 51.5564   5
  -6   0  -5-36.1177 58.8468   5
  -6   0  -6 747.408 73.5716   5
  -6   0  -7 23.0756 58.7612   5
  -6   0  -8 158.826 59.5732   5
  -6   0  -9 114.311 59.3393   5
  -6   0 -10 77.0033 60.6608   5
  -6  -1  10 2154.80 114.155   5
  -6  -1   9 1681.85 101.953   5
  -6  -1   8 487.555 89.7807   5
  -6  -1   7 185.509 65.8603   5
  -6  -1   6 94.8390 56.3343   5
  -6  -1   5 425.126 67.9533   5
  -6  -1   4 102.323 58.4468   5
  -6  -1   3 28.3791 55.7022   5
  -6  -1   2 763.499 74.8111   5
  -6  -1   1 2956.30 105.663   5
  -6  -1   0 9782.30 172.456   5
  -6  -1  -1 169.165 63.5313   5
  -6  -1  -2 1187.82 84.5212   5
  -6  -1  -3 1071.63 78.7505   5
  -6  -1  -4 75.1861 54.9454   5
  -6  -1  -5 342.867 61.0817   5
  -6  -1  -6 229.173 58.5675   5
  -6  -1  -7 2486.97 94.6594   5
  -6  -1  -8 270.869 60.9831   5
  -6  -1  -9-8.19890 51.8817   5
  -6  -1 -10 1000.82 78.7723   5
  -6  -1 -11-1.91398 64.3448   5
  -6  -2  10 74.3574 67.6302   5
  -6  -2   9 287.821 63.0756   5
  -6  -2   8 258.344 56.6516   5
  -6  -2   7 253.150 57.0597   5
  -6  -2   6 44.4075 51.0502   5
  -6  -2   5 36.4928 54.8078   5
  -6  -2   4-14.7745 52.6415   5
  -6  -2   3 439.501 63.9840   5
  -6  -2   2 466.701 63.4488   5
  -6  -2   1 7912.43 148.940   5
  -6  -2   0 4321.29 121.820   5
  -6  -2  -1 26611.0 258.054   5
  -6  -2  -2 1841.50 93.4395   5
  -6  -2  -3 340.812 70.0390   5
   6   2   4 1678.54 83.7349   1
  -6  -2  -4 1452.67 81.1458   5
   6   2   5 4.75653 59.2039   1
  -6  -2  -5-6.67037 55.3070   5
  -6  -2  -6 101.189 53.3151   5
   6   2   6 82.7279 61.1134   1
  -6  -2  -7 49.2889 53.0560   5
   6   2   7 44.6225 58.3461   1
   6   2   8 77.9303 57.9118   1
  -6  -2  -8 110.635 54.3434   5
  -6  -2  -9 985.685 69.2874   5
  -6  -2 -10 1506.72 88.2874   5
  -6  -2 -11 741.956 73.2628   5
  -6  -2 -12 363.333 65.1411   5
   6   3 -10-21.0547 59.5496   2
  -6  -3  10-27.1797 59.2692   5
   6   3  -9 14.2462 60.7935   2
  -6  -3   9 45.6963 62.0965   5
  -6  -3   8-93.7586 55.6508   5
  -6  -3   7 342.469 67.1881   5
   6   3  -7 456.365 51.7088   4
  -6  -3   6 694.776 73.1455   5
   6   3  -6 462.419 59.7241   4
  -6  -3   5 1965.19 93.9756   5
   6   3  -5 1674.88 76.4183   4
  -6  -3   4 166.606 53.8047   5
  -6  -3   3 447.567 58.4723   5
  -6  -3   2 1256.10 70.7786   5
  -6  -3   1 45.4877 45.0964   5
  -6  -3   0 2011.23 88.5364   5
  -6  -3  -1 664.232 64.0117   5
  -6  -3  -2 2574.61 91.6251   5
  -6  -3  -3-24.5838 51.1552   5
   6   3   4 59.9761 60.9109   1
  -6  -3  -4 41.1058 51.1090   5
   6   3   5-34.3404 62.1655   1
  -6  -3  -5 25.3182 49.6384   5
  -6  -3  -6-41.0916 48.1967   5
   6   3   6-23.8219 64.0354   1
  -6  -3  -7 932.626 66.9316   5
   6   3   7 983.241 84.0728   1
  -6  -3  -8 470.927 57.0793   5
   6   3   8 266.005 70.0925   1
  -6  -3  -9 926.597 70.9092   5
   6   3   9 1126.68 88.6389   1
   6   3  10 312.563 68.7034   1
  -6  -3 -10 349.929 65.6788   5
  -6  -3 -11 9887.98 160.584   5
   6   3  11 9069.41 185.591   1
   6   3  12 17.9060 67.6730   1
  -6  -3 -12 76.4687 56.3323   5
   6   4  -9 40.4243 53.7222   2
   6   4  -8 55.0764 50.9338   2
   6   4  -7 274.313 55.0676   4
   6   4  -6 158.955 51.6836   4
   6   4  -5 1904.85 82.0577   4
   6   4  -4 193.153 57.2756   4
   6   4  -3 372.274 50.9852   4
   6   4  -2 175.015 49.0834   4
   6   4  -1 941.194 59.9283   4
   6   4   0 201.450 48.2258   4
   6   4   1 17.7994 40.9545   4
   6   4   2 859.080 54.7855   4
   6   4   3-0.11268 38.2407   4
   6   4   4 300.286 68.1237   1
   6   4   4 363.974 48.9020   4
   6   4   5 2679.86 80.2156   4
   6   4   5 2631.10 108.868   1
   6   4   6 48.5359 40.8900   4
   6   4   6 73.3077 66.3271   1
   6   4   7 293.130 76.5454   1
   6   4   8 717.557 79.4500   1
   6   4   9 105.583 76.2128   1
   6   4  10 2372.40 111.336   1
   6   4  11 80.2882 69.5617   1
   6   4  12 1497.56 111.437   1
   6   5  -7 49.4878 47.3588   4
   6   5  -6 198.610 50.9477   4
   6   5  -5 168.327 49.1258   4
   6   5  -4 197.472 52.9852   4
   6   5  -3 13.2275 42.6392   4
   6   5  -2 702.273 60.4872   4
   6   5  -2 618.135 58.7612   6
   6   5  -1 332.338 50.3294   4
   6   5  -1 387.323 50.7935   6
   6   5   0 139.521 51.7311   4
   6   5   0 85.5211 41.4945   6
   6   5   1 197.958 46.3461   4
   6   5   1 179.514 47.6527   6
   6   5   2-3.70288 42.9785   4
   6   5   2-21.7414 43.0036   6
   6   5   3 333.616 50.5510   4
   6   5   3 298.500 45.5719   6
   6   5   4 905.153 83.8385   1
   6   5   4 1012.29 56.7316   4
   6   5   4 931.282 55.1406   6
   6   5   5 173.859 69.1458   1
   6   5   5 185.777 44.2587   4
   6   5   6 1053.95 57.3754   4
   6   5   6 1010.92 90.7180   1
   6   5   7 690.110 81.0518   1
   6   5   8 11.2076 74.0661   1
   6   5   9-67.2717 68.1607   1
   6   5  10 242.713 80.8967   1
   6   5  11-34.8498 76.9108   1
   6   6  -6 223.997 50.3555   4
   6   6  -5 1120.97 65.5331   4
   6   6  -5 1120.04 80.7442   6
   6   6  -4 450.951 59.5495   4
   6   6  -4 475.929 65.4281   6
   6   6  -3 90.1612 46.7904   4
   6   6  -3 21.8671 50.8579   6
   6   6  -2 14.8927 43.6101   4
   6   6  -2 41.7723 45.4952   6
   6   6  -1 235.224 50.7776   4
   6   6  -1 204.133 52.4326   6
   6   6   0 774.719 58.0127   4
   6   6   0 669.835 58.5884   6
   6   6   1 304.260 49.3942   4
   6   6   1 383.148 49.9898   6
   6   6   2 17.2800 42.7155   4
   6   6   2 30.5666 42.1095   6
   6   6   3 43.8969 38.7851   4
   6   6   3 38.4532 40.8756   6
   6   6   4 70.6344 39.6423   4
   6   6   4 59.7051 37.9916   6
   6   6   5-26.8015 73.2038   1
   6   6   5 44.8160 41.6130   4
   6   6   6 344.969 71.2194   1
   6   6   6 365.724 44.7329   4
   6   6   7 42.1328 71.2666   1
   6   6   8 135.506 80.8539   1
   6   6   9 235.825 78.5383   1
   6   6  10 238.855 87.6600   1
   6   7  -4 753.537 68.9516   6
   6   7  -3 244.363 54.8754   6
   6   7  -2 168.820 54.7764   6
   6   7  -1 17.9525 44.5238   4
   6   7  -1 45.4262 50.9327   6
   6   7   0 110.142 44.5093   4
   6   7   0 98.2958 49.0839   6
   6   7   1 47.4611 39.9397   4
   6   7   1 67.1861 41.0583   6
   6   7   2 227.898 44.8673   4
   6   7   2 271.059 50.4605   6
   6   7   3 53.4898 41.6344   4
   6   7   3-13.1566 42.6966   6
   6   7   4 58.0046 49.5601   6
   6   7   5 1094.12 100.348   1
   6   7   5 906.839 64.4809   6
   6   7   6 157.866 78.7730   1
   6   7   7 37.4103 79.3072   1
   6   7   8 26.9866 81.5582   1
   6   7   9 806.542 101.468   1
   6   8  -2 496.883 70.2496   6
   6   8  -1 796.623 68.1954   6
   6   8   0 212.541 59.3645   6
   6   8   1 214.447 52.1092   6
   6   8   2 103.962 39.3627   6
   6   8   3 245.543 52.6815   6
   6   8   4 78.7872 48.2156   6
   6   8   5 657.547 60.1588   6
   6   8   6 496.121 88.0575   1
   6   8   7 412.768 89.8798   1
   6   9   4 399.770 57.7446   6
   6   9   5 138.816 52.4555   6
  -7   3   3 296.265 82.6804   5
  -7   3   2 271.312 83.3207   2
  -7   3   2 257.854 82.6216   5
  -7   3   1 107.082 79.2188   2
  -7   3   1 217.802 70.4130   5
  -7   3   0-46.7634 72.6009   2
  -7   3   0 9.84446 72.4201   5
  -7   3  -1 4.50805 73.5537   2
  -7   3  -1-127.444 74.2406   5
  -7   3  -2 21.0151 75.4724   2
  -7   3  -2-16.9514 72.6433   5
  -7   3  -3 168.258 70.8537   2
  -7   3  -4 795.934 80.7600   2
  -7   2   5-48.5251 76.5388   5
  -7   2   4-2.60486 72.7876   5
  -7   2   3 13.6087 60.0839   5
  -7   2   2 273.286 84.1116   5
  -7   2   1-80.1267 64.8955   2
  -7   2   1-8.75658 66.7348   5
  -7   2   0 1389.58 96.8587   5
  -7   2   0 1366.57 100.827   2
  -7   2  -1 248.455 74.8513   2
  -7   2  -1 129.043 68.6127   5
  -7   2  -2 941.698 86.9681   5
  -7   2  -2 906.539 84.3614   2
  -7   2  -3 141.674 73.0243   5
  -7   2  -4 232.142 84.9989   5
  -7   2  -5 1442.97 101.994   5
  -7   1   6 500.163 76.8722   5
  -7   1   5 124.666 67.3236   5
  -7   1   4 46.3431 54.6303   5
  -7   1   3 167.531 63.3228   5
  -7   1   2 71.2577 71.1980   5
  -7   1   1 148.715 66.8815   5
  -7   1   0 10.1674 63.8461   2
  -7   1   0-175.391 67.0349   5
  -7   1  -1 909.471 86.7098   5
  -7   1  -2-62.6224 72.5638   5
  -7   1  -3 561.101 80.0718   5
  -7   1  -4 88.4802 65.5598   5
  -7   1  -5 95.5924 69.4363   5
  -7   1  -6 194.720 76.4199   5
  -7   0   7 259.866 72.9407   5
  -7   0   6-94.1093 57.3837   5
  -7   0   5 799.494 82.8417   5
  -7   0   4 350.876 67.0008   5
  -7   0   3 584.772 76.5045   5
  -7   0   2 74.5104 62.2900   5
  -7   0   1 158.241 69.0733   5
  -7   0   0-18.2816 61.0884   5
  -7   0  -1 28.0839 66.7767   5
  -7   0  -2 10.3201 61.5611   5
  -7   0  -3 75.9077 62.0397   5
  -7   0  -4 748.365 74.5227   5
  -7   0  -5 41.6061 65.5041   5
  -7   0  -6 92.2962 67.5850   5
  -7   0  -7 115.447 61.9916   5
  -7   0  -8 166.123 60.2992   5
  -7  -1   7 41.8905 67.4466   5
  -7  -1   6 672.204 80.1361   5
  -7  -1   5 168.418 58.0654   5
  -7  -1   4 179.349 62.2121   5
  -7  -1   3 53.9454 58.6891   5
  -7  -1   2 447.361 62.0396   5
  -7  -1   1 112.073 69.8945   5
  -7  -1   0 27.0185 62.0720   5
  -7  -1  -1 197.958 70.6447   5
  -7  -1  -2 265.656 68.1203   5
  -7  -1  -3 61.0691 64.0208   5
  -7  -1  -4-0.36976 57.1093   5
  -7  -1  -5 1452.19 87.7430   5
  -7  -1  -6-8.34799 63.7444   5
  -7  -1  -7 313.814 66.0010   5
  -7  -1  -8 329.868 62.1962   5
  -7  -1  -9 267.931 63.2246   5
  -7  -2   8-34.1072 72.0327   5
  -7  -2   7-68.4946 68.2051   5
  -7  -2   6 350.158 69.9427   5
  -7  -2   5 296.348 60.5182   5
  -7  -2   4 72.5466 55.5327   5
  -7  -2   3-36.5659 51.7660   5
  -7  -2   2 3.27573 51.5529   5
  -7  -2   1 1058.78 84.9539   5
  -7  -2   0 3.15530 64.7685   5
  -7  -2  -1 171.034 68.0396   5
  -7  -2  -2 41.1600 61.1573   5
  -7  -2  -3 177.703 64.7718   5
  -7  -2  -4 19.8665 55.5667   5
  -7  -2  -5-23.3440 57.7845   5
  -7  -2  -6 333.212 62.5323   5
  -7  -2  -7 100.439 62.5997   5
  -7  -2  -8 70.8284 60.4858   5
  -7  -2  -9 101.540 57.2642   5
  -7  -3   8-168.187 70.0253   5
  -7  -3   7 174.883 63.4630   5
   7   3  -7-22.0368 53.6418   4
  -7  -3   6 149.731 65.2475   5
   7   3  -6-43.0462 51.6565   4
  -7  -3   5-28.8130 61.9411   5
  -7  -3   4 1288.54 80.6263   5
  -7  -3   3-10.9632 53.4791   5
  -7  -3   2-28.3728 54.6565   5
  -7  -3   1 3.56754 56.2848   5
  -7  -3   0 2148.95 97.7068   5
  -7  -3  -1 71.4935 63.7515   5
  -7  -3  -2 25.8831 59.5179   5
  -7  -3  -3 34.5763 57.1283   5
  -7  -3  -4 905.119 74.5449   5
  -7  -3  -5 158.464 55.9622   5
   7   3   6 303.453 66.7692   1
  -7  -3  -6 152.480 57.3984   5
   7   3   7-57.5085 67.3482   1
  -7  -3  -7-13.5477 53.9006   5
  -7  -3  -8 123.779 51.2321   5
   7   3   8 80.9158 61.4868   1
  -7  -3  -9 277.340 61.9556   5
  -7  -3 -10 472.388 80.4332   5
   7   4  -7 83.2367 47.0964   4
   7   4  -6 35.7108 56.1977   4
   7   4  -5 169.076 58.8252   4
   7   4  -4-14.0551 43.3070   4
   7   4  -3 125.218 49.6600   4
   7   4  -2-31.5382 45.5664   4
   7   4  -1-10.8413 46.0136   4
   7   4   0 289.394 46.6598   4
   7   4   1 1.23693 41.2679   4
   7   4   2 152.615 47.5539   4
   7   4   3 28.4491 41.6121   4
   7   4   4 116.977 38.5717   4
   7   4   5 12.6229 42.5036   4
   7   4   6 472.659 86.9082   1
   7   4   7 263.544 84.2010   1
   7   4   8 464.884 95.0415   1
   7   4   9 30.1594 79.8576   1
   7   4  10 205.036 78.3036   1
   7   5  -6 299.085 55.8094   4
   7   5  -5 39.9974 57.7748   4
   7   5  -4 42.5008 49.9240   4
   7   5  -3 5.09133 52.0505   4
   7   5  -2-31.8985 48.5718   4
   7   5  -1 151.555 48.6842   4
   7   5   0 564.747 57.1241   4
   7   5   1 30.4129 44.0724   4
   7   5   2 19.4799 44.7534   4
   7   5   3 25.6409 39.9299   4
   7   5   4 5.45879 48.2405   4
   7   5   5 496.633 52.3555   4
   7   5   6 66.9268 74.1581   1
   7   5   7 360.530 77.6708   1
   7   5   8 54.7336 82.3542   1
   7   5   9 42.3973 86.5598   1
   7   6  -4 115.043 53.8142   4
   7   6  -3 418.732 58.9850   4
   7   6  -2 322.901 59.3723   4
   7   6  -1 319.203 57.6076   4
   7   6  -1 407.605 56.5613   6
   7   6   0 331.428 55.0735   4
   7   6   0 318.910 51.7342   6
   7   6   1 1201.53 67.2319   4
   7   6   1 1164.59 71.1034   6
   7   6   2 45.9245 42.6294   4
   7   6   2-63.8406 47.1036   6
   7   6   3 169.391 44.7019   4
   7   6   3 167.815 51.2579   6
   7   6   4 153.977 51.6244   4
   7   6   5 336.501 49.5546   4
   7   6   6 193.777 89.9338   1
   7   6   7 231.155 91.5066   1
   7   6   8 23.3261 85.2027   1
   7   7  -1 57.1719 52.9610   4
   7   7  -1 166.267 57.2345   6
   7   7   0 335.675 52.8339   4
   7   7   0 276.340 53.6242   6
   7   7   1-16.6639 46.0155   4
   7   7   1 65.3224 46.3123   6
   7   7   2 887.423 65.4997   4
   7   7   2 1038.02 73.6789   6
   7   7   3 677.607 55.5610   4
   7   7   3 690.831 59.9645   6
   7   7   4 182.147 52.8608   4
   7   7   4 111.685 48.8789   6
   7   7   5 985.111 66.4971   4
   7   8   3 295.060 61.2673   6
   7   8   4 558.636 60.7881   6
  -8   0   1 104.677 63.1458   5
  -8   0   0 152.864 73.9570   5
  -8   0  -1 230.867 79.0532   5
  -8   0  -2 157.597 67.7345   5
  -8  -1   3 331.950 70.3777   5
  -8  -1   2 41.7411 74.8714   5
  -8  -1   1 278.881 76.7112   5
  -8  -1   0 506.575 90.0291   5
  -8  -1  -1-15.8103 77.9061   5
  -8  -1  -2-98.0298 75.6466   5
  -8  -1  -3 5.97987 72.7093   5
  -8  -1  -4-36.7624 71.8738   5
  -8  -1  -5-108.001 75.5907   5
  -8  -2   4 114.343 67.2773   5
  -8  -2   3 182.710 66.3062   5
  -8  -2   1-112.132 77.4848   5
  -8  -2   0 2884.27 124.901   5
  -8  -2  -1 1440.85 101.651   5
  -8  -2  -2 1148.74 95.1640   5
  -8  -2  -3-8.51952 72.5506   5
  -8  -2  -4 144.162 69.6856   5
  -8  -2  -5 108.044 54.5243   5
  -8  -2  -6 43.8105 61.5195   5
  -8  -3   5 42.5567 73.2224   5
  -8  -3   4 222.955 70.3999   5
  -8  -3   3 146.210 61.7625   5
  -8  -3   2 167.262 81.7713   5
  -8  -3   1 463.283 87.8841   5
  -8  -3   0 592.085 88.7098   5
  -8  -3  -1 3522.61 133.985   5
  -8  -3  -2 524.239 90.2646   5
  -8  -3  -3 642.243 82.0547   5
  -8  -3  -4 27.0511 66.5218   5
  -8  -3  -5 35.7520 68.9868   5
  -8  -3  -6 72.7532 65.8789   5
  -8  -3  -7 126.841 62.9000   5
   8   4  -2-12.3332 41.0037   4
   8   4  -1 32.1074 45.1097   4
   8   4   0 63.3547 45.6035   4
   8   4   1 70.9635 44.7158   4
   8   4   2 170.233 47.0817   4
   8   4   3 190.298 48.5542   4
   8   4   4 38.0966 42.3153   4
   8   4   5 79.7743 46.7262   4
   8   5   1 47.5746 44.7431   4
   8   5   2-21.9143 50.6257   4
   8   5   3 43.9046 45.7613   4
   8   5   4 76.2329 52.2147   4
   8   5   5 228.034 45.1461   4
;
_shelx_hkl_checksum              55737
_shelx_res_file
;
TITL h5cg
CELL  0.71073  6.6864  8.1857 12.6490 79.424 85.583 75.586
ZERR   2       0.0007  0.0009  0.0010  0.009  0.009  0.009
LATT 1
SFAC C H N O
UNIT 20 22 10 14
PLAN 30
FMAP 2
OMIT -2 55.1
SIZE 0.50 0.40 0.04
TEMP 23.0
L.S. 20
ACTA
BOND $H
CONF
HTAB
OMIT 1 0 0
REM DFIX 0.82 0.02 O31 H31 O31 H32
WGHT    0.050100    0.217600
FVAR       5.82546
MOLE 1
N11   3    0.139391    0.943397    0.245195    11.00000    0.05059    0.02986 =
         0.03686   -0.00713   -0.00223   -0.00626
H11   2    0.113146    1.013766    0.293429    11.00000   -1.20000
N12   3    0.190112    0.770112    0.275586    11.00000    0.04378    0.02997 =
         0.02827   -0.00451   -0.00215   -0.00850
H12   2    0.208378    0.715809    0.352751    11.00000   -1.20000
C13   1    0.225477    0.699391    0.186545    11.00000    0.03462    0.03900 =
         0.02863   -0.00881   -0.00258   -0.00843
C14   1    0.195928    0.831652    0.097258    11.00000    0.04841    0.04947 =
         0.02825   -0.00377   -0.00514   -0.00919
AFIX  43
H14   2    0.209685    0.820435    0.025043    11.00000   -1.20000
AFIX   0
C15   1    0.142781    0.980313    0.138250    11.00000    0.05019    0.04087 =
         0.03838    0.00493   -0.00691   -0.00819
AFIX  43
H15   2    0.113581    1.089976    0.097839    11.00000   -1.20000
AFIX   0
N131  3    0.283765    0.528348    0.191334    11.00000    0.07809    0.03692 =
         0.03479   -0.01353   -0.00335   -0.00792
H131  2    0.293417    0.462138    0.254591    11.00000   -1.20000
H132  2    0.293140    0.493479    0.134244    11.00000   -1.20000
MOLE 2
C21   1    0.274606    0.382002    0.607211    11.00000    0.03263    0.03211 =
         0.02867   -0.00504   -0.00195   -0.00901
C22   1    0.328476    0.204109    0.627729    11.00000    0.03847    0.03271 =
         0.03319   -0.00998   -0.00037   -0.00782
AFIX  43
H22   2    0.351119    0.142429    0.571300    11.00000   -1.20000
AFIX   0
C23   1    0.347986    0.119978    0.733069    11.00000    0.03457    0.02759 =
         0.03947   -0.00269   -0.00119   -0.00558
C24   1    0.315273    0.205341    0.819722    11.00000    0.03523    0.03753 =
         0.02920    0.00007   -0.00260   -0.00824
AFIX  43
H24   2    0.330073    0.147089    0.890149    11.00000   -1.20000
AFIX   0
C25   1    0.259407    0.381825    0.796216    11.00000    0.03562    0.03747 =
         0.02931   -0.01060   -0.00138   -0.00857
C26   1    0.240352    0.472074    0.692491    11.00000    0.03836    0.02720 =
         0.03365   -0.00469   -0.00214   -0.00546
AFIX  43
H26   2    0.205190    0.591115    0.679940    11.00000   -1.20000
AFIX   0
C27   1    0.252011    0.475577    0.492306    11.00000    0.03719    0.03496 =
         0.02873   -0.00529   -0.00068   -0.00983
O21   4    0.233220    0.635918    0.477704    11.00000    0.06910    0.03204 =
         0.03018   -0.00162   -0.00382   -0.01297
O22   4    0.251129    0.391643    0.420354    11.00000    0.08125    0.04185 =
         0.02991   -0.00821   -0.00231   -0.01847
N23   3    0.408429   -0.068514    0.754556    11.00000    0.05462    0.03106 =
         0.05315   -0.00184    0.00275   -0.00805
O23   4    0.409323   -0.143964    0.679994    11.00000    0.14072    0.03453 =
         0.06549   -0.01531    0.00879   -0.00931
O24   4    0.452357   -0.139729    0.846324    11.00000    0.09829    0.04066 =
         0.06227    0.01444   -0.01724   -0.01273
N25   3    0.220896    0.476850    0.886471    11.00000    0.05433    0.04944 =
         0.03461   -0.01484    0.00167   -0.01273
O25   4    0.265199    0.396363    0.976222    11.00000    0.13237    0.07455 =
         0.03013   -0.01424   -0.01221   -0.00645
O26   4    0.147652    0.630244    0.868246    11.00000    0.09498    0.04607 =
         0.05475   -0.02426    0.00448   -0.01075
MOLE 3
O31   4    0.083715    1.121015    0.410123    11.00000    0.08250    0.04658 =
         0.05898   -0.02006   -0.00065   -0.01854
H31   2    0.140226    1.208305    0.409054    11.00000   -1.50000
H32   2   -0.016615    1.144413    0.439911    11.00000   -1.50000
HKLF 4
REM  h5cg
REM R1 =  0.0441 for    2093 Fo > 4sig(Fo)  and  0.0627 for all    2805 data
REM    217 parameters refined using      0 restraints
END
WGHT      0.0501      0.2176
REM Instructions for potential hydrogen bonds
HTAB N11 O31
HTAB N12 O21
HTAB N12 O22
EQIV $1 -x, -y+2, -z+1
HTAB C15 O26_$1
HTAB N131 O22
EQIV $2 x, y, z-1
HTAB N131 O25_$2
EQIV $3 x, y+1, z
HTAB O31 O22_$3
HTAB O31 O21_$1
REM Highest difference peak  0.214,  deepest hole -0.233,  1-sigma level  0.042
Q1    1   0.5304 -0.1241  0.6989  11.00000  0.05    0.21
Q2    1   0.2594  0.4236  0.5591  11.00000  0.05    0.19
Q3    1   0.3998  0.1626  0.7695  11.00000  0.05    0.16
Q4    1   0.2585  0.6908  0.4235  11.00000  0.05    0.13
Q5    1   0.3075  0.4210  0.6468  11.00000  0.05    0.13
Q6    1   0.1984  1.0408  0.4010  11.00000  0.05    0.13
Q7    1   0.1377  0.7565  0.1339  11.00000  0.05    0.13
Q8    1   0.1681  1.0368  0.4953  11.00000  0.05    0.13
Q9    1   0.3663  0.1671  0.6880  11.00000  0.05    0.12
Q10   1   0.1654  0.4591  0.3519  11.00000  0.05    0.12
Q11   1   0.2953  0.1577  0.6851  11.00000  0.05    0.12
Q12   1   0.5354 -0.1391  0.7953  11.00000  0.05    0.12
Q13   1   0.3272 -0.1288  0.7007  11.00000  0.05    0.12
Q14   1  -0.0004  0.7990  0.2824  11.00000  0.05    0.11
Q15   1   0.3233  0.2996  0.6176  11.00000  0.05    0.11
Q16   1   0.0918  0.5132  0.2226  11.00000  0.05    0.11
Q17   1  -0.0039  0.3453  0.9201  11.00000  0.05    0.11
Q18   1   0.1905 -0.0606  0.7032  11.00000  0.05    0.11
Q19   1   0.0983  0.8206  0.8407  11.00000  0.05    0.11
Q20   1   0.0379  0.7053  0.9273  11.00000  0.05    0.11
Q21   1   0.1638  0.4391  0.4450  11.00000  0.05    0.11
Q22   1   0.2150  0.4156  0.7484  11.00000  0.05    0.11
Q23   1   0.0626  1.1321  0.1394  11.00000  0.05    0.11
Q24   1   0.0623  0.8946  0.1208  11.00000  0.05    0.11
Q25   1   0.3430  0.4816  0.9618  11.00000  0.05    0.11
Q26   1   0.4738  0.4643  0.7753  11.00000  0.05    0.10
Q27   1   0.4085  0.5106  0.9202  11.00000  0.05    0.10
Q28   1  -0.0042  0.4732  0.6948  11.00000  0.05    0.10
Q29   1   0.3362  0.3079  0.8014  11.00000  0.05    0.10
Q30   1   0.1117  0.4282  0.1371  11.00000  0.05    0.10
;
_shelx_res_checksum              97849
_shelxl_version_number           2.014
loop_
_space_group_symop_operation_xyz
'x, y, z'
'-x, -y, -z'
loop_
_atom_site_type_symbol
_atom_site_label
_atom_site_fract_x
_atom_site_fract_y
_atom_site_fract_z
_atom_site_U_iso_or_equiv
_atom_site_adp_type
_atom_site_calc_flag
_atom_site_occupancy
_atom_site_disorder_assembly
_atom_site_disorder_group
N N11 0.1394(3) 0.94340(19) 0.24519(12) 0.0395(4) Uani d 1 . .
H H11 0.113(3) 1.014(3) 0.2934(17) 0.047 Uiso d 1 . .
N N12 0.1901(2) 0.77011(18) 0.27559(11) 0.0341(3) Uani d 1 . .
H H12 0.208(3) 0.716(2) 0.3528(16) 0.041 Uiso d 1 . .
C C13 0.2255(3) 0.6994(2) 0.18655(13) 0.0337(4) Uani d 1 . .
C C14 0.1959(3) 0.8317(2) 0.09726(14) 0.0427(4) Uani d 1 . .
H H14 0.2097 0.8204 0.0250 0.051 Uiso calc 1 . .
C C15 0.1428(3) 0.9803(2) 0.13825(15) 0.0449(5) Uani d 1 . .
H H15 0.1136 1.0900 0.0978 0.054 Uiso calc 1 . .
N N131 0.2838(3) 0.5283(2) 0.19133(15) 0.0499(5) Uani d 1 . .
H H131 0.293(4) 0.462(3) 0.255(2) 0.060 Uiso d 1 . .
H H132 0.293(4) 0.493(3) 0.134(2) 0.060 Uiso d 1 . .
C C21 0.2746(3) 0.3820(2) 0.60721(13) 0.0309(4) Uani d 1 . .
C C22 0.3285(3) 0.2041(2) 0.62773(14) 0.0344(4) Uani d 1 . .
H H22 0.3511 0.1424 0.5713 0.041 Uiso calc 1 . .
C C23 0.3480(3) 0.1200(2) 0.73307(14) 0.0346(4) Uani d 1 . .
C C24 0.3153(3) 0.2053(2) 0.81972(14) 0.0347(4) Uani d 1 . .
H H24 0.3301 0.1471 0.8901 0.042 Uiso calc 1 . .
C C25 0.2594(3) 0.3818(2) 0.79622(13) 0.0335(4) Uani d 1 . .
C C26 0.2404(3) 0.4721(2) 0.69249(13) 0.0335(4) Uani d 1 . .
H H26 0.2052 0.5911 0.6799 0.040 Uiso calc 1 . .
C C27 0.2520(3) 0.4756(2) 0.49231(13) 0.0335(4) Uani d 1 . .
O O21 0.2332(2) 0.63592(15) 0.47770(10) 0.0440(3) Uani d 1 . .
O O22 0.2511(2) 0.39164(17) 0.42035(10) 0.0500(4) Uani d 1 . .
N N23 0.4084(3) -0.0685(2) 0.75456(14) 0.0476(4) Uani d 1 . .
O O23 0.4093(4) -0.14396(19) 0.67999(14) 0.0821(6) Uani d 1 . .
O O24 0.4524(3) -0.13973(19) 0.84632(13) 0.0700(5) Uani d 1 . .
N N25 0.2209(3) 0.4769(2) 0.88647(12) 0.0452(4) Uani d 1 . .
O O25 0.2652(3) 0.3964(2) 0.97622(12) 0.0811(6) Uani d 1 . .
O O26 0.1477(3) 0.63024(19) 0.86825(12) 0.0647(5) Uani d 1 . .
O O31 0.0837(3) 1.1210(2) 0.41012(14) 0.0608(5) Uani d 1 . .
H H31 0.140(5) 1.208(4) 0.409(2) 0.091 Uiso d 1 . .
H H32 -0.017(5) 1.144(4) 0.440(3) 0.091 Uiso d 1 . .
loop_
_atom_site_aniso_label
_atom_site_aniso_U_11
_atom_site_aniso_U_22
_atom_site_aniso_U_33
_atom_site_aniso_U_12
_atom_site_aniso_U_13
_atom_site_aniso_U_23
N11 0.0506(10) 0.0299(8) 0.0369(8) -0.0063(7) -0.0022(7) -0.0071(6)
N12 0.0438(9) 0.0300(7) 0.0283(7) -0.0085(6) -0.0021(6) -0.0045(6)
C13 0.0346(9) 0.0390(9) 0.0286(8) -0.0084(7) -0.0026(7) -0.0088(7)
C14 0.0484(12) 0.0495(11) 0.0282(9) -0.0092(9) -0.0051(8) -0.0038(8)
C15 0.0502(12) 0.0409(11) 0.0384(10) -0.0082(9) -0.0069(8) 0.0049(8)
N131 0.0781(13) 0.0369(9) 0.0348(9) -0.0079(8) -0.0033(9) -0.0135(7)
C21 0.0326(9) 0.0321(9) 0.0287(8) -0.0090(7) -0.0019(7) -0.0050(6)
C22 0.0385(10) 0.0327(9) 0.0332(9) -0.0078(7) -0.0004(7) -0.0100(7)
C23 0.0346(10) 0.0276(8) 0.0395(9) -0.0056(7) -0.0012(7) -0.0027(7)
C24 0.0352(10) 0.0375(9) 0.0292(8) -0.0082(7) -0.0026(7) 0.0001(7)
C25 0.0356(10) 0.0375(9) 0.0293(8) -0.0086(7) -0.0014(7) -0.0106(7)
C26 0.0384(10) 0.0272(8) 0.0337(9) -0.0055(7) -0.0021(7) -0.0047(7)
C27 0.0372(10) 0.0350(9) 0.0287(8) -0.0098(7) -0.0007(7) -0.0053(7)
O21 0.0691(9) 0.0320(7) 0.0302(6) -0.0130(6) -0.0038(6) -0.0016(5)
O22 0.0813(11) 0.0418(7) 0.0299(7) -0.0185(7) -0.0023(6) -0.0082(6)
N23 0.0546(11) 0.0311(8) 0.0531(10) -0.0081(7) 0.0028(8) -0.0018(7)
O23 0.1407(18) 0.0345(8) 0.0655(11) -0.0093(9) 0.0088(11) -0.0153(8)
O24 0.0983(14) 0.0407(8) 0.0623(10) -0.0127(8) -0.0172(9) 0.0144(7)
N25 0.0543(11) 0.0494(10) 0.0346(8) -0.0127(8) 0.0017(7) -0.0148(7)
O25 0.1324(17) 0.0746(12) 0.0301(8) -0.0065(11) -0.0122(9) -0.0142(7)
O26 0.0950(13) 0.0461(9) 0.0547(9) -0.0108(8) 0.0045(8) -0.0243(7)
O31 0.0825(13) 0.0466(9) 0.0590(10) -0.0185(9) -0.0006(8) -0.0201(7)
loop_
_atom_type_symbol
_atom_type_description
_atom_type_scat_dispersion_real
_atom_type_scat_dispersion_imag
_atom_type_scat_source
C C 0.0033 0.0016 'International Tables Vol C Tables 4.2.6.8 and 6.1.1.4'
H H 0.0000 0.0000 'International Tables Vol C Tables 4.2.6.8 and 6.1.1.4'
N N 0.0061 0.0033 'International Tables Vol C Tables 4.2.6.8 and 6.1.1.4'
O O 0.0106 0.0060 'International Tables Vol C Tables 4.2.6.8 and 6.1.1.4'
loop_
_geom_angle_atom_site_label_1
_geom_angle_atom_site_label_2
_geom_angle_atom_site_label_3
_geom_angle_site_symmetry_1
_geom_angle_site_symmetry_3
_geom_angle
_geom_angle_publ_flag
C15 N11 N12 . . 108.82(15) ?
C15 N11 H11 . . 129.5(13) ?
N12 N11 H11 . . 121.7(13) ?
C13 N12 N11 . . 108.10(14) ?
C13 N12 H12 . . 130.2(11) ?
N11 N12 H12 . . 121.5(11) ?
N12 C13 N131 . . 121.65(16) ?
N12 C13 C14 . . 108.13(15) ?
N131 C13 C14 . . 130.21(17) ?
C15 C14 C13 . . 105.77(16) ?
C15 C14 H14 . . 127.1 ?
C13 C14 H14 . . 127.1 ?
N11 C15 C14 . . 109.19(16) ?
N11 C15 H15 . . 125.4 ?
C14 C15 H15 . . 125.4 ?
C13 N131 H131 . . 118.8(15) ?
C13 N131 H132 . . 116.5(17) ?
H131 N131 H132 . . 124(2) ?
C26 C21 C22 . . 119.64(15) ?
C26 C21 C27 . . 120.66(15) ?
C22 C21 C27 . . 119.70(15) ?
C23 C22 C21 . . 119.19(16) ?
C23 C22 H22 . . 120.4 ?
C21 C22 H22 . . 120.4 ?
C24 C23 C22 . . 122.72(15) ?
C24 C23 N23 . . 118.18(15) ?
C22 C23 N23 . . 119.10(16) ?
C23 C24 C25 . . 116.41(15) ?
C23 C24 H24 . . 121.8 ?
C25 C24 H24 . . 121.8 ?
C24 C25 C26 . . 123.17(15) ?
C24 C25 N25 . . 117.91(15) ?
C26 C25 N25 . . 118.91(15) ?
C25 C26 C21 . . 118.86(15) ?
C25 C26 H26 . . 120.6 ?
C21 C26 H26 . . 120.6 ?
O22 C27 O21 . . 125.03(16) ?
O22 C27 C21 . . 118.32(15) ?
O21 C27 C21 . . 116.64(14) ?
O23 N23 O24 . . 123.95(17) ?
O23 N23 C23 . . 117.99(17) ?
O24 N23 C23 . . 118.06(17) ?
O26 N25 O25 . . 123.56(17) ?
O26 N25 C25 . . 118.69(15) ?
O25 N25 C25 . . 117.74(16) ?
H31 O31 H32 . . 104(3) ?
loop_
_geom_bond_atom_site_label_1
_geom_bond_atom_site_label_2
_geom_bond_site_symmetry_2
_geom_bond_distance
_geom_bond_publ_flag
N11 C15 . 1.331(2) ?
N11 N12 . 1.362(2) ?
N11 H11 . 0.89(2) ?
N12 C13 . 1.338(2) ?
N12 H12 . 0.999(19) ?
C13 N131 . 1.348(2) ?
C13 C14 . 1.402(2) ?
C14 C15 . 1.365(3) ?
C14 H14 . 0.9300 ?
C15 H15 . 0.9300 ?
N131 H131 . 0.88(2) ?
N131 H132 . 0.82(3) ?
C21 C26 . 1.389(2) ?
C21 C22 . 1.390(2) ?
C21 C27 . 1.513(2) ?
C22 C23 . 1.383(2) ?
C22 H22 . 0.9300 ?
C23 C24 . 1.380(2) ?
C23 N23 . 1.473(2) ?
C24 C25 . 1.380(2) ?
C24 H24 . 0.9300 ?
C25 C26 . 1.381(2) ?
C25 N25 . 1.468(2) ?
C26 H26 . 0.9300 ?
C27 O22 . 1.238(2) ?
C27 O21 . 1.267(2) ?
N23 O23 . 1.217(2) ?
N23 O24 . 1.222(2) ?
N25 O26 . 1.214(2) ?
N25 O25 . 1.221(2) ?
O31 H31 . 0.89(3) ?
O31 H32 . 0.74(3) ?
loop_
_geom_hbond_atom_site_label_D
_geom_hbond_atom_site_label_H
_geom_hbond_atom_site_label_A
_geom_hbond_site_symmetry_A
_geom_hbond_distance_DH
_geom_hbond_distance_HA
_geom_hbond_distance_DA
_geom_hbond_angle_DHA
_geom_hbond_publ_flag
O31 H31 O22 1_565 0.88(3) 1.87(3) 2.746(2) 175(3) no
O31 H32 O21 2_576 0.75(4) 2.36(3) 2.989(2) 143(3) no
N131 H131 O22 . 0.88(2) 2.08(2) 2.920(2) 159(2) no
N131 H132 O25 1_554 0.82(2) 2.31(3) 3.128(2) 171(3) no
N11 H11 O31 . 0.89(2) 1.83(2) 2.707(2) 169(2) no
N12 H12 O21 . 1.00(2) 1.60(2) 2.5981(19) 177.9(18) no
N12 H12 O22 . 1.00(2) 2.586(17) 3.244(2) 123.3(13) no
loop_
_geom_torsion_atom_site_label_1
_geom_torsion_atom_site_label_2
_geom_torsion_atom_site_label_3
_geom_torsion_atom_site_label_4
_geom_torsion_site_symmetry_1
_geom_torsion_site_symmetry_2
_geom_torsion_site_symmetry_3
_geom_torsion_site_symmetry_4
_geom_torsion
_geom_torsion_publ_flag
C15 N11 N12 C13 . . . . 0.1(2) ?
N11 N12 C13 N131 . . . . 178.47(17) ?
N11 N12 C13 C14 . . . . -0.1(2) ?
N12 C13 C14 C15 . . . . 0.1(2) ?
N131 C13 C14 C15 . . . . -178.3(2) ?
N12 N11 C15 C14 . . . . 0.0(2) ?
C13 C14 C15 N11 . . . . 0.0(2) ?
C26 C21 C22 C23 . . . . -0.3(3) ?
C27 C21 C22 C23 . . . . -179.78(16) ?
C21 C22 C23 C24 . . . . 0.3(3) ?
C21 C22 C23 N23 . . . . -179.00(16) ?
C22 C23 C24 C25 . . . . 0.5(3) ?
N23 C23 C24 C25 . . . . 179.83(15) ?
C23 C24 C25 C26 . . . . -1.4(3) ?
C23 C24 C25 N25 . . . . 179.28(16) ?
C24 C25 C26 C21 . . . . 1.4(3) ?
N25 C25 C26 C21 . . . . -179.30(15) ?
C22 C21 C26 C25 . . . . -0.5(3) ?
C27 C21 C26 C25 . . . . 178.99(15) ?
C26 C21 C27 O22 . . . . -168.58(17) ?
C22 C21 C27 O22 . . . . 10.9(3) ?
C26 C21 C27 O21 . . . . 10.7(2) ?
C22 C21 C27 O21 . . . . -169.82(16) ?
C24 C23 N23 O23 . . . . 170.02(19) ?
C22 C23 N23 O23 . . . . -10.7(3) ?
C24 C23 N23 O24 . . . . -9.2(3) ?
C22 C23 N23 O24 . . . . 170.15(18) ?
C24 C25 N25 O26 . . . . -171.16(18) ?
C26 C25 N25 O26 . . . . 9.5(3) ?
C24 C25 N25 O25 . . . . 9.0(3) ?
C26 C25 N25 O25 . . . . -170.37(19) ?

_cod_database_fobs_code 2243700
