#------------------------------------------------------------------------------
#$Date: 2021-05-15 07:50:02 +0300 (Sat, 15 May 2021) $
#$Revision: 265246 $
#$URL: file:///home/coder/svn-repositories/cod/cif/2/24/38/2243832.cif $
#------------------------------------------------------------------------------
#
# This file is available in the Crystallography Open Database (COD),
# http://www.crystallography.net/. The original data for this entry
# were provided by IUCr Journals, http://journals.iucr.org/.
#
# The file may be used within the scientific community so long as
# proper attribution is given to the journal article from which the
# data were obtained.
#
data_2243832
loop_
_publ_author_name
'Behrman, Edward J.'
'Parkin, Sean'
_publ_section_title
;
 Synthesis and crystal structures of 3,6-dihydroxypicolinic acid and its
 labile intermediate dipotassium
 3-hydroxy-6-(sulfonatooxy)pyridine-2-carboxylate monohydrate
;
_journal_coeditor_code           HB7975
_journal_issue                   6
_journal_name_full               'Acta Crystallographica Section E'
_journal_page_first              623
_journal_page_last               628
_journal_paper_doi               10.1107/S2056989021004904
_journal_volume                  77
_journal_year                    2021
_chemical_formula_iupac          'C6 H5 N O4'
_chemical_formula_moiety         'C6 H5 N O4'
_chemical_formula_sum            'C6 H5 N O4'
_chemical_formula_weight         155.11
_chemical_name_common
;
3,6-Dihydroxypicolinic acid
;
_chemical_name_systematic
;
3-Hydroxy-6-oxo-1,6-dihydropyridine-2-carboxylic acid
;
_space_group_crystal_system      orthorhombic
_space_group_IT_number           39
_space_group_name_Hall           'A 2 -2b'
_space_group_name_H-M_alt        'A e m 2'
_atom_sites_solution_hydrogens   difmap
_atom_sites_solution_primary     direct
_atom_sites_solution_secondary   difmap
_audit_creation_method           SHELXL-2018/3
_cell_angle_alpha                90
_cell_angle_beta                 90
_cell_angle_gamma                90
_cell_formula_units_Z            4
_cell_length_a                   10.2045(6)
_cell_length_b                   6.1282(4)
_cell_length_c                   9.7293(6)
_cell_measurement_reflns_used    3820
_cell_measurement_temperature    90.0(2)
_cell_measurement_theta_max      78.48
_cell_measurement_theta_min      4.33
_cell_volume                     608.42(7)
_computing_cell_refinement
;
<i>APEX3</i> (Bruker, 2016)
;
_computing_data_collection
;
<i>APEX3</i> (Bruker, 2016)
;
_computing_data_reduction
;
<i>APEX3</i> (Bruker, 2016)
;
_computing_molecular_graphics
;
<i>XP</i> in <i>SHELXTL</i> (Sheldrick, 2008)
;
_computing_publication_material
;
<i>SHELX</i> (Sheldrick, 2008) and <i>CIFFIX</i> (Parkin, 2013)
;
_computing_structure_refinement
;
<i>SHELXL2018/3</i> (Sheldrick, 2015b)
;
_computing_structure_solution
;
<i>SHELXT</i> (Sheldrick, 2015a)
;
_diffrn_ambient_temperature      90.0(2)
_diffrn_detector_area_resol_mean 7.41
_diffrn_measured_fraction_theta_full 0.994
_diffrn_measured_fraction_theta_max 0.989
_diffrn_measurement_device_type  'Bruker D8 Venture dual source'
_diffrn_measurement_method       '\f and \w scans'
_diffrn_radiation_type           CuK\a
_diffrn_radiation_wavelength     1.54178
_diffrn_reflns_av_R_equivalents  0.0246
_diffrn_reflns_av_unetI/netI     0.0201
_diffrn_reflns_limit_h_max       12
_diffrn_reflns_limit_h_min       -11
_diffrn_reflns_limit_k_max       7
_diffrn_reflns_limit_k_min       -7
_diffrn_reflns_limit_l_max       12
_diffrn_reflns_limit_l_min       -11
_diffrn_reflns_number            4025
_diffrn_reflns_theta_full        67.679
_diffrn_reflns_theta_max         77.820
_diffrn_reflns_theta_min         4.332
_diffrn_source                   microsource
_exptl_absorpt_coefficient_mu    1.270
_exptl_absorpt_correction_T_max  0.971
_exptl_absorpt_correction_T_min  0.799
_exptl_absorpt_correction_type   multi-scan
_exptl_absorpt_process_details
;
(<i>SADABS</i>; Krause <i>et al.</i>,  2015)
;
_exptl_crystal_colour            colourless
_exptl_crystal_density_diffrn    1.693
_exptl_crystal_description       plate
_exptl_crystal_F_000             320
_exptl_crystal_size_max          0.140
_exptl_crystal_size_mid          0.100
_exptl_crystal_size_min          0.020
_refine_diff_density_max         0.202
_refine_diff_density_min         -0.251
_refine_ls_abs_structure_details
;
Refined as a perfect inversion twin
;
_refine_ls_abs_structure_Flack   0.5
_refine_ls_extinction_method     none
_refine_ls_goodness_of_fit_ref   1.109
_refine_ls_hydrogen_treatment    mixed
_refine_ls_matrix_type           full
_refine_ls_number_parameters     74
_refine_ls_number_reflns         700
_refine_ls_number_restraints     4
_refine_ls_restrained_S_all      1.105
_refine_ls_R_factor_all          0.0246
_refine_ls_R_factor_gt           0.0243
_refine_ls_shift/su_max          0.024
_refine_ls_shift/su_mean         0.003
_refine_ls_structure_factor_coef Fsqd
_refine_ls_weighting_details
'w=1/[\s^2^(Fo^2^)+(0.0500P)^2^+0.0512P] where P=(Fo^2^+2Fc^2^)/3'
_refine_ls_weighting_scheme      calc
_refine_ls_wR_factor_gt          0.0669
_refine_ls_wR_factor_ref         0.0675
_reflns_number_gt                690
_reflns_number_total             700
_reflns_threshold_expression     'I > 2\s(I)'
_cod_data_source_file            hb7975sup1.cif
_cod_data_source_block           II
_cod_original_sg_symbol_Hall     'A 2 -2c'
_cod_original_sg_symbol_H-M      'A b m 2'
_cod_database_code               2243832
_shelx_space_group_comment
;
The symmetry employed for this shelxl refinement is uniquely defined
by the following loop, which should always be used as a source of
symmetry information in preference to the above space-group names.
They are only intended as comments.
;
_shelx_estimated_absorpt_t_min   0.842
_shelx_estimated_absorpt_t_max   0.975
_shelx_hkl_file
;
   2   0   0 1368.44 44.8697   1
  -2   0   0 1344.44 44.1667   1
   4   0   0 635.518 19.3463   4
   4   0   0 606.671 19.9500  10
  -4   0   0 676.825 21.0432   4
  -6   0   0 1874.75 61.2252  16
  -6   0   0 1994.08 59.7502   4
   6   0   0 1812.45 58.3491  16
   6   0   0 1872.78 57.1852   4
   6   0   0 1873.53 57.8151  10
  -8   0   0 193.498 8.06690   3
  -8   0   0 193.546 6.81748   4
  -8   0   0 197.538 7.81069   7
   8   0   0 188.814 8.02361   3
  -8   0   0 204.985 8.78860  16
   8   0   0 186.290 7.58268  10
   8   0   0 204.900 8.32296  16
  10   0   0 55.2102 3.56009  16
 -10   0   0 55.3966 3.19532   7
 -10   0   0 55.6875 4.03663  16
  10   0   0 55.3906 3.49587   3
 -10   0   0 55.9279 3.35070   3
  12   0   0 3.21270 0.83527   3
   1   1   0 0.39650 0.24222   4
   1  -1   0 0.09341 0.23883  10
   1  -1   0 0.17248 0.18231   4
  -1  -1   0 0.17910 0.17318   4
  -1  -1   0 0.05630 0.20662  10
  -1   1   0 0.20065 0.20825   4
   3  -1   0 0.07380 0.40385  10
   3   1   0 -0.3814 0.37033  10
   3  -1   0 -0.1894 0.32114   4
  -3   1   0 -0.0348 0.30980   4
   3   1   0 0.57617 0.43109   4
  -3  -1   0 -0.2478 0.24634   4
   5   1   0 1.35414 0.89625  16
   5   1   0 -0.0320 0.40599  10
  -5  -1   0 0.34176 0.36318   4
   5   1   0 -0.0757 0.52035   4
  -5   1   0 1.33570 0.46001   4
   5  -1   0 0.03408 0.38841   4
   5  -1   0 -0.0376 0.49057  10
   5  -1   0 -0.2172 0.70714  16
  -5   1   0 1.02572 0.94857  16
   7  -1   0 0.09630 0.79618  16
  -7  -1   0 -1.1271 0.48299   4
   7  -1   0 0.83553 0.91285  10
  -7  -1   0 -1.4302 1.00101   7
   7   1   0 -0.2148 0.54739   4
   7   1   0 0.43602 0.66554  10
  -7   1   0 1.21657 1.19418   7
  -7   1   0 -0.0841 1.09419  16
   7  -1   0 3.01565 1.38377   3
   7   1   0 0.54425 0.92275  16
   9  -1   0 -0.4611 1.13883   3
  -9   1   0 1.05628 1.22242   3
  -9  -1   0 -0.8618 0.91757   7
   9   1   0 0.38381 0.98539  16
  -9   1   0 1.12887 1.83337  16
  -9  -1   0 1.88235 1.63068  16
   9  -1   0 0.14931 0.86639  16
  -9   1   0 0.64733 1.33110   7
  -9  -1   0 0.65088 1.32079   3
 -11   1   0 -0.8448 0.60818   7
  11  -1   0 -0.5989 0.83630   3
 -11  -1   0 0.37188 0.75211   3
  11   1   0 0.74753 0.85705   3
 -11  -1   0 -0.0379 0.73628   7
  11   1   0 0.20789 0.80460  16
 -11  -1   0 -0.9103 1.04718  16
  -2   2   0 794.158 25.0632   4
   2  -2   0 783.054 25.0027  10
  -2  -2   0 802.180 24.1464   4
   2   2   0 794.327 24.1086   4
  -2  -2   0 782.055 24.3933  10
   4  -2   0 376.847 12.6137  10
  -4  -2   0 390.435 12.6382  10
   4   2   0 387.744 12.1177   4
  -4  -2   0 389.538 12.2931   4
  -4   2   0 408.536 12.8084   4
  -6  -2   0 1301.03 40.3050  10
  -6   2   0 1308.82 40.5020   4
   6   2   0 1287.00 38.9724   4
   6  -2   0 1207.25 39.8214  10
  -6  -2   0 1260.90 39.6631   4
   6   2   0 1261.47 40.5267  16
   8   2   0 168.639 7.54832  16
  -8  -2   0 186.301 8.28234  16
   8   2   0 153.504 5.81909   4
  -8   2   0 171.719 8.11409  16
  10  -2   0 48.3608 2.95488   3
 -10   2   0 50.7620 3.56062  16
  10   2   0 54.9269 3.85918  16
 -10   2   0 50.9851 2.88839   7
 -10  -2   0 54.0058 4.07253  16
  10   2   0 42.3797 3.02210   3
 -10  -2   0 48.8650 3.11573   3
   1  -3   0 0.16791 0.44436  10
  -1  -3   0 0.38752 0.32740  10
  -1   3   0 0.32507 0.34989   4
   1   3   0 0.06810 0.39712   4
  -3  -3   0 0.56477 0.46263  10
  -3   3   0 -0.0449 0.45347   4
   3  -3   0 -1.1125 0.57698  10
   3   3   0 0.43136 0.47929   4
   5   3   0 -0.8414 1.10477  16
  -5   3   0 1.48195 0.66943   4
  -5  -3   0 1.64415 0.74933  10
   5   3   0 0.20577 0.64968   4
  -7  -3   0 -0.2585 1.25587   7
   7  -3   0 3.22855 1.23461   6
  -7   3   0 2.58218 1.12846   4
  -7   3   0 6.01519 1.95975  16
   7   3   0 0.57433 0.75063   4
   7   3   0 7.18761 2.25693  16
   7   3   0 1.65751 1.73696   3
   9  -3   0 0.08332 0.94113   3
  -9   3   0 0.90809 0.96009   7
   9   3   0 -1.3569 1.02521  16
  -9   3   0 0.62832 1.58907  16
  -9  -3   0 -0.5801 0.98460   3
  -9  -3   0 0.54412 1.23389  16
   9   3   0 0.81518 1.26659   3
  11  -3   0 0.38055 0.48732  13
  11  -3   0 0.15950 0.45440   3
 -11   3   0 -0.3397 0.56509   7
 -11  -3   0 -0.5933 0.52183   3
   0   4   0 9999.99 306.422   4
   2   4   0 217.154 7.46049   4
  -2   4   0 216.749 7.37522   4
   4  -4   0 160.945 7.72384  12
   4   4   0 138.480 5.26227   4
   4   4   0 133.430 6.70834  16
  -4  -4   0 155.338 6.71049   6
  -4  -4   0 142.705 7.20546  12
   4  -4   0 135.797 5.59320  13
  -4   4   0 163.916 6.15964   4
   4  -4   0 147.008 9.76326  14
   6  -4   0 453.854 16.1425  15
   6  -4   0 479.586 16.3223   3
  -6   4   0 525.279 17.3651   7
   6   4   0 510.819 17.6664  16
  -6  -4   0 514.488 17.4942   3
  -6  -4   0 479.435 18.1185  12
  -8  -4   0 106.265 5.21589  16
  -8   4   0 113.512 4.83178   7
  -8  -4   0 111.149 5.46320  11
   8  -4   0 105.673 4.43026   3
  -8  -4   0 102.805 4.88919   3
   8  -4   0 102.248 5.24265  12
  10  -4   0 37.5929 1.91044  13
  10  -4   0 39.5225 1.72757   3
  10  -4   0 41.5508 2.23369  12
  -1   5   0 -0.0278 0.78221   4
   1   5   0 0.93628 0.96858   7
  -1  -5   0 0.80442 1.95864  14
  -1   5   0 -0.2316 1.17971   7
  -1  -5   0 -0.0144 1.36223  13
   1   5   0 0.30250 0.76434   4
   1  -5   0 1.30478 0.83801   6
   1  -5   0 0.22513 1.19132  15
  -1  -5   0 -1.5422 1.15113   3
  -1  -5   0 -0.6946 0.99943   6
   1  -5   0 0.40665 1.86126  14
   1  -5   0 -0.5772 0.87572   3
   1  -5   0 0.27119 0.89584  13
  -1  -5   0 0.16545 1.16263   5
   1  -5   0 1.53791 0.93554   5
   3  -5   0 0.67241 0.99890   6
  -3  -5   0 0.12792 1.73549  14
   3   5   0 -0.2833 1.09052   4
   3  -5   0 0.05569 1.67420  15
   3  -5   0 -0.6557 1.53251  14
   3  -5   0 1.40436 1.02913  13
   5  -5   0 -0.1645 1.42693  14
   5  -5   0 0.77383 0.83061   3
  -5   5   0 0.39183 0.98229   7
   5  -5   0 -0.5727 0.93898  15
   5  -5   0 0.66465 0.73881  13
  -5  -5   0 0.96328 1.00493   3
  -7   5   0 -0.4658 0.74908   7
   7  -5   0 -0.3841 0.71815   3
  -7  -5   0 0.00233 0.90983  16
  -7  -5   0 1.37780 1.00014  11
   7  -5   0 0.04749 1.11948  13
   9  -5   0 -0.0081 0.52827   5
  -9   5   0 0.36368 0.46978   7
  -9  -5   0 0.86570 0.54941   3
   0  -6   0 2767.86 87.3292   5
   0   6   0 2777.78 87.1294   7
   0  -6   0 2748.63 85.6562   3
   0  -6   0 2754.28 87.1123   6
   0  -6   0 2830.06 90.7745  14
   2  -6   0 40.7119 2.33147   6
   2  -6   0 46.6540 3.09341  12
  -2  -6   0 47.0192 2.49055   5
   4  -6   0 65.2074 3.02017   3
  -4  -6   0 70.6358 3.40179   3
   4  -6   0 63.3173 3.25300   5
   4  -6   0 63.1252 5.36059  14
  -4   6   0 68.9556 3.54675   7
   4  -6   0 66.0194 3.80742  12
  -6  -6   0 168.655 7.08513  11
  -6   6   0 184.406 6.58021   7
   6  -6   0 173.879 6.19545   5
   6  -6   0 167.580 6.21754  12
  -6  -6   0 187.121 6.35894   3
   1  -7   0 0.50568 0.65283   5
  -1  -7   0 1.04783 0.95553  11
  -1   7   0 0.16812 0.64576   7
  -3  -7   0 -0.5957 0.89040  11
   3  -7   0 0.16766 0.71353   5
   5  -7   0 -0.9072 0.56960   5
  -5  -7   0 0.54105 0.47555  11
   0   0  -1 1444.30 44.0326   1
   0   0   1 1387.55 43.9646   1
  -2   0   1 715.042 21.7462   4
   2   0  -1 702.768 21.8808  10
   2   0   1 731.135 22.2110   4
   2   0   1 714.674 22.3860  10
  -2   0  -1 714.817 22.2943   4
  -4   0  -1 145.081 4.86574   4
  -4   0   1 146.073 4.76374   4
   4   0  -1 134.130 4.49299   4
   4   0  -1 132.591 4.71393  10
   4   0   1 133.257 4.74427  10
   4   0   1 135.834 4.42247   4
   6   0   1 394.981 12.5565   4
   6   0  -1 386.719 13.7968  16
  -6   0   1 438.408 13.4986   4
  -6   0  -1 432.634 13.6941   4
   6   0  -1 404.906 12.7285   4
   6   0   1 387.282 14.0754  16
   6   0  -1 401.028 13.2370  10
   6   0   1 404.741 13.2732  10
  -6   0   1 401.976 14.8643  16
  -8   0  -1 27.8631 2.52770   7
   8   0  -1 23.7118 2.30190  10
  -8   0   1 25.9295 2.28577   7
   8   0  -1 27.6110 1.67189   4
  -8   0   1 25.2801 1.54884   4
   8   0   1 27.7631 2.59417   3
  -8   0   1 25.3641 2.50349   3
   8   0   1 26.5004 2.62250  16
  -8   0  -1 26.2351 3.17595   3
   8   0  -1 26.2882 2.62261  16
  -8   0  -1 28.6482 2.98947  16
   8   0  -1 27.9853 2.58057   3
  -8   0   1 27.5172 2.97984  16
  -8   0  -1 27.9402 1.66461   4
 -10   0   1 118.230 4.97288   7
  10   0  -1 107.079 5.23914   3
  10   0   1 114.776 5.39131   3
 -10   0   1 118.834 5.15759   3
 -10   0  -1 108.212 5.27519   3
 -10   0  -1 118.147 5.22032   7
  10   0   1 122.971 5.34959  16
  10   0  -1 114.093 5.57192  16
 -10   0   1 119.356 5.87416  16
 -10   0  -1 113.536 6.07548  16
  12   0   1 36.4343 1.76565   3
  12   0  -1 35.3498 1.79607   3
   1  -1   1 2359.77 72.3766  10
   3   1  -1 324.647 9.91067   4
   3   1  -1 330.029 10.1131  10
   3  -1   1 328.814 10.4742  10
  -3   1  -1 335.200 10.7375   4
   3  -1  -1 326.891 10.1846  10
   3   1   1 282.019 10.7495   4
  -3  -1   1 333.544 10.1625   4
  -5   1   1 2039.75 67.9837  16
   5   1  -1 1982.92 67.5601  16
  -5  -1  -1 2209.51 66.3805   4
  -5   1   1 2203.19 66.8838   4
   5   1  -1 2124.69 64.0741   4
   5  -1   1 2102.52 65.9090  10
   5   1  -1 2150.85 64.4775  10
   5  -1   1 2071.30 66.3080  16
   5   1   1 1998.16 65.2642  16
   5  -1  -1 2057.34 65.3595  16
  -5   1  -1 2216.46 68.0567   4
   5  -1  -1 2175.55 64.4665   4
   5   1   1 2161.17 64.0219   4
  -5  -1   1 2190.38 66.2006   4
   5  -1  -1 2101.15 64.9338  10
   5   1   1 2138.83 64.4667  10
  -7   1   1 478.662 16.6180   7
   7  -1   1 449.759 15.7182  10
  -7  -1  -1 493.017 16.9000   7
   7   1  -1 463.074 15.5551  10
   7  -1   1 474.093 16.0190  16
   7  -1   1 495.432 16.5112   3
  -7   1   1 482.215 17.0960  16
   7   1  -1 469.161 16.4520  16
   7  -1   1 449.382 15.9611   8
   7  -1  -1 438.163 16.1881   3
   7   1   1 449.216 14.7683   4
  -7  -1   1 485.069 17.1423  16
  -7   1  -1 499.421 16.9127   7
  -7   1  -1 460.587 17.1283  16
   7  -1  -1 452.576 14.6045   4
   7  -1  -1 450.847 15.7981  10
   7  -1  -1 463.711 16.0766  16
   7   1   1 492.421 17.0149   3
  -7  -1   1 459.388 16.4431   3
   7   1   1 476.092 16.4131  16
  -7  -1   1 466.101 14.9817   4
  -9  -1  -1 896.325 28.6382   7
  -9  -1  -1 885.673 29.0240   3
  -9  -1  -1 773.793 30.6457  16
  -9   1   1 886.182 30.9376  16
   9  -1   1 897.094 28.0503  16
  -9   1   1 886.614 28.5181   7
   9   1  -1 726.750 28.8435  16
   9   1  -1 833.419 28.0148   3
   9  -1   1 865.973 27.9848   3
  -9   1   1 867.397 28.6528   3
  -9  -1   1 851.975 28.1477   7
   9   1   1 868.375 28.4923  16
   9   1   1 854.058 28.2105   3
   9  -1  -1 857.907 28.0323   3
  -9  -1   1 889.571 28.8174   3
  -9  -1   1 902.428 29.7160  16
  -9   1  -1 889.123 28.7700   7
  11   1  -1 14.7952 1.68248   3
  11  -1   1 19.6324 1.62172   3
 -11  -1  -1 16.2191 1.64178   3
  11  -1   1 14.4609 2.11543   6
 -11  -1  -1 15.3674 1.39070   7
  11   1  -1 15.1397 2.02537  16
 -11   1   1 16.3297 1.60562   3
 -11   1   1 16.1601 1.49992   7
  11   1   1 14.9924 1.72205   3
  11  -1  -1 14.3993 1.66395   3
  11   1   1 14.5924 1.58694  16
 -11   1  -1 17.2842 1.67293   7
 -11  -1   1 17.5163 1.58734   3
 -11  -1   1 16.7892 1.87223  16
   0   2  -1 785.025 24.4888   4
   0  -2  -1 795.971 23.9780   4
   0  -2  -1 785.666 24.6850  10
   0  -2   1 780.118 24.5456  10
   0   2   1 790.896 24.0577   4
  -2   2   1 377.504 11.8791   4
  -2  -2  -1 379.309 12.0979  10
   2  -2   1 384.143 12.5721  10
  -2  -2  -1 380.986 11.4896   4
   2   2  -1 379.604 11.7790   4
   2   2   1 377.688 11.7669   4
  -2   2  -1 373.134 12.0968   4
   2  -2  -1 379.089 12.1239  10
   4   2  -1 89.6947 3.29818   4
  -4  -2  -1 90.9025 3.15200   4
   4   2  -1 90.0849 3.51677  10
  -4   2   1 94.4187 3.35552   4
  -4  -2  -1 89.7471 3.42898  10
   4  -2   1 85.7000 3.47181  10
  -4   2   1 88.9468 4.25711  16
   4   2   1 90.8436 3.25880   4
  -4   2  -1 92.3849 3.34230   4
   4  -2  -1 89.5942 3.15745   4
   4  -2  -1 89.1790 3.62071  10
  -4  -2   1 89.7394 3.38063  10
  -6   2   1 296.675 9.51588   4
  -6  -2  -1 287.724 9.74592  10
  -6  -2  -1 282.291 9.22236   4
   6   2  -1 276.818 9.12157   4
   6   2  -1 248.141 10.8961  16
  -6   2   1 291.809 10.9984  16
   6   2   1 280.542 9.00051   4
  -6   2  -1 292.064 9.64326   4
   6   2   1 273.881 10.4791  16
   6  -2  -1 272.837 9.64919  10
  -6   2  -1 264.404 10.8887  16
  -6  -2   1 283.403 9.61316  10
  -8  -2  -1 23.6625 3.01344   3
   8  -2   1 24.9447 2.51609   3
   8   2  -1 21.8908 2.56312  16
  -8  -2  -1 21.4405 2.03195  10
  -8   2   1 23.3877 2.36198   7
  -8   2   1 22.0115 2.67546  16
  -8  -2  -1 15.7570 2.93549   7
  -8   2  -1 24.6203 2.53670   7
  -8   2  -1 20.2926 2.90389  16
   8  -2  -1 24.1148 2.65420   3
   8   2   1 20.0469 2.56517  16
  -8  -2   1 22.0744 2.88623  16
  -8  -2   1 24.7702 2.56057   3
   8   2   1 22.1450 2.74974   3
  10  -2   1 96.5281 4.26300   3
 -10  -2  -1 93.5317 4.11997   7
  10  -2   1 88.3038 4.05518   6
 -10   2   1 97.8248 4.31458   7
 -10  -2  -1 96.9259 4.53236   3
  10   2  -1 90.6008 4.78467  16
 -10   2   1 98.8905 4.94257  16
  10   2   1 93.3499 4.57012   3
 -10   2  -1 91.3972 5.30722  16
 -10   2  -1 95.9975 4.38559   7
  10  -2  -1 96.7283 4.41085   3
 -10  -2   1 98.2247 4.42211   3
  -1  -3  -1 894.053 29.3331  10
  -1   3   1 967.547 28.5211   4
   1  -3   1 886.606 29.0439  10
  -1  -3   1 876.006 28.7349  10
   1  -3  -1 933.953 28.9518  10
   1   3   1 954.774 28.5750   4
  -1   3  -1 942.931 28.7890   4
  -3  -3  -1 107.259 3.97334  10
  -3   3   1 105.094 5.14771  16
  -3  -3  -1 111.173 3.53326   4
   3   3  -1 110.313 3.92630   4
  -3  -3   1 101.867 3.82191  10
   3   3   1 106.731 3.91875   4
   3   3   1 101.448 4.84523  16
  -3   3  -1 106.485 3.86749   4
   3  -3  -1 103.240 4.16159  10
   5   3  -1 973.343 30.1646   4
  -5   3   1 991.186 30.9676   4
   5   3  -1 925.707 32.0807  16
  -5  -3  -1 985.715 30.8227  10
  -5   3   1 968.914 32.3371  16
  -5   3  -1 998.728 31.3298   4
   5   3   1 958.239 31.6825  16
   5  -3  -1 977.900 31.7919  10
   5   3   1 969.968 30.0200   4
   7  -3   1 251.619 9.60944  15
  -7   3   1 259.532 9.15870   4
   7   3  -1 238.257 8.62424   4
   7   3  -1 247.814 10.1734  16
   7  -3   1 248.454 9.57028   6
  -7   3   1 258.107 10.5870  16
  -7   3  -1 256.755 9.29502   4
   7   3   1 236.504 8.50420   4
   7   3   1 264.756 10.3727  16
  -7  -3   1 291.336 11.9104  11
  -9  -3  -1 601.032 20.1732   7
   9  -3   1 574.225 19.1519   6
   9  -3   1 610.531 19.3590   3
  -9  -3  -1 646.970 21.5321  16
  -9   3   1 648.361 20.5828   7
  -9  -3  -1 591.325 20.9425   3
   9   3   1 605.263 20.3900  16
   9  -3  -1 589.319 19.8378   3
   9   3   1 574.793 19.8943   3
  -9   3  -1 637.184 20.7000   7
  -9  -3   1 601.110 20.6508   3
  -9  -3   1 620.585 20.8633  16
  11  -3   1 7.91848 0.79109  13
 -11   3   1 8.51510 0.98801   7
  11  -3   1 7.40746 1.07170  12
 -11  -3  -1 7.78547 0.99754   3
  11  -3  -1 6.87636 0.94798   3
 -11  -3   1 8.11188 0.96120   3
  11  -3  -1 7.58060 0.91858  12
 -11   3  -1 9.06253 1.09800   7
   0   4   1 210.691 8.43297  16
   0  -4  -1 210.454 7.48692  10
   0   4   1 215.524 7.23160   4
  -2   4   1 119.752 4.31447   4
   2   4  -1 120.403 4.36256   4
  -2   4   1 109.988 5.29830  16
  -2  -4  -1 113.829 4.53804  10
   2   4   1 114.290 4.33325   4
  -2   4  -1 116.499 4.25132   4
   2   4   1 112.749 5.54162  16
  -4  -4  -1 30.7796 2.48135   6
  -4  -4  -1 28.3386 2.58465   3
   4  -4   1 29.9588 2.81330   6
   4  -4   1 30.6452 2.54008  15
   4   4  -1 31.6800 1.96744   4
  -4   4   1 33.6010 1.91616   4
  -4   4   1 32.9700 2.82779  16
   4  -4  -1 30.0849 3.38435  12
   4   4   1 32.2185 1.90725   4
  -4   4  -1 34.4722 2.70995   7
  -4  -4   1 35.6304 2.45826   6
   4  -4  -1 31.6839 3.09421  15
   4  -4  -1 31.3241 2.33482   3
   4   4   1 32.2934 2.95281  16
  -4  -4   1 33.5836 2.73769   3
  -4  -4   1 36.5493 5.68621  14
   6  -4   1 114.913 8.36616  14
  -6   4   1 122.289 5.36739   7
   6  -4   1 109.914 4.75429   6
  -6  -4  -1 122.706 5.71655   3
   6  -4   1 111.016 4.95773  15
  -6   4   1 123.093 6.12996  16
   6  -4   1 116.551 4.86739   3
   6  -4  -1 118.693 4.91274  15
  -6  -4   1 122.562 5.60346   3
  -6  -4   1 112.816 6.32647  12
   6  -4  -1 114.344 5.11533   3
  -6   4  -1 120.972 5.31537   7
   6   4   1 120.201 6.06073  16
  -8  -4  -1 13.4974 1.90366   3
   8  -4   1 15.5335 2.23670  12
   8  -4   1 10.9370 1.41166  13
  -8   4   1 10.0224 2.67145  16
   8   4  -1 14.4391 2.62228  16
   8  -4   1 9.61190 1.54186  15
  -8   4   1 13.6841 1.72640   7
  -8  -4  -1 9.69657 2.39625  11
   8  -4   1 13.6379 1.49132   3
  -8  -4   1 11.1465 2.05992  11
  -8  -4   1 15.9924 1.99512   3
  -8  -4   1 10.7166 1.88920  16
  -8   4  -1 15.5777 1.95724   7
   8  -4  -1 12.6277 1.70559   3
   8   4   1 10.1756 2.11044   3
   8  -4  -1 9.02676 1.23045  13
   8  -4  -1 14.8897 2.01997  12
  10  -4   1 50.9585 2.00763  13
  10  -4   1 50.5321 2.55629  12
  10  -4  -1 49.4136 2.27568   3
  10  -4  -1 46.0243 2.60025  12
 -10  -4   1 50.1572 2.34349   9
  -1  -5  -1 280.127 10.4551   6
  -1   5   1 299.659 10.8947   7
  -1  -5  -1 278.854 10.4446   5
   1   5  -1 290.106 10.0586   4
   1  -5   1 295.052 10.3883   3
   1   5  -1 298.592 10.5302   7
   1  -5   1 303.787 15.5849  14
   1  -5   1 299.488 10.1406  13
   1  -5   1 293.606 10.3607   6
   1  -5   1 297.667 11.4754  12
   1  -5   1 293.620 10.5933   5
  -1  -5  -1 315.203 11.0371   3
   1  -5   1 299.588 10.5594  15
  -1  -5  -1 325.816 16.1144  14
   1   5   1 292.512 9.99098   4
   1  -5  -1 295.349 10.6819   3
  -1  -5   1 295.209 10.6247   6
  -1  -5   1 325.285 16.0216  14
  -1   5  -1 302.286 10.6683   7
  -1  -5   1 292.941 10.6052   5
   1  -5  -1 278.544 10.4155   5
   1  -5  -1 309.098 15.5501  14
  -1   5  -1 297.947 10.2810   4
   1  -5  -1 271.380 10.1770   6
   1   5   1 288.540 12.3820  16
   1   5   1 294.638 10.6474   7
  -1  -5   1 300.085 10.4391  15
  -1  -5   1 306.070 11.5337  12
  -1  -5   1 299.377 10.4603  13
  -1  -5   1 295.178 10.6051   3
   1  -5  -1 306.549 10.4844  15
  -3   5   1 15.4146 1.58191   4
   3   5  -1 11.6559 1.65424   4
   3   5   1 15.0130 2.56010  16
  -3  -5   1 16.3655 4.31125  12
   3   5   1 14.1826 1.47106   4
   3  -5  -1 15.5181 2.53139  12
  -5   5   1 357.245 12.3811   7
   5  -5   1 334.512 11.6738  13
   5  -5   1 339.667 16.2374  14
   5  -5   1 336.101 11.7077   6
   5  -5   1 340.658 12.8074  12
   5  -5   1 349.289 11.9079  15
   5  -5   1 339.823 11.5785   3
  -5  -5  -1 357.715 12.6024   3
   5  -5  -1 340.387 11.8269  15
   5   5   1 364.093 13.4186  16
  -5  -5   1 338.827 12.9735  12
   5  -5  -1 336.422 12.6592  12
  -5  -5   1 332.768 12.2829   3
   5  -5  -1 346.507 11.9651   3
  -5   5  -1 346.566 12.1870   7
  -5  -5   1 357.000 12.0368   6
  -7  -5  -1 95.8763 4.48437   3
   7  -5   1 99.4171 4.14770  13
   7  -5   1 96.6976 4.65609  12
   7  -5   1 89.6860 3.85914  15
  -7   5   1 108.487 4.46350   7
   7  -5  -1 93.5818 4.59780  12
   7   5   1 93.9545 5.03925  16
  -7  -5   1 103.394 4.28821   3
  -7  -5   1 91.8339 4.80847  11
   7  -5  -1 96.6807 4.02996   3
  -7   5  -1 102.657 4.30766   7
   9  -5   1 312.913 11.2763  12
  -9   5   1 353.009 10.7748   7
  -9  -5  -1 314.822 10.7163   3
   9  -5  -1 322.617 10.1654   5
  -9   5  -1 342.921 10.7901   7
  -9  -5   1 311.534 10.6553   9
   0   6   1 53.6209 3.16902   7
   0  -6   1 48.5713 2.95114   5
   0  -6   1 48.5805 2.88968   6
   0  -6  -1 54.7917 3.24035   3
   0  -6  -1 55.8421 6.01874  14
   0  -6   1 47.4138 5.54208  14
   0  -6   1 53.6634 5.01263  12
   2  -6   1 34.5199 2.14557   3
   2  -6   1 36.1680 2.18022   6
  -2  -6  -1 38.0433 2.38972   6
   2  -6   1 34.3336 2.14778  13
   2  -6   1 38.0987 2.68292  12
  -2   6  -1 40.5500 2.87028   7
  -2  -6   1 36.4495 2.92661  12
  -2  -6   1 41.3618 5.69327  14
   2  -6  -1 33.0636 6.67089  14
   2  -6  -1 36.5291 2.46928   5
  -2  -6   1 40.0394 2.28539   5
   4  -6   1 9.59525 1.52979  12
  -4  -6  -1 13.4996 1.61104   3
   4  -6   1 10.9373 1.29642  13
   4  -6   1 10.6780 1.64002  15
   4  -6   1 10.5069 2.88760  14
  -4   6   1 11.3733 1.62045   7
   4  -6   1 9.44236 1.53417   5
  -4  -6   1 10.4714 1.45357   3
   4  -6  -1 12.5979 1.56501   3
   4  -6  -1 12.0207 1.72975   5
   4  -6  -1 10.4217 3.66401  14
  -4   6  -1 9.46083 1.45712   7
  -4  -6   1 11.6930 1.87562  12
  -4  -6   1 10.5580 1.49899   6
   6  -6   1 39.4512 1.80849  13
   6  -6   1 41.5909 2.37603  12
  -6   6   1 46.0979 2.50400   7
  -6  -6  -1 46.9042 2.40754   3
   6  -6   1 44.3916 2.25887   5
  -6   6  -1 44.4998 2.33078   7
   6  -6  -1 41.3278 2.19602   5
  -6  -6   1 39.8706 2.14486   9
  -6  -6   1 44.1306 2.80401  11
   6  -6  -1 40.0982 1.99841   3
  -1   7   1 138.941 5.11543   7
   1  -7   1 131.023 4.53886   5
   1  -7   1 112.663 7.04340  14
  -1  -7  -1 123.044 5.42560  11
  -1  -7   1 133.282 5.33507  11
  -1  -7   1 129.776 4.76887   6
  -3   7   1 1.71234 0.67238   7
  -3  -7  -1 3.20806 0.95087  11
   3  -7   1 1.40994 1.13395  14
   3  -7   1 2.75041 0.69807   5
  -3  -7   1 2.02170 0.82733  11
   3  -7  -1 4.96494 1.05465   5
  -5  -7  -1 120.140 4.60117  11
  -5  -7   1 121.166 4.52035  11
   0   0  -2 910.194 27.9631  10
   2   0  -2 1166.41 35.4995  10
  -2   0   2 1234.80 37.8534   4
   2   0  -2 1130.02 35.3101   4
   4   0   2 501.288 15.3841   4
   4   0   2 486.535 15.9173  10
   4   0  -2 493.224 15.3811   4
   4   0  -2 491.729 15.6687  10
  -4   0  -2 510.125 16.3833   4
  -4   0   2 513.293 15.6242   4
  -6   0  -2 109.179 4.12267   4
   6   0  -2 103.619 3.87377   4
   6   0   2 102.016 4.64905  16
   6   0  -2 102.065 4.28562  10
   6   0  -2 94.0545 4.77355  16
  -6   0   2 107.177 3.78116   4
  -6   0   2 110.946 5.63402  16
   8   0  -2 132.475 5.05221   4
   8   0   2 141.422 6.30005  16
  -8   0   2 140.097 5.96089   7
  -8   0   2 143.780 6.31752   3
   8   0  -2 142.387 6.50362  16
   8   0   2 134.085 6.28680   3
  -8   0  -2 147.302 7.24227  16
  -8   0  -2 144.126 6.38542   7
  -8   0   2 146.881 7.00687  16
   8   0  -2 138.990 5.95334  10
   8   0  -2 129.803 6.21609   3
 -10   0  -2 146.411 6.13101   7
 -10   0   2 137.128 5.53652   7
  10   0   2 139.982 5.90479  16
 -10   0  -2 146.258 6.55704   3
 -10   0   2 146.672 6.64388  16
 -10   0   2 143.385 6.01270   3
  10   0   2 143.263 5.97980   3
  10   0  -2 126.959 5.82705   3
  12   0   2 41.2845 1.81337   3
  -1  -1  -2 255.473 8.22174  10
  -1  -1  -2 266.990 8.13512   4
  -1   1   2 256.919 8.16547   4
   1   1  -2 276.796 8.53268  10
  -1   1  -2 275.277 8.59946  10
   1  -1  -2 260.371 8.27719   4
   1  -1  -2 261.304 8.41541  10
   1   1   2 261.658 8.17480   4
  -3   1   2 266.090 8.47249   4
   3   1  -2 269.904 8.56809  10
   3   1  -2 265.197 8.50998   4
   3  -1   2 266.327 8.75631  10
  -3  -1  -2 265.660 8.28666   4
   3   1   2 266.935 8.34938   4
   3  -1  -2 263.519 8.81614  10
  -3   1  -2 271.190 8.72891   4
   3  -1  -2 265.435 8.54359   4
   5   1  -2 233.352 9.10293  16
  -5   1   2 246.481 9.45950  16
   5  -1   2 239.473 8.86316  16
   5   1  -2 252.693 8.77108  10
   5  -1   2 251.605 8.56418  10
  -5   1   2 260.288 8.30429   4
   5   1  -2 256.146 8.10576   4
  -5  -1   2 253.582 9.41859  16
   5  -1  -2 238.471 9.05020  16
  -5   1  -2 251.963 8.42167   4
   5   1   2 245.553 9.26124  16
   5   1   2 254.289 8.06605   4
   5  -1  -2 254.944 8.67720  10
   7   1  -2 3.26354 1.00399  10
   7  -1   2 3.44986 0.98216  16
  -7   1   2 3.09613 1.52978   3
   7   1  -2 2.25502 1.08388  16
  -7   1   2 2.08701 1.19664  16
  -7  -1  -2 2.90106 0.72149   4
   7   1  -2 1.67599 0.80702   4
   7  -1  -2 -1.1131 1.56583  10
   7  -1  -2 1.40480 1.02975  16
  -7   1  -2 1.81572 1.40085  16
   7  -1  -2 2.31100 1.69494   3
  -7   1  -2 2.95218 0.85073   4
  -7  -1   2 1.18395 1.39388   5
   7   1   2 1.91794 1.08386  16
  -7  -1   2 3.20141 1.48538  16
   9  -1   2 21.6945 2.34502   3
  -9   1   2 19.1458 2.01684   7
  -9   1   2 21.7037 2.13883   3
  -9  -1  -2 25.1536 2.49613   3
  -9  -1  -2 20.1177 2.25011   7
   9   1  -2 22.9558 2.81376   3
  -9   1  -2 20.5973 2.40336   7
  -9  -1   2 20.6868 1.92055   7
   9  -1  -2 21.3461 2.42165   3
  -9   1  -2 22.4143 3.48989  16
   9   1   2 21.0411 2.41772   3
  -9  -1   2 20.0106 2.17544   3
  11  -1   2 6.47693 0.91446   6
 -11   1   2 7.42240 1.15397   7
  11  -1   2 8.64463 1.22179   3
 -11  -1  -2 5.78887 1.37476   7
 -11  -1   2 8.12613 1.22923   3
 -11   1  -2 8.67729 1.29509   7
  11  -1  -2 7.97185 1.41479   3
  11   1   2 10.0509 1.36719   3
   0  -2  -2 519.403 15.8596   4
   0  -2  -2 498.105 16.0355  10
   0   2   2 507.183 15.8703   4
  -2  -2  -2 691.458 20.7986   4
  -2   2   2 689.812 20.8483   4
  -2  -2  -2 680.231 20.9947  10
   2   2  -2 703.562 21.9614   4
   2  -2  -2 675.596 21.6179  10
   2   2   2 693.336 21.3227   4
  -2  -2   2 660.094 21.3846  10
   2  -2  -2 690.282 21.3282   4
  -2   2  -2 688.809 22.1001   4
   4   2  -2 293.505 9.56758   4
  -4   2   2 315.180 9.68789   4
   4   2  -2 302.615 9.87107  10
  -4   2   2 277.549 10.5457  16
  -4  -2  -2 301.504 9.55194   4
  -4  -2  -2 296.829 9.82264  10
  -4  -2   2 287.930 9.50616  10
   4  -2  -2 297.299 9.58535   4
   4  -2  -2 290.326 10.0703  10
   4   2   2 301.863 9.58951   4
  -4   2  -2 295.304 9.76605   4
   4   2   2 284.385 10.6928  16
  -6   2   2 70.3174 4.31477  16
  -6   2   2 75.0765 2.99380   4
  -6  -2  -2 70.9182 3.29642  10
   6   2  -2 66.9073 3.03042   4
  -6  -2  -2 70.8014 2.87608   4
   6   2  -2 69.6858 3.37003  10
   6   2   2 70.4653 4.08388  16
   6  -2  -2 67.1800 3.51641  10
  -6  -2   2 73.3119 4.15954  16
   6  -2  -2 68.5223 2.75278   4
   6   2   2 72.3085 3.11032   4
  -6   2  -2 69.6352 3.10595   4
  -8  -2  -2 119.681 5.52010   7
  -8   2   2 118.483 5.33301   3
   8  -2   2 117.899 5.31662   8
  -8   2   2 123.151 5.30452   7
  -8  -2  -2 117.939 5.77409   3
   8  -2   2 115.046 5.18414   3
  -8   2   2 119.072 5.98925  16
   8   2  -2 117.199 5.97899  16
  -8  -2   2 110.597 5.03064   5
  -8  -2   2 123.918 6.00143  16
   8  -2  -2 119.855 5.63997   3
   8   2   2 113.160 5.79438   3
  -8  -2   2 117.147 5.46688   3
  -8   2  -2 125.668 5.70042   7
   8   2   2 122.121 5.97805  16
  10   2  -2 101.269 5.17330  16
  10  -2   2 118.638 5.15361   6
 -10  -2  -2 110.981 4.73022   7
 -10  -2  -2 118.441 5.76891  16
  10  -2   2 114.159 4.61527   3
 -10   2   2 117.657 5.48610  16
 -10   2   2 116.520 4.67091   7
  10   2  -2 107.056 5.00372   3
 -10  -2   2 111.118 4.94283   9
 -10  -2   2 103.808 4.67196   3
  10   2   2 113.017 5.19391  16
 -10   2  -2 119.989 4.94315   7
  10  -2  -2 109.204 4.83314   3
 -10  -2   2 113.086 5.16855  16
  10   2   2 116.174 5.09046   3
   1   3  -2 74.7685 2.82232   4
  -1  -3  -2 81.3573 2.78436   4
  -1   3   2 79.5161 2.89911   4
  -1   3   2 72.7270 3.65155  16
  -1  -3  -2 79.2600 3.11671  10
   1  -3  -2 79.0575 2.80698   4
   1  -3  -2 80.3808 3.23884  10
   1   3   2 79.6810 3.74719  16
   1   3   2 78.9858 2.96080   4
  -1   3  -2 73.3574 2.85256   4
  -3   3   2 96.7274 4.52827  16
  -3  -3  -2 100.016 3.83640  10
  -3   3   2 99.9625 3.61503   4
  -3  -3  -2 96.4618 3.63514   4
   3   3  -2 101.957 3.71912   4
   3  -3  -2 101.570 4.16830  10
   3  -3  -2 101.500 3.53582   4
  -3   3  -2 97.7873 3.59975   4
   3   3   2 100.509 3.72352   4
   3   3   2 99.2127 4.74958  16
  -5  -3  -2 134.650 4.59430   4
  -5  -3  -2 132.071 5.15510  10
   5   3  -2 133.505 4.91500   4
  -5   3   2 133.020 6.01039  16
  -5   3   2 136.332 5.66063   7
  -5   3  -2 132.998 5.00622   4
  -5  -3   2 132.335 5.85737   3
   5   3   2 133.251 6.14155  16
   5  -3  -2 119.462 5.61631   3
  -5  -3   2 131.954 5.50865   6
   5  -3  -2 127.677 5.41691  10
  -5  -3   2 131.688 6.60937  12
  -7  -3  -2 1.10366 1.46851   7
  -7   3   2 2.28689 1.18467   7
  -7   3   2 2.35954 1.29755  16
   7  -3   2 1.16634 1.11735   3
   7  -3   2 1.33341 1.08589   8
  -7  -3  -2 1.40747 1.49945   3
  -7  -3  -2 -0.2317 1.45819  10
   7  -3   2 3.66003 1.15755   6
   7   3  -2 3.23470 1.81107  16
  -7   3  -2 2.37549 1.12907   7
  -7  -3   2 1.46042 1.44735   3
   7  -3  -2 3.30075 1.36829   3
   7   3   2 2.35746 1.29890  16
  -7  -3   2 0.65920 1.22363  16
  -9  -3  -2 18.0129 2.53318  16
  -9  -3  -2 16.7340 2.08074   3
  -9   3   2 16.4799 1.77583   7
   9  -3   2 15.4961 1.56959   6
  -9  -3  -2 18.7927 1.79186   7
   9  -3   2 17.3485 1.66575   3
   9   3  -2 13.6039 2.57891  16
   9  -3  -2 19.6249 1.98899   3
   9   3   2 16.2116 2.13409  16
  -9   3  -2 18.8495 1.81446   7
  -9  -3   2 16.8882 1.80907   3
   9   3   2 17.7430 2.00669   3
  11  -3   2 3.67832 0.60665  13
  11  -3   2 4.48207 0.88114  12
 -11   3  -2 4.11522 0.77123   7
  11   3   2 3.20253 0.99920   3
 -11  -3   2 4.46520 0.62800   3
  11  -3  -2 4.24315 0.73799   3
   0   4  -2 170.723 5.95262   4
   0   4   2 161.241 7.05025  16
   0   4   2 170.494 5.83227   4
   0  -4  -2 171.702 6.36185  10
   2   4  -2 204.272 7.09154   4
  -2   4   2 209.332 8.29585  16
  -2   4   2 207.349 7.19392   4
  -2  -4  -2 206.902 7.48087  10
   2   4   2 199.161 8.29321  16
   2  -4  -2 196.782 7.54865  10
   2   4   2 207.395 6.90114   4
   4  -4   2 72.3299 3.85508  15
   4  -4   2 74.0572 6.92761  14
   4  -4   2 74.6918 4.61831  12
  -4   4   2 73.3365 4.23299  16
   4  -4   2 70.1123 3.44664  13
  -4   4   2 75.8600 3.23791   4
  -4   4   2 73.2904 3.83657   7
  -4  -4  -2 67.5664 4.20339   3
   4   4  -2 73.1323 3.22482   4
   4  -4   2 70.7721 3.45064   6
   4  -4  -2 69.8705 3.55562  15
  -4  -4   2 71.8608 3.73405   3
   4   4   2 73.4238 4.37750  16
   4  -4  -2 70.1459 3.73461   3
  -4  -4   2 78.4552 4.71485  12
   4   4   2 73.0625 3.11722   4
  -4  -4   2 71.8683 3.62464   6
  -4  -4   2 75.5897 3.65285  13
   6  -4   2 25.7567 1.92549   3
   6  -4   2 27.8896 3.01339  12
  -6  -4  -2 24.7697 2.22070   7
  -6  -4  -2 29.8800 2.80531   3
  -6   4   2 27.7617 2.40519   7
   6  -4   2 25.0348 2.54691  15
  -6   4   2 27.0406 2.86672  16
   6  -4   2 24.8612 4.47449  14
   6  -4   2 26.6277 2.16294  13
   6  -4   2 27.7686 1.96618   6
  -6  -4   2 26.6737 2.24256   3
   6   4   2 26.0452 2.83051  16
  -6   4  -2 27.7479 2.37801   7
  -6  -4   2 28.7181 2.34133  16
  -6  -4   2 28.3233 3.13335  12
   6  -4  -2 24.6056 2.40006   3
  -6  -4   2 27.4878 2.35288   5
  -6  -4   2 23.7143 3.34486  11
  -8   4   2 76.5490 3.61648   7
   8  -4   2 68.7834 3.13840  15
   8  -4   2 73.5152 3.25857  13
   8  -4   2 69.0620 4.04990  12
  -8   4   2 77.9485 4.34779  16
  -8  -4  -2 78.3927 4.05608   3
   8  -4   2 70.8862 3.07462   6
   8  -4   2 72.6073 2.97676   3
   8   4   2 67.3098 3.84444   3
  -8  -4   2 78.5941 3.59526   3
   8  -4  -2 68.9017 3.80511  12
  -8   4  -2 72.2012 3.54863   7
  -8  -4   2 68.7250 3.36369  16
   8  -4  -2 72.5516 3.55535   3
  -8  -4   2 68.0789 5.01288  11
   8  -4  -2 68.8760 3.27337  13
 -10  -4  -2 70.4574 2.93824   3
  10  -4   2 69.1287 3.15289  12
 -10   4   2 71.6254 2.72390   7
  10  -4   2 70.7134 2.60838  13
  10  -4  -2 71.1360 2.80145   3
 -10  -4   2 69.3119 2.82509   9
 -10   4  -2 70.9681 2.80261   7
  -1  -5  -2 16.6117 2.48724   3
  -1   5   2 16.8745 1.77810   4
   1   5  -2 10.9036 2.37897   7
   1  -5   2 11.8608 1.81943   3
   1  -5   2 16.5981 1.89194   5
  -1  -5  -2 17.9168 4.31991  14
  -1   5   2 15.7974 1.95717   7
   1  -5   2 14.5014 1.60726  13
   1  -5   2 17.2002 2.65174  12
   1  -5   2 12.5824 3.67143  11
  -1   5   2 17.6524 2.45405  16
   1   5  -2 13.8445 1.67270   4
   1  -5   2 21.1927 4.60527  14
  -1  -5  -2 17.5222 2.02763   6
   1  -5   2 17.1954 1.92722   6
   1  -5   2 18.3718 2.00525  15
   1   5   2 17.2434 2.11225   7
  -1  -5   2 17.9701 4.43994  14
  -1  -5   2 14.3652 2.10965  15
   1   5   2 15.5306 1.50048   4
   1  -5  -2 16.2241 4.05151  14
  -1  -5   2 15.0931 1.77565   3
  -1  -5   2 13.1842 1.96546   5
  -1  -5   2 17.3197 2.64963  12
  -1  -5   2 13.9599 1.93735   6
  -1   5  -2 14.5476 1.91185   4
   1  -5  -2 19.3203 2.10517   3
   1   5   2 14.1712 2.79285  16
  -1  -5   2 14.1715 1.70225  13
   1  -5  -2 15.3839 2.11047   5
   3  -5   2 23.0373 2.66383  12
  -3   5   2 16.4855 2.59727  16
  -3  -5  -2 23.2126 2.29861   6
   3  -5   2 21.3548 1.87375   6
  -3  -5  -2 23.3714 2.51515   3
   3  -5   2 21.2984 2.58672   5
  -3   5   2 22.9308 2.16808   7
   3  -5   2 21.4644 1.81593  13
   3  -5   2 23.4261 2.34312  15
   3  -5   2 20.2595 4.73984  14
  -3  -5   2 21.5736 2.00410  13
  -3  -5   2 26.2418 4.62065  14
   3   5   2 24.3677 2.75533  16
  -3  -5   2 22.9374 2.11548   6
  -3  -5   2 23.0063 2.70453  12
   3  -5  -2 23.8361 2.27098   3
   3  -5  -2 21.3439 5.54976  14
   5  -5   2 54.4622 3.13772   5
   5  -5   2 55.7091 3.35343  15
   5  -5   2 56.0702 2.77208  13
  -5  -5  -2 54.5711 3.53826   3
  -5   5   2 58.9483 3.97628  16
   5  -5   2 54.4423 3.73058  12
   5  -5   2 49.1016 5.61452  14
   5  -5   2 54.3856 2.84379   6
  -5   5   2 55.8230 3.20677   7
  -5  -5   2 54.5319 3.81718  12
  -5  -5   2 57.5611 3.09339   6
   5   5   2 52.3825 3.89663  16
  -5  -5   2 54.2574 4.13723  11
   5  -5  -2 60.3482 3.32710   3
  -5  -5   2 55.2432 2.88842   3
  -7   5   2 3.25959 0.92771   7
   7  -5   2 1.68295 0.70704   6
   7  -5   2 3.18948 0.73780  13
   7  -5   2 1.06139 0.81785  15
   7  -5   2 2.11252 0.84192   5
  -7  -5  -2 5.06423 1.52841   3
  -7   5   2 5.46440 1.79672  16
  -7  -5   2 2.60753 1.40555  11
   7   5   2 3.33180 1.29786  16
   7  -5  -2 3.00501 0.91397   3
   7   5   2 1.96667 1.54102   3
  -9   5   2 9.87128 0.99087   7
  -9  -5  -2 10.0229 0.99658   3
   9  -5   2 8.93551 0.95139  12
   9  -5  -2 9.48972 1.00751   5
  -9  -5   2 9.68727 0.87124   9
   0  -6   2 53.4175 5.75992  11
   0   6   2 69.5329 3.89227   7
   0  -6  -2 69.2421 4.20435   3
   0  -6   2 73.5988 6.87185  14
   0   6  -2 68.3723 3.50844   7
   0  -6   2 59.4712 3.93021  13
   0  -6   2 71.3718 3.75273   6
   2  -6   2 57.3631 3.56379  12
  -2   6   2 61.2978 3.53820   7
   2  -6   2 57.1188 2.84923   6
   2  -6   2 55.8487 2.70162  13
   2  -6   2 57.1906 3.06360  15
   2  -6   2 56.7872 6.15650  14
  -2   6  -2 56.7651 2.89871   7
   2  -6  -2 56.6341 2.95212   5
  -2  -6   2 57.3923 3.14195   6
  -2  -6   2 57.2317 2.90369  13
  -2  -6   2 57.1174 3.58716  12
  -2  -6   2 51.2197 4.09710  11
  -2  -6   2 57.4455 2.94541   5
  -2  -6   2 63.5230 6.04097  14
   4  -6   2 11.2581 1.56606  15
   4  -6   2 13.3047 3.02381  14
   4  -6   2 13.3874 1.35822   6
   4  -6   2 11.6828 1.62285  12
   4  -6   2 9.50126 1.13024  13
  -4   6   2 12.2160 1.61227   7
  -4  -6  -2 10.4013 1.74202   3
   4  -6   2 11.1845 1.54035   5
   4  -6  -2 13.0689 1.68236   5
  -4  -6   2 8.37175 1.76288  12
  -4  -6   2 9.11694 1.68865   5
  -4  -6   2 13.6300 1.50253   6
  -4  -6   2 6.14934 1.87085   9
  -4  -6   2 10.7497 2.38213  11
   4  -6  -2 11.2040 1.48696   3
   6  -6   2 6.86535 1.86425  14
   6  -6   2 7.25608 1.16690  12
  -6   6   2 7.61642 1.37970   7
   6  -6   2 6.67841 1.06646   5
   6  -6   2 6.57180 1.18292  13
   6  -6   2 6.60078 1.04426  15
  -6  -6  -2 7.59148 1.31954   3
   6  -6  -2 7.39424 1.09923   5
  -6  -6   2 7.17122 1.44442  11
  -6  -6   2 7.00146 1.74187   9
  -6   6  -2 10.1971 1.25856   7
   6  -6  -2 7.14679 1.14767   3
   1  -7   2 2.47484 0.66747   6
   1  -7   2 3.15639 0.70328   5
   1  -7   2 3.22479 1.62053  14
  -1  -7  -2 2.31386 0.84128   3
  -1   7   2 4.30623 1.12967   7
  -1  -7   2 2.88862 1.37036  11
  -1  -7   2 1.94011 0.58229   6
   1  -7  -2 2.29715 0.78809   3
  -1  -7   2 4.23406 1.43271  12
  -3   7   2 6.17381 1.19969   7
   3  -7   2 4.18141 1.88185  14
   3  -7   2 4.58160 1.03790   5
   3  -7   2 4.33226 1.50882  12
  -3  -7   2 3.86752 1.27545  11
  -5  -7  -2 19.1402 1.94164  11
  -5  -7   2 21.5372 1.65428  11
   0   0  -3 1692.90 50.5772   4
   0   0  -3 1609.00 50.6864  10
  -2   0  -3 2285.22 70.1104   4
   2   0  -3 2357.35 71.2345  10
   2   0  -3 2304.46 72.0143   4
   4   0  -3 196.050 6.48046   4
  -4   0   3 194.126 6.08646   4
   4   0  -3 192.083 6.76154  10
  -4   0  -3 199.215 6.57303   4
  -6   0   3 145.125 6.34630  16
  -6   0  -3 151.789 5.43288   4
   6   0   3 143.346 6.03374  16
   6   0  -3 144.243 5.23360   4
   6   0  -3 145.088 5.71420  10
   8   0   3 341.123 16.5209  14
  -8   0  -3 345.031 14.0119  16
   8   0  -3 341.973 12.7994  16
   8   0   3 347.227 12.4439  16
  -8   0  -3 347.579 11.9044   4
  -8   0   3 355.080 13.1302  16
   8   0  -3 327.958 11.4138   4
   8   0  -3 342.789 13.0737   3
  -8   0   3 351.567 12.3005   7
 -10   0  -3 33.9721 3.37190  16
  10   0   3 30.7383 2.30479   3
 -10   0  -3 31.1702 2.47417   7
 -10   0   3 28.7097 2.59081  16
 -10   0   3 28.7299 2.18538   3
  10   0  -3 26.6992 2.35321   3
  -1  -1  -3 601.117 18.7379  10
  -1  -1  -3 609.429 18.6155   4
  -1   1   3 615.140 18.4921   4
   1   1  -3 597.048 18.3759  10
   1   1   3 600.695 18.6652   4
   1  -1  -3 604.319 18.9900  10
  -1   1  -3 608.660 19.6698  10
   1  -1  -3 607.614 18.8102   4
  -3  -1  -3 1317.32 40.1252   4
  -3   1   3 1339.52 39.7449   4
   3   1  -3 1322.30 40.5123  10
  -3  -1  -3 1332.02 40.2737  10
   3   1   3 1272.28 39.5855   4
   3  -1  -3 1280.97 39.8832  10
  -3   1  -3 1257.46 41.9265   4
   3  -1  -3 1279.12 39.5733   4
   5   1  -3 126.984 5.16374   4
  -5  -1  -3 143.699 4.95064   4
  -5  -1  -3 144.051 5.16075  10
   5   1  -3 145.398 5.24040  10
   5   1  -3 129.321 5.86149  16
   5  -1   3 138.120 5.31625  16
  -5   1   3 137.641 5.96998  16
   5   1   3 136.475 5.74454  16
   5  -1  -3 141.738 4.85519   4
  -5  -1   3 139.630 5.80503  16
  -5   1  -3 140.622 5.01711   4
   5  -1  -3 139.394 5.29214  10
   5  -1  -3 131.128 5.59750  16
   7   1  -3 338.020 11.3788   4
   7  -1   3 339.455 12.4743   2
   7   1  -3 344.954 12.0065  10
  -7  -1  -3 350.142 11.6486   4
   7  -1   3 338.567 12.2351   8
  -7  -1  -3 360.072 12.0502  10
  -7  -1  -3 356.904 12.9281   7
  -7   1   3 347.790 12.4681   3
   7  -1   3 328.901 12.1513   3
  -7   1   3 333.894 12.1679   7
   7  -1   3 353.528 12.1411  16
   7   1  -3 342.543 12.7648  16
  -7   1  -3 362.665 11.9274   4
  -7   1  -3 358.376 12.8626   7
   7  -1  -3 339.619 11.3000   4
  -7  -1   3 351.224 12.5299   3
   7  -1  -3 340.927 12.1488  10
   7   1   3 346.303 12.6285   3
  -7  -1   3 343.777 12.2162   5
  -9  -1  -3 103.471 4.94202   7
  -9   1   3 99.7172 4.65438   3
  -9   1   3 93.7251 4.67868   7
   9   1  -3 91.7710 5.08582  16
   9  -1   3 99.9621 4.64823   3
  -9  -1  -3 100.881 5.79951  16
  -9   1   3 102.874 5.24471  16
  -9   1  -3 100.623 4.91035   7
   9   1   3 98.2589 4.87649  16
  -9  -1   3 100.318 5.15627  16
   9   1   3 95.7133 4.88105   3
  -9  -1   3 99.3971 4.78088   3
  11  -1   3 8.86336 0.98724   6
  11  -1   3 10.8035 1.16363   3
 -11  -1  -3 8.31982 1.26516   7
  11   1   3 8.22556 1.24260   3
 -11  -1   3 10.6916 1.23020   3
 -11   1  -3 11.4052 1.37951   7
   0  -2  -3 975.301 30.0591   4
   0   2   3 963.768 29.9907   4
   0  -2  -3 971.791 30.2788  10
  -2   2   3 1308.18 43.9040  16
   2   2  -3 1403.03 42.8295  10
  -2   2   3 1401.68 42.4108   4
  -2  -2  -3 1392.52 42.4369  10
  -2  -2  -3 1401.29 42.2218   4
   2  -2  -3 1413.33 42.5125   4
   2   2   3 1413.59 42.1877   4
   2  -2  -3 1382.87 42.8392  10
   2   2   3 1292.28 44.1548  16
   4   2  -3 117.288 4.79903  10
  -4   2   3 118.048 4.04201   4
  -4  -2  -3 117.912 4.10228   4
  -4  -2  -3 118.290 4.47322  10
   4   2  -3 114.940 4.16969   4
  -4   2   3 112.389 5.08113  16
  -4   2  -3 114.340 4.19669   4
   4   2   3 116.178 4.00966   4
   4   2   3 110.536 5.10854  16
  -4  -2   3 116.480 4.78935  16
   4  -2  -3 116.453 4.19710   4
  -6  -2  -3 112.704 4.21634   4
   6  -2   3 110.499 5.31051  15
  -6   2   3 114.123 5.09225   3
   6  -2   3 110.067 8.52493  14
   6   2  -3 111.394 5.22021  10
   6  -2   3 118.688 5.08294   3
  -6   2   3 116.794 5.57558  16
   6   2   3 105.730 3.78470   4
  -6   2  -3 111.372 4.39253   4
  -6  -2   3 106.435 4.90198   5
   6  -2  -3 109.573 4.85967  10
  -6  -2   3 112.369 5.20134  16
   6  -2  -3 108.426 5.29143   3
   6   2   3 110.420 5.43073  16
   8  -2   3 274.383 9.89909  15
   8  -2   3 285.890 10.4468   8
   8   2  -3 269.421 11.9824  16
   8  -2   3 286.358 10.1117   3
   8  -2   3 271.787 10.0386   6
  -8  -2  -3 286.795 10.9425   7
   8  -2   3 281.048 14.2332  14
  -8   2   3 283.555 10.5610   7
  -8  -2  -3 281.806 11.2894   3
  -8   2   3 302.048 11.4472  16
  -8   2   3 296.653 10.6517   3
   8  -2  -3 278.443 10.5986   3
   8   2   3 277.940 10.8413   3
   8   2   3 292.110 10.9539  16
  -8  -2   3 295.080 10.6142   3
  -8  -2   3 294.316 10.9847  16
  -8   2  -3 306.672 11.3837   7
  -8  -2   3 274.484 10.2940   5
  10  -2   3 22.2658 2.23848   6
 -10   2   3 22.1993 2.13219  16
 -10  -2  -3 20.0836 2.32195   3
 -10  -2  -3 20.4419 2.49356  16
 -10  -2   3 19.1726 1.84304  16
  10   2   3 23.0223 2.15356  16
 -10  -2   3 19.2564 1.58840   9
  10   2   3 17.0666 2.07520   3
 -10  -2   3 20.9549 1.65493   3
  -1   3   3 236.950 7.55984   4
   1   3  -3 231.071 7.66895   4
  -1  -3  -3 233.527 7.88766  10
  -1   3   3 216.354 8.51115  16
   1  -3  -3 235.173 8.23169  10
   1   3   3 221.311 8.79703  16
   1  -3  -3 263.770 8.01590   4
   1   3   3 234.068 7.80500   4
   3   3  -3 514.957 16.6121   4
  -3   3   3 540.554 16.4980   4
  -3  -3  -3 516.453 16.7372  10
  -3   3   3 529.959 18.2486  16
  -3  -3  -3 522.676 16.3582   4
   3  -3  -3 523.038 17.2977  10
  -3  -3   3 505.098 17.1709  16
   3   3   3 531.203 16.5905   4
  -3   3  -3 513.416 17.0142   4
  -5  -3  -3 67.2830 2.80348   4
  -5   3   3 66.7074 3.92670  16
   5  -3   3 65.6995 3.11996   3
  -5   3   3 66.7413 2.79357   4
   5  -3   3 67.2819 7.95574  14
   5  -3  -3 63.4192 2.61672   4
   5   3   3 61.9242 2.87481   4
  -5  -3   3 68.1568 3.49118  16
   5  -3  -3 62.2189 3.59567  10
  -5   3  -3 64.0027 2.98070   4
   5   3   3 67.1390 4.10247  16
  -7   3   3 251.245 9.26902   7
   7  -3   3 246.351 9.18611   8
   7  -3   3 247.558 13.4195  14
   7  -3   3 233.947 8.91459  15
  -7  -3  -3 246.165 10.0211   3
  -7  -3  -3 246.999 9.62510   7
   7  -3   3 243.360 8.83064   6
  -7   3   3 253.281 10.0486  16
   7  -3   3 238.347 8.63432   3
  -7  -3   3 253.699 10.4239  12
  -7  -3   3 242.277 9.30577  16
   7   3   3 249.017 10.0391  16
  -7  -3   3 251.847 9.22511   3
   7  -3  -3 249.738 9.47751   3
  -7  -3   3 237.271 8.94239   5
  -7   3  -3 252.517 9.44604   7
  -7  -3   3 245.421 9.84221  11
  -9  -3  -3 73.5138 3.95927   3
  -9   3   3 75.4260 3.41359   7
  -9   3   3 70.2440 3.97726  16
  -9  -3  -3 58.7094 4.90643  16
   9  -3   3 62.8745 3.93311  12
   9  -3   3 80.1482 3.24628   3
  -9  -3  -3 72.9513 3.49186   7
   9  -3   3 75.2016 3.22171   6
   9  -3  -3 73.8852 3.68456   3
  -9   3  -3 77.5702 3.53883   7
   9   3   3 71.9851 3.81641   3
  -9  -3   3 76.2341 3.42984   3
  -9  -3   3 71.2167 3.28519  16
  11  -3   3 4.41602 0.77845  12
  11  -3   3 5.76763 0.73776  13
  11  -3  -3 4.88947 0.68711   3
   0  -4  -3 310.918 10.6896  10
   0   4   3 303.124 10.0597   4
   0  -4  -3 301.958 9.73858   4
   0   4   3 301.206 11.4380  16
   2  -4   3 456.347 15.8587  15
  -2  -4  -3 457.981 16.0859   3
   2  -4   3 471.488 20.8217  14
   2  -4   3 456.004 15.6110   6
  -2   4   3 469.481 16.0190  16
   2  -4   3 537.870 16.5022   5
   2  -4   3 456.484 15.5127  13
   2  -4   3 461.918 16.7845  12
  -2   4   3 451.547 15.6703   7
  -2  -4  -3 463.619 15.1031  10
  -2  -4  -3 455.216 14.4664   4
   2   4  -3 437.763 15.0992   4
  -2  -4   3 468.713 15.1733   6
  -2  -4   3 460.960 16.6693  12
   2   4   3 451.675 16.6057  16
   2  -4  -3 450.155 15.8577   3
  -2  -4   3 454.858 15.3112  13
   2  -4  -3 464.519 15.6013  10
   2   4   3 468.902 15.8061   7
  -2  -4   3 429.733 15.3532   5
   4  -4   3 27.0168 2.93585   8
  -4  -4  -3 29.0040 3.05440   3
  -4   4   3 28.3814 2.33287   7
   4  -4   3 30.2630 2.44866   6
  -4  -4  -3 32.9581 2.86560   7
   4  -4   3 29.8874 5.33172  14
  -4  -4  -3 26.6046 2.12302  10
  -4   4   3 31.7014 1.89219   4
  -4   4   3 35.0060 3.40324  16
   4  -4   3 33.8422 2.87573  15
   4   4  -3 29.5574 2.05962   4
   4  -4   3 30.4508 2.25916  13
   4  -4   3 30.0945 3.18446  12
   4  -4  -3 31.4267 2.77865   3
  -4  -4   3 27.3316 3.35982  11
   4   4   3 32.1440 1.73836   4
   4  -4  -3 30.7250 2.63460   7
  -4  -4   3 32.5183 4.79805  14
  -4  -4   3 27.5853 2.12479   5
   4   4   3 33.6951 2.89854  16
  -4  -4   3 31.3534 2.34381   3
  -4  -4   3 30.3305 2.51495   6
   4  -4  -3 31.6673 2.82101  10
  -4  -4   3 31.6669 2.62536  13
  -4  -4   3 33.6976 3.32394  12
  -6   4   3 71.3884 3.67840   7
   6  -4   3 68.5853 3.35972  13
   6  -4   3 65.1866 3.56691  15
   6  -4   3 66.9375 3.34719   6
   6  -4   3 69.8563 6.52447  14
  -6  -4  -3 68.3010 3.86625   7
   6  -4   3 63.7676 3.40631   8
   6  -4   3 70.5379 4.57821  12
   6  -4   3 63.8891 2.87630   3
  -6  -4  -3 65.6569 4.21899   3
  -6  -4   3 69.1354 4.44983  11
  -6  -4   3 71.1990 4.96162  12
  -6   4  -3 68.5475 3.67741   7
   6  -4  -3 57.9677 3.34141   7
   6   4   3 67.7024 4.34932  16
  -6  -4   3 62.8185 3.44807   5
  -6  -4   3 64.2458 3.29845   3
   6  -4  -3 61.9932 3.75872   3
  -8  -4  -3 187.641 7.42854   3
   8  -4   3 165.442 7.35517  12
   8  -4   3 182.454 7.42388  15
   8  -4   3 159.735 8.67956  14
   8  -4   3 174.321 6.26993   6
  -8   4   3 195.276 7.00454   7
   8  -4   3 178.645 6.35397  13
  -8   4   3 179.865 7.59787  16
  -8  -4   3 183.417 6.58309   3
   8   4   3 175.382 7.08539   3
   8   4   3 182.241 7.35825  16
  -8  -4   3 175.921 8.30765  11
   8  -4  -3 178.738 6.77369   3
  10  -4   3 9.73715 0.95533  12
  10  -4   3 9.05324 0.70428  13
 -10  -4   3 9.00833 1.06715   9
  10  -4  -3 9.16844 0.85451   3
  -1   5   3 63.8099 2.96456   4
  -1   5   3 68.7784 4.41773  16
  -1  -5  -3 60.3073 3.86951   7
   1  -5   3 63.9617 4.71785  11
  -1  -5   3 65.6691 7.78544  14
   1  -5  -3 50.1891 4.31062   5
  -1  -5   3 61.9283 3.40809  15
  -1  -5   3 70.3906 5.82482  11
   1   5   3 72.0777 4.28649  16
   1  -5  -3 61.2043 3.94446   7
   1   5   3 61.6156 2.82640   4
  -3  -5  -3 142.923 6.15367   7
   3  -5   3 147.235 6.92599  12
  -3  -5  -3 149.186 6.67632   3
   3  -5   3 148.549 5.86559   6
  -3   5   3 149.822 6.93985  16
   3  -5   3 147.810 5.80089  13
  -3   5   3 148.261 6.20639   7
   3  -5   3 149.109 6.09654  15
   3  -5   3 145.755 6.10816   5
   3  -5   3 158.101 10.6849  14
   3  -5  -3 148.026 6.40637   3
  -3  -5   3 143.946 5.97815   6
  -3  -5   3 153.806 7.57977  11
  -3  -5   3 143.888 5.84078   5
  -3  -5   3 153.449 7.14344  12
  -3  -5   3 158.278 9.88484  14
  -3  -5   3 151.490 5.88107  13
   3   5   3 144.602 6.97736  16
  -3  -5   3 149.039 6.10656   9
  -5   5   3 25.9625 2.77014  16
   5  -5   3 19.9336 2.65002   6
   5  -5   3 30.8562 4.10579  12
  -5  -5  -3 25.6366 2.16790   7
   5  -5   3 32.1732 6.66251  14
  -5  -5   3 27.1181 2.06919   5
   5   5   3 25.9505 2.79588  16
  -5  -5   3 23.1863 1.62541   3
  -5   5  -3 26.5365 2.08030   7
   7  -5   3 136.638 5.96886  12
   7  -5   3 132.178 4.94904   6
   7  -5   3 150.375 6.00291  15
   7  -5   3 140.305 7.53683  14
   7  -5   3 135.679 5.44200   5
   7   5   3 138.700 5.76039   3
   7   5   3 120.800 5.84844  16
  -7  -5   3 159.995 6.48467   9
   7  -5  -3 145.952 5.48459   3
  -7   5  -3 140.037 5.48760   7
  -7  -5   3 140.720 5.92545  11
  -9  -5  -3 41.5167 2.36100   3
  -9  -5   3 37.0656 1.67903   9
   0  -6   3 83.8840 3.66515  13
   0  -6   3 86.0192 4.09359   5
   0  -6   3 83.8858 4.60146  12
   0  -6   3 84.2273 3.62469  15
   0  -6   3 84.6267 3.87479   6
   0  -6   3 81.4515 4.48384  11
   0  -6   3 85.8828 7.34622  14
   0   6   3 83.5756 5.02186  16
  -2   6   3 159.611 6.20417   7
   2  -6   3 153.418 5.74138  13
   2  -6   3 147.755 5.90918   6
  -2  -6  -3 154.470 6.54737   3
   2  -6   3 157.886 9.80040  14
   2  -6   3 154.273 6.07391   5
   2  -6   3 154.461 5.92965  15
   2  -6   3 153.776 6.62690  12
  -2  -6   3 155.488 5.68987  13
  -2  -6   3 151.184 5.88898   5
  -2  -6   3 154.679 6.85395  11
   2  -6  -3 155.900 6.33743   3
   2   6   3 152.741 9.08818  16
  -2  -6   3 149.760 9.29237  14
  -2  -6   3 156.162 5.87843   6
  -2  -6   3 154.139 6.85588  12
   2  -6  -3 153.191 5.81174   5
   4  -6   3 8.16234 1.07508   6
   4  -6   3 7.56677 1.30284   5
   4  -6   3 7.44537 1.00954  13
  -4  -6  -3 8.30329 1.59652   3
   4  -6   3 7.26497 1.52545  12
   4  -6   3 7.79678 2.70516  14
   4  -6   3 7.67637 1.36555  15
  -4   6   3 7.36618 1.35936   7
  -4  -6   3 8.01570 1.38705   5
  -4  -6   3 7.41318 1.67076  12
  -4  -6   3 8.15345 1.26771   6
   4  -6  -3 7.91440 1.66058   3
  -4  -6   3 7.17286 1.37163   9
   4   6   3 7.19747 2.08324  16
  -4  -6   3 5.67728 1.72316  11
   6  -6   3 39.6876 2.13143  13
   6  -6   3 35.3495 2.03283   6
   6  -6   3 40.4281 2.30045  12
   6  -6   3 39.2452 1.93647  15
   6  -6   3 35.8023 2.99283  14
  -6   6   3 42.3131 2.13752   7
  -6  -6  -3 42.6200 2.34894   3
   6  -6   3 42.0309 2.06345   5
   6  -6  -3 41.4747 2.05336   3
  -6  -6   3 40.0169 2.47794  11
  -6  -6   3 38.7348 1.91375   9
   1  -7   3 20.2725 1.44723   5
  -1  -7  -3 20.7390 1.67926   3
   1  -7   3 16.8566 1.12750  13
   1  -7   3 18.7155 2.24886  12
   1  -7   3 20.0017 1.29693   6
  -1   7   3 20.5797 1.59061   7
  -1  -7   3 20.4596 1.37093   6
  -1  -7   3 18.3467 1.54928  12
  -1  -7   3 19.5534 2.26645  11
   1  -7  -3 17.6646 1.43006   3
   3  -7   3 39.8318 3.39072  14
   3  -7   3 39.7906 2.16962  12
   3  -7   3 40.0577 2.05112   6
  -3  -7   3 40.8330 2.10753  11
   3  -7  -3 42.6333 2.00035   3
   0   0  -4 224.079 6.96603   4
   0   0  -4 218.465 7.11663  10
   2   0  -4 1775.71 54.2476  10
   2   0  -4 1735.00 53.9921   4
  -2   0  -4 1787.18 54.5685  10
  -2   0  -4 1756.37 54.4682   4
  -4   0   4 0.83802 0.75813  16
   4   0  -4 0.46059 0.57165  10
   4   0   4 1.94055 0.75209  16
   4   0  -4 0.36460 0.56029   4
  -4   0  -4 0.24338 0.44247   4
  -6   0   4 246.027 9.23406   5
  -6   0   4 250.087 9.49589  16
   6   0   4 238.862 8.88428  16
   6   0   4 251.796 9.40515   2
  -6   0   4 247.303 9.36482   3
   6   0   4 228.380 9.28997   3
   6   0  -4 239.469 8.26542   4
   6   0  -4 224.640 9.18870  16
   6   0  -4 238.449 8.64583  10
  -6   0  -4 239.221 8.45657   4
   8   0   4 333.913 11.6709  16
   8   0   4 328.716 11.9245   3
  -8   0  -4 350.127 12.8265   7
   8   0   4 319.964 16.1922  14
  -8   0   4 346.266 12.7623  16
  -8   0   4 332.469 12.0802   3
   8   0   4 323.187 11.6426   8
 -10   0   4 5.48566 1.50517  16
 -10   0  -4 6.55036 1.55167   7
  10   0  -4 5.19089 1.42544   3
 -10   0   4 6.65174 1.26716   3
  10   0   4 3.96334 1.19681   3
  -1  -1  -4 2610.70 78.5461  10
   1   1  -4 2758.96 84.8809  10
  -1   1  -4 2585.62 79.8765  10
   1  -1  -4 2742.66 84.2336  10
  -1   1  -4 2571.46 79.9322  10
  -3   1   4 956.967 30.7357  16
   3   1  -4 977.521 30.7214   4
  -3  -1  -4 998.130 29.8261  10
  -3  -1  -4 987.248 29.6595   4
   3   1  -4 1012.93 31.0001  10
  -3   1  -4 978.632 30.3271   4
   3   1   4 982.968 32.3219  16
   3  -1  -4 988.485 30.6203   4
   3  -1  -4 1004.17 31.0027  10
  -3  -1   4 910.457 30.9150  16
  -5   1   4 5.82989 1.39387  16
   5   1  -4 4.84945 1.18018   4
  -5  -1  -4 4.98524 1.00632   4
   5   1  -4 7.09677 1.13999  10
  -5  -1  -4 4.16544 1.00193  10
   5  -1   4 6.78161 1.05964  16
   5  -1  -4 7.07153 1.13677   4
   5  -1  -4 6.95220 1.35005  10
   5   1   4 6.96071 1.26390  16
  -5  -1   4 5.12159 1.45768  16
   7   1  -4 2906.00 88.8778   4
  -7  -1  -4 3042.51 96.4248   7
   7   1  -4 2929.89 89.5261  10
  -7  -1  -4 3043.20 95.6022  10
   7  -1   4 2992.64 92.4609   2
  -7   1   4 3012.64 94.4799   3
   7  -1   4 3022.25 98.5358  14
   7  -1   4 2935.18 92.0221   3
   7  -1   4 2896.03 91.8679  15
   7  -1   4 2964.02 91.7293  16
  -7   1   4 3139.06 95.3234  16
  -7   1   4 2972.89 94.1289   7
   7  -1   4 2987.97 92.2327   8
  -7   1  -4 3037.57 96.1814   4
   7   1   4 3023.16 91.8744  16
   7   1   4 2814.18 91.9661   8
   7   1   4 3007.38 91.7135   2
   7  -1  -4 2783.19 91.9149   3
  -7   1  -4 3165.91 97.1772   7
  -7  -1   4 3062.28 94.0124   3
  -7  -1   4 2964.91 93.8197   5
   7  -1  -4 2910.68 90.1435  10
   7  -1  -4 2860.31 90.2364   4
  -7  -1   4 3101.78 94.5000  16
   7   1   4 2952.57 91.8361   3
  -9   1   4 219.088 7.89745   7
   9   1  -4 217.313 9.53794  16
  -9   1   4 223.124 8.64525   3
   9  -1   4 212.299 8.16628   8
   9  -1   4 210.467 11.3047  14
  -9  -1  -4 225.482 9.91960  16
  -9   1   4 221.708 8.82552  16
   9  -1   4 214.300 8.28032   3
  -9  -1   4 222.855 8.67021  16
  -9  -1   4 207.028 7.88759   9
   9  -1  -4 212.691 8.38304   3
   9   1   4 217.107 8.31173  16
  -9   1  -4 226.446 8.61032   7
   9   1   4 207.892 11.4313  14
  11  -1   4 8.14244 1.18265   6
  11  -1   4 7.89241 0.78179   3
 -11  -1  -4 9.72698 1.16893   7
  11  -1   4 6.32709 1.58966  12
  11   1   4 8.57825 1.03840   3
 -11   1  -4 10.4564 1.21233   7
 -11  -1   4 9.40409 0.96768   3
   0   2   4 130.368 4.38281   4
   0  -2  -4 137.961 4.62547   4
   0   2   4 135.625 5.52089  16
   0  -2  -4 129.465 4.84374  10
  -2  -2  -4 1090.28 33.2222   4
  -2   2   4 1086.16 33.0032   4
  -2  -2  -4 1070.61 33.4383  10
   2   2  -4 1061.46 33.0979  10
  -2   2   4 1038.64 34.3863  16
   2   2   4 1029.50 34.4842  16
   2  -2  -4 1079.15 33.1094   4
   2  -2  -4 1092.65 33.5171  10
   2   2   4 1080.13 32.8619   4
  -4   2   4 0.94335 0.47579   4
   4   2  -4 1.21813 0.53080  10
  -4   2   4 0.48874 0.80021  16
  -4  -2  -4 0.06261 0.43653  10
  -4  -2  -4 1.03002 0.66288   4
   4   2  -4 0.95718 0.65320   4
   4  -2  -4 -0.1616 0.69275  10
   4   2   4 0.39091 0.91501  16
   4   2   4 0.13604 0.30456   4
  -4   2  -4 0.57229 0.55372   4
  -4  -2   4 -0.1161 0.64595  16
  -6  -2  -4 197.857 7.34771  10
   6  -2   4 190.244 7.70056   8
   6   2  -4 191.685 7.19699  10
   6  -2   4 186.856 7.49946  15
   6  -2   4 197.445 8.02958   2
  -6  -2  -4 199.906 8.22765   7
   6  -2   4 201.287 11.8856  14
   6   2  -4 191.898 6.86568   4
   6  -2   4 191.926 7.11309   3
  -6  -2  -4 192.312 6.95432   4
  -6   2   4 191.978 7.40539   7
   6  -2  -4 192.174 6.76080   4
   6  -2  -4 190.520 7.58429  10
  -6  -2   4 200.116 8.75203  12
  -6  -2   4 206.634 7.70727  16
  -6  -2   4 192.800 9.35583  11
  -6  -2   4 195.125 7.47412   3
   6  -2  -4 193.066 8.25230   3
   6   2   4 186.868 7.65039   2
  -6  -2   4 191.245 7.51022   5
  -6   2  -4 204.891 8.37852   4
   8  -2   4 273.572 9.70979   6
  -8   2   4 274.779 10.7324  16
   8  -2   4 273.410 10.0907   8
  -8  -2  -4 283.281 10.5532   7
   8  -2   4 278.754 9.48462   3
   8  -2   4 269.424 9.64354  15
   8  -2   4 280.000 14.0843  14
  -8   2   4 274.146 9.94367   7
  -8  -2  -4 265.757 11.3405   3
   8  -2  -4 273.233 10.3254   3
  -8  -2   4 277.943 10.0914  16
   8   2   4 254.363 10.9853  16
  -8  -2   4 284.281 9.90590   3
  -8  -2   4 273.571 9.87550   5
   8   2   4 264.746 10.4221   3
  -8   2  -4 281.928 10.3237   7
  -8  -2   4 269.723 10.1983   9
 -10   2   4 3.82531 1.08704  16
  10  -2   4 3.91311 0.89914   6
 -10  -2  -4 3.30689 0.91908   7
 -10  -2  -4 7.51649 1.66303   3
 -10  -2   4 3.67043 0.94425   3
 -10  -2   4 3.13140 0.86827   9
  10   2   4 5.43254 1.22148   3
  10  -2  -4 1.82253 0.92853   3
 -10   2  -4 4.61665 1.22453   7
  -1   3   4 1114.12 34.2935   4
  -1  -3  -4 1098.00 34.8025  10
  -1  -3  -4 1097.83 34.3690   4
   1  -3  -4 1104.37 34.8891   4
   1  -3  -4 1134.34 35.4800  10
   1   3   4 1121.00 34.7312   4
  -3  -3  -4 474.745 14.9812   4
  -3   3   4 467.983 14.8520   4
  -3   3   4 455.224 16.2197  16
  -3  -3  -4 467.340 15.3788  10
   3   3  -4 456.285 15.0673   4
   3  -3  -4 477.735 15.6248  10
   3   3   4 463.761 14.6492   4
   3   3   4 458.080 16.2371  16
   3  -3  -4 462.056 14.8505   4
   5  -3   4 10.0957 1.62648   6
  -5  -3  -4 11.6946 1.63077  10
   5  -3   4 8.11682 2.30730  12
  -5   3   4 12.3063 1.17813   4
  -5   3   4 12.9886 1.89512   7
   5  -3   4 9.21020 2.14495   5
   5   3  -4 9.58559 1.60685   4
  -5  -3  -4 8.44300 1.30806   4
   5  -3   4 9.93174 1.95686   8
   5  -3   4 11.1895 1.86693  15
  -5   3   4 11.0001 2.10877  16
   5  -3   4 10.7483 3.62959  14
  -5  -3  -4 13.4716 2.46490   7
  -5  -3   4 10.9643 1.75557   6
  -5  -3   4 11.7541 2.64693  12
  -5  -3   4 14.3526 1.81298   3
  -5  -3   4 11.2921 1.46593  16
  -5  -3   4 15.3086 3.01823  11
   5  -3  -4 9.22364 1.32797   4
   5  -3  -4 8.91619 1.88602   3
  -5  -3   4 15.9342 2.06955   5
   5  -3  -4 11.7238 2.10620  10
   5   3   4 13.7761 2.04375  16
   7  -3   4 2038.76 63.1575  12
  -7  -3  -4 2001.86 63.2210   7
   7  -3   4 1968.96 61.5660  15
  -7  -3  -4 1991.71 63.6618   3
   7  -3   4 1803.43 61.4656   5
   7  -3   4 1891.15 60.7303   3
  -7   3   4 2006.71 62.4358   7
   7  -3   4 1951.45 61.4121   6
   7  -3   4 2013.01 61.7844   8
   7  -3   4 2116.93 68.1691  14
  -7  -3   4 1916.97 61.5396   5
  -7  -3   4 2032.99 63.1514  12
  -7  -3   4 2015.78 62.3734  11
   7  -3  -4 1903.47 60.9009   3
  -7  -3   4 1890.79 61.4185   3
  -7   3  -4 2023.72 63.6894   7
  -9  -3  -4 148.306 6.06127   3
  -9  -3  -4 142.004 6.82247  16
   9  -3   4 140.693 5.17760  13
   9  -3   4 121.389 5.85190  12
   9  -3   4 142.162 7.60318  14
   9  -3   4 147.210 5.91515   6
  -9   3   4 143.149 6.23312  16
   9   3   4 139.052 6.07854   3
   9   3   4 139.647 5.82978  16
  -9  -3   4 147.373 6.11739   9
   9  -3  -4 132.935 5.06119   7
  -9   3  -4 147.187 5.63253   7
   0  -4  -4 40.3968 2.56922  10
   0  -4   4 41.4032 5.41243  14
   0   4   4 37.0189 1.93950   4
   0   4   4 37.5090 3.07366  16
   0  -4  -4 38.0226 1.95367   4
   0  -4   4 35.5839 3.96756  11
  -2   4   4 390.271 12.4438   4
  -2  -4  -4 381.307 12.4467   4
   2  -4   4 381.108 13.2741  15
   2  -4   4 386.346 14.0940  12
   2  -4   4 387.127 12.7498  13
  -2  -4  -4 379.107 13.6572   7
  -2   4   4 380.660 13.2769   7
  -2  -4  -4 402.970 13.1950  10
   2  -4   4 370.590 13.1362   5
   2  -4   4 388.358 18.1679  14
  -2   4   4 396.032 14.0047  16
   2  -4   4 373.352 12.9199   6
  -2  -4  -4 358.643 14.2486   3
   2   4   4 369.471 12.9842   7
  -2  -4   4 385.995 13.0710  13
  -2  -4   4 385.491 14.1571  12
  -2  -4   4 380.338 14.6049  11
   2   4   4 387.252 12.0825   4
   2  -4  -4 364.946 13.4441   7
   2  -4  -4 351.070 14.1214  10
  -2  -4   4 384.850 13.0413   6
   2  -4  -4 363.066 13.3545   3
   2   4   4 385.236 13.9206  16
  -2  -4   4 373.817 13.1751   5
  -4  -4  -4 -1.5598 1.24036   3
  -4   4   4 0.40661 1.37554  16
   4  -4   4 -0.7583 1.37744  15
   4  -4   4 -0.0489 1.32233   5
   4  -4   4 1.33179 0.94561  13
   4  -4   4 -0.6221 0.91727   6
  -4  -4  -4 -0.4592 1.35002   7
  -4   4   4 -0.9815 1.11112   7
   4  -4   4 -0.6884 1.12585   8
   4  -4   4 0.76666 1.88002  14
   4  -4  -4 -1.6918 1.28950   7
  -4  -4   4 2.00576 1.40081   3
  -4  -4   4 -1.7296 1.16415  13
   4   4   4 1.45898 1.29846  16
   4  -4  -4 -1.2361 1.98118  10
  -4  -4   4 -0.9387 1.67065  11
   4  -4  -4 -0.1307 1.26384   3
  -4  -4   4 0.68974 0.95195   6
  -4  -4   4 1.07939 1.26859   5
   6  -4   4 118.829 4.99923   5
  -6   4   4 129.809 6.05462  16
   6  -4   4 128.684 6.33938  12
   6  -4   4 123.705 5.27515  15
  -6  -4  -4 119.679 5.94786   3
   6  -4   4 114.954 5.14949   8
   6  -4   4 118.709 4.93492   6
   6  -4   4 130.891 8.95945  14
  -6   4   4 123.664 5.19515   7
   6  -4   4 123.316 4.96813  13
  -6  -4  -4 120.142 5.48342   7
  -6  -4   4 120.576 6.23753  12
   6  -4  -4 112.559 5.38416   7
  -6  -4   4 113.492 4.87154   3
  -6  -4   4 121.398 6.00753  11
   6   4   4 119.533 6.02615  16
  -6  -4   4 124.309 5.32827   5
   6  -4  -4 122.463 5.54474   3
   8  -4   4 167.366 5.94645  15
   8  -4   4 167.936 5.96049  13
  -8  -4  -4 162.120 7.20140   3
   8  -4   4 163.740 6.83164   6
  -8   4   4 162.268 6.82725  16
  -8  -4  -4 150.748 6.53118   7
   8  -4   4 154.104 6.78262  12
   8  -4   4 152.783 8.31393  14
  -8  -4   4 169.288 6.25183  11
  -8  -4   4 165.013 5.76976   2
  -8   4  -4 170.509 6.09855   7
   8   4   4 168.052 6.74855  16
  -8  -4   4 162.209 5.84858   5
  -8  -4   4 173.552 6.26068   9
  -8  -4   4 165.109 5.45676   3
   8  -4  -4 179.635 6.88050   3
   1  -5   4 338.244 11.6285   6
   1  -5   4 321.100 11.6466  15
  -1  -5  -4 338.013 12.5689   3
  -1  -5  -4 330.605 11.9863   7
   1  -5   4 325.028 12.3605  11
   1  -5   4 337.432 12.7686  12
  -1   5   4 325.248 11.8560   7
   1  -5   4 334.179 11.4814  13
   1  -5   4 350.689 17.0237  14
  -1   5   4 341.316 12.9073  16
   1  -5   4 337.966 11.5712   5
  -1  -5   4 338.684 12.9553  12
  -1  -5   4 342.654 16.4011  14
   1  -5  -4 321.171 11.7295   7
   1  -5  -4 330.793 12.2539   3
  -1  -5   4 336.383 11.6082  13
  -1  -5   4 332.524 11.8698  15
   1   5   4 332.398 12.7892  16
   1   5   4 321.785 11.7270   7
  -1  -5   4 322.433 11.6944   5
  -1  -5   4 336.404 11.7758   6
  -1  -5   4 348.695 13.0390  11
  -3  -5  -4 170.683 7.39848   3
  -3  -5  -4 150.590 6.68088   7
   3  -5   4 164.985 6.51355   6
   3  -5   4 167.480 6.38610  13
   3  -5   4 173.165 7.50425  12
   3  -5   4 173.348 11.1362  14
   3  -5   4 166.388 6.70243  15
   3  -5   4 173.974 6.62008   5
  -3   5   4 175.818 6.86617   7
  -3  -5   4 175.024 7.92871  11
   3  -5  -4 165.515 7.11628   3
  -3  -5   4 167.018 6.45018  13
  -3  -5   4 175.707 7.69856  12
  -3  -5   4 167.906 6.65583   9
   3  -5  -4 158.719 6.53811   7
  -3  -5   4 167.879 10.0328  14
  -3  -5   4 170.778 6.58733   6
  -3  -5   4 168.630 6.50640   5
   5  -5   4 14.4065 1.51377  13
  -5   5   4 17.5342 1.84202   7
   5  -5   4 15.0445 2.15053  12
   5  -5   4 15.2237 1.54103   6
  -5  -5  -4 15.2464 2.32064   3
   5  -5   4 17.8871 1.73190   5
  -5   5   4 14.3796 2.26301  16
   5  -5   4 14.6426 1.88530  15
  -5  -5  -4 13.3385 1.85056   7
   5  -5   4 16.2851 3.76921  14
  -5  -5   4 13.2868 1.36184   6
  -5  -5   4 14.5517 2.32795  12
   5  -5  -4 14.7935 2.02920   3
  -5  -5   4 15.6018 2.26296  11
  -5  -5   4 14.7873 1.53785   5
   5   5   4 14.2637 1.90580  16
  -5  -5   4 13.0089 1.68678   9
  -7  -5  -4 1068.26 33.9903   3
   7  -5   4 1073.90 33.3111  12
   7  -5   4 1065.80 32.3354  13
   7  -5   4 1062.72 32.4324  15
   7  -5   4 1023.75 32.2840   5
   7  -5   4 976.717 35.1510  14
  -7   5   4 1104.05 33.6361   7
   7  -5   4 1003.50 32.2650   6
   7  -5  -4 1022.86 32.3675   3
  -7  -5   4 994.999 32.6983   9
  -7  -5   4 1036.09 33.0579  11
   7   5   4 996.981 32.3907   3
   0  -6   4 6.47179 1.85209  11
   0  -6   4 9.21708 1.93572  12
   0  -6   4 7.74863 1.35228  13
   0  -6   4 9.61120 1.43953   6
   0  -6   4 7.96707 3.24983  14
   0  -6   4 10.0424 1.42332   5
   0   6   4 8.77237 1.50581   7
   0  -6  -4 7.66628 1.85422   3
   0  -6   4 8.07675 1.28742  15
   2  -6   4 135.045 6.05497  12
   2  -6   4 135.114 5.21096  13
   2  -6   4 141.129 8.84939  14
   2  -6   4 136.471 5.31124   5
   2  -6   4 136.477 5.29439  15
  -2   6   4 135.777 6.18829  16
  -2  -6  -4 140.362 5.93369   3
   2  -6   4 135.318 5.24774   6
  -2   6   4 135.941 5.58832   7
  -2  -6   4 125.627 7.98052  14
  -2  -6   4 138.511 6.14073  12
  -2  -6   4 137.586 5.23462   6
   2   6   4 136.238 6.40158  16
   2  -6  -4 141.224 5.86100   3
  -2  -6   4 135.985 5.12393  13
  -2  -6   4 136.002 5.23094   5
  -2  -6   4 137.761 6.01832  11
   4  -6   4 -0.4934 0.52067  13
   4  -6   4 0.38648 1.33976  15
   4  -6   4 0.45732 2.05746  14
   4  -6   4 0.69421 0.55111   6
  -4   6   4 0.05985 1.26962  16
  -4  -6   4 1.26074 1.00978   6
   4  -6  -4 -1.0016 0.89044   5
  -4  -6   4 0.10904 0.77594   5
   4   6   4 0.82416 1.09618  16
  -4  -6   4 -0.4432 0.93477  11
   6  -6   4 64.1333 2.38354  13
   6  -6   4 66.4267 2.66332  15
   6  -6   4 59.6970 2.71491   6
   6  -6   4 65.7453 2.49118   5
  -6   6   4 67.2346 2.67374   7
   6  -6   4 57.1228 3.13264  12
  -6  -6   4 61.2724 2.84730   9
  -6  -6   4 65.4414 3.30805  11
   1  -7   4 93.5640 5.69981  14
   1  -7   4 109.024 4.28122  12
  -1  -7  -4 94.7221 4.42747   3
   1  -7   4 110.038 4.40705   6
   1  -7   4 105.475 3.75091  13
  -1  -7   4 108.391 4.14185   6
   1  -7  -4 111.136 4.40863   3
  -1  -7   4 107.456 3.85315   5
  -1  -7   4 105.635 4.27908  12
  -3  -7  -4 67.9538 2.81111   3
   3  -7   4 67.6405 3.21412  12
   3  -7   4 70.7781 2.68511   5
   3  -7  -4 66.7342 2.61343   3
   0   0  -5 266.163 8.49734  10
   0   0  -5 263.853 8.48300   4
  -2   0   5 2005.94 65.0640  16
  -2   0  -5 2182.38 66.0123   4
   2   0  -5 2255.17 69.6658  10
  -2   0  -5 2209.10 66.1182  10
  -4   0   5 82.2008 3.77411  16
  -4   0  -5 89.0762 3.35652   4
   4   0  -5 89.4879 3.77608  10
  -4   0  -5 89.2668 3.40865  10
   4   0  -5 88.1518 3.90629   4
   4   0   5 85.8349 3.73184  16
  -6   0   5 299.745 10.9295   5
   6   0   5 295.648 10.8943   8
  -6   0   5 298.474 10.9047   9
   6   0   5 292.864 10.8404   3
  -6   0  -5 306.948 10.5097   4
   6   0   5 297.810 11.2033   2
   6   0   5 305.601 10.6494  16
  -6   0  -5 310.533 10.5450  10
  -6   0   5 314.750 11.1115  16
  -6   0   5 310.239 10.8193   3
   6   0  -5 307.001 10.7689  10
   6   0  -5 302.065 10.2216   4
   8   0   5 368.485 17.5563  14
   8   0   5 342.978 12.3490   8
  -8   0  -5 379.003 13.7317   7
   8   0   5 358.436 12.5647   3
  -8   0   5 369.954 12.8376   3
 -10   0  -5 16.3033 1.92602   7
 -10   0   5 15.1744 1.91762  16
  10   0   5 13.3960 1.32513   3
  10   0   5 13.1776 2.96149  14
  -1  -1  -5 505.842 15.6930  10
  -1   1   5 501.664 16.1843  16
  -1  -1  -5 499.964 15.4936   4
   1   1  -5 504.706 15.8378  10
   1  -1  -5 513.656 16.2741  10
   1  -1  -5 499.563 15.9726   4
  -1   1  -5 477.123 15.2849  10
  -1   1  -5 473.086 15.3558  10
  -3   1   5 41.5602 2.37659  16
   3   1  -5 44.5523 1.91799   4
  -3  -1  -5 43.8502 2.02330  10
   3   1  -5 42.2082 2.04064  10
  -3  -1  -5 40.5370 1.87216   4
   3  -1  -5 42.4812 2.32692  10
  -3   1  -5 41.3463 1.75816   4
  -3   1  -5 41.7190 1.73766  10
   3   1   5 41.9115 2.47395  16
  -5  -1  -5 22.0798 1.56716  10
  -5   1   5 20.5034 2.11502  16
  -5  -1  -5 19.1170 1.44485   4
   5  -1   5 19.7250 2.74976   8
   5   1  -5 17.6149 1.56452   4
   5  -1   5 25.8143 5.47375  14
  -5   1   5 18.8286 2.15132   3
   5   1  -5 18.5615 1.67989  10
   5   1   5 20.5818 1.99065  16
   5  -1  -5 20.3484 1.96221  10
   5  -1  -5 18.7114 1.65607   4
  -5  -1   5 19.7183 1.84596  16
  -5   1  -5 17.6995 1.51091   4
   7   1  -5 1408.89 44.9724  10
   7   1  -5 1335.08 45.2546   4
  -7   1   5 1343.41 44.8533   3
   7  -1   5 1540.84 57.2900  14
  -7  -1  -5 1407.70 45.1501  10
  -7   1   5 1485.79 45.2542  16
   7   1   5 1486.72 46.3880  16
   7   1   5 1426.66 46.5514   2
  -7  -1   5 1482.97 44.5261  16
  -7   1  -5 1358.04 45.2957   4
  -7   1  -5 1432.27 45.2084  10
   9  -1   5 173.638 9.72663  14
  -9   1   5 175.220 7.19145  16
  -9  -1  -5 187.863 7.40745   7
   9  -1   5 174.533 6.57951   6
   9  -1   5 177.111 6.30771   3
   9  -1   5 173.001 6.65907   8
   9   1   5 171.298 9.94848  14
  -9   1  -5 184.612 7.22634   7
   9   1   5 173.339 6.75759   3
  -9  -1   5 174.127 6.60475   3
 -11  -1  -5 30.9005 1.65214   7
  11  -1   5 28.8777 1.30558   6
 -11   1  -5 30.8937 1.55877   7
 -11  -1   5 29.6612 1.43038   2
   0   2   5 160.537 6.36468  16
   0  -2  -5 167.161 6.06331  10
  -2  -2  -5 1459.51 44.3228  10
  -2  -2  -5 1416.49 44.0323   4
  -2   2   5 1370.10 45.1342  16
   2   2  -5 1362.96 43.2701  10
   2  -2  -5 1448.03 44.2443  10
   2   2   5 1405.84 45.3468  16
   2  -2  -5 1416.96 43.7486   4
  -4  -2  -5 54.0951 2.51861   4
  -4   2   5 52.9886 3.19217  16
   4   2  -5 53.1632 2.88814   4
   4   2  -5 55.1073 2.62934  10
  -4  -2  -5 55.1969 2.72793  10
   4  -2  -5 57.5392 3.15051  10
   4   2   5 56.9014 3.32785  16
   4  -2  -5 53.3862 2.58551   4
   6  -2   5 259.327 9.44231  15
   6  -2   5 240.588 8.60060   3
   6  -2   5 257.637 9.78094   2
   6  -2   5 265.234 9.71584   8
  -6   2   5 255.600 9.46609   7
  -6   2   5 274.572 10.3220  16
   6  -2   5 263.427 14.3264  14
  -6  -2  -5 259.379 9.50185  10
   6  -2   5 250.763 9.24885   6
  -6  -2  -5 268.501 10.3529   7
   6   2  -5 254.870 9.05678  10
   6   2  -5 240.741 8.85146   4
   6   2   5 256.465 9.94929  16
   6  -2  -5 249.822 9.63531  10
  -6  -2   5 263.699 9.24601   3
  -6  -2   5 262.599 10.1338  11
  -6  -2   5 272.754 10.7603  12
   6   2   5 254.903 9.60516   2
   6  -2  -5 238.294 9.64866   3
  -6  -2   5 254.618 9.19060  16
   6   2   5 242.415 9.14780  15
  -6  -2   5 259.639 9.69709   5
  -6  -2   5 259.233 10.0243   9
   8  -2   5 314.316 11.9123  12
   8  -2   5 291.559 10.5078  15
   8  -2   5 317.490 15.2057  14
  -8   2   5 295.022 10.4679   7
  -8   2   5 315.721 11.6492  16
   8  -2   5 297.079 9.98141   3
   8   2   5 306.774 11.1324  16
  -8  -2   5 327.043 11.2346   9
  -8   2  -5 315.661 11.2900   7
   8  -2  -5 290.235 10.8033   3
  -8  -2   5 298.309 10.2874  16
  10  -2   5 12.2896 1.05998   6
  10  -2   5 11.0605 1.11683  13
  10  -2   5 11.7100 1.70366  12
 -10  -2  -5 13.7022 1.63162   7
  10  -2  -5 13.2941 1.26470   3
  10   2   5 11.7919 2.07415  14
  10   2   5 12.1288 1.30696   3
  -1   3   5 223.404 8.71954  16
  -1  -3  -5 221.467 7.67408   4
  -1   3   5 228.511 7.32420   4
  -1  -3  -5 225.124 8.16093  10
   1  -3  -5 221.203 7.55209   4
   1   3   5 220.428 8.63968  16
   1  -3  -5 220.001 8.14402  10
   1   3   5 218.807 7.14370   4
   3  -3   5 25.6968 2.81840   5
  -3  -3  -5 27.9844 1.78377   4
  -3   3   5 28.9742 1.42488   4
   3  -3   5 30.2959 2.81737  12
   3  -3   5 28.4617 5.51344  14
  -3   3   5 28.3866 2.50190  16
   3  -3   5 27.0764 2.67622   8
  -3   3   5 26.0303 2.32638   7
   3  -3   5 29.6335 2.57173  13
  -3  -3   5 30.9649 2.43048   6
   3  -3  -5 25.1567 1.78803   4
  -3  -3   5 26.0539 2.92374   2
   3   3   5 26.4577 2.44346  16
  -3  -3   5 30.9788 3.11707   9
  -3  -3   5 28.1646 3.83547  12
  -5   3   5 20.7215 2.29449  16
   5  -3   5 15.1392 1.76273   6
   5  -3   5 12.6494 2.19166   5
   5  -3   5 16.9751 1.89851  13
   5  -3   5 16.4742 3.00908   2
  -5  -3  -5 16.4422 2.77961   3
  -5   3   5 12.0486 1.99639   7
   5  -3   5 16.3588 2.95159  12
   5  -3   5 17.5381 4.17773  14
  -5  -3  -5 17.0119 2.46333   7
   5  -3   5 16.9815 2.20004   8
   5  -3   5 14.5106 2.12259  15
  -5  -3   5 17.0339 2.63338  12
  -5  -3   5 13.8075 1.89472   6
  -5  -3   5 15.7171 2.39196   9
   5   3   5 15.1323 2.15018  16
  -5  -3   5 15.0057 1.58068   3
  -5  -3   5 18.4775 2.62888  11
  -5  -3   5 16.4699 2.08360   5
   5  -3  -5 15.6595 2.18943   3
   5  -3  -5 13.7526 3.02299  10
  -7   3   5 984.138 31.7073  16
   7  -3   5 1168.49 34.9686   8
   7  -3   5 967.217 32.5054   6
  -7  -3  -5 967.000 32.0039   7
  -7  -3  -5 945.583 31.8512   3
   7  -3   5 998.498 32.3361  13
   7  -3   5 963.175 34.9190  12
  -7   3  -5 950.590 31.2326   7
  -7  -3   5 904.407 31.3827   9
   7   3   5 966.983 32.8328  16
  -7  -3   5 997.361 31.8479  12
   9  -3   5 118.790 4.26369  13
   9  -3   5 118.093 4.94088  12
  -9  -3  -5 118.016 4.90292   7
  -9   3   5 112.642 5.70406  16
   9  -3   5 116.038 4.35265   6
   9  -3   5 115.464 8.12825  14
   9  -3   5 112.508 4.12974  15
  -9  -3  -5 120.677 5.06482   3
   9  -3  -5 108.367 4.59824   3
  -9  -3   5 119.084 4.43145   2
  -9  -3   5 118.625 4.50403   9
   9  -3  -5 112.333 4.32888   7
   9   3   5 117.703 4.77649   3
   0   4   5 43.6947 2.86575   7
   0  -4  -5 38.7911 3.26084   3
   0  -4   5 44.2521 2.77850  13
   0  -4   5 46.3660 6.14898  14
   0   4   5 46.3164 3.34183  16
   0  -4   5 46.4343 3.49854  12
   0  -4  -5 44.6197 3.25007   7
   0  -4  -5 45.6781 2.29469   4
   0  -4   5 42.9375 2.70718  15
   0  -4   5 46.7123 2.82767   6
   0  -4   5 48.2871 2.72559   5
   0  -4   5 46.8475 3.74736  11
   0  -4  -5 43.4067 2.88843  10
   0   4   5 42.6870 2.03131   4
  -2   4   5 598.159 19.9620  16
   2  -4   5 573.529 20.0709  12
   2  -4   5 553.357 18.7611   6
  -2   4   5 549.769 18.1146   4
   2  -4   5 572.843 19.0972  15
   2  -4   5 582.403 19.0230   5
  -2  -4  -5 573.512 19.1021  10
  -2   4   5 555.722 18.8373   7
   2  -4   5 584.203 24.6469  14
  -2  -4  -5 576.926 19.4367   7
   2  -4   5 568.409 18.6981  13
  -2  -4  -5 557.826 19.8015   3
  -2  -4  -5 546.076 18.3276   4
  -2  -4   5 571.035 23.3154  14
  -2  -4   5 556.689 18.7010   5
   2  -4  -5 580.672 19.3551  10
  -2  -4   5 555.652 18.8660   9
  -2  -4   5 575.163 18.5826  13
  -2  -4   5 581.846 20.1010  11
   2   4   5 571.549 19.9472  16
   2  -4  -5 553.135 19.4297   3
  -2  -4   5 576.779 19.9928  12
  -2  -4   5 571.939 18.6511   6
   2  -4  -5 557.815 19.1841   7
   4  -4   5 14.0764 2.08822  13
   4  -4   5 16.4563 2.11087   8
   4  -4   5 18.3562 2.90803  12
   4  -4   5 15.5964 2.39568  15
  -4   4   5 17.7889 2.29830  16
   4  -4   5 17.1874 1.86211   5
   4  -4   5 19.7610 4.32296  14
  -4   4   5 17.8004 2.09824   7
   4  -4   5 16.3991 1.80258   6
  -4  -4  -5 13.4723 2.22427   7
  -4  -4  -5 16.2071 2.60185   3
  -4  -4   5 19.5742 2.08004   9
   4  -4  -5 15.7627 2.27557   3
  -4  -4   5 19.3252 1.98402   5
  -4  -4   5 16.1577 1.74463   6
  -4  -4   5 16.4609 2.83866  12
   4   4   5 18.8731 2.38691  16
   4  -4  -5 19.9009 2.43762   7
  -4  -4   5 14.5673 2.04816   2
  -4  -4   5 17.8200 1.93366  13
  -4  -4   5 16.3530 2.74065  11
   6  -4   5 175.897 7.88569  12
  -6   4   5 180.449 7.62487  16
  -6  -4  -5 174.065 7.53694   3
   6  -4   5 175.732 6.60978   6
   6  -4   5 178.984 6.80630  15
   6  -4   5 167.112 6.58546   8
   6  -4   5 178.026 10.6340  14
  -6  -4  -5 174.815 7.72302   7
  -6   4   5 171.489 6.68987   7
   6  -4   5 172.298 6.98060  13
   6  -4   5 167.203 6.37991   5
  -6  -4   5 177.559 7.84865  12
  -6  -4   5 171.345 6.61443   5
   6   4   5 170.738 7.43960  16
   6  -4  -5 159.099 6.88167   3
  -6  -4   5 174.142 6.46100   2
  -6  -4   5 175.734 7.50401  11
  -6  -4   5 178.380 7.12240   9
   6  -4  -5 167.798 6.73239   7
  -8  -4  -5 206.366 7.40575   7
  -8  -4  -5 209.539 7.75274   3
   8  -4   5 189.156 9.18140  14
   8  -4   5 195.665 6.79118  13
   8  -4   5 209.240 7.61731  12
   8  -4   5 200.033 6.79958   6
   8  -4   5 190.223 6.81178  15
   8   4   5 204.867 7.32099   3
  -8  -4   5 197.314 7.42259   2
  -8  -4   5 197.682 8.16487  11
   8   4   5 189.434 8.89366  16
  -8  -4   5 205.547 7.19818   9
  -8  -4   5 199.791 6.84001   5
   8  -4  -5 195.986 7.12674   3
   1  -5   5 71.6822 4.34980  12
   1  -5   5 69.6439 3.50346   5
  -1   5   5 70.9700 3.67615   7
   1  -5   5 70.1508 3.31705  13
   1  -5   5 70.5042 3.43789   6
  -1  -5  -5 71.8472 4.37492   3
   1  -5   5 71.0202 6.89621  14
   1  -5   5 65.4902 4.06007  11
   1  -5   5 67.3395 3.39128  15
  -1  -5  -5 73.0993 3.98025   7
  -1  -5   5 72.2894 3.40360  13
  -1  -5   5 71.4426 4.30928  11
   1  -5  -5 64.6679 3.67781   7
   1   5   5 70.0794 3.58149   7
  -1  -5   5 71.6008 4.40015  12
  -1  -5   5 69.8038 3.52887   6
  -1  -5   5 71.4199 6.56755  14
   1  -5  -5 67.8905 4.15998   3
  -1  -5   5 70.5089 3.58248   5
  -3   5   5 14.9651 2.33148  16
   3  -5   5 20.4328 1.76766  13
   3  -5   5 22.8098 4.32709  14
   3  -5   5 20.4463 1.78864   6
   3  -5   5 18.0857 2.06346  15
   3  -5   5 19.6513 2.36033  12
  -3  -5   5 21.9522 1.94455  13
  -3  -5   5 22.3522 3.72073  14
  -3  -5   5 20.4151 2.58281  12
  -3  -5   5 18.0108 3.10530  11
   3   5   5 16.9847 2.47026  16
  -3  -5   5 18.5476 2.87681   6
   5  -5   5 12.6304 1.50197   5
  -5   5   5 13.3314 1.46375   7
   5  -5   5 11.1596 1.58615  15
  -5  -5  -5 12.0310 1.79339   7
   5  -5   5 11.4085 1.34373   6
   5  -5   5 10.2997 2.67858  14
   5  -5   5 10.0383 1.76933  12
  -5   5   5 10.5235 2.26839  16
   5  -5   5 10.0932 1.26316  13
  -5  -5  -5 12.0720 2.09896   3
   5  -5  -5 10.1226 1.83381   3
  -5  -5   5 12.0476 1.72304   5
  -5  -5   5 11.4933 1.30299   6
  -5  -5   5 9.41096 1.68280  12
  -5  -5   5 11.6025 1.65119   9
  -5  -5   5 10.0035 1.87583  11
   7  -5   5 492.865 16.2739  12
   7  -5   5 508.383 15.5811  13
   7  -5   5 463.484 15.6055  15
   7  -5   5 492.420 15.5723   6
  -7  -5   5 481.289 15.1764   5
  -7  -5   5 462.353 15.5171   9
   7  -5  -5 477.801 15.7140   3
  -7  -5   5 496.890 16.5283  11
   0  -6   5 10.0509 2.75280  14
   0  -6   5 9.83605 1.25787  13
   0  -6   5 8.97117 1.30036   6
   0   6   5 7.76293 1.80742  16
   0  -6   5 10.3693 1.82252  12
   0   6   5 6.59999 1.37839   7
   0  -6  -5 9.10567 1.76597   3
   0  -6   5 9.57781 1.30112  15
   0  -6   5 8.84782 1.48123   5
   2  -6   5 226.299 8.58988  12
   2  -6   5 228.928 7.83962   5
  -2  -6  -5 225.290 8.27602   3
   2  -6   5 220.577 7.62902  13
   2  -6   5 220.592 11.1788  14
   2  -6   5 220.125 7.74747   6
  -2   6   5 218.303 7.70769   7
  -2   6   5 214.711 8.53923  16
   2  -6  -5 228.228 8.42447   3
   2   6   5 210.197 8.86406  16
  -2  -6   5 220.417 7.41773   6
  -2  -6   5 212.896 7.54149   5
  -2  -6   5 220.748 7.38202  13
  -2  -6   5 195.341 9.88393  14
  -2  -6   5 201.278 8.32093  12
  -4  -6  -5 4.82589 1.40374   3
   4  -6   5 3.32281 1.18199  12
  -4   6   5 4.45982 0.95333   7
   4  -6   5 1.92064 0.65715   5
   4  -6   5 1.90731 0.56588   6
   4  -6   5 3.24146 0.74194  15
   4  -6   5 1.70425 1.30610  14
  -4  -6   5 5.27342 1.15242   5
  -4  -6   5 4.13069 1.38422  12
  -4  -6   5 4.14209 0.87176   6
   4  -6  -5 2.81878 0.97405   3
   6  -6   5 102.558 3.57620  13
   6  -6   5 97.9918 3.72993  15
   6  -6   5 89.0102 3.78198  12
   6  -6  -5 97.2247 3.58781   3
  -6  -6   5 91.6909 3.75681  11
   1  -7   5 23.0955 2.24230  14
   1  -7   5 23.0761 1.22642   5
   1  -7   5 23.0715 1.50124  12
  -1  -7  -5 21.8107 1.49203   3
   1  -7   5 22.8190 1.21234   6
  -1  -7   5 23.3808 1.81493  12
   1  -7  -5 23.7588 1.37944   3
  -1  -7   5 23.7672 1.17516   5
  -1  -7   5 23.0230 1.22152   6
   0   0  -6 472.510 14.9451  10
   0   0  -6 461.665 14.7539   4
  -2   0  -6 192.538 6.20512   4
   2   0  -6 192.202 6.61364  10
  -2   0   6 179.682 6.40630  16
   2   0  -6 181.826 6.30680   4
  -2   0  -6 181.850 6.29544  10
  -4   0   6 17.6427 1.57566  16
  -4   0  -6 16.4712 1.38640   4
  -4   0  -6 16.5414 1.23681  10
   4   0  -6 15.3868 1.52361   4
   4   0  -6 17.5912 1.66357  10
  -6   0  -6 175.920 7.48586   7
  -6   0  -6 161.731 6.36385   4
   6   0   6 169.959 7.36963   2
  -6   0   6 174.326 6.48675   3
  -6   0   6 165.595 6.68332   9
   6   0   6 167.980 7.04040   9
  -6   0   6 173.471 6.72456   5
  -6   0   6 171.681 6.84774  16
   6   0  -6 167.703 6.81630  10
   6   0   6 164.581 6.65562  15
   6   0   6 166.359 6.63659   3
   6   0   6 164.939 6.08659  16
   6   0   6 168.368 6.83236   8
  -6   0  -6 169.980 6.39156  10
  -8   0  -6 13.7659 2.35631   7
  -8   0   6 8.87000 1.61007  16
   8   0   6 9.76734 4.77371  14
   8   0   6 11.7676 1.52174  15
   8   0   6 11.8597 1.62732   8
 -10   0  -6 20.0169 1.67957   7
  10   0   6 16.6887 2.16271  14
 -10   0   6 18.3217 1.27969   2
  10   0   6 17.3287 1.29033   6
   1   1  -6 37.4079 1.64145  10
  -1  -1  -6 38.8687 1.96837  10
  -1  -1  -6 36.5534 1.78638   4
  -1   1   6 35.4363 2.21710  16
   1  -1  -6 36.8211 1.84964   4
   1  -1  -6 36.4836 2.07240  10
   1   1   6 37.9449 2.32001  16
  -1   1  -6 38.5299 1.45381  10
  -3   1   6 201.006 7.41481  16
  -3  -1  -6 199.375 6.89057   4
   3   1  -6 207.439 7.04723  10
   3   1  -6 194.163 6.83938   4
  -3  -1  -6 210.728 7.07962  10
   3   1   6 204.528 7.64713  16
   3  -1  -6 207.540 7.49321  10
   3  -1  -6 204.931 7.03145   4
  -3   1  -6 191.852 6.82785  10
  -5  -1  -6 99.5499 4.09837  10
   5   1  -6 98.6049 4.27992  10
   5   1  -6 96.5427 4.11892   4
   5  -1   6 97.4277 4.81413   8
  -5  -1  -6 94.6388 3.94804   4
  -5  -1  -6 95.8352 5.05432   7
   5  -1   6 94.7869 4.85731   2
   5  -1   6 95.1353 4.61903  15
   5  -1   6 105.164 8.42557  14
   5   1   6 99.7914 4.51208  16
   5   1   6 97.6627 4.73144  15
   5   1   6 98.4653 4.92282   9
  -5  -1   6 99.7171 4.66923   9
  -5   1  -6 94.1075 3.75647  10
   5   1   6 99.6331 5.08366   2
   5  -1  -6 99.3099 4.63408  10
  -5  -1   6 97.8948 5.03272  11
  -5  -1   6 96.7927 4.58100   5
  -5  -1   6 98.9026 4.07042   3
  -5  -1   6 98.3124 3.92747  16
   7  -1   6 197.753 7.88739   2
   7  -1   6 190.954 6.98108   3
   7  -1   6 181.024 8.04357  12
  -7  -1  -6 202.077 8.46237   7
   7  -1   6 198.336 7.48426  15
   7  -1   6 198.397 7.78280   8
   7  -1   6 209.208 12.3277  14
  -7   1   6 207.462 8.19806  16
  -7  -1   6 199.050 7.64081   9
   7   1   6 188.703 7.33972   8
  -7  -1   6 206.653 7.42123   3
   7   1   6 192.213 7.61220   3
   7   1   6 191.686 7.83797   2
   7   1   6 188.216 7.30078  15
   7   1   6 195.864 7.72043  16
  -7   1  -6 203.849 8.18130   7
  -9   1   6 23.7770 2.05871  16
   9  -1   6 22.8726 1.54122  13
   9  -1   6 24.3391 1.72381   6
   9  -1   6 23.0364 1.80620   8
  -9  -1  -6 24.4958 2.31496   7
  -9   1   6 20.0888 1.54377   2
   9   1   6 21.6783 3.13861  14
   9   1   6 21.9143 1.70246   3
   0   2   6 317.014 11.3757  16
   0  -2  -6 320.676 10.8788  10
   0  -2  -6 318.003 10.5923   4
  -2   2   6 129.695 5.51184  16
  -2  -2  -6 129.522 5.07900  10
  -2  -2  -6 128.453 4.81721   4
   2   2   6 126.475 5.50230  16
   2  -2  -6 129.242 4.81123   4
   2  -2  -6 127.607 5.27164  10
   4  -2   6 11.5688 1.67721   6
   4  -2   6 11.9418 1.90449  15
  -4  -2  -6 13.1433 1.43336   4
  -4   2   6 8.83257 2.38159  11
  -4  -2  -6 14.3837 1.37581  10
   4  -2   6 8.63890 2.33021   2
  -4  -2  -6 14.4602 2.60148   7
   4  -2   6 15.5762 2.19838   8
   4  -2   6 11.5727 3.85996  14
  -4  -2   6 16.1789 3.35581  12
  -4  -2   6 11.5359 1.90745   9
  -4  -2   6 11.7962 1.78427   5
   4   2   6 13.4781 2.22989   9
   4   2   6 17.1291 2.00900  16
  -4  -2   6 8.94526 2.61330  11
   4  -2  -6 14.8374 1.74204  10
   4  -2  -6 12.5322 1.51778   4
   6  -2   6 143.683 5.90262   6
   6  -2   6 141.935 6.80295  12
   6  -2   6 146.668 6.04530  15
   6  -2   6 143.876 6.25601   8
  -6   2   6 146.920 6.51276  16
   6  -2   6 142.774 5.76809  13
  -6  -2  -6 151.022 6.83197   7
   6  -2   6 154.444 10.4657  14
   6  -2   6 144.709 6.29808   2
  -6  -2   6 143.619 6.53381  11
  -6  -2   6 152.767 6.37315   9
  -6  -2   6 142.606 6.10233   5
   6   2   6 141.265 5.82175  15
   6   2   6 143.091 6.34545  16
  -6  -2   6 144.908 5.40974   3
  -6  -2   6 149.359 7.14754  12
   6   2   6 143.177 6.36634   2
   8  -2   6 8.33161 1.22430  15
   8  -2   6 11.0570 1.76894   8
   8  -2   6 8.53209 1.26366  13
   8  -2   6 11.1467 1.45201   6
  -8   2   6 12.4449 1.85956  16
  -8  -2  -6 10.8140 1.96200   7
   8  -2   6 8.65607 1.61669  12
   8  -2   6 9.17618 2.87288  14
  -8  -2   6 10.5223 1.44295   9
  -8  -2   6 12.6805 1.67749   5
   8   2   6 10.8994 1.52871   3
  -8   2  -6 6.92387 2.17117   7
  -8  -2   6 11.0006 1.19826   3
 -10  -2  -6 13.4069 1.63145   7
  10  -2   6 14.2651 0.96591   6
  10  -2  -6 12.0138 1.08742   7
  10   2   6 13.8005 1.05915   3
 -10  -2   6 14.9676 1.06030   2
   1  -3   6 17.6646 2.01747  15
   1  -3   6 14.8538 2.36897   8
  -1  -3  -6 17.1670 1.68704  10
   1  -3   6 14.4526 2.10248   9
   1  -3   6 18.4940 2.47710   2
   1  -3   6 16.1411 4.31261  14
  -1   3   6 16.5997 2.05568  16
   1  -3   6 18.7633 2.59785  11
  -1   3   6 15.6024 2.06921   7
  -1  -3  -6 18.8444 1.56276   4
   1   3   6 16.6223 2.44977   9
   1  -3  -6 16.8025 1.60445   4
   1   3   6 19.3716 2.08375  16
   1  -3  -6 13.6580 1.96137  10
  -1  -3   6 14.3187 1.78686   6
  -1  -3   6 19.4004 2.12285   2
  -3   3   6 101.960 5.00849  16
  -3   3   6 98.7238 4.41131   7
   3  -3   6 107.287 8.41895  14
   3  -3   6 100.461 4.68117   8
  -3  -3  -6 104.964 4.51492  10
   3  -3   6 105.257 5.55113  12
   3  -3   6 99.0874 4.37830   5
  -3  -3  -6 100.434 5.15078   7
   3  -3   6 99.1069 4.37501   6
   3  -3   6 103.720 4.33208  13
   3  -3   6 93.4283 4.92979   2
   3  -3   6 96.8778 4.71442  15
  -3  -3  -6 99.9872 4.11608   4
  -3  -3   6 101.032 4.44980  13
   3  -3  -6 90.6128 5.07087   3
  -3  -3   6 101.007 5.41828  11
  -3  -3   6 99.7510 4.45382   2
  -3  -3   6 99.6313 4.52082   5
  -3  -3   6 103.089 4.84192   9
   3  -3  -6 101.112 4.12596   4
   3   3   6 97.1768 4.89855   9
   3  -3  -6 109.057 4.94345  10
  -3  -3   6 100.382 5.41843  12
   3  -3  -6 100.730 4.82054   7
   3   3   6 105.974 5.20324  16
  -3  -3   6 98.3607 4.26770   6
   5  -3   6 62.3619 3.19759   6
   5  -3   6 58.3595 3.73461   2
   5  -3   6 63.3973 4.23278  12
   5  -3   6 58.1647 3.09057  13
   5  -3   6 55.9411 3.51534   8
  -5   3   6 59.0151 3.08559   7
  -5   3   6 61.5664 3.78542  16
   5  -3   6 59.8860 3.47753  15
  -5  -3  -6 62.4997 3.90368   7
   5  -3   6 64.0558 6.63872  14
  -5  -3   6 58.3389 3.20126   6
   5   3   6 63.3606 3.80434  16
  -5  -3   6 60.5516 3.57751   9
  -5  -3   6 60.9333 3.29214   2
  -5  -3   6 60.5762 4.26528  12
  -5  -3   6 60.4145 4.08895  11
   5  -3  -6 57.4859 3.91435   3
  -5  -3   6 62.7431 3.43936   5
   7  -3   6 147.292 5.88040  15
  -7  -3  -6 151.771 6.48147   7
  -7   3   6 146.946 6.43848  16
   7  -3   6 152.275 6.58631  12
   7  -3   6 152.737 9.67851  14
   7  -3   6 145.877 5.72706   6
  -7   3   6 142.007 5.76386   7
   7  -3   6 146.006 6.00719   8
   7  -3   6 146.801 5.60065  13
  -7  -3   6 143.651 6.14037  11
  -7  -3   6 153.239 6.04438   9
   7  -3  -6 141.321 6.14477   3
  -7  -3   6 148.287 5.77757   2
  -7  -3   6 149.466 5.81407   5
   7   3   6 150.209 6.32667  16
  -7  -3   6 145.953 6.71183  12
   7  -3  -6 149.352 6.09638   7
   9  -3   6 17.2944 1.15908   6
   9  -3   6 14.1224 1.79289  14
   9  -3   6 14.5693 1.22973  12
  -9  -3  -6 18.4316 1.72330   7
   9  -3  -6 17.1338 1.42294   7
   9   3   6 17.4820 1.43922   3
  -9  -3   6 17.4506 1.55315   2
  -9  -3   6 15.2045 1.55888   9
   9   3   6 15.2399 2.40711  14
   9  -3  -6 13.2625 1.40855   3
   0  -4   6 135.416 5.79409   9
   0  -4  -6 125.308 5.09002   4
   0   4   6 131.273 6.26204  16
   0  -4   6 135.325 5.97026  15
   0  -4  -6 133.121 5.93270  10
   0  -4   6 141.279 14.3310  14
   2  -4   6 51.1691 2.78074   6
  -2   4   6 51.5933 3.56275  16
  -2   4   6 49.7309 2.98096   7
   2  -4   6 50.6364 3.30927   5
  -2  -4  -6 50.6905 3.53907   7
   2  -4   6 50.6084 3.28133  15
  -2  -4  -6 54.3139 3.82834   3
   2  -4   6 50.3992 5.98450  14
   2  -4   6 52.9596 3.85756  12
   2  -4   6 51.1114 2.75648  13
   2  -4   6 47.4647 4.12359   8
  -2  -4   6 51.2339 3.85341  12
  -2  -4   6 54.6037 3.81671  11
  -2  -4   6 47.8143 3.69530   2
  -2  -4   6 49.9045 2.81484   6
  -2  -4   6 51.6437 3.16786   5
  -2  -4   6 50.8220 2.82818  13
   2  -4  -6 52.4976 3.40501   7
  -2  -4   6 50.4040 3.02993   9
   2   4   6 50.3928 3.58068  16
  -2  -4   6 53.5151 6.20830  14
   2  -4  -6 49.4256 3.48845   3
   4  -4   6 4.95341 1.17011   8
   4  -4   6 6.12049 1.39727  13
   4  -4   6 7.55430 1.33782   6
   4  -4   6 6.13552 1.71799  15
  -4   4   6 7.29214 1.81980  16
   4  -4   6 4.89533 1.90500  12
  -4   4   6 5.92396 1.26700   7
   4  -4   6 6.66899 3.36945  14
  -4  -4  -6 7.89217 2.03880   7
  -4  -4  -6 7.70393 2.26427   3
   4  -4   6 7.48886 1.61214   5
  -4  -4   6 6.32279 1.62180   2
   4  -4  -6 7.01461 1.82582   7
  -4  -4   6 5.65125 2.16280  12
  -4  -4   6 7.15317 1.36879   6
  -4  -4   6 5.16275 1.40698   5
   4   4   6 9.63267 2.05686  16
   4  -4  -6 5.71521 1.48758   3
  -4  -4   6 7.30059 2.06532  11
  -4  -4   6 6.34869 1.59490   9
  -6   4   6 88.2870 4.74298  16
   6  -4   6 90.9592 4.09106  15
   6  -4   6 78.2448 4.36904  12
   6  -4   6 96.3076 7.14077  14
  -6   4   6 90.7285 3.77626   7
  -6  -4  -6 93.0300 4.52670   7
   6  -4   6 88.6809 3.91703   8
   6  -4   6 94.5092 3.79138  13
   6  -4   6 93.6670 3.86192   6
   6   4   6 90.9084 4.57147  16
  -6  -4   6 89.0064 4.52756  11
  -6  -4   6 93.1982 4.88991  12
  -6  -4   6 94.8352 4.01832   5
   6  -4  -6 89.5775 4.30297   3
  -6  -4   6 93.9177 4.20216   9
   6  -4  -6 86.8436 4.09354   7
  -6  -4   6 89.5791 3.70771   2
   8  -4   6 7.29797 0.96971  15
   8  -4   6 6.63578 0.85717  13
   8  -4   6 6.44045 1.34896  12
   8  -4   6 7.32762 0.86478   6
   8  -4   6 5.70233 1.68430  14
   8   4   6 5.31363 1.16005   3
   8  -4  -6 6.36738 1.15761   3
  -8  -4   6 4.43491 1.25914   2
  -8  -4   6 7.25737 0.95023   9
   1  -5   6 5.41244 1.58267  15
  -1   5   6 3.47551 1.29126  16
  -1   5   6 4.71532 1.43605   7
   1  -5   6 3.11919 1.26668  11
  -1  -5  -6 4.23512 1.54102   3
  -1  -5   6 6.69016 2.08082  11
  -1  -5   6 4.78926 2.71125  14
   1  -5  -6 3.49469 1.61872   3
  -1  -5   6 6.22101 1.63970   9
   3  -5   6 34.0369 2.65900  12
   3  -5   6 35.6078 2.03609  13
   3  -5   6 36.2748 2.23855   6
  -3   5   6 34.1485 2.68530  16
   3  -5   6 38.6166 2.36823  15
   3  -5   6 38.0392 2.33656   5
   3  -5   6 38.8688 4.97176  14
  -3  -5  -6 38.5574 2.64167   7
  -3   5   6 36.8408 2.25649   7
  -3  -5  -6 36.3277 3.06847   3
  -3  -5   6 41.0260 2.96321  11
   3  -5  -6 34.8210 2.67701   7
  -3  -5   6 36.4607 2.53525   5
   3  -5  -6 35.0038 2.78411   3
  -3  -5   6 38.1759 3.13773  12
  -3  -5   6 36.2501 2.18762   9
  -3  -5   6 36.2868 2.18350   6
  -3  -5   6 35.8311 2.11583  13
   3   5   6 37.5652 2.96129  16
   5  -5   6 33.5303 2.17128   6
  -5  -5  -6 27.9347 2.12764   7
   5  -5   6 30.6391 2.05652  15
  -5   5   6 29.8944 1.79798   7
   5  -5   6 26.1336 1.68935   5
   5  -5   6 27.9648 2.00666  13
   5  -5   6 26.1662 3.72584  14
  -5  -5  -6 28.0539 2.40978   3
  -5   5   6 28.2135 2.44205  16
   5  -5   6 32.9871 3.21635  12
   5  -5  -6 30.4968 2.01573   7
  -5  -5   6 28.8961 3.42181  11
  -5  -5   6 28.2443 1.85493   9
   5   5   6 25.3947 2.26162  16
  -5  -5   6 28.1387 2.25723  12
   5  -5  -6 27.3737 2.17518   3
   7  -5   6 85.4816 3.08914  15
   7  -5   6 85.2013 3.43755  12
   7  -5   6 84.4344 3.03719  13
   7  -5   6 83.6477 3.04125   6
   7  -5   6 74.3402 4.39062  14
   7   5   6 85.5636 3.38374   3
  -7  -5   6 80.5171 3.77396  11
   7  -5  -6 85.5296 3.36712   3
  -7  -5   6 85.4145 3.16907   9
   0  -6  -6 41.0242 2.60479   3
   0  -6   6 39.6509 2.19568   6
   0   6   6 37.5582 2.72375  16
   0  -6   6 40.1768 2.31132  13
   0  -6   6 42.2326 3.72950  12
   0  -6   6 32.5665 3.36657  14
   2  -6   6 18.5536 1.80602  12
   2  -6   6 19.8074 1.41307   6
   2  -6   6 18.1585 1.35076  15
  -2  -6  -6 19.5850 1.96791   3
   2  -6   6 18.2573 1.29962  13
   2  -6   6 16.9811 2.51706  14
   2  -6   6 18.1312 1.35588   5
  -2   6   6 13.8989 1.83474  16
   2   6   6 17.9425 2.18806  16
  -2  -6   6 16.5628 1.71834  11
  -2  -6   6 18.6408 1.95741  12
  -2  -6   6 18.4036 1.32508   6
   2  -6  -6 18.3985 1.82550   3
  -2  -6   6 19.3127 1.59287   5
   4  -6   6 2.81956 0.78005   5
  -4  -6  -6 3.08234 0.90979   3
   4  -6   6 1.39874 1.35047  14
   4  -6   6 2.44537 0.68439  13
   4  -6   6 3.05700 1.10035  12
   4  -6   6 3.11857 0.84426  15
   4  -6   6 2.42905 0.82242   6
  -4  -6   6 2.63767 1.08217  11
   0   0  -7 91.5580 3.50674   4
   0   0  -7 93.5466 3.60438  10
   2   0  -7 39.1371 2.22622  10
  -2   0  -7 38.3535 1.94961   4
   2   0  -7 41.2970 2.55625   4
  -2   0  -7 36.5662 1.85097  10
   4   0   7 81.2387 4.34434   2
   4   0   7 78.3042 4.29081  15
  -4   0  -7 77.5313 3.26949  10
   4   0  -7 80.2851 3.78223  10
   4   0   7 83.3200 4.12137   8
  -4   0   7 78.7948 3.45803  16
  -4   0   7 80.5625 3.97852   5
   4   0  -7 81.6966 3.58921   4
  -4   0   7 81.7288 4.08994   2
  -4   0   7 80.7939 4.55782  11
  -4   0   7 79.2762 3.94282   9
   4   0   7 83.4345 4.54560   9
   6   0   7 75.3468 4.28320   9
   6   0   7 81.4293 4.40977   2
  -6   0   7 75.5641 4.12874  11
   6   0   7 75.9236 3.53390   3
   6   0   7 76.5248 3.99730   8
  -6   0   7 82.9902 3.92870   2
   6   0   7 80.6436 7.55189  14
   6   0   7 76.0832 3.90424  15
  -6   0   7 75.6200 3.82995   9
  -6   0   7 81.0133 3.58619  16
  -6   0   7 77.8145 3.88109   5
  -6   0  -7 80.6643 4.60638   7
   8   0   7 4.38838 1.18665   3
   8   0   7 5.82480 1.49312   8
  -8   0   7 6.03741 1.47808   2
   8   0   7 6.55320 2.67031  14
 -10   0  -7 231.727 7.52577   7
 -10   0   7 198.710 7.14713   8
  10   0   7 198.151 6.50253   6
  -1   1   7 672.104 21.6176  16
  -1  -1  -7 666.098 21.2659   4
  -1  -1  -7 666.143 21.5280  10
   1  -1  -7 677.899 21.6659  10
   1  -1  -7 660.005 21.2855   4
   1   1   7 668.478 21.6445  16
  -3   1   7 264.256 9.88660   9
   3  -1   7 280.822 11.1124   8
  -3   1   7 259.531 9.71448   2
   3  -1   7 282.457 10.1278   6
   3   1  -7 268.009 9.37561  10
  -3  -1  -7 279.759 9.63246  10
  -3   1   7 281.071 9.70402  16
   3  -1  -7 279.320 10.0035  10
  -3  -1   7 278.150 10.4119   2
   3   1   7 292.028 11.0506  11
   3   1   7 281.045 10.2890   8
   3   1   7 318.052 11.8235   9
   3   1   7 265.802 9.82572  16
   5  -1   7 4.97389 1.39382   6
  -5   1   7 7.46428 2.13879  11
   5  -1   7 9.59615 4.36256  14
  -5   1   7 5.66547 1.55503  16
  -5   1   7 7.93644 1.72402   2
   5  -1   7 9.66540 2.33095   9
   5   1   7 4.45559 2.48541  15
   5   1   7 6.36353 2.05854   9
   5   1   7 7.59890 1.39218  16
  -5  -1   7 5.20278 1.58647  11
   5  -1  -7 4.83676 1.43160   4
   5   1   7 6.67235 1.70192   8
  -7   1   7 54.2236 3.11346  16
  -7   1   7 56.8977 2.84986   2
   7  -1   7 52.8888 2.66860  13
   7  -1   7 43.5097 3.73463  15
  -7  -1   7 50.7352 3.19640  11
  -7  -1   7 55.7953 3.01434   9
  -7   1  -7 52.6071 3.25059   7
   7   1   7 51.5833 2.73594  15
   7   1   7 49.9021 2.94663   8
  -7  -1   7 48.7296 4.06584   2
   9  -1   7 57.1344 2.51400   6
   9  -1   7 56.6845 2.64735   8
  -9  -1  -7 64.7902 3.31032   7
  -9   1   7 58.5479 2.42117   2
   9   1   7 55.4160 2.46747   6
   9   1   7 57.7168 4.56430  14
  -9  -1   7 57.6198 2.63835   2
   9   1   7 56.8568 2.34317   3
  -9  -1   7 54.0216 2.92755   8
   0  -2   7 88.8122 4.88933  11
   0  -2  -7 87.6936 4.62458  10
   0  -2  -7 89.9721 4.97118   7
   0  -2   7 91.7776 4.38522   8
   0   2   7 87.3830 4.25782   9
   0  -2   7 86.1083 4.69360   2
   0   2   7 91.4892 4.32483  16
   0  -2   7 90.8276 5.06724   9
   2  -2   7 29.4284 2.72621   8
   2  -2   7 33.2519 4.81323  14
  -2   2   7 33.7460 2.55062  16
   2  -2   7 32.3269 2.94709  11
   2  -2   7 32.2703 2.67839   2
  -2  -2  -7 28.7759 2.03303   4
  -2  -2  -7 31.8687 2.20039  10
  -2   2   7 30.4326 3.06648  11
  -2  -2  -7 29.7511 3.29606   7
   2  -2   7 26.7650 3.65251  12
   2  -2   7 31.7480 2.16063  13
   2  -2   7 31.5898 2.73631  15
   2   2   7 37.1361 3.29493   2
  -2  -2   7 27.5664 3.00109  12
   2  -2  -7 33.2969 2.13135   4
   2   2   7 29.9736 3.12640  11
  -2  -2   7 32.3306 2.30276   2
   2  -2  -7 26.1732 3.06389   7
  -2  -2   7 30.2010 2.90456   8
   2  -2  -7 33.2307 2.47881  10
  -2  -2   7 33.1716 2.73271   9
   2   2   7 32.5684 2.42877  16
  -2  -2   7 27.6379 2.34332   5
  -2  -2   7 29.7811 2.78110  13
  -2  -2   7 31.2898 2.83527  11
   2   2   7 30.4099 2.77642   9
   4  -2   7 55.7873 3.67163   2
   4  -2   7 58.6413 6.36323  14
  -4  -2  -7 57.4858 4.12890   7
   4  -2   7 60.5682 3.77239   8
   4  -2   7 56.8877 3.36650  15
   4  -2   7 52.9686 3.81200  12
   4  -2   7 52.8491 3.07329  13
   4  -2   7 53.5921 3.62303   9
  -4   2   7 53.8505 3.48736  11
  -4   2   7 61.0027 3.51972  16
   4  -2   7 57.6603 3.01374   6
  -4  -2   7 56.1937 3.29664   8
   4  -2  -7 47.9093 4.06914  10
  -4  -2   7 47.8052 3.42684   5
   4   2   7 55.0977 3.37161  16
  -4  -2   7 56.4463 4.16329  12
  -4  -2   7 59.0050 3.42880   9
  -4  -2   7 54.7517 3.16476   2
  -4  -2   7 56.1938 3.82070  11
   4   2   7 56.9294 3.40780   2
   4   2   7 57.2578 3.65740   9
  -6  -2  -7 65.8344 4.07588   7
   6  -2   7 65.4485 3.35982   6
   6  -2   7 60.3535 3.58308   8
   6  -2   7 63.7292 3.12182  13
   6  -2   7 60.7802 3.65101   2
   6  -2   7 66.1579 6.59289  14
  -6   2   7 66.5489 3.71718  16
   6  -2   7 66.4800 3.63406  15
   6   2   7 59.6564 3.50676   2
  -6  -2   7 61.5669 3.46883   9
  -6  -2   7 60.9316 3.62161  11
  -6  -2   7 60.2200 3.90962  12
  -6  -2   7 61.4801 3.43153   8
   6   2   7 61.1834 3.33600  15
  -6  -2   7 62.9017 3.38062   2
   6   2   7 63.1029 3.82477  16
  -6  -2   7 64.0674 3.44671   5
  -8   2   7 5.50037 1.42004  16
   8  -2   7 4.90706 1.22571  15
  -8  -2  -7 3.40149 1.19901   7
   8  -2   7 2.37005 1.69594  14
   8  -2   7 3.25101 0.80483  13
   8  -2   7 2.13778 0.76603   8
   8  -2   7 3.74048 1.02220   6
  -8  -2   7 5.40281 1.14557   2
  -8  -2   7 4.14373 1.01706   9
   1  -3   7 403.581 18.5593  14
   1  -3   7 396.369 13.3053   6
  -1   3   7 408.474 14.4311  16
   1  -3   7 397.018 13.7158   8
  -1  -3  -7 413.939 14.1056  10
   1  -3   7 397.154 14.2604  11
   1  -3   7 387.917 13.7639   2
   1  -3   7 407.080 14.4678  12
  -1  -3  -7 421.544 14.7037   7
   1  -3   7 395.384 13.7907   9
  -1   3   7 406.811 14.7457  11
   1  -3   7 383.020 13.5225   5
   1  -3   7 394.787 13.3944  13
   1  -3   7 398.161 13.7851  15
  -1  -3   7 388.784 13.5392   6
   1   3   7 413.311 14.3003  16
  -1  -3   7 397.663 14.0590   9
  -1  -3   7 384.218 13.8007   8
  -1  -3   7 395.077 13.7823   5
  -1  -3   7 396.719 13.4682  13
  -1  -3   7 402.751 13.7680   2
   1   3   7 398.834 13.9995   9
  -1  -3   7 402.970 14.5986  11
   1  -3  -7 399.616 14.2534   7
  -1  -3   7 415.579 14.7654  12
   3  -3   7 136.460 5.52825   6
   3  -3   7 138.464 5.88597  15
  -3  -3  -7 148.287 6.80923   7
   3  -3   7 134.145 5.57336  13
   3  -3   7 146.227 6.58311  12
   3  -3   7 142.519 6.77590   2
  -3   3   7 148.496 6.52314  16
   3  -3   7 141.586 5.99321   8
   3  -3   7 138.462 9.94047  14
  -3  -3   7 149.530 7.09277  12
  -3  -3   7 137.270 5.85158   5
  -3  -3   7 143.315 6.08674   9
  -3  -3   7 140.756 5.83065   2
   3   3   7 132.199 6.02101   9
  -3  -3   7 142.723 6.76502  11
   3   3   7 139.061 6.23963  16
   3  -3  -7 139.627 6.24640   7
  -3  -3   7 139.949 5.63025  13
   5  -3   7 10.7127 3.50617  14
   5  -3   7 7.74925 2.51152  12
   5  -3   7 7.78684 1.70366  15
   5  -3   7 8.00368 1.43709  13
   5  -3   7 9.04478 1.79275   8
  -5  -3  -7 6.19177 1.64185   7
   5  -3   7 11.0093 1.45506   6
  -5   3   7 8.69748 1.95198  16
  -5  -3   7 10.6300 1.76153   9
  -5  -3   7 6.58312 2.17032  12
   5  -3  -7 5.51044 1.89091   3
   5  -3  -7 10.4575 1.95862   7
   5   3   7 7.85760 1.54682  16
  -5  -3   7 6.78981 1.89531  11
  -5  -3   7 8.03936 1.52346   2
  -5  -3   7 11.2506 1.89741   5
  -7   3   7 35.7734 2.49649  16
   7  -3   7 31.4111 3.93541  14
   7  -3   7 34.9387 2.01292   6
  -7  -3  -7 38.5992 2.72495   7
   7  -3   7 35.5696 2.46566  12
   7  -3   7 35.5639 2.19670  15
   7  -3   7 35.5129 2.26834   8
   7   3   7 32.0204 2.14150  16
  -7  -3   7 37.0905 2.10838   2
  -7  -3   7 32.1397 2.83628  11
  -7  -3   7 37.2099 2.26016   9
   7  -3  -7 37.1923 2.55711   7
  -7  -3   7 35.8246 2.28199   5
   7  -3  -7 38.0328 2.83495   3
   7   3   7 33.7078 2.30552   3
  -9  -3  -7 44.4313 2.06296   7
   9  -3   7 40.1010 1.52704   6
   9   3   7 33.2128 2.71870  14
  -9  -3   7 40.3087 2.01990   2
   0  -4   7 75.1294 3.55198   5
   0  -4   7 75.5751 3.44105   6
   0  -4   7 65.4840 4.36930   2
   0  -4  -7 71.3803 4.37284   3
   0  -4   7 72.7596 4.33370  12
   0  -4  -7 74.4105 4.35618   7
   0  -4   7 74.1520 6.51952  14
   0  -4   7 67.8918 3.51412  15
   0  -4   7 74.7869 3.42219  13
   0   4   7 76.6499 4.93493  16
   0  -4   7 67.2885 3.50294   9
   0  -4   7 73.0535 4.17649  11
  -2   4   7 17.6217 2.25742   7
   2  -4   7 19.3411 2.33187  12
   2  -4   7 17.0441 1.94606  15
   2  -4   7 16.6961 1.87723   5
   2  -4   7 15.6534 1.70902   6
   2  -4   7 13.9621 2.13548   8
   2  -4   7 17.3335 3.90877  14
  -2  -4  -7 13.9758 3.12492   3
   2  -4   7 19.3785 1.72267  13
  -2   4   7 18.4134 2.45323  16
  -2  -4  -7 20.2466 2.50172   7
   2   4   7 19.7707 2.50274  16
   2  -4  -7 19.4541 2.40891   7
  -2  -4   7 17.5138 1.73797  13
  -2  -4   7 16.0447 1.85556   5
  -2  -4   7 17.7190 1.82875   9
  -2  -4   7 17.9228 2.55459  12
  -2  -4   7 17.5787 1.62813   6
  -2  -4   7 19.5169 2.39379  11
  -2  -4   7 17.3662 2.13581   2
   2  -4  -7 17.5968 2.36304   3
   4  -4   7 22.5453 1.77591   6
  -4  -4  -7 25.0949 2.59373   7
  -4   4   7 24.7617 2.38516  16
   4  -4   7 22.8028 1.69723  13
   4  -4   7 20.1404 2.30251  12
   4  -4   7 15.7379 2.03847   8
   4  -4   7 20.9087 1.72230   5
  -4  -4  -7 22.3529 3.12357   3
   4  -4   7 20.4476 2.02561  15
   4  -4   7 19.9914 3.49386  14
   4   4   7 21.6130 2.22964  16
   4  -4  -7 23.0313 2.26978   7
  -4  -4   7 20.3824 2.40930  11
  -4  -4   7 21.6055 1.67666   6
  -4  -4   7 21.6426 1.83068   2
  -4  -4   7 23.1165 2.04431   9
   4  -4  -7 19.7357 2.35312   3
  -4  -4   7 21.5128 2.63643  12
  -4  -4   7 20.8565 2.05106   5
   6  -4   7 35.8494 2.60024  13
  -6   4   7 33.6019 2.43470  16
   6  -4   7 35.0433 2.80964  15
   6  -4   7 30.2906 2.42396   6
   6  -4   7 29.1633 2.62134   8
   6  -4   7 29.6731 2.17511  12
   6  -4   7 30.3369 3.87927  14
   6  -4  -7 29.9149 2.30364   3
  -6  -4   7 30.9082 2.15722   9
  -6  -4   7 27.7883 2.96247  12
  -6  -4   7 35.0226 3.14487  11
   6   4   7 30.1603 2.14709  16
  -6  -4   7 28.9824 1.79032   2
   8  -4   7 2.77034 0.54128   6
   8   4   7 1.93503 0.56597   3
  -8  -4   7 1.13249 0.32354   9
   1  -5   7 186.665 6.58448   5
   1  -5   7 163.036 7.30717  12
  -1   5   7 185.838 7.57899  16
   1  -5   7 195.142 10.2172  14
  -1  -5  -7 173.256 7.16347   7
   1  -5   7 186.497 6.44766  13
   1  -5   7 175.665 6.44503  15
   1  -5   7 179.973 6.49977   6
  -1  -5  -7 180.554 7.37043   3
  -1  -5   7 176.564 10.1519  14
   1  -5  -7 177.973 7.04200   7
  -1  -5   7 179.396 7.02933  11
  -1  -5   7 166.817 7.45048  12
  -1  -5   7 181.259 7.44420   9
   1   5   7 183.583 7.56642  16
  -1  -5   7 183.722 6.44529  13
  -1  -5   7 184.019 6.59347   5
  -1  -5   7 180.613 6.46459   6
   1  -5  -7 159.657 7.14763   3
  -3  -5  -7 49.8143 3.19217   7
   3  -5   7 47.3771 2.36505   6
  -3   5   7 47.0347 3.04686  16
  -3   5   7 43.9744 2.33797   7
   3  -5   7 48.2782 4.77273  14
  -3  -5  -7 51.4270 3.10128   3
   3  -5   7 47.0651 2.80879  15
   3  -5   7 45.8870 2.94970  12
   3  -5   7 47.2338 2.28551  13
   3  -5  -7 44.4337 3.14251   3
   3   5   7 46.3051 3.04730  16
  -3  -5   7 50.4198 3.22157  12
  -3  -5   7 44.4054 2.59044   5
  -3  -5   7 44.9339 2.92526   9
  -3  -5   7 46.3035 2.88814  11
   5  -5   7 9.03820 1.31609  12
   5  -5   7 8.77007 2.23041  14
   5  -5   7 9.07816 0.94838  13
   5  -5   7 8.71687 1.00117   6
   5  -5   7 9.10719 1.14795  15
  -5  -5  -7 8.89815 1.57888   3
  -5  -5  -7 9.73141 1.48404   7
   5  -5  -7 8.65105 1.27439   7
  -5  -5   7 9.06820 1.14064   9
  -5  -5   7 8.22723 1.25449  11
  -5  -5   7 9.66056 1.14137   5
  -5  -5   7 8.21479 1.25007  12
   0  -6   7 52.2547 2.79829  12
   0  -6   7 48.9581 2.21212   5
   0  -6   7 50.0265 2.15234   6
   0  -6   7 49.0904 2.20418  13
   0  -6   7 48.4137 3.49201  14
   2  -6   7 8.33899 1.92586  14
   2  -6   7 8.43270 1.91381  12
   2  -6   7 8.53256 0.99832  13
   2  -6   7 9.15362 1.09148   5
  -2  -6  -7 9.61873 1.34367   3
   2  -6   7 10.7285 1.15220   6
   2  -6  -7 9.64388 1.31634   3
  -2  -6   7 7.17728 0.92189   6
  -2  -6   7 9.09598 1.39959  12
  -2  -6   7 7.51611 1.15563   5
  -2  -6   7 7.54941 1.09774  11
   4  -6   7 4.73255 1.03841  12
   4  -6   7 6.43268 0.82395  13
   4  -6   7 6.40906 0.85926   6
   4  -6   7 5.86205 1.72611  14
  -4  -6   7 4.38112 1.16565  12
  -4  -6   7 4.29905 1.01307  11
   0   0   8 1081.22 33.4494   8
   0   0   8 1076.19 34.1400  11
   0   0  -8 916.857 32.7394  10
   0   0   8 1064.92 33.4596   2
   0   0   8 1056.60 33.5582   9
  -2   0   8 136.866 5.62019   8
  -2   0   8 137.087 5.72787   9
  -2   0   8 138.054 6.36381  11
  -2   0   8 126.133 5.50198   2
   2   0   8 132.167 6.16262  11
  -2   0  -8 119.069 4.83110  10
   2   0   8 134.987 5.96725   9
   2   0   8 135.775 9.42579  14
   2   0   8 135.309 5.85867  15
   2   0   8 136.640 5.70670   8
   2   0   8 133.196 5.85638   2
   2   0  -8 133.122 5.23633  10
   4   0  -8 241.049 8.66205  10
   4   0  -8 250.698 9.32036   4
  -4   0  -8 238.569 8.63550  10
   4   0   8 207.290 10.4416  15
   6   0   8 597.462 20.5195   9
  -6   0  -8 511.852 17.5149   7
   6   0   8 525.879 18.9326   2
  -6   0   8 485.877 16.3879   9
  -6   0   8 464.852 16.9979   2
   6   0   8 555.455 24.2327  14
   6   0   8 485.276 19.1422  15
   6   0   8 613.124 20.2026   8
  -6   0   8 496.148 16.8558  11
   8   0   8 172.108 10.4273  14
  -8   0   8 184.620 6.54392   2
   8   0   8 184.194 6.35013   6
   8   0   8 178.006 6.34725   8
  -8   0  -8 193.205 7.19005   7
   8   0   8 182.495 6.27639  15
   1  -1   8 529.068 17.0542  15
   1  -1   8 504.149 17.8411  11
  -1   1   8 509.784 17.1817   2
  -1   1   8 510.434 17.0076   9
  -1  -1  -8 500.505 16.8286   4
  -1   1   8 507.600 17.1499   8
   1  -1   8 506.402 17.4391   2
  -1   1   8 508.270 17.5730  11
  -1   1   8 504.782 16.6883  16
  -1  -1  -8 497.148 17.0283  10
   1  -1   8 510.959 17.3437   9
   1  -1   8 524.089 17.0950   8
  -1  -1   8 504.209 16.8416   8
   1  -1  -8 497.527 16.8063   4
   1   1   8 514.473 17.7082  11
  -1  -1   8 510.477 17.0347   9
   1   1   8 504.774 17.2862   8
   1   1   8 505.184 17.4092   2
  -1  -1   8 510.014 17.1508   2
   1   1   8 505.886 17.3223   9
   1  -1  -8 509.341 17.1537  10
  -1  -1   8 508.775 17.5852  11
  -3   1   8 2.43602 0.96866   9
  -3  -1  -8 2.74544 1.24944   4
   3  -1   8 2.02700 1.18777   8
   3  -1   8 2.11810 1.18140  15
   3  -1   8 1.97901 1.78287  14
  -3   1   8 1.25301 0.95429  16
   3  -1   8 0.72714 1.00908   6
  -3   1   8 0.20018 0.56515   2
  -3  -1  -8 0.40286 0.89193  10
  -3  -1  -8 3.34358 1.74946   7
   3  -1   8 0.90587 0.66692   2
  -3   1   8 0.46602 0.99552  11
   3  -1   8 1.65276 0.97195   9
   3  -1   8 -0.2934 1.42602  11
   3   1   8 2.15122 1.15854  11
  -3  -1   8 1.39731 0.90571   8
  -3  -1   8 1.01057 0.51313   2
   3   1   8 1.35847 0.59387   2
   3   1   8 0.51277 1.01839   8
  -3  -1   8 0.48327 0.77167   9
  -3  -1   8 3.25403 1.29809   5
  -3  -1   8 3.76631 1.37961  11
   3  -1  -8 1.82350 1.27346  10
   3   1   8 1.99039 1.22212   9
   5  -1   8 140.330 5.93208  15
   5  -1   8 137.796 6.01582   8
   5  -1   8 137.007 5.49941   6
   5  -1   8 138.947 6.00120   9
  -5   1   8 133.186 6.24927  11
  -5   1   8 143.351 5.79158   2
  -5  -1  -8 143.714 6.52749   7
   5  -1   8 145.641 6.25775   2
   5  -1   8 145.740 10.2667  14
  -5  -1   8 144.467 5.92418   2
  -5  -1   8 146.057 6.05123   8
   5   1   8 136.441 5.80699   8
   5   1   8 142.626 5.97077  15
  -5  -1   8 145.718 6.43929  11
  -5  -1   8 146.428 6.00280   5
  -5  -1   8 142.150 5.96829   9
   5   1   8 140.242 6.21826   9
   5   1   8 139.507 6.18584   2
   7  -1   8 21.2385 2.04001   8
   7  -1   8 23.2187 1.94677  15
  -7   1   8 20.1936 2.17279   2
   7  -1   8 21.4545 1.61400   6
  -7  -1  -8 22.2275 2.27350   7
   7  -1   8 21.7100 2.15771   2
   7  -1   8 21.9185 3.78320  14
  -7  -1   8 21.8459 1.74185   8
   7   1   8 21.5068 3.71474  14
  -7  -1   8 20.5439 2.78650  11
  -7  -1   8 21.0628 1.86029   2
   7   1   8 20.6898 2.16418   2
   7   1   8 23.0101 1.50598   3
  -7  -1   8 23.2332 1.73027   9
  -7   1  -8 15.8151 3.40352   7
   7   1   8 19.5373 1.81075   6
   7   1   8 18.5842 1.73354  15
  -9  -1  -8 307.302 10.5538   7
   9  -1   8 274.353 11.1207  14
   9  -1   8 276.062 8.74454   6
  -9   1   8 308.677 10.3325   8
  -9  -1   8 296.565 9.72141   2
   9   1   8 272.543 11.0462  14
   0  -2   8 841.062 27.2634  11
   0  -2   8 808.017 26.4778  15
   0  -2   8 777.673 26.1977   5
   0   2   8 831.656 27.0918   9
   0   2   8 840.954 26.2900  16
   0  -2  -8 796.397 26.5509   4
   0   2   8 846.210 27.7060  11
   0  -2   8 840.289 26.7594   2
   0  -2  -8 815.870 27.3451   7
   0  -2   8 836.510 26.7301   8
   0  -2   8 827.220 26.8186   9
   0  -2  -8 821.028 26.9149  10
   0  -2   8 793.967 26.1665  13
   0   2   8 779.648 26.6744   2
   0   2   8 839.785 26.6104   8
   2  -2   8 111.982 4.73651   6
  -2  -2  -8 125.448 6.66521  10
   2  -2   8 120.631 9.09552  14
   2  -2   8 110.143 5.76637  15
   2  -2   8 121.355 4.93572  13
  -2   2   8 123.125 5.28056  16
   2  -2   8 121.966 5.65260  11
  -2   2   8 113.857 5.82804   8
  -2   2   8 122.803 5.32432   9
   2   2   8 122.757 5.88490   2
  -2  -2   8 119.960 6.22377  12
  -2  -2   8 102.459 6.56411   8
   2   2   8 121.752 5.25291   8
  -2  -2   8 111.175 4.72107  13
   2   2   8 121.250 5.17349  16
   4  -2   8 212.079 12.4440  14
   4  -2   8 199.362 7.42839   6
   4  -2   8 197.901 7.21415  13
   4  -2   8 205.364 7.95407   8
  -4   2   8 173.985 8.24205  16
   4  -2   8 204.207 8.09661   2
  -4   2   8 195.752 8.14917  11
   4  -2   8 195.633 7.77432   9
   4  -2   8 201.662 7.84701  15
  -4  -2  -8 205.723 8.43828   7
  -4  -2   8 206.379 7.59535   5
  -4  -2   8 198.765 7.47771   8
   4   2   8 200.572 8.09309   9
  -4  -2   8 196.189 8.24765  12
  -4  -2   8 209.218 8.44148  11
   4   2   8 203.509 7.88045   2
  -4  -2   8 204.043 7.66727   2
  -4  -2   8 214.855 7.94996   9
   6  -2   8 426.402 14.6192  15
   6  -2   8 421.478 14.7218   2
  -6  -2  -8 455.438 15.5212   7
   6  -2   8 446.865 19.6313  14
   6  -2   8 434.510 14.7066   8
   6  -2   8 432.742 14.3005   6
   6  -2   8 423.362 13.9469  13
  -6   2   8 412.421 14.8519  16
  -6  -2   8 405.525 14.5387   9
  -6  -2   8 433.281 14.9545  11
  -6  -2   8 450.917 14.5824   2
  -6  -2   8 443.484 14.5218   5
   6   2   8 424.349 14.5699   3
   6   2   8 427.923 14.4788  15
   6   2   8 441.732 14.7133   2
  -6  -2   8 423.752 14.2271   8
   8  -2   8 155.233 5.17154   6
   8  -2   8 137.077 5.66960  15
   8  -2   8 149.888 5.34576   8
  -8  -2  -8 166.781 6.36209   7
   8  -2   8 126.994 7.43277  14
  -8  -2   8 157.068 5.62476   2
   8  -2  -8 150.433 5.29306   7
   8   2   8 149.873 7.91292  14
   1  -3   8 371.663 12.2513  13
   1  -3   8 350.820 12.5438  15
   1  -3   8 366.755 13.1403  11
   1  -3   8 362.326 13.2739  12
   1  -3   8 368.123 12.7343   2
   1  -3   8 360.735 12.3458   5
   1  -3   8 362.186 12.6825   8
  -1  -3  -8 394.483 13.9762   7
   1  -3   8 362.026 12.2560   6
  -1   3   8 383.866 13.5631  16
   1  -3   8 361.674 12.6818   9
   1  -3   8 357.571 16.9467  14
  -1  -3   8 371.155 12.9181   5
  -1  -3   8 360.922 12.6361   6
  -1  -3   8 386.543 13.9482  11
   1  -3  -8 362.517 13.1477   7
  -1  -3   8 374.943 13.0264   8
  -1  -3   8 381.363 13.2850   9
  -1  -3   8 385.497 13.9774  12
   1   3   8 356.974 12.9650   9
  -1  -3   8 375.880 12.7203  13
   1   3   8 390.032 13.1823  16
  -1  -3   8 377.552 13.1725   2
  -3  -3  -8 5.03656 1.61188   7
   3  -3   8 2.53614 1.94534  14
   3  -3   8 3.68289 1.18473   8
   3  -3   8 3.57799 0.90597  13
  -3   3   8 0.04500 1.07190   8
   3  -3   8 2.62122 0.81390   6
  -3   3   8 2.84419 1.05222  16
   3  -3   8 3.20455 1.11426  15
  -3  -3   8 2.73564 1.13765   5
  -3  -3   8 3.21528 0.85884   9
  -3  -3   8 1.84540 0.49903   2
   3  -3  -8 2.05107 1.34658   7
  -3  -3   8 1.80252 1.27264   8
  -3  -3   8 6.10197 1.84500  11
   3   3   8 3.43743 1.11383  16
   5  -3   8 99.7844 4.67777  12
   5  -3   8 112.149 4.35680   6
   5  -3   8 99.8724 7.68928  14
  -5  -3  -8 122.947 5.53277   7
   5  -3   8 112.358 4.68858   8
  -5   3   8 118.665 5.16520  16
   5  -3   8 103.344 4.09789  13
   5  -3   8 106.977 4.62079   2
  -5   3   8 106.615 4.58177   8
   5  -3   8 103.568 4.60672  15
  -5  -3   8 116.631 4.77051   5
   5  -3  -8 109.988 4.95070   7
  -5  -3   8 111.728 4.65287   2
   5   3   8 110.415 4.52738  15
  -5  -3   8 111.648 4.84330   9
  -5  -3   8 99.1930 5.13775  12
  -5  -3   8 114.354 5.28705  11
  -7   3   8 17.0878 1.37574   8
   7  -3   8 17.1456 1.45148   8
   7  -3   8 12.8250 2.25931  14
   7  -3   8 16.7391 1.46723  15
  -7  -3  -8 15.8723 1.83359   7
   7  -3   8 15.7156 1.21003   6
   7  -3   8 14.7767 1.58186  13
   7  -3  -8 15.9819 1.59061   7
  -7  -3   8 16.1389 1.46032   5
  -7  -3   8 16.8024 1.28446   2
  -7  -3   8 17.9007 1.38464   9
   7   3   8 17.0614 1.45356   3
   0   4   8 443.406 15.7665  16
   0  -4   8 444.259 14.7760   9
   0  -4   8 449.143 14.5219  13
   0  -4   8 430.408 15.4447  11
   0  -4   8 443.390 14.5206   6
   0  -4   8 459.276 18.5098  14
   0  -4   8 435.928 14.8437   2
   0  -4   8 436.422 14.8503   5
   0  -4   8 437.086 14.6622  15
   0  -4   8 441.908 15.7331  12
   0  -4  -8 463.029 16.4606   7
   2  -4   8 89.1938 3.91613  15
   2  -4   8 85.8411 3.63415   6
  -2   4   8 93.8988 4.46681  16
   2  -4   8 77.4830 6.42109  14
   2  -4   8 82.9061 3.55867  13
   2  -4   8 82.1525 3.74098   8
   2  -4   8 82.1778 3.61176   5
   2  -4   8 86.7500 4.39508  12
  -2  -4  -8 92.8833 4.69050   7
  -2  -4   8 87.8607 3.71248  13
   2  -4  -8 82.9192 4.63501   3
  -2  -4   8 90.9884 4.48568  11
  -2  -4   8 83.1544 3.50681   6
  -2  -4   8 83.6329 3.90199   9
   2   4   8 88.1123 4.39963  16
  -2  -4   8 81.9308 3.76387   2
  -2  -4   8 91.9885 4.01597   5
   2  -4  -8 89.3745 4.41708   7
  -2  -4   8 72.8410 4.31161  12
   4  -4   8 96.1654 6.07493  12
   4  -4   8 103.302 4.08779  13
  -4  -4  -8 115.231 5.16850   7
   4  -4   8 114.361 7.51682  14
   4  -4   8 113.133 4.26903   6
   4  -4   8 110.497 4.45362  15
  -4   4   8 109.493 4.95489  16
  -4  -4   8 112.603 4.51560   5
   4   4   8 107.292 4.77068  16
  -4  -4   8 107.119 5.07832  12
  -4  -4   8 108.513 4.70949   2
   4  -4  -8 105.510 4.73267   7
  -4  -4   8 110.024 4.99960  11
   4  -4  -8 109.862 5.04742   3
  -4  -4   8 107.620 4.53351   9
   6  -4   8 257.159 8.69696   8
   6  -4   8 243.744 8.38289  15
   6  -4   8 219.080 10.7689  14
   6  -4   8 266.952 8.58845  13
   6  -4   8 247.979 8.45009  12
   6  -4   8 251.993 8.28170   6
  -6  -4  -8 276.966 9.33934   7
   6   4   8 253.947 8.63352   3
  -6  -4   8 261.628 8.75749   5
  -6  -4   8 244.445 8.50923   2
   6  -4  -8 242.841 8.39336   7
  -6  -4   8 261.431 8.72727   9
  -6  -4   8 259.891 9.07915  11
  -1  -5  -8 214.633 8.50181   7
   1  -5   8 216.398 10.1906  14
   1  -5   8 218.800 7.56953  13
   1  -5   8 231.839 7.49117   6
  -1   5   8 219.838 8.25362  16
   1  -5   8 216.063 8.23467  15
  -1  -5  -8 213.391 8.35622   3
   1  -5   8 229.356 7.52201   5
   1   5   8 216.104 8.30592  16
  -1  -5   8 225.782 7.95504  11
   1  -5  -8 213.325 8.44634   7
  -1  -5   8 218.913 8.20885  12
  -1  -5   8 223.915 7.29714   6
   1  -5  -8 219.930 8.18431   3
  -1  -5   8 203.725 7.83434  13
   3  -5   8 4.04006 0.87870  15
  -3  -5  -8 3.88493 1.53387   3
   3  -5   8 4.76336 1.91848  14
   3  -5   8 3.77362 1.12351  12
   3  -5   8 3.55575 0.84207  13
  -3   5   8 4.67081 1.37821  16
  -3  -5  -8 4.89126 1.29263   7
   3  -5   8 4.94069 0.86064   6
   3  -5   8 2.73428 0.82088   5
  -3  -5   8 3.51476 1.07947  11
  -3  -5   8 5.03763 1.43830   9
  -3  -5   8 2.07628 0.89074   6
  -3  -5   8 3.45639 1.30024  12
  -3  -5   8 3.71637 1.07044   5
   3  -5  -8 2.78593 1.13142   3
   3  -5  -8 7.26445 1.41678   7
   5  -5   8 63.2729 2.43001  15
   5  -5   8 62.5699 2.33956   6
   5  -5   8 65.0057 2.59252  13
   5  -5   8 62.2618 3.98889  14
  -5  -5   8 63.4518 2.41210   5
  -5  -5   8 61.9835 2.69007  11
  -5  -5   8 63.1535 2.67268   9
   0  -6   8 216.335 7.87772  12
   2   0   9 32.1882 2.91508  11
   2   0   9 36.8026 2.77916   2
   2   0   9 32.0011 2.71310  15
  -2   0   9 34.3924 2.93084  11
  -2   0   9 33.9001 2.56860   2
  -2   0   9 36.0588 2.55303   8
  -2   0   9 32.8559 2.61472   9
   2   0   9 33.2966 2.50184   8
   2   0   9 33.1659 5.23976  14
   2   0   9 33.3606 2.77539   9
  -4   0   9 120.163 5.18826   8
  -4   0   9 114.541 5.05602   9
  -4   0   9 111.855 5.47547  11
   4   0   9 118.469 5.44207   9
   4   0   9 108.982 7.26094  11
  -4   0   9 119.534 5.15478   2
   4   0   9 124.089 9.14801  14
   4   0   9 116.221 5.40050   2
   4   0   9 120.243 5.23323  15
   4   0   9 113.845 5.11341   8
   6   0   9 152.985 5.81114  15
   6   0   9 150.657 5.74256   8
  -6   0   9 155.251 5.94479   8
  -6   0  -9 156.986 6.52037   7
   6   0   9 129.814 8.89014  14
  -6   0   9 142.995 5.73477   2
   6   0   9 154.595 6.14636   2
  -8   0   9 90.7515 4.06385   8
   8   0   9 92.9862 3.56987   8
  -8   0   9 93.0662 3.37823   2
   8   0   9 90.6123 3.53272  15
   8   0   9 78.3013 5.16736  14
   1  -1   9 391.005 13.5210   2
   1  -1   9 396.059 13.3926  15
   1  -1   9 388.611 13.9130  11
  -1   1   9 391.669 13.4614   8
  -1   1   9 375.425 13.3622   2
  -1  -1  -9 357.354 14.4593   7
   1  -1   9 362.363 18.2604  14
  -1   1   9 382.702 13.6135   9
   1  -1   9 386.900 13.4066   8
   1  -1   9 385.588 13.5632   9
  -1   1   9 393.045 14.2811  11
   1   1   9 388.298 13.4311   2
   1   1   9 380.712 13.2477   8
  -1  -1   9 396.716 13.6378  15
  -1  -1   9 400.646 13.6352   2
  -1  -1   9 399.465 13.5549   8
  -1  -1   9 402.422 13.7378   9
   1   1   9 390.218 14.0610  11
   1   1   9 378.206 13.5951   9
   1  -1  -9 375.585 13.8929   7
   3  -1   9 56.6350 3.48092  15
   3  -1   9 55.7968 3.48293   2
  -3  -1  -9 53.9718 3.60099   7
  -3   1   9 56.6633 3.22912   8
   3  -1   9 53.0046 3.48874  11
   3  -1   9 58.7336 3.55314   8
  -3   1   9 56.2649 3.69876  11
   3  -1   9 57.9564 6.05742  14
  -3   1   9 54.0098 3.10194   2
   3  -1   9 55.5838 3.40964   9
  -3   1   9 52.0628 3.14758   9
   3   1   9 55.2232 3.23954   8
   3   1   9 61.6164 3.64200   9
  -3  -1   9 57.0118 3.14767   5
   3   1   9 54.0938 3.36632   2
  -3  -1   9 60.2189 3.36956   9
   3   1   9 53.8537 3.58161  11
   3   1   9 55.5804 3.35027  15
  -3  -1   9 59.8455 3.22745   8
   3  -1  -9 51.6262 3.25459   7
  -3  -1   9 57.9487 3.22061   2
  -3  -1   9 56.0438 3.61321  11
  -5  -1  -9 103.026 5.32213   7
   5  -1   9 105.467 4.74408  15
   5  -1   9 107.376 4.72421   9
  -5   1   9 114.921 4.81385   8
  -5   1   9 109.190 5.04842  11
  -5   1   9 109.647 4.52455   2
   5  -1   9 95.6691 7.69279  14
   5  -1   9 112.770 5.01760   2
   5  -1   9 109.796 4.82325   8
   5  -1   9 102.656 4.16738   6
   5   1   9 99.4086 4.41586   8
   5   1   9 108.195 8.18957  14
  -5  -1   9 114.775 4.75894   2
   5   1   9 109.779 4.93959   9
   5   1   9 110.790 4.90108   2
  -5  -1   9 109.904 5.20314  11
  -5  -1   9 109.598 4.69155   5
  -5  -1   9 111.380 4.76224   8
   5   1   9 110.292 4.69055  15
  -5  -1   9 110.526 4.74168   9
   7  -1   9 5.11398 2.13815  14
  -7   1   9 4.59715 1.05994   8
   7  -1   9 4.53469 0.98013  15
   7  -1   9 5.42621 0.91469   6
   7  -1   9 6.65925 1.37089   2
   7  -1   9 5.85112 1.20654   8
  -7   1   9 5.06736 1.58922   2
  -7  -1  -9 6.52194 1.68728   7
  -7  -1   9 3.63107 0.73723   8
   7   1   9 5.15288 1.10283  15
  -7  -1   9 6.41809 1.06328   2
  -7  -1   9 4.41342 1.24984   9
   7   1   9 6.71175 2.19822  14
   0  -2   9 2042.77 62.5142   2
   0  -2   9 2030.32 62.5764   9
   0  -2   9 1716.59 62.3993   5
   0  -2   9 1884.87 62.0501  15
   0   2   9 2007.24 62.9405   2
   0   2   9 2050.32 62.8846   8
   0   2   9 2048.51 63.2724   9
   0  -2  -9 2038.80 63.7067   7
   0   2   9 2059.84 64.0313  11
   0  -2   9 2041.08 62.4350   8
   0  -2   9 2038.53 62.5868  11
  -2   2   9 28.7629 2.11811   8
  -2   2   9 25.1468 2.04985  16
  -2  -2  -9 31.0892 2.96602   7
   2  -2   9 30.1777 2.49210  15
   2  -2   9 27.5616 2.45381   2
   2  -2   9 25.8931 2.51139  11
  -2   2   9 26.8247 2.76915  11
   2  -2   9 27.6720 2.32468   9
   2  -2   9 28.0981 4.27160  14
   2  -2   9 27.2983 2.37394   8
  -2   2   9 27.4291 2.43483   9
  -2   2   9 29.1410 2.84085   2
   2   2   9 24.0265 2.28982   8
  -2  -2   9 26.0906 2.45451   8
   2  -2  -9 28.1434 2.51438   7
  -2  -2   9 28.3327 2.27057   2
   2   2   9 30.4429 2.68170   9
   2   2   9 30.1376 2.43486   2
   2   2   9 26.0111 2.77539  11
  -2  -2   9 27.0524 2.39592   9
  -2  -2   9 28.1473 2.64824  11
  -2  -2   9 27.3009 2.30166   5
  -4   2   9 116.040 4.83806   8
   4  -2   9 99.1419 4.73582  15
   4  -2   9 108.423 4.90814   8
   4  -2   9 106.510 4.62307   9
   4  -2   9 110.754 4.91089   2
   4  -2   9 103.582 4.20766   6
   4  -2   9 110.417 8.16886  14
  -4  -2  -9 112.765 5.55505   7
  -4   2   9 107.582 5.19588  11
  -4  -2   9 107.419 4.89673   9
  -4  -2   9 112.315 5.33956  11
  -4  -2   9 113.153 4.80934   8
   4   2   9 111.053 4.85018  15
   4   2   9 111.302 5.09254   9
  -4  -2   9 116.242 4.83648   2
  -4  -2   9 107.733 4.65832   5
   4   2   9 103.055 4.67794   2
   4  -2  -9 111.086 5.14722   7
   6  -2   9 125.048 4.57220   6
   6  -2   9 128.969 7.91482  14
   6  -2   9 126.851 4.99610   8
   6  -2   9 123.786 5.05851  15
  -6  -2  -9 132.527 5.87442   7
  -6   2   9 116.224 5.65951   8
  -6  -2   9 129.434 4.95822   2
  -6  -2   9 126.590 5.17559  11
   6   2   9 124.279 4.75213  15
  -6  -2   9 120.829 4.65152   8
   6   2   9 119.425 8.28506  14
   6   2   9 116.508 4.42864   3
   8  -2   9 74.5800 4.13156  14
  -8   2   9 75.0470 2.73338   8
   8  -2   9 75.0651 2.77774   8
   8  -2  -9 72.3881 2.80912   7
  -8  -2   9 74.1374 2.76140   2
  -1   3   9 257.672 9.48365  16
   1  -3   9 261.475 9.34906   2
   1  -3   9 258.128 9.10468  15
   1  -3   9 253.987 9.60787  11
   1  -3   9 254.018 8.88626   5
   1  -3   9 260.190 9.31980   9
   1  -3   9 259.062 9.34625   8
   1  -3   9 262.321 12.5624  14
   1  -3   9 249.019 8.81860  13
   1  -3   9 264.506 9.71480  12
   1  -3   9 247.317 8.80356   6
   1   3   9 261.680 9.32408  16
  -1  -3   9 250.730 9.77252   9
  -1  -3   9 261.448 9.45768   5
  -1  -3   9 263.694 9.45731   2
  -1  -3   9 265.767 9.89489  12
   1   3   9 261.412 9.43258   9
  -1  -3   9 264.762 9.33924   8
  -1  -3   9 267.001 8.95792  13
   3  -3   9 28.5724 2.30870   9
   3  -3   9 27.9573 1.76303   6
  -3  -3  -9 31.5508 2.75872   7
  -3   3   9 28.8297 1.99640   8
   3  -3   9 28.2754 2.45534   8
   3  -3   9 25.3148 1.76047  13
   3  -3   9 27.0959 2.07402   2
   3  -3   9 28.5889 2.11162  15
   3  -3   9 29.8448 4.09660  14
  -3  -3   9 29.5841 2.58497  12
   3  -3  -9 32.5968 2.58270   7
  -3  -3   9 28.8983 2.04766   8
  -3  -3   9 29.4250 2.21382   9
  -3  -3   9 33.8443 2.40696   5
  -3  -3   9 29.8531 2.54415  11
  -3  -3   9 30.6425 2.12670   2
  -5   3   9 74.0351 3.10410   8
   5  -3   9 76.9210 3.31952   6
   5  -3   9 80.2618 3.90831   8
   5  -3   9 73.8607 3.33199   2
   5  -3   9 72.8517 8.14954  14
  -5  -3   9 77.5216 3.42356   2
   5   3   9 77.0574 3.45300  15
  -5  -3   9 75.7226 4.78009  11
   7  -3   9 4.72036 0.74270   8
   7  -3   9 2.86277 1.03621  14
   7  -3   9 3.18296 0.78326   6
  -7  -3  -9 3.71128 0.79442   7
   7  -3   9 2.89547 0.67779  15
   7   3   9 2.83272 1.05505  14
  -7  -3   9 3.15494 0.67429   2
  -7  -3   9 3.62052 0.64990   9
   0  -4  -9 1265.16 38.2968   7
   0  -4   9 1198.81 36.7542   6
   0   4   9 1199.86 38.0864  16
   0  -4   9 1215.45 37.6783   2
   0  -4   9 1117.19 39.8045  12
   0  -4   9 1176.69 37.9302   9
   2  -4   9 19.8767 1.37737  13
   2  -4   9 16.7925 2.73478  14
   2  -4   9 14.3128 1.63287   8
   2  -4   9 18.3107 1.38789   6
  -2   4   9 18.1903 1.77545  16
  -2  -4  -9 21.2118 2.16789   7
   2  -4   9 17.4748 1.89256  12
   2  -4   9 17.1262 1.42229  15
  -2  -4   9 18.0903 2.10947  11
  -2  -4   9 16.7722 1.54382   2
  -2  -4   9 15.2066 2.03008   9
   2   4   9 14.3152 1.58537  16
   2  -4  -9 18.9016 2.12132   7
  -2  -4   9 16.6793 1.81085  12
   4  -4   9 90.6439 3.34155   6
   4  -4   9 89.4672 5.74698  14
   4  -4   9 85.8473 4.02620   8
   4  -4   9 86.8292 3.51106  15
  -4  -4  -9 92.6449 4.11505   7
  -4  -4   9 91.1707 3.59876   5
  -4  -4   9 84.7002 3.63939   2
  -4  -4   9 89.3991 4.79639  12
  -4  -4   9 80.6972 3.89048  11
   4  -4  -9 85.5131 3.86061   7
  -4  -4   9 88.8954 3.61885   9
   4   4   9 89.0371 3.59279  15
   6  -4   9 47.0691 2.97924  14
  -6  -4  -9 76.8618 3.13237   7
  -6  -4   9 80.6889 2.87872   5
  -6  -4   9 66.7847 3.35964  11
  -6  -4   9 74.2699 2.99190   9
   1  -5   9 140.841 4.70686  13
   1  -5   9 134.480 4.98338   6
  -1  -5  -9 133.725 5.13750   7
   1  -5   9 135.713 5.08831  12
  -1  -5   9 124.467 5.09041  11
  -1  -5   9 135.934 4.94429  12
   3  -5   9 7.93251 1.71722  14
  -3  -5  -9 7.51301 1.03558   7
   3   5   9 8.63060 0.90119  15
  -3  -5   9 9.31126 1.01176  11
  -3  -5   9 8.75971 0.99134   5
   0   0  10 29.6156 2.58612   2
   0   0  10 26.1509 2.35485   9
   0   0  10 28.6068 2.67189  11
   0   0  10 25.9186 2.19741   8
   0   0  10 24.9311 2.20424  15
   2   0  10 60.0117 3.90736   8
  -2   0  10 68.7579 4.82189  11
   2   0  10 65.2238 4.24834   9
  -2   0  10 61.3096 3.96834   8
   2   0  10 60.0802 3.83836  15
   2   0  10 59.4403 5.66804  14
  -4   0  10 1.43422 0.72959   8
  -4   0  10 1.26910 0.87431  11
  -4   0  10 1.25499 0.61392   9
   4   0  10 1.40677 0.91336  15
   4   0  10 0.83204 1.29028  14
   4   0  10 1.29985 0.55372   2
   4   0  10 1.46436 0.86526   9
  -4   0  10 0.83959 0.39563   2
   4   0  10 1.00432 0.89959   8
  -6   0  10 1.79748 1.21603  11
   6   0  10 1.92982 0.68141   8
   6   0  10 -0.1400 0.63393  15
   6   0  10 0.63283 0.43114   2
   6   0  10 1.35278 1.08516  14
  -6   0  10 0.72303 0.58154   8
  -1  -1 -10 120.149 5.62852   7
  -1   1  10 115.265 5.70604  15
   1  -1  10 130.294 5.50372   8
   1  -1  10 131.310 5.81202   2
   1  -1  10 133.499 7.83981  11
  -1   1  10 127.894 6.14701  11
  -1  -1  10 130.452 5.40807   2
   1  -1 -10 119.798 5.62071   7
   1   1  10 130.981 6.44691   9
   1   1  10 132.913 6.07593  11
   1   1  10 129.349 6.84349  15
  -1  -1  10 124.530 6.04533  11
  -1  -1  10 127.996 5.66736   9
  -3   1  10 3.20714 0.75517   9
  -3   1  10 5.23263 1.63494  11
   3  -1  10 3.47155 0.94851   9
   3  -1  10 2.28194 0.88262   8
   3  -1  10 1.90804 0.60270   2
   3  -1  10 4.42539 1.14372  15
  -3   1  10 5.39934 1.46730   2
  -3   1  10 2.34060 0.83720   8
   3   1  10 3.33191 1.17536  15
  -3  -1  10 5.60717 1.45882   5
  -3  -1  10 2.71847 0.86310   9
   3   1  10 1.53796 0.76911   8
  -3  -1  10 5.39561 1.41029   8
   3   1  10 1.87001 0.55571   2
   3  -1 -10 2.50305 1.10876   7
   3   1  10 1.98584 0.94044   9
  -3  -1  10 3.39778 1.06899  11
  -3  -1  10 1.73146 0.49533   2
   5  -1  10 72.8536 6.67895  14
  -5   1  10 66.1281 3.23802  11
   5  -1  10 63.1249 3.12340   9
   5  -1  10 66.0978 3.18728  15
  -5   1  10 64.0610 2.92058   2
   5  -1  10 69.7308 3.40058   2
  -5  -1 -10 62.7342 3.45305   7
  -5   1  10 70.5359 3.15169   8
   5  -1  10 66.2917 3.24418   8
  -5  -1  10 67.4564 3.16720   2
  -5  -1  10 61.3236 4.07536   8
   5  -1 -10 60.7750 3.10295   7
   5   1  10 70.6127 3.18395  15
   5   1  10 64.7398 2.89527   8
  -5  -1  10 73.5418 4.03930   9
  -7   1  10 12.0175 1.29343   8
   7  -1  10 11.9548 0.99365  15
   7  -1  10 13.3804 2.04266  14
   7  -1  10 12.5895 1.10451   8
  -7  -1  10 12.8127 1.06229   2
  -7  -1  10 12.1058 1.08231   8
   7   1  10 12.9193 1.13125  15
   7  -1 -10 11.9760 1.27722   7
   7   1  10 13.0575 1.96144  14
   0  -2  10 19.4415 2.14462   8
   0  -2  10 19.8449 2.00993   2
   0   2  10 15.6163 1.95598   2
   0   2  10 22.1167 1.63911   8
   0  -2  10 21.2259 2.17189  11
   0  -2  10 19.6830 1.94020   9
   0   2  10 18.4220 2.32216  11
   0  -2 -10 18.3660 2.39814   7
   0  -2  10 16.8088 1.80886  15
   0   2  10 18.5481 2.16904   9
   2  -2  10 49.1364 2.76231   8
  -2   2  10 46.0605 2.73258   9
  -2  -2 -10 46.3614 3.33256   7
   2  -2  10 46.5025 2.60722  15
   2  -2  10 45.9498 2.85760  11
   2  -2  10 45.7010 2.76206   9
  -2   2  10 48.6265 2.53995   8
   2  -2  10 44.3708 4.39308  14
  -2   2  10 46.9148 3.17853  11
   2  -2  10 45.5364 2.84795   2
  -2  -2  10 47.2770 2.82909   9
  -2  -2  10 46.2978 2.44985   5
   2   2  10 43.6544 2.53600   8
   2   2  10 46.0512 2.88535   9
  -2  -2  10 43.4711 2.78688   2
  -2  -2  10 48.6713 3.13302  11
   2   2  10 40.8635 2.64872   2
  -2  -2  10 47.6983 2.64420   8
   2  -2 -10 46.2518 3.07750   7
   2   2  10 45.7372 2.83261  15
   4  -2  10 1.47760 0.72369   9
   4  -2  10 0.16486 0.52082   2
  -4   2  10 1.19661 0.69288   8
   4  -2  10 2.79334 0.95828  15
   4  -2  10 0.18755 1.62170  14
   4  -2  10 1.38033 0.72824   8
  -4   2  10 0.49765 0.75372  11
   4   2  10 1.06793 1.21934  14
  -4  -2  10 1.29187 0.59238   9
   4   2  10 0.14613 0.42251   2
  -4  -2  10 0.69193 0.79439  11
  -4  -2  10 0.87529 0.38430   2
   4   2  10 0.98783 0.81445  15
  -4  -2  10 1.21913 0.88140   8
   6  -2  10 1.21273 0.58132  15
   6  -2  10 0.69167 0.99888  14
   6  -2  10 0.25659 0.48139   2
  -6  -2 -10 1.72318 0.88797   7
   6  -2  10 0.68998 0.58347   8
  -6   2  10 -0.3293 0.60759   8
   6   2  10 0.92187 1.13627  14
   6   2  10 1.24076 0.51361  15
  -6  -2  10 0.30321 0.29101   2
  -6  -2  10 -0.0721 0.46526   9
  -6  -2  10 -0.1378 0.54631  11
   6  -2 -10 1.02195 0.71929   7
   1  -3  10 91.8686 3.75529  15
   1  -3  10 97.8198 4.53093   2
   1  -3  10 96.9093 5.10898  11
  -1  -3 -10 99.7119 4.62086   7
   1  -3  10 94.1459 4.01799   8
  -1  -3  10 100.736 4.42872  11
  -1  -3  10 91.0864 4.02722   9
  -1  -3  10 90.1113 4.01610   2
  -1  -3  10 96.7659 4.71492   8
  -1  -3  10 94.6737 3.74174   5
   1  -3 -10 99.0146 4.57606   7
   3  -3  10 3.66914 0.74101   8
  -3  -3 -10 2.73813 1.21510   7
  -3   3  10 7.75356 1.75719   8
   3  -3  10 5.30423 1.11021   2
   3  -3  10 3.00232 1.72204  14
   3  -3  10 4.28532 1.00797  15
  -3  -3  10 4.08233 1.27264   2
  -3  -3  10 2.70336 1.25769  11
  -3  -3  10 2.84451 1.02425   8
  -3  -3  10 2.90553 0.85328   9
   3   3  10 2.04639 1.95403  14
   3   3  10 5.98255 1.40625  15
  -3  -3  10 3.25489 1.22094   5
   5  -3  10 50.8627 2.27061  15
   5  -3  10 47.7008 4.30918  14
   5  -3  10 49.0025 2.95179   8
  -5  -3  10 50.0433 3.26784  11
   5   3  10 42.9794 2.36007  15
   5  -3 -10 47.7007 2.60214   7
  -5  -3  10 50.0876 2.36639   9
  -5  -3  10 55.9431 2.99168   2
   0  -4  10 7.98534 1.18508  11
   0  -4  10 5.44517 0.98878   9
   0  -4 -10 8.99453 1.52916   7
  -2  -4 -10 28.2649 1.95629   7
   2  -4  10 20.3363 1.59334  15
  -2  -4  10 25.5367 1.94876   9
  -2  -4  10 25.5356 1.71627   5
   2  -4 -10 24.4629 1.86133   7
  -2  -4  10 25.5650 1.73436  11
   4  -4  10 0.56575 0.70958  15
  -4  -4 -10 2.22141 0.77041   7
  -4  -4  10 1.27599 0.40181   9
   4  -4 -10 0.97755 0.70755   7
   4   4  10 1.32709 0.62744  15
  -4  -4  10 1.36751 0.46842  11
   0   0  11 61.4474 3.19019   8
   0   0  11 67.3875 3.24231  15
   0   0  11 65.7503 3.40824   9
   0   0  11 63.3605 3.58017  11
   0   0  11 63.9583 3.25600   2
  -2   0  11 33.9852 2.22473   2
   2   0  11 34.4252 2.44575   2
  -2   0  11 34.4451 2.23841   9
   2   0  11 38.2534 2.63498  11
   2   0  11 35.3248 2.19592  15
   2   0  11 34.6040 2.26396   8
  -2   0  11 35.5732 2.21255   8
   2   0  11 35.4108 2.38426   9
  -4   0  11 28.1513 2.10617  11
   4   0  11 26.3850 1.87897   9
  -4   0  11 24.7137 1.71015   2
   4   0  11 28.6754 1.99160   2
   4   0  11 25.1991 1.68568   8
   4   0  11 21.7969 2.67064  14
  -4   0  11 25.0794 1.62561   9
   4   0  11 27.5503 1.77838  15
  -4   0  11 27.2674 1.79507   8
   6   0  11 92.7346 3.18919  15
   6   0  11 74.2962 5.49880  14
  -6   0  11 95.5201 3.50737   8
   6   0  11 90.0670 3.30497   2
   1  -1  11 25.6315 2.97685  15
  -1   1  11 28.3259 1.83041  15
  -1   1  11 26.5976 2.04336   9
   1  -1  11 25.6415 2.11510   2
   1  -1  11 27.1685 2.10793  11
   1  -1  11 28.2635 2.14517   9
   1  -1  11 26.8233 2.05061   8
  -1  -1 -11 25.4201 2.46496   7
  -1   1  11 27.6531 1.84876   8
   1   1  11 27.2887 2.49353  11
  -1  -1  11 26.6954 2.07189   9
  -1  -1  11 27.1687 2.21925  11
   1   1  11 27.7320 2.10209  15
   1   1  11 27.6293 2.13770   9
   1   1  11 26.9148 1.95777   2
   1   1  11 26.8027 1.85480   8
  -1  -1  11 29.8292 1.98265   8
  -1  -1  11 28.9115 2.09522   2
   3  -1  11 66.2460 3.30035  15
   3  -1  11 60.1606 4.66591  14
   3  -1  11 65.5980 3.77804   8
  -3   1  11 65.1500 2.83948   9
   3  -1  11 54.8660 3.85057   9
  -3   1  11 63.6670 4.33437  11
  -3   1  11 64.3786 2.80757   2
  -3  -1  11 53.9185 3.77397   8
  -3  -1  11 70.9736 3.56206   9
   3   1  11 61.5023 2.92519   2
   3  -1 -11 59.9519 2.99062   7
  -3  -1  11 55.5298 4.09816  11
  -3  -1  11 69.6103 4.11300   2
   3   1  11 61.1602 2.77176   8
   5  -1  11 0.70125 0.58723  15
  -5   1  11 0.49173 0.45114   8
   5  -1  11 0.59551 0.51310   8
   5  -1  11 -0.1438 0.30929   2
   5  -1  11 0.36751 0.75504  14
   5   1  11 0.05838 0.38320   2
   5   1  11 0.01259 0.54489  15
  -5  -1  11 -0.3484 0.55828  11
  -5  -1  11 0.30498 0.46818   9
  -5  -1  11 0.48963 0.26731   2
  -5  -1  11 0.41727 0.75853   8
   5  -1 -11 1.05061 0.60721   7
   0   2  11 57.6162 2.64680  15
   0  -2  11 51.4830 3.57854   8
   0  -2  11 57.7575 3.20538   9
   0  -2  11 50.8962 2.79089   2
   0  -2 -11 46.6724 3.00382   7
   0   2  11 49.8788 2.39810   8
   0  -2  11 48.3374 3.70333  11
   0   2  11 48.3424 2.51806   9
   2  -2  11 32.2677 2.06452   2
  -2   2  11 30.9572 1.80315   8
   2  -2  11 30.7171 3.09323  11
   2  -2  11 31.4931 1.92113   9
   2  -2  11 32.1752 1.89234  15
   2  -2  11 31.6346 1.95489   8
  -2  -2 -11 29.6314 2.34341   7
   2   2  11 30.6800 1.95848   9
  -2  -2  11 30.8219 2.00838   9
  -2  -2  11 31.7896 2.37113  11
   2  -2 -11 30.5745 2.15903   7
  -2  -2  11 30.8110 1.96136   8
  -2  -2  11 34.4513 2.11282   2
   2   2  11 31.8506 1.93218  15
   4  -2  11 16.7112 1.99679  14
   4  -2  11 20.6063 1.35973  15
  -4   2  11 19.0560 1.40595   8
   4  -2  11 21.5139 1.54059   2
  -4  -2 -11 21.5430 1.66933   7
   4  -2  11 20.0487 1.48277   8
  -4  -2  11 20.2906 1.43853   9
   4   2  11 20.2547 1.40612  15
  -4  -2  11 20.9466 1.37294   8
  -4  -2  11 19.9203 1.60372  11
  -4  -2  11 21.0039 1.52635   2
   1  -3  11 19.0501 1.99639   2
   1  -3  11 18.4161 1.39926   9
   1  -3  11 19.2668 1.97959   8
  -1   3  11 20.4611 1.38168  15
  -1  -3 -11 21.1710 1.82211   7
  -1  -3  11 20.1103 1.61799  11
   1   3  11 19.5017 1.36222  15
   1  -3 -11 20.0502 1.62149   7
  -1  -3  11 19.2712 1.31779   8
  -1  -3  11 18.8461 1.43899   9
  -1  -3  11 19.5185 1.39703   2
  -3  -3 -11 42.7392 2.21206   7
   3  -3  11 44.3082 2.04449  15
   3  -3  11 42.2923 1.94635   8
  -3  -3  11 48.4533 2.98415  11
  -3  -3  11 42.3583 2.14320   9
   3  -3 -11 44.3966 2.17220   7
  -3  -3  11 42.4037 1.92806   2
   3   3  11 43.1104 2.22397  15
   0   0  12 17.2853 1.58841  11
   0   0  12 16.9110 1.56922   2
   0   0  12 17.7268 1.51744   9
   0   0  12 16.9499 1.37839   8
  -2   0  12 87.4974 3.42976   8
  -2   0  12 84.8042 3.70194  11
  -2   0  12 91.1416 4.11948   2
   2   0  12 81.4205 3.49502   2
  -2   0  12 82.1452 3.71071   9
   2   0  12 87.6292 3.48211   8
   2   0  12 95.1577 4.30543  15
   2   0  12 89.0163 3.63662   9
   4   0  12 46.9542 2.02236   2
  -4   0  12 42.9046 1.80122   8
   4   0  12 44.7954 1.87073  15
   1  -1  12 178.608 6.23973   8
  -1   1  12 184.642 6.59308  11
  -1   1  12 178.312 6.28027   8
   1  -1  12 176.335 6.56755   2
   1  -1  12 178.073 7.20087  11
  -1   1  12 181.004 6.40631   2
   1  -1  12 176.510 6.28814  15
  -1   1  12 181.631 7.30638   9
   1  -1  12 179.887 6.60756   9
  -1  -1  12 181.864 6.22845   8
  -1  -1  12 178.601 6.26772   2
   1   1  12 177.990 6.54313   8
  -1  -1  12 184.318 6.75495   9
  -1  -1  12 182.069 6.65962  11
   1   1  12 181.247 6.35477   2
   1   1  12 179.325 6.31855  15
   1   1  12 182.842 6.55783   9
   3  -1  12 215.379 8.00173   2
  -3   1  12 244.818 7.94490   8
   3  -1  12 230.997 7.58586  15
   3  -1  12 233.460 7.69756   9
   3  -1  12 245.017 7.73943   8
   3   1  12 236.294 7.64461  15
   3   1  12 229.187 7.95524   2
  -3  -1  12 244.531 8.06826   2
  -3  -1  12 241.974 8.02070   8
  -3  -1  12 236.541 8.04204   9
  -3  -1  12 244.817 8.28565  11
   0  -2  12 16.1012 1.73187   2
   0  -2  12 14.6385 1.09618   8
   0  -2  12 13.8433 1.29726   9
   0  -2  12 14.8321 1.17868  11
   2  -2  12 68.7961 3.04027   9
   2  -2  12 72.1181 2.78894   8
   2  -2  12 70.2495 2.77277   2
  -2  -2  12 69.9063 2.85638  11
  -2  -2  12 71.0386 2.74603   9
  -2  -2  12 66.5538 3.00401   8
  -2  -2  12 70.2878 2.71471   2
   2   2  12 71.8456 2.68965  15
   0   0   0    0.00    0.00   0
;
_shelx_hkl_checksum              17703
_shelx_res_file
;
TITL c21005 : space group Abm2
    c21005.res
    created by SHELXL-2018/3 at 10:16:43 on 29-Apr-2021
CELL  1.54178  10.2045   6.1282   9.7293   90.000   90.000   90.000
ZERR        4   0.0006   0.0004   0.0006    0.000    0.000    0.000
LATT -5
SYMM -X, -Y, Z
SYMM X, 1/2-Y, Z
SYMM -X, 1/2+Y, Z
SFAC C H N O
UNIT 24 20 4 16
TEMP -183
SIZE 0.14 0.10 0.02
REM COLR colourless
REM FORM plate
L.S. 10
BOND $H
TWIN -1 0 0 0 -1 0 0 0 -1
LIST 4
MORE 3
ACTA
EADP N1 C2'
EADP C2 N1'
EADP C3 C6'
EADP O1 O2'
EADP C4 C5'
EADP C5 C4'
EADP C6 C3'
EADP O2 O1'
EADP C7 C7'
EADP O3 O3'
EADP O4 O4'
SADI 0.010 N1 H1N N1' H1'N
SADI 0.010 O1 H1O O1' H1'O
SADI 0.010 O2 H2O O2' H2'O
CONF
HTAB
REM Instructions for potential hydrogen bonds
EQIV $1 -x+1, -y+1/2, z-1/2
HTAB N1 O4_$1
HTAB O1 O4
EQIV $2 -x, -y+1/2, z-1/2
HTAB C5 O1_$2
HTAB O2 O3_$1
HTAB O2 O4_$1
EQIV $3 -x+1, -y+1/2, z+1/2
HTAB N1' O4'_$3
HTAB O1' O4'
EQIV $4 -x, -y+1/2, z+1/2
HTAB C5' O1'_$4
HTAB O2' O3'_$3
HTAB O2' O4'_$3
FMAP 2
PLAN 5
REM EXTI    0.000000 : removed as not needed.
REM BASF   0.53198, SU = 0.3 : removed so twin fraction fixed at 0.5 each.
REM Hooft and Parsons parameters were more definitive than Flack's parameter.
WGHT    0.050000    0.051200
FVAR       0.90842   0.95306   0.33274   0.32596   0.20327   0.19022   0.09194
FVAR       0.10115   0.22795   0.23688   0.44881   0.55590   0.43850   0.44103
FVAR       0.58275   0.64582   0.78305   0.56262   0.42262   0.35916   0.22580
FVAR       0.66165   0.59684   0.79057
PART 1
N1    3   31.000000    0.250000  141.000000    20.50000    0.01424    0.01902 =
         0.01047    0.00000   -0.00003    0.00000
AFIX  44
H1N   2    0.420670    0.250000    0.397586    20.50000   -1.20000
AFIX   0
C2    1   41.000000    0.250000  151.000000    20.50000    0.01265    0.01553 =
         0.01119    0.00000   -0.00156    0.00000
C3    1   51.000000    0.250000  161.000000    20.50000    0.01512    0.01797 =
         0.01128    0.00000    0.00398    0.00000
O1    4   61.000000    0.250000  171.000000    20.50000    0.01670    0.02742 =
         0.01231    0.00000    0.00409    0.00000
AFIX  84
H1O   2    0.269050    0.250000    0.821896    20.50000   -1.50000
AFIX   0
C4    1   71.000000    0.250000  181.000000    20.50000    0.01588    0.02218 =
         0.02016    0.00000    0.00255    0.00000
AFIX  43
H4    2    0.007769    0.250000    0.604343    20.50000   -1.20000
AFIX   0
C5    1   81.000000    0.250000  191.000000    20.50000    0.01499    0.02588 =
         0.01657    0.00000   -0.00173    0.00000
AFIX  43
H5    2    0.024166    0.250000    0.367711    20.50000   -1.20000
AFIX   0
C6    1   91.000000    0.250000  201.000000    20.50000    0.01496    0.01700 =
         0.01414    0.00000   -0.00310    0.00000
O2    4  101.000000    0.250000  211.000000    20.50000    0.01627    0.02949 =
         0.01005    0.00000    0.00028    0.00000
AFIX  84
H2O   2    0.325989    0.250000    0.199960    20.50000   -1.50000
AFIX   0
C7    1  111.000000    0.250000  221.000000    20.50000    0.01669    0.01963 =
         0.01116    0.00000   -0.00020    0.00000
O3    4  121.000000    0.250000  231.000000    20.50000    0.01409    0.02681 =
         0.01365    0.00000   -0.00083    0.00000
O4    4  131.000000    0.250000  241.000000    20.50000    0.01477    0.03679 =
         0.01573    0.00000   -0.00135    0.00000
PART 2
N1'   3   31.000000    0.250000 -141.000000   -20.50000    0.01265    0.01553 =
         0.01119    0.00000   -0.00156    0.00000
AFIX  44
H1'N  2    0.420644    0.250000    0.602401   -20.50000   -1.20000
AFIX   0
C2'   1   41.000000    0.250000 -151.000000   -20.50000    0.01424    0.01902 =
         0.01047    0.00000   -0.00003    0.00000
C3'   1   51.000000    0.250000 -161.000000   -20.50000    0.01496    0.01700 =
         0.01414    0.00000   -0.00310    0.00000
O1'   4   61.000000    0.250000 -171.000000   -20.50000    0.01627    0.02949 =
         0.01005    0.00000    0.00028    0.00000
AFIX  84
H1'O  2    0.269046    0.250000    0.178106   -20.50000   -1.50000
AFIX   0
C4'   1   71.000000    0.250000 -181.000000   -20.50000    0.01499    0.02588 =
         0.01657    0.00000   -0.00173    0.00000
AFIX  43
H4'   2    0.007769    0.250000    0.395657   -20.50000   -1.20000
AFIX   0
C5'   1   81.000000    0.250000 -191.000000   -20.50000    0.01588    0.02218 =
         0.02016    0.00000    0.00255    0.00000
AFIX  43
H5'   2    0.024166    0.250000    0.632289   -20.50000   -1.20000
AFIX   0
C6'   1   91.000000    0.250000 -201.000000   -20.50000    0.01512    0.01797 =
         0.01128    0.00000    0.00398    0.00000
O2'   4  101.000000    0.250000 -211.000000   -20.50000    0.01670    0.02742 =
         0.01231    0.00000    0.00409    0.00000
AFIX  84
H2'O  2    0.326029    0.250000    0.800052   -20.50000   -1.50000
AFIX   0
C7'   1  111.000000    0.250000 -221.000000   -20.50000    0.01669    0.01963 =
         0.01116    0.00000   -0.00020    0.00000
O3'   4  121.000000    0.250000 -231.000000   -20.50000    0.01409    0.02681 =
         0.01365    0.00000   -0.00083    0.00000
O4'   4  131.000000    0.250000 -241.000000   -20.50000    0.01477    0.03679 =
         0.01573    0.00000   -0.00135    0.00000
PART 0
HKLF 4 1 0 0 1 0 -1 0 1 0 0
REM  c21005 : space group Abm2
REM wR2 = 0.0675, GooF = S = 1.109, Restrained GooF = 1.105 for all data
REM R1 = 0.0243 for 690 Fo > 4sig(Fo) and 0.0246 for all 700 data
REM 74 parameters refined using 4 restraints
END
WGHT      0.0500      0.0512
REM Instructions for potential hydrogen bonds
HTAB N1 O4_$1
HTAB O1 O4
HTAB C5 O1_$2
HTAB O2 O3_$1
HTAB O2 O4_$1
HTAB N1' O4'_$3
HTAB O1' O4'
HTAB C5' O1'_$4
HTAB O2' O3'_$3
HTAB O2' O4'_$3
REM Highest difference peak  0.202,  deepest hole -0.251,  1-sigma level  0.050
Q1    1   0.2452  0.2500  0.9466  10.50000  0.05    0.20
Q2    1   0.6021  0.2500  0.4401  10.50000  0.05    0.19
Q3    1   0.1699  0.2500  0.0606  10.50000  0.05    0.19
Q4    1   0.3645  0.2500  0.1341  10.50000  0.05    0.17
Q5    1   0.6943  0.2500  0.4961  10.50000  0.05    0.16
;
_shelx_res_checksum              41291
loop_
_space_group_symop_operation_xyz
'x, y, z'
'-x, -y, z'
'x, -y+1/2, z'
'-x, y+1/2, z'
'x, y+1/2, z+1/2'
'-x, -y+1/2, z+1/2'
'x, -y+1, z+1/2'
'-x, y+1, z+1/2'
loop_
_atom_site_type_symbol
_atom_site_label
_atom_site_fract_x
_atom_site_fract_y
_atom_site_fract_z
_atom_site_U_iso_or_equiv
_atom_site_adp_type
_atom_site_calc_flag
_atom_site_occupancy
_atom_site_disorder_assembly
_atom_site_disorder_group
N N1 0.3327(2) 0.250000 0.44103(19) 0.0146(4) Uani d 0.953(3) A 1
H H1N 0.421(3) 0.25000(2) 0.3976(15) 0.017 Uiso calc 0.953(3) A 1
C C2 0.3260(2) 0.250000 0.5827(2) 0.0131(5) Uani d 0.953(3) A 1
C C3 0.2033(3) 0.250000 0.6458(3) 0.0148(5) Uani d 0.953(3) A 1
O O1 0.19022(19) 0.250000 0.7831(2) 0.0188(4) Uani d 0.953(3) A 1
H H1O 0.269(4) 0.25000(2) 0.8219(19) 0.028 Uiso calc 0.953(3) A 1
C C4 0.0919(3) 0.250000 0.5626(3) 0.0194(6) Uani d 0.953(3) A 1
H H4 0.007769 0.250000 0.604343 0.023 Uiso calc 0.953(3) A 1
C C5 0.1011(2) 0.250000 0.4226(3) 0.0191(5) Uani d 0.953(3) A 1
H H5 0.024166 0.250000 0.367711 0.023 Uiso calc 0.953(3) A 1
C C6 0.2280(2) 0.250000 0.3592(3) 0.0154(5) Uani d 0.953(3) A 1
O O2 0.2369(2) 0.250000 0.22580(18) 0.0186(4) Uani d 0.953(3) A 1
H H2O 0.326(3) 0.25000(2) 0.2000(10) 0.028 Uiso calc 0.953(3) A 1
C C7 0.4488(2) 0.250000 0.6616(2) 0.0158(5) Uani d 0.953(3) A 1
O O3 0.55590(18) 0.250000 0.59684(19) 0.0182(4) Uani d 0.953(3) A 1
O O4 0.43850(17) 0.250000 0.7906(2) 0.0224(5) Uani d 0.953(3) A 1
N N1' 0.3327(2) 0.250000 0.55897(19) 0.0131(5) Uani d 0.047(3) A 2
H H1'N 0.421(3) 0.25000(2) 0.6024(16) 0.016 Uiso calc 0.047(3) A 2
C C2' 0.3260(2) 0.250000 0.4173(2) 0.0146(4) Uani d 0.047(3) A 2
C C3' 0.2033(3) 0.250000 0.3542(3) 0.0154(5) Uani d 0.047(3) A 2
O O1' 0.19022(19) 0.250000 0.2169(2) 0.0186(4) Uani d 0.047(3) A 2
H H1'O 0.269(4) 0.25000(2) 0.178(2) 0.028 Uiso calc 0.047(3) A 2
C C4' 0.0919(3) 0.250000 0.4374(3) 0.0191(5) Uani d 0.047(3) A 2
H H4' 0.007769 0.250000 0.395657 0.023 Uiso calc 0.047(3) A 2
C C5' 0.1011(2) 0.250000 0.5774(3) 0.0194(6) Uani d 0.047(3) A 2
H H5' 0.024166 0.250000 0.632289 0.023 Uiso calc 0.047(3) A 2
C C6' 0.2280(2) 0.250000 0.6408(3) 0.0148(5) Uani d 0.047(3) A 2
O O2' 0.2369(2) 0.250000 0.77420(18) 0.0188(4) Uani d 0.047(3) A 2
H H2'O 0.326(4) 0.25000(2) 0.8001(11) 0.028 Uiso calc 0.047(3) A 2
C C7' 0.4488(2) 0.250000 0.3384(2) 0.0158(5) Uani d 0.047(3) A 2
O O3' 0.55590(18) 0.250000 0.40316(19) 0.0182(4) Uani d 0.047(3) A 2
O O4' 0.43850(17) 0.250000 0.2094(2) 0.0224(5) Uani d 0.047(3) A 2
loop_
_atom_site_aniso_label
_atom_site_aniso_U_11
_atom_site_aniso_U_22
_atom_site_aniso_U_33
_atom_site_aniso_U_12
_atom_site_aniso_U_13
_atom_site_aniso_U_23
N1 0.0142(9) 0.0190(8) 0.0105(11) 0.000 0.0000(9) 0.000
C2 0.0127(12) 0.0155(9) 0.0112(10) 0.000 -0.0016(9) 0.000
C3 0.0151(10) 0.0180(11) 0.0113(11) 0.000 0.0040(8) 0.000
O1 0.0167(9) 0.0274(9) 0.0123(8) 0.000 0.0041(7) 0.000
C4 0.0159(12) 0.0222(10) 0.0202(13) 0.000 0.0025(10) 0.000
C5 0.0150(11) 0.0259(10) 0.0166(10) 0.000 -0.0017(9) 0.000
C6 0.0150(12) 0.0170(10) 0.0141(12) 0.000 -0.0031(9) 0.000
O2 0.0163(9) 0.0295(8) 0.0101(8) 0.000 0.0003(6) 0.000
C7 0.0167(10) 0.0196(12) 0.0112(14) 0.000 -0.0002(9) 0.000
O3 0.0141(8) 0.0268(7) 0.0137(8) 0.000 -0.0008(6) 0.000
O4 0.0148(12) 0.0368(11) 0.0157(9) 0.000 -0.0014(7) 0.000
N1' 0.0127(12) 0.0155(9) 0.0112(10) 0.000 -0.0016(9) 0.000
C2' 0.0142(9) 0.0190(8) 0.0105(11) 0.000 0.0000(9) 0.000
C3' 0.0150(12) 0.0170(10) 0.0141(12) 0.000 -0.0031(9) 0.000
O1' 0.0163(9) 0.0295(8) 0.0101(8) 0.000 0.0003(6) 0.000
C4' 0.0150(11) 0.0259(10) 0.0166(10) 0.000 -0.0017(9) 0.000
C5' 0.0159(12) 0.0222(10) 0.0202(13) 0.000 0.0025(10) 0.000
C6' 0.0151(10) 0.0180(11) 0.0113(11) 0.000 0.0040(8) 0.000
O2' 0.0167(9) 0.0274(9) 0.0123(8) 0.000 0.0041(7) 0.000
C7' 0.0167(10) 0.0196(12) 0.0112(14) 0.000 -0.0002(9) 0.000
O3' 0.0141(8) 0.0268(7) 0.0137(8) 0.000 -0.0008(6) 0.000
O4' 0.0148(12) 0.0368(11) 0.0157(9) 0.000 -0.0014(7) 0.000
loop_
_atom_type_symbol
_atom_type_description
_atom_type_scat_dispersion_real
_atom_type_scat_dispersion_imag
_atom_type_scat_source
C C 0.0181 0.0091 'International Tables Vol C Tables 4.2.6.8 and 6.1.1.4'
H H 0.0000 0.0000 'International Tables Vol C Tables 4.2.6.8 and 6.1.1.4'
N N 0.0311 0.0180 'International Tables Vol C Tables 4.2.6.8 and 6.1.1.4'
O O 0.0492 0.0322 'International Tables Vol C Tables 4.2.6.8 and 6.1.1.4'
loop_
_geom_angle_atom_site_label_1
_geom_angle_atom_site_label_2
_geom_angle_atom_site_label_3
_geom_angle_site_symmetry_1
_geom_angle_site_symmetry_3
_geom_angle
_geom_angle_publ_flag
C6 N1 C2 . . 123.81(19) ?
C6 N1 H1N . . 118.1 ?
C2 N1 H1N . . 118.1 ?
N1 C2 C3 . . 119.0(2) ?
N1 C2 C7 . . 118.6(2) ?
C3 C2 C7 . . 122.41(19) ?
O1 C3 C2 . . 121.8(2) ?
O1 C3 C4 . . 119.8(2) ?
C2 C3 C4 . . 118.4(2) ?
C3 O1 H1O . . 109.5 ?
C5 C4 C3 . . 121.5(2) ?
C5 C4 H4 . . 119.2 ?
C3 C4 H4 . . 119.2 ?
C4 C5 C6 . . 119.5(2) ?
C4 C5 H5 . . 120.3 ?
C6 C5 H5 . . 120.3 ?
O2 C6 N1 . . 122.7(2) ?
O2 C6 C5 . . 119.5(2) ?
N1 C6 C5 . . 117.8(2) ?
C6 O2 H2O . . 109.5 ?
O4 C7 O3 . . 124.8(2) ?
O4 C7 C2 . . 116.7(2) ?
O3 C7 C2 . . 118.53(19) ?
C6' N1' C2' . . 123.81(19) ?
C6' N1' H1'N . . 118.1 ?
C2' N1' H1'N . . 118.1 ?
N1' C2' C3' . . 119.0(2) ?
N1' C2' C7' . . 118.6(2) ?
C3' C2' C7' . . 122.41(19) ?
O1' C3' C2' . . 121.8(2) ?
O1' C3' C4' . . 119.8(2) ?
C2' C3' C4' . . 118.4(2) ?
C3' O1' H1'O . . 109.5 ?
C5' C4' C3' . . 121.5(2) ?
C5' C4' H4' . . 119.2 ?
C3' C4' H4' . . 119.2 ?
C4' C5' C6' . . 119.5(2) ?
C4' C5' H5' . . 120.3 ?
C6' C5' H5' . . 120.3 ?
O2' C6' N1' . . 122.7(2) ?
O2' C6' C5' . . 119.5(2) ?
N1' C6' C5' . . 117.8(2) ?
C6' O2' H2'O . . 109.5 ?
O4' C7' O3' . . 124.8(2) ?
O4' C7' C2' . . 116.7(2) ?
O3' C7' C2' . . 118.53(19) ?
loop_
_geom_bond_atom_site_label_1
_geom_bond_atom_site_label_2
_geom_bond_site_symmetry_2
_geom_bond_distance
_geom_bond_publ_flag
N1 C6 . 1.333(3) ?
N1 C2 . 1.381(3) ?
N1 H1N . 0.99(3) ?
C2 C3 . 1.394(3) ?
C2 C7 . 1.470(3) ?
C3 O1 . 1.342(3) ?
C3 C4 . 1.395(4) ?
O1 H1O . 0.89(4) ?
C4 C5 . 1.365(3) ?
C4 H4 . 0.9500 ?
C5 C6 . 1.434(3) ?
C5 H5 . 0.9500 ?
C6 O2 . 1.301(3) ?
O2 H2O . 0.94(4) ?
C7 O4 . 1.259(3) ?
C7 O3 . 1.262(3) ?
N1' C6' . 1.333(3) ?
N1' C2' . 1.381(3) ?
N1' H1'N . 0.99(4) ?
C2' C3' . 1.394(3) ?
C2' C7' . 1.470(3) ?
C3' O1' . 1.342(3) ?
C3' C4' . 1.395(4) ?
O1' H1'O . 0.89(4) ?
C4' C5' . 1.365(3) ?
C4' H4' . 0.9500 ?
C5' C6' . 1.434(3) ?
C5' H5' . 0.9500 ?
C6' O2' . 1.301(3) ?
O2' H2'O . 0.94(4) ?
C7' O4' . 1.259(3) ?
C7' O3' . 1.262(3) ?
loop_
_geom_hbond_atom_site_label_D
_geom_hbond_atom_site_label_H
_geom_hbond_atom_site_label_A
_geom_hbond_site_symmetry_A
_geom_hbond_distance_DH
_geom_hbond_distance_HA
_geom_hbond_distance_DA
_geom_hbond_angle_DHA
_geom_hbond_publ_flag
N1 H1N O4 6_654 0.99 1.77 2.755(3) 169 yes
O1 H1O O4 . 0.89 1.76 2.535(3) 145 yes
C5 H5 O1 6_554 0.95 2.34 3.269(3) 166 yes
C4 H4 O2 6 0.95 2.76 3.712(4) 180 yes
O2 H2O O3 6_654 0.94 1.57 2.459(3) 156 yes
O2 H2O O4 6_654 0.94 2.56 3.372(3) 144 yes
loop_
_geom_torsion_atom_site_label_1
_geom_torsion_atom_site_label_2
_geom_torsion_atom_site_label_3
_geom_torsion_atom_site_label_4
_geom_torsion_site_symmetry_1
_geom_torsion_site_symmetry_2
_geom_torsion_site_symmetry_3
_geom_torsion_site_symmetry_4
_geom_torsion
_geom_torsion_publ_flag
C6 N1 C2 C3 . . . . 0.0000(10) ?
C6 N1 C2 C7 . . . . 180.000000 ?
N1 C2 C3 O1 . . . . 180.000000 ?
C7 C2 C3 O1 . . . . 0.0000(10) ?
N1 C2 C3 C4 . . . . 0.0000(10) ?
C7 C2 C3 C4 . . . . 180.0000(10) ?
O1 C3 C4 C5 . . . . 180.0000(10) ?
C2 C3 C4 C5 . . . . 0.0000(10) ?
C3 C4 C5 C6 . . . . 0.0000(10) ?
C2 N1 C6 O2 . . . . 180.000000 ?
C2 N1 C6 C5 . . . . 0.000000 ?
C4 C5 C6 O2 . . . . 180.000000 ?
C4 C5 C6 N1 . . . . 0.000000 ?
N1 C2 C7 O4 . . . . 180.000000 ?
C3 C2 C7 O4 . . . . 0.0000(10) ?
N1 C2 C7 O3 . . . . 0.000000 ?
C3 C2 C7 O3 . . . . 180.000000 ?
C6' N1' C2' C3' . . . . 0.000000 ?
C6' N1' C2' C7' . . . . 180.000000 ?
N1' C2' C3' O1' . . . . 180.000000 ?
C7' C2' C3' O1' . . . . 0.000000 ?
N1' C2' C3' C4' . . . . 0.000000 ?
C7' C2' C3' C4' . . . . 180.000000 ?
O1' C3' C4' C5' . . . . 180.000000 ?
C2' C3' C4' C5' . . . . 0.000000 ?
C3' C4' C5' C6' . . . . 0.000000 ?
C2' N1' C6' O2' . . . . 180.000000 ?
C2' N1' C6' C5' . . . . 0.0000(10) ?
C4' C5' C6' O2' . . . . 180.000000 ?
C4' C5' C6' N1' . . . . 0.0000(10) ?
N1' C2' C7' O4' . . . . 180.000000 ?
C3' C2' C7' O4' . . . . 0.000000 ?
N1' C2' C7' O3' . . . . 0.000000 ?
C3' C2' C7' O3' . . . . 180.000000 ?

_cod_database_fobs_code 2243832
