#------------------------------------------------------------------------------
#$Date: 2020-11-04 07:15:30 +0200 (Wed, 04 Nov 2020) $
#$Revision: 258722 $
#$URL: file:///home/coder/svn-repositories/cod/cif/2/24/36/2243661.cif $
#------------------------------------------------------------------------------
#
# This file is available in the Crystallography Open Database (COD),
# http://www.crystallography.net/. The original data for this entry
# were provided by IUCr Journals, http://journals.iucr.org/.
#
# The file may be used within the scientific community so long as
# proper attribution is given to the journal article from which the
# data were obtained.
#
data_2243661
loop_
_publ_author_name
'Sapayev, F. A.'
'Okmanov, R. Ya.'
'Kholikov, T. S.'
'Tadjimukhamedov, Kh. S.'
'Tashkhodjaev, B.'
_publ_section_title
;
 Crystal structures of 2-amino-2-oxoethyl 4-bromobenzoate,
 2-amino-2-oxoethyl 4-nitrobenzoate and 2-amino-2-oxoethyl 4-aminobenzoate
 monohydrate
;
_journal_issue                   12
_journal_name_full               'Acta Crystallographica Section E'
_journal_page_first              1805
_journal_page_last               1809
_journal_paper_doi               10.1107/S2056989020014371
_journal_volume                  76
_journal_year                    2020
_chemical_formula_iupac          'C9 H8 N2 O5'
_chemical_formula_moiety         'C9 H8 N2 O5'
_chemical_formula_sum            'C9 H8 N2 O5'
_chemical_formula_weight         224.17
_chemical_melting_point          439(2)
_chemical_name_common
;
2-(4-Bitrobenzoyloxy)acetamide
4-Nitro-benzoic acid carbamoylmethyl ester
;
_chemical_name_systematic
;
2-Amino-2-oxoethyl 4-nitrobenzoate
;
_space_group_crystal_system      triclinic
_space_group_IT_number           2
_space_group_name_Hall           '-P 1'
_space_group_name_H-M_alt        'P -1'
_atom_sites_solution_hydrogens   mixed
_atom_sites_solution_primary     direct
_atom_sites_solution_secondary   difmap
_audit_creation_method           SHELXL-2014/8
_cell_angle_alpha                107.82(3)
_cell_angle_beta                 94.95(3)
_cell_angle_gamma                96.32(3)
_cell_formula_units_Z            2
_cell_length_a                   7.1238(14)
_cell_length_b                   7.3683(15)
_cell_length_c                   10.063(2)
_cell_measurement_reflns_used    1249
_cell_measurement_temperature    291(2)
_cell_measurement_theta_max      75.6280
_cell_measurement_theta_min      4.6240
_cell_volume                     495.8(2)
_computing_cell_refinement
;
CrysAlis PRO (Rigaku OD, 2018)
;
_computing_data_collection
;
CrysAlis PRO (Rigaku OD, 2018)
;
_computing_data_reduction
;
CrysAlis PRO (Rigaku OD, 2018)
;
_computing_molecular_graphics
;
XP in SHELXTL (Sheldrick, 2008)
;
_computing_publication_material
;
SHELXTL (Sheldrick, 2008), PLATON (Spek, 2020)
and publCIF (Westrip, 2010)'
;
_computing_structure_refinement
;
<i>SHELXL2014/8</i> (Sheldrick, 2015)
;
_computing_structure_solution
;
SHELXS7 (Sheldrick, 2008)
;
_diffrn_ambient_temperature      291(2)
_diffrn_detector                 'CCD plate'
_diffrn_detector_area_resol_mean 10.2576
_diffrn_measured_fraction_theta_full 0.997
_diffrn_measured_fraction_theta_max 0.989
_diffrn_measurement_device       'four-circle diffractometer'
_diffrn_measurement_device_type  'Oxford Diffraction Xcalibur, Ruby'
_diffrn_measurement_method       '\w scans'
_diffrn_radiation_monochromator  graphite
_diffrn_radiation_type           CuK\a
_diffrn_radiation_wavelength     1.54184
_diffrn_reflns_av_R_equivalents  0.0181
_diffrn_reflns_av_unetI/netI     0.0235
_diffrn_reflns_limit_h_max       8
_diffrn_reflns_limit_h_min       -5
_diffrn_reflns_limit_k_max       8
_diffrn_reflns_limit_k_min       -8
_diffrn_reflns_limit_l_max       12
_diffrn_reflns_limit_l_min       -12
_diffrn_reflns_number            2971
_diffrn_reflns_theta_full        67.684
_diffrn_reflns_theta_max         69.996
_diffrn_reflns_theta_min         4.653
_diffrn_source                   'Enhance (Cu) X-ray Source'
_exptl_absorpt_coefficient_mu    1.081
_exptl_absorpt_correction_T_max  0.79688
_exptl_absorpt_correction_T_min  0.68095
_exptl_absorpt_correction_type   multi-scan
_exptl_absorpt_process_details
;
(SADABS; Bruker, 2008)
;
_exptl_crystal_colour            colorless
_exptl_crystal_density_diffrn    1.502
_exptl_crystal_description       prismatic
_exptl_crystal_F_000             232
_exptl_crystal_size_max          0.40
_exptl_crystal_size_mid          0.34
_exptl_crystal_size_min          0.21
_refine_diff_density_max         0.239
_refine_diff_density_min         -0.286
_refine_ls_extinction_method     none
_refine_ls_goodness_of_fit_ref   1.064
_refine_ls_hydrogen_treatment    mixed
_refine_ls_matrix_type           full
_refine_ls_number_parameters     153
_refine_ls_number_reflns         1859
_refine_ls_number_restraints     0
_refine_ls_restrained_S_all      1.064
_refine_ls_R_factor_all          0.0562
_refine_ls_R_factor_gt           0.0496
_refine_ls_shift/su_max          0.000
_refine_ls_shift/su_mean         0.000
_refine_ls_structure_factor_coef Fsqd
_refine_ls_weighting_details
'w=1/[\s^2^(Fo^2^)+(0.0800P)^2^+0.1088P] where P=(Fo^2^+2Fc^2^)/3'
_refine_ls_weighting_scheme      calc
_refine_ls_wR_factor_gt          0.1389
_refine_ls_wR_factor_ref         0.1475
_reflns_number_gt                1560
_reflns_number_total             1859
_reflns_threshold_expression     'I > 2\s(I)'
_cod_data_source_file            mw2171sup1.cif
_cod_data_source_block           II
_cod_original_cell_volume        495.76(19)
_cod_database_code               2243661
_shelx_space_group_comment
;
The symmetry employed for this shelxl refinement is uniquely defined
by the following loop, which should always be used as a source of
symmetry information in preference to the above space-group names.
They are only intended as comments.
;
_shelx_hkl_file
;
   0   0  -1 130596. 987.200  17
   0   0  -2 171824. 1577.01  17
   0   0  -3 366039. 2745.20  17
   0   0  -4 2272.34 252.935  17
   0   0  -5 19055.6 781.021  19
   0   0  -6 27945.9 1044.13  19
   0   0   7 5035.06 519.003  20
   0   0  -7 5440.27 488.759  19
   0   0   8 15806.0 929.984  20
   0   0  -8 17444.1 924.641  19
   0   0   9 10177.3 739.739  20
   0   0  10-127.275 125.134  20
   0   0  11 3838.16 356.222  20
   0   0  11 4206.22 318.123  16
   0  -1  12 319.635 102.635  20
   0  -1  11 1428.47 245.798  20
   0  -1  11 1752.55 229.883  16
   0  -1  10 18716.2 958.338  20
   0  -1  10 19524.3 920.453  16
   0  -1   9 12308.5 819.762  20
   0  -1   8 102.032 132.818   1
   0  -1   8 3.64595 94.0719  20
   0   1  -7 4450.20 414.050  19
   0   1  -6 3332.74 325.094  19
   0   1  -5 84433.6 1402.76  19
   0   1  -4 140296. 1574.45  19
   0   1  -3 302071. 1934.28  19
   0  -1   1 235846. 1195.81   1
   0   1  -1 235403. 1134.74  19
   0  -1   0 20305.4 334.116   1
   0  -1   0 20828.7 354.599  17
   0   1   1 85642.0 891.536  18
   0  -1  -1 86193.2 1029.08  17
   0  -1  -2 671.403 135.353  17
   0   1   2 683.687 123.710  18
   0  -1  -3 23227.8 824.403  17
   0  -1  -4 38470.2 1182.92  17
   0  -1  -5 3743.49 405.163  17
   0  -1  -6 3028.79 385.124  19
   0   1   7 43693.9 1535.71  20
   0  -1  -7 45313.1 1541.83  19
   0   1   8 57910.5 1767.46  20
   0   1   9 1300.17 278.513  20
   0   1  10 329.268 137.878  20
   0   1  11 4826.49 338.944  20
   0  -2  12 468.770 126.231  20
   0  -2  11 13280.4 639.390  16
   0  -2  11 12958.6 624.392  13
   0  -2  11 12751.2 703.197  20
   0  -2  10 1548.89 272.257  16
   0  -2  10 1567.77 293.467  20
   0  -2   9 475.941 169.361  16
   0   2  -9 541.479 165.212   4
   0  -2   9 601.572 206.772  20
   0  -2   8 892.099 215.517  16
   0  -2   8 923.911 236.546   1
   0  -2   8 789.976 220.521  20
   0   2  -8 435.806 157.672   4
   0   2  -7 1322.67 218.155  19
   0  -2   7 1410.74 253.812   1
   0   2  -6 19137.3 726.352  19
   0  -2   6 18736.1 808.199   1
   0  -2   5 12397.0 584.907   1
   0   2  -5 12142.9 510.182  19
   0  -2   4 253790. 2305.65   1
   0   2  -4 253172. 2057.26  19
   0  -2   3 38489.1 780.179   1
   0   2  -3 38707.0 720.590  19
   0   2  -2 188225. 1444.43  19
   0  -2   2 188700. 1514.65   1
   0  -2   1 3324.64 183.406   1
   0  -2   1 3128.76 186.311  17
   0  -2   0 1403.70 147.311  17
   0  -2   0 1524.45 136.548   1
   0  -2  -1 40522.0 876.113  17
   0   2   2 21696.1 657.780  18
   0  -2  -2 22898.6 798.377  17
   0  -2  -3 172495. 2569.32  17
   0  -2  -4 13093.2 779.650  17
   0  -2  -5 146.180 135.418  17
   0  -2  -6 159919. 3029.57  17
   0   2   6 163575. 2950.67  20
   0   2   7 193532. 3244.29  20
   0   2   8 12014.6 789.082  20
   0   2   9 6886.74 548.804  20
   0   2  10 569.830 138.429  20
   0  -3  11 252.457 117.637  13
   0  -3  11-29.2281 124.780  20
   0  -3  10 2589.40 352.580  16
   0  -3  10 2014.71 327.543  20
   0  -3  10 1827.99 306.844  13
   0  -3   9 1006.76 251.519  20
   0  -3   9 1194.41 255.577  16
   0  -3   8 1558.11 276.969  16
   0  -3   8 1797.12 322.059  20
   0   3  -8 1636.82 302.036   4
   0  -3   8 1733.14 314.705   1
   0  -3   7 64270.1 1656.68   1
   0  -3   6 617.979 164.873   1
   0   3  -6 584.425 141.826  19
   0   3  -5 14694.4 594.332  19
   0  -3   5 14230.9 645.087   1
   0  -3   4 192.798 84.6223   1
   0   3  -4 420.436 102.006  19
   0  -3   3 47869.0 977.410   1
   0  -3   2 122025. 1423.67  17
   0  -3   2 125319. 1423.40   1
   0  -3   1 3610.64 259.302   1
   0  -3   1 3586.56 263.370  17
   0  -3   0 69238.6 1268.73  17
   0  -3   0 65189.4 1115.86   1
   0   3   1 46959.1 1013.25  18
   0  -3  -1 46255.2 1164.51  17
   0   3   2 176031. 2173.69  18
   0  -3  -2 177714. 2608.21  17
   0  -3  -3 189495. 3075.56  17
   0   3   3 190518. 2644.35  18
   0  -3  -4 445.129 185.288  17
   0  -3  -5 137925. 2969.63  17
   0   3   5 138519. 2755.44  20
   0   3   6 36442.8 1430.20  20
   0   3   6 38964.1 1442.10  10
   0   3   7 3501.54 443.495  20
   0   3   8 2697.90 353.036  20
   0   3   9 1916.02 258.577  20
   0  -4  11 279.622 96.0434  15
   0  -4  11 304.870 129.410  13
   0  -4  10 1940.64 331.579  13
   0  -4   9 20790.5 1067.59  13
   0  -4   9 20701.6 979.971  16
   0  -4   8 88012.5 2044.79  16
   0  -4   8 86863.5 2051.87  20
   0  -4   8 88744.4 2087.83   1
   0  -4   8 85925.3 2150.56  13
   0  -4   7 56489.9 1571.59   1
   0  -4   7 58385.5 1620.99  16
   0  -4   7 59531.2 1632.52  20
   0  -4   7 57464.3 1684.98  13
   0  -4   6 98.9476 87.2807   1
   0  -4   5 2804.56 314.555   1
   0  -4   4 220097. 2572.54   1
   0  -4   4 233283. 2381.04  17
   0  -4   3 21338.7 744.426   1
   0  -4   3 23694.2 752.878  17
   0  -4   2 20921.1 743.898   1
   0  -4   2 22233.3 757.252  17
   0  -4   1 42409.9 1065.82   1
   0  -4   1 44958.0 1159.11  17
   0  -4   0 113645. 1976.51  17
   0   4   1 186487. 2435.44  18
   0  -4  -1 181866. 2801.19  17
   0  -4  -2 79717.1 2052.81  17
   0   4   2 84318.4 1765.60  18
   0  -4  -3 47732.2 1746.59  17
   0  -4  -4 19.7365 119.767  17
   0   4   4 144.385 129.158  20
   0   4   5 2145.42 330.259  10
   0   4   5 2125.39 363.881  20
   0   4   6 1650.77 299.145  20
   0   4   6 2297.50 365.570  10
   0   4   7 2775.69 359.243  20
   0   4   8 220.373 110.264  20
   0   5 -11 10.8896 53.6268  21
   0  -5  10 8281.89 535.209  15
   0   5 -10 8508.81 571.046  21
   0  -5  10 7970.52 609.314  13
   0  -5   9 13183.2 747.384  15
   0  -5   9 12366.0 821.030  13
   0   5  -9 13453.1 781.401  21
   0  -5   8 9547.21 714.359  13
   0   5  -8 10379.4 706.320  21
   0  -5   8 10188.6 679.539  15
   0  -5   7 5857.75 514.948  15
   0  -5   7 5767.62 531.241   1
   0   5  -7 5669.13 518.798  21
   0  -5   7 4995.95 510.849  13
   0  -5   6 2298.14 301.895   1
   0   5  -6 1955.14 310.744  21
   0  -5   6 1605.96 281.591  15
   0  -5   6 2065.45 317.512  13
   0  -5   5 77.9406 98.9083   1
   0  -5   5 644.863 178.593  13
   0  -5   4 7741.87 537.473   1
   0  -5   3 12141.2 670.471  17
   0  -5   3 10552.9 629.504   1
   0  -5   2 54751.2 1497.71  17
   0  -5   2 54238.0 1406.62   1
   0  -5   1 17615.5 810.533   1
   0  -5   1 19519.7 920.721  17
   0   5   0 28440.7 1051.16  18
   0  -5   0 27783.5 1193.55  17
   0   5   1 731.139 215.119  11
   0  -5  -1 930.958 218.826   3
   0   5   1 360.248 167.076  18
   0  -5  -1 329.568 169.883  17
   0  -5  -2 6106.15 668.141  17
   0   5   2 7294.81 622.170  11
   0  -5  -2 7079.57 602.667   3
   0   5   3 1855.19 334.602  11
   0  -5  -3 1763.40 321.995   3
   0   5   4 4600.77 526.461  20
   0   5   4 4816.80 529.843  10
   0   5   5 272.306 183.040  20
   0   5   5 123.281 126.267  10
   0   5   6 1789.29 283.811  20
   0   5   7 10057.1 524.343  20
   0   6 -10 12714.1 616.994  21
   0   6  -9-210.401 111.015  21
   0  -6   8 5312.28 483.534  15
   0   6  -8 5193.94 482.409  21
   0   6  -7-86.5700 97.8307  21
   0  -6   7-111.169 98.5598  15
   0   6  -6 268.090 157.298  21
   0  -6   6-115.988 110.181  15
   0   6  -5 318.280 142.402  21
   0   6  -4 14874.5 858.558  12
   0  -6   3 949.137 235.528  14
   0   6  -3 644.768 157.353  12
   0   6  -2 134731. 2613.80  12
   0  -6   2 131871. 2520.91  14
   0   6  -1 350566. 4292.48  12
   0  -6   1 353221. 4078.00  14
   0  -6   0 775.580 162.312   3
   0   6   0 1038.58 263.556  11
   0  -6  -1 7188.77 624.360   3
   0   6   1 7180.70 649.230  11
   0  -6  -2 26890.8 1187.04   3
   0   6   2 26117.4 1211.77  11
   0   6   3 2911.78 429.699  20
   0   6   3 3092.37 401.928  10
   0   6   4 8369.53 620.936  20
   0   6   4 8958.36 621.914  10
   0   6   5 4548.49 391.568  20
   0   6   6 255.008 95.3429  20
   0  -7  10-71.6909 88.5337  14
   0   7 -10 93.6367 83.3164  12
   0   7  -9 1219.39 205.903  12
   0   7  -8 2221.45 303.333  12
   0   7  -7 1691.71 289.080  12
   0  -7   6 1432.62 258.284  14
   0   7  -6 1784.82 314.041  12
   0   7  -5 1515.13 281.999  12
   0  -7   5 1541.52 289.301  14
   0   7  -4 7174.88 619.112  12
   0  -7   4 7330.90 611.988  14
   0   7  -3 106371. 2363.72  12
   0  -7   3 107281. 2301.20  14
   0   7  -2 3010.47 407.434  12
   0  -7   2 2697.37 373.282  14
   0   7  -1 249.012 158.215  11
   0  -7   1 124.791 107.312   3
   0  -7   0 4167.54 466.496   3
   0   7   0 4636.62 515.410  11
   0   7   1 6238.47 559.570  11
   0   7   2 9443.83 645.966  20
   0   7   2 9192.15 636.388  10
   0   7   3 2407.26 287.723  10
   0   7   3 2323.34 276.928  20
   0  -8   9 229.982 97.9239  14
   0  -8   8 81.2720 77.5055  14
   0  -8   7 926.814 188.598  14
   0   8  -7 841.396 162.332  12
   0   8  -6-162.155 103.360  12
   0  -8   6 193.524 130.200  14
   0   8  -5 6627.44 501.675  12
   0  -8   5 6144.70 484.508  14
   0  -8   4 1084.21 199.204   3
   0  -8   4 1307.65 229.944  14
   0   8  -3 14612.4 790.637  11
   0  -8   3 14501.0 727.152  14
   0  -8   3 15234.3 764.958   3
   0   8  -2 625.531 192.897  11
   0   8  -1 7199.53 517.459  11
   0   8   0 1110.04 188.149  11
   0   8   1 1562.59 214.333  10
  -1   8   2 588.545 122.302  20
  -1   8   1 1560.89 233.529  20
   1  -8   0 5546.68 459.460   3
   1  -8   1 6331.65 524.418   3
   1  -8   2 191.769 109.350   3
   1  -8   3 7365.52 560.127  14
   1  -8   3 7314.53 579.284   3
   1  -8   4 4843.62 459.890  14
   1  -8   5 6473.58 521.671  14
   1  -8   6 7723.86 555.300  14
   1  -8   7 2016.01 279.850  14
   1  -8   8 5127.43 391.725  14
   1  -8   9 1637.53 191.596  14
  -1   7   4 3075.17 310.285  20
  -1   7   3 944.048 223.004  20
  -1   7   2 5673.12 556.877  20
   1  -7  -1 3007.55 409.264   3
   1  -7   0 910.233 259.406   3
   1  -7   1 26417.1 1217.82   3
   1  -7   1 26523.3 1168.08  14
   1  -7   2 9896.46 718.002  14
   1  -7   3 68739.3 1876.08  14
   1  -7   4-205.602 148.951  14
   1  -7   5 250.152 154.033  14
   1  -7   6 20006.2 1004.83  14
   1  -7   7 23017.1 1067.40  14
   1  -7   8 853.522 212.643  14
   1  -7   9 380.249 160.860  14
   1  -7  10-0.68791 88.1989  14
  -1   6   6 6865.19 429.525  20
  -1   6   5 2484.22 334.854  20
  -1   6   4 25023.2 1162.63  20
  -1   6   3 16582.3 1011.00  20
   1  -6  -3 17815.3 991.408   3
   1  -6  -2-112.888 138.612   3
   1  -6  -1 1493.78 299.408   3
   1  -6   0 2525.64 371.654   3
  -1   6   0 3165.03 418.431  18
   1  -6   0 2110.50 341.974  14
   1  -6   1 13709.7 837.941  14
   1  -6   2 23041.1 1059.93  14
   1  -6   2 22824.6 1087.71   1
   1  -6   3 3438.60 416.978  14
   1  -6   3 3882.14 456.791   1
   1  -6   4 5085.01 503.242  14
   1  -6   4 6145.29 564.486   1
   1  -6   5 2252.88 346.584   1
   1  -6   5 2194.92 329.069  15
   1  -6   6 837.514 206.908  15
   1  -6   7 893.824 216.927  15
   1  -6   8 3554.94 405.512  15
   1  -6   9 3340.08 359.045  15
   1  -6  10 1506.37 217.624  15
   1  -6  11 43.4890 75.6170  14
  -1   5   8 27983.3 679.798  20
  -1   5   7 1186.89 214.456  20
  -1   5   6 636.345 217.108  20
  -1   5   5 1758.42 327.519  20
  -1   5   4 11265.1 849.816  20
   1  -5  -3 14685.0 983.264  17
   1  -5  -3 13322.6 866.680   3
  -1   5   3 15785.5 980.334  18
   1  -5  -2 18922.3 988.052   3
  -1   5   2 20147.0 1021.69  18
   1  -5  -2 20446.6 1124.64  17
   1  -5  -1 9185.40 646.046  14
  -1   5   1 9380.75 673.958  18
   1  -5  -1 10130.3 692.032   3
   1  -5  -1 8632.60 705.210  17
   1  -5   0 9602.49 688.078  17
   1  -5   1 831.028 198.667   1
   1  -5   2 1114.52 222.194   1
   1  -5   3 40455.3 1263.83   1
   1  -5   4 8164.86 568.057   1
   1  -5   5 14316.9 755.786   1
   1  -5   5 14606.1 787.012  15
   1  -5   6 372.757 159.251  13
   1  -5   6 491.509 173.044   1
   1  -5   6 338.089 149.504  15
   1  -5   7 84.0329 101.506  15
   1  -5   7 29.4811 135.987  13
   1  -5   8 2618.27 394.070  13
   1  -5   8 2593.12 354.695  15
   1  -5   9 2980.85 373.063  15
   1  -5   9 3731.90 444.351  13
   1  -5  10 17845.1 821.263  15
   1  -5  11 47.0311 88.7415  15
  -1   4   9 396.718 103.810  20
  -1   4   8 1894.17 275.594  20
  -1   4   7 21479.9 1022.24  20
  -1   4   6 21163.3 1112.36  20
  -1   4   5 4805.45 559.740  20
   1  -4  -4 1258.97 287.916  17
   1  -4  -4 1461.55 276.740   3
   1  -4  -3 1186.58 274.031  17
  -1   4   3 1008.50 256.115  18
   1  -4  -2 510.757 184.049  17
  -1   4   2 411.705 164.654  18
   1  -4  -1 2912.02 351.388  17
  -1   4   1 3019.76 336.562  18
   1  -4   0 48919.0 1284.62  17
   1  -4   0 47801.5 1223.11   1
   1  -4   1 33744.0 936.543  17
   1  -4   1 31579.3 967.516   1
   1  -4   2 707.760 167.747   1
   1  -4   2 761.493 129.470  17
   1  -4   3 67671.8 1370.88   1
   1  -4   4 203582. 2556.15   1
   1  -4   5 28352.9 1009.74   1
   1  -4   6 23247.4 967.249   1
   1  -4   7 198.947 155.019   1
   1  -4   7 186.183 126.458  20
   1  -4   7 159.066 93.9566  16
   1  -4   7 101.478 130.724  13
   1  -4   8 58261.9 1749.67  13
   1  -4   8 53264.0 1665.85  20
   1  -4   8 53872.6 1661.48  16
   1  -4   9 21169.7 1024.35  16
   1  -4   9 22101.4 1070.35  13
   1  -4  10 2924.81 351.912  16
   1  -4  10 2865.07 360.724  13
   1  -4  11 969.078 190.962  15
   1  -4  12 469.044 93.4023  15
  -1   3  10 487.806 112.737  20
  -1   3   9-1.39981 100.891  20
  -1   3   8 9483.44 674.892  20
  -1   3   7-16.5820 126.525  20
   1  -3  -6 53536.0 1803.25  19
  -1   3   6 48247.8 1692.27  20
  -1   3   5 26605.2 1220.70  20
   1  -3  -5 25177.2 1208.77  17
   1  -3  -4 22847.8 1100.06  17
  -1   3   3 43297.6 1281.05  18
   1  -3  -3 44510.9 1429.86  17
   1  -3  -2 75765.3 1715.02  17
  -1   3   2 75120.6 1484.42  18
   1  -3  -1 993556. 5481.65  17
   1  -3  -1 999999. 4869.82   1
   1  -3   0 28123.8 773.265   1
   1  -3   0 28323.6 795.086  17
   1  -3   1 209751. 1794.63  17
   1  -3   1 205156. 2000.70   1
   1  -3   2 300856. 1816.41  17
   1  -3   2 299618. 2465.27   1
   1  -3   3 32352.6 573.835  17
   1  -3   3 32056.7 854.705   1
   1  -3   4 37877.9 996.613   1
   1  -3   5 20513.7 814.669   1
   1  -3   6 80.9766 131.623   1
   1  -3   7 17390.6 906.897   1
   1  -3   7 18866.9 955.956  20
   1  -3   7 18249.7 914.566  16
   1  -3   8 669.269 217.104   1
   1  -3   8 1192.93 280.810  20
   1  -3   8 1108.18 233.703  13
   1  -3   8 922.463 230.265  16
   1  -3   9-41.3711 100.150  13
   1  -3   9-8.21198 120.833  20
   1  -3   9-18.7932 96.8187  16
   1  -3  10 4280.19 408.306  13
   1  -3  10 4449.36 458.209  16
   1  -3  10 4527.68 492.892  20
   1  -3  11 100.853 83.9135  16
   1  -3  12 429.875 105.685  15
  -1   2  10 2069.65 270.376  20
  -1   2   9 5039.95 483.829  20
  -1   2   8 13767.9 868.984  20
   1  -2  -7 61925.3 1897.72  19
  -1   2   7 55917.8 1777.98  20
  -1   2   6 31814.6 1306.39  20
   1  -2  -6 31106.3 1309.82  19
   1  -2  -5 59998.8 1732.97  17
   1  -2  -4 31867.5 1170.51  17
  -1   2   3 282434. 2913.03  18
   1  -2  -3 289225. 3250.68  17
   1  -2  -2 2482.01 279.415  17
  -1   2   2 1633.76 202.360  18
   1  -2  -1 689587. 3930.25  17
   1  -2  -1 697896. 3356.49   1
   1  -2   0 21287.3 544.938   1
   1  -2   0 22388.0 554.563  17
   1  -2   1 33031.8 658.746   1
   1  -2   1 35116.6 501.405  17
   1  -2   2 84198.1 639.764  17
   1  -2   2 81725.8 1100.06   1
   1  -2   3 58016.5 1028.78   1
  -1   2  -3 58734.8 660.766  19
   1  -2   4 211.822 125.519   1
  -1   2  -4 233.586 65.3533  19
   1  -2   5 8968.99 529.529   1
   1  -2   6 30674.5 1100.27   1
   1  -2   7 52116.7 1590.54   1
   1  -2   8 1778.41 339.942   1
   1  -2   8 1384.80 294.397  20
   1  -2   9 121.033 120.959  16
   1  -2   9 40.0010 148.624  20
   1  -2  10 576.702 204.200  20
   1  -2  10 784.067 215.381  16
   1  -2  11 2293.54 313.949  20
   1  -2  11 2206.81 276.252  16
  -1   1  11 604.005 147.656  20
  -1   1  10 4981.71 453.492  20
  -1   1   9 2222.00 341.743  20
  -1   1   8 2791.63 419.761  20
  -1   1   7 12736.0 824.253  20
   1  -1  -7 11920.6 788.335  19
   1  -1  -6 9918.52 692.684  19
   1  -1  -5 59327.2 1547.65  19
   1  -1  -4 6193.99 474.285  17
   1  -1  -3 3942.28 335.867  17
  -1   1   3 3841.27 317.134  18
   1  -1  -2 50807.3 620.438   2
  -1   1   2 51341.2 911.346  18
   1  -1  -2 53089.9 1078.30  17
   1  -1  -1 31500.6 557.468   1
   1  -1  -1 30876.6 670.878  17
   1  -1  -1 32315.7 467.918   2
   1  -1   0 85646.6 785.328   1
   1  -1   0 83824.4 744.334  17
   1  -1   1 263370. 1481.64   1
   1  -1   2 271092. 1776.91   1
  -1   1  -2 271195. 1059.66  19
  -1   1  -3 29294.0 540.553  19
   1  -1   3 30332.5 707.512   1
  -1   1  -4 354.195 86.6602  19
  -1   1  -5 395283. 2915.24  19
  -1   1  -6 134497. 1948.94  19
   1  -1   7 10806.1 726.638   1
   1  -1   8 14451.8 906.609  20
   1  -1   8 14252.1 899.939   1
   1  -1   9 8694.19 717.023  20
   1  -1  10 134.959 124.401  16
   1  -1  10 193.468 143.918  20
   1  -1  11 386.404 153.155  20
   1  -1  11 123.884 84.3043  16
  -1   0  11 2860.15 310.050  20
  -1   0  10 1356.89 264.502  20
   1   0  -9 124.669 97.9636   4
  -1   0   9 265.499 137.471  20
   1   0  -8 4800.71 467.242   4
  -1   0   8 4676.01 495.952  20
   1   0  -8 4957.54 507.395  19
   1   0  -7 24141.0 1053.43  19
   1   0  -6 4291.36 410.362  19
   1   0  -5 403520. 3649.57  19
   1   0  -4 531922. 3793.99  19
   1   0  -3 9139.02 432.346  19
   1   0  -2 3356.23 219.075  19
   1   0  -1 113591. 935.744  19
  -1   0   1 110807. 898.719  18
   1   0  -1 111152. 921.977   2
   1   0   0 2086.45 98.8191  19
   1   0   0 2102.30 72.6492   1
   1   0   0 2003.83 117.016   2
  -1   0  -1 108268. 848.932  17
  -1   0  -2 265078. 1929.48  17
  -1   0  -3 129724. 1703.27  17
  -1   0  -4 18172.1 724.653  17
  -1   0  -5 28583.2 993.551  17
  -1   0  -6 98943.9 1946.22  19
   1   0   7 216.788 147.373  20
   1   0   8 9493.83 726.867  20
   1   0   9 7839.29 646.075  20
   1   0  10 3861.15 406.197  20
   1   0  11 10075.0 498.977  16
   1   0  11 9495.69 508.868  20
  -1  -1  12 2155.20 209.658  20
  -1  -1  11 178.867 105.194  20
   1   1 -10 3004.06 343.024   4
  -1  -1  10 3064.59 397.925  20
   1   1  -9 2467.44 346.653   4
  -1  -1   9 1124.83 256.600  20
  -1  -1   8-130.580 128.882  20
   1   1  -8-41.0376 76.7376   4
   1   1  -8-45.0103 86.0238  19
   1   1  -7 18023.9 844.324  19
   1   1  -6 88994.5 1711.71  19
   1   1  -5 1536.04 209.674  19
   1   1  -4 131948. 1649.60  19
   1   1  -3 562875. 2981.32  19
   1   1  -2 557893. 2609.33  19
   1   1  -1 316974. 1797.29  19
  -1  -1   1 319795. 945.516   1
  -1  -1   0 604436. 2393.53  17
   1   1   0 577442. 2231.93   2
  -1  -1  -1 236451. 1771.19  17
   1   1   1 239391. 1237.18   2
  -1  -1  -2 631979. 3556.29  17
   1   1   2 647751. 1940.10   2
  -1  -1  -3 5781.12 417.027  17
   1   1   3 3739.46 154.438   2
  -1  -1  -4 552.323 169.347  17
  -1  -1  -5 623.775 188.031  17
  -1  -1  -6 5581.00 535.286  17
   1   1   7 2615.99 389.771  20
  -1  -1  -7 2409.63 359.452  19
   1   1   8 15138.1 897.352  20
   1   1   9 2734.47 367.141  20
   1   1  10 2249.31 282.352  20
   1   1  11 2143.63 194.906  20
  -1  -2  12 27.6439 54.0844  13
  -1  -2  11 2510.94 318.861  20
   1   2 -10-38.6987 94.9901   4
  -1  -2  10 4.49158 98.2989  20
   1   2  -9 7083.41 589.705   4
  -1  -2   9 6808.93 588.873  20
   1   2  -8 8490.75 613.627  19
   1   2  -8 7220.36 595.614   4
  -1  -2   8 7938.81 632.400  20
  -1  -2   8 6703.46 574.032   1
   1   2  -7 16993.3 808.326  19
  -1  -2   7 17758.3 848.250   1
   1   2  -6 166860. 2298.65  19
  -1  -2   6 167756. 2329.02   1
   1   2  -5 286780. 2717.34  19
  -1  -2   5 283632. 2642.04   1
  -1  -2   4 123881. 1510.90   1
   1   2  -4 122423. 1631.53  19
  -1  -2   3 127843. 1308.62   1
   1   2  -3 128762. 1537.64  19
  -1  -2   2 153571. 1197.31   1
   1   2  -2 154218. 1594.01  19
  -1  -2   1 27.0269 34.8373   1
  -1  -2   1 32.5508 62.2544  17
  -1  -2   0 387445. 2528.69  17
   1   2   1 81213.3 1030.47  18
  -1  -2  -1 75847.3 1292.17  17
  -1  -2  -2 711839. 4521.80  17
  -1  -2  -3 244400. 3081.86  17
  -1  -2  -4 15023.9 865.099  17
  -1  -2  -5 11038.4 792.747  17
   1   2   6 675.928 218.859  20
   1   2   6 1144.33 289.528  10
  -1  -2  -6 1080.86 274.117  17
   1   2   7 79368.0 2033.34  20
   1   2   8 4607.40 476.268  20
   1   2   9 1168.46 219.114  20
   1   2  10 5657.85 358.139  20
  -1  -3  12 110.703 68.6695  13
  -1  -3  11 51.4284 113.069  13
  -1  -3  10 778.397 199.401  20
  -1  -3   9 15943.1 885.914  20
   1   3  -9 15455.8 900.233   4
   1   3  -8 60308.2 1771.74   4
  -1  -3   8 62415.3 1694.66   1
  -1  -3   8 62780.9 1709.93  20
   1   3  -7 26704.0 1118.50   4
   1   3  -7 27618.0 1041.54  19
  -1  -3   6 24397.2 895.770   1
   1   3  -6 24426.4 911.355  19
  -1  -3   5 2655.52 272.567   1
   1   3  -5 2613.77 283.246  19
   1   3  -4 52.4886 86.1973  19
  -1  -3   4-22.7890 58.9583   1
  -1  -3   3 211033. 1877.56   1
   1   3  -3 208087. 2226.89  19
  -1  -3   2 109558. 1549.97  17
  -1  -3   2 111811. 1250.93   1
  -1  -3   1 16471.8 492.135   1
  -1  -3   1 17800.2 638.349  17
  -1  -3   0 73894.7 1404.99  17
   1   3   1 437006. 2899.29  18
  -1  -3  -1 426839. 3781.22  17
  -1  -3  -2 21034.5 933.907  17
   1   3   2 23231.3 795.430  18
  -1  -3  -3 24430.7 1131.72  17
  -1  -3  -4 9450.63 780.109  17
  -1  -3  -5 23941.2 1281.12  17
   1   3   5 23056.6 1088.95  20
   1   3   5 23104.7 1098.94  10
   1   3   6 7234.22 636.370  10
   1   3   6 6952.33 599.777  20
   1   3   7 610.219 210.287  20
   1   3   8 174.215 128.716  20
   1   3   9 13308.3 559.817  20
   1   4 -12 5743.82 344.345  21
  -1  -4  12 5508.81 351.467  13
  -1  -4  11 5078.95 444.250  13
  -1  -4  10 254.635 178.778  13
  -1  -4   9 66692.5 1895.56  13
  -1  -4   8 16417.3 934.008  13
   1   4  -7 1798.30 312.596   4
  -1  -4   7 1792.31 304.704  13
  -1  -4   6 361.713 127.165   1
   1   4  -6 5.21137 60.6807  19
   1   4  -5 23159.2 898.538  19
  -1  -4   5 24005.6 853.793   1
  -1  -4   4 76547.2 1359.57   1
  -1  -4   4 80868.9 1605.90  17
  -1  -4   3 1970.74 219.914   1
  -1  -4   3 1914.36 255.345  17
  -1  -4   2 120316. 1623.20   1
  -1  -4   2 119651. 1949.66  17
  -1  -4   1 104.274 98.4208  17
   1   4   0 12692.1 550.833  18
  -1  -4   0 12038.4 701.959  17
  -1  -4  -1 8009.35 621.498  17
  -1  -4  -2 707.530 232.639  17
  -1  -4  -3 1062.07 324.095  17
   1   4   3 313.687 159.637  20
   1   4   3 690.391 229.481  11
   1   4   4 2948.44 416.884  10
   1   4   4 4047.96 467.604  20
  -1  -4  -4 4086.13 559.570  17
   1   4   5 7781.22 653.646  10
   1   4   5 8024.29 643.482  20
   1   4   6 7578.35 588.168  20
   1   4   6 8010.86 652.512  10
   1   4   7 18887.3 812.870  20
   1   4   8 1574.78 194.703  20
  -1  -5  11 176.486 119.919  13
   1   5 -11 290.291 111.134  21
  -1  -5  10 103.857 122.489  13
   1   5 -10 118.393 94.5307  21
  -1  -5   9-393.351 169.448  13
   1   5  -9 0.63233 74.1679  21
   1   5  -8-127.437 118.982  21
  -1  -5   8 16.1432 136.091  13
  -1  -5   7-210.258 145.703  13
   1   5  -7-6.02915 77.9912  21
  -1  -5   6 8907.42 641.618  13
   1   5  -6 8842.22 643.894  21
  -1  -5   5 6370.91 522.355  17
  -1  -5   5 5860.48 505.568  13
   1   5  -5 5817.49 521.452  21
  -1  -5   4 2797.94 339.615  17
  -1  -5   3 3517.86 394.051  17
  -1  -5   2 87980.6 2021.71  17
  -1  -5   1 78578.2 1997.31  17
   1   5   0 1967.67 316.419  12
  -1  -5   0 1490.84 303.171  17
   1   5   1 713.592 225.242  11
  -1  -5  -1 1134.00 289.055  17
   1   5   2 2053.70 398.127  11
  -1  -5  -2 1912.35 386.334  17
   1   5   3 15141.9 948.321  11
   1   5   3 15341.3 915.797  20
   1   5   4 49744.9 1650.88  10
   1   5   4 53903.7 1602.69  20
   1   5   5 1220.86 271.889  10
   1   5   5 1136.95 222.112  20
   1   5   6 523.374 155.729  20
   1   5   7 5354.21 335.437   7
   1   6 -11 315.722 91.5682  21
   1   6 -10 335.082 123.808  21
   1   6  -9 269.290 117.180  21
  -1  -6   8 5841.68 526.693  13
   1   6  -8 5766.05 518.992  21
   1   6  -7 290.321 141.516  21
   1   6  -6 47928.4 1560.32  21
   1   6  -5 8643.67 674.120  21
   1   6  -4 30705.4 1277.88  12
  -1  -6   3 37736.6 1468.68  17
   1   6  -3 31887.8 1317.19  12
  -1  -6   2 50121.4 1759.06  17
   1   6  -2 46037.0 1591.17  12
   1   6  -1 119.939 179.549  12
  -1  -6   1 544.617 216.681  17
   1   6   0 4809.94 547.811  11
   1   6   1 226.804 218.308  11
   1   6   2 16977.9 999.398  11
   1   6   3 11301.7 773.284  10
   1   6   4 465.513 175.645  10
   1   6   5 2369.09 291.491  10
  -1  -7  10-21.6642 94.8134  14
   1   7 -10 132.580 91.0411  12
   1   7  -9 118.248 91.0154  12
   1   7  -8 15717.9 792.307  12
   1   7  -7 6540.32 555.204  12
  -1  -7   6 761.753 205.248  14
   1   7  -6 652.136 171.153  12
   1   7  -5 479.924 190.577  12
  -1  -7   5 308.263 142.964  14
  -1  -7   4 708.909 205.019  14
   1   7  -4 767.345 255.049  12
   1   7  -3 4477.56 512.452  12
   1   7  -2 170.278 153.814  12
   1   7  -1 11221.1 800.605  11
   1   7   0 14721.3 894.937  11
   1   7   1 576.112 222.176  11
   1   7   2 1472.02 274.372  10
   1   7   3 360.506 142.026  10
   1   8  -8 1276.51 187.784  12
  -1  -8   8 1203.33 179.696  14
   1   8  -7 1518.17 223.768  12
  -1  -8   7 980.453 175.418  14
  -1  -8   6 8496.02 493.695  14
   1   8  -6 9159.83 570.576  12
   1   8  -5 90.7895 135.971  12
   1   8  -4 2385.19 317.036  12
   1   8  -3 5791.00 507.591  11
   1   8  -2 14768.8 781.136  11
   1   8  -1 1771.24 276.748  11
   1   8   0 296.977 99.7821  11
   1   8   1 42560.5 1026.95  10
   2  -9   3-30.4511 65.0454   3
   2  -9   4 2338.83 236.573   3
   2  -9   5 5180.35 338.081   3
  -2   8   2 52.9390 87.5900  20
  -2   8   1 71.4492 102.277  20
   2  -8   0 151.442 148.578   3
   2  -8   1-75.2169 130.243   3
   2  -8   2 87.2439 134.065   3
   2  -8   3 88.2183 146.499   3
   2  -8   3-145.785 125.992  14
   2  -8   4 14802.8 791.242  14
   2  -8   5 352.425 147.809  14
   2  -8   6 18.0199 98.0918  14
   2  -8   7-25.5659 100.561  14
   2  -8   8 20.6827 79.8943  14
  -2   7   4 982.479 200.758  20
  -2   7   3 34.2524 131.206  20
   2  -7  -2 680.710 210.242   3
   2  -7  -1 2754.34 405.604   3
   2  -7   0 680.070 227.639   3
   2  -7   1 23681.3 1107.80  14
   2  -7   1 23467.6 1152.04   3
   2  -7   2 74898.8 1966.86  14
   2  -7   3 124052. 2516.09  14
   2  -7   4 5778.65 549.593  14
   2  -7   5 383.950 146.111  14
   2  -7   6 1941.62 333.240  14
   2  -7   7 1679.92 298.388  14
   2  -7   8 183.443 132.641  14
   2  -7   9 116.768 99.8311  14
  -2   6   6 1202.23 198.021  20
  -2   6   5 204.995 168.989  20
  -2   6   4 463.023 193.770  20
   2  -6  -3 86.5422 124.211   3
   2  -6  -2 19043.8 1072.53   3
   2  -6  -1 30719.2 1345.22   3
   2  -6   0 10796.3 754.367  14
   2  -6   0 11092.1 803.092   3
   2  -6   1 245943. 3510.65  14
   2  -6   2 7952.78 659.198   1
   2  -6   2 7757.04 620.247  14
   2  -6   3 86.3876 99.1128  14
   2  -6   3-205.305 140.425   1
   2  -6   4 1449.45 275.029  14
   2  -6   4 2006.13 338.915   1
   2  -6   5 188.954 121.333  14
   2  -6   5 210.873 151.161  15
   2  -6   6 25.1560 92.3614  15
   2  -6   7 1325.95 266.381  15
   2  -6   8 124.264 126.612  15
   2  -6   9 263.466 141.250  15
   2  -6  10-33.1581 84.9041  14
   2  -6  10 126.421 102.378  15
  -2   5   8 7297.98 357.433  20
  -2   5   7 426.691 128.525  20
  -2   5   6 1252.46 253.813  20
  -2   5   5 4760.51 538.499  20
   2  -5  -4 22199.2 1141.23   3
   2  -5  -3 13967.6 908.799   3
   2  -5  -2 158310. 2943.76   3
  -2   5   2 158210. 2969.25  18
  -2   5   1 13242.5 838.049  18
   2  -5  -1 13183.5 785.246  14
   2  -5  -1 13960.9 845.031   3
   2  -5   0 392.078 172.118  14
   2  -5   0 244.286 168.117   1
   2  -5   1 127.749 78.1170   1
   2  -5   2 49.4981 90.8892   1
   2  -5   3 507.244 168.443   1
   2  -5   4 11060.6 685.308   1
   2  -5   4 12411.7 733.790  15
   2  -5   5 5119.59 473.825   1
   2  -5   5 4883.75 471.748  15
   2  -5   6 19210.2 953.514   1
   2  -5   6 18654.5 951.963  15
   2  -5   7 9918.03 703.772  15
   2  -5   8 3694.00 437.605  15
   2  -5   9 54259.4 1582.63  15
   2  -5  10 1203.94 223.304  15
   2  -5  11-88.3261 75.7132  15
  -2   4   9 475.383 116.080  20
  -2   4   8 59.6252 87.1500  20
  -2   4   7 47.4349 141.613  20
  -2   4   6 280.600 158.786  20
  -2   4   5 13155.5 911.669  20
   2  -4  -4 21129.4 1086.22   3
   2  -4  -4 23844.4 1082.97   4
  -2   4   3 272.183 170.950  18
   2  -4  -3 484.981 162.983  17
   2  -4  -3 9.68636 96.7877   3
   2  -4  -2 15885.0 843.007  17
  -2   4   2 15795.3 831.690  18
   2  -4  -1 18794.3 849.186  17
   2  -4   0 46009.2 1275.88   1
   2  -4   1 6575.36 477.076   1
   2  -4   2 27170.8 936.003   1
   2  -4   3 8284.13 511.026   1
   2  -4   4 89974.7 1804.59   1
   2  -4   5 2976.84 359.339   1
   2  -4   6 3273.17 397.726   1
   2  -4   6 3604.22 402.126  13
   2  -4   6 3491.66 413.023  16
   2  -4   7 29636.0 1239.55   1
   2  -4   7 30248.3 1183.66  13
   2  -4   7 28972.1 1210.89  16
   2  -4   8 28250.8 1149.19  13
   2  -4   8 24944.9 1151.94  16
   2  -4   9 431.933 168.746  16
   2  -4  10 1249.57 229.542  16
   2  -4  11 207.276 111.590  15
  -2   3  10 4567.98 278.425  20
  -2   3   9 5105.69 419.628  20
  -2   3   8 645.517 200.364  20
  -2   3   7 3993.35 482.126  20
  -2   3   6 259680. 3933.02  20
   2  -3  -5 127723. 2657.30  19
   2  -3  -5 132005. 2502.50   4
  -2   3   5 130171. 2733.81  20
  -2   3   4 2445.04 368.253  18
  -2   3   3 13032.5 726.813  18
   2  -3  -3 12977.2 743.169  17
  -2   3   2 138391. 2129.10  18
   2  -3  -2 139570. 2228.32  17
   2  -3  -1 47141.4 1132.43   1
   2  -3  -1 49482.8 1185.77  17
   2  -3   0 431.400 128.158   1
   2  -3   0 506.612 107.536  17
   2  -3   1 996.126 168.560   1
   2  -3   2 1250.26 180.867   1
   2  -3   3 175946. 2125.09   1
   2  -3   4 2211.88 264.043   1
   2  -3   5 84342.3 1727.83   1
   2  -3   6 1299.08 243.030   1
   2  -3   7 11138.5 760.333   1
   2  -3   7 11989.9 781.237  16
   2  -3   7 11646.0 779.241  20
   2  -3   8 5683.49 559.185  16
   2  -3   8 6666.32 622.320  20
   2  -3   9 637.504 238.734  20
   2  -3   9 588.253 205.387  16
   2  -3  10 482.236 182.918  16
   2  -3  10 418.370 168.130  20
   2  -3  11 499.505 143.357  16
   2  -3  12 2798.22 206.539  15
  -2   2  10 375.146 134.776  20
  -2   2   9 622.799 208.933  20
  -2   2   8 36718.9 1386.71  20
  -2   2   7 63946.6 1893.12  20
   2  -2  -7 67434.0 1760.26   4
   2  -2  -6 1039.59 234.537  19
  -2   2   6 884.013 261.983  20
   2  -2  -6 617.796 193.580   4
   2  -2  -5 33047.9 1291.12  19
   2  -2  -4 20962.7 947.874  19
  -2   2   3 882.476 193.043  18
   2  -2  -2 56915.5 884.329   2
  -2   2   2 53844.0 1158.48  18
   2  -2  -1 102192. 1382.01   1
   2  -2  -1 105056. 1228.51   2
   2  -2   0 179613. 1724.39   1
   2  -2   1 585225. 1263.75  19
   2  -2   1 603609. 3003.87   1
   2  -2   2 367760. 2524.74   1
   2  -2   3 1368.34 181.696   1
   2  -2   4 22055.3 766.803   1
   2  -2   5 14664.0 708.086   1
   2  -2   6 19300.8 911.618   1
   2  -2   7 1590.38 292.527   1
   2  -2   7 1656.59 316.483  20
   2  -2   8-7.08224 135.744  20
   2  -2   8 101.132 156.435  16
   2  -2   9 687.364 221.258  20
   2  -2   9 800.725 233.979  16
   2  -2  10 8131.01 621.170  20
   2  -2  10 8158.22 606.669  16
   2  -2  11 5230.28 403.319  16
   2  -2  11 5266.87 410.411  20
  -2   1  11-65.5001 71.0431  20
  -2   1  10 1339.49 247.437  20
   2  -1  -9 1666.42 265.661   4
  -2   1   9 1527.32 277.373  20
  -2   1   8 33.7846 156.303  20
   2  -1  -8 154.040 79.4515   4
   2  -1  -7 60547.8 1690.03   4
   2  -1  -7 60686.0 1784.51  19
  -2   1   7 65088.9 1836.71  20
   2  -1  -6 54739.1 1624.36  19
   2  -1  -5 18871.9 902.062  19
   2  -1  -4 57891.9 1451.53  19
   2  -1  -3 103876. 1744.51  19
  -2   1   3 110847. 1712.09  18
  -2   1   2 5443.70 323.441  18
   2  -1  -2 5441.98 344.834  19
   2  -1  -2 5584.94 285.185   2
   2  -1  -1 287493. 1858.25   1
   2  -1  -1 285182. 1972.05  19
   2  -1  -1 284625. 1983.10   2
   2  -1   2 498801. 2651.94   1
  -2   1  -2 486407. 1677.99  17
  -2   1  -3 34422.0 489.876  19
   2  -1   3 33173.2 798.481   1
   2  -1   4 17870.8 679.648   1
   2  -1   5 7116.92 496.591   1
   2  -1   6 6576.55 537.621   1
   2  -1   7 2483.82 368.577  20
   2  -1   7 2270.37 358.229   1
   2  -1   8 281.141 143.110  20
   2  -1   9 8528.96 674.353  20
   2  -1  10 5915.72 503.694  16
   2  -1  10 6214.96 516.133  20
   2  -1  11 60.4420 92.7351  20
   2  -1  11-36.1381 72.5626  16
  -2   0  11 1500.10 213.189  20
  -2   0  10 1854.75 281.987  20
   2   0 -10 1392.68 232.935   4
  -2   0   9 31865.7 1247.66  20
   2   0  -9 28495.4 1124.28   4
  -2   0   8 5511.24 533.826  20
   2   0  -8 6208.72 574.466  19
   2   0  -8 5662.88 528.881   4
  -2   0   7 2182.77 325.548  20
   2   0  -7 1724.07 302.175  19
   2   0  -7 1848.18 297.678   4
   2   0  -6 18999.7 913.685  19
   2   0  -5 8427.36 554.620  19
   2   0  -4 15.8522 74.9399  19
   2   0  -3 81650.1 1355.49  19
   2   0  -2 290538. 2191.63   2
   2   0  -2 297802. 2172.82  19
  -2   0  -1 173289. 1298.14  17
   2   0   1 175415. 1165.81   1
   2   0   2 162.703 63.4487   1
  -2   0  -2 155.734 68.1678  17
  -2   0  -3 27411.7 811.903  17
  -2   0  -4 23266.5 852.998  17
  -2   0  -5 49264.0 1346.58  17
   2   0   6 253.402 145.658   1
   2   0   7 760.877 214.984  20
   2   0   7 1061.04 253.180   1
   2   0   8 9716.63 731.407  20
   2   0   9 2233.32 349.325  20
   2   0  10 1467.34 236.858  20
   2   0  10 1619.25 253.706  16
   2   0  11 3388.84 261.519  16
   2   0  11 3230.51 243.770  20
  -2  -1  12 1550.97 163.524  13
  -2  -1  11 811.969 171.123  20
   2   1 -11 515.546 134.099   4
  -2  -1  10 33908.2 1208.52  20
   2   1 -10 30833.9 1122.80   4
  -2  -1   9 2799.59 372.898  20
   2   1  -9 2475.56 352.688   4
  -2  -1   8 1327.23 273.316  20
   2   1  -8 769.312 214.806  19
   2   1  -8 873.661 229.684   4
   2   1  -7 2209.13 324.195  19
   2   1  -6 6168.41 491.147  19
   2   1  -5 2498.08 287.584  19
   2   1  -4 1502.60 202.125  19
   2   1  -3 365340. 2764.06  19
   2   1  -2 11197.7 450.905  19
  -2  -1   2 11217.6 233.800   1
   2   1  -1 148572. 1507.48  19
   2   1  -1 146735. 1582.39   2
  -2  -1   0 612.285 104.086  17
   2   1   0 545.884 103.384   2
  -2  -1  -1 16936.9 547.260  17
   2   1   1 17483.0 490.106   2
   2   1   2 158237. 1452.26   2
  -2  -1  -2 152126. 1906.79  17
  -2  -1  -3 46593.6 1215.07  17
   2   1   3 46206.4 800.023   2
  -2  -1  -4 114969. 2211.01  17
  -2  -1  -5 3754.77 440.430  17
   2   1   6 5432.23 523.963  20
  -2  -1  -6 5224.17 530.439  17
   2   1   7 24432.1 1125.51  20
   2   1   8 171052. 2858.29  20
   2   1   9 5024.97 444.238  20
   2   1  10 1001.61 168.648  20
  -2  -2  12 985.805 154.053  13
   2   2 -11 397.473 137.895   4
   2   2 -10 231.133 115.519   4
   2   2  -9 4850.43 488.045   4
   2   2  -8 1502.93 290.806  19
   2   2  -8 1515.76 277.252   4
  -2  -2   7-9.97800 80.9871   1
   2   2  -7 313.200 138.646  19
  -2  -2   6 2603.71 288.171   1
   2   2  -6 2658.93 324.452  19
   2   2  -5-68.6028 81.1931  19
  -2  -2   5-57.1808 70.9135   1
  -2  -2   4 77908.2 1112.41   1
   2   2  -4 74067.1 1437.47  19
  -2  -2   3 59356.1 742.830   1
   2   2  -3 57304.3 1192.88  19
   2   2  -2 114408. 1611.10  19
  -2  -2   1 125662. 1596.82  17
  -2  -2   0 92025.3 1412.65  17
  -2  -2  -1 1799.77 231.933  17
  -2  -2  -2 191914. 2525.99  17
  -2  -2  -3 44450.4 1384.51  17
  -2  -2  -4 70306.8 1974.56  17
   2   2   5 2513.17 368.342  10
  -2  -2  -5 3105.20 451.520  17
   2   2   6 231536. 3655.89  10
   2   2   6 243904. 3449.47  20
   2   2   7 6627.67 558.488  20
   2   2   8 1797.17 277.204  20
   2   2   9 1508.98 212.904  20
   2   2  10 295.831 82.0730  16
  -2  -3  12 990.581 163.854  13
  -2  -3  11 973.661 211.594  13
   2   3 -10 525.839 172.659   4
   2   3  -9 1505.90 290.145   4
   2   3  -8 1258.49 278.567  19
   2   3  -8 1200.03 268.279   4
   2   3  -7 248784. 3417.68   4
   2   3  -7 243069. 3334.70  19
   2   3  -6 1285.97 240.141  19
   2   3  -5 56958.3 1424.88  19
   2   3  -4 64060.0 1437.40  19
   2   3  -3 303914. 3039.84  19
  -2  -3   2 726.339 166.300  17
  -2  -3   1 39.0299 78.1148  17
  -2  -3   0 11593.4 621.665  17
  -2  -3  -1 3220.97 368.823  17
  -2  -3  -2 17113.2 909.198  17
  -2  -3  -3 8386.48 703.973  17
   2   3   4 12541.6 807.626  10
  -2  -3  -4 13417.9 968.419  17
   2   3   5 6082.45 585.810  10
   2   3   5 7972.90 608.413  20
   2   3   6 127.351 155.100  10
   2   3   6 235.598 128.450  20
   2   3   7 389.316 156.471  20
   2   3   8 1515.60 200.761   7
   2   3   8 1737.47 215.591  20
  -2  -4  12 632.564 132.072  13
   2   4 -12 501.926 115.500  21
  -2  -4  11 842.643 187.549  13
  -2  -4  10 818.769 223.246  13
  -2  -4   9 63448.4 1814.32  13
   2   4  -8 11114.3 757.785   4
   2   4  -7 161.705 124.100  19
   2   4  -7-131.421 126.275   4
   2   4  -6 705.717 183.037   4
   2   4  -6 676.657 166.431  19
   2   4  -5 11450.9 692.670  19
  -2  -4   4 693.769 190.061  17
  -2  -4   3 1287.80 233.286  17
  -2  -4   2 7900.69 565.155  17
  -2  -4   1 5128.00 481.499  17
  -2  -4   0 14730.4 849.332  17
  -2  -4  -1 44486.4 1573.12  17
   2   4   2 85743.0 2088.03  11
  -2  -4  -2 82329.6 2323.57  17
   2   4   3 612.017 220.226  11
  -2  -4  -3 950.933 297.950  17
   2   4   4 5757.87 570.928  10
   2   4   5 1934.53 323.202  10
   2   4   6 9270.38 675.292  10
   2   4   7 2584.09 289.178   7
  -2  -5  11 147.481 103.847  13
   2   5 -11 50.4369 75.2741  21
  -2  -5  10-122.314 150.857  13
   2   5 -10 145.031 84.6529  21
  -2  -5   9 10189.7 696.234  13
   2   5  -9 10118.6 688.379  21
  -2  -5   8 67.0486 102.316  13
   2   5  -8-10.1793 120.510  21
  -2  -5   7 12338.3 772.150  13
   2   5  -7 12756.8 806.407  21
  -2  -5   6 4025.78 437.293  13
   2   5  -6 4636.29 487.445  21
  -2  -5   6 4828.04 481.137  17
  -2  -5   5 6698.60 543.878  13
   2   5  -5 6099.17 547.977  21
  -2  -5   5 5393.07 522.028  17
   2   5  -4 6891.47 589.101  21
  -2  -5   4 7447.71 602.872  17
  -2  -5   3 2011.44 321.545  17
   2   5  -3 1912.97 320.463  12
   2   5  -2 10614.8 726.617  12
  -2  -5   2 9683.82 725.427  17
   2   5  -1 210374. 3256.90  12
  -2  -5   1 205758. 3470.92  17
   2   5   0 128403. 2604.63  12
  -2  -5   0 129445. 2896.80  17
   2   5   1 23826.2 1172.05  11
  -2  -5  -1 25350.5 1376.20  17
   2   5   2 17356.5 1012.96  11
   2   5   3 3541.54 463.764  11
   2   5   3 3075.80 427.872  10
   2   5   4 16567.6 920.676  10
   2   5   5 2076.81 312.687  10
   2   5   6 166.377 86.9387   7
   2   6 -10 2959.64 306.903  21
   2   6  -9-24.9866 78.3802  21
   2   6  -8 54.2046 88.6746  21
   2   6  -7 10282.2 715.338  21
   2   6  -6 488.211 186.642  21
   2   6  -5 3758.83 459.291  12
   2   6  -4 400.419 180.274  12
   2   6  -3 44780.0 1585.23  12
   2   6  -2 163815. 3048.32  12
   2   6  -1 47990.5 1686.76  12
   2   6   0 30363.8 1341.30  11
   2   6   1 8828.12 736.587  11
   2   6   2 6109.92 604.811  11
   2   6   3 335.468 181.925  10
   2   6   4 508.577 170.684  10
   2   6   5 1393.57 194.283   7
   2   7 -10 343.975 97.5130  12
  -2  -7   9 480.106 138.705  14
   2   7  -9 665.255 170.812  12
  -2  -7   8 1168.93 198.900  14
   2   7  -8 1541.41 263.702  12
  -2  -7   7 948.210 193.689  14
   2   7  -7 1054.30 232.377  12
   2   7  -6 2736.87 376.110  12
   2   7  -5 114.463 159.692  12
   2   7  -4 374.531 170.812  12
   2   7  -3 396.647 191.063  12
   2   7  -2 27067.5 1223.39  11
   2   7  -1 7572.74 656.160  11
   2   7   0 1279.79 297.803  11
   2   7   1-53.9259 192.841  11
   2   7   2 254.223 145.612  10
   2   7   3 947.622 169.128   7
   2   7   3 571.123 126.678  10
   2   8  -8-65.9212 75.5516  12
   2   8  -7 464.433 133.422  12
   2   8  -6 4153.36 374.486  12
   2   8  -5 3136.16 336.451  12
   2   8  -4 4800.24 442.391  11
   2   8  -3 1121.05 223.562  11
   2   8  -2 1383.75 241.988  11
   2   8  -1 64.8789 115.688  11
   2   8   0-24.4397 89.4828  10
   3  -9   3 5702.28 339.963   3
   3  -9   4 552.840 123.214   3
  -3   8   2 212.531 100.863  20
  -3   8   1 1283.99 234.340  20
   3  -8   0 2960.83 348.804   3
   3  -8   1 3835.63 412.018   3
   3  -8   1 3878.32 374.156   4
   3  -8   2 38.2409 118.101   3
   3  -8   3 1876.89 300.506   3
   3  -8   4 1517.05 264.462  14
   3  -8   5 3987.13 393.243  14
   3  -8   6 3295.91 337.180  14
   3  -8   7 3806.30 330.301  14
  -3   7   4-37.4415 81.9109  20
  -3   7   3 6624.83 535.200  20
   3  -7  -2 5641.32 539.464   3
   3  -7  -1 4600.22 503.033   3
   3  -7  -1 5167.20 499.125   4
   3  -7   0 1543.36 309.784   3
   3  -7   1 3672.87 471.708   3
   3  -7   2 53.5374 166.878  14
   3  -7   3 33508.0 1291.31  14
   3  -7   4 450.022 173.490  14
   3  -7   5 3488.11 422.683  14
   3  -7   6 7127.69 571.455  14
   3  -7   7 736.284 190.680  14
   3  -7   8 443.126 153.877  14
  -3   6   6 1200.96 177.092  20
  -3   6   5 2.69480 97.6907  20
  -3   6   4 1895.43 328.738  20
   3  -6  -3 8159.31 681.102   3
   3  -6  -3 8798.43 660.328   4
   3  -6  -2 2109.98 362.693   3
   3  -6  -2 2469.51 380.213   4
   3  -6  -1 3605.05 468.484   3
   3  -6   0 512.737 174.369   3
   3  -6   1 1124.99 264.533  14
   3  -6   2 7016.18 595.761  14
   3  -6   3 1173.16 245.495  14
   3  -6   4 2555.36 364.150  14
   3  -6   4 2670.28 380.496  15
   3  -6   5 946.563 244.793  14
   3  -6   5 788.476 214.868  15
   3  -6   6 800.258 212.112  14
   3  -6   6 532.789 203.004  15
   3  -6   7 500.845 188.525  14
   3  -6   7 201.420 161.198  15
   3  -6   8 96.3189 104.951  14
   3  -6   8 40.6960 122.511  15
   3  -6   9 2605.28 318.062  15
   3  -6  10 144.197 94.8850  15
  -3   5   7 5914.65 422.558  20
  -3   5   6 2346.52 330.655  20
   3  -5  -5 1223.69 243.507   4
  -3   5   5 1290.32 290.013  20
   3  -5  -4 5140.59 529.487   4
   3  -5  -3 15121.4 951.358   3
   3  -5  -3 15562.2 936.161   4
   3  -5  -2 39414.2 1498.26   3
  -3   5   2 41716.7 1574.48  18
   3  -5  -2 41573.2 1512.94   4
   3  -5  -1 54570.8 1682.13   3
  -3   5   1 55297.6 1745.39  18
   3  -5   0 18387.4 921.015  14
   3  -5   0 17861.1 947.985   1
   3  -5   1 23127.7 1009.72  14
   3  -5   1 23481.0 1065.49   1
   3  -5   2 225.923 123.863  14
   3  -5   2-14.6925 151.944   1
   3  -5   3 6020.58 524.126  14
   3  -5   3 6287.68 532.653  15
   3  -5   3 6045.13 542.248   1
   3  -5   4 32827.2 1214.59  14
   3  -5   4 31521.2 1216.77   1
   3  -5   4 31209.8 1191.49  15
   3  -5   5 11819.0 749.729  14
   3  -5   5 10904.9 722.263  15
   3  -5   5 11289.2 735.805   1
   3  -5   6 304.368 153.879  15
   3  -5   7 2069.79 343.607  15
   3  -5   8 1113.62 256.281  15
   3  -5   9 18446.4 901.610  15
   3  -5  10 6607.57 465.597  15
   3  -5  11 444.421 97.0266  15
  -3   4   8 250.209 115.669  20
  -3   4   7 505.653 171.047  20
  -3   4   6 17962.4 1013.36  20
   3  -4  -6 19046.3 942.171   4
  -3   4   5 127810. 2821.99  20
   3  -4  -5 131358. 2657.36   4
   3  -4  -4 31309.9 1338.26   3
   3  -4  -4 33936.0 1356.64  19
   3  -4  -4 31928.7 1326.65   4
  -3   4   3 31971.7 1354.94  18
   3  -4  -3 31576.8 1289.53   3
   3  -4  -3 31736.4 1260.23  19
   3  -4  -3 32648.4 1307.89   4
  -3   4   2 4684.69 490.269  18
  -3   4   1 103842. 2133.28  18
   3  -4   0 206770. 2861.57   1
   3  -4   1 80.3624 83.0840   1
   3  -4   2 7450.90 525.117   1
   3  -4   3 10448.3 615.169   1
   3  -4   4 27096.9 997.237   1
   3  -4   5 10306.0 690.709   1
   3  -4   5 10287.5 691.540  16
   3  -4   6 8101.58 646.094  16
   3  -4   6 8139.38 647.395   1
   3  -4   7 494.280 203.061  16
   3  -4   8 25213.0 1168.38  16
   3  -4   9 55.0791 135.242  16
   3  -4  10 429.302 148.328  15
   3  -4  11 198.208 102.095  15
  -3   3   9 556.388 138.814  20
  -3   3   8 11545.5 700.606  20
   3  -3  -8 12024.7 629.356   4
  -3   3   7 61351.0 1805.48  20
   3  -3  -7 63945.9 1710.96   4
  -3   3   6 11253.9 812.730  20
   3  -3  -6 10999.3 776.664   4
   3  -3  -5-133.358 128.263   4
  -3   3   5-4.84188 101.537  20
   3  -3  -5 200.001 141.369  19
   3  -3  -4-17.1824 80.3284   4
   3  -3  -4 225.934 136.336   3
   3  -3  -4 27.5715 116.126  19
  -3   3   4 215.028 172.951  18
  -3   3   3 13031.9 769.949  18
   3  -3  -3 13585.6 772.567  19
   3  -3  -2 161109. 2381.83  19
  -3   3   2 157575. 2464.47  18
   3  -3  -1 606.845 124.940   2
   3  -3  -1 455.534 132.031   1
   3  -3   0 23847.5 823.156   1
   3  -3   1 106405. 1706.11   1
   3  -3   2 184971. 2204.75   1
   3  -3   3 30467.3 956.068   1
   3  -3   4 11531.9 623.466   1
   3  -3   5 15251.6 770.466   1
   3  -3   6 3267.00 402.720   1
   3  -3   6 3481.39 422.352  20
   3  -3   6 3892.81 446.974  16
   3  -3   7 880.428 238.850   1
   3  -3   7 865.388 234.391  20
   3  -3   7 681.384 230.389  16
   3  -3   8 1.49900 115.444  20
   3  -3   8 96.9972 132.682  16
   3  -3   9 237.087 150.130  16
   3  -3  10 1224.84 248.293  16
   3  -3  11 1422.68 198.626  16
   3  -3  11 1648.63 216.048  15
  -3   2  10 504.028 116.153  20
   3  -2  -9 3155.69 313.291   4
  -3   2   9 3076.40 339.856  20
  -3   2   8 7693.54 610.731  20
   3  -2  -8 7871.61 589.987   4
  -3   2   7 411.280 180.059  20
   3  -2  -7 69.1991 93.8871   4
   3  -2  -6 61.1420 106.729   4
  -3   2   6 333.647 134.178  20
   3  -2  -6 334.653 164.804  19
   3  -2  -5 211.455 122.220   4
   3  -2  -5 435.934 175.665  19
   3  -2  -4 11858.2 723.552  19
   3  -2  -3 24122.7 924.985  19
  -3   2   3 24657.5 964.433  18
   3  -2  -2 66.1318 80.2740   2
   3  -2  -2 52.1607 75.9829  19
  -3   2   2 84.0065 104.310  18
   3  -2  -1 40468.1 957.174   1
   3  -2  -1 42143.5 982.649   2
   3  -2   0 71681.2 802.402  19
   3  -2   0 68998.1 1208.13   1
   3  -2   1 2444.04 222.083   1
   3  -2   2 20843.5 671.411   1
   3  -2   3 7618.97 432.943   1
   3  -2   4 4218.84 359.422   1
   3  -2   5 43650.9 1284.74   1
   3  -2   6 12562.0 772.564   1
   3  -2   6 12556.6 785.843  20
   3  -2   6 13604.1 837.986  16
   3  -2   7 56851.8 1731.98   1
   3  -2   7 57634.0 1761.81  20
   3  -2   7 57783.2 1809.48  16
   3  -2   8 559.658 200.654  20
   3  -2   8 341.033 164.086  16
   3  -2   9 70.8824 108.519  20
   3  -2   9 71.9959 148.053  16
   3  -2  10 6470.33 503.686  16
   3  -2  11 777.704 144.407  16
  -3   1  10 672.769 155.224  20
   3  -1 -10 925.948 169.612   4
  -3   1   9 334.188 146.462  20
   3  -1  -9 156.287 94.5827   4
  -3   1   8 461.505 151.051  20
   3  -1  -8 474.764 188.491   4
   3  -1  -7 387.131 169.888  19
  -3   1   7 309.681 133.359  20
   3  -1  -7 106.840 116.886   4
   3  -1  -6 9685.28 715.586  19
   3  -1  -6 9491.23 692.247   4
   3  -1  -5 561.850 160.426  19
   3  -1  -4 127773. 2192.81  19
   3  -1  -3 345903. 2895.72   2
   3  -1  -3 339706. 3206.61  19
  -3   1   3 334406. 3226.12  18
  -3   1   2 24154.3 750.540  18
   3  -1  -2 23100.1 704.004  19
   3  -1  -2 23874.0 719.373   2
   3  -1  -1 134323. 1405.41   1
   3  -1  -1 132968. 1398.03  19
  -3   1   1 133167. 1537.59  18
   3  -1  -1 132392. 1677.82   2
   3  -1   0 280785. 1659.68  19
   3  -1   0 277023. 1945.69   1
   3  -1   0 275304. 2478.45   2
   3  -1   1 12150.0 403.383   1
   3  -1   2 77840.3 1127.31   1
   3  -1   3 181018. 1977.42   1
   3  -1   4 3615.39 324.518   1
   3  -1   5 111399. 2026.73   1
   3  -1   6 212.540 150.350   1
   3  -1   6-43.8815 91.5576  20
   3  -1   7 8660.72 684.664  20
   3  -1   7 8771.55 678.857   1
   3  -1   8 1255.40 276.153  20
   3  -1   9 449.666 139.039  20
   3  -1   9 403.782 153.677  16
   3  -1  10 81.7871 84.6210  20
   3  -1  10 49.4447 81.6520  16
   3  -1  11 154.909 75.4215  16
   3   0 -11 131.516 76.0756   4
   3   0 -10 862.541 181.480   4
   3   0  -9 108.563 137.939   4
   3   0  -8 2650.77 375.900   4
   3   0  -7 709.368 210.056  19
   3   0  -7 682.635 199.784   4
   3   0  -6 17982.9 928.455  19
   3   0  -5 295846. 3446.80  19
   3   0  -4 48478.4 1264.64  19
   3   0  -3 67451.9 1329.41  19
   3   0  -2 484.548 133.176   2
   3   0  -2 536.203 119.274  19
   3   0  -1 36253.7 778.311  19
   3   0  -1 36693.8 887.242   2
   3   0   0 27082.5 764.764   2
  -3   0   0 25372.8 581.345  17
   3   0   0 27116.3 609.053  19
  -3   0  -1 125755. 1351.86  17
   3   0   1 126197. 1707.30   2
   3   0   1 126177. 1072.98   1
   3   0   2 53059.1 863.870   1
   3   0   2 52361.7 1155.02   2
   3   0   3 26947.8 865.225   2
   3   0   3 27910.3 754.584   1
   3   0   4 3680.22 329.266   1
   3   0   4 4557.76 372.374   2
   3   0   5-123.858 95.7945   1
   3   0   6 2311.36 331.619   1
   3   0   6 1904.25 311.170  20
   3   0   7 1468.74 295.270  20
   3   0   8 6.25112 106.359  20
   3   0   9 167.720 95.6458  20
   3   0  10 1079.44 143.165  20
   3   0  10 808.141 171.579  16
  -3  -1  12 667.015 112.422  13
   3   1 -11 162.063 85.9923   4
   3   1 -10 3258.61 365.687   4
   3   1  -9 541.054 167.510   4
   3   1  -8 18873.0 973.967   4
   3   1  -7 11807.0 765.248   4
   3   1  -7 11464.2 774.299  19
   3   1  -6 10537.8 698.802  19
   3   1  -5 142.149 120.230  19
   3   1  -4 8777.11 539.806  19
   3   1  -3 20847.5 758.726  19
   3   1  -2 34759.6 910.416  19
   3   1  -1 1371.79 194.904   2
   3   1  -1 879.202 152.084  19
  -3  -1   0 253.765 93.2926  17
   3   1   0 277.248 109.162   2
  -3  -1  -1 198262. 2111.98  17
   3   1   1 191470. 2058.49   2
  -3  -1  -2 5098.42 387.845  17
   3   1   2 4983.90 338.864   2
  -3  -1  -3 163072. 2489.37  17
  -3  -1  -4 41287.3 1419.75  17
   3   1   5 2078.34 354.176  10
   3   1   6 626.445 207.188   7
   3   1   7 3681.83 417.556  20
   3   1   7 4147.64 470.221   7
   3   1   8 11830.7 668.604  20
   3   1   9 449.354 116.807  20
   3   1  10 3652.53 253.957  16
  -3  -2  12 37.6385 57.1733  13
   3   2 -11-85.0178 71.4990   4
   3   2 -10 3820.05 400.647   4
   3   2  -9 499.991 184.298   4
   3   2  -8 252.834 160.910   4
   3   2  -7 6047.45 540.339   4
   3   2  -7 5388.82 544.053  19
   3   2  -6 87807.2 2021.11  19
   3   2  -5 15600.4 797.014  19
   3   2  -4 21841.6 876.483  19
   3   2  -3 17115.4 731.870  19
   3   2  -2 161333. 2179.22  19
  -3  -2   1 279.972 115.815  17
  -3  -2   0 42306.3 1102.61  17
  -3  -2  -1 67305.8 1524.95  17
  -3  -2  -2 254901. 3202.46  17
  -3  -2  -3 542.640 191.002  17
   3   2   4 2234.09 349.110  10
  -3  -2  -4 1889.85 350.017  17
   3   2   5 21464.6 1083.44  10
   3   2   6 4039.86 478.220   7
   3   2   7 22558.0 1011.35   7
   3   2   8 9809.00 542.130   7
  -3  -3  12 438.960 100.459  13
   3   3 -12 242.157 79.6763  21
  -3  -3  11 8825.15 551.768  13
   3   3 -10 3190.03 379.592   4
   3   3  -9 965.317 233.275   4
   3   3  -8 113981. 2373.00   4
   3   3  -7 21118.8 1049.35  19
   3   3  -7 19931.8 969.493   4
   3   3  -6-51.8859 140.647   4
   3   3  -6 160.555 104.933  19
   3   3  -5 73.9091 91.2715  19
   3   3  -4 55477.2 1492.65  19
  -3  -3   3 49271.5 1366.64  17
  -3  -3   2 10750.5 614.889  17
  -3  -3   1 89351.2 1810.61  17
  -3  -3   0 18524.6 880.616  17
  -3  -3  -1 34920.6 1283.71  17
  -3  -3  -2 41882.5 1524.59  17
   3   3   3 56817.0 1731.36  11
   3   3   3 54065.5 1663.30  10
  -3  -3  -3 57969.3 1955.75  17
   3   3   4 46703.3 1575.10  10
   3   3   5 20709.8 1055.83  10
   3   3   6 10402.8 703.663   7
   3   3   7 6100.91 464.827   7
  -3  -4  12 964.247 128.868  13
   3   4 -12 1614.18 157.835  21
  -3  -4  11 336.483 127.669  13
   3   4 -11 361.238 125.908  21
  -3  -4  10 1045.21 226.038  13
   3   4 -10 869.661 200.132  21
  -3  -4   9 13280.1 786.568  13
  -3  -4   8 2928.28 386.903  13
   3   4  -8 2355.62 349.451   4
  -3  -4   7 3120.98 393.502  13
   3   4  -7 3070.58 383.508   4
   3   4  -6 207.591 117.219  19
   3   4  -6 257.513 151.092  21
   3   4  -6 164.716 108.039   4
   3   4  -5 3525.37 409.853  21
  -3  -4   5 2960.69 391.091  17
   3   4  -4 850.189 207.845  21
  -3  -4   4 480.434 161.612  17
  -3  -4   3 29671.0 1172.72  17
  -3  -4   2 1810.69 301.847  17
  -3  -4   1 46655.7 1549.71  17
   3   4   0 67465.8 1780.93  12
  -3  -4   0 64475.9 1934.99  17
   3   4   1 2682.43 390.350  11
  -3  -4  -1 3402.40 482.613  17
   3   4   2 7513.09 642.710  11
  -3  -4  -2 7853.84 753.614  17
   3   4   3 7059.82 655.602  11
   3   4   3 6615.12 594.304  10
   3   4   4 2552.02 380.144  10
   3   4   5 3897.91 449.951  10
   3   4   6 859.637 184.088   7
   3   4   7 203.150 89.6789   7
  -3  -5  11-14.7517 62.1005  13
   3   5 -11 114.639 74.4040  21
  -3  -5  10 2947.36 326.276  13
   3   5 -10 3048.86 329.078  21
  -3  -5   9 141.935 113.908  13
   3   5  -9 267.005 139.266  21
  -3  -5   8 179.135 121.539  13
   3   5  -8 1.33941 128.824  21
  -3  -5   7 9024.25 640.370  13
   3   5  -7 8433.60 669.016  21
   3   5  -6-79.7928 109.444  21
   3   5  -5 16830.9 933.132  21
   3   5  -4 24041.1 1124.21  12
   3   5  -4 22616.9 1086.23  21
  -3  -5   4 23947.1 1157.34  17
   3   5  -3 7525.05 640.253  12
  -3  -5   3 8207.17 702.232  17
   3   5  -2 11321.4 776.370  12
  -3  -5   2 12202.5 889.275  17
   3   5  -1 63693.6 1868.95  12
  -3  -5   1 67414.8 2129.34  17
   3   5   0 445.831 178.305  11
   3   5   1 817.526 275.757  11
   3   5   2 232.668 136.929  11
   3   5   3 19413.8 983.885  10
   3   5   4 3463.29 415.968  10
   3   5   5 342.535 125.663   7
   3   5   6 515.370 109.349   7
   3   6 -10 60.4465 83.0125  12
   3   6  -9 242.285 112.332  21
   3   6  -8 1151.52 242.958  21
   3   6  -7 18549.0 966.758  12
   3   6  -7 17310.7 910.556  21
   3   6  -6 31730.2 1295.70  12
   3   6  -5 674.323 233.957  12
   3   6  -4 965.163 249.823  12
   3   6  -3 23341.9 1139.47  12
   3   6  -2 74.7396 131.996  12
   3   6  -1 9111.87 720.382  11
   3   6   0 147.384 164.181  11
   3   6   1 1899.45 367.387  11
   3   6   2 4663.89 468.860  10
   3   6   3 162.569 117.510  10
   3   6   3 229.704 123.635   7
   3   6   4 171.101 98.9420   7
   3   6   4 29.5955 95.4503  10
   3   7  -9 37.8346 72.5660  12
   3   7  -8 1750.42 248.508  12
   3   7  -7 2746.62 339.345  12
   3   7  -6 470.463 174.796  12
   3   7  -5 2805.04 372.073  12
   3   7  -4 1608.22 301.806  12
   3   7  -3 3786.27 445.752  12
   3   7  -3 4186.31 478.395  11
   3   7  -2 1352.91 261.563  11
   3   7  -1 184.100 148.146  11
   3   7  -1 77.2011 92.8424   9
   3   7   0 18733.1 883.749  11
   3   7   1 1869.79 265.785  10
   3   7   1 1861.44 220.020   7
   3   7   2 20697.3 686.735  10
   3   8  -6 1411.99 195.993  11
   3   8  -5 704.534 158.081  11
   3   8  -4 2206.60 260.089  11
   3   8  -3 833.410 172.892  11
   3   8  -3 686.071 120.742   9
   3   8  -2 1005.43 178.370  11
  -4   8   1 548.677 132.220  20
   4  -8   0 7744.94 483.581   3
   4  -8   0 7236.75 413.683   4
   4  -8   1 8037.48 520.851   3
   4  -8   1 8098.22 500.929   4
   4  -8   2 56.2828 89.7717   4
   4  -8   2 132.179 112.817   3
   4  -8   3 44281.1 1230.03   3
   4  -8   4 14337.0 690.821   3
   4  -8   5 128.452 102.118   3
   4  -8   6-124.634 104.598   3
  -4   7   3 3096.43 324.542  20
   4  -7  -2 18180.9 793.985   4
   4  -7  -1 1211.85 245.550   4
   4  -7  -1 886.469 215.671   3
   4  -7   0 1167.05 256.735   4
   4  -7   0 1115.94 268.560   3
   4  -7   1 32574.8 1240.40   3
   4  -7   2 51496.7 1556.06   3
   4  -7   3 4967.17 470.994  14
   4  -7   4 1269.16 261.189  14
   4  -7   4 1279.54 237.533   6
   4  -7   5 357.182 147.696  14
   4  -7   6 143.858 110.278  14
   4  -7   7 116.582 76.2986  14
  -4   6   5 971.185 181.112  20
  -4   6   4 3229.90 380.612  20
   4  -6  -4 3277.84 351.878   4
   4  -6  -3 52.8530 97.6455   4
   4  -6  -2 12102.4 803.372   3
   4  -6  -2 12853.0 826.721   4
   4  -6  -1 126.903 123.713   4
   4  -6  -1 46.6812 121.498   3
   4  -6   0 151.578 153.133   3
   4  -6   1 19445.2 1009.44   3
   4  -6   2 3739.85 434.732  14
   4  -6   3-4.62811 96.9631  14
   4  -6   4 7.11910 84.6083  14
   4  -6   5 114.574 128.408  14
   4  -6   5-9.53097 135.732  15
   4  -6   6 358.876 147.944  14
   4  -6   6 308.738 146.481  15
   4  -6   7 643.279 192.656  15
   4  -6   8 1058.77 199.717  15
   4  -6   9 2869.58 293.129  15
  -4   5   7 60.4731 63.1825  20
  -4   5   6 510.189 154.173  20
   4  -5  -6 528.800 139.775   4
   4  -5  -5 3396.29 396.637   4
  -4   5   5 3471.65 419.160  20
  -4   5   4 2569.34 391.369  20
   4  -5  -4 2537.38 378.715   4
   4  -5  -3 16918.1 981.137   3
   4  -5  -3 18127.0 1010.66   4
   4  -5  -2 11362.0 805.010   3
   4  -5  -2 12027.2 831.432   4
   4  -5  -1 4019.95 459.213   3
   4  -5   0 9776.82 707.495   3
  -4   5   0 9418.21 721.029  18
   4  -5   1 4856.84 487.813  14
   4  -5   1 5327.18 527.109   1
   4  -5   2 50.6879 107.107  14
   4  -5   2 96.2996 115.299   1
   4  -5   3 4537.61 465.216  14
   4  -5   3 4430.02 483.667   1
   4  -5   3 4041.99 438.523  15
   4  -5   4 1088.38 233.740  14
   4  -5   4 1044.68 246.036  15
   4  -5   5 19706.6 935.262  14
   4  -5   5 18240.2 938.561  15
   4  -5   6 1093.88 239.499  15
   4  -5   7 11588.7 744.416  15
   4  -5   8 6079.36 518.512  15
   4  -5   9 26638.8 951.686  15
   4  -5  10 1728.83 202.740  15
  -4   4   7 688.154 171.420  20
   4  -4  -7 1088.51 203.338   4
  -4   4   6 7802.86 611.000  20
   4  -4  -6 9007.91 657.416   4
  -4   4   5 83546.3 2183.01  20
   4  -4  -5 81683.7 2099.76   4
   4  -4  -4 80851.8 2160.37   4
   4  -4  -3 1982.34 348.827   4
   4  -4  -3 1842.08 345.548   3
  -4   4   3 1910.47 364.177  18
   4  -4  -2 1882.73 335.651   4
   4  -4  -2 2279.56 327.911   3
  -4   4   2 1949.21 339.209  18
   4  -4  -1 57372.5 1621.21   3
  -4   4   1 51468.2 1586.18  18
   4  -4   0 21278.1 966.102   1
   4  -4   0 22650.7 938.472   2
   4  -4   1 15785.9 788.917   2
   4  -4   1 14398.7 788.200   1
   4  -4   1 14756.7 831.824   7
   4  -4   2 2675.91 347.928   1
   4  -4   2 2193.22 336.365   7
   4  -4   3 10794.1 676.127   1
   4  -4   3 11883.9 734.772   7
   4  -4   3 12152.2 692.457  15
   4  -4   4 37347.6 1258.56   1
   4  -4   4 38430.8 1338.53   7
   4  -4   4 38733.9 1280.71  15
   4  -4   5 3130.21 377.257   1
   4  -4   5 2969.10 382.190   7
   4  -4   5 3198.03 389.889  15
   4  -4   6 11374.9 772.315  16
   4  -4   6 11583.8 763.248  15
   4  -4   7 23296.4 1107.85  16
   4  -4   7 23290.3 1092.22  15
   4  -4   8 14.1047 109.214  15
   4  -4   8 175.502 142.325  16
   4  -4   9 10.4473 92.1840  15
   4  -4  10 35.5958 74.4996  15
  -4   3   8 11402.0 583.782  20
   4  -3  -8 9874.17 572.557   4
  -4   3   7 6983.15 553.159  20
   4  -3  -7 6397.91 548.977   4
  -4   3   6 187592. 3093.04  20
   4  -3  -6 167929. 3037.04   4
  -4   3   5 6146.48 595.418  20
   4  -3  -5 4777.74 530.838   4
   4  -3  -4 26.4516 95.3917   4
   4  -3  -3 1412.03 280.804   3
  -4   3   3 1479.53 296.420  18
   4  -3  -3 2068.92 346.492   4
  -4   3   2 24050.3 1040.43  18
   4  -3  -2 29011.2 990.470   2
  -4   3   1 6814.12 535.909  18
   4  -3  -1 7019.62 487.556   2
   4  -3   0 3812.30 363.311   1
   4  -3   0 4018.38 385.031   2
   4  -3   1 859.521 179.432   1
   4  -3   2 13921.5 676.208   1
   4  -3   3 1031.40 208.755   1
   4  -3   4 243.741 147.678   1
   4  -3   4-81.7185 81.2273   7
   4  -3   5 3891.05 439.558   7
   4  -3   5 3660.81 409.464   1
   4  -3   5 3631.77 420.031  16
   4  -3   6 170.579 126.649   1
   4  -3   6 688.697 208.206  16
   4  -3   7 1992.68 347.497  16
   4  -3   8-0.70501 156.568  16
   4  -3   9-72.5990 130.559  16
   4  -3  10 1046.00 180.894  15
   4  -3  10 1267.34 201.499  16
   4  -2  -9 8439.67 508.228   4
   4  -2  -8 10936.2 685.302   4
   4  -2  -7 2833.31 393.248   4
   4  -2  -6 6163.18 601.447   4
   4  -2  -5 15421.8 885.103  19
   4  -2  -5 15069.0 923.485   4
   4  -2  -4 241.463 173.794   4
   4  -2  -4 146.825 125.093  19
   4  -2  -3 2950.02 322.033  19
   4  -2  -3 3373.55 342.474   2
  -4   2   2 9710.53 604.384  18
   4  -2  -2 10495.7 519.497  19
   4  -2  -2 9632.20 562.123   2
  -4   2   1 86054.0 1632.93  18
   4  -2  -1 79781.8 1592.86   2
   4  -2   0 42807.2 1033.31   1
   4  -2   0 41707.7 1191.71   2
   4  -2   1 52604.5 1368.16   2
   4  -2   1 55781.0 1168.57   1
   4  -2   2 614174. 3858.56   1
   4  -2   3 9322.46 518.161   1
   4  -2   4 30.6151 92.3691   1
   4  -2   5 19057.8 868.515   1
   4  -2   5 22245.6 1066.95   7
   4  -2   5 20675.9 995.187  16
   4  -2   6 462.088 185.227  20
   4  -2   6 286.276 163.240  16
   4  -2   6 39.4765 99.0977   7
   4  -2   7 694.821 216.325  16
   4  -2   8 2440.70 367.714  16
   4  -2   9 69.9032 104.246  16
   4  -2  10 4976.65 364.880  16
   4  -1 -10 756.244 148.120   4
   4  -1  -9 333.016 143.310   4
   4  -1  -8 17275.8 918.004   4
   4  -1  -7 1309.74 279.159   4
   4  -1  -6 40.0820 124.871   4
   4  -1  -6-130.861 102.233   5
   4  -1  -6 2.22851 110.718  19
   4  -1  -5 1201.65 260.184   4
   4  -1  -5 1035.81 243.374  19
   4  -1  -4 25283.4 1008.45  19
   4  -1  -3 105972. 1852.78  19
   4  -1  -3 107107. 1901.63   2
   4  -1  -2 17459.2 658.399  19
  -4   1   2 18220.7 733.367  18
   4  -1  -2 16500.4 724.346   2
   4  -1  -1 30183.5 739.664  19
   4  -1  -1 28258.7 942.644   2
   4  -1   0 881193. 5342.11   2
   4  -1   1 320558. 3372.10   2
   4  -1   2 17072.8 812.842   2
   4  -1   3 58372.1 1561.07   2
   4  -1   4 12097.8 743.569   2
   4  -1   5 10336.7 771.944   7
   4  -1   6-80.5291 109.711   7
   4  -1   7 641.525 206.056  16
   4  -1   7 2179.25 336.884   7
   4  -1   8 968.154 210.032  20
   4  -1   8 765.844 224.695  16
   4  -1   9 11229.8 642.645  16
   4  -1  10 1842.82 198.583  16
   4   0 -11 924.764 141.427   4
   4   0 -10 4624.00 388.753   4
   4   0  -9 19616.8 920.711   4
   4   0  -8 6478.42 574.983   4
   4   0  -7 6337.96 552.232   5
   4   0  -7 5850.88 565.528   4
   4   0  -6 4282.28 461.968   5
   4   0  -6 3900.17 462.697   4
   4   0  -6 3722.58 458.964  19
   4   0  -5 297.709 165.773  19
   4   0  -4 5957.84 482.615  19
   4   0  -3 381.829 119.521  19
   4   0  -2 3974.02 328.495  19
   4   0  -2 4004.08 374.500   2
   4   0  -1 10986.1 592.528   2
   4   0  -1 11131.3 491.215  19
   4   0   0 41797.1 1155.01   2
  -4   0   0 42005.0 885.420  17
   4   0   1 110634. 1924.46   2
   4   0   2 73869.4 1633.59   2
   4   0   3 4286.95 412.521   2
   4   0   4 294.597 147.873   7
   4   0   5 15001.8 951.220   7
   4   0   6 1906.03 340.394   7
   4   0   7 1480.32 288.185   7
   4   0   8 27031.8 1068.02  16
   4   0   9 10271.5 547.262  16
   4   1 -11 1105.91 164.429   4
   4   1 -10 3830.37 377.012   4
   4   1  -9 1351.73 254.691   4
   4   1  -8 4659.43 494.129   4
   4   1  -7 10291.5 730.870   5
   4   1  -7 9770.40 706.892   4
   4   1  -7 10724.8 796.938  19
   4   1  -6 7005.23 600.388   5
   4   1  -6 7105.73 588.696   4
   4   1  -6 6866.74 613.931  19
   4   1  -5 5212.60 506.723  19
   4   1  -4 9939.13 638.715  19
   4   1  -3 69339.0 1535.09  19
   4   1  -2 36248.7 1048.79  19
   4   1  -1 169891. 2416.85   2
  -4  -1   1 159109. 2017.17  17
   4   1   0 8334.33 536.997   2
  -4  -1   0 8649.43 481.680  17
   4   1   1 10.5564 93.3911   2
  -4  -1  -1 146.005 104.070  17
   4   1   2 3283.58 334.934   2
  -4  -1  -2 3689.59 370.481  17
   4   1   3 28491.9 1220.08   7
   4   1   4 11108.8 784.663  10
   4   1   4 9692.74 755.664   7
   4   1   5 1442.51 296.449   7
   4   1   6 37703.9 1449.73   7
   4   1   7 61761.4 1681.65   7
   4   1   8 17406.9 700.446   7
   4   1   9 853.101 136.230  16
   4   2 -11 1388.91 195.918   4
   4   2 -10 351.232 140.991   4
   4   2  -9 1286.69 251.246   4
   4   2  -8 1219.68 264.657   4
   4   2  -7 11991.7 770.654   4
   4   2  -6 76138.2 1869.80   4
   4   2  -6 77319.0 2051.49  19
   4   2  -5 7929.35 634.716   5
   4   2  -5 7199.73 596.996  19
   4   2  -4 7312.36 568.205  19
   4   2  -3 57850.3 1522.95  19
  -4  -2   2 80773.9 1682.24  17
  -4  -2   1 2409.93 292.557  17
  -4  -2   0 7199.94 520.340  17
  -4  -2  -1 1082.54 227.440  17
   4   2   2 10016.4 688.676   9
  -4  -2  -2 9351.17 683.331  17
   4   2   2 8452.56 655.214   7
   4   2   3 73.3748 130.034   7
   4   2   3 345.054 191.884  10
   4   2   3 201.320 144.981   9
   4   2   4 739.189 233.793   7
   4   2   4 441.627 203.185  10
   4   2   4 872.206 234.712   9
   4   2   5 933.541 254.398   7
   4   2   6 16046.2 886.212   7
   4   2   7-54.6231 99.5295   7
   4   2   8 27.6171 73.0440  16
   4   2   8 67.9510 60.2227   7
  -4  -3  11 68.4315 77.7071  13
   4   3 -11 105.585 69.7226  21
  -4  -3  10 467.458 160.942  13
   4   3 -10 736.189 156.073   8
   4   3 -10 608.117 160.549   4
   4   3  -9 4260.06 431.907   4
   4   3  -8 39741.4 1359.98   4
   4   3  -7 50428.9 1531.85   4
   4   3  -6 3173.90 378.189   4
   4   3  -6 2973.34 424.487  19
   4   3  -5-53.3311 80.1484  21
   4   3  -5-125.829 130.782  19
   4   3  -4 32645.0 1258.02  19
  -4  -3   4 30085.6 1219.96  17
  -4  -3   3 1763.68 292.617  17
  -4  -3   2 162.292 106.551  17
  -4  -3   1 1320.98 251.814  17
   4   3   0 993.568 227.049   7
  -4  -3   0 599.704 189.126  17
   4   3   1 417.471 154.657  11
   4   3   1 786.015 208.994   9
  -4  -3  -1 553.838 227.139  17
   4   3   2 476.571 159.673  11
   4   3   2 250.875 126.074  10
   4   3   2 214.105 135.502   9
  -4  -3  -2 396.396 186.359  17
   4   3   3 1989.23 348.968  10
   4   3   3 2820.05 380.191   9
   4   3   4 10433.2 732.823  10
   4   3   4 10459.2 760.370   7
   4   3   5 2497.09 370.912   7
   4   3   6 2638.25 326.200   7
   4   3   7-23.0702 77.4963   7
  -4  -4  11 973.993 142.500  13
   4   4 -11 1233.99 166.435  21
  -4  -4  10-0.41934 82.5516  13
   4   4 -10 34.3397 64.6981  21
   4   4 -10 36.5562 74.8427   8
  -4  -4   9 3287.37 363.338  13
   4   4  -9 3518.80 400.709  21
  -4  -4   8 7091.57 564.880  13
   4   4  -8 7700.20 618.317  21
   4   4  -7 836.704 214.428  21
   4   4  -7 973.498 223.390   4
   4   4  -6 7720.82 633.020  21
   4   4  -5 3315.41 400.808  21
   4   4  -4 6594.14 560.809  12
   4   4  -4 6229.19 545.213  21
  -4  -4   4 5569.46 565.520  17
   4   4  -3 4392.25 456.407  12
  -4  -4   3 3562.97 456.759  17
   4   4  -2 4657.25 464.012  12
   4   4  -2 4938.83 461.044   8
  -4  -4   2 4388.27 516.411  17
   4   4  -1 4822.93 478.518  12
   4   4  -1 5217.22 511.989  11
  -4  -4   1 4856.89 553.922  17
   4   4   0 10919.0 754.622  11
  -4  -4   0 10794.3 838.667  17
   4   4   1 132760. 2653.96  11
   4   4   1 137792. 2574.62   9
   4   4   2 21847.8 1079.16  11
   4   4   2 22705.4 1079.85  10
   4   4   2 25366.1 1084.69   9
   4   4   3 6183.47 554.709  10
   4   4   3 6328.58 586.243   7
   4   4   4 12107.6 728.877  10
   4   4   4 12571.5 771.195   7
   4   4   5-59.4314 86.5046   7
   4   4   6 74.6194 79.1989   7
   4   5 -10 3631.66 308.250  12
   4   5 -10 3257.31 299.526  21
   4   5 -10 3453.18 302.515   8
  -4  -5   9 2582.21 276.370  13
   4   5  -9 2923.74 331.665  21
   4   5  -8 1741.24 296.781  21
   4   5  -7 593.612 191.470  21
   4   5  -6 9819.30 714.606  12
   4   5  -6 9140.43 684.082  21
   4   5  -5 800.876 239.612  12
   4   5  -4 15335.7 898.054  12
   4   5  -3 13708.6 841.534  12
   4   5  -3 15434.7 833.579   8
   4   5  -2 8552.28 669.704  12
   4   5  -1 270140. 3775.30  11
   4   5   0 370.441 147.885   7
   4   5   0 351.285 136.763  11
   4   5   0 287.623 155.478   9
   4   5   1 1847.26 325.573   7
   4   5   1 1793.19 330.352  11
   4   5   1 2302.85 353.638  10
   4   5   1 2174.10 320.361   9
   4   5   2 4859.45 476.613  10
   4   5   2 5468.96 524.119   7
   4   5   3 7.94229 95.9241   7
   4   5   3 49.1115 141.709  10
   4   5   4 901.641 176.250   7
   4   5   5 6.65471 52.4525   7
   4   6  -9 908.025 176.417  12
   4   6  -9 845.376 170.101   8
   4   6  -8 1046.83 219.449  12
   4   6  -7 3501.53 389.570  12
   4   6  -6 2984.64 379.625  12
   4   6  -6 2730.91 357.162   8
   4   6  -5 4560.03 481.304  12
   4   6  -5 5041.28 465.099   8
   4   6  -4-121.436 129.627  12
   4   6  -3 12678.9 796.681  12
   4   6  -3 13702.8 840.358  11
   4   6  -2 622.223 225.002  11
   4   6  -1 998.448 240.513  11
   4   6  -1 1206.74 249.149   9
   4   6   0 282.280 146.855  11
   4   6   0 326.519 124.115  10
   4   6   0 41.1031 91.3997   9
   4   6   1 2262.96 300.565  10
   4   6   1 2774.95 321.395   7
   4   6   2-78.9285 94.5430   7
   4   6   2 82.9882 90.8650  10
   4   6   3 553.281 123.766   7
   4   7  -8-49.2505 60.6101  12
   4   7  -7 34.5335 83.8754  12
   4   7  -7 42.5003 86.8119  11
   4   7  -7 72.4714 65.7100   8
   4   7  -6 393.468 139.909  12
   4   7  -6 213.296 120.907  11
   4   7  -5 7319.45 514.473  12
   4   7  -5 7187.34 505.590  11
   4   7  -4 2157.45 293.246  11
   4   7  -3 5880.19 471.920  11
   4   7  -2-60.6285 106.498  11
   4   7  -2-233.067 108.919   9
   4   7  -1 331.824 115.926  11
   4   7  -1 343.851 111.840  10
   4   7   0 374.009 104.953  10
   5  -8   1 582.319 114.660   4
   5  -8   2 29.0683 55.2459   4
   5  -8   2 206.596 89.8433   3
   5  -8   3 498.421 124.369   4
   5  -8   4 7552.34 422.386   4
  -5   7   2 9051.33 476.436  20
   5  -7  -2 9684.78 506.561   4
   5  -7  -1 2120.20 279.297   4
   5  -7   0 3959.26 383.120   3
   5  -7   0 3419.53 376.207   4
   5  -7   1 1517.38 265.216   4
   5  -7   1 1908.14 270.991   3
   5  -7   2 4105.69 393.947   3
   5  -7   3 9194.26 576.068   3
   5  -7   4 1971.79 250.098   6
   5  -7   4 1503.23 218.965   3
   5  -7   5 182.741 97.1723   6
   5  -7   5-86.2591 84.7971   3
   5  -7   6 282.996 117.597   6
   5  -7   7 129.119 85.6245   6
  -5   6   4 14960.0 595.598  20
   5  -6  -4 16858.7 709.111   4
  -5   6   3 3766.44 375.663  20
   5  -6  -3 3378.99 362.768   4
   5  -6  -2 4129.14 422.938   3
   5  -6  -2 3711.42 417.029   4
   5  -6  -1 44.9339 117.024   4
   5  -6  -1-135.787 125.223   3
   5  -6   0 3361.81 412.393   3
   5  -6   0 3161.80 419.542   4
   5  -6   1 2410.87 335.126   3
   5  -6   2 4189.32 411.060   6
   5  -6   2 3950.68 427.735   3
   5  -6   3 712.734 174.613   6
   5  -6   4 146.907 113.809   6
   5  -6   5 656.661 196.214   6
   5  -6   6 1235.62 240.671   6
   5  -6   7-9.62572 91.1487   6
   5  -6   8 190.295 90.7641   6
   5  -5  -6 4331.20 316.347   4
   5  -5  -5 2820.50 333.667   4
  -5   5   4 2330.23 331.949  20
   5  -5  -4 2401.09 350.641   4
   5  -5  -3 381.293 177.244   4
   5  -5  -2 5.98010 119.919   4
   5  -5  -2-16.5473 167.044   3
   5  -5  -1 5264.30 517.560   3
   5  -5  -1 4111.06 492.944   4
   5  -5   0 16620.4 892.293   3
   5  -5   1 13258.9 772.809   6
   5  -5   1 14179.9 826.810   3
   5  -5   2 2945.61 369.505   6
   5  -5   3 70.4424 107.798   6
   5  -5   4 11202.5 689.182  15
   5  -5   5 2461.18 328.523  15
   5  -5   6 402.422 143.424  15
   5  -5   7 1332.36 228.574  15
   5  -5   8 1653.41 231.209   6
   5  -5   8 1374.01 206.704  15
   5  -5   9 5753.11 310.794   6
   5  -5   9 6420.70 330.703  15
   5  -4  -7 1140.72 187.348   4
   5  -4  -6 6621.66 519.086   4
   5  -4  -5 30593.2 1235.44   4
   5  -4  -4 7832.83 666.912   4
   5  -4  -3 4420.17 516.671   4
   5  -4  -2 7019.86 610.904   3
   5  -4  -2 5773.54 592.074   4
   5  -4  -1 30517.9 1328.58   4
   5  -4   0 5936.65 527.202   6
   5  -4   0 6020.20 527.321   2
   5  -4   1 2181.80 327.496   2
   5  -4   1 2285.83 340.050   6
   5  -4   1 2433.70 347.768   1
   5  -4   1 2632.96 377.226   7
   5  -4   2 370.718 173.653   2
   5  -4   2 452.455 188.982   6
   5  -4   2 84.6184 106.352   1
   5  -4   2 259.090 150.590   7
   5  -4   3 13978.6 851.367   7
   5  -4   4 6.34459 92.8409   7
   5  -4   4 34.9524 121.917  15
   5  -4   5 783.124 199.149   7
   5  -4   5 738.322 178.512  15
   5  -4   6 3709.59 401.358   7
   5  -4   6 3155.48 373.327  15
   5  -4   7 2552.70 342.417   6
   5  -4   7 2571.03 333.345  15
   5  -4   8 5508.58 417.015   6
   5  -4   8 5443.34 419.862  15
   5  -4   9 900.725 148.655  15
   5  -3  -8 1016.46 182.127   4
   5  -3  -7 15584.2 786.364   4
   5  -3  -6 238.689 178.934   4
   5  -3  -5 629.240 197.600   4
   5  -3  -4 508.373 201.182   4
   5  -3  -3-70.1046 135.813   4
   5  -3  -2 1829.72 293.356   2
   5  -3  -2 1779.61 327.631   4
   5  -3  -2 2304.88 331.289   6
   5  -3  -1 74.0512 85.2725   2
   5  -3  -1 366.574 155.830   4
   5  -3  -1 289.167 137.811   6
   5  -3  -1 482.355 170.784   7
   5  -3   0 10682.0 700.916   6
   5  -3   0 10250.0 700.991   8
   5  -3   0 9766.60 692.269   7
   5  -3   0 10466.1 693.404   2
   5  -3   1 3506.87 409.103   6
   5  -3   1 3126.68 404.635   8
   5  -3   1 3203.97 402.869   7
   5  -3   1 3112.99 386.190   2
   5  -3   2 11447.1 751.313   6
   5  -3   2 12542.7 800.520   7
   5  -3   2 12543.2 811.133   2
   5  -3   3 34458.8 1342.11   7
   5  -3   3 33846.4 1350.43   2
   5  -3   4 35007.3 1398.68   2
   5  -3   4 37438.2 1426.67   7
   5  -3   5 30575.3 1284.35   7
   5  -3   5 31247.5 1176.38  16
   5  -3   6 609.055 198.990   6
   5  -3   6 970.023 224.590  16
   5  -3   6 1274.94 262.656   7
   5  -3   6 810.700 201.213  15
   5  -3   7 15777.2 808.287   6
   5  -3   7 15629.5 831.182  16
   5  -3   7 14754.0 765.836  15
   5  -3   8 521.861 161.491  16
   5  -3   8 411.405 139.069  15
   5  -3   9 230.388 79.3881  15
   5  -2  -9 3072.04 275.443   4
   5  -2  -8 5104.63 439.332   4
   5  -2  -7 3674.97 424.058   4
   5  -2  -6 623.828 219.515   4
   5  -2  -6 766.500 219.053   5
   5  -2  -5 950.583 258.545   4
   5  -2  -4 4987.44 548.337   4
   5  -2  -3 36864.1 1287.82   6
   5  -2  -3 37690.0 1289.04   2
   5  -2  -3 35002.4 1409.45   4
   5  -2  -2 22083.8 991.084   6
   5  -2  -2 21111.3 966.444   2
   5  -2  -2 22423.0 997.830   7
   5  -2  -2 23945.9 1135.42   4
   5  -2  -1 69.8921 143.587   2
   5  -2   0 15787.8 836.834   2
   5  -2   1 100329. 2170.87   6
   5  -2   1 99522.2 2172.28   7
   5  -2   1 94638.0 2119.69   2
   5  -2   2 29444.0 1216.58   6
   5  -2   2 29659.0 1215.72   8
   5  -2   2 29900.1 1223.76   7
   5  -2   2 28415.4 1223.29   2
   5  -2   3 1113.84 265.334   2
   5  -2   3 927.881 233.229   6
   5  -2   3 1001.38 241.553   7
   5  -2   4 653.587 197.271   2
   5  -2   4 796.768 243.292   6
   5  -2   4 805.714 240.672   7
   5  -2   5 24573.2 1139.71   6
   5  -2   5 25087.8 1202.35   7
   5  -2   6 12188.1 766.584   6
   5  -2   6 14015.0 871.906   7
   5  -2   6 11534.8 741.753  16
   5  -2   7 324.362 143.772  16
   5  -2   7 317.964 138.784   7
   5  -2   8-0.39678 78.2725  15
   5  -2   8-192.738 114.458  16
   5  -2   9 163.959 79.8662  16
   5  -1 -10 2586.70 221.204   4
   5  -1  -9 444.750 134.637   4
   5  -1  -8 143.799 128.586   4
   5  -1  -7 2460.56 355.275   4
   5  -1  -7 2205.59 339.677   5
   5  -1  -6 1014.67 236.151   5
   5  -1  -6 841.820 238.225   4
   5  -1  -5 30889.6 1329.06   5
   5  -1  -5 34387.6 1330.99  19
   5  -1  -5 32042.4 1368.24   4
   5  -1  -4 52914.2 1710.60   4
   5  -1  -3 17676.3 887.175   2
   5  -1  -2 48.2553 103.543   2
   5  -1  -1 510.379 154.991   2
   5  -1   0 13954.3 788.509   2
   5  -1   1 8350.89 634.827   2
   5  -1   2 597.079 196.612   2
   5  -1   2 646.844 204.356   6
   5  -1   2 595.283 197.375   8
   5  -1   2 764.761 205.839   7
   5  -1   3 121.891 119.528   2
   5  -1   3-176.658 139.495   6
   5  -1   3 68.3239 138.014   8
   5  -1   3 222.258 149.234   7
   5  -1   4 961.870 270.293   2
   5  -1   4 789.154 221.813   6
   5  -1   4 1332.35 290.084   7
   5  -1   5 617.579 196.807   7
   5  -1   6 172.489 138.947  16
   5  -1   6 307.653 173.117   7
   5  -1   7 1400.18 261.404  16
   5  -1   7 1454.67 262.464   7
   5  -1   8 1815.71 240.731  16
   5  -1   9 258.722 80.1824  16
   5   0 -10 39.5868 81.6245   4
   5   0  -9 3551.77 367.667   4
   5   0  -8 221.557 133.389   4
   5   0  -7 451.734 191.408   5
   5   0  -7 385.780 158.930   4
   5   0  -6 162.191 113.953   5
   5   0  -6 269.047 146.613   4
   5   0  -5 26190.5 1210.43   5
   5   0  -5 28568.4 1161.04   8
   5   0  -5 28616.4 1230.86  19
   5   0  -5 29787.5 1264.34   4
   5   0  -4 12386.5 838.072   5
   5   0  -4 12213.7 773.185   8
   5   0  -4 12322.9 751.156  19
   5   0  -4 13287.6 825.412   4
   5   0  -3 42072.9 1265.54  19
   5   0  -2 6747.40 554.764   2
   5   0  -1 612.904 195.602   2
   5   0   0 6439.10 549.006   2
   5   0   1 12566.9 775.757   2
   5   0   2 3204.30 426.091   6
   5   0   2 3332.08 412.980   2
   5   0   2 2288.97 353.826   7
   5   0   3 2986.19 382.606   8
   5   0   3 3227.79 435.419   7
   5   0   4 13658.5 910.545   7
   5   0   5 6972.25 658.188   7
   5   0   6 2813.51 391.539   7
   5   0   6 2847.66 349.766  16
   5   0   7 4067.29 410.801   7
   5   0   7 4139.08 385.604  16
   5   0   8 692.140 133.305  16
   5   1 -11 329.282 75.0511   4
   5   1 -10 565.405 133.450   4
   5   1  -9 34.0770 90.1540   4
   5   1  -8 3750.78 424.976   4
   5   1  -7 5243.49 519.602   4
   5   1  -7 5404.89 497.656   8
   5   1  -6 16264.0 951.157   5
   5   1  -6 17273.2 937.961   4
   5   1  -6 16428.2 901.908   8
   5   1  -5 5415.55 553.600   5
   5   1  -5 6133.51 547.268   4
   5   1  -5 5596.95 551.792  19
   5   1  -5 5776.01 536.885   8
   5   1  -4-210.651 142.630   5
   5   1  -4-152.270 112.790  19
   5   1  -4 82.5315 113.293   8
   5   1  -3 1254.94 273.595   5
   5   1  -3 1508.67 262.280  19
   5   1  -3 1254.31 269.998   8
   5   1  -2 20360.5 957.897   8
  -5  -1   2 18138.0 790.876  17
   5   1  -1 783.626 233.033   2
   5   1  -1 790.251 203.280   8
   5   1   0 16150.5 945.242   9
   5   1   0 16980.3 859.274   8
   5   1   0 15293.0 850.238   2
   5   1   1-111.148 104.560   7
   5   1   1-31.8764 93.0791   2
   5   1   1-149.988 130.756   9
   5   1   1 53.0083 128.276   8
   5   1   2 21149.1 1100.94   9
   5   1   2 21048.2 956.535   8
   5   1   2 19803.6 1035.10   7
   5   1   3 91692.7 2314.25   9
   5   1   3 88478.7 2260.11   7
   5   1   4 5924.20 603.711   7
   5   1   5 9041.04 719.916   7
   5   1   6 1987.26 332.466   7
   5   1   7 4817.43 398.432   7
   5   1   7 4817.55 348.233  16
   5   2 -10 2962.80 286.207   4
   5   2 -10 3203.51 269.000  21
   5   2  -9 1670.16 245.527  21
   5   2  -9 1469.40 235.333   4
   5   2  -8 4601.59 457.600   4
   5   2  -8 4630.51 439.593   8
   5   2  -7 71096.4 1812.03   4
   5   2  -7 68453.5 1803.78   8
   5   2  -6 21335.0 986.569   4
   5   2  -6 18259.9 980.045   8
   5   2  -5 5980.54 579.238   5
   5   2  -5 7053.58 631.082  19
   5   2  -5 5696.38 550.657   8
   5   2  -4 18296.4 995.115   5
   5   2  -4 20796.1 1026.01  19
   5   2  -4 19617.2 993.657   8
   5   2  -3 23.9743 108.447   5
   5   2  -3 135.203 138.556   8
  -5  -2   3 150.035 114.358  17
   5   2  -2 49381.3 1538.55   5
   5   2  -2 51911.6 1528.90   8
  -5  -2   2 46754.0 1423.84  17
   5   2  -1-193.343 134.297   9
   5   2  -1-196.104 119.780   8
  -5  -2   1-26.4582 66.9510  17
   5   2   0 4658.31 513.300   9
   5   2   0 4491.20 452.897   8
   5   2   0 5898.45 533.611   7
   5   2   1 44656.5 1561.22   9
   5   2   1 46579.5 1393.19   8
   5   2   1 43197.9 1491.88   7
   5   2   2 308.503 158.953   7
   5   2   2 228.402 174.603   9
   5   2   3 3133.60 425.557   9
   5   2   3 2582.75 401.351   7
   5   2   4 198.461 155.604   7
   5   2   5 324.363 175.140   7
   5   2   6-97.5071 132.301   7
   5   2   7 214.902 91.3780   7
  -5  -3  10 122.047 67.7778  13
   5   3 -10 311.815 92.2331  21
  -5  -3   9 7990.18 517.091  13
   5   3  -9 8578.48 537.384   4
   5   3  -9 8498.76 521.470   8
   5   3  -9 8606.07 534.148  21
   5   3  -8 19266.0 890.545  21
   5   3  -8 20905.9 902.200   4
   5   3  -8 19739.9 920.563   8
   5   3  -7 1547.58 267.067  21
   5   3  -7 1610.49 299.897   8
   5   3  -7 1532.38 261.130   4
   5   3  -6 3187.55 413.133   8
   5   3  -5 9.30010 135.019   8
   5   3  -4 1118.85 255.971   8
   5   3  -3 817.878 220.811   8
  -5  -3   3 805.091 244.841  17
   5   3  -2 7282.43 575.160   8
  -5  -3   2 7434.21 631.446  17
   5   3  -1 436.386 148.945   9
   5   3  -1 466.299 167.108   8
  -5  -3   1 306.474 145.033  17
   5   3   0 1667.69 319.597   9
   5   3   0 2381.65 352.761   7
   5   3   1 1393.66 300.032   7
   5   3   1 1473.15 306.609   9
   5   3   2 2515.19 370.492   9
   5   3   2 2493.10 381.420   7
   5   3   3 2931.47 361.516  10
   5   3   3 2318.03 349.532   9
   5   3   3 2104.28 347.513   7
   5   3   4 2250.21 343.422   7
   5   3   5 180.109 111.484   7
   5   3   6 3080.80 279.518   7
   5   4 -10 171.181 69.3158   8
   5   4  -9 160.032 104.644  21
   5   4  -9-1.24039 88.4656   8
   5   4  -8 172.467 106.780  21
   5   4  -8 119.717 139.940   8
   5   4  -7 290.635 153.069  21
   5   4  -7 138.114 145.193   8
   5   4  -6 5325.56 496.760  21
   5   4  -6 4875.04 512.730   8
   5   4  -5 156.968 104.043   8
   5   4  -4 4126.44 463.824   8
   5   4  -3 9318.17 656.431   8
   5   4  -2 559.596 168.911   8
   5   4  -1 5709.97 557.092   9
   5   4   0 32280.5 1236.14  11
   5   4   0 34160.7 1294.76   7
   5   4   1 194.944 134.723   7
   5   4   1 362.963 177.526  10
   5   4   1 257.067 144.295   9
   5   4   2 88.7139 121.883   7
   5   4   2-181.742 128.396  10
   5   4   2 79.4809 102.956   9
   5   4   3 1026.10 227.204   7
   5   4   3 962.993 202.421  10
   5   4   4 8368.12 533.188   7
   5   4   5 20.0246 58.9852   7
   5   5  -9-2.01539 76.6538   8
   5   5  -8 841.916 158.497  12
   5   5  -8 933.356 205.914   8
   5   5  -7 897.473 192.758  12
   5   5  -7 740.470 194.944   8
   5   5  -6 13365.6 734.397  12
   5   5  -6 12566.8 752.381   8
   5   5  -5 26456.8 1057.83  12
   5   5  -5 23544.8 1026.70   8
   5   5  -4 261.032 113.527  12
   5   5  -4 528.249 172.613   8
   5   5  -3 2191.66 335.081  12
   5   5  -3 2039.81 304.369  11
   5   5  -3 2269.26 309.443   8
   5   5  -2 7869.37 592.843  11
   5   5  -2 6314.23 567.106   9
   5   5  -1 14018.4 784.441  11
   5   5  -1 12661.9 767.398   9
   5   5   0 1838.05 269.173  11
   5   5   0 2056.52 310.361   9
   5   5   1 4827.55 402.542  10
   5   5   1 4357.76 393.553   9
   5   5   1 4483.49 416.977   7
   5   5   2 9.91329 93.7011   7
   5   5   2 268.100 111.579  10
   5   5   3 28.3533 69.5762   7
   5   6  -8 892.584 145.594   8
   5   6  -7 1761.99 224.174  12
   5   6  -7 2008.21 235.237   9
   5   6  -7 1729.03 225.593   8
   5   6  -6 492.157 142.793  12
   5   6  -6 582.555 147.886   8
   5   6  -5 901.497 204.933  12
   5   6  -5 1064.54 176.024   8
   5   6  -4 13373.5 655.423  11
   5   6  -3 8676.32 537.295  11
   5   6  -3 7705.80 562.102   9
   5   6  -2 2130.41 264.669  11
   5   6  -2 2570.89 317.304   9
   5   6  -1 3304.28 329.608   9
   5   6   0 4028.17 310.924   9
   5   7  -5 119.898 65.1819   9
   5   7  -4 1009.66 159.987   9
   6  -7  -1 92.9983 61.7285   4
   6  -7   0 156.497 83.0755   4
   6  -7   1 8714.87 498.249   4
   6  -7   2 4070.73 349.358   4
   6  -7   3 106.172 82.2850   4
   6  -7   4 413.433 113.711   4
   6  -6  -3 489.143 130.945   4
   6  -6  -2 1065.73 193.594   4
   6  -6  -1 596.575 167.866   4
   6  -6   0 35.4936 93.0997   4
   6  -6   1 49.7548 81.9095   4
   6  -6   2 4859.53 399.554   6
   6  -6   2 4439.39 445.319   4
   6  -6   3 1229.47 237.813   4
   6  -6   3 1218.39 221.012   6
   6  -6   4-9.60276 79.0915   4
   6  -6   4 54.5027 111.903   6
   6  -6   5 174.757 120.197   6
   6  -6   6 6660.08 432.795   6
   6  -6   7 904.526 138.940   6
   6  -5  -5 103.955 72.3578   4
   6  -5  -4 29748.8 882.664   5
   6  -5  -4 29012.7 1001.66   4
   6  -5  -3 13708.2 764.723   4
   6  -5  -2 2327.12 334.433   4
   6  -5  -1-36.8296 102.207   4
   6  -5   0 28095.1 1043.74   6
   6  -5   0 24926.7 1155.06   4
   6  -5   1 117.065 114.010   4
   6  -5   1 308.722 136.179   6
   6  -5   2 79.3895 121.386   6
   6  -5   3 222.883 147.671   6
   6  -5   4 5963.99 522.181   6
   6  -5   5 2904.59 362.900   6
   6  -5   6 365.978 145.575   6
   6  -5   7 2712.22 277.635   6
   6  -4  -7 163.561 64.4549   4
   6  -4  -6 18282.8 712.811   4
   6  -4  -5 57859.8 1335.74   5
   6  -4  -5 53311.1 1451.45   4
   6  -4  -4 1493.41 286.036   4
   6  -4  -3 86.6191 105.906   4
   6  -4  -2 10846.8 781.871   4
   6  -4  -1 536.148 209.821   4
   6  -4  -1 909.667 224.767   6
   6  -4   0 381.395 186.940   4
   6  -4   0 107.016 95.2475   6
   6  -4   1 1642.42 323.671   4
   6  -4   1 1415.19 287.363   6
   6  -4   1 1217.53 264.788   7
   6  -4   2-41.8292 111.357   6
   6  -4   2 277.594 179.041   7
   6  -4   3 1560.84 296.544   6
   6  -4   3 2005.67 346.805   7
   6  -4   4 1938.54 337.122   6
   6  -4   4 2582.87 362.741   7
   6  -4   5 278.591 160.834   6
   6  -4   5 514.309 170.136   7
   6  -4   6 565.730 167.529   6
   6  -4   6 545.205 139.388   7
   6  -4   7 766.710 159.240   6
   6  -3  -8 645.485 108.283   4
   6  -3  -7 2968.64 294.593   4
   6  -3  -6 5611.74 428.155   5
   6  -3  -6 5022.46 451.370   4
   6  -3  -5 638.547 203.344   4
   6  -3  -5 886.679 216.507   5
   6  -3  -4 403.387 177.973   4
   6  -3  -3 440.693 188.790   4
   6  -3  -2 841.686 272.777   4
   6  -3  -2 826.292 214.542   6
   6  -3  -1 1154.31 267.193   4
   6  -3  -1 924.111 250.635   6
   6  -3  -1 943.562 252.516   8
   6  -3  -1 1045.50 257.225   7
   6  -3   0 519.853 162.271   4
   6  -3   0 644.471 201.938   6
   6  -3   0 474.507 199.357   7
   6  -3   1 4950.82 529.854   6
   6  -3   1 4534.78 498.449   7
   6  -3   2 9281.91 724.144   6
   6  -3   2 9600.56 721.187   7
   6  -3   3 26174.3 1212.19   6
   6  -3   3 27399.2 1241.10   7
   6  -3   4 4839.98 520.161   6
   6  -3   4 6186.46 587.372   7
   6  -3   5 4233.83 459.907   6
   6  -3   5 4624.01 494.728   7
   6  -3   6 82.1243 100.051   6
   6  -3   6 131.842 96.3436   7
   6  -3   7 1105.00 182.389   6
   6  -2  -8-20.9830 71.2540   4
   6  -2  -7 6725.71 454.821   5
   6  -2  -7 6460.81 495.072   4
   6  -2  -6 857.354 218.152   5
   6  -2  -6 765.611 220.600   4
   6  -2  -5 625.433 201.900   4
   6  -2  -5 907.392 237.426   5
   6  -2  -4 437.643 181.892   4
   6  -2  -3 1621.10 316.637   4
   6  -2  -2 8642.53 673.655   6
   6  -2  -2 8392.59 683.055   8
   6  -2  -2 9974.73 775.311   4
   6  -2  -2 9089.66 651.491   7
   6  -2  -1 242.308 140.414   6
   6  -2  -1 120.692 126.228   8
   6  -2  -1 21.7541 94.1672   7
   6  -2   0 56244.0 1770.33   6
   6  -2   0 60308.8 1864.90   8
   6  -2   0 55739.6 1679.88   7
   6  -2   0 61470.3 1836.33   2
   6  -2   1 52921.1 1740.90   6
   6  -2   1 53040.7 1756.01   8
   6  -2   1 53517.3 1669.44   7
   6  -2   2 169179. 3173.98   6
   6  -2   2 166745. 3085.53   8
   6  -2   2 166092. 3037.87   7
   6  -2   3 9780.16 766.271   6
   6  -2   3 10942.6 800.920   7
   6  -2   4 963.023 250.888   6
   6  -2   4 879.073 248.966   7
   6  -2   5 4972.61 504.267   6
   6  -2   5 5028.42 531.291   7
   6  -2   6 283.535 130.411   6
   6  -2   6-69.6549 116.620   7
   6  -2   7-196.511 95.6175   7
   6  -1  -9 2485.24 225.373   4
   6  -1  -8 14027.5 666.203   4
   6  -1  -7 644.394 184.592   5
   6  -1  -7 878.184 220.005   4
   6  -1  -6 172.148 145.704   5
   6  -1  -6 174.946 162.627   4
   6  -1  -5 1174.92 297.645   5
   6  -1  -5 1728.28 331.369   4
   6  -1  -4 282.660 166.000   4
   6  -1  -4-67.2330 176.116   5
   6  -1  -4 173.526 139.598   8
   6  -1  -3 25540.1 1177.98   8
   6  -1  -3 29557.7 1313.17   4
   6  -1  -2 27909.9 1235.55   6
   6  -1  -2 30326.8 1306.18   8
   6  -1  -2 29077.1 1265.38   2
   6  -1  -2 31750.6 1185.92   7
   6  -1  -1 6819.29 628.226   6
   6  -1  -1 7459.96 664.257   8
   6  -1  -1 7565.89 666.656   2
   6  -1  -1 6960.95 582.655   7
   6  -1   0 147302. 2895.79   6
   6  -1   0 144736. 2846.71   8
   6  -1   0 151293. 2948.88   2
   6  -1   0 139854. 2640.48   7
   6  -1   1 3087.69 446.041   6
   6  -1   1 3276.46 457.601   8
   6  -1   1 3315.57 450.058   2
   6  -1   1 2940.53 401.202   7
   6  -1   2 3467.88 467.121   6
   6  -1   2 3213.39 430.209   8
   6  -1   2 3163.47 426.200   7
   6  -1   3-65.2152 107.725   6
   6  -1   3 178.924 147.612   7
   6  -1   4 394.175 161.742   6
   6  -1   4-114.431 132.775   7
   6  -1   5-124.585 132.048   7
   6  -1   6-87.8493 114.412   7
   6  -1   7 126.768 84.4054   7
   6   0  -9 2197.37 237.922   4
   6   0  -8 410.545 133.582   4
   6   0  -7 619.260 187.495   5
   6   0  -7 673.678 193.836   4
   6   0  -6 3020.87 407.879   5
   6   0  -6 3911.07 404.429   8
   6   0  -6 3673.86 436.348   4
   6   0  -5 7251.22 658.824   5
   6   0  -5 8442.55 641.461   8
   6   0  -5 8474.00 667.142   4
   6   0  -4 4264.67 529.121   5
   6   0  -4 3868.70 453.441   8
   6   0  -3 12083.3 879.092   5
   6   0  -3 12545.3 830.496   8
   6   0  -2 104.045 140.584   5
   6   0  -2-94.2245 148.453   9
   6   0  -2-88.8688 186.723   8
   6   0  -1 2980.01 431.411   6
   6   0  -1 3400.06 470.540   5
   6   0  -1 3210.67 475.211   9
   6   0  -1 2848.90 416.273   8
   6   0  -1 3171.91 432.342   2
   6   0  -1 3196.18 388.268   7
   6   0   0 3265.10 455.093   6
   6   0   0 3552.89 502.691   9
   6   0   0 4648.67 506.871   8
   6   0   0 3629.91 470.054   2
   6   0   0 3296.09 399.593   7
   6   0   1 472.279 203.255   6
   6   0   1 41.2162 162.759   8
   6   0   1 116.787 128.228   7
   6   0   2 748.930 205.444   6
   6   0   2 472.609 204.083   8
   6   0   2 363.950 162.291   7
   6   0   3 616.726 195.780   6
   6   0   3 698.747 236.954   7
   6   0   4 299.409 168.071   7
   6   0   5 8155.58 638.285   7
   6   0   6 4861.94 434.722   7
   6   0   7 4978.58 338.675   7
   6   1  -9-35.9691 60.9706   4
   6   1  -8 47.2716 95.1510   4
   6   1  -7 295.769 133.471   8
   6   1  -7 569.628 188.276   4
   6   1  -6 908.470 243.524   5
   6   1  -6 1054.12 227.357   8
   6   1  -6 1084.39 230.111   4
   6   1  -5 26032.0 1227.40   5
   6   1  -5 24718.0 1115.83   8
   6   1  -4 156.353 123.905   5
   6   1  -4-39.1028 123.443   8
   6   1  -3 568.564 214.183   5
   6   1  -3 335.995 180.124   9
   6   1  -3 645.551 219.958   8
   6   1  -2 22959.6 1152.38   5
   6   1  -2 24415.2 1198.35   9
   6   1  -2 23589.8 1109.10   8
   6   1  -1 10603.6 815.507   9
   6   1  -1 9731.35 708.781   8
   6   1  -1 11939.7 729.510   7
   6   1   0 1392.43 316.123   9
   6   1   0 1562.21 305.675   8
   6   1   0 1077.83 232.735   7
   6   1   1 2257.07 396.257   9
   6   1   1 2217.69 334.751   8
   6   1   1 1940.27 328.024   7
   6   1   2 53.6390 153.724   9
   6   1   2-8.51751 103.857   8
   6   1   3 5542.95 557.049   7
   6   1   4 2096.53 335.721   7
   6   1   5 4182.67 427.176   7
   6   1   6 5717.62 413.754   7
   6   2  -9 1119.17 168.537   4
   6   2  -8 271.316 96.3005   8
   6   2  -8 322.163 112.896   4
   6   2  -7 37565.5 1219.36   8
   6   2  -6 15946.4 863.713   8
   6   2  -5 708.127 206.725   8
   6   2  -4 8212.44 646.242   9
   6   2  -4 6728.79 592.730   8
   6   2  -3 4693.85 515.601   9
   6   2  -3 4774.30 496.122   8
   6   2  -2 6249.36 611.598   9
   6   2  -2 6027.61 550.028   8
   6   2  -1 409.986 191.186   9
   6   2  -1 412.260 169.349   8
   6   2   0 2348.84 391.095   9
   6   2   0 2041.41 318.334   8
   6   2   0 2305.27 336.533   7
   6   2   1 3418.77 449.483   9
   6   2   1 3427.93 385.782   8
   6   2   1 3672.63 434.767   7
   6   2   2 15138.6 908.998   9
   6   2   2 13703.6 846.827   7
   6   2   3 4363.66 466.036   7
   6   2   4 3614.86 398.314   7
   6   2   5 85.6961 89.9558   7
   6   2   6 226.428 78.2595   7
   6   3  -9 1761.67 187.622   8
   6   3  -8 3095.45 316.530   8
   6   3  -7 542.967 176.265   8
   6   3  -6 386.267 161.498   8
   6   3  -5 5513.19 502.762   9
   6   3  -5 4767.99 479.371   8
   6   3  -4 128.109 118.218   9
   6   3  -4 241.225 142.626   8
   6   3  -3 1104.64 259.241   9
   6   3  -3 1747.30 296.771   8
   6   3  -2 6467.85 601.788   9
   6   3  -2 7075.62 572.497   8
   6   3  -1 5062.26 526.581   9
   6   3  -1 5638.17 494.151   8
   6   3   0 2746.41 397.319   9
   6   3   0 2895.15 339.139   8
   6   3   0 2617.79 343.802   7
   6   3   1 21369.2 1028.25   9
   6   3   1 21819.4 1006.12   7
   6   3   2 2440.38 348.830   9
   6   3   2 2526.37 343.156   7
   6   3   3 287.613 127.330   7
   6   3   4 715.366 154.232   7
   6   3   5 1979.18 191.595   7
   6   4  -9 408.917 89.7547   8
   6   4  -8 1719.91 228.182   8
   6   4  -7 2530.04 315.752   8
   6   4  -6 261.580 117.275   9
   6   4  -6 190.168 120.768   8
   6   4  -5 5180.92 481.818   9
   6   4  -5 5025.38 474.918   8
   6   4  -4 463.057 180.600   9
   6   4  -4 280.482 134.864   8
   6   4  -3 50.2622 110.648   9
   6   4  -3 195.056 142.445   8
   6   4  -2 108.738 124.664   9
   6   4  -2 31.8060 87.8688   8
   6   4  -1 26545.4 1112.36   9
   6   4   0 38553.3 1283.21   9
   6   4   1 9826.68 606.974   9
   6   4   1 11210.3 618.255   7
   6   4   2 1612.72 228.260   7
   6   4   3 126.861 64.6473   7
   6   5  -8 136.660 72.0259   8
   6   5  -7 2066.83 238.909   8
   6   5  -6 899.532 161.847   9
   6   5  -6 540.472 148.832   8
   6   5  -5-151.733 110.788   9
   6   5  -5 142.693 103.308   8
   6   5  -4 92.0543 111.722   9
   6   5  -4 84.1137 77.2153   8
   6   5  -3 5759.82 477.621   9
   6   5  -2 4696.09 427.566   9
   6   5  -1 10580.8 604.185   9
   6   5   0 860.528 171.123   9
   6   6  -5 498.628 109.519   9
   6   6  -4 1692.12 206.008   9
   6   6  -3 687.228 138.703   9
   7  -6  -1 1348.88 168.701   4
   7  -6   0 391.960 90.2754   4
   7  -6   1 2794.73 250.967   4
   7  -6   3 995.920 142.951   6
   7  -6   4 27.2536 63.1255   6
   7  -5  -4 3153.05 229.544   4
   7  -5  -3 129.810 66.9460   4
   7  -5  -3 38.6170 59.6567   5
   7  -5  -2 19.6990 68.1222   4
   7  -5  -1 6225.34 458.918   4
   7  -5   0 2647.85 311.947   4
   7  -5   1 2696.69 297.779   6
   7  -5   1 2777.47 305.750   4
   7  -5   2 171.111 104.564   6
   7  -5   3 37.7415 85.8752   6
   7  -5   4 9557.13 548.527   6
   7  -5   5 1678.97 216.978   6
   7  -5   6 1797.66 180.717   6
   7  -4  -5 445.550 112.481   4
   7  -4  -4 2499.58 279.408   5
   7  -4  -4 2721.79 298.126   4
   7  -4  -3 3694.24 374.899   4
   7  -4  -2 45.4859 93.0822   4
   7  -4  -1 1062.26 221.383   4
   7  -4   0 539.600 161.983   4
   7  -4   0 478.921 145.016   6
   7  -4   1 2876.76 370.614   6
   7  -4   2 7094.23 560.159   6
   7  -4   2 7237.05 573.008   7
   7  -4   3 975.634 229.173   6
   7  -4   3 1111.31 247.142   7
   7  -4   4 567.089 185.925   6
   7  -4   4 967.176 218.202   7
   7  -4   5 28.2448 86.9984   6
   7  -4   6 127.268 65.0550   6
   7  -3  -6 2282.83 205.589   5
   7  -3  -6 2855.48 260.637   4
   7  -3  -5 1273.50 218.391   5
   7  -3  -5 1534.29 230.004   4
   7  -3  -4 708.920 190.041   4
   7  -3  -4 534.303 189.799   5
   7  -3  -3-152.025 119.180   4
   7  -3  -2 1779.82 301.305   4
   7  -3  -1 1131.04 250.315   6
   7  -3   0 1250.56 257.702   6
   7  -3   0 1026.81 233.654   7
   7  -3   1 1424.64 284.152   6
   7  -3   1 1775.93 308.972   7
   7  -3   2 656.606 238.370   6
   7  -3   2 536.277 170.581   7
   7  -3   3 285.453 146.839   6
   7  -3   3 334.038 160.908   7
   7  -3   4 2027.28 302.091   6
   7  -3   4 2172.07 318.939   7
   7  -3   5 3425.35 342.864   6
   7  -3   5 3650.15 367.450   7
   7  -3   6 2329.61 223.750   6
   7  -3   6 2095.54 222.039   7
   7  -2  -7 80.5474 68.7548   4
   7  -2  -6 319.207 119.456   5
   7  -2  -6 471.114 136.081   4
   7  -2  -5 46.2490 96.0827   5
   7  -2  -5 113.660 89.4996   4
   7  -2  -4 2171.67 358.681   5
   7  -2  -4 2484.65 341.333   4
   7  -2  -3 15706.2 973.835   5
   7  -2  -3 15949.9 820.572   8
   7  -2  -3 17381.8 917.425   4
   7  -2  -2 9620.31 703.045   8
   7  -2  -1 1169.04 272.241   6
   7  -2  -1 1397.71 317.743   8
   7  -2  -1 1210.64 240.754   7
   7  -2   0 446.684 218.406   6
   7  -2   0 286.237 194.905   8
   7  -2   0 174.387 134.867   7
   7  -2   1 5355.21 560.681   6
   7  -2   1 4858.32 492.138   7
   7  -2   2 3899.49 476.204   6
   7  -2   2 4326.24 468.943   7
   7  -2   3 118.263 105.558   6
   7  -2   3 66.2812 161.252   7
   7  -2   4 926.420 236.766   6
   7  -2   4 1100.02 240.000   7
   7  -2   5 1946.60 248.756   6
   7  -2   5 2424.04 313.409   7
   7  -2   6 80.1901 68.0842   7
   7  -1  -7 264.327 97.3709   4
   7  -1  -6 66.8353 103.949   5
   7  -1  -6 100.006 88.2822   4
   7  -1  -5 2009.14 335.720   5
   7  -1  -5 2785.78 337.416   4
   7  -1  -4 11564.8 813.616   5
   7  -1  -4 11140.9 689.846   8
   7  -1  -3 251.112 192.854   5
   7  -1  -3 321.616 180.938   8
   7  -1  -2 144.483 133.438   5
   7  -1  -2 116.926 119.822   8
   7  -1  -2 104.017 121.114   7
   7  -1  -1 409.566 182.343   5
   7  -1  -1 489.843 231.261   8
   7  -1  -1 512.784 171.411   7
   7  -1   0 4259.31 516.334   6
   7  -1   0 4799.43 534.665   5
   7  -1   0 3987.72 498.645   8
   7  -1   0 3719.09 421.825   7
   7  -1   1 6402.92 617.018   6
   7  -1   1 5993.97 583.124   8
   7  -1   1 5647.78 525.503   7
   7  -1   2 330.956 196.372   6
   7  -1   2 329.868 151.067   7
   7  -1   3 213.572 142.202   6
   7  -1   3 196.709 140.507   7
   7  -1   4 378.199 174.380   7
   7  -1   5 2755.55 318.157   7
   7  -1   6 146.467 82.9991   7
   7   0  -8-77.5217 45.9827   4
   7   0  -7 132.897 67.4899   4
   7   0  -6-6.82235 100.523   5
   7   0  -6 54.4053 76.9500   8
   7   0  -5 369.196 182.920   5
   7   0  -5 418.510 139.186   8
   7   0  -4 12452.5 846.581   5
   7   0  -4 11477.5 737.869   8
   7   0  -3 15657.4 975.106   5
   7   0  -3 15817.1 911.378   8
   7   0  -2 16234.6 981.304   5
   7   0  -2 15444.3 909.250   8
   7   0  -1 3368.30 437.454   5
   7   0  -1 2773.94 400.693   8
   7   0  -1 2941.45 357.764   7
   7   0   0 4507.96 501.417   8
   7   0   0 4284.07 448.604   7
   7   0   1 42.6704 130.721   8
   7   0   1 56.4443 117.135   7
   7   0   2-8.21537 103.970   7
   7   0   3 5400.26 492.492   7
   7   0   4 6604.16 518.390   7
   7   0   5 303.093 119.359   7
   7   0   6 41.7612 46.3412   7
   7   1  -7 173.215 88.4384   8
   7   1  -6 46177.7 1254.04   8
   7   1  -5 102.476 107.176   8
   7   1  -4 3471.90 438.610   5
   7   1  -4 2714.77 367.386   8
   7   1  -3 102.951 144.852   5
   7   1  -3-12.8368 105.332   9
   7   1  -3-64.2790 116.733   8
   7   1  -2 4972.04 500.617   5
   7   1  -2 3437.70 451.862   9
   7   1  -2 3989.92 455.077   8
   7   1  -1 2665.57 418.447   9
   7   1  -1 2688.88 378.087   8
   7   1  -1 3598.39 384.701   7
   7   1   0 223.457 141.085   8
   7   1   0 37.1879 90.1885   7
   7   1   1 2492.81 328.929   8
   7   1   1 1917.71 294.657   7
   7   1   2 3997.69 415.033   7
   7   1   3 6995.70 523.711   7
   7   1   4 503.797 141.805   7
   7   1   5 1544.90 189.009   7
   7   2  -7 9116.80 482.526   8
   7   2  -6 88.2221 83.9368   8
   7   2  -5 186.908 137.342   8
   7   2  -4 241.063 156.610   9
   7   2  -4 130.492 130.401   8
   7   2  -3 846.527 217.573   9
   7   2  -3 1077.82 245.393   8
   7   2  -2 192.383 146.525   9
   7   2  -2 214.417 128.333   8
   7   2  -1 604.609 212.839   9
   7   2  -1 546.714 172.563   8
   7   2   0 245.682 147.015   9
   7   2   0 423.436 161.642   8
   7   2   0 417.085 136.395   7
   7   2   1 4486.80 380.094   8
   7   2   1 4896.51 426.443   7
   7   2   2 1085.07 207.297   7
   7   2   3 592.107 149.770   7
   7   2   4 64.7396 54.1435   7
   7   3  -7 13.4992 64.1683   8
   7   3  -6 57.3738 81.6395   8
   7   3  -5 14.7091 100.198   8
   7   3  -4 606.870 185.634   9
   7   3  -4 661.684 170.567   8
   7   3  -3 2435.91 327.628   9
   7   3  -3 2336.52 310.531   8
   7   3  -2 1818.47 295.627   9
   7   3  -2 1212.20 233.951   8
   7   3  -1 82.8376 133.665   9
   7   3  -1 129.089 81.9490   8
   7   3   0 1182.82 232.142   9
   7   3   1 8026.82 448.578   7
   7   3   2 152.792 75.8296   7
   7   4  -7 13.7009 47.9743   8
   7   4  -6 6.65912 66.1570   8
   7   4  -5 3677.16 284.864   9
   7   4  -5 3400.59 307.868   8
   7   4  -4 12151.0 600.788   9
   7   4  -4 13704.6 611.013   8
   7   4  -3 388.680 140.536   9
   7   4  -3 370.597 119.527   8
   7   4  -2 113.299 118.339   9
   7   4  -1 13639.0 654.691   9
   8  -4  -3 230.941 77.3611   5
   8  -4  -2 3.01094 63.6969   5
   8  -4  -1 288.216 109.008   5
   8  -4   0 113.513 92.9477   5
   8  -4   1 523.764 130.351   5
   8  -3  -4 352.146 114.586   5
   8  -3  -3 13.0916 81.6567   5
   8  -3  -2 1615.53 251.646   5
   8  -3  -1 6255.47 486.151   5
   8  -3   0 6619.51 481.650   5
   8  -3   1 460.315 134.492   5
   8  -3   2 26799.5 899.417   7
   8  -3   3 8022.50 468.829   7
   8  -2  -5 164.790 78.7202   5
   8  -2  -4 2179.90 274.705   5
   8  -2  -3 3417.61 362.352   5
   8  -2  -2-38.9911 117.148   5
   8  -2  -1-162.046 115.001   5
   8  -2   0 12535.6 659.411   5
   8  -2   0 11275.7 598.898   7
   8  -2   1 12388.7 637.731   7
   8  -2   2 4213.63 372.076   7
   8  -2   3 96.9679 103.268   7
   8  -2   4 23.7957 59.6999   7
   8  -1  -5 69.3592 74.8736   5
   8  -1  -4 208.071 121.720   5
   8  -1  -4 175.826 93.6078   8
   8  -1  -3 1113.01 229.187   5
   8  -1  -3 870.945 189.304   8
   8  -1  -2 1153.64 221.024   5
   8  -1  -2 1099.07 219.954   8
   8  -1  -1 228.963 116.917   5
   8  -1  -1 426.431 170.407   8
   8  -1  -1 459.674 128.953   7
   8  -1   0 1436.22 221.173   7
   8  -1   1 541.124 148.310   7
   8  -1   2 242.203 111.193   7
   8  -1   3 14.8141 78.8739   7
   8  -1   4 294.383 89.1806   7
   8   0  -5 172.896 68.4480   8
   8   0  -4 5612.49 411.819   8
   8   0  -3 109.139 104.255   5
   8   0  -3 126.327 105.351   8
   8   0  -2 2082.43 273.055   5
   8   0  -2 1964.89 288.909   8
   8   0  -1 3687.16 394.431   8
   8   0   0 889.970 203.317   8
   8   0   0 1008.52 172.937   7
   8   0   1 246.275 99.5710   7
   8   0   2 912.872 167.773   7
   8   0   3 270.330 87.4605   7
   8   1  -5 13320.0 563.769   8
   8   1  -4 1153.67 200.503   8
   8   1  -3 741.722 189.440   8
   8   1  -2 4070.23 383.690   8
   8   1  -1 1030.80 209.162   8
   8   1   0 448.072 136.588   8
   8   1   1 218.297 84.8522   7
   8   1   2 149.878 69.8430   7
   8   2  -5 315.492 96.7972   8
   8   2  -4 80.0303 72.6862   8
   8   2  -3 216.708 112.594   8
   8   2  -2-23.7659 94.9208   8
   8   2  -1 31.4066 65.9769   8
   8   3  -4 272.212 88.5441   8
   8   3  -3 293.499 80.5589   8
   0   0   0    0.00    0.00   0
TITL e0029_Rasul in P-1
REM P-1 (#2 in standard setting)
CELL 1.54184   7.123810   7.368279  10.063032 107.8239  94.9495  96.3215
ZERR    2.00   0.000450   0.000859   0.001138   0.0102   0.0071   0.0073
LATT  1
SFAC C H N O
UNIT 22.00 20.00 2.00 2.00
TREF
HKLF 4
END
;
_shelx_hkl_checksum              60640
_shelx_res_file
;
    II.res created by SHELXL-2014/8
TITL II in P-1
CELL 1.54184   7.1238   7.3683  10.0630 107.824  94.950  96.322
ZERR    2.00   0.0014   0.0015   0.0020   0.030   0.030   0.030
LATT  1
SFAC C H N O
UNIT 18 16 4 10
OMIT -4 140
ACTA
L.S. 4
BOND $H
FMAP 2
PLAN 20
MPLA 9 C1 C2 C3 C4 C5 C6 C7 O1 O2
MPLA 3 N1 C9 O3
MPLA 6 C1 C2 C3 C4 C5 C6
MPLA 3 N2 O4 O5
EQIV $1 +x, +y, +z
EQIV $2 -x+1, -y-1, -z
EQIV $3 -x+1, -y+2, -z+1
RTAB N1H1 N1 H1_$1
RTAB H1O3 H1 O3_$2
RTAB N1O3 N1 O3_$2
RTAB N1O3 N1 H1 O3_$2
RTAB O5O5 O5 O5_$3
CONF
WGHT    0.080000    0.108800
FVAR      21.51205
O1    4    0.072699   -0.103942    0.299553    11.00000    0.13004    0.04257 =
         0.06195    0.00611    0.02667   -0.01627
O2    4    0.191621   -0.006096    0.131788    11.00000    0.06030    0.03538 =
         0.04673    0.00320    0.01220    0.00971
O3    4    0.253193   -0.493147   -0.049099    11.00000    0.05794    0.03688 =
         0.07586   -0.00850   -0.00102    0.00701
O4    4    0.314739    0.823283    0.753829    11.00000    0.13148    0.05365 =
         0.05371   -0.00752    0.01885   -0.00856
O5    4    0.383289    0.920491    0.583927    11.00000    0.12617    0.03808 =
         0.07975    0.00794    0.01429   -0.00661
N1    3    0.463846   -0.247366    0.094530    11.00000    0.05430    0.03798 =
         0.07096   -0.00915   -0.00133    0.00987
N2    3    0.325830    0.794765    0.629622    11.00000    0.05151    0.03795 =
         0.05907    0.00298    0.00433    0.00606
C1    1    0.192459    0.227398    0.353056    11.00000    0.04028    0.03535 =
         0.04431    0.00728    0.00642    0.00925
C2    1    0.251968    0.375399    0.301293    11.00000    0.05104    0.03940 =
         0.04139    0.00944    0.00862    0.00970
AFIX  43
H2A   2    0.263376    0.348809    0.206087    11.00000   -1.20000
AFIX   0
C3    1    0.294506    0.563520    0.392034    11.00000    0.05219    0.03521 =
         0.05279    0.01391    0.00772    0.00775
AFIX  43
H3A   2    0.334192    0.664452    0.358990    11.00000   -1.20000
AFIX   0
C4    1    0.276221    0.596241    0.532295    11.00000    0.03859    0.03428 =
         0.04811    0.00316    0.00346    0.00782
C5    1    0.217052    0.452589    0.587115    11.00000    0.05038    0.04389 =
         0.04064    0.00602    0.00862    0.00625
AFIX  43
H5A   2    0.206540    0.479900    0.682500    11.00000   -1.20000
AFIX   0
C6    1    0.173912    0.266492    0.495196    11.00000    0.05302    0.03847 =
         0.04709    0.01158    0.01056    0.00452
AFIX  43
H6A   2    0.132136    0.166596    0.528690    11.00000   -1.20000
AFIX   0
C7    1    0.143335    0.022470    0.261530    11.00000    0.05267    0.03693 =
         0.04637    0.00803    0.00775    0.00601
C8    1    0.138044   -0.199261    0.034926    11.00000    0.05522    0.04023 =
         0.04667   -0.00115    0.00234    0.00878
AFIX  23
H8A   2    0.099894   -0.191624   -0.057878    11.00000   -1.20000
H8B   2    0.028457   -0.260437    0.064000    11.00000   -1.20000
AFIX   0
C9    1    0.293434   -0.323967    0.025120    11.00000    0.05258    0.03468 =
         0.04263    0.00271    0.00656    0.00534
H1    2    0.560913   -0.323426    0.082197    11.00000    0.05677
H2    2    0.488009   -0.126873    0.138109    11.00000    0.06200
HKLF 4
REM  II in P-1
REM R1 =  0.0496 for    1560 Fo > 4sig(Fo)  and  0.0562 for all    1859 data
REM    153 parameters refined using      0 restraints
END
WGHT      0.0800      0.1088
REM Highest difference peak  0.239,  deepest hole -0.286,  1-sigma level  0.049
Q1    1  -0.0382 -0.0521  0.2601  11.00000  0.05    0.24
Q2    1   0.3454  0.5652  0.4795  11.00000  0.05    0.18
Q3    1   0.1285  0.2460  0.4039  11.00000  0.05    0.17
Q4    1   0.2052  0.1372  0.3176  11.00000  0.05    0.17
Q5    1   0.2278  0.2394  0.4204  11.00000  0.05    0.16
Q6    1   0.5723  0.0041  0.0523  11.00000  0.05    0.15
Q7    1   0.0527 -0.3817  0.1215  11.00000  0.05    0.15
Q8    1   0.4843 -0.0865  0.2702  11.00000  0.05    0.14
Q9    1   0.6531 -0.0787  0.2577  11.00000  0.05    0.14
Q10   1   0.2426  0.2787  0.3339  11.00000  0.05    0.14
Q11   1   0.2516 -0.0167  0.2047  11.00000  0.05    0.13
Q12   1   0.2503  0.9233  0.6004  11.00000  0.05    0.13
Q13   1   0.2692  0.2237  0.0725  11.00000  0.05    0.13
Q14   1   0.2220  0.5856  0.4592  11.00000  0.05    0.13
Q15   1   0.2849 -0.4927  0.0394  11.00000  0.05    0.12
Q16   1   0.7169 -0.2849 -0.0247  11.00000  0.05    0.12
Q17   1  -0.0188 -0.2601  0.1255  11.00000  0.05    0.12
Q18   1   0.2782  0.5199  0.5612  11.00000  0.05    0.12
Q19   1   0.1787 -0.1303 -0.0444  11.00000  0.05    0.11
Q20   1   0.3973  0.3377  0.1249  11.00000  0.05    0.10
;
_shelx_res_checksum              1706
loop_
_space_group_symop_operation_xyz
'x, y, z'
'-x, -y, -z'
loop_
_atom_site_type_symbol
_atom_site_label
_atom_site_fract_x
_atom_site_fract_y
_atom_site_fract_z
_atom_site_U_iso_or_equiv
_atom_site_adp_type
_atom_site_calc_flag
_atom_site_occupancy
_atom_site_disorder_assembly
_atom_site_disorder_group
O O1 0.0727(3) -0.1039(2) 0.29955(18) 0.0820(6) Uani d 1 . .
O O2 0.19162(19) -0.00610(18) 0.13179(13) 0.0492(4) Uani d 1 . .
O O3 0.2532(2) -0.49315(19) -0.04910(17) 0.0635(5) Uani d 1 . .
O O4 0.3147(3) 0.8233(2) 0.75383(18) 0.0866(6) Uani d 1 . .
O O5 0.3833(3) 0.9205(2) 0.58393(19) 0.0852(6) Uani d 1 . .
N N1 0.4638(3) -0.2474(3) 0.0945(2) 0.0608(5) Uani d 1 . .
N N2 0.3258(2) 0.7948(2) 0.62962(19) 0.0526(4) Uani d 1 . .
C C1 0.1925(2) 0.2274(2) 0.35306(18) 0.0409(4) Uani d 1 . .
C C2 0.2520(3) 0.3754(3) 0.30129(19) 0.0443(4) Uani d 1 . .
H H2A 0.2634 0.3488 0.2061 0.053 Uiso calc 1 . .
C C3 0.2945(3) 0.5635(3) 0.3920(2) 0.0466(4) Uani d 1 . .
H H3A 0.3342 0.6645 0.3590 0.056 Uiso calc 1 . .
C C4 0.2762(2) 0.5962(2) 0.53229(19) 0.0425(4) Uani d 1 . .
C C5 0.2171(3) 0.4526(3) 0.58712(19) 0.0465(4) Uani d 1 . .
H H5A 0.2065 0.4799 0.6825 0.056 Uiso calc 1 . .
C C6 0.1739(3) 0.2665(3) 0.4952(2) 0.0466(4) Uani d 1 . .
H H6A 0.1321 0.1666 0.5287 0.056 Uiso calc 1 . .
C C7 0.1433(3) 0.0225(3) 0.2615(2) 0.0465(4) Uani d 1 . .
C C8 0.1380(3) -0.1993(3) 0.0349(2) 0.0509(5) Uani d 1 . .
H H8A 0.0999 -0.1916 -0.0579 0.061 Uiso calc 1 . .
H H8B 0.0285 -0.2604 0.0640 0.061 Uiso calc 1 . .
C C9 0.2934(3) -0.3240(2) 0.02512(19) 0.0455(4) Uani d 1 . .
H H1 0.561(3) -0.323(3) 0.082(2) 0.057(6) Uiso d 1 . .
H H2 0.488(3) -0.127(4) 0.138(3) 0.062(6) Uiso d 1 . .
loop_
_atom_site_aniso_label
_atom_site_aniso_U_11
_atom_site_aniso_U_22
_atom_site_aniso_U_33
_atom_site_aniso_U_12
_atom_site_aniso_U_13
_atom_site_aniso_U_23
O1 0.1300(16) 0.0426(9) 0.0620(10) -0.0163(9) 0.0267(10) 0.0061(7)
O2 0.0603(8) 0.0354(7) 0.0467(7) 0.0097(5) 0.0122(6) 0.0032(5)
O3 0.0579(8) 0.0369(7) 0.0759(10) 0.0070(6) -0.0010(7) -0.0085(7)
O4 0.1315(16) 0.0536(10) 0.0537(10) -0.0086(10) 0.0189(10) -0.0075(7)
O5 0.1262(16) 0.0381(8) 0.0797(12) -0.0066(9) 0.0143(11) 0.0079(8)
N1 0.0543(10) 0.0380(9) 0.0710(12) 0.0099(8) -0.0013(8) -0.0091(8)
N2 0.0515(9) 0.0380(9) 0.0591(10) 0.0061(7) 0.0043(7) 0.0030(7)
C1 0.0403(8) 0.0353(9) 0.0443(9) 0.0092(7) 0.0064(7) 0.0073(7)
C2 0.0510(10) 0.0394(9) 0.0414(9) 0.0097(7) 0.0086(7) 0.0094(7)
C3 0.0522(10) 0.0352(9) 0.0528(10) 0.0077(7) 0.0077(8) 0.0139(8)
C4 0.0386(8) 0.0343(9) 0.0481(10) 0.0078(7) 0.0035(7) 0.0032(7)
C5 0.0504(10) 0.0439(10) 0.0406(9) 0.0062(7) 0.0086(7) 0.0060(7)
C6 0.0530(10) 0.0385(9) 0.0471(10) 0.0045(7) 0.0106(8) 0.0116(8)
C7 0.0527(10) 0.0369(10) 0.0464(10) 0.0060(7) 0.0078(8) 0.0080(8)
C8 0.0552(11) 0.0402(10) 0.0467(10) 0.0088(8) 0.0023(8) -0.0011(8)
C9 0.0526(10) 0.0347(9) 0.0426(9) 0.0053(7) 0.0066(7) 0.0027(7)
loop_
_atom_type_symbol
_atom_type_description
_atom_type_scat_dispersion_real
_atom_type_scat_dispersion_imag
_atom_type_scat_source
C C 0.0181 0.0091 'International Tables Vol C Tables 4.2.6.8 and 6.1.1.4'
H H 0.0000 0.0000 'International Tables Vol C Tables 4.2.6.8 and 6.1.1.4'
N N 0.0311 0.0180 'International Tables Vol C Tables 4.2.6.8 and 6.1.1.4'
O O 0.0492 0.0322 'International Tables Vol C Tables 4.2.6.8 and 6.1.1.4'
loop_
_geom_angle_atom_site_label_1
_geom_angle_atom_site_label_2
_geom_angle_atom_site_label_3
_geom_angle_site_symmetry_1
_geom_angle_site_symmetry_3
_geom_angle
_geom_angle_publ_flag
C7 O2 C8 . . 115.74(15) ?
C9 N1 H1 . . 118.2(14) ?
C9 N1 H2 . . 120.2(16) ?
H1 N1 H2 . . 121(2) ?
O5 N2 O4 . . 122.58(18) ?
O5 N2 C4 . . 118.83(17) ?
O4 N2 C4 . . 118.52(17) ?
C2 C1 C6 . . 120.33(17) ?
C2 C1 C7 . . 122.69(16) ?
C6 C1 C7 . . 116.98(16) ?
C1 C2 C3 . . 119.85(17) ?
C1 C2 H2A . . 120.1 ?
C3 C2 H2A . . 120.1 ?
C4 C3 C2 . . 118.12(17) ?
C4 C3 H3A . . 120.9 ?
C2 C3 H3A . . 120.9 ?
C3 C4 C5 . . 123.50(16) ?
C3 C4 N2 . . 118.35(17) ?
C5 C4 N2 . . 118.14(17) ?
C4 C5 C6 . . 117.62(17) ?
C4 C5 H5A . . 121.2 ?
C6 C5 H5A . . 121.2 ?
C5 C6 C1 . . 120.57(17) ?
C5 C6 H6A . . 119.7 ?
C1 C6 H6A . . 119.7 ?
O1 C7 O2 . . 123.05(17) ?
O1 C7 C1 . . 124.14(17) ?
O2 C7 C1 . . 112.80(16) ?
O2 C8 C9 . . 114.12(15) ?
O2 C8 H8A . . 108.7 ?
C9 C8 H8A . . 108.7 ?
O2 C8 H8B . . 108.7 ?
C9 C8 H8B . . 108.7 ?
H8A C8 H8B . . 107.6 ?
O3 C9 N1 . . 123.64(18) ?
O3 C9 C8 . . 117.23(17) ?
N1 C9 C8 . . 119.14(16) ?
loop_
_geom_bond_atom_site_label_1
_geom_bond_atom_site_label_2
_geom_bond_site_symmetry_2
_geom_bond_distance
_geom_bond_publ_flag
O1 C7 . 1.190(2) ?
O2 C7 . 1.339(2) ?
O2 C8 . 1.445(2) ?
O3 C9 . 1.228(2) ?
O4 N2 . 1.213(2) ?
O5 N2 . 1.203(2) ?
N1 C9 . 1.320(3) ?
N1 H1 . 0.93(2) ?
N1 H2 . 0.85(3) ?
N2 C4 . 1.474(2) ?
C1 C2 . 1.387(3) ?
C1 C6 . 1.391(3) ?
C1 C7 . 1.492(3) ?
C2 C3 . 1.390(3) ?
C2 H2A . 0.9300 ?
C3 C4 . 1.378(3) ?
C3 H3A . 0.9300 ?
C4 C5 . 1.379(3) ?
C5 C6 . 1.383(3) ?
C5 H5A . 0.9300 ?
C6 H6A . 0.9300 ?
C8 C9 . 1.506(3) ?
C8 H8A . 0.9700 ?
C8 H8B . 0.9700 ?
loop_
_geom_hbond_atom_site_label_D
_geom_hbond_atom_site_label_H
_geom_hbond_atom_site_label_A
_geom_hbond_site_symmetry_A
_geom_hbond_distance_DH
_geom_hbond_distance_HA
_geom_hbond_distance_DA
_geom_hbond_angle_DHA
_geom_hbond_publ_flag
N1 H1 O3 2_645 0.93(2) 1.97(2) 2.898(2) 174(2) y
loop_
_geom_torsion_atom_site_label_1
_geom_torsion_atom_site_label_2
_geom_torsion_atom_site_label_3
_geom_torsion_atom_site_label_4
_geom_torsion_site_symmetry_1
_geom_torsion_site_symmetry_2
_geom_torsion_site_symmetry_3
_geom_torsion_site_symmetry_4
_geom_torsion
_geom_torsion_publ_flag
C6 C1 C2 C3 . . . . 0.4(3) ?
C7 C1 C2 C3 . . . . 179.61(16) ?
C1 C2 C3 C4 . . . . 0.2(3) ?
C2 C3 C4 C5 . . . . -0.4(3) ?
C2 C3 C4 N2 . . . . 178.47(15) ?
O5 N2 C4 C3 . . . . -1.2(3) ?
O4 N2 C4 C3 . . . . -178.06(18) ?
O5 N2 C4 C5 . . . . 177.72(18) ?
O4 N2 C4 C5 . . . . 0.8(3) ?
C3 C4 C5 C6 . . . . -0.1(3) ?
N2 C4 C5 C6 . . . . -178.96(15) ?
C4 C5 C6 C1 . . . . 0.8(3) ?
C2 C1 C6 C5 . . . . -0.9(3) ?
C7 C1 C6 C5 . . . . 179.83(16) ?
C8 O2 C7 O1 . . . . 5.0(3) ?
C8 O2 C7 C1 . . . . -176.52(14) y
C2 C1 C7 O1 . . . . -171.5(2) ?
C6 C1 C7 O1 . . . . 7.7(3) ?
C2 C1 C7 O2 . . . . 10.0(3) ?
C6 C1 C7 O2 . . . . -170.76(15) y
C7 O2 C8 C9 . . . . -95.53(19) y
O2 C8 C9 O3 . . . . 175.79(17) y
O2 C8 C9 N1 . . . . -4.7(3) ?

_cod_database_fobs_code 2243661
