#------------------------------------------------------------------------------
#$Date: 2019-10-24 07:13:17 +0300 (Thu, 24 Oct 2019) $
#$Revision: 219489 $
#$URL: file:///home/coder/svn-repositories/cod/cif/2/24/31/2243148.cif $
#------------------------------------------------------------------------------
#
# This file is available in the Crystallography Open Database (COD),
# http://www.crystallography.net/. The original data for this entry
# were provided by IUCr Journals, http://journals.iucr.org/.
#
# The file may be used within the scientific community so long as
# proper attribution is given to the journal article from which the
# data were obtained.
#
data_2243148
loop_
_publ_author_name
'Gotoh, Kazuma'
'Ishida, Hiroyuki'
_publ_section_title
;
 Crystal structures of the two isomeric hydrogen-bonded cocrystals
 2-chloro-4-nitrobenzoic acid--5-nitroquinoline (1/1) and
 5-chloro-2-nitrobenzoic acid--5-nitroquinoline (1/1)
;
_journal_coeditor_code           LH5931
_journal_issue                   11
_journal_name_full               'Acta Crystallographica Section E'
_journal_page_first              1694
_journal_page_last               1699
_journal_paper_doi               10.1107/S2056989019013896
_journal_volume                  75
_journal_year                    2019
_chemical_formula_iupac          'C7 H4 Cl N O4, C9 H6 N2 O2'
_chemical_formula_moiety         'C7 H4 Cl N O4, C9 H6 N2 O2'
_chemical_formula_sum            'C16 H10 Cl N3 O6'
_chemical_formula_weight         375.72
_chemical_name_systematic
;
5-Chloro-2-nitrobenzoic acid--5-nitroquinoline (1/1)
;
_space_group_crystal_system      triclinic
_space_group_IT_number           2
_space_group_name_Hall           '-P 1'
_space_group_name_H-M_alt        'P -1'
_symmetry_space_group_name_Hall  '-P 1'
_symmetry_space_group_name_H-M   'P -1'
_atom_sites_solution_hydrogens   mixed
_atom_sites_solution_primary     direct
_atom_sites_solution_secondary   difmap
_cell_angle_alpha                79.170(3)
_cell_angle_beta                 78.968(2)
_cell_angle_gamma                70.394(3)
_cell_formula_units_Z            2
_cell_length_a                   7.6682(6)
_cell_length_b                   8.6515(8)
_cell_length_c                   12.8609(10)
_cell_measurement_reflns_used    7062
_cell_measurement_temperature    190.0(10)
_cell_measurement_theta_max      30.05
_cell_measurement_theta_min      3.08
_cell_volume                     781.80(11)
_computing_cell_refinement
;
PROCESS-AUTO (Rigaku, 2006)
;
_computing_data_collection
;
PROCESS-AUTO (Rigaku, 2006)
;
_computing_data_reduction
;
PROCESS-AUTO (Rigaku, 2006)
;
_computing_molecular_graphics
;
ORTEP-3 for Windows (Farrugia, 2012) and Mercury (Macrae <i>et al.</i>,
2008)
;
_computing_publication_material
;
CrystalStructure (Rigaku, 2018) and PLATON (Spek, 2015)
;
_computing_structure_refinement
;
SHELXL2018 (Sheldrick, 2015<i>b</i>)
;
_computing_structure_solution
;
SHELXT2018 (Sheldrick, 2015<i>a</i>)
;
_diffrn_ambient_temperature      190.0(10)
_diffrn_detector_area_resol_mean 10.000
_diffrn_measured_fraction_theta_full 0.999
_diffrn_measured_fraction_theta_max 0.988
_diffrn_measurement_device_type  'Rigaku R-AXIS RAPID'
_diffrn_measurement_method       \w
_diffrn_radiation_type           'Mo K\a'
_diffrn_radiation_wavelength     0.71075
_diffrn_reflns_av_R_equivalents  0.0549
_diffrn_reflns_av_unetI/netI     0.0622
_diffrn_reflns_limit_h_max       10
_diffrn_reflns_limit_h_min       -10
_diffrn_reflns_limit_k_max       12
_diffrn_reflns_limit_k_min       -12
_diffrn_reflns_limit_l_max       16
_diffrn_reflns_limit_l_min       -18
_diffrn_reflns_number            9772
_diffrn_reflns_theta_full        25.242
_diffrn_reflns_theta_max         29.986
_diffrn_reflns_theta_min         3.078
_exptl_absorpt_coefficient_mu    0.287
_exptl_absorpt_correction_T_max  0.950
_exptl_absorpt_correction_T_min  0.933
_exptl_absorpt_correction_type   numerical
_exptl_absorpt_process_details
;
(NUMABS; Higashi, 1999)
;
_exptl_crystal_colour            colorless
_exptl_crystal_density_diffrn    1.596
_exptl_crystal_density_method    'not measured'
_exptl_crystal_description       block
_exptl_crystal_F_000             384.00
_exptl_crystal_size_max          0.260
_exptl_crystal_size_mid          0.200
_exptl_crystal_size_min          0.180
_refine_diff_density_max         0.417
_refine_diff_density_min         -0.386
_refine_ls_extinction_method     none
_refine_ls_goodness_of_fit_ref   1.086
_refine_ls_hydrogen_treatment    mixed
_refine_ls_matrix_type           full
_refine_ls_number_parameters     239
_refine_ls_number_reflns         4502
_refine_ls_number_restraints     0
_refine_ls_restrained_S_all      1.086
_refine_ls_R_factor_all          0.0758
_refine_ls_R_factor_gt           0.0517
_refine_ls_shift/su_max          0.000
_refine_ls_shift/su_mean         0.000
_refine_ls_structure_factor_coef Fsqd
_refine_ls_weighting_details
'w=1/[\s^2^(Fo^2^)+(0.0770P)^2^] where P=(Fo^2^+2Fc^2^)/3'
_refine_ls_weighting_scheme      calc
_refine_ls_wR_factor_gt          0.1320
_refine_ls_wR_factor_ref         0.1479
_reflns_number_gt                3075
_reflns_number_total             4502
_reflns_threshold_expression     'I > 2\s(I)'
_cod_data_source_file            lh5931sup1.cif
_cod_data_source_block           II
_cod_database_code               2243148
_shelx_space_group_comment
;
The symmetry employed for this shelxl refinement is uniquely defined
by the following loop, which should always be used as a source of
symmetry information in preference to the above space-group names.
They are only intended as comments.
;
_shelx_hkl_file
;
   0   0   2  425.27    6.90
   0   0  -2  943.93   17.70
   0   0   3   22.49    0.63
   0   0  -3   23.25    0.49
   0   0   4 1251.34   26.07
   0   0  -4 1230.73   25.58
   0   0   5 1235.11   26.24
   0   0  -5 1264.69   27.01
   0   0   6  691.53   14.07
   0   0  -6  689.59   13.70
   0   0   7  125.22    2.79
   0   0  -7  129.51    2.96
   0   0   8  142.41    2.91
   0   0  -8  145.11    3.47
   0   0   9  178.61    4.25
   0   0  -9  168.28    3.58
   0   0 -10   26.79    1.48
   0   0 -10   26.54    1.42
   0   0 -11  128.65    4.54
   0   0 -11  125.15    3.60
   0   0 -12  139.93    3.47
   0   0 -12  143.96    4.12
   0   0 -13   15.87    1.64
   0   0 -13   16.88    2.32
   0   0 -14    0.40    0.42
   0   0 -14    0.27    0.72
   0   0 -14    1.04    0.82
   0   0 -15   66.61    2.72
   0   0 -15   64.01    2.60
   0   0 -16    1.68    1.00
   0   0 -16    1.67    1.17
   0   1 -16    0.04    1.12
   0   1 -15   -0.21    1.19
   0   1 -14    7.10    0.96
   0   1 -14    6.19    1.92
   0   1 -13   82.00    3.17
   0   1 -12  164.66    4.81
   0  -1  12  174.80    5.23
   0   1 -11  213.48    5.98
   0  -1  11  199.85    5.54
   0   1 -10  120.97    3.72
   0  -1  10  116.19    3.56
   0   1  -9    2.14    0.86
   0  -1   9    1.50    0.74
   0   1  -8   31.46    1.14
   0  -1   8   28.51    1.43
   0   1  -7    1.73    0.69
   0  -1   7    2.57    0.61
   0   1  -6   37.74    1.48
   0  -1   6   35.09    1.27
   0   1  -5   19.52    1.02
   0  -1   5   20.19    0.99
   0   1  -4  195.56    4.04
   0  -1   4  176.92    3.21
   0   1  -3   15.87    0.88
   0  -1   3   15.02    0.55
   0   1  -2  147.94    2.65
   0  -1   2  148.48    2.44
   0   1  -1   72.23    1.24
   0  -1   1   86.04    1.36
   0   1   2   59.73    0.99
   0   1   2   60.15    1.00
   0  -1  -2   61.38    1.03
   0  -1  -2   61.66    1.04
   0   1   3  948.67   18.74
   0   1   3 1332.61   26.06
   0  -1  -3 1748.61   38.25
   0  -1  -3 1726.61   37.00
   0  -1  -4   18.65    0.66
   0  -1  -4   18.66    0.65
   0  -1  -4   18.74    0.94
   0  -1  -5  159.61    2.95
   0  -1  -5  166.56    3.11
   0  -1  -5  159.48    3.49
   0  -1  -6  639.22   12.34
   0  -1  -6  602.84   12.60
   0  -1  -7    3.11    0.32
   0  -1  -7    2.54    0.45
   0  -1  -7    2.07    0.67
   0  -1  -8   52.33    1.24
   0  -1  -8   44.74    1.92
   0  -1  -8   54.64    1.54
   0  -1  -9    1.24    0.55
   0  -1  -9    1.33    0.79
   0  -1  -9    1.22    0.35
   0  -1 -10   26.41    1.28
   0  -1 -10   25.38    1.93
   0  -1 -10   24.70    0.93
   0  -1 -11  100.35    2.85
   0  -1 -11  103.02    2.44
   0  -1 -11  104.53    3.01
   0  -1 -12   42.39    1.82
   0  -1 -12   44.90    1.97
   0  -1 -12   41.15    1.77
   0  -1 -13   18.23    1.41
   0  -1 -13   19.02    1.42
   0  -1 -13   20.01    2.24
   0  -1 -14    7.96    1.22
   0  -1 -14    5.92    1.16
   0  -1 -14    7.08    0.75
   0  -1 -15   38.00    2.15
   0  -1 -15   42.10    2.48
   0  -1 -16   22.23    3.07
   0  -1 -17   -0.42    1.51
   0   2 -16    7.22    1.77
   0   2 -15    0.44    1.04
   0  -2  15    0.16    0.53
   0   2 -14    6.33    2.18
   0  -2  14    3.98    1.51
   0   2 -13   60.01    3.78
   0  -2  13   46.09    2.80
   0   2 -12  108.76    4.17
   0  -2  12  105.50    3.96
   0   2 -11   18.28    1.87
   0  -2  11   15.37    1.62
   0  -2  10    7.17    1.25
   0   2  -9  115.18    3.71
   0  -2   9  106.94    3.37
   0   2  -8   36.99    1.41
   0  -2   8   36.28    1.86
   0   2  -7    6.39    0.72
   0  -2   7    6.13    0.65
   0   2  -6  232.49    4.93
   0  -2   6  216.99    4.53
   0   2  -5 1909.02   46.32
   0  -2   5 1790.05   42.66
   0   2  -4   59.55    1.88
   0  -2   4   53.15    1.28
   0   2  -3   58.91    1.89
   0  -2   3   58.03    1.78
   0   2  -2  150.97    3.23
   0  -2   2  149.23    2.79
   0   2  -1 5156.68  140.45
   0  -2   1 5328.07  147.01
   0   2   0  994.99   20.36
   0  -2   0 1016.51   20.48
   0   2   1 1449.34   31.12
   0  -2  -1 1389.33   29.54
   0   2   2  626.44   11.89
   0   2   2  644.45   12.58
   0  -2  -2  383.13    7.43
   0  -2  -2  459.24    7.92
   0   2   3   22.35    0.85
   0   2   3   21.05    1.02
   0  -2  -3   22.65    0.85
   0  -2  -3   20.51    1.02
   0   2   4 1480.71   33.25
   0   2   4 1459.99   31.54
   0  -2  -4 1437.36   30.48
   0  -2  -4 1458.69   32.53
   0   2   5   13.37    0.85
   0   2   5   14.94    0.50
   0  -2  -5   15.77    0.50
   0  -2  -5   14.00    1.00
   0   2   6 1977.98   48.12
   0  -2  -6 2006.78   46.34
   0  -2  -6 1991.26   48.17
   0  -2  -7    1.11    0.43
   0  -2  -7    1.12    0.40
   0  -2  -7    0.74    0.46
   0  -2  -8   76.19    1.92
   0  -2  -8   76.50    1.62
   0  -2  -8   79.62    2.73
   0  -2  -9   15.17    0.88
   0  -2  -9   17.64    1.61
   0  -2  -9   16.52    0.99
   0  -2 -10  116.99    2.93
   0  -2 -10  117.19    4.03
   0  -2 -10  118.17    3.00
   0  -2 -11   21.38    1.16
   0  -2 -11   23.23    1.27
   0  -2 -11   24.07    2.07
   0  -2 -12    1.77    0.73
   0  -2 -12    2.06    0.74
   0  -2 -12    1.88    1.28
   0  -2 -13    0.48    1.31
   0  -2 -13    1.16    0.72
   0  -2 -13    1.41    0.43
   0  -2 -14   29.80    1.76
   0  -2 -14   35.10    1.99
   0  -2 -14   30.30    1.69
   0  -2 -15   55.48    2.46
   0  -2 -15   69.26    2.91
   0  -2 -15   54.04    2.40
   0  -2 -16    0.27    1.33
   0  -2 -17    1.66    1.28
   0   3 -16    8.56    2.76
   0  -3  16    5.57    1.78
   0   3 -15    3.58    2.12
   0  -3  15    2.83    1.67
   0   3 -14    0.32    1.07
   0  -3  14    0.39    1.14
   0   3 -13   10.35    1.25
   0  -3  13   10.86    1.95
   0   3 -12    3.13    1.48
   0  -3  12    3.94    1.39
   0   3 -11   43.03    3.17
   0  -3  11   32.74    2.35
   0   3 -10    7.16    1.11
   0  -3  10    6.62    0.89
   0   3  -9   51.63    2.08
   0  -3   9   46.72    2.49
   0   3  -8   16.68    1.83
   0  -3   8   13.03    1.54
   0   3  -7    2.16    1.10
   0  -3   7    2.55    1.04
   0   3  -6   29.42    1.31
   0  -3   6   28.84    1.86
   0   3  -5   16.74    0.94
   0  -3   5   15.52    1.33
   0   3  -4  149.49    4.19
   0  -3   4  129.51    2.87
   0   3  -3    3.68    1.03
   0  -3   3    4.37    0.93
   0   3  -2  253.58    5.09
   0  -3   2  267.38    5.40
   0   3  -1  188.90    4.23
   0  -3   1  210.62    4.73
   0   3   0  126.45    2.58
   0  -3   0  146.27    3.10
   0   3   1    0.09    0.26
   0  -3  -1   -0.09    0.24
   0   3   2  514.73   10.65
   0   3   2  584.38   12.48
   0  -3  -2  497.80   10.06
   0   3   3   62.81    1.84
   0   3   3   64.57    1.69
   0  -3  -3   69.09    1.83
   0   3   4  171.20    3.51
   0   3   4  173.91    3.66
   0  -3  -4  166.71    3.68
   0  -3  -4  126.06    2.48
   0   3   5  243.93    5.59
   0   3   5  248.05    5.03
   0  -3  -5  257.01    4.81
   0  -3  -5  249.39    5.69
   0   3   6    9.47    1.07
   0   3   6    9.69    0.72
   0  -3  -6    9.34    0.70
   0  -3  -6   11.11    1.10
   0   3   7    3.43    0.40
   0  -3  -7  271.52    5.57
   0  -3  -7  267.84    6.43
   0   3   8    2.12    0.96
   0  -3  -8    1.82    0.93
   0  -3  -8    2.03    0.59
   0  -3  -9    2.51    1.10
   0  -3  -9    2.20    0.60
   0  -3  -9    2.96    0.66
   0  -3 -10    1.64    0.63
   0  -3 -10    1.95    0.69
   0  -3 -10    1.09    0.57
   0  -3 -11    1.32    0.66
   0  -3 -11    1.71    0.60
   0  -3 -11    2.11    0.76
   0  -3 -12   84.88    2.54
   0  -3 -12   87.99    2.66
   0  -3 -12   95.34    4.14
   0  -3 -13   48.85    1.98
   0  -3 -13   45.39    1.90
   0  -3 -13   55.71    3.34
   0  -3 -14    0.63    0.69
   0  -3 -14    0.38    0.69
   0  -3 -14    1.08    0.84
   0  -3 -15    0.52    0.88
   0  -3 -16    7.26    2.57
   0  -3 -17   49.78    4.63
   0   4 -15    2.99    3.00
   0  -4  15    1.27    1.64
   0   4 -14   22.25    3.45
   0  -4  14   13.84    2.48
   0   4 -13   12.30    1.77
   0  -4  13   10.96    2.01
   0   4 -12    2.46    1.83
   0  -4  12    2.11    1.50
   0   4 -11    0.69    1.24
   0  -4  11    1.64    1.33
   0   4 -10    0.72    1.20
   0  -4  10    1.53    1.26
   0   4  -9   15.14    1.34
   0  -4   9   14.15    1.81
   0   4  -8    4.30    0.98
   0  -4   8    4.73    1.45
   0   4  -7   -0.18    0.57
   0  -4   7    0.54    0.97
   0   4  -6   27.05    2.33
   0  -4   6   20.61    1.92
   0   4  -5   52.29    2.78
   0  -4   5   47.32    2.39
   0   4  -4  109.47    2.94
   0  -4   4  106.65    3.57
   0   4  -3    1.95    0.99
   0  -4   3    1.86    0.92
   0   4  -2   27.46    1.71
   0  -4   2   28.88    1.25
   0   4  -1   65.54    2.45
   0  -4   1   62.57    1.76
   0   4   0  567.55   13.04
   0  -4   0  456.11    9.98
   0   4   1  398.78    8.16
   0  -4  -1  423.34    8.70
   0   4   2   64.73    1.67
   0   4   2   76.26    2.07
   0  -4  -2   63.31    1.58
   0   4   3   10.29    0.75
   0   4   3   10.71    0.61
   0  -4  -3   11.46    1.05
   0   4   4    7.30    0.68
   0   4   4    6.65    0.88
   0  -4  -4    7.93    1.06
   0   4   5  252.04    6.15
   0   4   5  253.09    5.59
   0  -4  -5  265.67    5.81
   0   4   6   12.21    0.66
   0   4   6   13.05    0.91
   0  -4  -6   10.86    0.81
   0  -4  -6   13.20    1.34
   0   4   7   53.77    1.79
   0   4   7   53.91    1.78
   0  -4  -7   56.27    2.52
   0  -4  -7   57.56    1.92
   0   4   8   70.36    2.73
   0   4   8   79.34    2.21
   0  -4  -8   84.73    3.28
   0  -4  -8   89.97    2.51
   0   4   9    0.96    0.59
   0  -4  -9    0.70    0.61
   0  -4  -9    1.26    0.63
   0  -4 -10   16.37    1.08
   0  -4 -10   17.43    1.98
   0  -4 -10   16.75    1.15
   0  -4 -11   33.37    2.58
   0  -4 -11   31.60    1.48
   0  -4 -11   30.55    1.54
   0  -4 -12    1.28    0.62
   0  -4 -12    0.64    0.70
   0  -4 -12    1.42    0.81
   0  -4 -13   20.61    1.34
   0  -4 -13   21.47    1.48
   0  -4 -13   24.28    1.72
   0  -4 -14    0.77    0.63
   0  -4 -14    1.08    0.94
   0  -4 -14    1.27    0.78
   0  -4 -15   54.08    2.89
   0  -4 -16    0.77    1.07
   0  -4 -17    0.09    1.41
   0   5 -14    4.17    3.41
   0  -5  14    4.44    1.20
   0   5 -13    5.55    2.01
   0  -5  13    3.90    1.34
   0   5 -12    1.98    1.53
   0  -5  12    1.31    0.98
   0   5 -11    0.59    1.81
   0  -5  11    1.65    0.94
   0   5 -10   72.32    4.66
   0  -5  10   57.11    2.44
   0   5  -9    3.75    1.95
   0  -5   9    2.91    0.99
   0   5  -8   13.99    2.44
   0  -5   8   13.54    1.43
   0   5  -7   -0.42    1.22
   0  -5   7    0.07    0.82
   0   5  -6   13.99    2.29
   0  -5   6   12.28    1.90
   0   5  -5  127.41    3.82
   0  -5   5  113.79    4.26
   0   5  -4   25.06    2.37
   0  -5   4   23.51    2.22
   0   5  -3    0.27    0.59
   0  -5   3    0.60    0.97
   0   5  -2    5.70    1.54
   0  -5   2    6.06    0.92
   0   5  -1   11.62    1.66
   0  -5   1    9.87    1.00
   0   5   0  381.11    9.89
   0  -5   0  323.52    7.19
   0   5   1   21.29    1.41
   0  -5  -1   29.76    1.42
   0   5   2  123.25    3.46
   0   5   2  151.43    3.47
   0  -5  -2  159.92    3.81
   0   5   3   52.41    2.15
   0   5   3   52.38    2.41
   0  -5  -3   58.02    1.75
   0   5   4   24.45    1.21
   0   5   4   25.40    1.57
   0  -5  -4   25.89    1.75
   0   5   5   47.21    1.75
   0   5   5   48.25    2.05
   0  -5  -5   51.82    2.21
   0   5   6   72.42    3.05
   0   5   6   73.13    2.51
   0  -5  -6   79.74    2.70
   0   5   7    1.83    1.05
   0   5   7    1.28    0.75
   0  -5  -7    0.96    0.81
   0   5   8  117.33    3.28
   0   5   8  115.73    3.35
   0  -5  -8  140.06    4.12
   0  -5  -8  134.71    3.73
   0   5   9    4.07    0.80
   0   5   9    3.01    1.36
   0  -5  -9    4.29    0.94
   0  -5  -9    3.72    1.44
   0   5  10    1.01    1.09
   0  -5 -10    1.03    0.74
   0  -5 -10    1.02    0.69
   0   5  11    9.87    1.14
   0  -5 -11   13.25    2.10
   0  -5 -11   11.55    1.26
   0  -5 -12   10.88    0.87
   0  -5 -12   11.29    1.17
   0  -5 -12   10.81    1.45
   0  -5 -13    1.59    0.91
   0  -5 -13    0.99    0.69
   0  -5 -13    1.18    0.98
   0  -5 -14    7.25    1.54
   0  -5 -15   40.74    4.08
   0  -5 -16   31.20    2.76
   0   6 -13    2.67    1.98
   0  -6  13    3.29    2.30
   0   6 -12    5.08    2.07
   0  -6  12    5.75    2.32
   0   6 -11   10.85    3.53
   0  -6  11    8.34    2.45
   0   6 -10    8.97    3.22
   0  -6  10    6.98    2.01
   0   6  -9    2.06    2.28
   0  -6   9    1.22    0.98
   0  -6   8    1.53    1.04
   0   6  -7   48.44    4.15
   0  -6   7   37.48    2.12
   0   6  -6    1.34    1.06
   0  -6   6    1.29    0.84
   0   6  -5   59.43    2.84
   0  -6   5   46.97    2.23
   0   6  -4    8.93    2.24
   0  -6   4    6.97    1.92
   0   6  -3   18.08    1.60
   0  -6   3   18.46    2.31
   0   6  -2   27.56    2.63
   0  -6   2   20.53    2.33
   0   6  -1   22.64    1.69
   0  -6   1   20.09    2.17
   0   6   0    0.67    0.69
   0  -6   0    1.08    0.71
   0   6   1    0.33    0.47
   0  -6  -1    0.23    0.55
   0   6   2   71.41    2.35
   0   6   2   78.06    2.78
   0  -6  -2   82.33    2.67
   0   6   3   61.92    2.90
   0   6   3   56.90    2.21
   0  -6  -3   65.43    3.13
   0   6   4   17.05    1.13
   0   6   4   15.64    1.97
   0  -6  -4   18.36    1.92
   0   6   5    0.61    0.69
   0   6   5    0.81    0.88
   0  -6  -5    0.88    0.61
   0   6   6   94.31    3.11
   0   6   6   92.57    3.31
   0  -6  -6  108.74    3.91
   0   6   7  126.90    3.22
   0   6   7  117.29    4.63
   0  -6  -7  142.85    4.57
   0   6   8  107.24    3.41
   0   6   8  100.82    4.31
   0  -6  -8  116.54    3.80
   0   6   9    0.35    0.48
   0   6   9   -0.27    0.46
   0  -6  -9    0.08    0.38
   0   6  10   21.01    2.38
   0   6  10   18.09    1.37
   0  -6 -10   22.63    1.76
   0   6  11   14.51    1.42
   0  -6 -11   15.37    1.65
   0  -6 -11   17.65    1.58
   0   6  12    1.48    0.85
   0  -6 -12    2.26    1.03
   0  -6 -12    1.22    0.93
   0  -6 -13    9.11    1.51
   0  -6 -13    8.73    1.31
   0  -6 -13    8.75    1.27
   0  -6 -14   -0.03    1.04
   0  -6 -15    1.25    1.78
   0  -6 -16    1.34    1.97
   0   7 -12    1.72    1.63
   0  -7  12    2.14    1.36
   0   7 -11    4.95    3.04
   0  -7  11    3.95    2.01
   0   7 -10    4.54    2.85
   0  -7  10    3.92    2.01
   0   7  -9    1.41    2.19
   0  -7   9    1.88    2.00
   0   7  -8    1.25    2.01
   0  -7   8    1.27    1.16
   0   7  -7    3.55    2.31
   0  -7   7    4.28    1.27
   0   7  -6   15.36    1.98
   0  -7   6   11.91    1.64
   0   7  -5    8.71    1.65
   0  -7   5    6.77    2.17
   0   7  -4   26.17    3.29
   0  -7   4   21.86    2.79
   0   7  -3   10.97    1.57
   0  -7   3    7.98    1.38
   0   7  -2    2.01    1.75
   0  -7   2    1.28    0.91
   0   7  -1    4.29    1.14
   0  -7   1    4.68    1.66
   0   7   0    2.19    1.38
   0  -7   0    0.62    1.14
   0   7   1    2.52    1.43
   0  -7  -1    2.75    0.93
   0   7   2   60.13    2.76
   0   7   2   60.99    3.34
   0  -7  -2   63.25    2.55
   0   7   3   40.77    2.77
   0   7   3   44.50    2.15
   0  -7  -3   49.83    3.01
   0   7   4   41.28    3.12
   0   7   4   41.73    1.85
   0  -7  -4   43.46    1.98
   0   7   5   24.48    1.82
   0   7   5   27.65    2.24
   0  -7  -5   34.31    2.64
   0   7   6   54.78    3.52
   0   7   6   59.02    2.96
   0  -7  -6   64.71    3.45
   0   7   7   49.17    3.41
   0   7   7   51.33    2.77
   0  -7  -7   60.65    3.33
   0   7   8   18.49    1.61
   0   7   8   20.93    1.22
   0  -7  -8   26.56    1.60
   0   7   9    1.06    1.36
   0   7   9    0.89    0.88
   0  -7  -9    0.69    1.11
   0   7  10    7.94    2.17
   0   7  10   11.10    1.44
   0  -7 -10   14.98    2.01
   0   7  11   14.62    1.65
   0   7  11   11.26    0.86
   0  -7 -11   19.00    2.21
   0   7  12    0.05    0.61
   0  -7 -12    0.62    1.13
   0   8 -10    3.47    2.71
   0  -8  10    2.31    2.47
   0   8  -9    0.88    2.35
   0  -8   9    1.28    2.11
   0   8  -8    2.72    2.46
   0  -8   8    3.29    1.69
   0   8  -7   -1.26    2.07
   0  -8   7    0.09    0.78
   0   8  -6   22.96    2.45
   0  -8   6   19.54    3.28
   0   8  -5   40.64    2.84
   0  -8   5   38.37    3.90
   0   8  -4   62.89    4.94
   0  -8   4   51.91    2.90
   0   8  -3  130.52    6.52
   0  -8   3  115.19    4.39
   0   8  -2   49.69    2.87
   0  -8   2   49.26    3.99
   0   8  -1   60.89    4.42
   0  -8   1   62.34    2.97
   0   8   0    0.28    1.27
   0  -8   0    0.65    0.78
   0   8   1   26.37    1.81
   0  -8  -1   26.03    2.65
   0   8   2    6.83    1.36
   0   8   2   10.59    1.56
   0  -8  -2    7.94    1.31
   0   8   3   57.74    2.60
   0   8   3   60.18    4.16
   0  -8  -3   67.15    4.35
   0   8   4    7.69    2.45
   0   8   4   10.41    1.27
   0  -8  -4   11.99    1.59
   0   8   5   63.16    3.46
   0   8   5   61.39    4.12
   0  -8  -5   64.43    3.55
   0   8   6    1.81    0.97
   0   8   6    0.73    1.28
   0  -8  -6    2.02    0.84
   0   8   7   16.99    2.72
   0   8   7   17.14    1.42
   0  -8  -7   19.43    2.13
   0   8   8    2.03    1.24
   0   8   8    1.16    1.69
   0  -8  -8    2.01    1.48
   0   8   9    2.21    1.16
   0   8   9    0.02    1.64
   0  -8  -9    4.42    1.66
   0   8  10    0.49    0.54
   0   8  10   -0.58    0.58
   0  -8 -10    0.65    0.74
   0   8  11    7.59    1.50
   0   8  11    6.83    1.42
   0  -8 -11   10.75    1.34
   0   8  12   -0.50    1.81
   0  -8 -12    1.20    0.85
   0   8  13    0.93    1.65
   0   9  -9    0.46    2.02
   0  -9   9    0.11    1.05
   0   9  -8    0.10    1.65
   0  -9   8    1.20    1.61
   0   9  -7    1.54    2.46
   0  -9   7    1.97    2.21
   0   9  -6    0.27    1.81
   0  -9   6    0.01    1.06
   0   9  -5    1.75    1.46
   0  -9   5    1.23    1.24
   0   9  -4   21.04    2.45
   0  -9   4   18.64    3.43
   0   9  -3   -0.78    2.27
   0  -9   3    0.27    1.47
   0   9  -2    6.23    1.94
   0  -9   2    4.56    1.46
   0   9  -1    0.08    1.21
   0  -9   1    0.94    1.86
   0   9   0    2.37    1.22
   0  -9   0    2.36    1.30
   0   9   1   15.51    1.85
   0   9   1   14.73    1.99
   0  -9  -1   14.39    2.40
   0   9   2    0.69    1.61
   0   9   2    0.79    1.73
   0  -9  -2    0.74    0.79
   0   9   3    0.41    1.40
   0   9   3    0.29    1.54
   0  -9  -3   -0.59    1.41
   0   9   4   26.23    3.56
   0   9   4   23.00    2.88
   0  -9  -4   25.95    1.95
   0   9   5    0.09    1.28
   0   9   5    0.94    0.99
   0  -9  -5   -0.13    1.06
   0   9   6    0.98    0.99
   0   9   6    0.49    1.35
   0  -9  -6    1.06    1.79
   0   9   7    0.75    0.95
   0   9   7   -0.23    1.17
   0  -9  -7    0.53    0.99
   0   9   8    0.54    0.67
   0   9   8   -0.01    0.94
   0  -9  -8    0.61    1.61
   0   9   9   11.71    1.88
   0   9   9    0.16    2.57
   0  -9  -9   18.53    3.17
   0   9  10   28.78    1.75
   0   9  10   29.73    3.70
   0  -9 -10   30.12    2.50
   0   9  11   18.31    2.24
   0   9  11   19.22    3.30
   0  -9 -11   18.87    2.15
   0   9  12    0.20    1.82
   0  10  -6    2.30    4.50
   0 -10   6    1.51    1.42
   0  10  -5    4.08    2.80
   0 -10   5   -0.65    2.11
   0  10  -4    4.88    2.77
   0 -10   4    4.84    1.78
   0  10  -3    8.77    4.61
   0 -10   3    6.99    2.99
   0  10  -2   19.36    2.39
   0 -10   2   25.72    3.86
   0  10  -1    2.34    2.28
   0 -10   1    1.66    1.29
   0  10   0   10.00    2.09
   0  10   0   12.10    1.96
   0 -10   0    9.94    2.87
   0  10   1    4.31    2.67
   0  10   1    4.12    2.44
   0 -10  -1    4.90    1.73
   0  10   2    5.32    1.74
   0  10   2    7.06    1.87
   0 -10  -2    5.15    2.73
   0  10   3   54.14    3.61
   0  10   3   51.15    3.09
   0 -10  -3   45.12    3.55
   0  10   4   20.24    3.13
   0  10   4   22.01    2.68
   0 -10  -4   17.99    1.66
   0  10   5   17.77    2.99
   0  10   5   17.72    2.33
   0 -10  -5   16.18    2.40
   0  10   6    4.25    1.57
   0  10   6    4.40    1.95
   0 -10  -6    3.06    1.95
   0  10   7    2.26    1.97
   0  10   7    3.28    1.57
   0 -10  -7    3.07    1.17
   0  10   8    0.14    1.81
   0  10   8    8.56    1.29
   0 -10  -8    9.47    1.46
   0  10   9    4.98    2.18
   0  10   9   11.14    1.84
   0 -10  -9   11.86    2.40
   0  10  10    0.11    1.41
   0  10  10    0.08    0.99
   0 -10 -10    1.42    1.56
   0  11  -2    0.92    2.39
   0 -11   2    0.36    1.93
   0  11  -1    0.31    1.26
   0  11  -1    0.70    1.31
   0 -11   1    0.26    1.09
   0  11   0   -0.53    2.02
   0  11   0   -0.23    2.21
   0 -11   0    0.87    2.02
   0  11   1    0.02    1.49
   0  11   1   -1.60    1.53
   0 -11  -1    0.04    0.83
   0  11   2   -0.09    1.93
   0  11   2    1.53    2.32
   0 -11  -2   -0.01    1.13
   0  11   3    2.74    2.33
   0  11   3    0.91    3.04
   0 -11  -3    2.96    1.71
   0  11   4   -0.42    2.08
   0  11   4    0.49    1.48
   0 -11  -4    1.39    1.48
   0  11   5    3.79    2.88
   0  11   5    2.99    1.48
   0 -11  -5    3.39    2.72
   0  11   6    1.59    2.29
   0  11   6    1.25    1.08
   0 -11  -6    0.65    1.32
   0  11   7    0.14    1.82
   0  11   7    4.29    1.42
   0 -11  -7    3.84    1.11
   1 -11  -3    2.04    1.16
  -1  11   3    2.72    1.58
  -1  11   3    0.37    3.13
   1 -11  -2    1.34    1.77
  -1  11   2    2.51    2.63
  -1  11   2    0.32    2.21
   1 -11  -1    1.04    1.66
  -1  11   1   -0.96    2.17
  -1  11   1    1.89    1.60
   1 -10  -9    0.75    2.49
  -1  10   9    0.65    1.39
  -1  10   9    0.09    1.69
   1 -10  -8   -0.10    1.87
  -1  10   8    0.83    0.91
  -1  10   8   -0.09    1.14
   1 -10  -7    2.29    1.84
  -1  10   7    1.14    1.00
  -1  10   7    0.04    1.25
   1 -10  -6   28.18    3.28
  -1  10   6   13.71    2.24
  -1  10   6   22.06    2.18
   1 -10  -5    4.57    3.41
  -1  10   5    1.71    1.48
  -1  10   5    2.79    1.22
   1 -10  -4    6.67    2.66
  -1  10   4    5.90    2.80
  -1  10   4    8.56    2.07
   1 -10  -3    6.08    1.66
  -1  10   3    4.61    1.78
  -1  10   3    4.57    2.46
   1 -10  -2    3.69    2.00
  -1  10   2    4.96    2.52
  -1  10   2    4.57    1.82
   1 -10  -1    1.59    1.09
  -1  10   1    1.05    2.09
  -1  10   1    1.18    1.28
   1 -10   0   -0.84    1.63
  -1  10   0   -0.06    1.91
  -1  10   0    0.33    1.05
   1 -10   1   -0.21    1.16
  -1  10  -1   -1.17    1.52
   1 -10   2    3.40    2.57
  -1  10  -2    1.50    2.41
   1 -10   3   -0.98    1.33
  -1  10  -3    0.30    1.20
   1 -10   4    1.67    2.43
  -1  10  -4    1.64    2.52
   1 -10   5    1.77    2.51
  -1  10  -5    1.41    2.44
   1  -9 -11   16.37    2.04
  -1   9  11   11.75    1.28
  -1   9  11    7.42    2.82
   1  -9 -10    2.35    1.31
  -1   9  10    1.14    1.36
  -1   9  10    0.25    1.65
   1  -9  -9    3.06    1.36
  -1   9   9    1.33    1.40
  -1   9   9    0.08    1.66
   1  -9  -8    1.52    1.93
  -1   9   8    1.58    1.45
  -1   9   8   -0.02    1.75
   1  -9  -7    4.03    1.87
  -1   9   7    0.23    1.27
  -1   9   7    3.30    1.08
   1  -9  -6   13.84    1.57
  -1   9   6   13.33    1.75
  -1   9   6   14.16    1.77
   1  -9  -5    4.52    1.99
  -1   9   5    4.05    2.29
  -1   9   5    3.88    1.21
   1  -9  -4   46.50    4.90
  -1   9   4   35.10    4.06
  -1   9   4   31.04    2.33
   1  -9  -3   -0.18    1.05
  -1   9   3    0.87    1.78
  -1   9   3    0.85    1.00
   1  -9  -2   -0.02    1.00
  -1   9   2    0.78    1.56
  -1   9   2    0.28    1.67
   1  -9  -1    7.77    1.60
  -1   9   1    4.75    2.52
  -1   9   1    7.24    1.62
   1  -9   0   -0.11    1.12
  -1   9   0   -0.42    1.10
   1  -9   1    1.37    1.04
  -1   9  -1    0.28    1.58
   1  -9   2    0.77    1.24
  -1   9  -2    1.10    1.24
   1  -9   3    0.32    1.82
  -1   9  -3    1.40    2.04
   1  -9   4    2.03    1.38
  -1   9  -4    2.14    1.42
   1  -9   5    0.33    1.05
  -1   9  -5    0.46    1.83
   1  -9   6   -0.11    1.51
  -1   9  -6    1.39    3.40
   1  -9   7    0.15    1.02
  -1   9  -7    1.67    3.73
   1  -9   8   -0.05    0.88
  -1   9  -8   -0.99    2.35
  -1   8  13    0.55    1.32
  -1   8  12    4.61    2.12
  -1   8  11    0.49    0.93
  -1   8  11    0.61    1.47
   1  -8 -10   42.40    4.24
  -1   8  10   26.02    2.52
  -1   8  10   24.23    2.05
   1  -8  -9    1.81    1.97
  -1   8   9    0.02    1.24
  -1   8   9    0.42    1.02
   1  -8  -8   14.91    1.92
  -1   8   8    0.06    2.04
  -1   8   8    7.70    1.72
   1  -8  -7   16.27    3.08
  -1   8   7   14.04    1.41
  -1   8   7   11.38    1.66
   1  -8  -6   19.41    2.87
  -1   8   6   14.70    1.56
  -1   8   6   13.05    1.63
   1  -8  -5  159.18    5.26
  -1   8   5  126.38    6.00
  -1   8   5  136.55    4.28
   1  -8  -4   48.40    4.00
  -1   8   4   44.80    3.71
  -1   8   4   42.14    3.47
   1  -8  -3   29.09    2.00
  -1   8   3   26.85    2.04
  -1   8   3   25.47    1.92
   1  -8  -2    2.23    2.10
  -1   8   2    2.78    1.13
  -1   8   2    2.43    1.18
   1  -8  -1  166.14    5.84
  -1   8   1  139.76    4.87
   1  -8   0    5.32    1.38
  -1   8   0    7.48    2.45
   1  -8   1   28.36    3.35
  -1   8  -1   25.40    3.38
   1  -8   2   26.30    1.98
  -1   8  -2   25.43    2.22
   1  -8   3    5.32    1.58
  -1   8  -3    5.02    2.35
   1  -8   4   10.15    2.65
  -1   8  -4   11.69    2.14
   1  -8   5   -0.13    1.32
  -1   8  -5   -0.49    1.30
   1  -8   6    0.43    0.99
  -1   8  -6    1.60    2.69
   1  -8   7   37.01    2.81
  -1   8  -7   38.55    4.67
   1  -8   8   12.49    3.10
  -1   8  -8   13.46    3.69
   1  -8   9    0.10    1.41
  -1   8  -9    1.98    1.56
   1  -8  10   12.15    4.02
  -1   8 -10   20.48    2.65
   1  -7 -13    0.72    1.31
   1  -7 -12   87.44    4.38
  -1   7  12   59.31    3.89
   1  -7 -11   19.84    2.45
  -1   7  11    6.79    0.91
  -1   7  11   13.22    1.58
   1  -7 -10   25.60    1.73
  -1   7  10   21.30    2.62
  -1   7  10   23.50    1.36
   1  -7  -9   41.84    2.10
  -1   7   9   35.45    2.97
  -1   7   9   35.65    2.46
   1  -7  -8   15.43    2.24
  -1   7   8   13.36    1.23
  -1   7   8   12.77    1.43
   1  -7  -7   12.03    2.34
  -1   7   7    9.57    1.76
  -1   7   7    6.38    1.99
   1  -7  -6   66.81    2.89
  -1   7   6   55.02    3.30
  -1   7   6   52.39    2.38
   1  -7  -5  185.22    6.93
  -1   7   5  148.03    4.27
  -1   7   5  138.26    5.66
   1  -7  -4    0.67    0.86
  -1   7   4    0.26    1.15
  -1   7   4    0.61    0.74
   1  -7  -3    2.72    1.04
  -1   7   3    1.75    0.91
  -1   7   3    1.90    1.42
   1  -7  -2   -0.03    0.91
  -1   7   2    0.51    0.96
  -1   7   2   -0.05    0.64
   1  -7  -1   20.03    1.69
  -1   7   1   17.80    2.45
   1  -7   0    0.93    0.96
  -1   7   0    0.37    0.75
   1  -7   1   20.76    2.68
  -1   7  -1   17.49    1.68
   1  -7   2    2.28    1.77
  -1   7  -2    3.36    1.83
   1  -7   3  107.48    3.68
  -1   7  -3  115.51    4.11
   1  -7   4    0.26    0.84
  -1   7  -4   -0.07    1.19
   1  -7   5   23.21    1.99
  -1   7  -5   22.94    2.13
   1  -7   6   10.93    2.53
  -1   7  -6   10.78    1.75
   1  -7   7    5.29    2.20
  -1   7  -7    7.66    2.63
   1  -7   8    0.50    1.50
  -1   7  -8    0.75    1.78
   1  -7   9   -0.43    1.48
  -1   7  -9    1.26    1.94
   1  -7  10    0.95    1.28
  -1   7 -10   -0.70    1.84
   1  -7  11   -0.04    0.78
  -1   7 -11    0.26    1.59
   1  -7  12   -0.12    0.75
  -1   7 -12    1.03    2.17
   1  -6 -13    0.24    0.48
   1  -6 -13   -0.36    0.80
   1  -6 -12   28.11    2.32
   1  -6 -11    1.60    0.74
  -1   6  11    1.19    0.77
   1  -6 -10    0.53    0.60
  -1   6  10    0.36    0.44
  -1   6  10   -0.05    1.05
   1  -6  -9    0.25    0.86
  -1   6   9    0.68    0.63
  -1   6   9   -0.03    0.85
   1  -6  -8   10.04    1.75
  -1   6   8    8.05    1.72
  -1   6   8    8.58    1.45
   1  -6  -7    9.30    1.19
  -1   6   7    9.45    1.62
  -1   6   7    8.50    1.15
   1  -6  -6 1046.24   27.23
  -1   6   6  904.64   24.28
  -1   6   6  953.33   24.72
   1  -6  -5    0.49    0.68
  -1   6   5   -0.09    0.55
  -1   6   5    0.70    0.86
   1  -6  -4  177.20    6.02
  -1   6   4  153.42    4.15
  -1   6   4  148.28    5.21
   1  -6  -3   57.03    3.34
  -1   6   3   46.80    2.84
  -1   6   3   51.73    2.84
   1  -6  -2   29.20    1.73
  -1   6   2   25.40    2.32
   1  -6  -1   84.49    2.96
  -1   6   1   81.75    3.86
   1  -6   0   73.75    2.79
  -1   6   0   71.90    3.71
   1  -6   1  254.86    6.61
  -1   6  -1  255.49    7.76
   1  -6   2   38.77    3.02
  -1   6  -2   33.80    1.84
   1  -6   3  108.34    4.54
  -1   6  -3  116.08    5.12
   1  -6   4   58.88    3.52
  -1   6  -4   55.33    2.64
   1  -6   5  202.32    7.27
  -1   6  -5  217.16    8.15
   1  -6   6  208.44    7.42
  -1   6  -6  232.61    6.98
   1  -6   7    3.39    1.81
  -1   6  -7    3.54    1.30
   1  -6   8    0.65    0.85
  -1   6  -8    0.99    1.67
   1  -6   9   94.39    3.69
  -1   6  -9  112.71    5.82
   1  -6  10   10.50    1.72
  -1   6 -10    3.11    2.13
   1  -6  11    2.33    1.22
  -1   6 -11    1.47    1.90
   1  -6  12    3.51    1.14
  -1   6 -12    2.08    2.07
   1  -6  13   11.65    1.81
  -1   6 -13   11.44    1.94
   1  -5 -16   61.27    4.88
   1  -5 -15   15.05    2.89
   1  -5 -14    0.14    0.75
   1  -5 -14    0.19    1.16
   1  -5 -14    0.15    0.69
   1  -5 -13    4.92    1.81
   1  -5 -13    5.48    1.28
   1  -5 -13    2.96    1.28
   1  -5 -12    9.05    0.93
   1  -5 -12    7.77    1.99
   1  -5 -12    9.18    1.43
   1  -5 -11    8.79    1.21
   1  -5 -11    8.99    1.39
   1  -5 -10    0.49    0.69
  -1   5  10   37.47    1.76
   1  -5  -9   22.70    1.19
  -1   5   9   19.99    1.54
  -1   5   9   17.41    1.88
   1  -5  -8   39.36    2.21
  -1   5   8   36.75    1.46
  -1   5   8   31.40    2.29
   1  -5  -7   -0.10    0.40
  -1   5   7   -0.08    0.40
  -1   5   7    0.08    0.60
   1  -5  -6  203.83    5.83
  -1   5   6  182.19    5.39
  -1   5   6  188.39    5.31
   1  -5  -5  148.01    4.62
  -1   5   5  134.06    3.45
  -1   5   5  133.99    4.29
   1  -5  -4  217.94    5.38
  -1   5   4  189.77    5.33
  -1   5   4  183.05    5.24
   1  -5  -3  353.89    8.02
  -1   5   3  340.20    7.70
  -1   5   3  325.21    8.34
   1  -5  -2  111.56    3.10
  -1   5   2  104.51    3.68
   1  -5  -1    9.56    1.03
  -1   5   1   10.19    1.66
   1  -5   0    6.07    0.98
  -1   5   0    5.13    1.42
   1  -5   1   79.05    2.65
  -1   5  -1   55.71    1.81
   1  -5   2   10.96    1.15
  -1   5  -2   12.84    1.90
   1  -5   3   25.92    1.54
  -1   5  -3   28.04    2.46
   1  -5   4   18.34    1.36
  -1   5  -4   23.26    1.69
   1  -5   5   83.72    2.86
  -1   5  -5   98.46    4.68
   1  -5   6   51.88    2.24
  -1   5  -6   51.15    2.39
   1  -5   7   17.89    1.48
  -1   5  -7   21.17    1.72
   1  -5   8    1.81    1.39
  -1   5  -8    3.32    1.81
   1  -5   9    0.15    0.99
  -1   5  -9   -0.23    1.21
   1  -5  10    5.70    2.03
  -1   5 -10    5.48    2.18
   1  -5  11    2.80    1.73
  -1   5 -11    2.45    1.95
   1  -5  12   22.25    2.56
  -1   5 -12   32.51    2.46
   1  -5  13    7.20    2.21
  -1   5 -13    7.16    1.74
   1  -5  14    1.49    1.78
  -1   5 -14   -0.75    1.91
   1  -4 -16    6.74    2.49
   1  -4 -15    5.34    2.27
   1  -4 -14    0.96    0.60
   1  -4 -14    1.04    1.53
   1  -4 -14    1.37    0.99
   1  -4 -13    2.87    1.02
   1  -4 -13    2.48    1.62
   1  -4 -13    3.79    0.72
   1  -4 -12    6.38    0.82
   1  -4 -12    6.58    1.70
   1  -4 -12    6.47    1.21
   1  -4 -11   40.83    1.86
   1  -4 -11   38.78    2.03
   1  -4 -11   37.38    1.48
   1  -4 -10    8.77    1.54
   1  -4 -10    9.04    1.26
   1  -4  -9   11.02    0.99
   1  -4  -9   12.27    1.32
  -1   4   9   11.04    0.92
   1  -4  -8    3.38    0.65
   1  -4  -8    5.31    1.30
  -1   4   8    4.73    0.64
  -1   4   8    3.75    1.11
   1  -4  -7   47.12    1.99
   1  -4  -7  100.15    2.87
  -1   4   7   91.07    3.14
  -1   4   7   94.31    2.40
   1  -4  -6  225.42    5.07
  -1   4   6  215.87    5.49
  -1   4   6  206.42    5.41
   1  -4  -5    2.11    0.57
  -1   4   5    1.94    0.86
  -1   4   5    2.83    0.93
   1  -4  -4   40.37    1.18
  -1   4   4   51.61    2.12
  -1   4   4   46.40    1.97
   1  -4  -3   29.83    1.21
  -1   4   3   27.47    1.13
  -1   4   3   26.80    1.05
   1  -4  -2  362.62    7.96
  -1   4   2  297.89    6.27
   1  -4  -1    1.71    0.91
  -1   4   1    2.55    0.90
   1  -4   0  802.35   18.38
  -1   4   0  782.15   17.09
   1  -4   1   45.65    1.61
  -1   4  -1   34.06    1.12
   1  -4   2    5.98    0.86
  -1   4  -2    5.88    0.81
   1  -4   3  118.57    3.79
  -1   4  -3  135.57    3.63
   1  -4   4   14.46    1.68
  -1   4  -4   13.33    1.69
   1  -4   5   24.30    1.35
  -1   4  -5   27.81    2.21
   1  -4   6   25.28    1.41
  -1   4  -6   25.38    2.37
   1  -4   7    0.48    0.93
  -1   4  -7    0.26    0.62
   1  -4   8    2.95    1.31
  -1   4  -8    3.08    0.98
   1  -4   9   64.96    3.41
  -1   4  -9   72.42    3.98
   1  -4  10   10.57    1.87
  -1   4 -10   14.40    2.50
   1  -4  11   24.73    1.54
  -1   4 -11   34.61    2.33
   1  -4  12    3.09    0.97
  -1   4 -12    3.49    1.32
   1  -4  13    4.05    1.11
  -1   4 -13    8.37    2.76
   1  -4  14   23.36    1.93
  -1   4 -14   42.70    4.68
   1  -4  15    3.29    1.03
  -1   4 -15    5.38    1.60
   1  -3 -17   -0.53    1.02
   1  -3 -16   13.50    2.72
   1  -3 -15    9.81    2.07
   1  -3 -15    5.75    1.49
   1  -3 -15    8.83    1.00
   1  -3 -14    4.47    1.08
   1  -3 -14    5.24    1.30
   1  -3 -14    4.71    1.69
   1  -3 -13    2.01    1.00
   1  -3 -13    2.29    1.35
   1  -3 -13    2.88    1.01
   1  -3 -12   14.61    1.38
   1  -3 -12   13.77    1.44
   1  -3 -12   14.45    1.83
   1  -3 -11    3.37    1.26
   1  -3 -11    4.08    0.94
   1  -3 -11    2.80    0.98
   1  -3 -10   54.13    2.14
   1  -3 -10   51.28    1.84
   1  -3 -10   53.11    2.17
   1  -3  -9   43.59    1.38
   1  -3  -9   47.94    1.99
   1  -3  -9   43.65    2.24
   1  -3  -8    7.71    0.70
   1  -3  -8    8.22    0.74
  -1   3   8    6.98    1.11
   1  -3  -7   11.38    1.17
   1  -3  -7   12.23    1.22
  -1   3   7   10.45    0.68
  -1   3   7   10.01    0.70
   1  -3  -6  129.63    2.91
   1  -3  -6  133.63    2.94
  -1   3   6  129.73    3.35
  -1   3   6  124.39    2.84
   1  -3  -5    1.02    0.41
   1  -3  -5    1.25    0.44
  -1   3   5    1.21    0.63
  -1   3   5    1.25    0.66
   1  -3  -4    0.91    0.36
  -1   3   4    0.83    0.35
  -1   3   4    1.49    0.64
   1  -3  -3    8.13    1.00
  -1   3   3    6.60    0.50
  -1   3   3    6.11    0.59
   1  -3  -2  119.42    2.28
  -1   3   2  163.09    3.37
   1  -3  -1  815.74   17.86
  -1   3   1  697.83   14.25
   1  -3   0    8.67    0.69
  -1   3   0    9.00    1.13
   1  -3   1  290.89    5.78
  -1   3  -1  238.66    4.46
   1  -3   2   90.32    2.77
  -1   3  -2  102.85    3.26
   1  -3   3   91.06    2.17
  -1   3  -3   99.95    3.01
   1  -3   4  158.99    4.28
  -1   3  -4  155.20    4.17
   1  -3   5    9.28    0.80
  -1   3  -5   11.89    0.90
   1  -3   6  158.22    4.62
  -1   3  -6  162.32    4.69
   1  -3   7  120.59    3.81
  -1   3  -7  125.33    3.34
   1  -3   8    0.37    0.49
  -1   3  -8    0.58    0.59
   1  -3   9    5.12    1.34
  -1   3  -9    5.90    1.58
   1  -3  10    1.51    1.00
  -1   3 -10    1.25    1.28
   1  -3  11   59.56    2.99
  -1   3 -11   78.48    3.02
   1  -3  12   26.34    1.55
  -1   3 -12   37.76    2.27
   1  -3  13    3.73    0.93
  -1   3 -13    5.01    2.18
   1  -3  14   14.77    1.28
  -1   3 -14   29.31    3.55
   1  -3  15    0.50    1.15
  -1   3 -15   -0.03    0.74
   1  -3  16    1.77    1.55
  -1   3 -16   -0.07    1.15
   1  -2 -17   -0.52    1.00
   1  -2 -16    6.50    2.29
   1  -2 -15   18.04    1.76
   1  -2 -15   23.19    2.61
   1  -2 -15   18.58    1.93
   1  -2 -14   15.59    2.12
   1  -2 -14   12.47    1.71
   1  -2 -14   12.13    1.60
   1  -2 -13    2.77    0.96
   1  -2 -13    2.50    1.08
   1  -2 -13    3.50    0.89
   1  -2 -12    5.28    0.73
   1  -2 -12    8.58    0.96
   1  -2 -12    4.87    1.19
   1  -2 -11   45.76    1.71
   1  -2 -11   40.79    1.92
   1  -2 -11   43.92    1.48
   1  -2 -10    1.32    0.72
   1  -2 -10    1.03    0.49
   1  -2 -10    1.69    0.57
   1  -2  -9   91.64    2.27
   1  -2  -9   89.56    2.71
   1  -2  -9   93.23    3.01
   1  -2  -8   19.21    1.23
   1  -2  -8   19.70    1.37
   1  -2  -8   17.88    1.30
   1  -2  -7   61.17    2.09
   1  -2  -7   58.33    2.01
   1  -2  -6   47.84    1.59
   1  -2  -6   51.18    1.76
  -1   2   6   45.15    1.56
   1  -2  -5    8.02    0.72
   1  -2  -5    9.68    0.87
  -1   2   5    9.88    0.89
  -1   2   5    8.55    0.49
   1  -2  -4  282.10    5.83
   1  -2  -4  267.35    5.27
  -1   2   4  265.69    5.46
  -1   2   4  268.68    4.98
   1  -2  -3   25.29    0.82
  -1   2   3   26.47    0.82
  -1   2   3   23.70    0.93
   1  -2  -2  107.96    2.52
  -1   2   2  140.15    3.06
  -1   2   2  123.29    2.97
   1  -2  -1   29.01    1.34
  -1   2   1   29.30    0.91
   1  -2   0    0.50    0.34
  -1   2   0    0.55    0.57
   1  -2   1  170.27    3.80
  -1   2  -1  114.64    2.05
   1  -2   2  273.79    5.81
  -1   2  -2  319.85    7.05
   1  -2   3  301.70    6.17
  -1   2  -3  314.13    6.04
   1  -2   4    5.60    0.87
  -1   2  -4    5.30    0.83
   1  -2   5  116.23    2.96
  -1   2  -5  116.38    2.50
   1  -2   6   41.62    1.27
  -1   2  -6   44.63    1.98
   1  -2   7  472.95   11.03
  -1   2  -7  473.12   10.37
   1  -2   8   22.26    1.55
  -1   2  -8   22.81    1.73
   1  -2   9  174.03    4.74
  -1   2  -9  204.60    5.74
   1  -2  10   17.26    1.54
  -1   2 -10   19.32    1.85
   1  -2  11    4.57    0.71
  -1   2 -11    4.22    1.35
   1  -2  12   10.18    1.48
  -1   2 -12   12.89    1.21
   1  -2  13    1.04    0.93
  -1   2 -13    0.47    1.05
   1  -2  14   29.61    2.28
  -1   2 -14   35.82    3.33
   1  -2  15    1.82    1.29
  -1   2 -15    3.85    2.11
   1  -2  16   12.70    1.86
  -1   2 -16   22.07    3.26
   1  -1 -17   -0.34    1.37
   1  -1 -16   19.86    2.14
   1  -1 -16   20.17    2.17
   1  -1 -16   24.91    1.91
   1  -1 -15    1.81    1.18
   1  -1 -15    2.35    1.16
   1  -1 -15    1.89    1.54
   1  -1 -14   25.10    2.00
   1  -1 -14   29.15    1.77
   1  -1 -14   27.51    2.01
   1  -1 -13    2.56    1.37
   1  -1 -13    2.77    1.06
   1  -1 -13    2.94    1.15
   1  -1 -12   20.17    1.61
   1  -1 -12   18.83    1.89
   1  -1 -12   18.41    1.61
   1  -1 -11   33.61    1.24
   1  -1 -11   32.01    1.31
   1  -1 -11   36.42    2.10
   1  -1 -10    3.36    0.93
   1  -1 -10    3.22    0.66
   1  -1 -10    3.55    0.57
   1  -1  -9    6.49    0.90
   1  -1  -9    4.47    0.97
   1  -1  -9    4.86    0.65
   1  -1  -8   11.79    1.00
   1  -1  -8    8.61    1.03
   1  -1  -8   10.00    0.71
   1  -1  -7   65.87    1.57
   1  -1  -7   66.50    2.06
   1  -1  -7   65.64    2.01
   1  -1  -6  223.49    4.43
   1  -1  -6  238.70    5.03
   1  -1  -6  233.12    4.97
   1  -1  -5  544.93   10.91
   1  -1  -5  536.03   11.02
   1  -1  -4 1253.49   26.15
   1  -1  -4 1274.96   27.63
  -1   1   4 1296.36   27.70
   1  -1  -3   51.14    1.13
   1  -1  -3   51.68    1.51
  -1   1   3   50.60    1.12
  -1   1   3   51.66    1.51
   1  -1  -2  235.61    3.89
   1  -1  -2  223.68    4.45
  -1   1   2  204.20    3.95
  -1   1   2  204.64    3.38
   1  -1  -1  701.91   13.29
  -1   1   1  727.08   14.21
   1  -1   0   24.63    0.80
  -1   1   0   27.02    0.67
   1  -1   1   35.60    0.80
  -1   1  -1   38.81    1.15
   1  -1   2   12.62    0.75
  -1   1  -2   13.09    0.80
   1  -1   3   19.55    0.86
  -1   1  -3   21.81    0.98
   1  -1   4    0.66    0.44
  -1   1  -4    0.40    0.37
   1  -1   5   34.54    1.21
  -1   1  -5   35.10    1.28
   1  -1   6    7.04    0.77
  -1   1  -6    8.95    0.60
   1  -1   7    3.43    0.67
  -1   1  -7    4.15    0.83
   1  -1   8    4.89    0.50
  -1   1  -8    6.01    0.91
   1  -1   9   71.44    2.26
  -1   1  -9   79.37    2.62
   1  -1  10   60.47    2.10
  -1   1 -10   72.66    2.66
   1  -1  11    8.51    0.72
  -1   1 -11    8.39    1.26
   1  -1  12   22.66    1.60
  -1   1 -12   24.02    1.20
   1  -1  13    5.72    1.21
  -1   1 -13    5.69    1.20
   1  -1  14    0.42    0.81
  -1   1 -14    0.37    0.81
  -1   1 -14   -0.52    0.68
  -1   1 -15    3.45    1.48
   1   0 -17    4.56    2.15
   1   0 -16    8.31    2.06
   1   0 -16    5.95    1.67
   1   0 -15    1.50    0.72
   1   0 -15    1.10    1.04
   1   0 -14    3.25    1.15
   1   0 -14    3.80    0.80
   1   0 -14    2.13    0.96
   1   0 -13   36.98    2.11
   1   0 -13   46.52    2.79
   1   0 -13   41.23    2.43
   1   0 -12    2.05    1.00
   1   0 -12    2.37    0.74
   1   0 -12    1.76    0.57
   1   0 -11    6.04    1.26
   1   0 -11    4.30    1.20
   1   0 -10    0.93    0.52
   1   0 -10    0.57    0.77
   1   0  -9  159.72    4.25
   1   0  -9  160.10    4.37
   1   0  -8  111.67    3.12
   1   0  -8  118.24    3.24
   1   0  -7  265.09    5.41
   1   0  -7  269.88    6.07
   1   0  -6   92.09    2.35
   1   0  -5  589.39   12.15
   1   0  -4  979.94   20.08
   1   0  -3 2995.91   73.59
   1   0  -2  405.66    6.65
   1   0  -1  581.16    9.13
   1   0  -1  555.41    9.96
   1   0   1  568.81    9.74
  -1   0  -1  723.05   12.92
   1   0   2  904.93   16.80
  -1   0  -2 2371.79   53.15
   1   0   3  396.01    6.69
  -1   0  -3  573.76   10.25
   1   0   4  190.91    3.24
  -1   0  -4  225.27    4.09
   1   0   5  985.51   19.82
  -1   0  -5  965.91   19.29
   1   0   6  340.19    6.41
  -1   0  -6  342.48    6.22
   1   0   7    2.34    0.42
  -1   0  -7    2.16    0.47
   1   0   8    0.28    0.36
  -1   0  -8    0.10    0.35
   1   0   9  149.19    3.40
  -1   0  -9  161.81    3.71
   1   0  10   18.11    1.10
  -1   0 -10   17.60    1.16
   1   0  11  438.26    9.44
  -1   0 -11  449.78   11.01
  -1   0 -11  448.93   10.43
   1   0  12    1.14    0.41
  -1   0 -12    1.37    1.31
  -1   0 -12    1.17    0.81
  -1   0 -13    8.01    1.27
  -1   0 -13    6.60    1.25
  -1   0 -14   12.69    2.30
  -1   0 -14   10.01    1.25
  -1   0 -15    9.81    1.75
  -1   0 -15    9.59    1.54
   1   1 -17    1.51    0.96
   1   1 -16   45.97    1.99
   1   1 -16   41.57    1.83
   1   1 -15    0.15    0.54
   1   1 -15    2.11    1.25
   1   1 -14   -0.02    1.23
   1   1 -14    1.64    1.24
   1   1 -13   12.47    1.93
   1   1 -13   12.58    1.18
   1   1 -12    2.22    0.72
   1   1 -12    2.34    0.76
   1   1 -11    4.69    1.27
   1   1 -10  111.92    3.72
  -1  -1  10  114.22    3.75
   1   1  -9  124.61    3.14
  -1  -1   9  119.76    3.68
   1   1  -8  140.41    3.98
  -1  -1   8  140.49    3.89
   1   1  -7   82.95    2.11
  -1  -1   7   83.83    2.09
   1   1  -6  172.74    4.09
  -1  -1   6  170.66    3.98
   1   1  -5  180.16    4.05
  -1  -1   5  173.52    3.43
   1   1  -4    2.22    0.39
  -1  -1   4    1.81    0.58
   1   1  -3    9.67    0.85
  -1  -1   3    8.47    0.50
   1   1  -2  316.46    5.63
  -1  -1   2  275.48    4.99
   1   1  -1   71.03    1.43
  -1  -1   1   61.64    1.02
   1   1   0    8.80    0.29
   1   1   0    9.13    0.36
  -1  -1   0    8.21    0.30
   1   1   1   81.07    1.39
   1   1   1   72.74    1.06
  -1  -1  -1   73.16    1.06
  -1  -1  -1   74.60    1.16
   1   1   2   57.01    0.69
   1   1   2   50.54    1.05
  -1  -1  -2   63.35    1.36
   1   1   3  573.68   10.97
  -1  -1  -3  512.22    9.93
  -1  -1  -4   41.63    0.63
  -1  -1  -4   35.92    1.25
  -1  -1  -5  559.35   11.26
  -1  -1  -5  552.50    9.57
  -1  -1  -6    5.27    0.31
  -1  -1  -6    6.14    0.58
  -1  -1  -7    7.46    0.42
  -1  -1  -7    7.40    0.69
  -1  -1  -8   43.18    1.54
  -1  -1  -8   43.21    1.13
  -1  -1  -9  260.78    5.23
  -1  -1  -9  264.74    7.03
  -1  -1 -10   78.50    3.27
  -1  -1 -10   82.88    2.08
  -1  -1 -11   89.29    2.35
  -1  -1 -11   92.08    2.92
  -1  -1 -12    3.60    1.62
  -1  -1 -12    3.41    0.68
  -1  -1 -12    3.88    0.42
  -1  -1 -13    0.86    0.37
  -1  -1 -13    0.96    0.55
  -1  -1 -13    0.66    1.31
  -1  -1 -14   20.58    1.58
  -1  -1 -14   16.50    1.24
  -1  -1 -14   19.47    1.77
  -1  -1 -15   11.12    2.54
   1   2 -16   19.74    2.71
   1   2 -15    2.20    1.56
   1   2 -14    0.95    0.66
   1   2 -13    0.68    1.21
  -1  -2  13    0.42    0.60
   1   2 -12   62.19    3.47
  -1  -2  12   61.11    2.34
   1   2 -11   53.26    2.96
  -1  -2  11   52.31    2.83
   1   2 -10  232.54    6.79
  -1  -2  10  228.10    6.58
   1   2  -9   81.01    3.23
  -1  -2   9   79.64    2.38
   1   2  -8  221.64    5.18
  -1  -2   8  218.94    5.03
   1   2  -7  638.32   14.97
  -1  -2   7  585.11   13.34
   1   2  -6  255.63    6.07
  -1  -2   6  236.96    5.47
   1   2  -5    0.63    0.38
  -1  -2   5    0.72    0.58
   1   2  -4  362.72    7.12
  -1  -2   4  371.42    7.35
   1   2  -3  843.69   17.34
  -1  -2   3  899.13   18.71
   1   2  -2 1349.61   29.78
  -1  -2   2 1327.12   28.56
   1   2  -1 9999.00  314.22
  -1  -2   1 9567.63  297.59
   1   2   0    3.44    0.33
  -1  -2   0    3.80    0.55
   1   2   1   53.82    1.39
   1   2   1   56.72    1.29
  -1  -2  -1   50.77    0.91
   1   2   2 1052.51   21.97
   1   2   2 1057.02   20.69
  -1  -2  -2  994.23   20.44
  -1  -2  -2  965.28   18.57
   1   2   3   35.15    0.80
   1   2   3   37.26    1.39
  -1  -2  -3   35.90    1.33
  -1  -2  -3   31.89    0.60
   1   2   4   45.46    0.74
   1   2   4   44.21    1.17
  -1  -2  -4   44.64    1.20
  -1  -2  -4   45.44    0.82
   1   2   5  604.97   12.90
  -1  -2  -5  670.35   11.95
  -1  -2  -5  624.42   13.52
  -1  -2  -6   41.09    1.30
  -1  -2  -6   39.80    0.83
  -1  -2  -6   40.95    0.87
  -1  -2  -7   89.23    1.58
  -1  -2  -7   89.66    2.86
  -1  -2  -7   89.30    1.67
  -1  -2  -8   65.89    1.48
  -1  -2  -8   68.07    1.36
  -1  -2  -8   67.77    2.00
  -1  -2  -9   11.57    0.59
  -1  -2  -9   11.47    0.58
  -1  -2  -9   11.05    0.99
  -1  -2 -10    0.16    0.29
  -1  -2 -10    0.18    0.37
  -1  -2 -10    0.20    0.51
  -1  -2 -11  141.04    2.99
  -1  -2 -11  143.27    4.01
  -1  -2 -11  132.85    2.85
  -1  -2 -12  150.24    5.34
  -1  -2 -12  140.19    3.11
  -1  -2 -12  139.03    3.10
  -1  -2 -13   13.05    2.17
  -1  -2 -13   10.79    0.88
  -1  -2 -13   10.58    0.84
  -1  -2 -14   21.35    1.14
  -1  -2 -14   23.25    1.83
  -1  -2 -15    0.15    0.76
  -1  -2 -16   20.17    3.16
  -1  -2 -17   74.81    3.75
   1   3 -16   -3.58    3.08
   1   3 -15   15.98    3.80
  -1  -3  15   10.99    1.37
   1   3 -14   40.24    3.35
  -1  -3  14   37.28    3.24
   1   3 -13    6.54    1.92
  -1  -3  13    6.39    1.89
   1   3 -12    6.26    1.60
  -1  -3  12    7.01    1.79
   1   3 -11    0.03    0.43
  -1  -3  11    0.55    0.66
   1   3 -10   -0.50    0.98
  -1  -3  10    0.02    0.38
   1   3  -9   17.96    1.36
  -1  -3   9   16.81    1.15
   1   3  -8   -0.41    0.55
  -1  -3   8    0.01    0.49
   1   3  -7   14.77    1.70
  -1  -3   7   15.23    1.67
   1   3  -6   52.76    2.48
  -1  -3   6   58.01    2.51
   1   3  -5   24.64    1.65
  -1  -3   5   26.60    1.66
   1   3  -4   23.42    1.00
  -1  -3   4   21.01    0.94
   1   3  -3   20.86    0.92
  -1  -3   3   21.14    0.91
   1   3  -2  212.63    4.97
  -1  -3   2  212.23    4.86
   1   3  -1  324.20    7.04
  -1  -3   1  291.75    6.13
   1   3   0  117.72    2.73
  -1  -3   0  135.85    3.20
   1   3   1    9.38    0.97
   1   3   1    9.70    0.75
  -1  -3  -1    8.57    0.48
   1   3   2  504.67   10.51
   1   3   2  501.13    9.71
  -1  -3  -2  533.98   10.43
   1   3   3   26.70    0.89
   1   3   3   25.73    0.92
  -1  -3  -3   31.12    1.03
  -1  -3  -3   26.37    0.93
   1   3   4 2138.64   52.08
   1   3   4 2120.05   48.34
  -1  -3  -4 2110.69   50.26
  -1  -3  -4 2090.74   47.43
   1   3   5  145.04    2.60
   1   3   5  147.55    3.81
  -1  -3  -5  147.19    2.62
  -1  -3  -5  149.51    3.83
   1   3   6    1.68    0.29
   1   3   6    1.55    0.80
  -1  -3  -6    1.88    0.31
  -1  -3  -6    1.87    0.85
   1   3   7    7.68    0.76
  -1  -3  -7    6.39    0.76
  -1  -3  -7    6.96    0.43
   1   3   8   20.63    1.16
  -1  -3  -8   22.07    1.19
  -1  -3  -8   21.36    0.66
  -1  -3  -8   22.50    0.73
  -1  -3  -9   70.99    1.47
  -1  -3  -9   76.33    2.38
  -1  -3  -9   76.84    1.60
  -1  -3 -10  159.80    3.08
  -1  -3 -10  166.69    5.32
  -1  -3 -10  151.88    2.93
  -1  -3 -11    0.36    0.31
  -1  -3 -11    0.30    0.97
  -1  -3 -11    0.16    0.31
  -1  -3 -12    0.21    0.32
  -1  -3 -12    0.11    0.31
  -1  -3 -12    0.71    1.02
  -1  -3 -13    3.97    1.77
  -1  -3 -13    4.15    0.55
  -1  -3 -13    3.58    0.53
  -1  -3 -14    4.76    2.00
  -1  -3 -15   58.75    3.02
  -1  -3 -16    4.82    1.55
  -1  -3 -17   27.84    4.05
   1   4 -15    8.47    1.44
  -1  -4  15    5.96    1.49
   1   4 -14    0.49    2.05
  -1  -4  14   -0.31    0.83
   1   4 -13   -0.70    1.19
  -1  -4  13    1.14    1.47
   1   4 -12    2.23    2.11
  -1  -4  12    1.31    1.33
   1   4 -11   41.77    3.24
  -1  -4  11   38.21    2.87
   1   4 -10    0.05    0.54
  -1  -4  10    1.02    1.21
   1   4  -9   99.79    4.34
  -1  -4   9   91.98    2.99
   1   4  -8   69.27    3.49
  -1  -4   8   66.62    2.43
   1   4  -7    4.51    1.53
  -1  -4   7    5.92    0.91
   1   4  -6  313.40    8.49
  -1  -4   6  301.78    8.05
   1   4  -5   81.27    3.35
  -1  -4   5   85.31    3.28
   1   4  -4   70.82    2.17
  -1  -4   4   72.36    2.88
   1   4  -3  878.03   19.58
  -1  -4   3  959.29   22.62
   1   4  -2  374.09    7.84
  -1  -4   2  383.34    8.68
   1   4  -1  491.40   11.30
  -1  -4   1  431.58    9.56
   1   4   0  799.88   17.75
  -1  -4   0  743.92   16.15
   1   4   1    3.44    0.47
  -1  -4  -1    4.64    0.86
   1   4   2   51.91    1.28
   1   4   2   51.67    1.45
  -1  -4  -2   55.39    1.35
   1   4   3  275.17    5.28
   1   4   3  272.48    5.62
  -1  -4  -3  263.76    4.96
   1   4   4  135.32    3.00
   1   4   4  132.37    3.69
  -1  -4  -4  154.26    3.49
  -1  -4  -4  159.20    3.83
   1   4   5  941.40   21.08
   1   4   5  942.51   19.43
  -1  -4  -5  977.25   20.62
  -1  -4  -5  964.22   21.63
   1   4   6    8.56    0.86
   1   4   6    9.04    0.69
  -1  -4  -6    9.85    1.31
  -1  -4  -6    8.18    0.69
   1   4   7   23.39    0.86
   1   4   7   22.26    1.76
  -1  -4  -7   24.43    1.89
  -1  -4  -7   26.62    1.20
   1   4   8   13.28    0.99
  -1  -4  -8   18.55    1.22
  -1  -4  -8   19.27    1.16
   1   4   9    9.22    1.62
  -1  -4  -9   10.15    1.59
  -1  -4  -9    7.97    0.84
  -1  -4 -10   32.24    1.67
  -1  -4 -10   29.46    0.94
  -1  -4 -10   31.69    1.20
  -1  -4 -11   75.99    2.00
  -1  -4 -11   73.60    1.72
  -1  -4 -11   77.79    2.74
  -1  -4 -12   68.73    1.72
  -1  -4 -12   69.90    3.74
  -1  -4 -12   61.54    1.51
  -1  -4 -13   88.22    4.46
  -1  -4 -13   82.27    2.05
  -1  -4 -13   90.83    2.21
  -1  -4 -14   16.99    2.71
  -1  -4 -15    5.73    2.27
  -1  -4 -16    1.37    1.16
  -1  -4 -17   51.15    3.27
   1   5 -14    0.78    2.12
  -1  -5  14    0.86    1.70
   1   5 -13    6.99    2.25
  -1  -5  13    4.43    1.97
   1   5 -12    6.14    1.34
  -1  -5  12    5.63    1.98
   1   5 -11    0.94    1.46
  -1  -5  11    0.55    1.36
   1   5 -10   28.99    3.64
  -1  -5  10   22.42    1.75
   1   5  -9    2.47    1.21
  -1  -5   9    1.99    0.95
   1   5  -8   39.26    2.32
  -1  -5   8   30.10    2.55
   1   5  -7    0.75    0.82
  -1  -5   7    0.70    1.15
   1   5  -6    3.40    1.02
  -1  -5   6    3.64    1.46
   1   5  -5    0.68    1.16
  -1  -5   5    0.21    0.92
   1   5  -4    4.36    1.62
  -1  -5   4    3.33    0.86
   1   5  -3   43.82    1.95
  -1  -5   3   37.19    1.61
   1   5  -2    1.20    1.09
  -1  -5   2    1.00    0.59
   1   5  -1  152.67    3.77
  -1  -5   1  157.80    3.80
   1   5   0  179.42    4.11
  -1  -5   0  179.63    4.07
   1   5   1    0.67    0.77
  -1  -5  -1    0.12    0.61
   1   5   2   67.52    2.63
   1   5   2   68.41    3.04
  -1  -5  -2   59.12    2.22
   1   5   3   12.11    0.97
   1   5   3   12.64    1.20
  -1  -5  -3   13.96    1.17
   1   5   4   46.05    1.80
   1   5   4   46.51    1.70
  -1  -5  -4   44.92    1.74
   1   5   5  140.01    4.38
   1   5   5  132.16    3.34
  -1  -5  -5  151.37    3.87
   1   5   6    4.54    0.75
   1   5   6    4.31    1.29
  -1  -5  -6    4.82    0.98
  -1  -5  -6    5.42    0.83
   1   5   7    1.53    0.69
   1   5   7    1.47    0.59
  -1  -5  -7    1.20    0.37
  -1  -5  -7    1.61    0.66
   1   5   8    8.05    0.76
   1   5   8    6.64    1.58
  -1  -5  -8    9.49    0.92
  -1  -5  -8   10.94    1.71
   1   5   9    4.59    1.48
   1   5   9    5.90    0.65
  -1  -5  -9    6.70    0.80
  -1  -5  -9    5.46    1.05
   1   5  10    7.73    1.11
  -1  -5 -10    9.24    0.82
  -1  -5 -10   12.27    1.99
   1   5  11  123.81    3.85
  -1  -5 -11  144.31    4.51
  -1  -5 -11  139.18    3.16
  -1  -5 -11  130.88    3.02
  -1  -5 -12    2.59    0.53
  -1  -5 -12    2.52    1.84
  -1  -5 -12    3.52    0.61
  -1  -5 -13   10.08    0.74
  -1  -5 -13   14.41    2.57
  -1  -5 -13   12.90    0.85
  -1  -5 -14   21.42    3.30
  -1  -5 -15    5.30    2.66
  -1  -5 -16   35.28    4.68
  -1  -5 -17   61.89    5.99
   1   6 -13   -0.35    1.98
  -1  -6  13    0.97    1.67
   1   6 -12    8.89    2.06
  -1  -6  12    6.98    1.66
   1   6 -11    0.97    1.27
  -1  -6  11    0.69    0.97
   1   6 -10   28.06    3.85
  -1  -6  10   23.92    3.05
   1   6  -9   38.64    3.97
  -1  -6   9   28.78    3.16
   1   6  -8    9.15    2.34
  -1  -6   8    5.63    1.88
   1   6  -7   13.43    2.46
  -1  -6   7    5.62    1.23
   1   6  -6    0.47    1.36
  -1  -6   6    0.40    0.75
   1   6  -5    8.45    2.27
  -1  -6   5   11.74    2.09
   1   6  -4  120.99    3.89
  -1  -6   4  114.40    4.67
   1   6  -3   56.34    3.55
  -1  -6   3   48.51    2.97
   1   6  -2  164.29    4.57
  -1  -6   2  152.40    4.12
   1   6  -1  440.52   11.87
  -1  -6   1  412.94    9.73
   1   6   0   54.84    3.00
  -1  -6   0   53.76    2.78
   1   6   1   71.22    3.12
  -1  -6  -1   71.60    3.04
   1   6   2  247.62    7.67
   1   6   2  245.79    6.95
  -1  -6  -2  229.52    6.23
   1   6   3   78.76    2.56
   1   6   3   65.83    1.83
  -1  -6  -3   81.19    2.33
   1   6   4  141.15    4.07
   1   6   4  134.87    4.78
  -1  -6  -4  146.39    4.27
   1   6   5  155.69    4.24
   1   6   5  159.67    4.30
  -1  -6  -5  177.02    4.81
   1   6   6    0.63    0.67
   1   6   6    0.69    1.08
  -1  -6  -6    0.60    0.44
   1   6   7   48.10    1.95
   1   6   7   50.52    3.00
  -1  -6  -7   54.64    2.17
   1   6   8   19.04    1.51
   1   6   8   19.15    1.28
  -1  -6  -8   20.75    0.92
  -1  -6  -8    3.58    1.48
   1   6   9    1.17    1.20
   1   6   9    0.65    0.57
  -1  -6  -9    0.54    0.68
  -1  -6  -9    1.55    0.87
   1   6  10    0.03    0.38
   1   6  10    0.43    0.94
  -1  -6 -10   -0.22    0.58
  -1  -6 -10   -0.49    1.16
   1   6  11   39.94    2.15
  -1  -6 -11   50.27    2.65
  -1  -6 -11   55.79    2.15
   1   6  12    1.28    0.89
  -1  -6 -12    1.65    0.78
  -1  -6 -12    2.41    1.69
  -1  -6 -12    1.27    0.61
  -1  -6 -13   18.49    3.10
  -1  -6 -14   28.52    3.83
  -1  -6 -15    3.60    2.50
  -1  -6 -16   18.05    4.07
   1   7 -12   -0.54    1.84
  -1  -7  12   -0.04    1.42
   1   7 -11   10.85    2.90
  -1  -7  11    8.32    1.85
   1   7 -10    1.89    1.82
  -1  -7  10   -0.12    0.81
   1   7  -9   -0.10    1.76
  -1  -7   9    0.71    0.91
   1   7  -8    5.07    3.01
  -1  -7   8    4.34    2.17
   1   7  -7    6.89    2.94
  -1  -7   7    4.07    2.04
   1   7  -6    1.45    1.29
  -1  -7   6    2.16    1.17
   1   7  -5    4.64    1.47
  -1  -7   5    2.83    1.10
   1   7  -4   31.76    3.62
  -1  -7   4   23.61    2.73
   1   7  -3    0.52    1.45
  -1  -7   3    1.60    1.45
   1   7  -2   15.14    1.65
  -1  -7   2   12.60    1.36
   1   7  -1    0.65    1.28
  -1  -7   1    0.64    1.18
   1   7   0    7.45    1.87
  -1  -7   0    7.58    1.77
   1   7   1    1.32    0.83
  -1  -7  -1    2.34    0.85
   1   7   2   64.01    2.36
   1   7   2   69.73    4.02
  -1  -7  -2   64.83    3.04
   1   7   3   33.72    2.72
   1   7   3   26.40    2.00
  -1  -7  -3   29.71    2.18
   1   7   4    0.28    0.70
   1   7   4    0.56    0.88
  -1  -7  -4    0.20    0.49
   1   7   5  208.33    5.94
   1   7   5  214.82    7.12
  -1  -7  -5  218.53    6.17
   1   7   6   96.36    2.73
   1   7   6  100.10    4.75
  -1  -7  -6  111.36    3.17
   1   7   7    3.27    1.05
   1   7   7    3.57    1.09
  -1  -7  -7    3.81    1.24
   1   7   8   32.90    2.96
   1   7   8   32.82    1.90
  -1  -7  -8   36.81    1.99
   1   7   9    1.14    0.78
  -1  -7  -9    1.32    0.82
   1   7  10   30.05    3.06
   1   7  10   31.52    1.22
  -1  -7 -10   33.41    1.26
   1   7  11    5.13    1.28
   1   7  11    3.79    0.51
  -1  -7 -11    4.52    0.93
   1   7  12    3.37    1.17
  -1  -7 -12    4.46    1.30
  -1  -7 -12    1.98    0.81
   1   7  13   19.50    1.84
  -1  -7 -13   23.48    2.29
  -1  -7 -14    1.11    1.15
  -1  -7 -15   57.22    3.46
   1   8 -11    0.10    1.45
  -1  -8  11    0.70    2.09
   1   8 -10    2.28    2.12
  -1  -8  10    1.60    1.37
   1   8  -9    6.15    2.42
  -1  -8   9    3.18    1.32
   1   8  -8    9.72    2.52
  -1  -8   8    7.68    2.83
   1   8  -7    5.05    2.07
  -1  -8   7    2.73    2.26
   1   8  -6  156.26    6.53
  -1  -8   6  129.24    5.27
   1   8  -5   58.79    3.79
  -1  -8   5   46.77    4.09
   1   8  -4   65.72    5.58
  -1  -8   4   55.27    4.18
   1   8  -3   78.39    3.67
  -1  -8   3   69.81    3.15
   1   8  -2   15.48    1.93
  -1  -8   2   16.06    2.67
   1   8  -1    0.03    1.03
  -1  -8   1    2.00    1.62
   1   8   0   27.71    3.16
  -1  -8   0   25.24    1.82
   1   8   1    0.74    0.85
   1   8   1    0.80    1.03
  -1  -8  -1    0.89    1.38
   1   8   2   35.23    3.33
   1   8   2   33.04    1.92
  -1  -8  -2   35.32    2.01
   1   8   3   40.69    2.45
   1   8   3   39.10    1.95
  -1  -8  -3   38.50    2.65
   1   8   4   17.01    1.78
   1   8   4   16.30    1.41
  -1  -8  -4   13.89    1.19
   1   8   5  125.30    4.46
   1   8   5  122.32    4.68
  -1  -8  -5  122.36    4.63
   1   8   6  265.61    9.06
   1   8   6  262.86    7.60
  -1  -8  -6  267.17    6.83
   1   8   7   40.50    2.49
   1   8   7   38.21    3.68
  -1  -8  -7   42.51    2.55
   1   8   8    0.03    0.92
   1   8   8   -0.02    0.36
  -1  -8  -8    0.01    0.63
   1   8   9   12.00    1.72
   1   8   9   15.39    1.59
  -1  -8  -9   16.60    2.08
   1   8  10    1.21    0.94
   1   8  10    1.91    1.07
  -1  -8 -10    1.92    1.30
   1   8  11    0.75    1.04
   1   8  11    1.32    0.80
  -1  -8 -11    1.53    1.25
   1   8  12   21.73    3.69
   1   8  13    1.43    1.81
   1   9  -9   -0.92    1.65
  -1  -9   9    0.97    1.15
   1   9  -8   -0.27    1.32
  -1  -9   8   -0.38    1.90
   1   9  -7    0.57    1.41
  -1  -9   7    0.65    2.00
   1   9  -6   -0.05    0.98
  -1  -9   6    0.18    1.07
   1   9  -5   13.03    3.79
  -1  -9   5   12.77    3.13
   1   9  -4    1.53    2.37
  -1  -9   4    0.85    1.09
   1   9  -3   21.23    2.35
  -1  -9   3   19.69    2.12
   1   9  -2    3.48    1.41
  -1  -9   2    4.08    2.12
   1   9  -1    0.08    1.23
  -1  -9   1   -0.07    0.67
   1   9   0   11.13    2.63
  -1  -9   0    0.40    1.38
   1   9   1   -0.20    0.83
   1   9   1    0.42    0.78
  -1  -9  -1    0.17    0.70
   1   9   2    0.88    1.09
   1   9   2    0.98    1.38
  -1  -9  -2    1.28    1.56
   1   9   3    8.44    2.07
   1   9   3    6.70    1.64
  -1  -9  -3    8.02    1.37
   1   9   4   13.96    2.36
   1   9   4   13.32    1.90
  -1  -9  -4   13.22    2.38
   1   9   5    0.15    1.19
   1   9   5    0.97    1.02
  -1  -9  -5    1.44    1.20
   1   9   6    6.80    1.10
   1   9   6    6.52    1.49
  -1  -9  -6    5.02    0.92
   1   9   7    0.25    0.92
   1   9   7   -1.09    1.38
  -1  -9  -7    0.25    0.83
   1   9   8   14.20    3.01
   1   9   8   14.18    2.02
   1   9   9    5.64    2.42
   1   9   9    5.99    1.54
  -1  -9  -9    4.98    1.51
   1   9  10    0.39    1.94
   1   9  10    1.87    0.71
  -1  -9 -10    0.76    1.05
   1   9  11   10.46    2.99
   1   9  11   12.31    1.65
  -1  -9 -11   11.58    1.76
   1   9  12   54.60    5.69
   1   9  13   -0.38    1.61
   1  10  -7    2.71    1.77
  -1 -10   7    2.36    1.72
   1  10  -6    1.06    1.45
  -1 -10   6    1.13    2.71
   1  10  -5   -0.57    2.10
  -1 -10   5    0.63    2.35
   1  10  -4    0.37    2.06
  -1 -10   4    1.37    1.34
   1  10  -3    0.40    1.21
  -1 -10   3    0.01    1.14
   1  10  -2    6.39    1.87
  -1 -10   2    5.43    1.66
   1  10  -1    0.27    2.07
  -1 -10   1   -0.36    1.55
   1  10   0   31.17    2.87
   1  10   0   38.38    3.29
  -1 -10   0   31.79    2.45
   1  10   1   19.23    3.75
   1  10   1   14.77    1.90
  -1 -10  -1   15.73    2.92
   1  10   2    5.47    2.26
   1  10   2    6.00    2.89
  -1 -10  -2    9.24    1.55
   1  10   3    3.27    2.56
   1  10   3    3.20    2.02
  -1 -10  -3    4.28    2.01
   1  10   4    0.48    0.99
   1  10   4    1.12    1.26
  -1 -10  -4   -0.15    1.29
   1  10   5    3.91    1.21
   1  10   5    4.19    1.62
  -1 -10  -5    5.00    1.39
   1  10   6    2.83    1.83
   1  10   6    5.30    1.58
  -1 -10  -6    5.13    2.13
   1  10   7   -0.07    0.82
   1  10   7    0.01    0.91
  -1 -10  -7   -0.15    1.17
   1  10   8    0.80    1.26
   1  10   8    1.04    1.38
  -1 -10  -8    0.60    1.00
   1  10   9    0.16    0.93
   1  10   9   -0.06    1.43
  -1 -10  -9   -0.10    0.76
   1  10  10    2.32    2.15
   1  10  10    0.97    1.31
  -1 -10 -10   -0.09    0.74
   1  10  11    2.00    2.30
   1  11  -3    2.23    2.65
  -1 -11   3    1.38    1.37
   1  11  -2    2.27    2.32
   1  11  -2    1.26    1.60
  -1 -11   2    1.11    2.05
   1  11  -1   -0.14    1.83
   1  11  -1   -0.57    1.27
  -1 -11   1    0.30    1.08
   1  11   0    1.10    2.77
   1  11   0    3.14    1.45
  -1 -11   0    2.23    2.33
   1  11   1    2.78    1.75
   1  11   1    0.88    2.29
  -1 -11  -1    1.74    1.31
   1  11   2   -0.31    1.41
   1  11   2   -0.93    1.79
  -1 -11  -2    0.36    0.99
   1  11   3    3.52    1.67
   1  11   3    2.97    3.19
  -1 -11  -3    1.39    1.89
   1  11   4    2.27    1.96
   1  11   4    0.45    2.52
  -1 -11  -4    2.04    1.20
   1  11   5    0.58    1.37
   1  11   5   -0.24    1.95
  -1 -11  -5    0.14    0.76
   1  11   6    1.30    1.88
   1  11   6   -0.13    1.48
  -1 -11  -6    1.19    1.60
   1  11   7    0.78    2.21
   1  11   7    0.46    1.32
  -1 -11  -7    1.01    1.84
   1  11   8    0.38    0.83
   1  11   8   -0.05    1.16
  -1 -11  -8    4.24    2.31
   2 -10  -6    7.32    1.61
  -2  10   6    0.08    2.24
  -2  10   6    4.58    2.22
   2 -10  -5    0.27    1.49
  -2  10   5    1.71    2.44
  -2  10   5    2.52    1.48
   2 -10  -4    3.23    2.33
  -2  10   4    1.29    1.69
  -2  10   4   -0.32    1.11
   2 -10  -3    2.65    2.25
  -2  10   3    3.52    1.53
  -2  10   3    0.64    1.35
   2 -10  -2    0.70    2.00
  -2  10   2    0.16    1.11
  -2  10   2    0.26    1.09
   2 -10  -1    0.92    1.33
  -2  10   1    4.17    2.40
  -2  10   1    0.83    2.67
   2 -10   0    0.59    1.58
  -2  10   0    0.34    1.15
  -2  10   0    0.38    1.12
   2 -10   1    2.14    1.27
  -2  10  -1    1.24    2.28
   2 -10   2   -1.59    2.90
  -2  10  -2    0.33    1.27
   2 -10   3   15.06    2.97
  -2  10  -3    7.60    3.63
   2  -9  -9    1.26    2.81
  -2   9   9    0.24    1.28
  -2   9   9    0.16    1.32
   2  -9  -8   16.91    4.58
  -2   9   8   14.70    2.49
  -2   9   8    0.08    2.67
   2  -9  -7   23.08    4.00
  -2   9   7   11.65    2.46
  -2   9   7    0.08    2.65
   2  -9  -6    1.89    1.47
  -2   9   6    2.09    1.64
  -2   9   6    0.15    0.97
   2  -9  -5    1.11    2.17
  -2   9   5    1.39    1.67
  -2   9   5    0.14    0.99
   2  -9  -4   -0.22    1.35
  -2   9   4    1.27    1.73
  -2   9   4   -0.03    1.58
   2  -9  -3    0.16    0.81
  -2   9   3    1.28    1.67
  -2   9   3    0.30    1.80
   2  -9  -2    3.72    3.12
  -2   9   2    3.32    2.27
  -2   9   2    2.87    1.43
   2  -9  -1    0.29    1.33
  -2   9   1   -0.54    1.04
  -2   9   1   -0.60    1.07
   2  -9   0    0.18    1.53
  -2   9   0    0.88    1.89
   2  -9   1    0.38    1.08
  -2   9  -1    0.14    0.96
   2  -9   2    0.62    0.97
  -2   9  -2    1.87    2.33
   2  -9   3    0.01    0.99
  -2   9  -3    1.01    1.49
   2  -9   4    0.02    0.92
  -2   9  -4    0.59    2.27
   2  -9   5    1.80    2.31
  -2   9  -5    2.87    2.72
   2  -9   6    0.23    1.68
  -2   9  -6   -1.25    1.47
   2  -9   7   -0.13    1.05
  -2   9  -7    0.60    1.37
   2  -8 -12    3.56    2.82
  -2   8  12    1.95    1.06
   2  -8 -11    2.23    2.50
  -2   8  11    1.74    1.61
  -2   8  11    0.14    0.62
   2  -8 -10    5.80    2.93
  -2   8  10    5.25    1.82
  -2   8  10    2.59    1.02
   2  -8  -9    1.53    2.22
  -2   8   9   -0.07    0.80
  -2   8   9    1.41    1.25
   2  -8  -8    1.47    1.33
  -2   8   8    0.93    1.27
  -2   8   8   -0.06    1.28
   2  -8  -7   23.19    3.78
  -2   8   7   16.35    2.68
  -2   8   7   16.54    2.65
   2  -8  -6    0.74    2.00
  -2   8   6   -0.43    1.44
  -2   8   6   -0.75    0.83
   2  -8  -5    3.19    1.59
  -2   8   5    1.71    1.73
  -2   8   5    1.16    1.59
   2  -8  -4   -0.57    1.91
  -2   8   4    0.04    1.00
  -2   8   4    0.04    1.02
   2  -8  -3   19.74    2.11
  -2   8   3   14.30    1.72
  -2   8   3   17.20    2.81
   2  -8  -2    0.21    1.49
  -2   8   2    0.27    0.87
  -2   8   2    1.11    1.47
   2  -8  -1    0.06    0.69
  -2   8   1    1.10    1.03
   2  -8   0    1.45    2.27
  -2   8   0    2.14    1.22
   2  -8   1   43.43    4.92
  -2   8  -1   31.73    3.77
   2  -8   2   12.62    1.86
  -2   8  -2   13.56    2.09
   2  -8   3    1.74    1.73
  -2   8  -3    1.70    2.22
   2  -8   4    5.70    2.18
  -2   8  -4    4.67    1.60
   2  -8   5    0.33    1.14
  -2   8  -5    0.25    0.99
   2  -8   6    7.73    1.75
  -2   8  -6    6.38    2.81
   2  -8   7   -0.29    1.62
  -2   8  -7    0.44    1.79
   2  -8   8    2.48    2.35
  -2   8  -8    2.67    1.53
   2  -8   9    4.85    2.80
  -2   8  -9    3.18    1.61
   2  -7 -13   15.50    1.59
   2  -7 -12   12.45    2.34
  -2   7  12    7.20    1.83
   2  -7 -11   41.11    2.29
  -2   7  11   37.98    3.68
   2  -7 -10   31.18    2.05
  -2   7  10   24.95    2.23
  -2   7  10   25.01    1.81
   2  -7  -9    6.28    1.28
  -2   7   9    4.05    1.78
  -2   7   9    7.14    1.77
   2  -7  -8   18.30    2.62
  -2   7   8   20.55    1.57
  -2   7   8   17.95    1.54
   2  -7  -7   43.59    3.58
  -2   7   7   30.16    2.83
  -2   7   7   37.59    2.96
   2  -7  -6    6.38    1.36
  -2   7   6    4.31    1.03
  -2   7   6    5.35    1.81
   2  -7  -5    0.78    1.62
  -2   7   5   -0.08    0.90
  -2   7   5    0.12    0.81
   2  -7  -4    7.70    1.56
  -2   7   4    5.74    1.13
  -2   7   4    5.20    1.88
   2  -7  -3   23.30    3.23
  -2   7   3   17.56    2.35
  -2   7   3   17.71    2.57
   2  -7  -2   19.51    2.02
  -2   7   2   16.83    2.07
  -2   7   2    1.64    1.21
   2  -7  -1   28.72    2.23
  -2   7   1   27.61    3.05
   2  -7   0    2.32    1.81
  -2   7   0    2.32    1.10
   2  -7   1    1.11    1.58
  -2   7  -1    1.59    1.08
   2  -7   2    4.13    1.54
  -2   7  -2    3.63    2.10
   2  -7   3    0.33    0.86
  -2   7  -3   -0.78    1.03
   2  -7   4   20.79    2.71
  -2   7  -4   19.84    3.13
   2  -7   5   22.78    2.84
  -2   7  -5   25.42    2.16
   2  -7   6    3.88    2.36
  -2   7  -6    3.55    1.32
   2  -7   7    1.66    1.16
  -2   7  -7    2.14    1.99
   2  -7   8    0.58    0.99
  -2   7  -8    0.70    2.30
   2  -7   9   -0.16    0.86
  -2   7  -9    0.49    2.37
   2  -7  10    0.36    0.93
  -2   7 -10    1.27    3.05
   2  -7  11    0.12    1.02
  -2   7 -11    0.41    2.78
   2  -6 -14    3.54    1.88
   2  -6 -14    9.20    2.95
   2  -6 -13    2.01    1.59
   2  -6 -13    2.99    1.44
   2  -6 -12   11.09    1.87
   2  -6 -11   50.19    2.74
  -2   6  11   28.65    2.55
   2  -6 -10    4.63    1.27
  -2   6  10    1.54    0.75
  -2   6  10    2.94    0.90
   2  -6  -9   46.44    3.44
  -2   6   9   32.87    1.70
  -2   6   9   32.82    2.49
   2  -6  -8   21.65    2.51
  -2   6   8   15.25    2.02
  -2   6   8   18.76    2.15
   2  -6  -7    8.60    1.24
  -2   6   7    6.53    1.59
  -2   6   7    6.41    1.72
   2  -6  -6  134.51    5.27
  -2   6   6  120.35    4.62
  -2   6   6  122.08    3.71
   2  -6  -5   60.16    2.62
  -2   6   5   49.86    2.95
  -2   6   5   59.18    2.39
   2  -6  -4   19.11    2.48
  -2   6   4   15.39    2.19
  -2   6   4   13.76    1.21
   2  -6  -3    4.39    1.11
  -2   6   3    4.33    1.42
  -2   6   3    3.66    1.60
   2  -6  -2   86.74    3.22
  -2   6   2   77.63    3.94
   2  -6  -1    0.28    1.24
  -2   6   1    0.21    1.03
   2  -6   0   10.21    2.36
  -2   6   0    8.39    2.01
   2  -6   1    0.26    0.77
  -2   6  -1    0.23    0.69
   2  -6   2    9.26    1.39
  -2   6  -2    8.77    1.37
   2  -6   3   41.12    2.43
  -2   6  -3   39.73    3.37
   2  -6   4   74.02    3.02
  -2   6  -4   71.22    3.00
   2  -6   5  136.31    4.35
  -2   6  -5  154.24    6.43
   2  -6   6   30.01    2.16
  -2   6  -6   31.27    2.28
   2  -6   7   38.37    2.29
  -2   6  -7   40.29    2.66
   2  -6   8    0.97    1.49
  -2   6  -8   -1.01    1.92
   2  -6   9    0.40    1.35
  -2   6  -9    0.36    1.75
   2  -6  10    2.55    1.82
  -2   6 -10    1.44    2.42
   2  -6  11    1.59    2.05
  -2   6 -11    0.16    1.92
   2  -6  12    6.71    2.54
  -2   6 -12    9.26    4.22
   2  -6  13   21.85    2.85
  -2   6 -13   41.95    6.87
   2  -5 -15    1.99    1.56
   2  -5 -15    3.12    1.65
   2  -5 -14    4.93    1.12
   2  -5 -14    6.18    1.71
   2  -5 -13   54.47    2.35
   2  -5 -13   56.68    2.43
   2  -5 -12   37.62    1.93
   2  -5 -12   36.64    2.54
   2  -5 -11    8.34    1.13
   2  -5 -10    0.71    0.69
  -2   5  10    0.27    0.81
   2  -5  -9    6.75    1.68
  -2   5   9    5.14    1.38
  -2   5   9    5.80    0.85
   2  -5  -8   24.13    2.23
  -2   5   8   23.30    1.98
  -2   5   8   20.25    1.26
   2  -5  -7  482.15   11.54
  -2   5   7  460.61   12.03
  -2   5   7  428.61   11.21
   2  -5  -6   12.76    2.07
  -2   5   6   12.13    1.86
  -2   5   6   15.61    1.43
   2  -5  -5   41.79    1.76
  -2   5   5   43.80    2.77
  -2   5   5   40.41    2.33
   2  -5  -4  100.30    4.11
  -2   5   4   86.28    3.28
  -2   5   4   94.91    3.84
   2  -5  -3    0.91    1.14
  -2   5   3    0.49    0.86
  -2   5   3    0.31    0.59
   2  -5  -2    0.85    1.28
  -2   5   2    0.77    0.65
   2  -5  -1  107.28    3.24
  -2   5   1  102.42    3.12
   2  -5   0   10.06    1.25
  -2   5   0    8.70    1.08
   2  -5   1    0.15    0.59
  -2   5  -1    0.64    0.68
   2  -5   2   73.65    2.73
  -2   5  -2   71.20    2.60
   2  -5   3   78.32    2.94
  -2   5  -3   76.81    3.80
   2  -5   4   20.80    1.69
  -2   5  -4   19.87    2.48
   2  -5   5   -0.32    1.16
  -2   5  -5    0.47    0.71
   2  -5   6    7.21    1.85
  -2   5  -6    5.55    1.89
   2  -5   7    3.96    1.81
  -2   5  -7    2.52    1.69
   2  -5   8   34.22    2.85
  -2   5  -8   33.53    2.16
   2  -5   9    0.36    1.13
  -2   5  -9    1.24    0.92
   2  -5  10    6.00    1.89
  -2   5 -10    5.43    1.32
   2  -5  11   10.94    1.63
  -2   5 -11   12.44    1.65
   2  -5  12   -0.04    0.63
  -2   5 -12    1.42    1.09
   2  -5  13    1.39    0.88
  -2   5 -13    0.39    0.92
   2  -5  14    1.03    1.00
  -2   5 -14    1.34    1.91
   2  -4 -15    0.60    1.21
   2  -4 -15    0.16    1.23
   2  -4 -15    1.56    1.44
   2  -4 -14    3.94    0.98
   2  -4 -14    3.38    1.75
   2  -4 -14    3.62    1.58
   2  -4 -13   37.12    2.65
   2  -4 -13   39.75    2.77
   2  -4 -13   39.39    2.85
   2  -4 -12    4.71    0.91
   2  -4 -12    3.79    1.44
   2  -4 -12    3.28    0.88
   2  -4 -11   -0.05    0.50
   2  -4 -11    0.36    0.79
   2  -4 -11    0.55    0.83
   2  -4 -10   15.75    1.39
   2  -4 -10    0.05    0.78
   2  -4  -9   24.09    1.41
  -2   4   9   21.41    1.67
   2  -4  -8    1.32    1.10
  -2   4   8    0.98    0.60
  -2   4   8    1.06    0.81
   2  -4  -7  817.82   20.31
  -2   4   7  707.03   17.15
  -2   4   7  732.06   18.26
   2  -4  -6    1.43    1.12
  -2   4   6    2.69    0.93
  -2   4   6    2.33    1.17
   2  -4  -5   64.39    2.21
  -2   4   5   61.96    2.82
  -2   4   5   55.88    2.27
   2  -4  -4   50.15    2.59
  -2   4   4   47.79    2.58
  -2   4   4   43.89    1.44
   2  -4  -3    3.47    1.29
  -2   4   3    1.83    0.86
  -2   4   3    3.20    0.74
   2  -4  -2   15.26    1.45
  -2   4   2   18.70    1.87
   2  -4  -1  101.23    3.94
  -2   4   1   82.41    2.45
   2  -4   0   93.54    3.53
  -2   4   0   88.69    2.52
   2  -4   1   16.46    1.22
  -2   4  -1   15.70    1.10
   2  -4   2    0.68    0.59
  -2   4  -2    0.60    0.60
   2  -4   3    1.58    1.21
  -2   4  -3    1.73    0.71
   2  -4   4   44.30    2.69
  -2   4  -4   37.23    2.15
   2  -4   5  270.72    6.50
  -2   4  -5  243.51    6.64
   2  -4   6   17.34    1.29
  -2   4  -6   19.85    1.43
   2  -4   7    5.59    1.60
  -2   4  -7    6.69    1.09
   2  -4   8  157.75    5.42
  -2   4  -8  169.10    5.94
   2  -4   9   17.83    2.06
  -2   4  -9   16.79    2.36
   2  -4  10    1.03    0.74
  -2   4 -10    0.72    1.29
   2  -4  11  114.01    3.91
  -2   4 -11  116.08    5.27
   2  -4  12   36.63    3.05
  -2   4 -12   38.29    3.30
   2  -4  13   20.63    2.23
  -2   4 -13   26.40    2.93
   2  -4  14    7.46    2.07
  -2   4 -14    6.41    2.22
   2  -4  15    2.86    1.88
  -2   4 -15    1.92    1.16
   2  -3 -16   25.02    2.78
   2  -3 -16   31.54    3.32
   2  -3 -15   31.14    3.13
   2  -3 -15   27.48    1.73
   2  -3 -15   20.05    2.09
   2  -3 -14    2.89    1.39
   2  -3 -14    3.06    1.45
   2  -3 -14    3.19    1.62
   2  -3 -13    0.02    0.56
   2  -3 -13    0.73    0.98
   2  -3 -13    0.63    0.88
   2  -3 -12   18.05    1.90
   2  -3 -12   16.40    1.85
   2  -3 -12   17.10    1.72
   2  -3 -11    1.94    1.02
   2  -3 -11    1.24    1.06
   2  -3 -11    1.68    1.08
   2  -3 -10    9.99    1.36
   2  -3 -10   10.18    0.96
   2  -3 -10   10.67    1.53
   2  -3  -9    6.20    1.10
   2  -3  -9    7.45    1.36
   2  -3  -8  238.01    6.61
   2  -3  -8  262.43    6.58
  -2   3   8  209.84    4.64
   2  -3  -7   83.69    2.45
  -2   3   7   71.65    1.65
  -2   3   7   33.79    1.54
   2  -3  -6    9.83    1.44
  -2   3   6    8.51    0.84
  -2   3   6    7.76    0.94
   2  -3  -5  275.22    6.87
  -2   3   5  252.21    5.62
  -2   3   5  261.99    6.47
   2  -3  -4  386.48    8.26
  -2   3   4  383.23    8.28
  -2   3   4  377.80    8.06
   2  -3  -3   62.79    1.78
  -2   3   3   65.09    1.90
  -2   3   3   61.92    1.87
   2  -3  -2  549.01   11.77
  -2   3   2  523.40   11.94
   2  -3  -1  188.29    4.87
  -2   3   1  179.71    3.96
   2  -3   0   50.60    1.65
  -2   3   0   52.38    2.27
   2  -3   1  287.30    7.22
  -2   3  -1  234.09    5.62
   2  -3   2   12.71    0.92
  -2   3  -2   15.51    0.97
   2  -3   3  299.95    7.21
  -2   3  -3  309.86    6.69
   2  -3   4  233.84    5.37
  -2   3  -4  166.67    3.58
   2  -3   5   10.16    1.43
  -2   3  -5    8.26    1.43
   2  -3   6   12.54    1.55
  -2   3  -6   13.15    1.65
   2  -3   7   22.50    1.82
  -2   3  -7   26.95    2.26
   2  -3   8   46.52    2.44
  -2   3  -8   56.07    2.17
   2  -3   9   48.52    1.83
  -2   3  -9   57.85    3.10
   2  -3  10   19.00    1.87
  -2   3 -10   21.83    2.26
   2  -3  11   27.26    2.22
  -2   3 -11   29.49    2.57
   2  -3  12    0.40    0.52
  -2   3 -12    0.78    1.16
   2  -3  13    0.25    0.88
  -2   3 -13   -0.05    0.52
   2  -3  14    2.73    1.44
  -2   3 -14    3.83    1.66
   2  -3  15    0.92    1.11
  -2   3 -15    1.04    1.32
   2  -3  16    3.10    1.02
  -2   3 -16    1.51    1.00
   2  -2 -16    6.50    1.99
   2  -2 -16    6.30    2.02
   2  -2 -16    2.72    1.86
   2  -2 -15   11.89    1.94
   2  -2 -15    7.01    1.99
   2  -2 -15    8.99    1.21
   2  -2 -14    1.90    0.69
   2  -2 -14    1.79    0.79
   2  -2 -14    1.41    1.26
   2  -2 -13    2.77    1.19
   2  -2 -13    1.88    0.78
   2  -2 -13    2.35    0.74
   2  -2 -12   62.50    3.10
   2  -2 -12   66.96    2.15
   2  -2 -12   64.45    2.97
   2  -2 -11    1.77    1.08
   2  -2 -11    1.02    0.97
   2  -2 -11    1.54    0.55
   2  -2 -10   20.57    1.18
   2  -2 -10   20.57    1.47
   2  -2 -10   19.10    1.82
   2  -2  -9   98.76    3.37
   2  -2  -9  100.91    3.02
   2  -2  -9   98.97    3.57
   2  -2  -8  109.49    3.00
   2  -2  -8  110.44    3.48
   2  -2  -8  108.84    3.68
   2  -2  -7  200.12    4.50
   2  -2  -7  201.82    4.68
   2  -2  -6   88.63    2.96
   2  -2  -6   87.14    2.22
  -2   2   6   86.20    2.18
   2  -2  -5   19.58    0.81
  -2   2   5  198.27    4.92
  -2   2   5  184.11    3.79
   2  -2  -4    1.31    0.48
  -2   2   4    2.15    0.46
  -2   2   4    1.03    0.41
   2  -2  -3   81.64    1.98
  -2   2   3   78.36    1.72
  -2   2   3   85.08    2.60
   2  -2  -2   82.35    2.52
  -2   2   2   79.55    2.47
   2  -2  -1 1564.87   36.04
  -2   2   1 1661.97   38.11
   2  -2   0  361.60    7.88
  -2   2   0  338.33    6.70
   2  -2   1   29.45    0.82
  -2   2  -1   41.84    1.68
   2  -2   2   84.90    2.14
  -2   2  -2   69.07    1.64
   2  -2   3    0.30    0.34
  -2   2  -3    0.60    0.62
   2  -2   4  113.57    2.58
  -2   2  -4   86.80    2.22
   2  -2   5  145.79    3.16
  -2   2  -5  168.49    4.32
   2  -2   6  348.10    8.17
  -2   2  -6  398.47    9.79
   2  -2   7   80.96    2.78
  -2   2  -7   93.08    2.57
   2  -2   8   64.22    2.40
  -2   2  -8   72.82    2.82
   2  -2   9    5.76    1.13
  -2   2  -9    4.11    1.16
   2  -2  10   18.00    1.61
  -2   2 -10   20.83    1.21
   2  -2  11  126.52    3.94
  -2   2 -11  166.03    4.39
   2  -2  12   95.12    2.79
  -2   2 -12  134.55    4.74
   2  -2  13   43.83    2.45
  -2   2 -13   62.58    3.24
   2  -2  14    1.05    0.94
  -2   2 -14    1.54    1.21
   2  -2  15    0.64    0.64
  -2   2 -15    0.61    0.65
   2  -1 -16   24.90    2.72
   2  -1 -16   14.95    1.49
   2  -1 -16   16.15    2.33
   2  -1 -15    5.09    1.75
   2  -1 -15    4.12    1.56
   2  -1 -14    2.40    1.34
   2  -1 -14    2.19    0.80
   2  -1 -14    1.69    1.34
   2  -1 -13    2.38    1.23
   2  -1 -13    2.14    1.13
   2  -1 -13    2.55    1.22
   2  -1 -12    8.13    1.35
   2  -1 -12    6.26    1.46
   2  -1 -12    6.81    1.43
   2  -1 -11   44.67    2.39
   2  -1 -11   46.20    2.20
   2  -1 -11   44.07    1.73
   2  -1 -10    2.26    0.88
   2  -1 -10    2.51    0.66
   2  -1 -10    2.23    0.63
   2  -1  -9    0.51    0.46
   2  -1  -9    0.65    0.59
   2  -1  -9    0.04    0.77
   2  -1  -8    0.82    0.55
   2  -1  -8    0.60    0.75
   2  -1  -8    0.54    0.77
   2  -1  -7  156.77    4.23
   2  -1  -7  157.36    3.47
   2  -1  -7  151.19    3.52
   2  -1  -6   72.58    1.88
   2  -1  -6   72.37    1.75
   2  -1  -6   68.47    1.87
   2  -1  -5    3.83    0.43
   2  -1  -5    3.61    0.89
   2  -1  -4  160.76    2.86
   2  -1  -4  164.29    3.99
  -2   1   4   45.76    0.94
   2  -1  -3   46.31    1.27
  -2   1   3   -0.08    0.14
   2  -1  -2  602.68   12.82
  -2   1   2   -0.05    0.10
   2  -1  -1  150.77    3.06
  -2   1   1  151.73    3.56
   2  -1   0  114.80    2.35
  -2   1   0  122.74    3.04
   2  -1   1  108.00    2.55
  -2   1  -1  115.48    2.78
   2  -1   2   26.18    0.66
  -2   1  -2   38.35    1.42
   2  -1   3    7.34    0.76
  -2   1  -3    6.59    0.70
   2  -1   4    1.17    0.48
  -2   1  -4    1.02    0.32
   2  -1   5  125.59    2.89
  -2   1  -5   99.41    2.16
   2  -1   6   28.79    1.27
  -2   1  -6   32.81    1.56
   2  -1   7   21.10    1.23
  -2   1  -7   26.85    1.53
   2  -1   8   32.80    1.42
  -2   1  -8   36.59    1.18
   2  -1   9    0.52    0.57
  -2   1  -9    1.06    0.70
   2  -1  10   69.59    2.31
  -2   1 -10   82.81    2.79
   2  -1  11   16.48    1.33
  -2   1 -11   19.09    1.53
   2  -1  12  116.79    3.49
  -2   1 -12  131.88    4.16
   2  -1  13    0.10    0.54
  -2   1 -13    0.78    0.86
   2  -1  14    3.05    1.06
  -2   1 -14    3.25    1.21
   2  -1  15    0.85    0.57
  -2   1 -15    0.37    0.81
   2   0 -16   24.55    2.81
   2   0 -16   23.10    1.78
   2   0 -15    1.77    1.46
   2   0 -15    2.21    0.96
   2   0 -15    3.24    0.97
   2   0 -14    0.82    0.98
   2   0 -14   -0.07    0.60
   2   0 -14    0.54    0.61
   2   0 -13    0.44    0.56
   2   0 -13    0.30    0.89
   2   0 -13    0.35    1.04
   2   0 -12   36.71    2.51
   2   0 -12   39.45    2.23
   2   0 -12   35.69    1.60
   2   0 -11   23.40    1.68
   2   0 -11   23.22    1.85
   2   0 -11   22.06    1.90
   2   0 -10    7.34    0.71
   2   0 -10    8.30    1.41
   2   0 -10    8.26    1.32
   2   0  -9    2.28    0.75
   2   0  -9    1.72    0.98
   2   0  -9    2.05    0.63
   2   0  -8   26.92    1.24
   2   0  -8   26.86    1.24
   2   0  -8   25.76    1.67
   2   0  -7  624.70   13.61
   2   0  -7  602.90   12.54
   2   0  -7  673.26   15.29
   2   0  -6    9.17    0.59
   2   0  -6   11.47    1.13
   2   0  -6    9.72    0.77
   2   0  -5  515.78    9.76
   2   0  -5  525.36   10.90
   2   0  -5  520.25   10.66
   2   0  -4  516.69   10.51
   2   0  -4  485.84    9.80
   2   0  -4  496.90    8.94
   2   0  -3  205.45    3.22
   2   0  -3  216.96    4.76
   2   0  -2  831.11   17.58
   2   0  -1 1239.44   26.26
  -2   0   1 1355.44   29.32
   2   0   0 1464.76   31.57
  -2   0   0 1486.68   32.04
   2   0   1 1748.90   39.06
  -2   0  -1 1749.06   39.03
   2   0   2  212.96    3.70
  -2   0  -2  209.81    3.63
   2   0   3  423.63    7.46
  -2   0  -3  627.59   12.15
   2   0   4  310.91    5.69
  -2   0  -4  293.71    5.31
   2   0   5 1428.85   30.66
  -2   0  -5 1641.49   36.45
   2   0   6   88.11    1.90
  -2   0  -6   88.51    1.66
   2   0   7  476.49    9.34
  -2   0  -7  583.98   12.24
   2   0   8  651.58   13.69
  -2   0  -8  707.82   15.15
   2   0   9   45.91    1.43
  -2   0  -9   51.43    1.67
   2   0  10   87.20    2.20
  -2   0 -10  107.62    2.89
   2   0  11  215.96    4.90
  -2   0 -11  265.75    6.29
   2   0  12   29.76    1.40
  -2   0 -12   33.39    2.03
  -2   0 -12   35.56    1.72
   2   0  13   32.89    1.54
  -2   0 -13   37.41    3.08
  -2   0 -13   33.92    1.73
  -2   0 -14   23.30    1.64
  -2   0 -14   26.59    2.03
  -2   0 -15    0.13    1.25
   2   1 -16    7.74    2.09
   2   1 -15    6.44    1.72
   2   1 -15    7.45    1.95
   2   1 -14   13.80    2.14
   2   1 -14   12.17    1.16
   2   1 -13    7.11    1.07
   2   1 -13    7.08    1.10
   2   1 -12    0.03    0.70
   2   1 -12   -0.19    0.52
   2   1 -11   43.86    2.29
   2   1 -11   46.20    2.85
   2   1 -10   15.68    0.94
   2   1 -10   17.42    1.90
   2   1  -9   15.60    1.70
   2   1  -8    8.62    0.85
   2   1  -7   30.00    1.89
   2   1  -6   44.10    1.90
   2   1  -5  412.03    8.99
  -2  -1   5  443.49    9.20
   2   1  -4    1.09    0.37
  -2  -1   4    1.09    0.40
   2   1  -3 1263.12   27.56
  -2  -1   3 1309.77   28.82
   2   1  -2    0.21    0.29
   2   1  -1   76.86    1.17
   2   1  -1   76.97    1.56
   2   1   0   11.14    0.40
   2   1   0   10.18    0.71
  -2  -1   0    9.86    0.36
   2   1   1   41.26    1.00
   2   1   1   43.40    1.15
  -2  -1  -1   41.73    1.03
   2   1   2   12.12    0.53
  -2  -1  -2   11.56    0.69
   2   1   3   -0.07    0.08
  -2  -1  -3   48.25    1.53
  -2  -1  -3   47.23    0.92
   2   1   4    0.03    0.07
  -2  -1  -4   32.14    0.60
  -2  -1  -4   32.29    1.39
   2   1   5   -0.18    0.10
  -2  -1  -5    1.73    0.75
  -2  -1  -5    1.73    0.23
   2   1   6    0.46    0.14
  -2  -1  -6   19.86    1.45
  -2  -1  -6   18.65    0.56
   2   1   7    0.01    0.10
  -2  -1  -7   21.28    1.69
  -2  -1  -7   22.21    0.69
   2   1   8    0.02    0.10
  -2  -1  -8    6.00    0.41
  -2  -1  -8    6.79    1.33
   2   1   9    0.07    0.14
  -2  -1  -9    0.11    0.25
  -2  -1  -9    0.18    0.47
   2   1  10    0.06    0.16
  -2  -1 -10    1.20    0.74
  -2  -1 -10    1.05    0.55
  -2  -1 -11  858.24   23.06
  -2  -1 -11  932.89   20.68
  -2  -1 -12   11.33    2.27
  -2  -1 -12   14.02    0.91
  -2  -1 -13   12.09    1.50
  -2  -1 -13    9.90    0.92
  -2  -1 -14    0.85    1.54
  -2  -1 -14    0.70    0.67
  -2  -1 -14    0.46    0.42
  -2  -1 -15    5.13    1.45
   2   2 -16    4.06    1.61
   2   2 -15    3.39    1.34
   2   2 -14   28.10    1.93
   2   2 -13    2.57    0.83
   2   2 -13    4.63    1.57
   2   2 -12   51.02    2.27
   2   2 -11    7.23    1.06
   2   2 -10  210.06    6.50
  -2  -2  10  205.04    6.35
   2   2  -9    1.03    0.67
  -2  -2   9    1.58    0.71
   2   2  -8   13.60    1.71
  -2  -2   8    8.97    1.49
   2   2  -7    2.28    0.70
  -2  -2   7    1.00    0.54
   2   2  -6   61.92    2.54
  -2  -2   6   63.78    2.52
   2   2  -5  430.83    9.09
  -2  -2   5  432.88    9.11
   2   2  -4   96.98    2.86
  -2  -2   4   88.89    2.10
   2   2  -3    7.20    0.61
  -2  -2   3    7.94    0.95
   2   2  -2  388.38    8.27
  -2  -2   2  379.76    7.43
   2   2  -1 5390.17  151.24
  -2  -2   1 5185.44  143.09
   2   2   0 8321.09  251.99
   2   2   0 8536.97  260.10
  -2  -2   0 8251.99  249.15
   2   2   1 4252.84  112.09
   2   2   1 4246.95  111.17
  -2  -2  -1 4123.73  107.39
  -2  -2  -1 4220.79  110.74
   2   2   2  159.28    3.46
   2   2   2  155.81    2.77
  -2  -2  -2  152.17    2.65
  -2  -2  -2  154.90    2.91
   2   2   3 1728.27   38.95
   2   2   3 1680.62   35.40
  -2  -2  -3 1813.08   41.28
   2   2   4  213.66    3.07
   2   2   4  216.87    4.82
   2   2   4  220.27    3.14
  -2  -2  -4  224.90    4.98
   2   2   5    5.75    0.61
  -2  -2  -5    6.63    0.94
  -2  -2  -6   30.36    1.16
  -2  -2  -7  226.69    5.76
  -2  -2  -8   34.82    2.07
  -2  -2  -9    2.11    1.13
  -2  -2 -10  198.25    3.24
  -2  -2 -10  196.27    3.21
  -2  -2 -10  194.33    6.19
  -2  -2 -11  170.73    2.88
  -2  -2 -11  170.28    2.99
  -2  -2 -11  177.30    6.02
  -2  -2 -12   22.94    2.55
  -2  -2 -12   22.01    0.63
  -2  -2 -12   21.39    0.72
  -2  -2 -13   77.90    1.73
  -2  -2 -13   89.55    3.21
  -2  -2 -13   77.65    1.53
  -2  -2 -14  110.62    4.05
  -2  -2 -15   24.06    3.28
  -2  -2 -16    0.89    1.84
  -2  -2 -17    1.14    1.24
  -2  -2 -18    3.08    2.59
   2   3 -15    0.16    0.64
   2   3 -14    0.38    1.13
   2   3 -13   -0.44    0.89
  -2  -3  13   -0.09    0.59
   2   3 -12   16.03    2.40
  -2  -3  12   17.61    2.45
   2   3 -11  102.71    3.54
  -2  -3  11  102.09    4.63
   2   3 -10  167.43    5.91
  -2  -3  10  167.99    4.84
   2   3  -9   24.82    1.56
  -2  -3   9   21.38    2.20
   2   3  -8    6.43    1.57
  -2  -3   8    6.99    1.53
   2   3  -7   20.88    1.28
  -2  -3   7   19.96    1.21
   2   3  -6    5.93    0.83
  -2  -3   6    5.26    1.25
   2   3  -5   40.23    2.10
  -2  -3   5   38.80    1.36
   2   3  -4    0.69    0.80
  -2  -3   4    1.06    0.74
   2   3  -3   59.32    2.28
  -2  -3   3   52.05    1.45
   2   3  -2  131.64    3.32
  -2  -3   2  135.72    2.91
   2   3  -1   54.88    1.38
  -2  -3   1   60.58    1.97
   2   3   0   40.26    1.24
   2   3   0   52.24    1.61
  -2  -3   0   54.03    1.33
   2   3   1  489.28    9.58
   2   3   1  482.02    9.61
  -2  -3  -1  523.41   10.49
   2   3   2   61.72    1.47
   2   3   2   59.01    1.39
  -2  -3  -2   60.86    1.86
  -2  -3  -2   62.09    1.45
   2   3   3  349.90    6.30
   2   3   3  345.07    6.87
  -2  -3  -3  342.03    6.07
  -2  -3  -3  336.27    6.60
   2   3   4  136.06    2.25
   2   3   4  142.82    3.06
  -2  -3  -4  136.49    2.24
  -2  -3  -4  143.04    3.53
   2   3   5    2.84    0.53
   2   3   5    3.43    0.23
  -2  -3  -5    3.87    0.23
  -2  -3  -5    3.96    0.57
   2   3   6  743.00   16.58
  -2  -3  -6  896.01   20.65
   2   3   7   55.03    2.48
  -2  -3  -7   53.15    2.41
  -2  -3  -8   35.71    1.57
  -2  -3  -9   25.42    1.45
  -2  -3 -10   94.80    4.08
  -2  -3 -11    1.30    1.34
  -2  -3 -12    1.90    1.53
  -2  -3 -13    0.70    1.39
  -2  -3 -14    1.98    1.09
  -2  -3 -15   72.37    3.43
  -2  -3 -16    0.92    1.86
  -2  -3 -17   15.25    3.64
  -2  -3 -18   15.79    2.47
   2   4 -15    6.65    2.57
   2   4 -14    8.79    2.61
  -2  -4  14    6.45    2.16
   2   4 -13   -0.75    1.30
  -2  -4  13    0.93    0.98
   2   4 -12   28.28    1.86
  -2  -4  12   30.97    2.16
   2   4 -11    9.83    2.49
  -2  -4  11    8.16    2.14
   2   4 -10   65.31    2.90
  -2  -4  10   60.13    3.67
   2   4  -9    7.31    2.06
  -2  -4   9    6.96    1.13
   2   4  -8  102.13    4.41
  -2  -4   8   95.86    4.01
   2   4  -7    6.98    1.09
  -2  -4   7    5.90    1.50
   2   4  -6  257.66    6.38
  -2  -4   6  241.72    5.82
   2   4  -5   38.27    1.72
  -2  -4   5   36.23    2.32
   2   4  -4  164.21    4.08
  -2  -4   4  158.65    4.78
   2   4  -3  227.10    5.14
  -2  -4   3  223.09    4.96
   2   4  -2    7.17    1.20
  -2  -4   2    5.19    1.05
   2   4  -1  272.68    5.61
  -2  -4   1  285.24    6.50
   2   4   0   19.43    1.34
  -2  -4   0   19.01    0.82
   2   4   1   55.03    1.78
   2   4   1   51.84    1.43
  -2  -4  -1   57.52    1.85
   2   4   2    7.71    0.61
   2   4   2    6.16    0.44
  -2  -4  -2    8.03    0.79
   2   4   3    3.90    0.58
   2   4   3    4.07    0.38
  -2  -4  -3    3.94    0.35
  -2  -4  -3    5.09    0.70
   2   4   4  122.01    3.46
   2   4   4  120.20    2.44
  -2  -4  -4  121.26    3.44
  -2  -4  -4  122.15    2.45
   2   4   5  350.73    6.50
   2   4   5  357.68    8.51
  -2  -4  -5  354.69    6.50
  -2  -4  -5  348.31    8.24
   2   4   6   81.63    1.70
   2   4   6   80.12    2.32
  -2  -4  -6   80.34    3.09
  -2  -4  -6   85.29    1.59
   2   4   7  205.24    5.63
   2   4   7  204.14    3.33
  -2  -4  -7  221.98    3.80
  -2  -4  -7  218.03    6.03
   2   4   8   44.16    2.52
  -2  -4  -8   42.38    1.81
  -2  -4  -8   44.37    0.76
  -2  -4  -8   44.82    0.77
   2   4   9  233.41    5.88
  -2  -4  -9  255.81    7.52
  -2  -4 -10   59.18    2.43
  -2  -4 -11   71.05    2.79
  -2  -4 -12    5.81    1.99
  -2  -4 -13   31.30    3.23
  -2  -4 -14   16.40    2.96
  -2  -4 -15    8.49    1.77
  -2  -4 -16   40.71    3.09
  -2  -4 -17    1.78    1.53
   2   5 -14    0.89    1.75
  -2  -5  14    0.90    1.84
   2   5 -13    1.53    2.70
  -2  -5  13    2.59    1.32
   2   5 -12   12.60    1.80
  -2  -5  12   11.08    1.68
   2   5 -11    3.40    1.26
  -2  -5  11    2.09    1.64
   2   5 -10    1.89    1.73
  -2  -5  10    0.80    1.34
   2   5  -9   40.05    3.10
  -2  -5   9   39.76    2.16
   2   5  -8    3.83    1.05
  -2  -5   8    4.09    1.70
   2   5  -7   38.48    2.00
  -2  -5   7   35.07    2.73
   2   5  -6   23.57    1.60
  -2  -5   6   23.82    1.57
   2   5  -5    0.77    0.69
  -2  -5   5   -0.10    0.50
   2   5  -4  175.03    4.61
  -2  -5   4  173.30    5.52
   2   5  -3  271.61    7.60
  -2  -5   3  254.05    6.00
   2   5  -2  121.50    4.11
  -2  -5   2  119.24    3.17
   2   5  -1   47.24    1.70
  -2  -5   1   47.36    2.35
   2   5   0    8.18    0.77
  -2  -5   0    7.73    0.77
   2   5   1  143.37    4.11
   2   5   1  151.41    3.89
  -2  -5  -1  129.09    2.89
   2   5   2   90.52    2.49
   2   5   2   92.95    2.24
  -2  -5  -2   89.94    2.62
   2   5   3  160.47    3.94
   2   5   3  162.30    4.68
  -2  -5  -3  158.47    3.74
   2   5   4   23.79    1.34
   2   5   4   22.07    1.24
  -2  -5  -4   23.27    1.17
   2   5   5   79.75    1.87
   2   5   5  100.92    2.72
  -2  -5  -5  119.73    3.46
  -2  -5  -5  105.95    2.59
   2   5   6   98.04    2.24
   2   5   6   98.26    3.78
  -2  -5  -6   98.49    2.94
  -2  -5  -6   97.51    2.23
   2   5   7   -0.37    0.81
   2   5   7    0.18    0.29
  -2  -5  -7    0.61    0.34
  -2  -5  -7    0.14    0.61
   2   5   8   48.67    1.98
   2   5   8   46.30    1.12
  -2  -5  -8   53.56    3.02
  -2  -5  -8   51.99    1.22
   2   5   9   -0.13    0.86
  -2  -5  -9    0.97    0.91
  -2  -5  -9    0.05    0.19
   2   5  10    5.83    1.71
  -2  -5 -10    4.17    1.69
  -2  -5 -10    3.87    0.34
  -2  -5 -10    3.78    0.32
  -2  -5 -11   19.83    1.78
  -2  -5 -12    5.66    2.10
  -2  -5 -13    0.09    1.15
  -2  -5 -14    9.40    2.58
  -2  -5 -15    0.93    1.89
  -2  -5 -16    9.52    3.24
  -2  -5 -17   13.71    3.67
   2   6 -13   -0.53    1.60
  -2  -6  13    0.09    0.83
   2   6 -12    0.02    1.70
  -2  -6  12   -0.65    1.55
   2   6 -11    7.15    2.21
  -2  -6  11    5.07    2.18
   2   6 -10   26.29    2.85
  -2  -6  10   20.73    2.00
   2   6  -9   17.25    3.52
  -2  -6   9   15.55    2.67
   2   6  -8    7.61    2.72
  -2  -6   8    5.51    2.02
   2   6  -7    1.44    1.57
  -2  -6   7    1.37    0.91
   2   6  -6   42.51    3.28
  -2  -6   6   36.86    1.95
   2   6  -5   17.95    2.72
  -2  -6   5   13.03    2.13
   2   6  -4  270.61    8.68
  -2  -6   4  236.13    6.21
   2   6  -3   79.00    2.93
  -2  -6   3   77.47    2.72
   2   6  -2  114.28    4.53
  -2  -6   2  113.77    4.30
   2   6  -1   17.73    1.36
  -2  -6   1   16.44    1.25
   2   6   0   15.00    1.87
  -2  -6   0   13.34    1.61
   2   6   1  381.41    9.86
   2   6   1  407.28    9.97
  -2  -6  -1  357.16    8.86
   2   6   2   11.67    1.53
   2   6   2   13.40    1.78
  -2  -6  -2   12.39    0.90
   2   6   3   32.94    1.65
   2   6   3   35.67    1.33
  -2  -6  -3   36.77    1.90
   2   6   4    0.32    0.69
   2   6   4    0.35    0.95
  -2  -6  -4   -0.07    0.30
   2   6   5    0.18    0.51
   2   6   5    0.13    0.88
  -2  -6  -5    0.65    0.60
   2   6   6   49.64    2.10
   2   6   6   50.93    1.77
  -2  -6  -6   51.26    1.38
   2   6   7   -0.40    1.01
   2   6   7   -0.27    0.46
  -2  -6  -7    0.33    0.77
  -2  -6  -7    0.47    0.48
   2   6   8   41.04    3.06
   2   6   8   46.41    1.52
  -2  -6  -8   47.51    3.14
  -2  -6  -8   43.99    1.41
   2   6   9   47.47    2.20
   2   6   9   44.73    1.60
  -2  -6  -9   47.24    2.34
  -2  -6  -9   44.39    1.30
   2   6  10    2.07    0.28
  -2  -6 -10  106.04    2.33
  -2  -6 -10  112.62    5.20
   2   6  11   32.06    2.06
  -2  -6 -11   36.02    0.97
  -2  -6 -11   34.32    0.93
  -2  -6 -11   39.96    2.37
  -2  -6 -12   34.18    3.61
  -2  -6 -13   36.20    3.96
  -2  -6 -14   20.53    3.74
  -2  -6 -15   -0.06    1.51
  -2  -6 -16   61.59    6.08
   2   7 -12    0.58    2.39
  -2  -7  12   -0.25    0.93
   2   7 -11   -0.31    1.54
  -2  -7  11    0.02    1.28
   2   7 -10   10.25    1.80
  -2  -7  10    9.28    3.03
   2   7  -9   -0.24    0.86
  -2  -7   9   -0.27    0.91
   2   7  -8    5.10    1.44
  -2  -7   8    4.35    1.35
   2   7  -7    1.87    1.14
  -2  -7   7    0.58    1.34
   2   7  -6    0.00    0.51
  -2  -7   6    0.66    0.82
   2   7  -5   17.11    1.73
  -2  -7   5   16.34    1.65
   2   7  -4   16.25    1.74
  -2  -7   4   13.13    2.42
   2   7  -3   56.59    3.92
  -2  -7   3   47.73    2.35
   2   7  -2   30.43    2.00
  -2  -7   2   29.31    2.66
   2   7  -1   19.43    2.52
  -2  -7   1   17.94    2.19
   2   7   0   30.88    1.81
  -2  -7   0   26.48    1.51
   2   7   1    0.57    0.71
   2   7   1    0.10    0.60
  -2  -7  -1    0.38    0.91
   2   7   2    7.10    1.83
   2   7   2    7.82    1.57
  -2  -7  -2    7.57    0.92
   2   7   3   10.97    1.09
   2   7   3    9.82    2.01
  -2  -7  -3   11.67    1.55
   2   7   4   82.91    3.16
   2   7   4   85.27    3.06
  -2  -7  -4   82.92    2.43
   2   7   5   10.62    1.26
   2   7   5   10.28    0.86
  -2  -7  -5   11.08    1.36
   2   7   6    5.82    1.05
   2   7   6    5.75    1.84
  -2  -7  -6    6.36    1.11
   2   7   7    4.14    0.91
   2   7   7    3.35    1.75
  -2  -7  -7    4.45    0.61
   2   7   8   -0.12    0.55
   2   7   8    1.34    0.77
  -2  -7  -8    0.24    0.54
   2   7   9   42.38    2.37
   2   7   9   42.70    1.66
  -2  -7  -9   -0.11    0.75
   2   7  10   45.50    2.45
   2   7  10   43.12    1.55
  -2  -7 -10   51.89    2.85
  -2  -7 -10   47.71    1.74
   2   7  11    3.30    1.28
  -2  -7 -11    2.67    0.63
  -2  -7 -11    4.01    2.06
   2   7  12   -0.32    1.32
  -2  -7 -12   -0.47    1.62
  -2  -7 -13   29.90    2.57
  -2  -7 -14   22.31    2.53
  -2  -7 -15   -0.96    1.42
  -2  -7 -16   39.22    3.50
   2   8 -11    3.45    4.47
  -2  -8  11    3.35    1.84
   2   8 -10   27.35    5.27
  -2  -8  10   25.91    4.21
   2   8  -9    2.55    2.97
  -2  -8   9    2.32    2.40
   2   8  -8   19.34    2.75
  -2  -8   8   16.29    2.11
   2   8  -7    5.83    1.90
  -2  -8   7    4.16    2.09
   2   8  -6    4.43    2.80
  -2  -8   6    2.93    1.97
   2   8  -5   26.06    4.08
  -2  -8   5   22.18    2.14
   2   8  -4  171.75    8.72
  -2  -8   4  148.00    7.03
   2   8  -3  107.31    4.60
  -2  -8   3   93.55    3.88
   2   8  -2   40.61    4.01
  -2  -8   2   29.26    1.97
   2   8  -1    3.15    2.02
  -2  -8   1    3.62    1.72
   2   8   0   -0.74    1.57
   2   8   0   38.71    2.71
  -2  -8   0   33.92    1.95
   2   8   1  140.72    6.45
   2   8   1  140.03    4.39
  -2  -8  -1  129.31    4.97
   2   8   2   19.80    2.81
   2   8   2   20.18    1.61
  -2  -8  -2   18.44    1.38
   2   8   3    3.41    1.87
   2   8   3    3.25    0.89
  -2  -8  -3    3.15    1.35
   2   8   4   10.56    1.06
   2   8   4    9.25    2.33
  -2  -8  -4   11.49    1.69
   2   8   5   25.67    2.92
   2   8   5   24.52    2.04
  -2  -8  -5   25.79    1.39
   2   8   6    1.02    0.90
   2   8   6    0.27    0.53
  -2  -8  -6    1.04    0.95
   2   8   7   60.33    2.63
   2   8   7   61.09    2.99
  -2  -8  -7   63.05    2.83
   2   8   8  128.05    4.65
   2   8   8  121.07    3.79
  -2  -8  -8  133.08    4.20
   2   8   9   34.40    1.88
   2   8   9   35.59    2.43
  -2  -8  -9   36.68    1.99
   2   8  10   11.66    1.22
   2   8  10   15.51    2.71
  -2  -8 -10   14.42    1.37
   2   8  11    8.50    2.60
   2   8  11    8.71    0.93
   2   8  12    4.48    2.64
   2   8  13    0.65    1.65
  -2  -8 -14    1.84    1.45
  -2  -8 -15   34.46    3.01
   2   9  -9   -1.75    4.01
  -2  -9   9   -0.27    1.81
   2   9  -8    1.04    3.44
  -2  -9   8    1.69    1.42
   2   9  -7    0.26    2.60
  -2  -9   7    0.19    0.86
  -2  -9   6    0.11    1.28
   2   9  -5   36.50    5.58
  -2  -9   5   25.57    2.55
   2   9  -4   11.80    2.46
  -2  -9   4   10.99    3.23
   2   9  -3    5.57    1.89
  -2  -9   3    2.50    1.38
   2   9  -2    0.54    1.89
  -2  -9   2    0.81    1.51
   2   9  -1    0.34    0.91
  -2  -9   1    0.85    0.91
   2   9   0    1.20    1.03
   2   9   0   -0.37    1.54
  -2  -9   0    1.08    1.43
   2   9   1    8.50    2.54
   2   9   1    7.29    1.41
  -2  -9  -1    4.78    1.15
   2   9   2    4.76    2.27
   2   9   2    4.12    1.15
  -2  -9  -2    3.96    1.66
   2   9   3    6.35    2.00
   2   9   3    6.63    2.49
  -2  -9  -3    4.76    1.05
   2   9   4   20.03    2.37
   2   9   4   25.07    3.35
  -2  -9  -4   21.32    2.30
   2   9   5   56.39    4.41
   2   9   5   59.40    2.43
  -2  -9  -5   60.43    3.29
   2   9   6   21.51    2.25
   2   9   6   16.44    3.41
  -2  -9  -6   17.82    1.38
   2   9   7   29.46    2.32
   2   9   7   33.89    3.78
  -2  -9  -7   31.40    1.61
   2   9   8   30.05    2.26
   2   9   8   30.31    3.77
  -2  -9  -8   27.71    1.45
   2   9   9   27.58    2.15
   2   9   9   30.68    3.66
  -2  -9  -9   25.75    1.95
   2   9  10    4.83    2.21
   2   9  10    2.31    1.09
  -2  -9 -10    2.90    0.68
   2   9  11    0.92    1.19
   2   9  12   -0.25    1.16
   2   9  13    2.72    1.48
   2   9  14   15.85    2.06
   2  10  -7    7.80    4.23
  -2 -10   7    4.82    2.58
   2  10  -6   16.80    4.95
  -2 -10   6   11.44    3.17
   2  10  -5    4.92    2.23
  -2 -10   5    6.49    2.01
   2  10  -4  140.15    6.76
  -2 -10   4  128.22    7.83
   2  10  -3   -1.92    2.68
  -2 -10   3   -0.09    1.03
   2  10  -2    3.02    2.42
  -2 -10   2    5.03    2.74
   2  10  -1    3.58    1.55
   2  10  -1    2.51    1.44
  -2 -10   1    2.67    1.27
   2  10   0    3.51    2.50
   2  10   0    3.51    2.27
  -2 -10   0    3.86    2.10
   2  10   1   12.24    1.78
   2  10   1   11.94    2.12
  -2 -10  -1    8.47    1.56
   2  10   2   33.61    2.89
   2  10   2   36.48    4.16
  -2 -10  -2   26.93    2.05
   2  10   3    2.20    1.73
   2  10   3    3.02    1.55
  -2 -10  -3    2.12    1.62
   2  10   4    3.77    1.87
   2  10   4    4.92    2.53
  -2 -10  -4    2.52    1.03
   2  10   5   25.66    3.61
   2  10   5   23.44    2.93
  -2 -10  -5   22.10    1.71
   2  10   6    1.37    1.36
   2  10   6    0.77    2.18
  -2 -10  -6    0.51    1.14
   2  10   7    1.49    0.82
   2  10   7    0.64    2.22
  -2 -10  -7    1.08    1.23
   2  10   8    0.40    1.12
   2  10   8    1.07    1.91
  -2 -10  -8    0.08    0.83
   2  10   9   -0.31    0.59
   2  10   9    0.82    1.57
  -2 -10  -9    0.34    0.94
   2  10  10    3.27    2.43
   2  10  10    2.03    1.26
   2  10  11   11.78    3.38
   2  10  12    0.54    2.04
   2  11  -4    2.70    1.73
  -2 -11   4    3.26    1.86
   2  11  -3   -0.76    2.12
  -2 -11   3   -0.44    2.23
   2  11  -2    0.47    1.75
   2  11  -2   -0.42    1.10
  -2 -11   2   -0.03    0.94
   2  11  -1    0.24    1.09
   2  11  -1   -1.63    1.83
  -2 -11   1    0.64    1.76
   2  11   0    2.27    3.17
   2  11   0    1.36    1.70
  -2 -11   0    2.27    1.31
   2  11   1    3.47    3.43
   2  11   1    7.68    2.37
  -2 -11  -1    6.48    2.43
   2  11   2    0.59    2.67
   2  11   2    2.37    1.94
  -2 -11  -2    1.04    1.79
   2  11   3    0.81    1.60
   2  11   3    0.83    1.51
  -2 -11  -3   -0.07    0.72
   2  11   4    4.52    2.28
   2  11   4    6.32    1.99
  -2 -11  -4    5.13    2.20
   2  11   5    0.04    1.25
   2  11   5    1.39    1.60
  -2 -11  -5   -0.01    0.87
   2  11   6   -0.83    1.75
   2  11   6    0.48    1.10
  -2 -11  -6    0.47    1.31
   2  11   7    1.92    1.46
   2  11   7   -0.33    2.40
  -2 -11  -7    1.53    1.51
   2  11   8    4.07    2.62
   2  11   8    1.15    1.45
  -2 -11  -8    3.32    1.68
   2  11   9    3.95    1.26
   2  11   9    6.00    2.97
  -2 -11  -9    8.28    1.98
   2  12   2    1.48    2.21
  -2 -12  -2    1.61    1.25
   2  12   3    1.84    2.88
   2  12   3    0.36    1.92
  -2 -12  -3    1.78    1.98
   2  12   4    0.42    1.18
  -2 -12  -4    0.26    1.50
   3  -9  -7   19.50    3.64
  -3   9   7    8.87    2.73
  -3   9   7    9.98    2.90
   3  -9  -6    0.47    2.75
  -3   9   6   -0.20    1.33
   3  -9  -5    2.11    2.79
  -3   9   5    3.46    1.30
  -3   9   5    0.28    2.26
   3  -9  -4    1.45    1.64
  -3   9   4    0.47    1.22
  -3   9   4    1.25    1.20
   3  -9  -3   -0.40    2.16
  -3   9   3    0.70    1.19
  -3   9   3    0.23    1.05
   3  -9  -2    0.26    0.96
  -3   9   2    1.40    2.15
  -3   9   2    2.54    1.39
   3  -9  -1    0.09    1.41
  -3   9   1   -0.10    1.26
  -3   9   1    2.25    1.15
   3  -9   0    3.06    2.33
  -3   9   0    1.55    1.50
   3  -9   1    4.74    4.20
  -3   9  -1    2.06    2.61
   3  -9   2    6.33    1.93
  -3   9  -2    6.44    1.91
   3  -9   3    1.37    1.91
  -3   9  -3    1.72    2.49
   3  -9   4    0.23    0.93
  -3   9  -4   -0.29    2.00
   3  -9   5    0.94    1.69
  -3   9  -5    1.14    1.58
   3  -8 -10    4.02    1.70
  -3   8  10    2.35    1.47
  -3   8  10    1.74    1.05
   3  -8  -9    2.38    1.53
  -3   8   9    3.34    1.74
  -3   8   9    1.32    1.64
   3  -8  -8    4.95    2.82
  -3   8   8    5.07    2.26
  -3   8   8    4.86    1.95
   3  -8  -7   23.16    4.58
  -3   8   7   15.84    2.78
  -3   8   7   10.85    2.52
   3  -8  -6    9.55    2.28
  -3   8   6    6.28    2.06
  -3   8   6    0.09    1.71
   3  -8  -5    1.60    2.60
  -3   8   5    1.04    0.96
  -3   8   5    1.36    1.76
   3  -8  -4   -0.49    2.18
  -3   8   4    1.78    1.68
  -3   8   4    0.84    1.13
   3  -8  -3    1.41    1.62
  -3   8   3    2.54    1.70
  -3   8   3    0.94    1.26
   3  -8  -2    0.30    1.76
  -3   8   2    0.44    0.82
  -3   8   2   -0.05    1.47
   3  -8  -1    2.11    1.49
  -3   8   1   -1.10    1.79
   3  -8   0   15.95    3.13
  -3   8   0   18.62    2.25
   3  -8   1   -0.63    1.70
  -3   8  -1    0.93    1.89
   3  -8   2   27.37    3.30
  -3   8  -2   20.06    2.29
   3  -8   3   -0.55    1.83
  -3   8  -3   -0.23    1.64
   3  -8   4   -0.09    1.47
  -3   8  -4   -0.92    1.33
   3  -8   5   30.32    2.31
  -3   8  -5   38.13    4.68
   3  -8   6    5.26    2.06
  -3   8  -6    3.66    3.15
   3  -8   7   34.39    4.37
  -3   8  -7   41.52    3.68
   3  -8   8    0.58    1.92
  -3   8  -8    0.55    1.47
   3  -7 -12    3.98    2.24
   3  -7 -11    1.43    1.87
  -3   7  11    1.06    1.30
   3  -7 -10    2.81    2.07
  -3   7  10    1.13    1.63
  -3   7  10    1.48    0.82
   3  -7  -9    5.93    2.30
  -3   7   9    7.79    1.23
  -3   7   9    4.48    1.13
   3  -7  -8   13.72    2.78
  -3   7   8   10.93    1.55
  -3   7   8   11.04    2.00
   3  -7  -7    3.16    1.30
  -3   7   7    2.70    1.08
  -3   7   7    1.91    0.94
   3  -7  -6    1.39    1.78
  -3   7   6    0.64    0.93
  -3   7   6    1.33    1.19
   3  -7  -5   11.54    1.81
  -3   7   5   10.49    1.33
  -3   7   5   12.37    1.59
   3  -7  -4   31.31    3.61
  -3   7   4   25.92    2.04
  -3   7   4   22.05    2.57
   3  -7  -3   -0.52    1.11
  -3   7   3   -0.31    0.45
  -3   7   3    0.51    0.57
   3  -7  -2    1.59    2.15
  -3   7   2    1.32    0.89
  -3   7   2    1.27    1.03
   3  -7  -1    1.31    1.31
  -3   7   1    0.83    1.61
   3  -7   0    0.05    1.28
  -3   7   0    0.39    1.50
   3  -7   1    2.74    2.31
  -3   7  -1    1.77    1.17
   3  -7   2    7.12    1.52
  -3   7  -2    6.92    2.49
   3  -7   3   -0.22    1.09
  -3   7  -3   -0.43    0.99
   3  -7   4    2.89    2.12
  -3   7  -4    2.09    2.05
   3  -7   5    0.82    1.75
  -3   7  -5    0.41    1.10
   3  -7   6    1.41    1.03
  -3   7  -6    0.85    1.25
   3  -7   7    0.31    1.09
  -3   7  -7    2.06    2.37
   3  -7   8    0.82    1.09
  -3   7  -8    0.60    1.83
   3  -7   9    0.93    1.14
  -3   7  -9    1.46    2.15
   3  -7  10    1.27    1.30
  -3   7 -10    1.03    1.29
   3  -6 -13    6.00    2.27
   3  -6 -13    8.35    3.67
   3  -6 -12    6.49    2.12
   3  -6 -11    6.35    3.04
   3  -6 -10    6.63    2.88
  -3   6  10    2.00    1.24
   3  -6  -9    1.88    1.28
  -3   6   9    0.89    1.15
  -3   6   9    0.76    0.65
   3  -6  -8    3.75    1.38
  -3   6   8    2.29    1.46
  -3   6   8    2.05    1.21
   3  -6  -7   16.64    2.93
  -3   6   7   12.55    2.17
  -3   6   7   10.28    1.71
   3  -6  -6   31.74    3.15
  -3   6   6   27.11    2.28
  -3   6   6   31.64    2.87
   3  -6  -5   11.38    1.51
  -3   6   5   11.42    1.13
  -3   6   5   12.48    2.23
   3  -6  -4   -0.98    1.54
  -3   6   4   -0.27    1.10
  -3   6   4    0.36    0.82
   3  -6  -3   20.16    2.85
  -3   6   3   17.59    2.55
  -3   6   3   15.77    1.95
   3  -6  -2   38.30    2.33
  -3   6   2   35.95    3.12
   3  -6  -1   48.86    4.14
  -3   6   1   41.55    3.38
   3  -6   0  114.80    5.77
  -3   6   0   93.18    4.74
   3  -6   1   42.67    2.73
  -3   6  -1   32.92    2.16
   3  -6   2   95.67    3.80
  -3   6  -2   87.07    4.74
   3  -6   3    3.44    1.21
  -3   6  -3    4.47    2.05
   3  -6   4    9.72    2.89
  -3   6  -4   13.24    1.71
   3  -6   5    1.25    1.69
  -3   6  -5    2.22    1.24
   3  -6   6   47.16    3.48
  -3   6  -6   54.49    4.20
   3  -6   7    0.42    1.22
  -3   6  -7    2.21    1.21
   3  -6   8    2.78    2.16
  -3   6  -8    4.21    1.39
   3  -6   9    3.36    2.09
  -3   6  -9   10.88    2.79
   3  -6  10   24.18    3.23
  -3   6 -10   27.23    3.60
   3  -6  11   -0.08    1.15
  -3   6 -11    0.98    1.85
   3  -6  12    3.90    2.68
  -3   6 -12    3.01    2.34
   3  -5 -14    3.44    1.20
   3  -5 -14    3.09    1.15
   3  -5 -13    1.04    1.44
   3  -5 -13    0.57    1.46
   3  -5 -12   48.45    3.27
   3  -5 -12   52.58    3.72
   3  -5 -11   82.64    4.54
   3  -5 -10   -0.04    0.93
  -3   5  10   -0.10    0.40
   3  -5  -9    2.40    1.03
  -3   5   9    2.19    0.97
  -3   5   9    0.24    0.68
   3  -5  -8    8.68    1.32
  -3   5   8    7.85    1.70
  -3   5   8    5.94    1.26
   3  -5  -7    7.77    2.00
  -3   5   7    5.37    1.71
  -3   5   7    5.52    1.21
   3  -5  -6   14.91    1.46
  -3   5   6   11.73    1.32
  -3   5   6   12.18    1.46
   3  -5  -5   31.25    2.73
  -3   5   5   24.18    1.87
  -3   5   5   30.01    1.74
   3  -5  -4   28.96    1.70
  -3   5   4   31.23    1.77
  -3   5   4   28.92    1.98
   3  -5  -3   -0.09    0.98
  -3   5   3    0.46    0.75
  -3   5   3    0.21    0.69
   3  -5  -2   83.23    4.12
  -3   5   2   79.28    2.88
   3  -5  -1    4.30    1.19
  -3   5   1    3.52    0.99
   3  -5   0    8.66    1.34
  -3   5   0    8.28    1.25
   3  -5   1   32.84    2.05
  -3   5  -1   28.51    1.80
   3  -5   2   16.45    1.69
  -3   5  -2   13.58    2.22
   3  -5   3   94.75    3.47
  -3   5  -3   89.70    4.34
   3  -5   4   57.58    2.66
  -3   5  -4   61.35    2.74
   3  -5   5  102.67    3.85
  -3   5  -5   96.48    4.82
   3  -5   6   16.77    1.59
  -3   5  -6   18.13    1.68
   3  -5   7    7.93    1.17
  -3   5  -7    6.20    2.08
   3  -5   8    1.32    0.97
  -3   5  -8    0.81    1.35
   3  -5   9    3.13    1.08
  -3   5  -9    4.08    1.86
   3  -5  10    5.30    1.93
  -3   5 -10    5.33    1.28
   3  -5  11    0.99    1.49
  -3   5 -11    2.51    1.11
   3  -5  12    0.26    1.45
  -3   5 -12    0.06    1.06
   3  -5  13    0.72    1.56
  -3   5 -13    0.55    1.51
   3  -4 -15    8.35    2.37
   3  -4 -15    7.15    2.32
   3  -4 -14    1.84    0.81
   3  -4 -14   -0.25    0.93
   3  -4 -13    4.41    1.72
   3  -4 -13    2.05    1.02
   3  -4 -12   14.61    2.31
   3  -4 -12   13.05    2.27
   3  -4 -11   16.81    2.35
   3  -4 -11   16.54    2.11
   3  -4 -10   21.23    2.44
   3  -4  -9    5.27    1.08
   3  -4  -8    2.14    0.88
  -3   4   8    1.86    0.74
  -3   4   8    0.32    0.67
   3  -4  -7   27.02    2.57
  -3   4   7   18.11    1.47
  -3   4   7   22.46    2.23
   3  -4  -6  358.19    8.78
  -3   4   6  331.00    8.02
  -3   4   6  309.10    7.05
   3  -4  -5  180.71    5.97
  -3   4   5  165.34    4.42
  -3   4   5  167.55    4.40
   3  -4  -4    8.74    1.19
  -3   4   4    6.98    0.67
  -3   4   4    7.33    1.68
   3  -4  -3   15.60    2.03
  -3   4   3   13.52    1.25
  -3   4   3   17.02    1.94
   3  -4  -2    2.70    1.19
  -3   4   2    2.85    1.36
   3  -4  -1    0.26    0.81
  -3   4   1    0.43    1.00
   3  -4   0   17.27    2.18
  -3   4   0   18.83    2.09
   3  -4   1   96.12    4.29
  -3   4  -1   84.88    3.61
   3  -4   2   33.35    2.74
  -3   4  -2   29.96    2.43
   3  -4   3  156.29    5.52
  -3   4  -3  144.79    5.06
   3  -4   4  270.02    6.89
  -3   4  -4  252.53    6.42
   3  -4   5   83.99    2.96
  -3   4  -5   86.97    4.16
   3  -4   6  409.07   11.71
  -3   4  -6  378.35    9.53
  -3   4  -7   44.43    3.08
   3  -4   8   41.84    2.99
  -3   4  -8   39.19    1.97
   3  -4   9   26.85    1.66
  -3   4  -9   25.76    1.71
   3  -4  10    3.33    1.51
  -3   4 -10    3.90    1.02
   3  -4  11   24.80    2.51
  -3   4 -11   24.14    2.62
   3  -4  12    0.57    1.35
  -3   4 -12    0.63    1.25
   3  -4  13    1.35    0.92
  -3   4 -13    0.95    0.87
   3  -4  14    1.37    1.24
  -3   4 -14    3.37    1.10
   3  -3 -15    3.05    1.71
   3  -3 -15    2.51    1.84
   3  -3 -14   34.38    3.20
   3  -3 -14   32.69    2.11
   3  -3 -13   59.78    3.64
   3  -3 -13   51.38    3.21
   3  -3 -13   51.46    2.09
   3  -3 -12    0.94    0.77
   3  -3 -12    1.08    0.58
   3  -3 -12    0.50    1.30
   3  -3 -11   33.08    1.79
   3  -3 -11   27.91    2.60
   3  -3 -10    0.73    1.14
   3  -3 -10    0.46    1.06
   3  -3  -9   36.91    2.72
   3  -3  -8  345.59    8.50
   3  -3  -7   15.81    1.35
  -3   3   7   10.83    1.00
   3  -3  -6   77.73    3.51
  -3   3   6   74.31    3.20
  -3   3   6   68.48    2.07
   3  -3  -5  448.32   10.37
  -3   3   5  422.31    9.02
  -3   3   5  443.41   11.22
   3  -3  -4    0.42    0.93
  -3   3   4    0.60    0.57
  -3   3   4    0.52    0.48
   3  -3  -3    6.59    1.45
  -3   3   3    4.64    0.74
  -3   3   3    6.22    1.40
   3  -3  -2  413.14   10.09
  -3   3   2  426.65   10.57
   3  -3  -1   11.07    1.67
  -3   3   1    9.29    1.54
   3  -3   0  311.32    7.26
  -3   3   0  380.23    8.54
   3  -3   1   63.81    2.09
  -3   3  -1   60.14    2.00
   3  -3   2   95.27    2.90
  -3   3  -2   81.96    2.41
   3  -3   3   21.88    1.99
  -3   3  -3   20.63    1.24
   3  -3   4  227.71    5.48
  -3   3  -4  222.02    6.26
   3  -3   5   57.97    3.02
  -3   3  -5   56.05    2.77
   3  -3   6   34.30    2.40
  -3   3  -6   31.69    1.60
   3  -3   7    4.19    0.82
  -3   3  -7    3.83    1.31
   3  -3   8   17.94    1.95
  -3   3  -8   17.78    1.28
   3  -3   9   51.22    1.99
  -3   3  -9   59.87    3.04
   3  -3  10   36.72    2.41
  -3   3 -10   38.82    2.59
   3  -3  11    5.08    1.42
  -3   3 -11    7.83    1.89
   3  -3  12   20.19    2.26
  -3   3 -12   23.32    2.74
   3  -3  13   12.77    1.67
  -3   3 -13   17.71    2.19
   3  -3  14    1.13    1.19
  -3   3 -14    2.97    1.48
   3  -3  15   11.01    2.04
  -3   3 -15   18.37    1.58
   3  -2 -15    3.64    0.97
   3  -2 -15    3.90    1.99
   3  -2 -14    9.94    2.02
   3  -2 -14    8.03    1.40
   3  -2 -13    1.88    1.54
   3  -2 -13    3.40    1.21
   3  -2 -13    2.14    1.64
   3  -2 -12   21.51    1.76
   3  -2 -12   22.33    2.32
   3  -2 -12   19.55    2.37
   3  -2 -11    3.34    1.45
   3  -2 -11    3.79    1.00
   3  -2 -11    3.34    1.50
   3  -2 -10   28.26    2.40
   3  -2 -10   29.62    1.59
   3  -2 -10   29.88    2.47
   3  -2  -9    2.72    0.79
   3  -2  -9    2.44    0.74
   3  -2  -9    2.56    1.37
   3  -2  -8    6.67    0.93
   3  -2  -8    5.48    0.57
   3  -2  -8    6.12    1.62
   3  -2  -7    3.30    1.38
   3  -2  -6   59.37    2.07
   3  -2  -5   78.79    3.17
  -3   2   5   71.69    2.22
  -3   2   5   70.19    1.81
   3  -2  -4   13.01    1.03
  -3   2   4   13.62    0.63
  -3   2   4   13.76    1.00
   3  -2  -3   51.86    1.75
  -3   2   3   48.50    1.45
  -3   2   3   52.25    2.35
   3  -2  -2  235.86    5.18
  -3   2   2  239.56    5.29
   3  -2  -1    2.43    0.60
  -3   2   1    3.23    0.64
   3  -2   0  397.10    8.30
  -3   2   0  429.91    9.84
   3  -2   1  142.81    3.98
  -3   2  -1  138.52    3.20
   3  -2   2    2.79    0.73
  -3   2  -2    3.78    0.62
   3  -2   3  219.82    4.99
  -3   2  -3  192.34    4.27
   3  -2   4   25.56    1.76
  -3   2  -4   24.91    1.10
   3  -2   5  271.88    6.75
  -3   2  -5  252.62    5.55
   3  -2   6   54.92    1.87
  -3   2  -6   56.40    2.50
   3  -2   7   37.57    1.42
  -3   2  -7   41.19    2.17
   3  -2   8    6.41    1.19
  -3   2  -8    5.88    0.75
   3  -2   9    9.75    1.34
  -3   2  -9    9.32    1.38
   3  -2  10  231.74    6.37
  -3   2 -10  250.95    7.00
   3  -2  11    2.46    1.02
  -3   2 -11    1.93    1.11
   3  -2  12    8.83    0.88
  -3   2 -12   13.43    1.86
   3  -2  13   -0.14    0.62
  -3   2 -13    0.31    1.02
   3  -2  14    0.63    0.57
  -3   2 -14   -0.04    0.68
   3  -2  15    2.72    1.36
  -3   2 -15    6.10    0.96
   3  -1 -16   22.81    3.00
   3  -1 -16   28.72    3.56
   3  -1 -15   16.71    2.63
   3  -1 -15   15.45    2.51
   3  -1 -14    0.72    0.97
   3  -1 -14    0.81    1.11
   3  -1 -14    0.53    0.79
   3  -1 -13   28.76    1.39
   3  -1 -13   27.22    2.66
   3  -1 -13   30.17    2.68
   3  -1 -12    0.16    0.38
   3  -1 -12   -0.10    0.91
   3  -1 -12    0.22    0.89
   3  -1 -11    0.12    0.36
   3  -1 -11    0.14    0.56
   3  -1 -11    0.60    0.57
   3  -1 -10  109.31    2.98
   3  -1 -10  106.40    3.29
   3  -1 -10  104.12    3.15
   3  -1  -9  229.16    5.77
   3  -1  -9  228.02    5.79
   3  -1  -9  241.58    5.40
   3  -1  -8  113.43    3.21
   3  -1  -8  108.48    3.22
   3  -1  -8  116.78    2.74
   3  -1  -7  186.41    3.78
   3  -1  -7  182.35    4.50
   3  -1  -7  179.55    4.55
   3  -1  -6   13.36    0.70
   3  -1  -6   13.03    1.62
   3  -1  -5   -0.24    0.74
   3  -1  -4  237.77    5.27
   3  -1  -3  435.97    9.35
  -3   1   3  434.96    8.82
  -3   1   3  319.25    5.37
   3  -1  -2  203.37    4.36
  -3   1   2  213.15    5.21
   3  -1  -1   61.14    1.73
  -3   1   1   58.93    1.63
   3  -1   0   12.38    1.20
  -3   1   0   12.23    1.20
   3  -1   1   34.54    1.12
  -3   1  -1   34.66    1.18
   3  -1   2  282.27    5.71
  -3   1  -2  280.35    6.18
   3  -1   3   11.08    0.53
  -3   1  -3   16.86    1.16
   3  -1   4  213.79    4.63
  -3   1  -4  186.73    3.85
   3  -1   5   31.58    1.54
  -3   1  -5   31.02    1.04
   3  -1   6   24.78    1.49
  -3   1  -6   22.73    0.89
   3  -1   7    7.45    0.96
  -3   1  -7    7.03    1.00
   3  -1   8   29.61    1.05
  -3   1  -8   30.29    1.54
   3  -1   9   15.92    0.80
  -3   1  -9   17.21    0.88
   3  -1  10   13.26    1.16
  -3   1 -10   14.91    1.30
   3  -1  11    1.66    0.74
  -3   1 -11    1.58    0.81
   3  -1  12    0.30    0.53
  -3   1 -12    0.11    0.60
   3  -1  13    0.57    0.69
  -3   1 -13    0.45    0.69
   3  -1  14   26.67    1.66
  -3   1 -14   27.61    1.85
  -3   1 -15    2.80    1.32
   3   0 -16    6.73    2.29
   3   0 -15    1.56    1.47
   3   0 -15    0.75    1.47
   3   0 -14    5.24    1.56
   3   0 -14    5.53    1.19
   3   0 -14    7.03    2.19
   3   0 -13    3.07    1.01
   3   0 -13    2.20    1.10
   3   0 -13    1.88    1.50
   3   0 -12   23.73    2.40
   3   0 -12   23.08    1.18
   3   0 -12   22.53    1.51
   3   0 -11    2.49    0.85
   3   0 -11    1.31    0.83
   3   0 -11    2.02    0.85
   3   0 -10  123.06    3.61
   3   0 -10  118.89    4.59
   3   0 -10  125.24    3.37
   3   0  -9   35.11    1.65
   3   0  -9   34.44    2.45
   3   0  -9   36.25    1.50
   3   0  -8   29.67    1.48
   3   0  -8   29.91    2.29
   3   0  -8   32.80    1.24
   3   0  -7   26.65    2.08
   3   0  -7   26.65    0.96
   3   0  -7   25.36    1.37
   3   0  -6   48.14    1.70
   3   0  -6   46.73    1.08
   3   0  -6   45.25    2.42
   3   0  -5  201.88    3.34
   3   0  -5  205.88    5.44
   3   0  -5  207.20    4.62
   3   0  -4   31.55    1.21
   3   0  -4   31.03    1.25
   3   0  -3  283.68    6.56
   3   0  -2   68.73    2.29
   3   0  -1  265.46    5.91
  -3   0   1  268.13    5.42
   3   0   0  153.01    3.69
  -3   0   0  144.90    2.99
   3   0   1   11.46    0.94
  -3   0  -1   10.60    0.90
   3   0   2  266.43    5.52
  -3   0  -2  264.47    5.49
   3   0   3   51.80    1.18
  -3   0  -3   59.88    1.76
   3   0   4 1393.56   29.66
  -3   0  -4 1978.48   46.56
   3   0   5  771.96   16.03
  -3   0  -5  782.29   16.35
   3   0   6  494.69   10.11
  -3   0  -6  493.37   10.04
   3   0   7  417.33    8.50
  -3   0  -7  428.50    8.79
   3   0   8   60.09    1.71
  -3   0  -8   62.32    1.77
   3   0   9   85.01    2.11
  -3   0  -9  100.55    2.56
   3   0  10  284.87    6.18
  -3   0 -10  323.95    7.06
   3   0  11  184.33    4.22
  -3   0 -11  194.58    4.47
   3   0  12    1.09    0.54
  -3   0 -12    1.71    0.97
  -3   0 -12    1.59    0.61
   3   0  13    3.62    0.72
  -3   0 -13    5.57    1.19
  -3   0 -13    3.47    0.77
   3   0  14   -0.20    0.48
  -3   0 -14    0.26    1.23
  -3   0 -14    0.10    0.45
  -3   0 -15   19.66    2.13
   3   1 -15   -0.24    0.57
   3   1 -15    0.55    1.10
   3   1 -15   -0.24    0.74
   3   1 -14   22.95    2.51
   3   1 -14   23.00    2.75
   3   1 -13    3.35    1.21
   3   1 -13    2.23    1.51
   3   1 -13    3.30    1.86
   3   1 -12    6.56    1.28
   3   1 -12    8.70    2.09
   3   1 -12    6.89    1.64
   3   1 -11   21.42    1.57
   3   1 -11   20.19    1.54
   3   1 -11   19.82    1.39
   3   1 -10   46.68    1.97
   3   1 -10   43.15    1.41
   3   1  -9  181.83    4.42
   3   1  -9  189.43    4.97
   3   1  -8  215.08    6.26
   3   1  -8  216.24    4.82
   3   1  -7    6.72    0.69
   3   1  -7    6.60    1.40
   3   1  -6   28.17    1.87
   3   1  -5  222.10    4.97
   3   1  -4   53.28    1.61
   3   1  -3  455.99    9.40
   3   1  -2  155.75    3.40
   3   1  -2  184.43    3.69
   3   1  -1  312.65    6.22
   3   1  -1  333.81    7.21
   3   1   0    3.36    0.76
  -3  -1   0    3.53    0.29
   3   1   1   14.36    0.62
  -3  -1  -1   14.73    0.63
   3   1   2    0.14    0.21
  -3  -1  -2    0.12    0.24
  -3  -1  -2    0.03    0.20
   3   1   3   29.06    0.99
  -3  -1  -3   28.66    0.97
  -3  -1  -3   26.28    0.82
   3   1   4   18.98    0.71
  -3  -1  -4   21.85    1.28
  -3  -1  -4   21.01    0.78
   3   1   5    3.35    0.36
  -3  -1  -5    1.94    0.53
  -3  -1  -5    1.93    0.47
   3   1   6   -0.14    0.14
  -3  -1  -6   43.82    1.55
  -3  -1  -6   45.87    1.06
   3   1   7    0.02    0.13
  -3  -1  -7   72.47    2.23
  -3  -1  -7   70.94    1.41
   3   1   8   -0.01    0.14
  -3  -1  -8  168.38    5.19
  -3  -1  -8  169.06    3.27
   3   1   9    0.02    0.12
  -3  -1  -9    8.25    1.65
  -3  -1  -9    7.23    0.46
   3   1  10    1.19    0.25
  -3  -1 -10    5.52    1.12
  -3  -1 -10    5.37    0.60
   3   1  11   55.17    1.22
  -3  -1 -11   55.17    1.31
  -3  -1 -11   62.32    2.59
  -3  -1 -12    2.13    0.53
  -3  -1 -12    3.46    1.62
  -3  -1 -13   22.10    2.82
  -3  -1 -13   15.54    0.91
  -3  -1 -14    7.71    1.64
  -3  -1 -15    3.21    2.24
   3   2 -15    0.53    1.25
   3   2 -15    1.97    1.67
   3   2 -14    2.72    0.94
   3   2 -14    5.01    1.92
   3   2 -13    1.79    1.00
   3   2 -12    6.39    1.41
   3   2 -12   11.58    2.01
   3   2 -11   12.79    2.14
   3   2 -10   42.68    2.21
   3   2  -9   54.43    3.15
   3   2  -8  215.85    6.64
   3   2  -7   14.66    1.17
   3   2  -6    4.17    1.33
  -3  -2   6    4.12    0.81
   3   2  -5  978.07   23.56
  -3  -2   5  957.98   22.02
   3   2  -4  142.37    3.28
  -3  -2   4  153.87    3.57
   3   2  -3  132.79    3.53
  -3  -2   3  142.35    3.20
   3   2  -2  357.29    6.95
   3   2  -2  312.46    5.57
  -3  -2   2  410.62    8.40
   3   2  -1   38.21    1.58
   3   2  -1   38.26    0.92
   3   2   0  862.56   17.96
   3   2   0  903.70   18.06
   3   2   1 1070.98   22.40
   3   2   1 1028.32   21.99
  -3  -2  -1  999.76   20.67
   3   2   2  301.81    5.35
   3   2   2  268.38    5.25
  -3  -2  -2  318.92    6.00
   3   2   3  694.32   13.48
   3   2   3  711.34   15.05
   3   2   3  709.63   13.87
  -3  -2  -3  709.89   14.52
   3   2   4    1.07    0.20
  -3  -2  -4  893.00   19.80
   3   2   5   68.40    1.11
  -3  -2  -5  301.60    6.29
   3   2   6  215.04    3.08
   3   2   6  221.93    3.21
  -3  -2  -6  235.68    5.74
  -3  -2  -7   11.59    0.94
  -3  -2  -8  281.34    6.52
  -3  -2  -9  187.32    4.85
  -3  -2 -10  933.02   22.74
  -3  -2 -11    3.29    1.05
  -3  -2 -12   74.66    2.98
  -3  -2 -13    2.68    1.78
  -3  -2 -14    7.27    2.35
  -3  -2 -15   52.31    3.04
  -3  -2 -17    2.20    2.34
   3   3 -15    4.42    2.79
   3   3 -14   -0.78    0.99
   3   3 -13   16.27    2.70
   3   3 -12   -0.21    0.73
   3   3 -11   10.80    2.26
   3   3 -10   72.37    4.04
  -3  -3  10   71.01    2.80
   3   3  -9   10.82    1.31
  -3  -3   9   14.51    2.17
   3   3  -8   29.60    2.55
  -3  -3   8   26.07    1.64
   3   3  -7   16.29    1.36
  -3  -3   7   17.42    2.05
   3   3  -6   17.81    1.27
  -3  -3   6   18.10    1.26
   3   3  -5   -0.41    0.88
  -3  -3   5    0.21    0.49
   3   3  -4  137.33    3.47
  -3  -3   4  144.12    4.34
   3   3  -3  192.13    5.05
  -3  -3   3  191.17    4.28
   3   3  -2   -0.43    0.67
  -3  -3   2    0.02    0.27
   3   3  -1    0.23    0.38
   3   3  -1   -0.15    0.30
  -3  -3   1    0.19    0.31
   3   3   0    8.09    0.91
   3   3   0    7.09    0.44
  -3  -3   0    7.96    0.57
   3   3   1   36.22    1.33
   3   3   1   33.95    1.28
  -3  -3  -1   34.94    1.30
   3   3   2    0.13    0.19
   3   3   2   -0.02    0.41
  -3  -3  -2    0.27    0.21
  -3  -3  -2    0.37    0.28
   3   3   3  491.06   10.59
   3   3   3  452.42    8.63
  -3  -3  -3  481.26    8.86
  -3  -3  -3  480.37    9.81
   3   3   4   76.03    1.92
   3   3   4   74.58    1.39
  -3  -3  -4   80.48    2.50
   3   3   5  186.23    3.01
   3   3   5  174.28    4.28
  -3  -3  -5  208.02    5.12
   3   3   6    0.22    0.70
  -3  -3  -6   -0.33    0.72
  -3  -3  -7  105.69    2.87
  -3  -3  -8   88.92    3.61
  -3  -3  -9    3.97    0.96
  -3  -3 -10  348.13    8.88
  -3  -3 -11  138.04    4.45
  -3  -3 -12   14.24    1.63
  -3  -3 -13   18.39    1.82
  -3  -3 -14    0.10    1.22
  -3  -3 -15   -0.13    1.43
  -3  -3 -16   12.87    2.05
  -3  -3 -17    0.23    1.03
   3   4 -14    0.61    1.99
   3   4 -13   14.80    2.24
   3   4 -12    2.94    1.95
  -3  -4  12    2.44    1.79
   3   4 -11   70.14    3.16
  -3  -4  11   71.07    3.25
   3   4 -10  193.09    7.27
  -3  -4  10  196.84    7.46
   3   4  -9    1.45    0.92
  -3  -4   9    1.81    0.98
   3   4  -8   12.23    2.11
  -3  -4   8   12.34    2.10
   3   4  -7    3.72    1.55
  -3  -4   7    1.75    0.82
   3   4  -6    0.52    0.64
  -3  -4   6    0.38    0.97
   3   4  -5   35.26    2.39
  -3  -4   5   33.41    1.60
   3   4  -4   70.24    3.13
  -3  -4   4   76.21    3.15
   3   4  -3  158.15    4.82
  -3  -4   3  136.17    3.29
   3   4  -2  201.39    5.43
  -3  -4   2  170.24    3.80
   3   4  -1  970.91   22.49
  -3  -4   1  932.11   21.25
   3   4   0  384.19    7.91
   3   4   0  369.07    7.61
  -3  -4   0  378.48    8.32
   3   4   1  193.70    4.06
   3   4   1  188.91    4.30
  -3  -4  -1  186.54    3.72
   3   4   2   14.80    0.81
   3   4   2   14.65    0.94
  -3  -4  -2   13.05    0.87
   3   4   3   38.29    1.28
   3   4   3   35.03    1.18
  -3  -4  -3   37.49    1.16
  -3  -4  -3   38.66    1.27
   3   4   4    1.29    0.82
   3   4   4    1.27    0.39
  -3  -4  -4    1.90    0.81
  -3  -4  -4    1.21    0.33
   3   4   5  243.59    5.50
   3   4   5  245.32    4.67
  -3  -4  -5  239.90    4.25
  -3  -4  -5  246.55    6.25
   3   4   6   56.47    1.81
   3   4   6   45.84    0.84
  -3  -4  -6   60.29    1.12
  -3  -4  -6   58.18    2.68
   3   4   7    9.50    1.42
  -3  -4  -7   10.26    1.60
   3   4   8    5.97    1.56
  -3  -4  -8    6.44    1.02
  -3  -4  -9   15.53    2.24
  -3  -4 -10  287.15    8.74
  -3  -4 -11   53.60    2.53
  -3  -4 -12   65.75    2.89
  -3  -4 -13   27.20    2.12
  -3  -4 -14   69.54    3.40
  -3  -4 -15   89.57    4.17
  -3  -4 -16   33.99    4.48
  -3  -4 -17    0.53    2.12
   3   5 -14    0.26    1.62
  -3  -5  14    0.78    1.04
   3   5 -13    0.08    0.68
  -3  -5  13    0.01    1.10
   3   5 -12    4.29    1.97
  -3  -5  12    4.29    2.35
   3   5 -11    9.02    2.93
  -3  -5  11    7.45    1.60
   3   5 -10    0.76    1.06
  -3  -5  10    0.49    1.48
   3   5  -9   22.92    3.17
  -3  -5   9   18.78    1.76
   3   5  -8    0.77    1.38
  -3  -5   8    1.32    1.40
   3   5  -7   14.45    1.53
  -3  -5   7   13.01    1.37
   3   5  -6   12.71    1.41
  -3  -5   6   10.04    1.92
   3   5  -5    4.94    1.10
  -3  -5   5    4.99    1.54
   3   5  -4    0.54    0.69
  -3  -5   4    0.44    0.60
   3   5  -3    3.04    0.87
  -3  -5   3    3.97    1.33
   3   5  -2   29.43    1.49
  -3  -5   2   31.27    2.17
   3   5  -1  110.85    3.83
  -3  -5   1  105.94    2.82
   3   5   0   83.42    3.00
   3   5   0   95.10    3.51
  -3  -5   0   85.54    3.02
   3   5   1    0.54    0.58
   3   5   1    1.76    0.79
  -3  -5  -1    1.11    0.50
   3   5   2  393.37    9.80
   3   5   2  390.79    8.90
  -3  -5  -2  385.39    7.99
   3   5   3  115.56    3.02
   3   5   3  110.95    2.90
  -3  -5  -3  119.51    3.04
   3   5   4   51.21    2.60
   3   5   4   57.53    1.87
  -3  -5  -4   54.74    1.67
  -3  -5  -4   63.02    2.24
   3   5   5  245.45    5.03
   3   5   5  240.52    5.86
  -3  -5  -5  237.98    5.75
  -3  -5  -5  239.45    4.79
   3   5   6   54.47    1.37
   3   5   6   54.24    2.92
  -3  -5  -6   54.57    1.33
  -3  -5  -6   55.59    2.11
   3   5   7  130.55    4.53
   3   5   7  130.09    2.34
  -3  -5  -7  130.69    2.47
  -3  -5  -7  144.16    3.98
   3   5   8   71.50    2.44
  -3  -5  -8   83.42    3.92
   3   5   9   31.57    1.79
  -3  -5  -9   34.41    1.95
   3   5  10   10.72    1.33
  -3  -5 -10    9.35    2.12
  -3  -5 -11    2.45    1.07
  -3  -5 -12   18.97    1.81
  -3  -5 -13   24.31    2.07
  -3  -5 -14   34.53    2.58
  -3  -5 -15    6.50    1.71
  -3  -5 -16   34.88    2.87
  -3  -5 -17   20.01    2.56
   3   6 -13    6.03    2.94
  -3  -6  13    4.19    2.77
   3   6 -12    3.39    1.56
  -3  -6  12    2.65    1.49
   3   6 -11    3.12    2.37
  -3  -6  11    3.59    2.31
   3   6 -10    0.55    1.41
  -3  -6  10    1.05    1.76
   3   6  -9    0.70    0.88
  -3  -6   9    1.02    0.95
   3   6  -8    4.10    1.15
  -3  -6   8    2.67    1.73
   3   6  -7   37.06    2.11
  -3  -6   7   36.45    2.17
   3   6  -6   49.69    3.42
  -3  -6   6   49.89    3.44
   3   6  -5   36.03    2.92
  -3  -6   5   35.21    1.92
   3   6  -4   13.62    2.18
  -3  -6   4   14.92    2.21
   3   6  -3    8.66    1.15
  -3  -6   3   10.62    1.87
   3   6  -2   -0.11    0.49
  -3  -6   2    0.44    0.93
   3   6  -1   10.37    1.64
  -3  -6   1   11.01    1.01
   3   6   0   26.57    1.58
   3   6   0   24.90    1.34
  -3  -6   0   26.09    1.97
   3   6   1   11.34    1.65
   3   6   1   11.49    1.54
  -3  -6  -1   10.59    0.91
   3   6   2   24.45    2.07
   3   6   2   24.81    1.90
  -3  -6  -2   26.20    1.71
   3   6   3   17.45    1.48
   3   6   3   15.97    1.27
  -3  -6  -3   17.38    1.39
   3   6   4   35.58    2.56
   3   6   4   40.31    1.81
  -3  -6  -4   37.84    1.70
   3   6   5  153.31    4.25
   3   6   5  152.32    3.77
  -3  -6  -5  150.22    3.68
   3   6   6    0.42    0.37
   3   6   6   -0.04    0.63
  -3  -6  -6    0.14    0.78
  -3  -6  -6    0.73    0.47
   3   6   7   47.95    3.07
   3   6   7   41.98    1.31
  -3  -6  -7   44.74    1.35
  -3  -6  -7   48.38    2.21
   3   6   8   31.58    1.20
   3   6   8   30.41    2.89
  -3  -6  -8   31.65    0.94
  -3  -6  -8   33.32    3.00
   3   6   9    0.63    1.07
   3   6   9    0.24    0.17
  -3  -6  -9    0.37    0.18
  -3  -6  -9   -0.17    0.76
   3   6  10   58.92    3.76
  -3  -6 -10   67.28    4.28
   3   6  11    6.48    2.03
  -3  -6 -11    8.13    1.51
  -3  -6 -12   22.61    2.17
  -3  -6 -13    0.80    1.88
  -3  -6 -14    2.07    2.26
  -3  -6 -15    5.54    2.94
  -3  -6 -16   31.11    4.64
  -3  -6 -17    0.02    1.72
   3   7 -12    2.09    3.85
  -3  -7  12    2.31    2.46
   3   7 -11   -0.11    1.40
  -3  -7  11   -0.29    1.72
   3   7 -10   38.60    6.19
  -3  -7  10   26.60    2.38
   3   7  -9    5.15    3.42
  -3  -7   9    0.92    1.72
   3   7  -8   -0.22    1.46
  -3  -7   8    0.20    0.86
   3   7  -7    0.82    1.67
  -3  -7   7    0.12    1.19
   3   7  -6    9.53    1.59
  -3  -7   6   11.08    2.48
   3   7  -5   56.10    4.09
  -3  -7   5   50.52    2.65
   3   7  -4   18.60    2.74
  -3  -7   4   20.55    2.67
   3   7  -3    0.10    1.13
  -3  -7   3    0.43    0.69
   3   7  -2    1.64    0.97
  -3  -7   2    2.18    1.36
   3   7  -1    7.78    1.23
  -3  -7   1    6.10    1.04
   3   7   0    4.90    1.11
   3   7   0    4.52    1.62
  -3  -7   0    4.73    1.49
   3   7   1   25.68    1.65
   3   7   1   25.27    2.29
  -3  -7  -1   27.66    2.22
   3   7   2   11.52    1.97
   3   7   2   11.55    1.73
  -3  -7  -2   11.98    1.05
   3   7   3   25.02    1.99
   3   7   3   22.15    2.44
  -3  -7  -3   23.26    1.81
   3   7   4    0.87    0.78
   3   7   4    1.17    0.86
  -3  -7  -4    0.80    0.78
   3   7   5   -0.13    0.66
   3   7   5   -0.35    0.66
  -3  -7  -5   -0.34    0.62
   3   7   6   28.41    1.43
   3   7   6   30.46    1.92
  -3  -7  -6   30.68    1.53
   3   7   7    1.99    0.70
   3   7   7    2.77    1.58
  -3  -7  -7    2.03    0.68
   3   7   8    9.51    0.83
   3   7   8    8.06    2.22
  -3  -7  -8    7.98    1.56
  -3  -7  -8    9.18    0.85
   3   7   9    6.74    2.14
   3   7   9    7.39    0.70
  -3  -7  -9    9.51    1.55
  -3  -7  -9    7.06    0.69
   3   7  10   30.33    3.19
   3   7  10   26.42    0.85
  -3  -7 -10   24.21    0.75
  -3  -7 -10   32.83    3.29
   3   7  11    9.90    2.41
  -3  -7 -11   11.16    1.79
   3   7  12    2.97    1.88
  -3  -7 -12    2.65    2.23
  -3  -7 -13   18.51    3.65
  -3  -7 -14    3.43    1.68
  -3  -7 -15   17.39    2.60
  -3  -7 -16    0.78    1.51
   3   8 -10    1.28    1.31
  -3  -8  10    1.53    2.12
   3   8  -9    5.66    1.69
  -3  -8   9    9.02    2.10
   3   8  -8    4.29    2.48
  -3  -8   8    2.70    2.49
   3   8  -7   10.52    2.96
  -3  -8   7   15.94    2.05
   3   8  -6   22.69    3.41
  -3  -8   6   27.44    3.53
   3   8  -5   -1.62    1.93
  -3  -8   5   -0.40    0.92
   3   8  -4   21.37    2.06
  -3  -8   4   21.27    2.78
   3   8  -3    0.49    0.87
  -3  -8   3    0.98    0.87
   3   8  -2    8.40    2.26
  -3  -8   2    7.96    2.15
   3   8  -1   -0.27    1.26
   3   8  -1   17.45    2.08
  -3  -8   1   11.48    1.39
   3   8   0   80.64    4.65
   3   8   0   81.24    4.40
  -3  -8   0   77.76    4.08
   3   8   1   60.51    3.94
   3   8   1   66.29    2.83
  -3  -8  -1   62.89    2.57
   3   8   2    0.23    1.22
   3   8   2    1.16    1.37
  -3  -8  -2    0.97    1.16
   3   8   3   22.37    2.87
   3   8   3   23.18    2.22
  -3  -8  -3   21.73    2.00
   3   8   4    0.40    0.94
   3   8   4    0.53    1.30
  -3  -8  -4    0.27    0.48
   3   8   5   30.61    3.05
   3   8   5   29.17    1.41
  -3  -8  -5   28.89    1.34
   3   8   6   32.52    1.90
   3   8   6   34.33    3.39
  -3  -8  -6   33.65    1.95
   3   8   7    4.49    1.09
   3   8   7    4.41    2.07
  -3  -8  -7    6.45    1.07
   3   8   8   23.54    1.49
   3   8   8   22.49    3.13
  -3  -8  -8   23.35    1.45
   3   8   9   18.39    2.96
   3   8   9   18.18    1.28
  -3  -8  -9   16.36    1.15
   3   8  10    1.71    1.04
   3   8  10    0.79    0.55
  -3  -8 -10    1.24    0.60
   3   8  11   -0.35    1.03
  -3  -8 -11    0.42    1.03
   3   8  12   22.42    2.18
  -3  -8 -12   24.75    2.51
   3   8  13    1.92    1.92
  -3  -8 -13    1.56    1.38
  -3  -8 -14    1.09    1.34
  -3  -8 -15    6.85    3.18
   3   9  -9    0.62    1.69
  -3  -9   9   -1.03    1.55
   3   9  -8    4.06    2.21
  -3  -9   8    0.88    2.24
   3   9  -7    3.04    2.00
  -3  -9   7    1.42    2.32
   3   9  -6    8.38    2.41
  -3  -9   6   11.54    2.02
   3   9  -5    1.48    1.56
  -3  -9   5   -0.48    1.70
   3   9  -4   33.83    2.99
  -3  -9   4   27.87    2.16
   3   9  -3    2.57    2.34
  -3  -9   3    2.36    1.75
   3   9  -2    1.34    2.23
  -3  -9   2    1.95    1.14
   3   9  -1   -0.10    0.82
   3   9  -1    0.47    0.91
  -3  -9   1    0.38    1.32
   3   9   0    0.87    1.33
   3   9   0   -0.54    1.42
  -3  -9   0    0.30    1.25
   3   9   1    2.68    1.95
   3   9   1    2.39    1.21
  -3  -9  -1    3.37    1.11
   3   9   2   -1.04    1.06
   3   9   2    0.28    0.52
  -3  -9  -2    0.79    1.32
   3   9   3   27.12    2.70
   3   9   3   29.09    3.53
  -3  -9  -3   25.49    2.41
   3   9   4    0.99    1.13
   3   9   4    1.74    1.25
  -3  -9  -4    1.44    0.74
   3   9   5   89.38    3.06
   3   9   5   85.57    3.77
  -3  -9  -5   85.62    2.76
   3   9   6   12.41    1.88
   3   9   6   11.59    1.62
  -3  -9  -6   11.47    1.62
   3   9   7   13.02    1.88
   3   9   7   11.09    1.08
  -3  -9  -7    9.91    1.44
   3   9   8   -0.40    0.71
   3   9   8    0.05    0.92
  -3  -9  -8    0.03    0.33
   3   9   9   -0.19    0.87
   3   9   9    0.19    0.37
  -3  -9  -9    0.29    0.63
   3   9  10   -0.20    0.92
   3   9  11    5.04    1.66
   3   9  12    7.67    2.18
   3   9  13    2.73    1.52
   3   9  14    1.86    1.30
   3  10  -7   26.33    7.60
  -3 -10   7   16.59    4.35
   3  10  -6    1.26    3.85
  -3 -10   6    1.97    1.59
   3  10  -5  116.14   10.44
  -3 -10   5   77.32    6.21
  -3 -10   4    2.83    1.36
   3  10  -3   11.98    4.37
  -3 -10   3    7.70    2.57
   3  10  -2    3.80    2.00
   3  10  -2    3.92    1.60
  -3 -10   2    4.50    1.55
   3  10  -1   27.12    4.01
   3  10  -1   32.54    4.63
  -3 -10   1   21.17    2.17
   3  10   0    3.01    1.43
   3  10   0    3.19    1.50
  -3 -10   0    2.36    2.10
   3  10   1   -0.75    0.89
   3  10   1    1.20    1.25
  -3 -10  -1    3.01    1.26
   3  10   2    0.05    0.85
   3  10   2    2.26    1.83
  -3 -10  -2    0.41    1.42
   3  10   3    0.03    0.57
   3  10   3    0.03    1.31
  -3 -10  -3    0.68    1.25
   3  10   4    4.71    2.12
   3  10   4    2.84    2.56
  -3 -10  -4    3.75    1.65
   3  10   5   33.73    1.93
   3  10   5   40.03    2.86
  -3 -10  -5   39.08    2.02
   3  10   6   53.00    3.40
   3  10   6   39.60    2.06
  -3 -10  -6   44.91    2.09
   3  10   7  107.54    4.78
   3  10   7  117.64    5.25
  -3 -10  -7   96.81    3.19
   3  10   8   13.99    1.23
   3  10   8   16.21    2.25
  -3 -10  -8   13.76    1.17
   3  10   9    2.67    1.50
   3  10   9    1.94    1.13
  -3 -10  -9    2.16    1.09
   3  10  10    1.62    1.41
   3  10  11    0.41    1.87
   3  10  12    0.23    2.15
   3  11  -4    0.77    2.73
   3  11  -4    0.86    1.39
  -3 -11   4    1.09    1.94
   3  11  -3    1.79    1.51
   3  11  -3    1.19    1.79
  -3 -11   3    1.84    1.30
   3  11  -2    2.28    1.76
   3  11  -2    1.95    2.54
  -3 -11   2    0.98    2.12
   3  11  -1    0.66    1.13
   3  11  -1   -0.38    0.84
  -3 -11   1    0.29    1.04
   3  11   0    3.40    1.51
   3  11   0    3.05    2.93
  -3 -11   0    6.35    2.68
   3  11   1    1.40    1.53
   3  11   1    0.78    1.99
  -3 -11  -1    2.56    2.39
   3  11   2    4.38    1.46
   3  11   2    3.83    2.00
  -3 -11  -2    6.31    1.67
   3  11   3   -0.98    1.33
   3  11   3    0.23    2.11
  -3 -11  -3    2.46    2.07
   3  11   4    0.60    1.45
   3  11   4    1.38    2.26
  -3 -11  -4    0.65    1.65
   3  11   5    1.56    2.23
   3  11   5    0.84    1.50
  -3 -11  -5    4.23    1.79
   3  11   6    0.68    1.70
   3  11   6    3.35    1.74
  -3 -11  -6    2.96    1.59
   3  11   7    5.23    1.20
   3  11   7    6.88    2.04
  -3 -11  -7    6.97    1.83
   3  11   8    0.68    1.22
   3  11   8    0.93    1.32
  -3 -11  -8    0.08    0.85
   3  11   9    1.42    2.43
   3  11  10    1.03    2.30
   3  12   1   34.49    6.65
   3  12   1   19.90    5.76
  -3 -12  -1   21.74    3.89
   3  12   2    1.71    2.26
   3  12   2   -0.57    1.55
  -3 -12  -2   -0.30    1.88
   3  12   3    0.05    0.90
   3  12   3    0.65    1.31
  -3 -12  -3    1.06    1.31
   3  12   4   -1.45    1.89
  -3 -12  -4    1.07    1.27
   3  12   5    0.85    2.30
   3  12   5    0.57    1.84
  -3 -12  -5    1.60    1.33
   4  -9  -3    4.30    2.29
  -4   9   3    1.84    2.21
  -4   9   3    1.35    2.42
   4  -9  -2   46.32    6.67
  -4   9   2   32.04    4.35
  -4   9   2   35.11    3.14
   4  -9  -1    3.00    2.65
  -4   9   1    4.16    2.42
  -4   9   1    3.40    3.28
   4  -9   0    4.44    2.80
  -4   9   0    0.44    1.30
  -4   9   0    6.60    2.82
   4  -9   1    4.79    3.05
  -4   9  -1    1.98    1.58
   4  -8  -7    1.47    1.62
  -4   8   7    1.59    1.65
  -4   8   7    1.32    2.01
   4  -8  -6    8.65    3.55
  -4   8   6    7.58    1.44
  -4   8   6    5.64    1.71
   4  -8  -5    0.75    1.68
  -4   8   5   -0.47    0.92
  -4   8   5    0.31    1.09
   4  -8  -4    1.55    1.90
  -4   8   4    1.24    1.15
  -4   8   4    1.73    1.30
   4  -8  -3    4.14    3.88
  -4   8   3    2.83    1.26
  -4   8   3    2.14    2.37
   4  -8  -2    7.37    2.66
  -4   8   2    6.53    2.35
  -4   8   2    5.67    2.85
   4  -8  -1    4.80    3.29
  -4   8   1    3.38    1.30
  -4   8   1    5.06    1.77
   4  -8   0    0.84    1.50
  -4   8   0    0.27    1.62
   4  -8   1    4.03    2.55
  -4   8  -1    2.98    1.53
   4  -8   2    0.22    1.60
  -4   8  -2    1.06    2.27
   4  -8   3   11.48    3.18
  -4   8  -3    7.23    2.05
   4  -8   4   42.71    4.97
  -4   8  -4   44.25    5.18
   4  -8   5   -0.07    1.56
  -4   8  -5   -0.55    2.00
   4  -8   6   12.51    1.84
  -4   8  -6   16.88    2.46
   4  -7 -10    8.02    1.88
   4  -7  -9    1.52    2.17
  -4   7   9    0.90    0.85
   4  -7  -8   56.40    4.95
  -4   7   8   43.64    2.51
  -4   7   8   34.13    2.89
   4  -7  -7    4.51    2.51
  -4   7   7    3.08    1.61
  -4   7   7    5.83    1.45
   4  -7  -6    4.69    1.56
  -4   7   6    2.80    1.03
  -4   7   6    4.08    1.33
   4  -7  -5   -0.57    1.75
  -4   7   5    0.17    0.97
  -4   7   5    0.13    0.82
   4  -7  -4    0.57    1.18
  -4   7   4    0.92    0.87
  -4   7   4    0.71    1.73
   4  -7  -3    6.44    2.89
  -4   7   3    3.83    1.73
  -4   7   3    3.47    2.25
   4  -7  -2   11.52    2.32
  -4   7   2    6.09    1.25
  -4   7   2    8.12    1.63
   4  -7  -1    4.81    3.11
  -4   7   1    4.75    1.58
   4  -7   0    7.48    2.23
  -4   7   0    5.09    2.40
   4  -7   1    3.32    2.72
  -4   7  -1    2.11    1.27
   4  -7   2    3.17    2.68
  -4   7  -2    2.71    2.33
   4  -7   3    7.20    1.64
  -4   7  -3    6.15    1.73
   4  -7   4    5.86    3.58
  -4   7  -4    4.23    2.50
   4  -7   5    0.92    1.94
  -4   7  -5    0.78    1.17
   4  -7   6    1.45    2.10
  -4   7  -6    2.10    2.23
   4  -7   7    0.28    0.82
  -4   7  -7   -0.20    1.64
   4  -7   8    3.95    1.85
  -4   7  -8    3.17    1.65
   4  -7   9    0.54    1.08
  -4   7  -9    0.72    1.28
   4  -6 -11   -0.21    1.39
   4  -6 -10   -0.33    1.48
   4  -6 -10   -0.42    2.26
   4  -6  -9   17.66    4.30
  -4   6   9   10.92    1.24
  -4   6   9    6.21    1.28
   4  -6  -8   13.31    2.34
  -4   6   8    8.42    2.06
  -4   6   8    4.30    1.43
   4  -6  -7   13.31    2.25
  -4   6   7    6.20    1.47
  -4   6   7    6.45    2.24
   4  -6  -6    4.37    2.69
  -4   6   6    3.12    1.32
  -4   6   6    2.78    1.89
   4  -6  -5    5.34    1.46
  -4   6   5    4.73    2.00
  -4   6   5    3.88    1.31
   4  -6  -4    1.20    1.77
  -4   6   4    0.63    1.05
  -4   6   4    0.52    1.46
   4  -6  -3    6.15    1.53
  -4   6   3    4.02    0.98
  -4   6   3    6.04    1.37
   4  -6  -2   26.20    3.53
  -4   6   2   26.25    1.95
  -4   6   2   11.07    1.34
   4  -6  -1   67.89    3.35
  -4   6   1   62.12    3.06
   4  -6   0   44.78    4.62
  -4   6   0   35.79    3.50
   4  -6   1    9.76    3.18
  -4   6  -1    6.74    1.47
   4  -6   2    6.36    1.83
  -4   6  -2    3.91    1.38
   4  -6   3   45.18    3.07
  -4   6  -3   41.00    3.97
   4  -6   4   63.22    3.10
  -4   6  -4   68.24    3.28
   4  -6   5  102.38    6.69
  -4   6  -5   76.76    3.51
   4  -6   6   12.26    2.79
  -4   6  -6   11.82    2.88
  -4   6  -7    1.43    1.18
   4  -6   8    0.01    0.80
  -4   6  -8    2.14    1.30
   4  -6   9   32.81    4.24
  -4   6  -9   23.16    3.65
   4  -6  10    1.95    1.99
  -4   6 -10    0.66    1.82
   4  -6  11    0.04    1.19
  -4   6 -11    1.05    2.01
   4  -5 -12   -0.06    1.22
   4  -5 -12   -0.06    1.16
   4  -5 -11   31.54    3.56
   4  -5 -10    0.05    1.13
   4  -5  -9  112.10    4.21
  -4   5   9   78.67    3.04
   4  -5  -8    0.32    0.88
  -4   5   8    7.00    1.14
  -4   5   8    5.45    1.20
   4  -5  -7    0.03    0.98
  -4   5   7    0.24    0.58
  -4   5   7   -0.09    0.57
   4  -5  -6    0.33    1.25
  -4   5   6    0.19    0.59
  -4   5   6   -0.05    0.64
   4  -5  -5   10.41    1.49
  -4   5   5    9.09    1.41
  -4   5   5    9.94    1.31
   4  -5  -4   28.31    3.16
  -4   5   4   22.75    1.29
  -4   5   4   23.81    1.82
   4  -5  -3   16.13    1.76
  -4   5   3   14.20    1.08
  -4   5   3   18.90    2.53
   4  -5  -2   52.72    2.65
  -4   5   2   50.14    3.69
   4  -5  -1    1.44    1.71
  -4   5   1    1.45    1.65
   4  -5   0   15.39    1.82
  -4   5   0   15.02    1.67
   4  -5   1    7.58    1.48
  -4   5  -1    8.29    1.39
   4  -5   2    2.46    1.28
  -4   5  -2    2.72    1.78
   4  -5   3   26.74    2.29
  -4   5  -3   23.16    2.96
   4  -5   4   86.58    3.62
  -4   5  -4   79.89    3.21
   4  -5   5   14.63    2.62
  -4   5  -5   13.66    2.56
   4  -5   6    1.59    1.23
  -4   5  -6    2.11    1.75
   4  -5   7    8.23    1.41
  -4   5  -7    7.32    1.43
   4  -5   8   -0.40    0.69
  -4   5  -8   -0.44    1.37
   4  -5   9    4.61    1.40
  -4   5  -9    4.80    2.29
   4  -5  10    4.69    1.27
  -4   5 -10    5.72    2.54
   4  -5  11    1.59    1.70
  -4   5 -11    1.50    2.03
   4  -5  12    0.63    1.51
  -4   5 -12    1.25    2.03
   4  -4 -13    0.19    0.76
   4  -4 -13   -0.16    1.14
   4  -4 -12   -0.54    1.43
   4  -4 -12   -0.33    0.90
   4  -4 -11   17.34    2.76
   4  -4 -11   15.27    1.81
   4  -4 -10    0.41    0.87
   4  -4  -9    0.28    0.79
   4  -4  -8   20.68    1.77
  -4   4   8   14.87    1.20
   4  -4  -7   32.24    3.02
  -4   4   7   27.65    1.66
  -4   4   7   23.15    1.38
   4  -4  -6   52.00    2.52
  -4   4   6   47.08    2.16
  -4   4   6   40.15    1.81
   4  -4  -5   14.42    1.53
  -4   4   5    9.17    1.09
  -4   4   5   10.28    1.30
   4  -4  -4   -0.66    1.32
  -4   4   4    0.33    0.59
  -4   4   4   -0.02    0.50
   4  -4  -3   13.21    2.34
  -4   4   3   12.50    0.81
  -4   4   3   11.72    1.40
   4  -4  -2   56.03    2.50
  -4   4   2   57.67    2.43
   4  -4  -1    0.16    0.60
  -4   4   1    0.32    0.70
   4  -4   0    6.09    1.94
  -4   4   0    5.41    1.84
   4  -4   1   38.60    3.26
  -4   4  -1   31.08    2.80
   4  -4   2    3.27    1.74
  -4   4  -2    5.05    1.76
   4  -4   3    0.24    1.27
  -4   4  -3    0.66    0.80
   4  -4   4  422.57   12.61
  -4   4  -4  376.29   11.07
   4  -4   5    4.58    1.19
  -4   4  -5    4.50    1.11
   4  -4   6   12.91    1.43
  -4   4  -6   16.24    2.34
   4  -4   7   10.59    1.51
  -4   4  -7    8.89    1.28
   4  -4   8    5.96    1.81
  -4   4  -8    8.31    2.00
   4  -4   9   27.03    2.94
  -4   4  -9   30.86    3.10
   4  -4  10   12.23    1.38
  -4   4 -10   14.69    2.57
   4  -4  11   28.17    1.88
  -4   4 -11   34.50    2.32
   4  -4  12    1.70    1.53
  -4   4 -12    1.24    1.08
   4  -4  13   20.75    3.06
  -4   4 -13   20.34    3.22
   4  -4  14    7.00    1.41
  -4   4 -14    7.78    2.71
   4  -3 -14    3.38    1.34
   4  -3 -14    1.54    2.07
   4  -3 -13    1.71    0.96
   4  -3 -13    1.28    1.13
   4  -3 -12    2.26    1.16
   4  -3 -12    3.21    1.76
   4  -3 -11    0.06    1.29
   4  -3 -11   -0.65    0.84
   4  -3 -10    4.11    1.79
   4  -3 -10    3.57    1.19
   4  -3  -9   37.66    2.16
   4  -3  -8   69.65    2.81
   4  -3  -7   45.11    3.18
   4  -3  -6   20.44    2.51
  -4   3   6   16.53    1.37
  -4   3   6   16.15    0.90
   4  -3  -5    0.86    0.80
  -4   3   5    0.39    0.69
  -4   3   5    0.58    0.44
   4  -3  -4    0.29    1.04
  -4   3   4    0.60    0.65
  -4   3   4    0.21    0.40
   4  -3  -3  153.69    5.42
  -4   3   3  150.45    4.13
  -4   3   3  144.62    3.44
   4  -3  -2   64.97    2.38
  -4   3   2   67.53    2.47
   4  -3  -1   17.31    1.43
  -4   3   1   17.16    1.38
   4  -3   0   25.70    1.55
  -4   3   0   25.97    1.60
   4  -3   1   51.83    1.92
  -4   3  -1   59.92    2.29
   4  -3   2   13.05    1.30
  -4   3  -2   13.17    1.96
   4  -3   3    5.93    1.16
  -4   3  -3    4.00    1.51
   4  -3   4   55.14    3.32
  -4   3  -4   52.47    3.15
   4  -3   5   67.37    3.64
  -4   3  -5   57.53    2.24
   4  -3   6  166.75    4.75
  -4   3  -6  160.91    5.61
   4  -3   7   43.00    2.82
  -4   3  -7   43.91    1.92
   4  -3   8    3.52    0.87
  -4   3  -8    4.03    1.48
   4  -3   9    3.67    1.27
  -4   3  -9    1.42    1.30
   4  -3  10    6.53    1.60
  -4   3 -10    5.86    1.74
   4  -3  11    2.52    0.83
  -4   3 -11    2.31    0.96
   4  -3  12   11.02    1.81
  -4   3 -12   13.85    1.50
   4  -3  13    0.04    0.53
  -4   3 -13    0.49    1.26
   4  -3  14    4.63    1.66
  -4   3 -14    8.99    2.34
   4  -3  15    2.00    1.39
   4  -2 -14    0.64    0.92
   4  -2 -14    0.13    1.56
   4  -2 -13    2.40    1.17
   4  -2 -13    1.92    1.91
   4  -2 -12    0.01    0.72
   4  -2 -12    0.97    0.85
   4  -2 -11    0.30    0.61
   4  -2 -11   -0.18    0.65
   4  -2 -10    0.20    0.76
   4  -2 -10    0.85    0.80
   4  -2  -9    2.60    0.94
   4  -2  -9    1.99    1.02
   4  -2  -8   41.93    2.02
   4  -2  -8   44.62    2.20
   4  -2  -7  359.64   10.45
   4  -2  -6   50.50    3.16
   4  -2  -5   65.79    2.46
  -4   2   5   37.81    0.88
   4  -2  -4   42.93    2.84
  -4   2   4   42.88    2.69
   4  -2  -3    0.89    0.71
  -4   2   3   -0.10    0.17
  -4   2   3    0.49    0.78
   4  -2  -2    0.26    0.55
  -4   2   2    0.12    0.78
   4  -2  -1    4.98    1.41
  -4   2   1    5.25    1.43
   4  -2   0   28.37    1.44
  -4   2   0   31.76    2.23
   4  -2   1    6.00    0.94
  -4   2  -1    6.71    1.46
   4  -2   2   19.79    1.25
  -4   2  -2   20.91    1.93
   4  -2   3   10.05    1.60
  -4   2  -3    9.13    1.53
   4  -2   4   99.42    2.97
  -4   2  -4   89.03    3.38
   4  -2   5  191.84    5.76
  -4   2  -5  174.67    4.31
   4  -2   6  124.62    4.27
  -4   2  -6  114.72    3.08
   4  -2   7   84.86    2.56
  -4   2  -7   85.12    3.30
   4  -2   8   48.18    2.65
  -4   2  -8   44.86    1.74
   4  -2   9    7.29    0.81
  -4   2  -9    9.43    1.49
   4  -2  10   16.69    1.66
  -4   2 -10   18.63    1.79
   4  -2  11    0.20    0.73
  -4   2 -11    0.05    0.71
   4  -2  12    7.40    0.88
  -4   2 -12   11.55    1.77
   4  -2  13   -0.21    0.77
  -4   2 -13    0.37    0.99
   4  -2  14    2.65    1.03
  -4   2 -14    2.87    1.38
   4  -1 -15   34.64    3.21
   4  -1 -15   38.55    2.53
   4  -1 -14    2.56    1.75
   4  -1 -14    0.92    1.75
   4  -1 -13    7.32    2.27
   4  -1 -13    7.06    2.21
   4  -1 -12    0.03    1.37
   4  -1 -12    0.77    0.82
   4  -1 -11    8.71    0.93
   4  -1 -11    6.42    1.31
   4  -1 -11    7.20    2.03
   4  -1 -10   12.02    2.04
   4  -1 -10   12.29    0.92
   4  -1 -10   12.71    1.40
   4  -1  -9   15.98    2.07
   4  -1  -9   12.36    1.38
   4  -1  -8   36.38    2.71
   4  -1  -8   31.56    1.87
   4  -1  -7   13.95    2.01
   4  -1  -7   14.86    1.38
   4  -1  -6  208.58    5.40
   4  -1  -5    8.57    1.79
   4  -1  -4   42.03    1.86
   4  -1  -3    0.85    1.00
  -4   1   3    0.77    0.49
  -4   1   3    0.18    0.12
   4  -1  -2   38.10    2.33
  -4   1   2   34.67    0.81
  -4   1   2   38.90    2.26
   4  -1  -1  177.43    4.25
  -4   1   1  172.86    4.08
   4  -1   0   28.50    1.90
  -4   1   0   29.40    1.26
   4  -1   1  166.75    4.57
  -4   1  -1  171.18    3.94
   4  -1   2  155.84    3.57
  -4   1  -2  163.32    3.76
   4  -1   3   78.75    2.75
  -4   1  -3   85.15    2.31
   4  -1   4   26.85    1.38
  -4   1  -4   32.87    1.28
   4  -1   5    2.20    1.03
  -4   1  -5    3.23    0.59
   4  -1   6  126.53    3.83
  -4   1  -6  124.63    3.66
   4  -1   7   44.48    2.11
  -4   1  -7   43.09    2.00
   4  -1   8   23.62    1.62
  -4   1  -8   22.80    1.06
   4  -1   9    0.93    0.68
  -4   1  -9    0.72    0.71
   4  -1  10   32.27    1.75
  -4   1 -10   33.15    1.82
   4  -1  11   67.29    2.43
  -4   1 -11   82.70    2.34
   4  -1  12    8.91    0.79
  -4   1 -12   14.14    0.96
   4  -1  13    0.74    0.65
  -4   1 -13    0.82    0.50
   4  -1  14    8.00    1.25
  -4   1 -15    0.08    0.81
  -4   1 -16    1.50    2.33
   4   0 -15    1.07    2.05
   4   0 -14    5.59    2.12
   4   0 -14    2.87    1.24
   4   0 -13    7.55    1.26
   4   0 -13    7.09    2.22
   4   0 -12    2.29    1.01
   4   0 -12    1.59    1.61
   4   0 -11    5.38    1.19
   4   0 -11    5.06    1.16
   4   0 -11    5.50    0.88
   4   0 -10   12.10    1.97
   4   0 -10    8.21    1.25
   4   0 -10    7.57    0.81
   4   0  -9    1.75    1.30
   4   0  -9    1.33    0.46
   4   0  -9    1.36    0.83
   4   0  -8    0.02    0.19
   4   0  -8    0.44    0.77
   4   0  -8   -0.16    0.76
   4   0  -7   14.26    1.87
   4   0  -7   11.33    0.41
   4   0  -7   12.57    1.87
   4   0  -6   15.36    1.87
   4   0  -6   15.18    1.26
   4   0  -5   24.76    2.06
   4   0  -5   23.03    1.39
   4   0  -4  110.81    3.86
   4   0  -3    0.43    0.52
   4   0  -2    0.05    0.61
   4   0  -1  524.28   12.19
  -4   0   1  486.53    8.33
   4   0   0  215.27    5.47
  -4   0   0  209.03    5.30
   4   0   1  290.45    6.78
  -4   0  -1  288.32    6.70
   4   0   2  326.11    7.34
  -4   0  -2  325.19    7.30
   4   0   3   14.73    0.76
  -4   0  -3   16.49    1.22
   4   0   4   50.81    1.89
  -4   0  -4   49.81    1.84
   4   0   5    1.29    0.65
  -4   0  -5    1.41    0.66
   4   0   6    0.40    0.32
  -4   0  -6    0.97    0.59
   4   0   7  100.90    2.79
  -4   0  -7  102.10    2.74
   4   0   8    0.63    0.55
  -4   0  -8    0.47    0.52
   4   0   9   15.04    1.04
  -4   0  -9   16.74    1.09
   4   0  10   18.31    1.03
  -4   0 -10   23.99    1.26
   4   0  11    1.95    0.61
  -4   0 -11    2.87    0.68
   4   0  12    0.44    0.44
  -4   0 -12    0.25    0.75
  -4   0 -12    0.26    0.48
   4   0  13    9.79    0.93
  -4   0 -13   11.37    2.61
  -4   0 -13   11.43    0.99
  -4   0 -14    5.13    2.35
  -4   0 -15   22.54    2.31
  -4   0 -16    0.37    2.21
  -4   0 -17    2.94    2.19
   4   1 -15    0.63    0.85
   4   1 -15   -0.07    0.86
   4   1 -14   -0.05    1.43
   4   1 -14    0.76    1.05
   4   1 -13    1.09    1.84
   4   1 -13    2.17    1.06
   4   1 -12   14.62    2.37
   4   1 -12   14.56    2.46
   4   1 -12    9.16    1.24
   4   1 -11  141.49    5.51
   4   1 -11  139.73    5.62
   4   1 -11  138.88    3.83
   4   1 -10   20.22    1.64
   4   1 -10   18.40    1.55
   4   1 -10   18.39    1.15
   4   1  -9   35.83    1.88
   4   1  -9   36.55    1.93
   4   1  -9   36.36    1.27
   4   1  -8    1.98    1.32
   4   1  -8    2.34    1.34
   4   1  -8    2.10    0.43
   4   1  -7    1.59    1.09
   4   1  -7    1.25    1.15
   4   1  -7    0.89    0.28
   4   1  -6   20.58    1.37
   4   1  -6   20.61    0.55
   4   1  -6   19.89    2.12
   4   1  -5   84.85    2.56
   4   1  -5   82.87    3.45
   4   1  -4   20.84    1.25
   4   1  -4   20.92    1.29
   4   1  -3   22.63    1.75
   4   1  -3   22.18    1.19
   4   1  -2   48.60    2.13
   4   1  -2   45.90    2.20
   4   1  -1   18.82    1.49
   4   1   0    1.39    0.75
  -4  -1   0    1.16    0.32
   4   1   1   63.52    2.21
  -4  -1  -1   61.45    1.41
   4   1   2    0.46    0.36
  -4  -1  -2    0.20    0.29
  -4  -1  -2    0.04    0.29
   4   1   3   30.11    0.98
  -4  -1  -3   30.85    1.33
  -4  -1  -3   28.75    1.31
   4   1   4   95.48    2.39
  -4  -1  -4   95.65    2.35
  -4  -1  -4   94.74    2.65
   4   1   5    1.32    0.52
  -4  -1  -5    1.92    0.80
  -4  -1  -5    0.98    0.48
   4   1   6    4.36    0.61
  -4  -1  -6    5.85    1.17
  -4  -1  -6    4.14    0.58
   4   1   7    7.65    0.85
  -4  -1  -7    8.58    1.44
  -4  -1  -7    7.60    0.63
   4   1   8    0.61    0.32
  -4  -1  -8    0.07    0.91
  -4  -1  -8    0.34    0.31
   4   1   9   -0.01    0.16
  -4  -1  -9   94.22    2.02
  -4  -1  -9  100.38    4.01
   4   1  10   -0.08    0.25
  -4  -1 -10    6.15    0.52
  -4  -1 -10    6.04    1.12
   4   1  11    7.83    0.65
  -4  -1 -11   10.62    1.31
  -4  -1 -11    7.54    0.69
   4   1  12   77.75    1.59
  -4  -1 -12   95.94    4.77
  -4  -1 -12   85.51    1.99
   4   1  13   20.81    0.66
  -4  -1 -13   30.52    3.55
  -4  -1 -14    7.17    1.76
  -4  -1 -15   20.97    4.06
  -4  -1 -16   23.14    2.58
   4   2 -14    0.83    0.96
   4   2 -14    2.31    1.82
   4   2 -13    7.94    2.14
   4   2 -13   12.66    1.65
   4   2 -12    0.31    0.81
   4   2 -12    0.71    0.77
   4   2 -12    1.19    1.04
   4   2 -11    8.90    2.34
   4   2 -11    8.28    1.26
   4   2 -11    7.28    1.26
   4   2 -10   29.00    2.82
   4   2 -10   20.86    1.36
   4   2  -9    3.06    1.03
   4   2  -9    4.66    0.74
   4   2  -8   30.77    2.67
   4   2  -7    5.47    1.68
   4   2  -6  258.06    6.28
   4   2  -5   34.28    2.26
   4   2  -4   14.75    1.59
   4   2  -4   14.06    0.38
   4   2  -3  239.65    4.12
   4   2  -3  238.83    5.41
   4   2  -2  126.12    3.63
   4   2  -2  123.36    2.18
   4   2  -1    1.59    0.35
   4   2  -1    2.11    0.50
   4   2   0  596.90   13.17
   4   2   0  600.24   11.59
   4   2   0  603.87   12.79
  -4  -2   0  700.66   13.67
   4   2   1   27.21    1.38
   4   2   1   29.48    0.77
   4   2   1   29.53    1.04
  -4  -2  -1   28.55    0.99
   4   2   2 1037.61   22.38
   4   2   2 1065.73   23.24
  -4  -2  -2 1094.84   24.04
   4   2   3  566.34   11.72
   4   2   3  565.16   11.38
  -4  -2  -3  589.03   12.75
   4   2   4    5.34    0.58
   4   2   4    5.71    0.64
  -4  -2  -4    5.01    0.90
   4   2   5  157.42    3.12
  -4  -2  -5  160.82    4.25
   4   2   6   -0.07    0.20
  -4  -2  -6 1049.65   24.04
   4   2   7   30.41    0.68
  -4  -2  -7   55.61    1.92
   4   2   8    4.08    0.22
  -4  -2  -8    4.92    1.41
  -4  -2  -9  144.87    5.07
  -4  -2 -10   11.35    2.03
  -4  -2 -11    1.69    0.96
  -4  -2 -12   14.47    1.63
  -4  -2 -13    0.94    0.98
  -4  -2 -14    6.60    2.48
  -4  -2 -15   18.06    3.38
  -4  -2 -16    3.30    1.57
   4   3 -14    2.45    1.09
   4   3 -14    5.64    1.45
   4   3 -13   13.57    2.99
   4   3 -12   44.54    3.98
   4   3 -11   40.50    2.48
   4   3 -10  203.40    8.05
   4   3  -9    3.92    1.23
   4   3  -8    1.21    1.38
   4   3  -7   12.53    2.10
   4   3  -6  161.23    4.40
   4   3  -5   11.86    1.19
  -4  -3   5   14.93    1.25
   4   3  -4    4.03    1.41
  -4  -3   4    4.90    0.89
   4   3  -3  112.97    3.07
   4   3  -3  124.13    2.49
  -4  -3   3  114.40    3.03
   4   3  -2   43.21    1.27
   4   3  -2   42.90    2.14
  -4  -3   2   46.66    1.65
   4   3  -1   29.72    1.06
   4   3  -1   28.76    1.14
   4   3   0    6.60    0.43
   4   3   0    6.81    0.61
   4   3   1    0.35    0.55
   4   3   1    0.47    0.29
  -4  -3  -1    0.24    0.30
   4   3   2   61.66    1.84
   4   3   2   63.50    1.95
  -4  -3  -2   65.49    1.97
   4   3   3   75.69    1.88
   4   3   3   71.16    1.68
  -4  -3  -3   85.13    2.52
   4   3   4    4.90    0.52
   4   3   4    5.51    0.57
   4   3   4    4.78    0.63
  -4  -3  -4    5.99    0.65
   4   3   5   66.56    1.64
   4   3   5   66.60    1.97
  -4  -3  -5   68.33    1.95
   4   3   6   12.99    0.40
  -4  -3  -6   38.70    1.59
  -4  -3  -7    1.47    1.10
  -4  -3  -8   76.53    2.56
  -4  -3  -9   61.39    2.46
  -4  -3 -10   69.42    2.75
  -4  -3 -11  271.94    8.80
  -4  -3 -12   18.50    1.82
  -4  -3 -13    4.81    1.41
  -4  -3 -14   72.17    3.53
  -4  -3 -15   13.95    2.04
  -4  -3 -16   25.54    4.02
  -4  -3 -17    7.93    3.22
   4   4 -14    1.30    2.00
   4   4 -13    3.35    2.26
   4   4 -12    0.88    1.10
   4   4 -11   56.06    4.44
   4   4 -10    1.19    1.04
   4   4  -9   23.12    2.94
  -4  -4   9   25.11    1.90
   4   4  -8    0.87    0.87
  -4  -4   8    1.13    1.45
   4   4  -7   96.79    4.61
  -4  -4   7   97.04    3.40
   4   4  -6   93.76    4.50
  -4  -4   6   87.18    4.19
   4   4  -5    2.02    0.91
  -4  -4   5    1.09    1.22
   4   4  -4    0.78    1.14
  -4  -4   4    2.32    0.82
   4   4  -3    1.54    1.15
  -4  -4   3    1.42    0.69
   4   4  -2   73.86    3.16
   4   4  -2   80.76    2.60
  -4  -4   2   76.11    2.29
   4   4  -1  289.04    6.58
   4   4  -1  276.64    6.25
  -4  -4   1  285.89    6.39
   4   4   0 1414.08   34.57
   4   4   0 1410.96   33.21
  -4  -4   0 1413.29   33.39
   4   4   1 1821.36   45.27
   4   4   1 1853.94   45.71
  -4  -4  -1 1886.31   45.93
   4   4   2  261.16    6.37
   4   4   2  253.87    5.82
  -4  -4  -2  266.62    6.19
  -4  -4  -2  291.77    6.47
   4   4   3   48.35    1.57
   4   4   3   47.32    1.62
  -4  -4  -3   48.28    1.61
  -4  -4  -3   48.71    2.07
   4   4   4  214.08    5.60
   4   4   4  211.70    4.41
  -4  -4  -4  210.07    4.75
   4   4   5   17.58    1.59
   4   4   5   21.90    0.81
  -4  -4  -5   22.20    1.80
   4   4   6   60.95    2.78
   4   4   6   57.08    1.15
  -4  -4  -6   58.85    2.01
   4   4   7  125.14    4.42
  -4  -4  -7  131.07    3.67
  -4  -4  -8  425.94   11.50
  -4  -4  -9  543.96   13.43
  -4  -4 -10    0.36    0.78
  -4  -4 -11   95.34    4.97
  -4  -4 -12  205.51    7.76
  -4  -4 -13    9.40    2.62
  -4  -4 -14    0.43    1.69
  -4  -4 -15   57.74    5.09
  -4  -4 -16    8.71    2.10
  -4  -4 -17   35.55    3.38
   4   5 -13    6.77    2.16
   4   5 -12    2.19    2.23
   4   5 -11  135.26    5.42
  -4  -5  11  132.90    6.66
   4   5 -10   -0.66    1.69
  -4  -5  10    0.33    1.51
   4   5  -9   24.03    3.22
  -4  -5   9   23.20    3.22
   4   5  -8    1.83    1.05
  -4  -5   8    1.02    1.56
   4   5  -7   20.39    2.69
  -4  -5   7   20.14    1.76
   4   5  -6   19.60    2.59
  -4  -5   6   20.33    2.59
   4   5  -5   57.93    2.48
  -4  -5   5   58.90    2.48
   4   5  -4  142.81    4.11
  -4  -5   4  148.41    5.26
   4   5  -3    9.39    1.11
  -4  -5   3   10.87    1.72
   4   5  -2   20.27    1.17
   4   5  -2   17.31    1.27
  -4  -5   2   20.47    1.30
   4   5  -1   79.36    2.25
   4   5  -1   79.38    2.42
  -4  -5   1   82.29    2.44
   4   5   0   12.87    0.99
   4   5   0   12.27    1.36
  -4  -5   0   12.83    0.98
   4   5   1    2.22    0.60
   4   5   1    1.27    0.92
  -4  -5  -1    1.42    0.53
   4   5   2    1.54    0.92
   4   5   2    1.09    0.48
  -4  -5  -2    1.29    0.47
   4   5   3    0.82    0.50
   4   5   3    0.30    0.37
  -4  -5  -3    0.74    0.60
   4   5   4  445.64    9.66
   4   5   4  471.37   11.83
  -4  -5  -4  460.19    9.31
  -4  -5  -4  457.84   11.64
   4   5   5  156.99    3.42
   4   5   5  155.01    5.02
  -4  -5  -5  164.28    3.52
  -4  -5  -5  163.46    5.24
   4   5   6   27.26    2.23
   4   5   6   28.04    0.96
  -4  -5  -6   28.66    0.91
  -4  -5  -6   29.05    2.31
   4   5   7    5.96    0.96
   4   5   7    5.96    0.36
  -4  -5  -7    7.07    1.73
   4   5   8    6.51    1.16
  -4  -5  -8    6.29    1.20
   4   5   9   22.60    1.69
  -4  -5  -9   24.75    1.80
  -4  -5 -10    7.54    1.33
  -4  -5 -11    0.23    1.27
  -4  -5 -12    0.15    1.29
  -4  -5 -13   16.18    3.17
  -4  -5 -14   15.69    3.48
  -4  -5 -15    9.64    3.42
  -4  -5 -16    9.10    3.61
  -4  -5 -17    8.97    3.51
   4   6 -12    3.18    1.31
  -4  -6  12    0.50    1.97
   4   6 -11   70.23    6.36
  -4  -6  11   58.95    3.70
   4   6 -10    3.00    1.70
  -4  -6  10    1.42    2.12
   4   6  -9    4.62    1.66
  -4  -6   9    6.00    1.60
   4   6  -8   23.24    3.55
  -4  -6   8   17.67    2.94
   4   6  -7    6.21    2.30
  -4  -6   7    6.81    1.39
   4   6  -6    1.32    1.00
  -4  -6   6   -0.43    1.24
   4   6  -5   74.91    3.04
  -4  -6   5   67.28    2.76
   4   6  -4    1.10    0.86
  -4  -6   4    0.90    1.25
   4   6  -3    1.64    0.86
  -4  -6   3    1.34    1.24
   4   6  -2    0.64    0.65
   4   6  -2    1.14    0.72
  -4  -6   2    1.28    0.69
   4   6  -1   18.06    2.01
   4   6  -1   16.51    1.77
  -4  -6   1   16.84    1.79
   4   6   0    1.00    0.64
   4   6   0    1.88    1.06
  -4  -6   0    2.27    1.10
   4   6   1   35.29    1.61
   4   6   1   33.77    1.48
  -4  -6  -1   37.57    2.10
   4   6   2   17.83    1.60
   4   6   2   17.56    1.92
  -4  -6  -2   16.33    1.48
   4   6   3   19.04    2.04
   4   6   3   19.36    1.51
  -4  -6  -3   17.39    1.36
   4   6   4  222.89    5.80
   4   6   4  227.69    5.55
  -4  -6  -4  210.80    4.98
   4   6   5    3.98    0.92
   4   6   5    3.18    0.83
  -4  -6  -5    5.00    1.09
  -4  -6  -5    4.34    0.46
   4   6   6   13.61    0.96
   4   6   6   12.42    2.15
  -4  -6  -6   11.57    0.82
  -4  -6  -6   13.08    2.04
   4   6   7  367.83    7.48
   4   6   7  379.32   11.03
  -4  -6  -7  390.22   11.33
  -4  -6  -7  359.37    7.31
   4   6   8  187.16    3.32
   4   6   8  194.12    6.78
  -4  -6  -8  214.65    6.25
   4   6   9  108.40    4.95
  -4  -6  -9  120.06    5.54
   4   6  10   70.89    4.13
  -4  -6 -10   79.73    3.44
  -4  -6 -11    0.27    1.37
  -4  -6 -12   47.95    2.95
  -4  -6 -13   50.16    3.20
  -4  -6 -14   48.10    3.29
  -4  -6 -15   10.97    2.26
  -4  -6 -16   13.18    2.53
   4   7 -11   -0.66    2.11
  -4  -7  11    0.94    2.25
  -4  -7  10    2.45    2.55
   4   7  -9    0.24    1.37
  -4  -7   9    0.35    1.03
   4   7  -8    5.91    1.45
  -4  -7   8    8.50    2.75
   4   7  -7    1.22    1.00
  -4  -7   7    0.74    0.95
   4   7  -6   15.91    1.70
  -4  -7   6   15.70    2.69
   4   7  -5   17.02    2.60
  -4  -7   5   20.78    1.86
   4   7  -4    6.92    2.01
  -4  -7   4    5.65    1.25
   4   7  -3    9.19    1.26
  -4  -7   3    6.35    1.87
   4   7  -2    1.06    0.73
   4   7  -2    0.44    0.74
  -4  -7   2    0.74    0.73
   4   7  -1    4.76    1.55
   4   7  -1    5.04    1.59
  -4  -7   1    6.42    1.63
   4   7   0   23.89    2.37
   4   7   0   26.85    2.38
  -4  -7   0   23.10    2.24
   4   7   1   14.77    2.04
   4   7   1   12.75    1.20
  -4  -7  -1   11.82    1.73
   4   7   2    4.35    0.85
   4   7   2    2.20    1.57
  -4  -7  -2    2.61    0.71
   4   7   3   21.35    1.55
   4   7   3   20.12    1.83
  -4  -7  -3   21.14    1.14
   4   7   4    0.75    0.75
   4   7   4    0.71    0.52
  -4  -7  -4   -0.01    0.26
   4   7   5   37.19    2.05
   4   7   5   38.23    1.97
  -4  -7  -5   36.59    1.75
   4   7   6    1.13    0.66
   4   7   6    1.03    0.86
  -4  -7  -6    0.75    0.58
   4   7   7   26.30    1.22
   4   7   7   28.24    2.91
  -4  -7  -7   28.14    2.14
  -4  -7  -7   25.69    1.20
   4   7   8    0.53    1.60
   4   7   8    1.70    0.66
  -4  -7  -8    1.72    1.54
  -4  -7  -8    0.54    0.39
   4   7   9    0.86    1.26
   4   7   9    0.26    0.33
  -4  -7  -9    1.53    0.85
  -4  -7  -9    0.21    0.24
   4   7  10    5.64    2.24
  -4  -7 -10    5.92    2.37
   4   7  11    5.28    2.17
  -4  -7 -11    6.88    2.57
   4   7  12   18.75    1.94
  -4  -7 -12   25.24    2.54
  -4  -7 -13    3.66    2.67
  -4  -7 -14    5.26    3.07
  -4  -7 -15    2.70    3.06
  -4  -7 -16    0.06    1.94
   4   8 -10    1.69    2.42
  -4  -8  10    1.52    1.53
   4   8  -9    0.69    3.08
  -4  -8   9    0.53    1.95
   4   8  -8    0.39    1.80
  -4  -8   8    0.02    0.71
   4   8  -7    5.32    2.78
  -4  -8   7    5.96    2.48
   4   8  -6    0.23    0.94
  -4  -8   6    1.06    1.19
   4   8  -5   35.59    2.61
  -4  -8   5   37.41    3.88
   4   8  -4    2.47    1.98
  -4  -8   4    1.78    1.76
   4   8  -3    0.77    1.54
  -4  -8   3    0.52    0.85
   4   8  -2   14.05    1.59
   4   8  -2   15.48    3.01
  -4  -8   2   14.04    2.40
   4   8  -1    5.20    1.92
   4   8  -1    5.91    1.42
  -4  -8   1    7.94    1.27
   4   8   0   20.70    2.65
   4   8   0   22.81    2.84
  -4  -8   0   19.35    1.51
   4   8   1   24.50    2.79
   4   8   1   24.93    1.67
  -4  -8  -1   25.17    2.37
   4   8   2   -0.48    1.06
   4   8   2    0.52    0.91
  -4  -8  -2    0.72    0.98
   4   8   3   44.82    2.83
   4   8   3   41.27    3.37
  -4  -8  -3   38.09    2.29
   4   8   4   31.67    3.13
   4   8   4   38.70    2.56
  -4  -8  -4   31.01    1.96
   4   8   5   -0.04    1.66
   4   8   5    2.10    0.99
  -4  -8  -5    1.92    0.91
   4   8   6   14.66    1.51
   4   8   6   16.70    2.73
  -4  -8  -6   16.30    1.35
   4   8   7   44.08    2.05
   4   8   7   44.32    3.91
  -4  -8  -7   42.41    1.92
   4   8   8   49.77    1.94
  -4  -8  -8   47.78    1.83
   4   8   9   35.38    1.43
   4   8   9   39.25    3.70
  -4  -8  -9   34.43    1.35
   4   8  10   -0.71    1.61
  -4  -8 -10    0.21    0.93
   4   8  11    0.45    1.77
  -4  -8 -11    0.16    0.96
   4   8  12   26.97    3.75
  -4  -8 -12   36.53    4.42
   4   8  13    3.35    1.38
  -4  -8 -13    3.18    2.82
  -4  -8 -14   19.47    2.77
  -4  -8 -15   17.61    2.89
   4   9  -8   -1.15    1.34
  -4  -9   8    0.15    0.96
   4   9  -7    1.00    2.04
  -4  -9   7   -0.89    2.25
   4   9  -6   -0.48    1.77
  -4  -9   6    0.94    1.33
   4   9  -5    0.48    1.67
  -4  -9   5    1.11    1.95
   4   9  -4    0.37    0.94
  -4  -9   4    0.07    0.77
   4   9  -3    0.08    1.03
   4   9  -3    1.97    1.05
  -4  -9   3    1.48    1.86
   4   9  -2    0.02    1.04
   4   9  -2    2.00    1.00
  -4  -9   2    1.06    0.99
   4   9  -1    0.16    0.80
   4   9  -1    0.20    1.16
  -4  -9   1    0.04    0.60
   4   9   0    3.41    2.26
   4   9   0    5.72    1.41
  -4  -9   0    3.34    1.60
   4   9   1    1.27    1.54
   4   9   1    0.01    1.41
  -4  -9  -1    2.80    0.90
   4   9   2    2.53    2.28
   4   9   2    5.92    1.34
  -4  -9  -2    4.47    0.94
   4   9   3    0.89    0.87
   4   9   3    1.05    1.03
  -4  -9  -3    0.46    0.58
   4   9   4    5.36    1.35
   4   9   4    4.44    1.01
  -4  -9  -4    3.45    1.24
   4   9   5   11.15    1.79
   4   9   5    9.48    1.08
  -4  -9  -5   10.33    1.50
   4   9   6    5.87    1.36
   4   9   6    6.31    1.56
  -4  -9  -6    5.97    1.23
   4   9   7   10.33    1.36
   4   9   7   10.82    1.77
  -4  -9  -7   10.06    0.83
   4   9   8   17.32    1.65
   4   9   8   22.64    2.19
  -4  -9  -8   15.38    1.28
   4   9   9   -0.16    0.57
   4   9   9   -0.24    0.89
  -4  -9  -9    0.29    0.56
   4   9  10   14.81    2.10
   4   9  11   -0.16    1.77
   4   9  12   21.37    3.73
   4   9  13    0.74    1.95
  -4  -9 -14   -0.57    1.33
   4  10  -6    2.20    2.07
  -4 -10   6    0.97    2.57
   4  10  -5    1.92    1.90
  -4 -10   5    1.55    1.50
   4  10  -4    2.01    1.49
   4  10  -4   -0.13    1.12
  -4 -10   4   -0.72    1.24
   4  10  -3   -0.77    1.79
   4  10  -3    0.01    0.91
  -4 -10   3   -0.15    1.45
   4  10  -2    4.34    2.62
   4  10  -2    3.98    3.44
  -4 -10   2    3.78    1.43
   4  10  -1   -0.18    1.50
   4  10  -1    0.32    1.13
  -4 -10   1    0.48    1.53
   4  10   0    5.83    1.70
   4  10   0    4.23    3.00
  -4 -10   0    4.71    1.87
   4  10   1    5.27    2.76
   4  10   1    5.51    1.67
  -4 -10  -1    4.02    1.09
   4  10   2    0.85    1.79
   4  10   2    0.10    1.64
  -4 -10  -2    0.27    0.65
   4  10   3    9.59    1.47
   4  10   3    7.73    1.83
  -4 -10  -3    5.70    1.70
   4  10   4   22.03    2.33
   4  10   4   22.42    1.72
  -4 -10  -4   21.95    2.22
   4  10   5    1.25    1.07
   4  10   5    0.01    0.65
  -4 -10  -5   -0.47    0.96
   4  10   6    1.76    1.53
   4  10   6    1.44    1.38
  -4 -10  -6    1.52    1.10
   4  10   7   17.32    1.99
   4  10   7   27.29    3.77
  -4 -10  -7   18.66    1.80
   4  10   8   10.77    1.62
   4  10   8    6.30    3.23
  -4 -10  -8    9.57    0.89
   4  10   9    2.92    2.49
   4  10  10    2.18    2.41
   4  10  11   -0.16    1.04
   4  10  12    1.48    1.82
   4  11  -4   -1.36    3.12
   4  11  -4   -0.19    1.11
  -4 -11   4   -0.19    1.16
   4  11  -3    2.33    2.99
   4  11  -3   -0.20    2.27
  -4 -11   3    1.38    2.23
   4  11  -2    1.26    1.74
   4  11  -2    0.39    1.39
  -4 -11   2   -0.29    1.03
   4  11  -1    0.65    2.12
   4  11  -1    0.44    1.54
  -4 -11   1   -0.82    1.83
   4  11   0    2.60    2.51
   4  11   0    0.76    2.36
  -4 -11   0    3.06    1.89
   4  11   1    0.05    0.99
   4  11   1    0.04    0.82
  -4 -11  -1    1.70    1.00
   4  11   2    1.01    1.44
   4  11   2   -0.83    1.89
  -4 -11  -2    1.38    0.92
   4  11   3   -0.57    1.13
   4  11   3    0.90    1.61
  -4 -11  -3    0.67    1.26
   4  11   4   24.45    2.64
   4  11   4   21.94    3.00
  -4 -11  -4   19.54    2.41
   4  11   5   25.39    2.95
   4  11   5   21.76    2.48
  -4 -11  -5   18.61    2.27
   4  11   6    4.42    1.67
   4  11   6    5.85    3.20
  -4 -11  -6    7.14    1.69
   4  11   7   20.02    2.80
   4  11   7   37.03    4.45
  -4 -11  -7   24.34    2.22
   4  11   8   -0.04    0.47
   4  11   8    0.15    1.47
  -4 -11  -8    0.25    0.52
   4  11   9    0.50    1.32
   4  11  10    0.02    0.87
   4  12   1    0.66    1.62
   4  12   1   -0.51    2.39
  -4 -12  -1    1.30    1.67
   4  12   2    0.55    1.24
   4  12   2    1.70    1.62
  -4 -12  -2    2.97    1.16
   4  12   3    0.15    1.99
   4  12   3   -0.68    1.62
  -4 -12  -3    0.97    0.92
   4  12   4    6.37    3.80
  -4 -12  -4    4.10    1.15
   4  12   5    2.00    1.82
   4  12   5    1.28    1.65
  -4 -12  -5    3.90    1.72
   4  12   6   10.10    2.43
   4  12   6   14.56    4.30
  -4 -12  -6   13.15    2.20
   5  -8  -3   -0.05    2.29
  -5   8   3    2.45    2.04
  -5   8   3    1.11    1.46
   5  -8  -2   13.27    6.19
  -5   8   2    7.67    2.76
  -5   8   2    9.69    2.22
   5  -8  -1   79.59    6.48
  -5   8   1   54.15    4.96
  -5   8   1   30.46    2.42
   5  -8   0    6.11    4.14
  -5   8   0    5.12    1.98
   5  -8   1    0.38    2.49
  -5   8  -1    2.24    2.65
   5  -8   2    7.51    1.92
  -5   8  -2    5.96    2.18
   5  -8   3   -0.93    3.66
  -5   8  -3    0.07    1.78
   5  -7  -7    2.42    2.44
  -5   7   7    2.45    1.26
   5  -7  -6    0.36    1.10
  -5   7   6    0.63    1.14
   5  -7  -5    0.55    1.20
  -5   7   5    1.11    1.75
  -5   7   5    0.18    1.09
   5  -7  -4    3.39    3.05
  -5   7   4    0.60    1.32
  -5   7   4    1.05    1.87
   5  -7  -3    2.93    1.81
  -5   7   3    2.17    1.75
  -5   7   3    2.95    1.49
   5  -7  -2    5.85    3.35
  -5   7   2    1.88    1.82
  -5   7   2    5.38    2.47
   5  -7  -1    2.05    1.98
  -5   7   1    0.65    1.95
  -5   7   1    0.74    0.83
  -5   7   0    1.86    1.42
   5  -7   1    2.68    2.23
  -5   7  -1    1.69    2.39
   5  -7   2   -0.43    2.23
  -5   7  -2    0.14    1.04
   5  -7   3   23.83    4.80
  -5   7  -3   14.25    3.42
   5  -7   4    1.44    1.31
  -5   7  -4    1.76    1.38
   5  -7   5    0.97    1.92
  -5   7  -5    2.37    2.31
   5  -7   6    0.90    2.09
  -5   7  -6   -0.31    1.84
   5  -7   7   -0.03    1.06
  -5   7  -7    0.82    1.34
   5  -6  -9    1.72    3.47
   5  -6  -8    0.78    1.82
  -5   6   8    0.36    0.80
   5  -6  -7    7.09    2.56
  -5   6   7    2.74    2.00
   5  -6  -6    5.89    3.75
  -5   6   6    4.04    1.95
  -5   6   6    1.89    1.20
   5  -6  -5   17.89    3.56
  -5   6   5   10.52    2.72
  -5   6   5    8.34    1.73
   5  -6  -4   10.68    1.95
  -5   6   4    4.30    1.53
  -5   6   4    5.45    1.50
   5  -6  -3    2.88    2.32
  -5   6   3    2.07    1.30
  -5   6   3    2.27    1.36
   5  -6  -2    5.66    1.71
  -5   6   2    3.62    2.23
  -5   6   2    2.62    1.44
   5  -6  -1    0.58    1.88
  -5   6   1    0.99    1.10
   5  -6   0    5.11    1.77
  -5   6   0    3.25    1.44
   5  -6   1   29.25    3.02
  -5   6  -1   22.37    3.49
   5  -6   2    7.46    3.59
  -5   6  -2    5.55    1.68
   5  -6   3   21.89    4.59
  -5   6  -3   11.35    2.88
   5  -6   4    0.47    1.22
  -5   6  -4    1.04    1.12
   5  -6   5   18.69    2.04
  -5   6  -5   20.52    3.30
   5  -6   6    1.47    1.71
  -5   6  -6    0.10    1.41
   5  -6   7   26.37    3.68
  -5   6  -7   23.97    2.46
   5  -6   8    1.25    1.59
  -5   6  -8    0.88    1.23
   5  -6   9    0.72    2.10
  -5   6  -9    1.53    2.17
   5  -5 -11   12.89    1.81
   5  -5 -11   12.95    2.09
   5  -5 -10   -0.30    1.00
   5  -5  -9    0.21    0.99
   5  -5  -8    0.42    1.00
   5  -5  -7    1.41    1.93
  -5   5   7    0.39    0.77
   5  -5  -6   -0.23    1.41
  -5   5   6    0.33    0.57
  -5   5   6   -0.26    0.48
   5  -5  -5   45.72    2.76
  -5   5   5   41.85    3.75
  -5   5   5   37.20    2.14
   5  -5  -4    1.06    2.04
  -5   5   4   -0.21    0.69
  -5   5   4   -0.02    1.27
   5  -5  -3   55.30    3.31
  -5   5   3   48.35    3.79
  -5   5   3   42.20    2.46
   5  -5  -2   16.70    3.11
  -5   5   2   15.40    1.79
  -5   5   2   12.33    1.12
   5  -5  -1    0.57    1.00
  -5   5   1    0.96    1.05
   5  -5   0    6.29    1.56
  -5   5   0    7.34    2.39
   5  -5   1    9.35    2.76
  -5   5  -1   10.27    1.62
   5  -5   2    2.87    2.19
  -5   5  -2    1.52    1.15
   5  -5   3   13.06    2.09
  -5   5  -3   10.77    2.72
   5  -5   4   19.13    2.39
  -5   5  -4   14.13    1.71
   5  -5   5    0.89    1.15
  -5   5  -5    0.48    1.43
   5  -5   6    3.62    1.24
  -5   5  -6    4.58    2.20
   5  -5   7    1.81    1.48
  -5   5  -7    2.14    1.21
   5  -5   8    2.87    1.24
  -5   5  -8    3.77    2.15
   5  -5   9    0.20    0.67
  -5   5  -9    0.12    1.28
   5  -5  10   -0.19    0.95
  -5   5 -10    0.89    1.68
   5  -5  11    2.10    1.85
  -5   5 -11    1.62    1.87
   5  -4 -12   -0.30    1.34
   5  -4 -12    5.83    2.09
   5  -4 -11   -0.09    1.08
   5  -4 -11    1.87    1.69
   5  -4 -10    0.46    1.61
   5  -4 -10    8.82    1.41
   5  -4  -9   -0.11    1.34
   5  -4  -8    3.55    2.20
   5  -4  -7    2.67    2.11
   5  -4  -6    3.71    1.38
  -5   4   6    3.22    0.98
  -5   4   6    2.03    0.66
   5  -4  -5    8.71    2.54
  -5   4   5    3.71    0.83
  -5   4   5    6.06    1.20
   5  -4  -4   20.60    2.01
  -5   4   4   21.97    1.79
  -5   4   4   17.60    1.28
   5  -4  -3   31.75    3.42
  -5   4   3   29.94    3.04
  -5   4   3   25.69    1.62
   5  -4  -2    8.74    1.47
  -5   4   2    6.47    1.59
  -5   4   2    0.56    0.54
   5  -4  -1  128.01    5.82
  -5   4   1  120.96    5.46
   5  -4   0  132.10    5.81
  -5   4   0  120.34    4.13
   5  -4   1    1.05    0.97
  -5   4  -1    0.88    0.94
   5  -4   2    7.83    1.50
  -5   4  -2    7.13    2.20
   5  -4   3   64.00    2.95
  -5   4  -3   63.00    2.91
   5  -4   4  119.09    4.48
  -5   4  -4  102.20    4.84
   5  -4   5    2.02    1.25
  -5   4  -5    1.00    0.89
   5  -4   6   30.56    2.23
  -5   4  -6   27.77    2.99
   5  -4   7   10.66    1.38
  -5   4  -7   10.54    1.43
   5  -4   8    2.58    2.12
  -5   4  -8    2.87    1.10
  -5   4  -9   13.37    2.50
   5  -4  10   22.04    3.12
  -5   4 -10   24.20    2.84
   5  -4  11    1.74    0.97
  -5   4 -11    0.97    1.48
   5  -4  12    1.07    1.47
  -5   4 -12    1.97    1.70
   5  -4  13    3.10    1.74
  -5   4 -13    3.12    1.89
   5  -3 -13    0.07    1.51
   5  -3 -13    0.40    1.36
   5  -3 -12   94.28    5.97
   5  -3 -12   94.53    5.60
   5  -3 -11    0.99    1.95
   5  -3 -11    1.48    1.19
   5  -3 -10   48.28    4.23
   5  -3 -10   47.09    2.80
   5  -3  -9   19.30    3.05
   5  -3  -9   17.15    1.76
   5  -3  -8    2.90    1.93
   5  -3  -7    2.45    1.13
   5  -3  -6    0.56    0.87
   5  -3  -5   34.03    3.19
  -5   3   5   28.34    1.68
  -5   3   5   15.56    0.93
   5  -3  -4  109.80    3.75
  -5   3   4   99.13    3.41
   5  -3  -3   74.27    4.14
  -5   3   3   65.56    1.97
  -5   3   3   67.47    2.74
   5  -3  -2    2.43    1.05
  -5   3   2    3.18    1.09
  -5   3   2   -0.05    0.31
   5  -3  -1   62.01    2.71
  -5   3   1   62.82    3.68
   5  -3   0    1.09    1.36
  -5   3   0    0.86    1.32
   5  -3   1    0.70    1.20
  -5   3  -1   -0.04    0.52
   5  -3   2   70.46    3.77
  -5   3  -2   71.81    2.87
   5  -3   3  527.46   15.11
  -5   3  -3  499.31   14.08
   5  -3   4    2.62    1.71
  -5   3  -4    2.61    1.03
   5  -3   5   11.81    1.49
  -5   3  -5    9.33    1.95
   5  -3   6   12.62    1.53
  -5   3  -6   10.70    1.24
   5  -3   7   28.00    2.81
  -5   3  -7   23.59    2.50
   5  -3   8   75.78    4.42
  -5   3  -8   65.77    2.63
   5  -3   9   15.18    1.36
  -5   3  -9   14.61    1.42
   5  -3  10    1.42    1.12
  -5   3 -10    0.64    1.19
   5  -3  11   14.91    2.13
  -5   3 -11   17.43    2.39
   5  -3  12   12.04    2.06
  -5   3 -12    8.09    2.03
   5  -3  13   12.66    2.06
  -5   3 -13   16.59    2.45
   5  -3  14    7.14    1.42
  -5   3 -14    1.42    1.58
   5  -2 -13    0.99    1.08
   5  -2 -13    1.25    1.25
   5  -2 -12    4.61    2.27
   5  -2 -12    5.23    1.36
   5  -2 -11    6.44    2.38
   5  -2 -11    7.98    1.55
   5  -2 -10    1.85    1.85
   5  -2 -10    2.76    1.20
   5  -2  -9   -0.44    1.13
   5  -2  -9    0.35    0.71
   5  -2  -8    2.33    1.67
   5  -2  -8    1.76    0.97
   5  -2  -7   17.90    1.67
   5  -2  -6  110.15    3.76
   5  -2  -5  148.79    5.78
   5  -2  -4    0.01    0.48
  -5   2   4   -0.07    0.49
  -5   2   4   -0.02    0.16
   5  -2  -3    0.49    1.22
  -5   2   3    0.24    1.10
  -5   2   3    0.39    0.33
   5  -2  -2    8.85    1.23
  -5   2   2    7.85    1.81
   5  -2  -1    0.07    0.54
  -5   2   1    0.50    1.12
   5  -2   0   20.86    2.31
  -5   2   0   21.01    1.42
   5  -2   1   17.00    2.24
  -5   2  -1   14.30    1.32
   5  -2   2    5.23    1.66
  -5   2  -2    4.70    1.00
   5  -2   3  567.67   13.16
  -5   2  -3  667.93   17.52
   5  -2   4   11.30    1.28
  -5   2  -4   11.18    1.25
   5  -2   5  344.96    9.69
  -5   2  -5  329.02    8.06
   5  -2   6  132.69    3.92
  -5   2  -6  116.04    4.39
   5  -2   7   31.12    2.63
  -5   2  -7   29.21    1.52
   5  -2   8    2.74    0.80
  -5   2  -8    2.60    1.24
   5  -2   9  166.36    5.38
  -5   2  -9  171.02    5.62
   5  -2  10    6.98    0.85
  -5   2 -10    5.77    1.51
   5  -2  11   22.34    1.99
  -5   2 -11   22.01    1.42
   5  -2  12    0.55    0.92
  -5   2 -12    0.65    0.65
   5  -2  13    0.00    0.32
  -5   2 -13    0.88    0.70
   5  -1 -13   10.48    1.79
   5  -1 -13    6.20    2.71
   5  -1 -12    1.19    1.14
   5  -1 -12    1.28    1.11
   5  -1 -11    6.92    2.06
   5  -1 -11    4.59    1.44
   5  -1 -10   99.81    5.03
   5  -1 -10   89.11    3.74
   5  -1  -9   39.45    3.40
   5  -1  -9   36.85    2.31
   5  -1  -8   38.17    3.30
   5  -1  -8   38.64    2.28
   5  -1  -7   10.32    2.27
   5  -1  -7   11.04    1.49
   5  -1  -6   79.90    3.07
   5  -1  -5   25.44    2.77
   5  -1  -4  138.49    4.14
   5  -1  -3   22.25    2.43
   5  -1  -2  348.34    8.49
  -5   1   2  339.18    7.98
  -5   1   2  324.26    5.45
   5  -1  -1   94.20    3.97
  -5   1   1   92.07    2.83
   5  -1   0    5.41    1.56
  -5   1   0    5.27    1.51
   5  -1   1   19.77    1.99
  -5   1  -1   18.60    1.92
   5  -1   2  133.05    4.50
  -5   1  -2  126.13    4.26
   5  -1   3  143.99    3.84
  -5   1  -3  137.79    3.67
   5  -1   4   77.10    2.91
  -5   1  -4   85.16    2.55
   5  -1   5   92.70    2.72
  -5   1  -5   98.53    3.66
   5  -1   6    4.35    1.27
  -5   1  -6    3.53    1.20
  -5   1  -7   63.81    2.78
   5  -1   8   78.57    3.17
  -5   1  -8   72.56    2.95
   5  -1   9   26.42    2.05
  -5   1  -9   21.73    1.70
   5  -1  10    0.44    0.41
  -5   1 -10    0.24    0.66
   5  -1  11    1.23    0.53
  -5   1 -11    1.34    0.55
   5  -1  12    0.71    0.77
  -5   1 -12    0.17    0.41
   5  -1  13    5.08    1.28
  -5   1 -13   10.02    1.37
  -5   1 -14   24.89    2.32
  -5   1 -15    2.34    2.25
   5   0 -14    1.16    0.99
   5   0 -14    1.08    1.16
   5   0 -13    1.13    1.65
   5   0 -13    0.28    1.65
   5   0 -12    0.68    1.36
   5   0 -12   -0.30    1.31
   5   0 -11    0.50    1.44
   5   0 -11    0.39    1.44
   5   0 -10    2.04    1.10
   5   0 -10    2.15    1.11
   5   0  -9   -0.13    0.66
   5   0  -9   -0.25    0.72
   5   0  -8   19.72    1.71
   5   0  -8   21.17    1.73
   5   0  -7   -0.04    0.91
   5   0  -7   -0.05    0.59
   5   0  -6   31.64    2.88
   5   0  -6   34.45    1.99
   5   0  -5  140.49    5.23
   5   0  -5  137.86    5.26
   5   0  -4    1.49    1.37
   5   0  -3   13.29    1.28
   5   0  -2  116.19    4.47
   5   0  -1    5.59    1.54
  -5   0   1    4.84    0.29
   5   0   0   20.64    1.30
  -5   0   0   19.18    0.67
  -5   0   0   19.60    1.22
   5   0   1  202.33    5.68
  -5   0  -1  195.78    5.50
   5   0   2  144.42    4.40
  -5   0  -2  137.19    4.19
   5   0   3   25.74    1.22
  -5   0  -3   23.30    1.19
   5   0   4  100.33    3.23
  -5   0  -4  103.07    2.59
   5   0   5    0.91    0.78
  -5   0  -5    1.70    0.87
   5   0   6    8.60    1.20
  -5   0  -6    8.96    1.16
   5   0   7  103.89    3.17
  -5   0  -7  102.98    3.11
   5   0   8   49.77    2.16
  -5   0  -8   48.49    1.98
   5   0   9   70.80    1.98
  -5   0  -9   67.71    2.35
   5   0  10   43.26    1.68
  -5   0 -10   50.48    2.00
   5   0  11    0.24    0.48
  -5   0 -11    0.16    0.51
   5   0  12   11.74    0.99
  -5   0 -12   23.50    1.97
  -5   0 -12   22.26    1.37
  -5   0 -13    4.80    2.19
  -5   0 -14    0.65    1.11
  -5   0 -15   21.10    3.85
  -5   0 -16    9.64    4.34
   5   1 -14    5.60    2.54
   5   1 -14    2.60    2.37
   5   1 -13    3.64    1.40
   5   1 -13    3.88    2.36
   5   1 -12    0.49    0.77
   5   1 -12   -0.06    0.86
   5   1 -11   11.92    1.65
   5   1 -11    9.36    2.56
   5   1 -10    1.20    1.59
   5   1 -10    1.02    1.58
   5   1  -9   -1.04    1.24
   5   1  -9   -0.06    0.77
   5   1  -8    7.59    1.22
   5   1  -8    4.86    1.25
   5   1  -7   10.40    1.26
   5   1  -7    8.85    1.30
   5   1  -6    6.55    1.85
   5   1  -6    7.17    1.18
   5   1  -5   30.79    2.61
   5   1  -5   29.04    1.78
   5   1  -4    2.14    0.82
   5   1  -4    2.46    1.38
   5   1  -3    2.79    0.83
   5   1  -3    2.34    0.81
   5   1  -2   34.89    2.40
   5   1  -2   36.71    1.62
   5   1  -1    2.80    0.76
   5   1   0   23.57    1.91
  -5  -1   0   21.58    0.64
   5   1   1   13.96    1.60
  -5  -1  -1   14.73    0.76
   5   1   2   25.59    1.19
  -5  -1  -2   24.77    1.09
   5   1   3   24.18    1.59
  -5  -1  -3   19.46    0.71
  -5  -1  -3    9.21    0.82
   5   1   4    1.77    0.49
  -5  -1  -4    1.19    0.71
  -5  -1  -4    1.02    0.71
   5   1   5   54.03    1.94
  -5  -1  -5   55.30    1.72
  -5  -1  -5   57.11    1.98
   5   1   6   14.81    1.12
  -5  -1  -6   13.77    1.02
  -5  -1  -6   13.34    1.05
   5   1   7    8.47    0.98
  -5  -1  -7    7.81    1.55
  -5  -1  -7    8.66    0.87
   5   1   8   14.04    1.04
  -5  -1  -8   13.32    0.92
  -5  -1  -8   10.75    1.87
   5   1   9   -0.20    0.42
  -5  -1  -9    0.07    0.33
  -5  -1  -9    0.19    0.55
   5   1  10   19.40    0.87
  -5  -1 -10   29.11    1.12
  -5  -1 -10   31.11    1.87
   5   1  11    0.03    0.21
  -5  -1 -11   29.74    2.94
  -5  -1 -11   25.00    0.98
   5   1  12    4.01    0.59
  -5  -1 -12    6.65    2.07
  -5  -1 -12    4.34    0.49
  -5  -1 -13   21.28    2.27
  -5  -1 -14    4.80    1.79
  -5  -1 -15   52.86    5.70
  -5  -1 -16   17.58    2.50
   5   2 -13   -0.44    1.86
   5   2 -13    2.22    1.41
   5   2 -12    2.00    2.01
   5   2 -12    1.28    1.71
   5   2 -11   28.14    3.55
   5   2 -11   27.80    2.08
   5   2 -10    1.28    0.89
   5   2 -10    0.59    1.48
   5   2  -9    1.38    0.88
   5   2  -9    0.70    1.31
   5   2  -9    0.50    0.41
   5   2  -8    2.03    1.43
   5   2  -8    1.79    1.31
   5   2  -8    0.88    0.31
   5   2  -7   41.88    2.08
   5   2  -7   35.13    1.97
   5   2  -6   10.81    1.27
   5   2  -6   11.71    1.27
   5   2  -5    6.98    1.70
   5   2  -5    7.04    1.09
   5   2  -4    6.65    1.67
   5   2  -4    7.32    1.03
   5   2  -3   86.38    3.55
   5   2  -3   83.18    3.60
   5   2  -2  205.83    5.82
   5   2  -2  193.23    4.80
   5   2  -1   10.14    0.97
   5   2  -1   11.07    1.54
   5   2   0   77.40    2.80
   5   2   0   75.24    2.20
  -5  -2   0   85.76    1.61
   5   2   1   39.49    1.38
   5   2   1   37.70    1.39
  -5  -2  -1   41.38    1.24
   5   2   2  111.32    3.21
   5   2   2  105.81    2.63
  -5  -2  -2  111.73    2.75
   5   2   3  486.74   10.24
   5   2   3  477.45   10.97
  -5  -2  -3  496.26   10.95
   5   2   4    0.04    0.25
  -5  -2  -4    1.32    0.75
   5   2   5    1.68    0.61
  -5  -2  -5    1.31    0.53
   5   2   6  139.85    3.15
  -5  -2  -6  150.00    4.49
   5   2   7    1.79    0.49
  -5  -2  -7    2.04    0.70
  -5  -2  -8  174.13    4.63
   5   2   9   30.74    0.81
  -5  -2  -9   35.04    1.83
   5   2  10   37.11    0.71
   5   2  10   32.36    0.76
  -5  -2 -10   44.54    2.21
  -5  -2 -11   74.40    3.08
  -5  -2 -12    4.82    1.33
  -5  -2 -13   10.74    1.73
  -5  -2 -14   17.30    3.28
  -5  -2 -15    9.66    3.15
  -5  -2 -16    1.19    1.40
  -5  -2 -17   21.13    4.33
   5   3 -13    3.05    1.84
   5   3 -13    4.34    2.34
   5   3 -12    4.66    1.24
   5   3 -12    4.86    2.38
   5   3 -11    0.54    0.85
   5   3 -11    0.97    1.19
   5   3 -10   -0.01    1.11
   5   3 -10   -0.05    0.58
   5   3  -9    0.82    0.48
   5   3  -9    0.75    0.96
   5   3  -8    2.17    1.56
   5   3  -7   -0.22    1.05
   5   3  -6    3.96    1.05
   5   3  -6    3.58    0.32
   5   3  -5    1.00    0.32
   5   3  -5    0.40    1.27
   5   3  -4   52.98    2.10
   5   3  -4   49.42    1.36
   5   3  -3   63.00    3.11
   5   3  -3   65.46    1.45
   5   3  -2   31.15    0.96
   5   3  -2   30.96    2.13
   5   3  -1   19.15    1.13
   5   3  -1   18.17    0.81
   5   3   0   38.74    1.17
   5   3   0   43.13    2.12
   5   3   1   13.13    0.87
   5   3   1   13.46    0.93
   5   3   1   13.36    0.91
  -5  -3  -1   15.37    1.09
   5   3   2    2.91    0.52
   5   3   2    3.00    0.72
   5   3   2    2.71    0.55
  -5  -3  -2    3.35    0.72
   5   3   3   52.29    1.50
   5   3   3   53.28    1.90
  -5  -3  -3   54.15    2.00
   5   3   4    8.41    0.83
   5   3   4    7.93    0.90
  -5  -3  -4    9.51    0.77
   5   3   5   16.02    0.91
   5   3   5   18.28    1.02
  -5  -3  -5   17.03    1.56
   5   3   6  102.87    2.29
   5   3   6  100.73    2.20
  -5  -3  -6  107.89    2.97
   5   3   7    4.18    0.35
   5   3   7    0.09    0.36
  -5  -3  -7    4.45    1.38
   5   3   8    0.13    0.14
   5   3   8    0.08    0.21
  -5  -3  -8   -0.03    0.45
  -5  -3  -9    0.04    0.53
  -5  -3 -10    4.17    1.80
  -5  -3 -11  223.92    7.99
  -5  -3 -12    2.43    1.88
  -5  -3 -13   13.53    2.91
  -5  -3 -14   19.94    2.23
  -5  -3 -15   23.68    2.52
  -5  -3 -16    0.52    1.95
  -5  -3 -17   17.13    4.18
   5   4 -13    0.09    0.78
   5   4 -13    0.81    1.65
   5   4 -12    1.32    1.29
   5   4 -11    1.95    2.14
   5   4 -10    6.04    1.51
   5   4  -9    3.91    2.06
   5   4  -8   13.91    1.82
   5   4  -7    0.68    1.50
   5   4  -6   40.71    2.28
   5   4  -5    7.94    1.23
   5   4  -5    6.91    0.58
   5   4  -4   66.93    3.45
   5   4  -4   64.13    1.95
   5   4  -3    2.46    0.80
   5   4  -3    1.77    0.60
   5   4  -2  170.15    4.44
   5   4  -2  175.80    4.09
   5   4  -1  114.20    4.00
   5   4  -1  118.43    3.01
   5   4   0    7.38    1.17
   5   4   0    1.47    0.73
   5   4   1    7.89    1.19
   5   4   1    4.64    0.58
   5   4   2   45.44    2.00
   5   4   2   40.96    1.86
  -5  -4  -2   47.03    1.59
   5   4   3   10.17    1.19
   5   4   3    9.86    1.03
  -5  -4  -3    9.01    1.21
   5   4   4    9.93    0.91
   5   4   4    8.29    1.21
   5   4   4   10.73    0.93
  -5  -4  -4   11.55    1.36
   5   4   5   91.83    2.24
   5   4   5   90.55    1.92
   5   4   5   91.39    3.37
  -5  -4  -5   96.28    3.41
   5   4   6    0.22    0.37
   5   4   6    1.53    0.38
  -5  -4  -6    0.17    0.77
   5   4   7    6.06    0.50
   5   4   7    5.92    0.38
  -5  -4  -7    5.79    1.00
  -5  -4  -8    4.64    1.60
  -5  -4  -9   32.83    1.91
  -5  -4 -10   78.50    4.29
  -5  -4 -11   48.61    3.85
  -5  -4 -12   34.02    3.50
  -5  -4 -13   28.27    3.56
  -5  -4 -14   50.67    4.63
  -5  -4 -15   -0.37    1.87
  -5  -4 -16    7.74    3.46
  -5  -4 -17    6.25    2.21
   5   5 -12   19.97    3.74
   5   5 -11   20.02    2.38
   5   5 -10    2.68    2.24
   5   5  -9    3.25    1.36
   5   5  -8   14.22    2.76
  -5  -5   8   10.06    1.56
   5   5  -7    9.98    2.48
  -5  -5   7    8.34    1.45
   5   5  -6    3.61    1.15
  -5  -5   6    2.62    1.76
   5   5  -5    4.86    1.89
  -5  -5   5    6.53    1.28
   5   5  -4    0.87    0.73
   5   5  -4   -0.19    1.26
  -5  -5   4    0.34    0.69
   5   5  -3    0.71    0.71
   5   5  -3    1.97    1.32
  -5  -5   3    1.08    0.77
   5   5  -2   21.94    1.49
   5   5  -2   24.19    1.57
  -5  -5   2   23.59    1.51
   5   5  -1    1.98    0.54
   5   5  -1    2.70    0.80
  -5  -5   1    2.23    0.77
   5   5   0   35.35    1.90
   5   5   0   36.26    1.61
  -5  -5   0   36.74    1.65
   5   5   1  263.60    6.99
   5   5   1  274.14    7.32
  -5  -5  -1  274.95    6.42
   5   5   2  136.59    3.53
   5   5   2  136.86    4.07
  -5  -5  -2  143.97    4.20
   5   5   3    4.93    0.77
   5   5   3    4.93    0.61
  -5  -5  -3    3.83    0.56
  -5  -5  -3    2.28    0.77
   5   5   4    9.04    1.43
   5   5   4    8.47    0.61
  -5  -5  -4   10.14    0.96
   5   5   5    3.18    1.15
   5   5   5    1.66    0.59
  -5  -5  -5    1.39    0.69
   5   5   6  171.73    5.46
   5   5   6  175.25    3.71
   5   5   6  179.79    3.78
  -5  -5  -6  195.31    5.22
   5   5   7   49.85    2.09
   5   5   7   40.19    1.08
  -5  -5  -7   55.20    2.33
   5   5   8    0.51    0.70
  -5  -5  -8    0.68    1.21
  -5  -5  -9    4.78    1.16
  -5  -5 -10  389.41   12.02
  -5  -5 -11   16.08    2.96
  -5  -5 -12   19.56    2.14
  -5  -5 -13    1.00    1.24
  -5  -5 -14    2.15    1.51
  -5  -5 -15    7.91    2.15
  -5  -5 -16   33.53    3.39
  -5  -5 -17   10.85    2.66
   5   6 -11   31.15    4.53
   5   6 -10   41.08    3.07
  -5  -6  10   38.08    2.83
   5   6  -9   21.70    3.52
  -5  -6   9    8.71    2.79
   5   6  -8    1.69    1.98
  -5  -6   8    2.88    1.36
   5   6  -7   -0.03    0.68
  -5  -6   7    1.34    1.82
   5   6  -6    1.78    1.12
  -5  -6   6    2.35    1.87
   5   6  -5   -0.18    1.15
  -5  -6   5    0.34    0.78
   5   6  -4    0.60    1.13
   5   6  -4    0.17    0.49
  -5  -6   4    0.53    0.80
   5   6  -3    0.61    0.83
   5   6  -3    0.35    1.22
  -5  -6   3    0.97    1.32
   5   6  -2   67.69    2.90
   5   6  -2   64.33    3.53
  -5  -6   2   68.36    3.62
   5   6  -1  148.61    4.02
   5   6  -1  145.72    5.29
  -5  -6   1  152.49    5.37
   5   6   0  458.93   11.14
   5   6   0  454.05   12.23
  -5  -6   0  464.46   12.51
   5   6   1    0.32    0.98
   5   6   1    1.03    0.61
  -5  -6  -1   -0.57    0.93
   5   6   2  152.38    5.04
   5   6   2  147.42    4.52
  -5  -6  -2  154.43    4.69
   5   6   3    2.64    1.29
   5   6   3    3.40    0.63
  -5  -6  -3    3.46    0.63
   5   6   4   33.34    1.22
   5   6   4   33.67    2.48
  -5  -6  -4   34.67    1.72
   5   6   5   20.96    1.25
   5   6   5   21.94    2.27
  -5  -6  -5   23.55    1.32
  -5  -6  -5   25.18    1.72
   5   6   6   97.52    4.21
   5   6   6   91.30    2.09
  -5  -6  -6  102.31    3.44
   5   6   7  124.42    4.87
   5   6   7  100.21    2.38
  -5  -6  -7  139.51    4.40
   5   6   8   39.74    3.06
   5   6   8   37.64    0.89
   5   6   8   34.01    0.82
  -5  -6  -8   43.22    3.40
   5   6   9    9.67    2.20
  -5  -6  -9   12.06    1.61
  -5  -6 -10    1.25    1.72
  -5  -6 -11   53.82    3.08
  -5  -6 -12    4.74    1.55
  -5  -6 -13   27.86    4.07
  -5  -6 -14    1.97    2.46
  -5  -6 -15    3.35    2.74
  -5  -6 -16    0.98    2.56
   5   7 -10    8.53    4.00
  -5  -7  10    8.76    3.51
   5   7  -9   14.95    2.68
  -5  -7   9   12.19    2.21
   5   7  -8    8.75    2.19
  -5  -7   8    7.91    3.00
   5   7  -7    9.73    3.19
  -5  -7   7    8.60    1.81
   5   7  -6   18.90    3.19
  -5  -7   6   16.30    3.18
   5   7  -5    9.54    2.50
  -5  -7   5    9.01    1.55
   5   7  -4    4.98    1.01
   5   7  -4    5.47    2.11
  -5  -7   4    4.07    1.25
   5   7  -3   20.23    2.17
   5   7  -3   19.73    2.69
  -5  -7   3   20.76    2.69
   5   7  -2   12.38    1.91
   5   7  -2   14.17    2.31
  -5  -7   2   14.13    2.18
   5   7  -1    2.63    1.33
   5   7  -1    1.91    1.59
  -5  -7   1    3.01    0.92
   5   7   0   44.32    3.06
   5   7   0   53.20    3.25
  -5  -7   0   42.95    1.99
   5   7   1   53.69    3.21
   5   7   1   54.74    2.26
  -5  -7  -1   50.71    2.04
   5   7   2   14.78    1.75
   5   7   2   16.63    2.07
  -5  -7  -2   17.30    1.17
   5   7   3   25.14    2.48
   5   7   3   24.37    1.79
  -5  -7  -3   24.88    1.78
   5   7   4   23.21    2.45
   5   7   4   24.60    1.73
  -5  -7  -4   24.51    1.69
   5   7   5  129.43    5.41
   5   7   5  130.94    3.83
  -5  -7  -5  129.62    3.17
   5   7   6   10.31    1.15
   5   7   6   15.03    2.32
  -5  -7  -6   11.86    1.12
   5   7   7   12.79    1.00
   5   7   7   17.17    2.48
  -5  -7  -7   18.19    1.10
  -5  -7  -7   21.85    1.95
   5   7   8    8.26    2.24
   5   7   8    9.23    0.70
  -5  -7  -8   12.86    2.60
   5   7   9    2.75    1.88
  -5  -7  -9    3.77    2.11
   5   7  10    0.28    0.82
  -5  -7 -10   -0.55    1.02
   5   7  11   27.42    2.15
  -5  -7 -11   35.01    2.65
  -5  -7 -12    4.56    2.74
  -5  -7 -13    9.75    3.57
  -5  -7 -14    3.05    1.86
  -5  -7 -15    3.47    2.12
  -5  -7 -16   72.50    5.32
  -5  -8   9    2.29    1.71
   5   8  -8    0.46    1.60
  -5  -8   8    1.11    1.44
   5   8  -7    1.21    1.11
  -5  -8   7    1.36    2.18
   5   8  -6   16.04    1.88
  -5  -8   6   19.12    2.24
   5   8  -5    0.06    1.20
   5   8  -5   15.16    1.47
  -5  -8   5   18.45    3.22
   5   8  -4    3.17    1.14
   5   8  -4    5.20    1.24
  -5  -8   4    4.59    1.30
   5   8  -3    3.29    1.75
   5   8  -3    4.07    1.14
  -5  -8   3    4.79    1.23
   5   8  -2    1.13    1.37
   5   8  -2    1.08    0.85
  -5  -8   2    0.37    1.19
   5   8  -1   26.91    1.86
   5   8  -1   22.80    2.57
  -5  -8   1   23.39    2.76
   5   8   0   14.13    1.53
   5   8   0   13.72    2.31
  -5  -8   0   12.05    2.17
   5   8   1   88.04    3.17
   5   8   1   89.65    3.46
  -5  -8  -1   86.88    3.07
   5   8   2   11.62    1.42
   5   8   2   17.34    2.30
  -5  -8  -2   12.34    1.19
   5   8   3    1.22    0.93
   5   8   3    1.41    1.28
  -5  -8  -3    1.61    0.68
   5   8   4   53.17    3.68
   5   8   4   50.27    2.63
  -5  -8  -4   49.68    2.51
   5   8   5   13.61    2.55
   5   8   5   12.31    1.62
  -5  -8  -5    9.49    1.32
   5   8   6  185.66    4.80
   5   8   6  236.17    8.46
  -5  -8  -6  208.73    5.62
   5   8   7   24.73    1.56
   5   8   7   37.97    3.40
  -5  -8  -7   35.78    1.72
   5   8   8   10.05    0.92
   5   8   8   11.23    2.52
  -5  -8  -8   10.06    0.94
   5   8   9    0.48    1.35
   5   8   9    0.23    0.34
  -5  -8  -9    0.66    1.06
   5   8  10    2.14    1.34
  -5  -8 -10    1.08    1.21
   5   8  11   21.25    2.17
  -5  -8 -11   25.43    4.07
   5   8  12    1.76    1.22
  -5  -8 -12    1.14    1.43
  -5  -8 -13    1.11    1.49
  -5  -8 -14    0.72    2.38
  -5  -8 -15    2.32    3.18
   5   9  -8    3.26    4.65
  -5  -9   8    2.07    2.68
   5   9  -7   10.79    5.32
  -5  -9   7    7.65    2.13
   5   9  -6    0.09    0.94
   5   9  -6    2.74    2.03
  -5  -9   6    1.06    1.97
   5   9  -5    0.24    0.83
   5   9  -5    0.55    1.70
  -5  -9   5    0.15    0.88
   5   9  -4    0.07    1.28
   5   9  -4    0.54    1.58
  -5  -9   4    0.34    1.47
   5   9  -3    0.29    0.84
   5   9  -3    0.10    1.95
  -5  -9   3   -0.01    0.99
   5   9  -2   -0.05    1.50
   5   9  -2    1.78    2.02
  -5  -9   2    0.79    0.98
   5   9  -1    1.34    1.05
   5   9  -1    1.48    1.33
  -5  -9   1    1.70    1.08
   5   9   0   -0.07    0.69
   5   9   0    0.00    1.26
  -5  -9   0   -0.76    1.39
   5   9   1    0.00    1.67
   5   9   1    7.62    1.98
  -5  -9  -1    7.18    1.99
   5   9   2    0.46    1.45
   5   9   2    0.84    1.19
  -5  -9  -2    0.03    0.80
   5   9   3   -0.24    1.25
   5   9   3   -0.20    0.65
  -5  -9  -3    0.89    1.14
   5   9   4    5.82    2.46
   5   9   4    7.89    1.29
  -5  -9  -4    4.16    1.42
   5   9   5    1.08    0.98
   5   9   5    0.47    0.73
  -5  -9  -5    0.63    0.93
   5   9   6    7.17    1.48
   5   9   6    9.95    1.64
  -5  -9  -6   10.08    0.97
   5   9   7    0.46    0.48
   5   9   7    1.23    0.99
  -5  -9  -7    0.55    0.71
   5   9   8    1.07    0.80
   5   9   8    2.51    1.19
  -5  -9  -8    1.98    0.78
   5   9   9   16.54    3.20
   5   9  10    1.42    2.07
   5   9  11    7.57    3.46
   5   9  12   17.28    2.26
  -5  -9 -12    0.38    1.21
   5   9  13    0.88    1.16
  -5  -9 -13    1.92    1.67
  -5  -9 -14    2.91    1.84
   5  10  -6    0.87    1.11
   5  10  -6   -0.08    0.98
  -5 -10   6    0.97    1.28
   5  10  -5    0.74    1.13
   5  10  -5   -0.11    1.65
  -5 -10   5    0.87    1.21
   5  10  -4   -0.07    2.62
   5  10  -4    5.04    1.57
  -5 -10   4    6.08    3.15
   5  10  -3    0.17    1.23
   5  10  -3    1.76    1.16
  -5 -10   3    1.81    1.45
   5  10  -2    0.23    1.86
   5  10  -2    0.93    1.06
  -5 -10   2    0.52    1.12
   5  10  -1    0.31    2.04
   5  10  -1    1.94    1.77
  -5 -10   1    1.95    2.09
   5  10   0   70.23    4.01
   5  10   0   76.03    4.03
  -5 -10   0   67.31    4.74
   5  10   1   -0.02    1.49
   5  10   1    0.48    1.57
  -5 -10  -1    0.10    0.71
   5  10   2   20.93    2.39
   5  10   2   20.21    3.45
  -5 -10  -2   16.86    1.71
   5  10   3    3.48    2.15
   5  10   3    1.74    2.08
  -5 -10  -3    2.99    1.05
   5  10   4   11.52    2.00
   5  10   4    9.31    2.59
  -5 -10  -4    8.69    1.24
   5  10   5   28.92    2.57
   5  10   5   23.22    2.70
  -5 -10  -5   24.29    1.64
   5  10   6   17.05    2.12
   5  10   6   29.63    3.71
  -5 -10  -6   25.93    2.34
   5  10   7   23.94    1.81
   5  10   7   35.77    3.98
  -5 -10  -7   37.52    2.56
   5  10   8    0.64    0.89
   5  10   8    1.11    1.94
   5  10   9    4.25    1.67
   5  10  10    0.33    1.16
   5  10  11   17.39    3.02
   5  10  12    0.82    2.16
   5  11  -3   -0.20    1.93
   5  11  -3   -0.29    2.21
  -5 -11   3    1.45    1.60
   5  11  -2    0.05    1.30
   5  11  -2    2.64    2.90
  -5 -11   2    0.15    1.72
   5  11  -1    0.09    1.55
   5  11  -1    0.00    1.20
  -5 -11   1   -1.28    2.08
   5  11   0   -0.51    1.97
   5  11   0    0.02    2.27
  -5 -11   0    0.08    0.83
   5  11   1    0.70    2.35
   5  11   1    0.89    1.32
  -5 -11  -1   -0.12    0.82
   5  11   2   -0.94    1.93
   5  11   2   -0.33    2.12
  -5 -11  -2    0.33    0.89
   5  11   3    2.90    2.63
   5  11   3    4.17    1.44
  -5 -11  -3    3.68    2.02
   5  11   4    1.51    1.57
   5  11   4    2.24    1.65
  -5 -11  -4    2.28    1.72
   5  11   5    5.88    2.01
   5  11   5    5.60    3.15
  -5 -11  -5    7.57    1.33
   5  11   6    8.67    2.86
   5  11   6   10.50    3.60
  -5 -11  -6    9.96    1.34
   5  11   7    1.43    0.75
   5  11   7    1.69    2.38
  -5 -11  -7    2.34    1.45
   5  11   8    1.47    1.53
   5  11   9    1.09    1.45
   5  11  10    0.23    1.94
   5  12   3   -0.37    2.10
   5  12   3    0.69    0.98
  -5 -12  -3    0.58    1.69
   5  12   4    7.49    1.62
  -5 -12  -4    6.05    2.46
   5  12   5    3.01    3.17
   5  12   5    3.07    3.22
  -5 -12  -5    3.06    2.05
   6  -7  -3   16.65    3.12
  -6   7   3    8.80    2.14
   6  -7  -2   14.71    4.91
  -6   7   2   12.48    3.66
  -6   7   2    9.16    2.53
   6  -7  -1   51.67    5.23
  -6   7   1   16.07    2.73
  -6   7   1   31.07    2.95
   6  -7   0    0.51    3.10
  -6   7   0    0.66    2.13
   6  -7   1    1.49    2.46
  -6   7  -1    2.09    1.61
   6  -7   2    4.30    4.82
  -6   7  -2    1.43    2.43
   6  -7   3    6.16    2.49
  -6   7  -3    3.00    1.72
   6  -6  -7    1.36    2.46
   6  -6  -6    4.25    4.59
  -6   6   6    2.16    1.83
   6  -6  -5    4.51    3.11
  -6   6   5    2.99    1.41
   6  -6  -4    1.18    1.51
  -6   6   4    1.03    1.27
   6  -6  -3    1.32    2.41
  -6   6   3    1.01    2.07
   6  -6  -2   -0.52    1.20
  -6   6   2    0.63    1.11
  -6   6   2    0.37    1.17
   6  -6  -1    0.07    1.48
  -6   6   1    0.02    0.50
  -6   6   1   -0.16    0.82
   6  -6   0    0.93    1.53
  -6   6   0    0.02    1.26
   6  -6   1    9.75    4.35
  -6   6  -1    5.53    1.76
   6  -6   2    1.53    3.11
  -6   6  -2    2.35    2.28
   6  -6   3   26.86    3.89
  -6   6  -3   22.01    2.47
   6  -6   4   32.54    5.18
  -6   6  -4   28.92    4.06
   6  -6   5    1.01    1.86
  -6   6  -5    0.49    1.99
   6  -6   6    2.76    2.23
  -6   6  -6    2.65    1.67
   6  -6   7    4.07    4.03
  -6   6  -7    2.72    1.64
   6  -5  -8   27.57    4.30
   6  -5  -7    4.53    2.67
   6  -5  -6    2.94    1.55
  -6   5   6    1.79    1.09
   6  -5  -5    1.11    1.22
  -6   5   5   -0.60    1.61
   6  -5  -4    5.94    3.75
  -6   5   4    4.28    2.26
   6  -5  -3    0.29    1.36
  -6   5   3    0.46    0.57
  -6   5   3    0.50    1.03
   6  -5  -2    0.38    1.76
  -6   5   2   -0.22    0.92
  -6   5   2   -0.26    0.83
   6  -5  -1    1.21    1.30
  -6   5   1   -0.40    1.57
   6  -5   0    3.34    2.40
  -6   5   0    2.55    1.34
   6  -5   1    5.98    2.71
  -6   5  -1    3.01    2.25
   6  -5   2    0.68    1.23
  -6   5  -2    0.02    0.69
   6  -5   3    0.03    0.93
  -6   5  -3    0.78    1.78
   6  -5   4   -0.83    2.43
  -6   5  -4    0.14    0.85
   6  -5   5   -0.50    2.32
  -6   5  -5   -0.49    1.72
   6  -5   6    1.13    2.21
  -6   5  -6    0.14    0.90
   6  -5   7    0.49    1.49
  -6   5  -7   -0.11    0.89
   6  -5   8    0.95    2.62
  -6   5  -8    0.91    1.95
   6  -5   9    0.00    0.88
  -6   5  -9    0.13    1.28
   6  -4 -10   -0.46    2.18
   6  -4 -10    0.92    1.61
   6  -4  -9    0.36    2.01
   6  -4  -8    3.23    1.74
   6  -4  -7    4.62    1.79
   6  -4  -6   33.43    4.40
   6  -4  -5    0.13    1.44
  -6   4   5   -0.31    0.78
   6  -4  -4    2.54    1.38
  -6   4   4    1.77    1.79
   6  -4  -3    8.58    2.75
  -6   4   3    4.30    1.04
  -6   4   3    7.55    2.31
   6  -4  -2    0.21    0.84
  -6   4   2    0.02    0.75
  -6   4   2    0.15    0.58
   6  -4  -1    2.74    2.38
  -6   4   1    2.28    1.16
   6  -4   0    0.15    0.93
  -6   4   0    0.01    0.90
   6  -4   1    3.67    1.39
  -6   4  -1    2.61    1.20
   6  -4   2   30.52    3.59
  -6   4  -2   27.13    2.11
   6  -4   3    0.29    1.49
  -6   4  -3    0.06    1.07
   6  -4   4    8.90    2.64
  -6   4  -4    8.19    1.53
   6  -4   5   14.53    3.36
  -6   4  -5    9.70    2.45
   6  -4   6   19.69    3.81
  -6   4  -6   12.94    2.75
   6  -4   7    0.50    1.67
  -6   4  -7    0.76    1.00
   6  -4   8    8.78    3.30
  -6   4  -8    9.05    1.61
   6  -4   9   14.00    2.68
  -6   4  -9   15.14    2.93
   6  -4  10    4.80    1.10
  -6   4 -10    4.37    2.01
   6  -4  11    8.15    1.78
  -6   4 -11    1.50    1.68
   6  -3 -11    0.44    1.14
   6  -3 -11    0.62    1.20
   6  -3 -10   10.87    2.04
   6  -3 -10   13.06    2.05
   6  -3  -9   12.26    1.90
   6  -3  -9    8.50    2.73
   6  -3  -8    0.19    0.91
   6  -3  -7    3.21    2.22
   6  -3  -6   38.10    3.91
   6  -3  -5   11.58    1.78
   6  -3  -4    9.01    2.59
  -6   3   4    5.72    1.22
  -6   3   4    4.89    0.59
   6  -3  -3   24.90    2.19
  -6   3   3   23.59    2.90
   6  -3  -2    2.68    2.06
  -6   3   2    2.45    1.78
  -6   3   2    2.82    0.70
   6  -3  -1   60.82    2.96
  -6   3   1   58.77    2.77
   6  -3   0   15.63    2.66
  -6   3   0   11.88    1.55
   6  -3   1    4.18    1.90
  -6   3  -1    2.41    1.73
   6  -3   2    1.89    1.73
  -6   3  -2    0.43    0.77
   6  -3   3    5.57    1.31
  -6   3  -3    6.09    1.95
   6  -3   4    2.79    1.15
  -6   3  -4    3.45    1.78
   6  -3   5   95.92    4.92
  -6   3  -5   87.93    4.51
   6  -3   6    1.27    1.78
  -6   3  -6    1.65    0.97
   6  -3   7    7.41    2.29
  -6   3  -7    2.52    1.66
   6  -3   8    3.32    1.62
  -6   3  -8    3.56    1.81
   6  -3   9   10.96    1.87
  -6   3  -9   12.41    1.53
   6  -3  10    0.88    1.35
  -6   3 -10    0.87    0.91
   6  -3  11    3.25    1.96
  -6   3 -11    0.36    1.30
   6  -3  12    0.94    0.82
  -6   3 -12   -0.03    0.96
   6  -3  13    2.26    1.61
  -6   3 -13    0.19    1.24
   6  -2 -11    3.15    2.39
   6  -2 -11    4.36    1.60
   6  -2 -10    7.10    2.66
   6  -2 -10    7.97    1.78
   6  -2  -9   -0.34    1.51
   6  -2  -9   -0.40    1.56
   6  -2  -8    5.74    2.46
   6  -2  -8    8.09    2.32
   6  -2  -7   15.46    3.00
   6  -2  -6   18.99    2.01
   6  -2  -5    6.28    1.46
   6  -2  -4    5.77    2.24
   6  -2  -3    0.34    0.82
  -6   2   3    0.01    0.47
   6  -2  -2   59.49    3.91
  -6   2   2   49.04    3.33
  -6   2   2   48.87    1.31
   6  -2  -1   13.17    1.53
  -6   2   1   13.46    1.44
   6  -2   0    2.52    1.07
  -6   2   0    2.90    1.05
   6  -2   1    0.63    1.31
  -6   2  -1    0.12    0.98
   6  -2   2   40.51    3.05
  -6   2  -2   38.52    2.04
   6  -2   3    7.83    1.97
  -6   2  -3    9.10    1.27
   6  -2   4  176.35    6.25
  -6   2  -4  164.54    5.87
   6  -2   5    2.68    0.99
  -6   2  -5    2.93    0.94
   6  -2   6   15.13    2.25
  -6   2  -6   13.70    2.01
   6  -2   7    2.33    1.69
  -6   2  -7    1.11    1.22
   6  -2   8   15.08    1.47
  -6   2  -8   13.96    1.29
   6  -2   9    4.91    1.51
  -6   2  -9    3.69    1.51
   6  -2  10    3.49    0.92
  -6   2 -10    3.04    1.51
   6  -2  11    2.95    1.19
  -6   2 -11    3.89    1.59
   6  -2  12    2.43    0.84
  -6   2 -12    2.32    1.49
   6  -2  13    0.36    1.03
  -6   2 -13    0.69    1.15
   6  -1 -12    0.88    1.19
   6  -1 -12   -0.03    1.16
   6  -1 -11    3.12    1.56
   6  -1 -11    3.01    1.33
   6  -1 -10    0.97    1.92
   6  -1 -10    1.89    2.10
   6  -1  -9   -0.02    1.34
   6  -1  -9   -0.30    1.44
   6  -1  -8    2.38    1.73
   6  -1  -8    0.54    1.14
   6  -1  -7   40.87    2.56
   6  -1  -7   41.27    2.65
   6  -1  -6   30.91    2.11
   6  -1  -6   33.19    2.36
   6  -1  -5  111.18    5.60
   6  -1  -4  118.49    5.36
   6  -1  -3   19.86    1.71
   6  -1  -2    6.88    2.04
   6  -1  -1    4.23    1.76
  -6   1   1    3.74    0.92
  -6   1   1    2.36    0.34
   6  -1   0  113.84    3.61
  -6   1   0  109.15    4.55
   6  -1   1  210.41    5.64
  -6   1  -1  205.07    6.59
   6  -1   2  210.35    5.60
  -6   1  -2  207.58    5.48
   6  -1   3   15.44    1.43
  -6   1  -3   15.87    2.07
   6  -1   4  117.95    3.51
  -6   1  -4  111.90    3.35
   6  -1   5   30.72    2.47
  -6   1  -5   32.37    2.39
   6  -1   6   21.20    1.49
  -6   1  -6   19.75    2.00
   6  -1   7    5.65    1.51
  -6   1  -7    4.50    1.34
   6  -1   8    2.07    0.86
  -6   1  -8    1.65    0.67
   6  -1   9   26.06    2.03
  -6   1  -9   25.71    2.05
   6  -1  10   39.63    2.89
  -6   1 -10   32.87    2.14
   6  -1  11   15.89    1.50
  -6   1 -11   19.22    1.84
   6  -1  12    1.26    0.97
  -6   1 -12    0.68    0.91
  -6   1 -13    5.31    1.54
  -6   1 -14    0.89    1.19
   6   0 -12    5.13    1.70
   6   0 -12    4.23    2.57
   6   0 -11    2.29    2.22
   6   0 -11    1.27    2.06
   6   0 -10   -0.29    1.18
   6   0 -10    0.07    0.71
   6   0  -9    2.85    1.15
   6   0  -9    2.33    1.27
   6   0  -8   62.10    3.07
   6   0  -8   59.25    3.13
   6   0  -7   86.08    4.98
   6   0  -7   83.02    3.46
   6   0  -6  114.36    5.52
   6   0  -6  110.35    5.47
   6   0  -5   28.93    3.09
   6   0  -5   29.12    3.17
   6   0  -4   32.65    1.95
   6   0  -4   33.54    2.12
   6   0  -3    1.59    0.96
   6   0  -2    8.44    2.05
   6   0  -1    3.03    1.61
   6   0   0    1.11    0.81
  -6   0   0    0.82    0.43
   6   0   1   80.01    2.80
  -6   0  -1   70.16    1.80
  -6   0  -1   69.31    2.45
   6   0   2  140.53    3.90
  -6   0  -2  136.98    3.36
  -6   0  -2  137.97    4.73
   6   0   3    1.48    0.70
  -6   0  -3    1.70    0.46
  -6   0  -3    1.11    0.67
   6   0   4  119.11    4.22
  -6   0  -4  116.73    3.96
   6   0   5  201.15    5.83
  -6   0  -5  207.10    5.02
   6   0   6   46.69    2.32
  -6   0  -6   42.75    2.24
   6   0   7    8.76    1.45
  -6   0  -7    5.71    0.76
   6   0   8   42.42    2.43
  -6   0  -8   34.65    1.92
   6   0   9   10.69    1.44
  -6   0  -9    8.90    1.24
   6   0  10    3.15    1.17
  -6   0 -10    2.09    0.88
  -6   0 -10    2.11    0.98
   6   0  11   -0.07    0.46
  -6   0 -11   -0.08    0.49
  -6   0 -11    0.43    0.94
   6   0  12   14.52    1.27
  -6   0 -12   19.97    3.06
  -6   0 -12   17.00    1.43
  -6   0 -13   27.57    2.47
  -6   0 -14   22.46    2.48
  -6   0 -15    2.62    3.28
   6   1 -12   20.27    3.58
   6   1 -12   18.87    2.29
   6   1 -11   11.46    3.02
   6   1 -11   12.53    1.95
   6   1 -10    0.25    0.87
   6   1 -10    0.06    1.42
   6   1  -9    0.81    0.99
   6   1  -9    0.12    1.55
   6   1  -8   15.18    2.66
   6   1  -8   13.82    2.77
   6   1  -7    3.05    1.12
   6   1  -7    2.38    1.88
   6   1  -6   74.61    3.18
   6   1  -6   70.16    4.36
   6   1  -5   -0.83    1.17
   6   1  -5    0.47    1.16
   6   1  -4   40.22    3.12
   6   1  -4   38.81    2.18
   6   1  -3  120.98    3.77
   6   1  -3  116.02    3.74
   6   1  -2    5.72    1.65
   6   1  -2    4.50    1.75
   6   1  -1   35.17    1.87
   6   1   0  126.70    3.73
  -6  -1   0  119.52    2.19
   6   1   1  146.78    5.02
  -6  -1  -1  144.48    3.05
   6   1   2  108.04    3.98
  -6  -1  -2  106.70    2.70
   6   1   3   34.14    1.49
  -6  -1  -3   33.88    1.54
   6   1   4    0.01    0.50
  -6  -1  -4    0.01    0.45
  -6  -1  -4   -0.06    0.33
   6   1   5   31.19    1.31
  -6  -1  -5   31.89    1.83
  -6  -1  -5   29.78    1.23
   6   1   6    9.75    1.24
  -6  -1  -6    8.29    1.42
  -6  -1  -6    9.35    1.14
   6   1   7   66.62    2.45
  -6  -1  -7   63.55    3.07
  -6  -1  -7   60.65    2.21
   6   1   8   13.33    1.27
  -6  -1  -8   12.22    1.95
  -6  -1  -8   13.55    1.11
   6   1   9    0.74    0.69
  -6  -1  -9    0.33    1.09
  -6  -1  -9    0.35    0.52
   6   1  10   74.46    2.56
  -6  -1 -10   67.86    3.80
  -6  -1 -10   57.98    1.89
   6   1  11    0.51    0.52
  -6  -1 -11    0.63    1.37
  -6  -1 -11    0.24    0.43
  -6  -1 -12   32.10    2.61
  -6  -1 -13   31.97    2.84
  -6  -1 -14    4.91    3.15
  -6  -1 -15    0.31    1.86
  -6  -1 -16   12.73    2.42
   6   2 -12    0.21    1.41
   6   2 -12   -0.05    1.51
   6   2 -11    7.35    1.51
   6   2 -11    6.08    2.70
   6   2 -10    0.98    1.78
   6   2 -10    0.91    1.10
   6   2  -9    3.10    2.07
   6   2  -9    2.98    1.28
   6   2  -8    2.17    1.12
   6   2  -8    0.98    1.12
   6   2  -7    0.48    1.23
   6   2  -7    0.08    0.75
   6   2  -6   14.63    1.56
   6   2  -6   14.04    1.62
   6   2  -5   65.15    2.71
   6   2  -5   65.51    2.79
   6   2  -4   -0.72    1.02
   6   2  -4    0.05    0.65
   6   2  -3   17.68    1.48
   6   2  -3   17.25    1.49
   6   2  -2   36.10    2.64
   6   2  -2   32.75    2.69
   6   2  -1    0.10    0.65
   6   2  -1    0.81    0.67
   6   2   0  615.59   15.96
   6   2   0  626.44   16.25
   6   2   1   32.58    1.55
   6   2   1   33.00    2.39
  -6  -2  -1   32.79    1.15
   6   2   2    9.42    1.48
   6   2   2   11.80    1.54
  -6  -2  -2   10.42    0.93
   6   2   3    1.19    0.50
   6   2   3    0.55    0.91
  -6  -2  -3    1.54    0.70
   6   2   4   31.65    1.28
  -6  -2  -4   34.15    1.80
   6   2   5   74.70    2.57
  -6  -2  -5   75.17    2.81
   6   2   6   45.70    1.86
  -6  -2  -6   43.89    1.70
   6   2   7   23.34    1.27
  -6  -2  -7   21.68    2.05
   6   2   8    3.82    0.78
  -6  -2  -8    2.56    1.40
   6   2   9   19.91    1.08
  -6  -2  -9   16.58    1.43
   6   2  10   -0.03    0.30
  -6  -2 -10    1.28    0.89
   6   2  11    4.01    0.49
   6   2  11    2.62    0.33
  -6  -2 -11    6.18    1.33
  -6  -2 -12   28.19    3.37
  -6  -2 -13   24.66    3.56
  -6  -2 -14   38.74    4.35
  -6  -2 -15    8.77    2.03
  -6  -2 -16   14.16    2.42
   6   3 -12    8.83    2.90
   6   3 -12   13.35    2.49
   6   3 -11    1.81    2.24
   6   3 -11    1.58    1.17
   6   3 -10    2.72    1.42
   6   3 -10    2.56    1.24
   6   3  -9   16.42    2.55
   6   3  -9    7.62    2.62
   6   3  -8    7.38    2.11
   6   3  -8    7.65    2.22
   6   3  -7   -0.02    0.69
   6   3  -7    0.46    0.76
   6   3  -6    1.33    1.64
   6   3  -6    1.34    0.93
   6   3  -5   36.07    2.11
   6   3  -5   34.42    2.00
   6   3  -4    3.90    1.71
   6   3  -4    3.92    1.02
   6   3  -3    7.94    1.12
   6   3  -3    4.82    1.78
   6   3  -2   10.56    1.84
   6   3  -2   11.58    1.94
   6   3  -1   36.29    1.74
   6   3  -1   36.47    1.79
   6   3   0   51.43    2.03
   6   3   0   57.02    3.13
   6   3   1   10.71    1.66
   6   3   1   11.66    1.10
  -6  -3  -1   14.81    0.72
   6   3   2   61.78    1.94
   6   3   2   61.42    1.95
  -6  -3  -2   64.33    2.09
   6   3   3   19.79    1.04
   6   3   3   19.84    1.08
  -6  -3  -3   19.29    1.38
   6   3   4    0.16    0.44
   6   3   4   -0.21    0.46
  -6  -3  -4   -0.04    0.32
   6   3   5    4.55    0.86
   6   3   5    4.17    0.58
  -6  -3  -5    4.86    0.76
   6   3   6   15.80    1.15
   6   3   6   17.26    1.07
  -6  -3  -6   17.62    1.83
   6   3   7   39.00    1.38
   6   3   7   41.71    1.45
  -6  -3  -7   44.14    2.69
   6   3   8   67.37    1.89
  -6  -3  -8   75.02    3.65
   6   3   9    0.01    0.18
   6   3   9   -0.13    0.30
  -6  -3  -9    0.33    0.69
  -6  -3 -10    0.47    0.79
  -6  -3 -11   53.17    2.73
  -6  -3 -12    9.77    1.65
  -6  -3 -13   30.28    2.48
  -6  -3 -14   18.44    2.32
  -6  -3 -15   14.07    2.29
  -6  -3 -16    0.93    2.28
   6   4 -12    2.62    2.01
   6   4 -12    4.68    2.55
   6   4 -11   -0.37    0.82
   6   4 -11   -0.16    0.99
   6   4 -10    1.73    1.13
   6   4 -10    4.79    2.60
   6   4  -9   -0.10    0.94
   6   4  -9    2.73    1.27
   6   4  -8    2.00    2.01
   6   4  -7   34.47    2.42
   6   4  -6   56.65    3.71
   6   4  -6   47.81    1.42
   6   4  -5   -0.12    0.73
   6   4  -5    0.39    0.32
   6   4  -4   82.05    3.96
   6   4  -4   70.63    2.03
   6   4  -3    0.24    0.54
   6   4  -3    0.01    0.27
   6   4  -2    0.60    0.61
   6   4  -2    0.16    0.36
   6   4  -1   31.40    1.27
   6   4  -1   37.24    2.57
   6   4   0   30.94    2.30
   6   4   0   29.57    1.31
   6   4   1  290.44    6.87
   6   4   1  281.35    6.73
   6   4   1  281.56    6.53
   6   4   2    2.49    0.64
   6   4   2    2.16    0.81
   6   4   2    3.51    1.05
  -6  -4  -2    3.80    0.63
   6   4   3   29.74    1.21
   6   4   3   30.01    1.23
   6   4   3   30.00    1.79
  -6  -4  -3   30.78    1.78
   6   4   4    0.25    0.55
   6   4   4    0.22    0.58
  -6  -4  -4    0.32    0.74
   6   4   5  301.80    6.97
   6   4   5  307.77    7.13
  -6  -4  -5  323.08    8.62
   6   4   6   17.92    1.06
   6   4   6   17.34    1.13
  -6  -4  -6   16.83    1.86
   6   4   7   44.69    1.34
   6   4   7   47.85    1.47
  -6  -4  -7   52.58    2.18
   6   4   8   25.33    0.83
   6   4   8   24.69    0.83
  -6  -4  -8   29.31    2.60
  -6  -4  -9   87.18    3.18
  -6  -4 -10   35.84    3.31
  -6  -4 -11   15.04    2.74
  -6  -4 -12    0.45    1.57
  -6  -4 -13    8.38    2.80
  -6  -4 -14   22.01    3.76
  -6  -4 -15   21.15    3.97
  -6  -4 -16   64.84    6.37
   6   5 -11    2.75    2.67
   6   5 -10   15.28    2.29
   6   5  -9    0.49    1.72
   6   5  -8    2.36    1.27
   6   5  -7    4.01    0.99
   6   5  -7    8.54    2.57
   6   5  -6    3.78    0.93
   6   5  -6    7.09    1.50
   6   5  -5    7.94    1.05
   6   5  -5   10.66    2.52
   6   5  -4    8.02    2.12
   6   5  -4    6.61    0.93
   6   5  -3   52.25    2.39
   6   5  -3   45.73    1.80
   6   5  -2    0.56    0.76
   6   5  -2    0.92    0.63
   6   5  -1    1.38    0.76
   6   5  -1    0.71    0.68
   6   5   0    0.78    0.66
   6   5   0    0.76    0.70
   6   5   1   16.81    1.21
   6   5   1   17.14    1.44
   6   5   2   12.95    1.01
   6   5   2   13.32    1.42
   6   5   3   40.88    2.10
   6   5   3   41.16    2.22
  -6  -5  -3   25.14    1.38
   6   5   4   45.88    2.41
   6   5   4   47.24    1.50
   6   5   4   51.52    2.13
  -6  -5  -4   50.60    1.90
   6   5   5    1.57    0.68
   6   5   5    1.82    0.69
   6   5   5    1.26    0.72
  -6  -5  -5    1.40    0.70
   6   5   6   52.83    2.10
   6   5   6   53.07    1.77
   6   5   6   53.23    1.76
  -6  -5  -6   59.32    2.29
   6   5   7   41.36    1.32
   6   5   7   46.31    1.64
  -6  -5  -7   54.30    2.35
   6   5   8    6.99    0.46
   6   5   8    4.93    0.50
  -6  -5  -8    7.21    1.89
  -6  -5  -9    6.70    1.26
  -6  -5 -10   18.47    2.97
  -6  -5 -11   11.59    1.80
  -6  -5 -12  138.91    5.29
  -6  -5 -13   38.95    3.00
  -6  -5 -14    2.86    1.66
  -6  -5 -15    3.52    1.95
  -6  -5 -16    0.07    1.15
   6   6 -10    1.04    1.36
   6   6  -9   14.91    2.23
   6   6  -8    1.03    2.00
   6   6  -7    0.77    0.87
   6   6  -7    0.42    1.07
   6   6  -6    1.44    1.09
   6   6  -6    3.88    1.29
   6   6  -5    1.62    0.95
   6   6  -5    0.12    1.73
  -6  -6   5    2.78    1.16
   6   6  -4   10.34    1.44
   6   6  -4   14.07    2.44
  -6  -6   4   12.57    1.56
   6   6  -3   16.07    1.56
   6   6  -3   15.98    1.67
  -6  -6   3   22.15    2.65
   6   6  -2    7.79    1.25
   6   6  -2    8.22    1.28
  -6  -6   2    6.55    1.89
   6   6  -1   66.49    2.93
   6   6  -1   69.46    2.70
  -6  -6   1   72.68    3.79
   6   6   0  278.98    7.74
   6   6   0  277.11    7.33
  -6  -6   0  287.92    7.42
   6   6   1   99.01    3.84
   6   6   1  107.41    4.15
  -6  -6  -1  108.72    3.28
   6   6   2   17.42    1.85
   6   6   2   17.48    1.78
   6   6   3   22.26    2.06
   6   6   3   23.89    1.18
   6   6   4    1.45    0.78
   6   6   4    0.54    1.08
   6   6   5    7.54    1.71
   6   6   5    9.03    1.08
  -6  -6  -5    9.93    1.25
   6   6   6   12.51    2.00
   6   6   6   11.40    0.65
   6   6   6   12.93    1.08
  -6  -6  -6   13.18    1.39
   6   6   7   42.68    2.10
   6   6   7   38.88    1.43
   6   6   7   38.16    1.39
  -6  -6  -7   46.66    2.36
   6   6   8    1.03    0.76
   6   6   8    0.59    0.44
   6   6   8    0.57    0.32
  -6  -6  -8    1.14    1.54
  -6  -6  -9   77.94    4.75
  -6  -6 -10    4.74    2.32
  -6  -6 -11  161.22    5.74
  -6  -6 -12    1.33    2.14
  -6  -6 -13    9.25    3.08
  -6  -6 -14    1.89    2.40
  -6  -6 -15  105.90    7.26
  -6  -6 -16    8.75    3.71
   6   7  -9    0.27    1.11
   6   7  -8    0.12    0.57
   6   7  -8    0.39    1.02
  -6  -7   8    1.25    1.25
   6   7  -7    0.43    1.02
   6   7  -7    0.49    1.77
  -6  -7   7    0.29    1.56
   6   7  -6    3.71    1.60
   6   7  -6    9.30    2.57
  -6  -7   6    8.34    2.89
   6   7  -5    0.31    0.94
   6   7  -5    0.47    1.49
  -6  -7   5    1.65    1.22
   6   7  -4    3.02    0.89
   6   7  -4    6.85    1.36
  -6  -7   4    6.00    1.49
   6   7  -3    1.62    0.79
   6   7  -3    2.46    1.07
  -6  -7   3    2.69    1.88
   6   7  -2   18.26    2.00
   6   7  -2   17.60    1.72
  -6  -7   2   20.24    2.78
   6   7  -1   17.53    1.95
   6   7  -1   17.73    1.60
  -6  -7   1   20.87    2.64
   6   7   0   43.99    2.87
   6   7   0   43.59    3.09
  -6  -7   0   47.59    3.28
   6   7   1   -0.21    1.08
   6   7   1    1.55    1.13
  -6  -7  -1    0.07    0.84
   6   7   2   28.89    2.50
   6   7   2   26.99    1.54
  -6  -7  -2   28.25    1.60
   6   7   3   53.23    3.18
   6   7   3   55.37    2.77
  -6  -7  -3   54.86    2.80
   6   7   4    1.13    0.82
   6   7   4    1.87    0.99
  -6  -7  -4    0.15    0.65
   6   7   5    1.71    0.83
   6   7   5    2.44    0.90
   6   7   6    2.72    0.99
   6   7   6    2.29    0.83
  -6  -7  -6    0.34    0.78
   6   7   7    9.61    2.13
   6   7   7    6.61    0.82
  -6  -7  -7   10.86    1.55
   6   7   8   17.26    2.31
   6   7   8    9.07    0.88
  -6  -7  -8   17.20    1.87
   6   7   9   17.30    2.74
  -6  -7  -9   21.56    3.20
   6   7  10    0.78    0.93
  -6  -7 -10    1.24    1.20
  -6  -7 -11   -0.86    1.97
  -6  -7 -12   21.34    4.15
  -6  -7 -13    7.04    2.20
  -6  -7 -14    1.02    1.61
  -6  -7 -15   30.15    3.68
   6   8  -8    1.84    0.94
   6   8  -8    0.07    3.00
  -6  -8   8    0.15    1.83
   6   8  -7   -0.08    1.06
   6   8  -7    0.51    1.25
  -6  -8   7    0.30    1.16
   6   8  -6    0.71    1.63
   6   8  -6    3.39    1.67
  -6  -8   6    2.23    2.45
   6   8  -5    1.32    1.68
   6   8  -5    4.30    1.64
  -6  -8   5    3.86    2.51
   6   8  -4    0.52    0.84
   6   8  -4    2.01    1.27
  -6  -8   4    1.06    1.13
   6   8  -3    2.12    1.62
   6   8  -3    2.98    1.38
  -6  -8   3    4.89    1.41
   6   8  -2    3.74    1.78
   6   8  -2    4.78    1.44
  -6  -8   2    3.52    2.04
   6   8  -1   10.24    1.54
   6   8  -1    5.92    1.26
  -6  -8   1    7.22    2.23
   6   8   0    0.55    0.77
   6   8   0    1.82    0.96
  -6  -8   0    0.02    0.88
   6   8   1    8.68    1.99
   6   8   1    6.41    1.72
  -6  -8  -1    9.31    2.01
   6   8   2    7.96    2.05
   6   8   2    8.85    1.03
  -6  -8  -2    8.73    1.84
   6   8   3   31.87    2.99
   6   8   3   31.04    2.44
  -6  -8  -3   31.35    1.66
   6   8   4    0.96    0.87
   6   8   4    0.82    0.99
  -6  -8  -4    1.33    1.07
   6   8   5   11.60    1.76
   6   8   5    8.51    1.46
  -6  -8  -5   11.59    1.51
   6   8   6   15.19    1.63
   6   8   6   14.91    1.68
  -6  -8  -6   15.45    1.50
   6   8   7    4.76    2.05
   6   8   7    4.44    1.12
   6   8   8   -1.03    1.35
   6   8   8    0.31    0.46
   6   8   9    1.55    2.01
  -6  -8  -9    2.03    1.31
   6   8  10   13.33    1.87
  -6  -8 -10   17.49    3.42
   6   8  11   14.90    1.90
  -6  -8 -11   16.13    2.42
  -6  -8 -12    3.75    1.84
  -6  -8 -13    0.05    1.65
  -6  -8 -14    5.88    3.67
   6   9  -7   -1.58    1.77
   6   9  -7    0.15    2.35
  -6  -9   7   -0.01    1.44
   6   9  -6    1.43    1.11
   6   9  -6    0.61    1.84
  -6  -9   6    0.22    1.14
   6   9  -5    4.28    1.94
   6   9  -5    0.35    1.98
  -6  -9   5    1.54    1.41
   6   9  -4   -0.13    0.66
   6   9  -4    0.21    1.08
  -6  -9   4   -0.92    1.98
   6   9  -3   -0.18    1.53
   6   9  -3    1.45    1.49
  -6  -9   3    2.55    2.18
   6   9  -2   -0.13    0.80
  -6  -9   2    6.38    1.56
   6   9  -1   19.86    3.01
   6   9  -1   16.86    2.80
  -6  -9   1   17.37    1.89
   6   9   0    5.17    2.26
   6   9   0    9.27    1.47
  -6  -9   0    8.28    1.48
   6   9   1    2.15    1.50
   6   9   1    0.01    1.46
  -6  -9  -1    1.43    0.95
   6   9   2    0.40    0.81
   6   9   2   -0.01    1.40
  -6  -9  -2    0.38    0.71
   6   9   3    0.93    1.59
   6   9   3    0.98    1.55
  -6  -9  -3    0.26    0.61
   6   9   4   22.87    3.17
   6   9   4   25.90    2.27
  -6  -9  -4   27.85    2.35
   6   9   5    2.11    1.33
   6   9   5    1.51    1.84
  -6  -9  -5    0.75    1.01
   6   9   6   26.92    2.54
   6   9   6   27.38    2.31
  -6  -9  -6   25.00    1.40
   6   9   7    0.01    0.43
   6   9   7    0.59    0.81
  -6  -9  -7    0.87    0.85
   6   9   8    0.44    0.99
   6   9   9    5.91    3.00
   6   9  10    9.68    3.50
   6   9  11    2.32    1.42
  -6  -9 -11   -0.36    1.16
   6   9  12    0.64    1.11
  -6  -9 -12    1.28    1.45
  -6  -9 -13    4.24    1.93
   6  10  -5    6.76    2.94
   6  10  -5    8.62    3.34
  -6 -10   5    3.52    2.87
   6  10  -4   -0.24    0.72
   6  10  -4    0.69    1.20
  -6 -10   4    0.44    1.20
   6  10  -3    0.03    2.57
   6  10  -3    6.38    2.48
  -6 -10   3    5.10    1.77
   6  10  -2    0.00    1.42
   6  10  -2    5.49    2.01
  -6 -10   2    3.86    2.50
   6  10  -1    0.01    1.98
   6  10  -1   -0.18    1.37
  -6 -10   1    4.00    2.15
   6  10   0    0.00    0.85
   6  10   0    0.01    0.95
  -6 -10   0    0.75    1.48
   6  10   1    1.03    0.94
   6  10   1    0.00    0.81
  -6 -10  -1    0.46    1.29
   6  10   2   18.67    2.79
   6  10   2   -0.02    2.11
  -6 -10  -2   15.47    2.37
   6  10   3    6.87    2.88
   6  10   3    9.29    1.57
  -6 -10  -3    5.76    1.81
   6  10   4    4.52    1.48
   6  10   4    0.01    2.24
  -6 -10  -4    3.20    1.49
   6  10   5   14.39    2.60
   6  10   5   11.24    1.94
  -6 -10  -5    7.67    1.80
   6  10   6    1.15    0.78
   6  10   6    0.60    1.92
  -6 -10  -6    0.71    1.05
   6  10   7    0.52    0.99
   6  10   7    2.56    1.98
  -6 -10  -7    0.65    0.99
   6  10   8   -0.25    1.00
   6  10   9    0.58    1.21
   6  10  10    0.65    1.52
   6  10  11    1.04    2.17
   6  10  12   -0.60    2.07
   6  11  -2   -0.66    2.62
   6  11  -2    2.87    2.03
  -6 -11   2    4.18    2.48
   6  11  -1    0.01    1.83
   6  11  -1   -0.15    0.98
  -6 -11   1    1.34    1.91
   6  11   0    0.02    0.99
   6  11   0   -0.20    1.45
  -6 -11   0    3.52    1.36
   6  11   1   -0.41    1.03
   6  11   1   -0.01    1.81
  -6 -11  -1    0.37    0.84
   6  11   2   -0.91    1.83
   6  11   2    0.01    1.34
  -6 -11  -2    0.50    0.84
   6  11   3    0.01    1.81
   6  11   3   -0.52    1.79
  -6 -11  -3    0.28    0.74
   6  11   4    0.24    1.09
   6  11   4    0.12    1.64
  -6 -11  -4    1.16    0.85
   6  11   5   22.52    3.15
   6  11   5   19.28    4.03
  -6 -11  -5   20.67    2.43
   6  11   6    3.58    1.55
   6  11   6    2.23    2.67
  -6 -11  -6    1.57    1.42
   6  11   7    2.57    1.60
   6  11   8    1.56    1.48
   6  11   9    2.44    2.69
   7  -6  -1   33.33    5.96
  -7   6   1   27.09    4.65
   7  -6   0   38.00    3.98
  -7   6   0   30.29    2.99
   7  -6   1    0.13    2.52
  -7   6  -1    0.66    2.11
   7  -6   2    3.37    2.59
  -7   6  -2    1.90    1.55
   7  -5  -5   54.81    8.92
  -7   5   5   22.20    2.10
   7  -5  -4   10.98    3.64
  -7   5   4    4.33    2.22
   7  -5  -3    2.96    4.25
  -7   5   3    0.87    1.18
   7  -5  -2    0.98    2.35
  -7   5   2    1.15    2.18
   7  -5  -1    0.44    1.28
  -7   5   1    1.62    1.40
   7  -5   0    0.50    1.98
  -7   5   0   -0.44    1.80
   7  -5   1   11.81    3.49
  -7   5  -1   12.30    2.07
   7  -5   2    6.24    2.12
  -7   5  -2    6.42    2.87
   7  -5   3    6.30    3.98
  -7   5  -3    2.95    1.50
   7  -5   4    1.12    2.99
  -7   5  -4   -0.26    1.62
   7  -5   5    4.85    4.19
  -7   5  -5    3.30    1.50
   7  -5   6    0.63    1.44
  -7   5  -6    0.65    1.13
   7  -5   7    0.32    0.92
  -7   5  -7    0.50    1.75
   7  -4  -7    1.23    2.76
   7  -4  -6    7.48    3.29
   7  -4  -5   -0.27    1.16
   7  -4  -4    4.25    2.86
  -7   4   4    2.06    1.17
   7  -4  -3    2.62    2.40
  -7   4   3    2.03    1.87
   7  -4  -2    1.77    1.36
  -7   4   2    1.02    1.10
   7  -4  -1    1.95    3.05
  -7   4   1    1.75    2.07
   7  -4   0   23.50    4.92
  -7   4   0   13.44    2.03
   7  -4   1    4.37    1.66
  -7   4  -1    2.28    1.32
   7  -4   2   19.39    3.52
  -7   4  -2   14.54    3.08
   7  -4   3   20.34    3.45
  -7   4  -3   21.36    3.24
   7  -4   4    1.49    2.25
  -7   4  -4    1.05    1.11
   7  -4   5   11.30    2.49
  -7   4  -5    9.39    2.72
   7  -4   6   12.67    2.74
  -7   4  -6   14.94    1.89
   7  -4   7    0.10    0.96
  -7   4  -7    0.87    1.05
   7  -4   8   10.18    1.60
  -7   4  -8    7.78    2.58
   7  -4   9    6.61    2.39
  -7   4  -9    4.26    2.28
   7  -3  -9   14.57    4.05
   7  -3  -9   18.71    2.54
   7  -3  -8    0.78    1.16
   7  -3  -8   -0.11    0.99
   7  -3  -7    2.68    1.63
   7  -3  -6   17.77    2.39
   7  -3  -5    1.82    2.37
   7  -3  -4   55.65    3.56
   7  -3  -3    0.05    0.90
  -7   3   3   -0.20    0.76
   7  -3  -2    0.69    1.80
  -7   3   2    1.55    1.65
   7  -3  -1    4.45    1.51
  -7   3   1    3.93    1.29
   7  -3   0    7.68    1.61
  -7   3   0    7.38    2.48
   7  -3   1   11.66    3.38
  -7   3  -1   12.20    1.70
   7  -3   2   14.44    3.45
  -7   3  -2    9.42    2.51
   7  -3   3    0.46    0.95
  -7   3  -3    0.24    0.78
   7  -3   4    7.79    1.58
  -7   3  -4    6.98    2.28
   7  -3   5    6.15    1.56
  -7   3  -5    2.36    1.13
   7  -3   6    3.22    1.53
  -7   3  -6    0.04    1.01
   7  -3   7    2.91    1.69
  -7   3  -7    1.40    1.62
   7  -3   8   -0.19    0.89
  -7   3  -8    0.33    0.81
   7  -3   9    0.50    1.28
  -7   3  -9    0.02    0.57
   7  -3  10    2.55    1.82
  -7   3 -10    0.77    1.48
   7  -3  11   13.28    1.32
  -7   3 -11   15.91    2.65
   7  -2 -10    3.26    1.78
   7  -2  -9    0.70    1.34
   7  -2  -9    1.21    2.15
   7  -2  -8    0.82    1.88
   7  -2  -8    0.24    1.13
   7  -2  -7    3.48    2.63
   7  -2  -7    3.74    1.44
   7  -2  -6    0.27    1.60
   7  -2  -5    6.18    1.65
   7  -2  -4    0.26    0.92
   7  -2  -3    2.51    2.09
   7  -2  -2    2.35    1.27
  -7   2   2   -0.59    0.83
   7  -2  -1   53.63    4.37
  -7   2   1   42.62    2.21
  -7   2   1   36.90    1.03
   7  -2   0   52.39    2.91
  -7   2   0   42.66    3.47
   7  -2   1   15.59    1.79
  -7   2  -1   15.60    2.50
   7  -2   2    3.13    1.84
  -7   2  -2    3.50    1.15
   7  -2   3    0.82    1.65
  -7   2  -3   -0.15    1.09
   7  -2   4   27.21    3.05
  -7   2  -4   23.26    1.76
   7  -2   5    2.67    1.82
  -7   2  -5    2.12    1.56
   7  -2   6   15.62    1.73
  -7   2  -6   14.44    2.37
   7  -2   7    2.31    1.28
  -7   2  -7    2.72    0.99
   7  -2   8    2.43    2.14
  -7   2  -8    1.24    1.39
   7  -2   9    5.59    1.75
  -7   2  -9    9.57    2.05
   7  -2  10   51.87    3.20
   7  -2  11    1.26    1.39
  -7   2 -11   -0.23    1.06
   7  -2  12    1.10    0.99
   7  -1 -10    5.53    2.66
   7  -1 -10    4.79    2.56
   7  -1  -9    4.76    2.65
   7  -1  -9    5.99    2.82
   7  -1  -8    2.58    2.39
   7  -1  -8    3.80    1.57
   7  -1  -7    5.96    1.62
   7  -1  -7    6.90    2.73
   7  -1  -6    9.86    1.75
   7  -1  -6   10.17    2.93
   7  -1  -5    6.58    1.56
   7  -1  -5    6.87    1.47
   7  -1  -4   14.51    2.99
   7  -1  -3   10.38    1.71
   7  -1  -2   74.45    4.65
   7  -1  -1   -0.01    0.55
   7  -1   0    1.28    1.61
  -7   1   0    0.52    0.38
  -7   1   0    0.36    0.72
   7  -1   1   39.56    3.27
  -7   1  -1   30.34    1.33
  -7   1  -1   35.04    1.88
   7  -1   2   23.95    1.88
  -7   1  -2   22.24    2.49
   7  -1   3   14.87    1.53
  -7   1  -3   13.04    1.35
   7  -1   4   31.78    1.88
  -7   1  -4   31.48    2.77
   7  -1   5    1.05    1.43
  -7   1  -5    0.33    0.66
   7  -1   6  111.04    4.84
  -7   1  -6  104.92    4.40
   7  -1   7   28.56    1.84
  -7   1  -7   24.87    1.58
   7  -1   8    0.12    1.10
  -7   1  -8    0.26    0.57
   7  -1   9    3.40    1.67
  -7   1  -9    2.07    1.26
   7  -1  10    8.07    1.62
  -7   1 -10    5.57    1.54
   7  -1  11    5.92    1.59
  -7   1 -11    5.38    1.33
  -7   1 -11    2.53    1.41
   7  -1  12    7.02    1.90
  -7   1 -12    9.39    1.64
  -7   1 -13    0.80    1.75
   7   0 -11    0.19    1.51
   7   0 -11   -0.05    1.69
   7   0 -10    0.60    2.14
   7   0 -10    0.89    1.25
   7   0  -9    1.05    1.10
   7   0  -9    0.72    1.25
   7   0  -8    0.18    0.80
   7   0  -8   -0.29    0.81
   7   0  -7    0.49    1.61
   7   0  -7    0.23    1.00
   7   0  -6   56.44    3.17
   7   0  -6   56.20    4.53
   7   0  -5   33.85    2.42
   7   0  -5   32.14    3.89
   7   0  -4    0.32    1.38
   7   0  -4    0.53    0.96
   7   0  -3    7.85    1.52
   7   0  -2    2.38    1.72
   7   0  -1    0.24    0.72
   7   0   0   12.73    1.44
  -7   0   0    9.46    0.48
   7   0   1    0.23    1.05
  -7   0  -1    0.66    0.43
   7   0   2    0.63    1.19
  -7   0  -2    0.58    0.61
  -7   0  -2    0.22    0.50
   7   0   3  227.19    7.28
  -7   0  -3  212.67    5.39
  -7   0  -3  205.14    5.28
   7   0   4   84.29    4.01
  -7   0  -4   75.06    2.17
  -7   0  -4   76.01    3.40
   7   0   5   90.84    3.88
  -7   0  -5   87.60    3.28
  -7   0  -5   90.64    3.69
   7   0   6   37.03    2.73
  -7   0  -6   35.27    2.32
  -7   0  -6   33.61    1.60
   7   0   7   54.80    3.03
  -7   0  -7   50.16    2.83
  -7   0  -7   46.27    2.55
   7   0   8    0.54    1.02
  -7   0  -8    1.81    1.31
  -7   0  -8    1.37    1.04
   7   0   9   77.03    2.86
  -7   0  -9   56.39    3.67
  -7   0  -9   54.98    2.68
   7   0  10   13.01    1.01
  -7   0 -10   13.41    2.48
  -7   0 -10   12.16    1.54
   7   0  11    0.81    0.56
  -7   0 -11    0.50    0.92
  -7   0 -11    0.42    0.81
  -7   0 -12    4.84    1.50
  -7   0 -13    1.70    2.11
  -7   0 -14   14.99    4.67
   7   1 -11    0.80    2.03
   7   1 -11    0.81    1.27
   7   1 -10    4.97    1.81
   7   1 -10    5.75    2.76
   7   1  -9    3.68    1.68
   7   1  -9    4.50    2.51
   7   1  -8    4.22    2.36
   7   1  -8    5.31    2.53
   7   1  -7   78.85    3.66
   7   1  -7   86.25    5.42
   7   1  -6   11.76    1.84
   7   1  -6    9.98    2.95
   7   1  -5  106.02    5.71
   7   1  -5   99.44    4.01
   7   1  -4    9.96    1.62
   7   1  -4   12.18    1.61
   7   1  -3   25.64    3.01
   7   1  -3   26.63    3.00
   7   1  -2    1.14    1.53
   7   1  -2    1.64    0.99
   7   1  -1   66.49    2.66
   7   1  -1   71.92    4.01
   7   1   0   61.28    2.61
  -7  -1   0   56.05    1.05
   7   1   1   -0.15    0.92
  -7  -1  -1    0.05    0.28
   7   1   2    1.17    1.22
  -7  -1  -2    1.04    0.55
   7   1   3   32.80    2.46
  -7  -1  -3   31.62    1.58
   7   1   4   18.04    1.99
  -7  -1  -4   15.41    1.43
   7   1   5    1.02    0.66
  -7  -1  -5    0.39    0.48
   7   1   6   16.58    1.77
  -7  -1  -6   16.66    1.86
   7   1   7    2.75    1.16
  -7  -1  -7    3.51    1.04
  -7  -1  -7   -0.05    0.44
   7   1   8    9.58    1.43
  -7  -1  -8    7.73    1.05
  -7  -1  -8    1.80    0.58
   7   1   9   13.11    1.71
  -7  -1  -9   13.07    1.40
  -7  -1  -9    6.37    0.66
   7   1  10    4.31    1.19
  -7  -1 -10    6.16    1.06
  -7  -1 -10    0.37    0.42
   7   1  11    8.30    0.73
  -7  -1 -11    9.27    1.76
  -7  -1 -12   29.95    4.22
  -7  -1 -13   19.10    3.49
  -7  -1 -14    2.56    1.54
  -7  -1 -15    0.51    1.29
   7   2 -11   -0.23    1.04
   7   2 -11    0.27    1.19
   7   2 -10    1.46    1.32
   7   2 -10    0.48    2.05
   7   2  -9    9.38    3.18
   7   2  -9    9.06    2.94
   7   2  -8    4.24    1.60
   7   2  -8    4.70    1.53
   7   2  -7    6.54    1.78
   7   2  -7    7.34    1.65
   7   2  -6   27.20    3.55
   7   2  -6   23.66    2.20
   7   2  -5   36.53    2.33
   7   2  -5   35.99    3.67
   7   2  -4   13.66    2.55
   7   2  -4   10.90    2.56
   7   2  -3   29.87    2.04
   7   2  -3   32.70    3.19
   7   2  -2    8.95    2.17
   7   2  -2    9.74    1.37
   7   2  -1    4.52    1.10
   7   2  -1    3.62    1.79
   7   2   0    2.53    1.45
   7   2   0    2.24    0.94
   7   2   1    6.41    1.04
   7   2   1    5.64    1.71
  -7  -2  -1    6.18    0.63
   7   2   2    2.97    1.35
   7   2   2    5.08    1.44
  -7  -2  -2    2.58    0.65
   7   2   3    1.40    1.06
   7   2   3    1.27    1.01
  -7  -2  -3    1.18    0.69
   7   2   4   19.55    1.86
   7   2   4   19.05    1.16
  -7  -2  -4   21.52    1.55
   7   2   5   44.45    1.69
  -7  -2  -5   43.46    2.31
   7   2   6   20.33    1.69
  -7  -2  -6   22.04    1.94
   7   2   7   -0.25    0.63
  -7  -2  -7    0.46    0.59
   7   2   8    1.54    0.81
  -7  -2  -8    1.20    0.78
   7   2   9   83.37    2.76
  -7  -2  -9   80.12    4.25
   7   2  10   -0.03    0.43
   7   2  10    0.41    0.52
  -7  -2 -10   -0.42    1.29
  -7  -2 -11   55.06    4.07
  -7  -2 -12    4.65    2.34
  -7  -2 -13    2.95    1.42
  -7  -2 -14   -0.24    1.04
  -7  -2 -15    2.28    1.55
   7   3 -11   -0.71    1.03
   7   3 -11    1.80    1.51
   7   3 -10   -0.66    1.56
   7   3 -10   -0.19    1.08
   7   3  -9    0.77    0.92
   7   3  -9   -0.17    1.04
   7   3  -8   22.52    3.49
   7   3  -8   16.44    2.21
   7   3  -7   26.88    3.60
   7   3  -7   25.15    3.60
   7   3  -6   29.82    2.44
   7   3  -6   25.04    3.56
   7   3  -5   10.99    2.57
   7   3  -5    8.44    2.55
   7   3  -4    0.57    0.83
   7   3  -4    0.16    0.82
   7   3  -3   15.28    2.46
   7   3  -3   13.28    1.61
   7   3  -2   21.66    2.53
   7   3  -2   21.81    2.65
   7   3  -1   73.15    2.76
   7   3  -1   76.77    3.92
   7   3   0   61.25    2.48
   7   3   0   63.28    3.35
   7   3   1   13.17    1.24
   7   3   1   16.24    1.99
   7   3   2    5.69    0.89
  -7  -3  -2    5.58    0.85
   7   3   3    0.06    0.72
   7   3   3    0.26    0.74
  -7  -3  -3   -0.08    0.49
   7   3   4   44.53    2.28
   7   3   4   43.69    2.36
  -7  -3  -4   44.19    2.06
   7   3   5    4.04    0.67
   7   3   5    3.78    1.03
  -7  -3  -5    3.81    1.18
   7   3   6   15.03    1.38
   7   3   6   13.91    1.32
  -7  -3  -6   15.20    1.77
   7   3   7    1.15    0.65
   7   3   7    0.70    0.70
  -7  -3  -7    1.14    1.12
   7   3   8    4.14    0.77
   7   3   8    4.55    0.81
  -7  -3  -8    4.54    1.61
   7   3   9   59.25    1.76
   7   3   9   61.67    1.86
  -7  -3  -9   68.44    3.99
   7   3  10    1.69    0.44
   7   3  10    1.32    0.50
  -7  -3 -10    3.55    1.89
  -7  -3 -11    1.60    1.11
  -7  -3 -12   20.86    2.09
  -7  -3 -13   13.13    2.10
  -7  -3 -14   31.81    2.77
  -7  -3 -15   -0.52    1.98
   7   4 -10    2.50    1.43
   7   4 -10    3.43    1.88
   7   4  -9    1.22    2.33
   7   4  -9    1.64    1.22
   7   4  -8    5.58    1.66
   7   4  -8    2.33    2.35
   7   4  -7    1.68    1.82
   7   4  -7    1.31    1.69
   7   4  -6   10.32    1.55
   7   4  -6    7.65    2.32
   7   4  -5   -0.25    1.19
   7   4  -5    0.33    1.04
   7   4  -4   13.18    1.66
   7   4  -4   10.93    2.26
   7   4  -3   21.27    2.73
   7   4  -3   18.19    2.52
   7   4  -2    5.58    1.95
   7   4  -2    5.69    1.90
   7   4  -1   67.53    2.68
   7   4  -1   63.15    2.64
   7   4   0    7.36    1.81
   7   4   0    8.41    1.81
   7   4   1    2.09    1.30
   7   4   1    3.16    0.85
   7   4   2    8.61    1.55
   7   4   2   11.68    1.61
  -7  -4  -2   -0.16    0.35
   7   4   3    2.97    1.11
   7   4   3    3.53    1.17
  -7  -4  -3    3.41    0.98
   7   4   4    9.91    1.28
   7   4   4    9.28    1.37
  -7  -4  -4   11.29    1.46
   7   4   5   16.93    1.41
   7   4   5   19.08    1.55
  -7  -4  -5   17.31    1.20
   7   4   6    1.86    0.74
   7   4   6    1.10    0.81
  -7  -4  -6    2.72    0.78
   7   4   7   30.46    1.43
   7   4   7   30.41    1.50
  -7  -4  -7   33.56    2.65
   7   4   8    9.26    0.86
   7   4   8   12.31    0.94
  -7  -4  -8   12.14    2.18
   7   4   9   10.32    0.88
   7   4   9   11.10    0.72
  -7  -4  -9   13.73    2.40
  -7  -4 -10    1.45    1.05
  -7  -4 -11   22.33    3.24
  -7  -4 -12   73.54    5.27
  -7  -4 -13   32.45    4.29
  -7  -4 -14    0.78    2.15
  -7  -4 -15    4.09    3.07
   7   5 -10    1.99    1.20
   7   5 -10    2.04    1.50
   7   5  -9    0.27    0.88
   7   5  -9    0.65    1.73
   7   5  -8    1.08    1.11
   7   5  -8    6.11    2.65
   7   5  -7    0.57    1.43
   7   5  -7   21.80    2.17
   7   5  -6   18.50    3.39
   7   5  -5   13.97    1.88
   7   5  -4    6.23    1.44
   7   5  -3    0.70    1.14
   7   5  -3    0.18    0.40
   7   5  -2   25.03    1.32
   7   5  -2   29.76    1.84
   7   5  -1  110.58    3.22
   7   5  -1  126.62    3.97
   7   5   0   36.80    1.85
   7   5   0   32.85    1.65
   7   5   0   28.93    1.71
   7   5   1   30.91    1.57
   7   5   1   28.30    1.65
   7   5   1   27.71    1.56
   7   5   2    2.43    0.70
   7   5   2    2.54    0.89
   7   5   2    1.87    1.19
   7   5   3   43.82    1.65
   7   5   3   42.62    1.62
   7   5   3   43.68    2.38
   7   5   4   17.50    1.53
   7   5   4   16.66    1.64
  -7  -5  -4   15.67    1.76
   7   5   5   49.19    2.17
   7   5   5   47.46    2.14
  -7  -5  -5   54.01    2.17
   7   5   6    7.14    0.99
   7   5   6    6.29    0.65
  -7  -5  -6    6.60    1.08
   7   5   7    0.65    0.64
   7   5   7    1.45    0.64
  -7  -5  -7    1.00    1.27
   7   5   8   25.12    1.10
  -7  -5  -8   30.48    2.94
   7   5   9   36.79    1.09
   7   5   9   31.61    1.15
  -7  -5  -9   41.07    2.36
  -7  -5 -10   50.67    3.90
  -7  -5 -11   30.43    3.80
  -7  -5 -12   -0.13    0.97
  -7  -5 -13    3.94    1.75
  -7  -5 -14   17.80    2.69
  -7  -5 -15    0.93    1.57
   7   6  -9    0.24    1.16
   7   6  -8    2.52    2.61
   7   6  -7   19.49    3.62
   7   6  -6    1.37    1.25
   7   6  -5   11.64    2.86
   7   6  -4   15.94    1.42
   7   6  -4   22.43    2.96
   7   6  -3    0.88    0.81
   7   6  -3    3.65    1.86
   7   6  -2    1.50    0.88
   7   6  -2    2.51    1.17
   7   6  -1    9.25    1.33
   7   6  -1   11.27    1.60
   7   6   0   37.51    2.22
   7   6   0   50.30    2.41
   7   6   1    0.57    0.71
   7   6   1   -0.03    0.63
   7   6   2    9.71    0.94
   7   6   2    9.19    1.82
   7   6   3    4.25    1.31
   7   6   3    3.64    1.27
   7   6   4   31.45    2.38
   7   6   4   29.56    1.95
   7   6   4   35.93    1.48
   7   6   5    1.38    1.08
   7   6   5    0.55    0.76
   7   6   5    0.76    0.78
  -7  -6  -5    0.97    0.78
   7   6   6   10.26    1.11
   7   6   6    7.59    1.11
   7   6   6    9.31    1.10
  -7  -6  -6    9.88    1.27
   7   6   7    0.25    0.47
   7   6   7    0.03    0.46
  -7  -6  -7    0.64    0.81
   7   6   8    0.02    0.27
  -7  -6  -8   37.37    3.46
  -7  -6  -9    0.72    1.01
  -7  -6 -10   25.89    3.43
  -7  -6 -11   92.83    4.36
  -7  -6 -12   38.08    4.55
  -7  -6 -13   46.61    5.12
  -7  -6 -14    4.47    2.90
  -7  -6 -15    2.28    2.76
   7   7  -8    0.47    1.30
   7   7  -7    3.97    1.77
   7   7  -6    2.31    2.35
   7   7  -5   -0.09    0.98
   7   7  -5    3.66    1.86
   7   7  -4    3.05    1.26
   7   7  -4    8.05    2.37
   7   7  -3    0.42    0.85
   7   7  -3    0.14    0.87
   7   7  -2   25.06    2.26
   7   7  -2   30.11    2.17
   7   7  -1   29.40    2.42
   7   7  -1   33.37    2.19
   7   7   0   45.78    2.00
   7   7   0   49.21    2.46
   7   7   1    1.44    1.17
   7   7   1    1.53    1.37
   7   7   2   -0.53    1.05
   7   7   3    1.64    0.72
   7   7   3    0.94    1.22
   7   7   4   39.22    2.03
   7   7   4   41.87    2.39
   7   7   5   70.68    4.05
   7   7   5   69.09    2.89
   7   7   6    0.75    1.24
   7   7   6    0.29    0.61
   7   7   6    0.49    0.74
  -7  -7  -6   -0.43    0.78
   7   7   7    3.22    1.58
   7   7   7    1.92    0.76
   7   7   7    1.97    0.78
  -7  -7  -7    3.25    1.16
   7   7   8    0.00    0.75
   7   7   8    1.08    0.44
   7   7   8   -0.19    0.41
  -7  -7  -8    2.26    1.19
  -7  -7  -9   83.14    5.43
  -7  -7 -10   24.88    2.50
  -7  -7 -11   88.04    6.27
  -7  -7 -12    3.07    2.97
  -7  -7 -13    0.84    1.58
  -7  -7 -14    7.91    2.58
   7   8  -7   -0.58    2.06
   7   8  -6    2.43    1.54
   7   8  -5    0.21    1.15
   7   8  -5    0.78    1.13
  -7  -8   5    0.32    1.00
   7   8  -4   -0.01    0.89
   7   8  -4    0.17    0.86
  -7  -8   4    0.42    0.97
   7   8  -3    0.32    0.63
   7   8  -3    0.47    0.97
  -7  -8   3    1.51    1.14
   7   8  -2    2.29    1.82
   7   8  -2    9.32    1.55
  -7  -8   2    5.13    2.23
   7   8  -1  116.68    5.37
   7   8  -1  127.73    4.75
  -7  -8   1  128.40    6.09
   7   8   0   33.89    2.10
   7   8   0   41.70    2.35
  -7  -8   0   39.48    3.40
   7   8   1   41.39    3.08
   7   8   1   45.05    3.33
  -7  -8  -1   42.47    2.22
   7   8   2   20.91    2.45
   7   8   2   20.62    2.66
  -7  -8  -2   19.13    1.51
   7   8   3    4.79    1.22
   7   8   3    8.45    1.17
   7   8   4    3.47    1.18
   7   8   4    3.18    1.07
   7   8   5   24.21    2.76
   7   8   6    0.00    1.54
   7   8   6    1.86    1.14
   7   8   7   18.18    1.95
   7   8   7   13.81    1.33
   7   8   8   26.54    2.15
  -7  -8  -8    0.13    0.83
   7   8   9    0.34    1.35
  -7  -8  -9    1.20    1.21
  -7  -8 -10   10.80    3.14
  -7  -8 -11   38.33    3.37
  -7  -8 -12    6.34    3.38
  -7  -8 -13   11.36    4.12
   7   9  -5   -0.92    1.90
   7   9  -5    3.23    1.69
  -7  -9   5    3.29    2.50
   7   9  -4    0.81    1.97
   7   9  -4   -0.37    0.75
  -7  -9   4    1.04    2.20
   7   9  -3    0.06    1.21
   7   9  -3    0.23    1.99
   7   9  -3    0.80    1.29
  -7  -9   3    1.55    1.36
   7   9  -2    0.97    0.88
   7   9  -2    0.88    2.17
  -7  -9   2   -0.09    0.87
   7   9  -1   -0.12    1.16
   7   9  -1    0.37    1.13
  -7  -9   1    1.43    1.21
   7   9   0    0.64    1.37
   7   9   0    0.31    0.74
  -7  -9   0    2.00    1.18
   7   9   1    2.60    1.11
   7   9   1    2.09    0.93
  -7  -9  -1    4.51    1.29
   7   9   2    1.91    1.61
   7   9   2    1.38    1.30
  -7  -9  -2    2.16    1.04
   7   9   3    0.49    1.12
   7   9   3    0.00    0.60
  -7  -9  -3    0.55    1.22
   7   9   4   10.88    2.51
   7   9   4    8.99    1.57
  -7  -9  -4    7.69    1.69
   7   9   5    2.90    1.59
   7   9   5    0.00    1.75
   7   9   6    5.98    1.55
   7   9   6    0.00    2.15
   7   9   7    0.00    1.35
   7   9   7    0.25    0.93
   7   9   8   -0.18    1.02
   7   9   9    0.40    1.61
   7   9  10   12.23    3.19
   7   9  11    2.45    1.34
  -7  -9 -11    1.56    1.47
  -7  -9 -12    5.68    2.00
   7  10  -3    1.81    1.42
   7  10  -3    0.48    1.88
  -7 -10   3   -0.76    2.15
   7  10  -2    3.92    1.32
   7  10  -2    3.07    1.62
  -7 -10   2    0.54    1.95
   7  10  -1    0.07    1.04
   7  10  -1    0.01    0.75
  -7 -10   1    0.49    1.76
   7  10   0    2.59    1.31
   7  10   0    0.00    2.01
  -7 -10   0    5.47    2.49
   7  10   1    1.01    1.67
   7  10   1    0.00    2.26
  -7 -10  -1   -0.12    1.26
   7  10   2   -0.31    1.33
   7  10   2   -0.01    1.02
  -7 -10  -2   -0.33    1.36
   7  10   3    5.20    1.39
   7  10   3    0.00    1.66
  -7 -10  -3    5.01    2.03
   7  10   4    0.35    1.12
   7  10   4    0.67    1.58
  -7 -10  -4    1.43    0.91
   7  10   5   16.09    2.50
   7  10   5   10.21    1.93
  -7 -10  -5   12.72    2.16
   7  10   6   24.28    3.18
   7  10   6   17.94    2.22
  -7 -10  -6   16.37    1.93
   7  10   7    0.00    0.88
   7  10   8    7.10    2.95
   7  10   9    3.04    1.93
   7  10  10   -0.01    1.20
   7  11   1   -0.51    1.68
   7  11   1    0.01    1.26
  -7 -11  -1   -0.59    1.09
   7  11   2    2.97    1.48
   7  11   2    0.00    2.44
  -7 -11  -2    0.70    1.07
   7  11   3    0.00    2.10
   7  11   3    2.56    2.09
  -7 -11  -3    3.80    1.34
   7  11   4    1.26    1.33
   7  11   4    0.10    1.16
  -7 -11  -4   -0.16    1.21
   7  11   5   -0.43    1.71
   7  11   5   -0.30    1.08
  -7 -11  -5    2.51    1.73
   7  11   6    2.49    1.66
   7  11   6   -0.47    2.29
  -7 -11  -6    0.26    0.70
   7  11   7    2.04    1.49
   8  -4  -3    3.20    1.75
  -8   4   3   -0.94    1.07
   8  -4  -2    2.53    4.32
  -8   4   2    0.07    0.73
   8  -4  -1   22.28    4.14
  -8   4   1    5.47    2.31
   8  -4   0    1.70    2.60
  -8   4   0    1.68    1.30
   8  -4   1   -1.04    1.42
  -8   4  -1    0.06    1.26
   8  -4   2    0.77    1.26
  -8   4  -2    0.04    0.81
   8  -4   3   32.07    5.08
  -8   4  -3   24.48    3.81
   8  -4   4    0.21    1.94
  -8   4  -4    0.63    1.84
   8  -4   5   22.07    3.45
  -8   4  -5   14.03    2.05
   8  -3  -5    5.68    2.42
   8  -3  -4   12.11    4.24
   8  -3  -3    0.56    2.07
   8  -3  -2    0.21    1.10
   8  -3  -1    0.31    1.71
  -8   3   1   -0.40    0.87
   8  -3   0    4.28    1.61
  -8   3   0    3.15    1.92
   8  -3   1    1.62    1.94
  -8   3  -1    1.23    1.11
   8  -3   2    0.26    2.27
  -8   3  -2    1.13    1.71
   8  -3   3   -0.14    1.51
  -8   3  -3   -0.04    1.19
   8  -3   4    1.55    1.23
  -8   3  -4   -0.05    0.75
   8  -3   5    0.83    1.30
  -8   3  -5   -0.12    1.30
   8  -3   6    2.71    1.84
  -8   3  -6    0.64    1.60
   8  -3   7    6.56    2.46
  -8   3  -7    5.13    1.45
   8  -3   8    4.89    1.81
  -8   3  -8    4.65    2.22
   8  -2  -7    0.87    1.54
   8  -2  -7    1.86    1.60
   8  -2  -6    7.75    1.91
   8  -2  -6    7.59    3.36
   8  -2  -5    4.67    3.06
   8  -2  -4    0.47    1.22
   8  -2  -3    2.10    1.50
   8  -2  -2    0.14    1.72
   8  -2  -1    2.43    1.56
   8  -2   0    0.54    1.75
  -8   2   0    0.81    0.92
   8  -2   1    0.59    1.71
  -8   2  -1    0.53    0.83
   8  -2   2    8.18    1.65
  -8   2  -2    7.04    2.25
   8  -2   3    1.58    1.53
  -8   2  -3    0.14    0.71
   8  -2   4    0.91    1.76
  -8   2  -4   -0.19    1.16
   8  -2   5    5.77    2.32
  -8   2  -5    2.79    1.90
   8  -2   6    1.10    1.88
  -8   2  -6   -0.43    0.85
   8  -2   7   20.25    4.00
  -8   2  -7   15.52    2.61
   8  -2   8    0.95    1.44
  -8   2  -8   -0.34    1.27
   8  -2   9   19.86    3.43
  -8   2  -9   17.21    2.62
   8  -2  10    7.85    1.97
  -8   2 -10    7.03    2.09
   8  -1  -8   10.83    3.86
   8  -1  -8   11.50    3.81
   8  -1  -7   23.65    4.65
   8  -1  -7   28.43    4.58
   8  -1  -6   14.65    2.54
   8  -1  -6   18.36    2.58
   8  -1  -5   37.54    3.18
   8  -1  -5   35.96    4.12
   8  -1  -4    1.90    2.37
   8  -1  -4    1.73    1.25
   8  -1  -3   10.66    3.03
   8  -1  -2   29.24    2.55
   8  -1  -1    7.66    2.77
   8  -1   0   34.89    2.55
   8  -1   1   10.15    1.82
   8  -1   2    5.01    2.21
  -8   1  -2    2.89    0.98
  -8   1  -2    3.65    1.05
   8  -1   3   34.65    3.50
  -8   1  -3   26.02    1.79
  -8   1  -3   28.65    1.81
   8  -1   4   33.37    3.24
  -8   1  -4   29.04    2.07
  -8   1  -4   29.39    2.63
   8  -1   5   14.61    3.22
  -8   1  -5   11.50    1.62
  -8   1  -5   12.26    2.15
   8  -1   6    2.03    1.72
  -8   1  -6    1.83    1.14
  -8   1  -6    0.97    0.83
   8  -1   7   12.20    2.61
  -8   1  -7    6.84    1.76
  -8   1  -7    7.26    1.84
   8  -1   8   31.33    2.57
  -8   1  -8   19.61    2.51
  -8   1  -8   21.47    2.33
   8  -1   9    6.71    2.83
  -8   1  -9    3.75    1.87
  -8   1  -9    5.05    1.71
   8  -1  10   -0.32    1.02
  -8   1 -10   -0.04    1.66
  -8   1 -10    3.49    1.44
   8  -1  11   12.64    3.18
  -8   1 -11    4.41    2.38
  -8   1 -11    5.42    1.70
   8   0  -8    3.27    2.71
   8   0  -8    2.81    1.84
   8   0  -7    7.47    1.97
   8   0  -7    6.30    3.43
   8   0  -6    4.28    1.75
   8   0  -6    4.64    2.95
   8   0  -5    4.17    2.57
   8   0  -5    5.16    2.75
   8   0  -4   -0.20    0.79
   8   0  -4    0.37    0.83
   8   0  -3    4.48    1.50
   8   0  -3    6.04    2.28
   8   0  -2   17.90    3.27
   8   0  -1   29.88    2.40
   8   0   0    2.57    1.94
   8   0   1   10.20    2.41
  -8   0  -1    8.70    0.72
   8   0   2   -0.68    0.88
  -8   0  -2    0.15    0.48
   8   0   3    1.31    1.02
  -8   0  -3    0.93    0.74
   8   0   4   25.34    1.87
  -8   0  -4   21.75    1.77
   8   0   5    2.87    0.98
  -8   0  -5    2.52    1.04
  -8   0  -5   -0.03    0.66
   8   0   6   28.84    3.22
  -8   0  -6   21.86    2.29
  -8   0  -6   17.25    1.31
   8   0   7    0.69    1.25
  -8   0  -7    1.19    1.28
  -8   0  -7    0.44    0.58
   8   0   8    0.92    0.83
  -8   0  -8    0.35    1.35
  -8   0  -8    0.33    0.53
   8   0   9   39.72    3.53
  -8   0  -9   35.71    3.52
  -8   0  -9   22.47    1.93
   8   0  10    3.51    1.72
  -8   0 -10    3.14    2.14
  -8   0 -10    1.36    0.99
  -8   0 -11    3.77    2.74
  -8   0 -12   16.87    2.71
   8   1  -9    1.83    1.75
   8   1  -9    1.86    1.54
   8   1  -8   -0.14    1.90
   8   1  -8   -0.23    1.10
   8   1  -7   23.83    2.45
   8   1  -7   24.50    2.67
   8   1  -6    5.29    2.63
   8   1  -6    4.32    1.72
   8   1  -5    0.55    1.19
   8   1  -5    0.94    1.16
   8   1  -4    6.81    1.66
   8   1  -4    6.44    2.69
   8   1  -3    1.35    1.78
   8   1  -3    0.62    1.86
   8   1  -2   16.94    1.99
   8   1  -2   20.25    2.03
   8   1  -1   39.37    3.63
   8   1  -1   39.61    3.86
   8   1   0   35.85    2.20
   8   1   0   34.98    2.12
   8   1   1    1.82    1.65
  -8  -1  -1    1.78    0.43
   8   1   2   18.89    2.65
  -8  -1  -2   17.77    1.50
   8   1   3   16.88    2.40
  -8  -1  -3   16.36    1.35
   8   1   4   -0.12    0.99
  -8  -1  -4    1.45    0.57
   8   1   5   34.81    2.93
  -8  -1  -5   32.48    2.17
   8   1   6    1.92    1.26
  -8  -1  -6    1.33    1.14
   8   1   7    2.68    1.60
  -8  -1  -7    3.64    1.50
   8   1   8   35.82    2.54
  -8  -1  -8   33.99    1.98
   8   1   9   12.47    2.16
  -8  -1  -9   11.23    1.49
   8   1  10    3.74    1.76
  -8  -1 -10    4.01    1.30
  -8  -1 -11   -0.07    0.76
  -8  -1 -12    0.64    1.10
  -8  -1 -13   -0.37    1.11
   8   2  -9   -0.40    2.21
   8   2  -9    1.44    2.05
   8   2  -8    8.18    2.04
   8   2  -8    3.27    3.11
   8   2  -7   61.53    3.91
   8   2  -7   56.58    5.32
   8   2  -6   45.51    4.95
   8   2  -5   13.84    1.88
   8   2  -5   12.64    3.16
   8   2  -4   30.06    3.38
   8   2  -4   27.44    2.36
   8   2  -3   -0.44    0.69
   8   2  -3    0.36    0.70
   8   2  -2    0.08    1.13
   8   2  -2   -0.27    1.15
   8   2  -1   -0.18    0.60
   8   2  -1    0.59    0.98
   8   2   0    5.96    1.90
   8   2   0    3.61    2.02
   8   2   1   21.63    2.56
   8   2   1   20.08    1.72
  -8  -2  -1   -0.13    0.18
   8   2   2   51.21    3.29
   8   2   2   54.31    2.41
  -8  -2  -2   51.56    1.86
   8   2   3    2.32    1.51
   8   2   3    2.50    1.44
  -8  -2  -3    3.24    0.87
   8   2   4   72.90    3.66
   8   2   4   74.67    3.47
  -8  -2  -4   81.50    3.01
   8   2   5  138.94    5.01
   8   2   5  132.43    4.65
  -8  -2  -5  140.81    4.57
   8   2   6   10.98    1.16
   8   2   6    9.39    1.00
  -8  -2  -6   10.10    1.72
   8   2   7   14.26    1.67
   8   2   7   12.48    1.00
  -8  -2  -7   10.29    1.20
   8   2   8   61.25    1.97
   8   2   8   66.95    3.00
  -8  -2  -8   68.80    3.82
   8   2   9    0.73    0.77
   8   2   9    0.92    0.97
  -8  -2  -9    1.62    1.53
  -8  -2 -10    6.16    2.20
  -8  -2 -11   14.17    2.91
  -8  -2 -12   11.29    2.89
  -8  -2 -13    3.48    2.44
  -8  -2 -14    1.13    2.18
   8   3  -9    3.21    2.34
   8   3  -9    2.70    2.66
   8   3  -8    0.89    1.34
   8   3  -8    0.79    1.26
   8   3  -7    0.06    1.84
   8   3  -7    0.48    1.11
   8   3  -6   19.27    2.34
   8   3  -6   16.78    2.23
   8   3  -5   24.57    3.64
   8   3  -5   21.88    2.27
   8   3  -4    0.95    1.15
   8   3  -4    1.61    1.78
   8   3  -3    1.25    1.77
   8   3  -3    1.30    1.75
   8   3  -2    0.14    1.35
   8   3  -2    0.78    0.91
   8   3  -1    0.53    0.80
   8   3  -1    0.66    0.86
   8   3   0   -0.15    0.84
   8   3   0    0.10    0.92
   8   3   1    0.83    0.87
   8   3   1    1.78    0.88
   8   3   2    0.35    0.68
   8   3   2    0.50    0.70
  -8  -3  -2    0.36    0.55
   8   3   3    0.25    0.95
   8   3   3    0.31    1.03
  -8  -3  -3    0.37    0.66
   8   3   4    7.68    1.49
   8   3   4    2.56    1.43
  -8  -3  -4    9.73    1.37
   8   3   5    3.60    0.86
   8   3   5    3.72    1.32
  -8  -3  -5    3.29    1.19
   8   3   6   21.69    1.93
   8   3   6   21.25    1.89
  -8  -3  -6   24.30    2.26
   8   3   7    0.00    0.73
   8   3   7    0.52    0.51
  -8  -3  -7    0.36    0.64
   8   3   8   -0.07    0.57
   8   3   8    0.14    0.36
  -8  -3  -8    0.88    1.28
   8   3   9   11.35    1.20
   8   3   9   11.95    1.31
  -8  -3  -9   13.41    1.51
  -8  -3 -10    2.68    1.17
  -8  -3 -11   69.71    4.76
  -8  -3 -12    1.89    2.06
  -8  -3 -13    4.95    2.67
  -8  -3 -14    1.27    2.25
   8   4  -8    0.03    1.60
   8   4  -8    0.48    1.15
   8   4  -7    1.89    1.31
   8   4  -7    2.09    1.44
   8   4  -6    0.77    1.87
   8   4  -6    1.69    1.28
   8   4  -5   -0.02    0.71
   8   4  -5    0.07    0.71
   8   4  -4    2.00    2.18
   8   4  -4    4.25    1.36
   8   4  -3   18.50    3.01
   8   4  -3   16.29    1.88
   8   4  -2    0.48    0.83
   8   4  -2    0.13    1.36
   8   4  -1   42.14    3.44
   8   4  -1   41.06    3.46
   8   4   0   42.09    3.20
   8   4   0   39.90    2.18
   8   4   1    0.46    0.68
   8   4   1    0.25    1.12
   8   4   2   32.91    1.80
   8   4   2   35.73    1.87
   8   4   3   44.07    1.94
   8   4   3   43.42    1.99
  -8  -4  -3   44.42    2.23
   8   4   4    2.11    0.74
   8   4   4    2.38    0.77
  -8  -4  -4    2.65    0.70
   8   4   5    0.16    0.44
   8   4   5    0.14    0.49
  -8  -4  -5    0.44    0.94
   8   4   6   24.45    1.90
   8   4   6   21.94    1.77
  -8  -4  -6   26.09    2.35
   8   4   7    8.85    1.23
   8   4   7    7.67    1.27
  -8  -4  -7    8.25    1.80
   8   4   8   35.91    1.78
   8   4   8   40.03    2.04
  -8  -4  -8   42.99    3.34
   8   4   9    0.93    0.60
  -8  -4  -9    1.52    1.64
  -8  -4 -10    3.65    2.10
  -8  -4 -11   16.49    2.04
  -8  -4 -12    0.90    1.19
  -8  -4 -13    3.07    1.64
  -8  -4 -14   -0.22    1.18
   8   5  -8    3.76    1.60
   8   5  -8    3.47    2.19
   8   5  -7    7.42    3.13
   8   5  -7    5.66    1.67
   8   5  -6   -0.38    1.03
   8   5  -6    0.22    1.43
   8   5  -5    1.43    1.98
   8   5  -5    0.60    1.75
   8   5  -4   10.75    2.56
   8   5  -4    9.74    2.63
   8   5  -3   11.69    1.54
   8   5  -3   10.79    1.59
   8   5  -2    5.55    1.89
   8   5  -2    3.94    1.21
   8   5  -1   15.50    2.33
   8   5  -1   13.97    1.55
   8   5   0    2.79    1.70
   8   5   0    3.48    1.60
   8   5   1    3.28    1.67
   8   5   1    4.51    1.08
   8   5   2   -0.44    0.98
   8   5   2   -0.08    0.99
   8   5   3    0.94    1.14
   8   5   3    1.39    1.15
   8   5   4    0.38    0.81
   8   5   4   -0.42    0.51
  -8  -5  -4   -0.28    0.52
   8   5   5   18.96    1.59
   8   5   5   19.38    1.84
  -8  -5  -5   20.03    2.15
   8   5   6   10.49    0.82
   8   5   6   12.30    1.51
  -8  -5  -6   13.31    2.07
   8   5   7    4.73    1.07
   8   5   7    6.83    1.07
  -8  -5  -7    5.43    1.90
   8   5   8    0.80    0.68
   8   5   8    0.75    0.70
  -8  -5  -8    2.22    1.03
  -8  -5  -9    2.27    1.71
  -8  -5 -10   36.80    2.46
  -8  -5 -11   17.77    3.24
  -8  -5 -12   22.45    3.90
  -8  -5 -13    0.22    1.77
  -8  -5 -14   25.00    2.99
   8   6  -7    5.58    1.50
   8   6  -7    5.69    1.87
   8   6  -6    4.81    1.41
   8   6  -6    5.45    2.73
   8   6  -5    7.26    1.54
   8   6  -5   13.48    2.24
   8   6  -4    0.24    0.98
   8   6  -4    2.96    1.37
   8   6  -3    0.98    0.97
   8   6  -3    2.46    2.09
   8   6  -2    0.62    0.83
   8   6  -2    1.82    1.82
   8   6  -1    0.27    1.29
   8   6  -1    0.20    0.57
   8   6  -1    0.28    0.67
   8   6   0   -0.27    0.78
   8   6   0    0.11    0.25
   8   6   0   -0.21    0.41
   8   6   1   23.14    2.48
   8   6   1   15.19    1.56
   8   6   1   16.98    2.12
   8   6   2    0.84    1.17
   8   6   2    0.57    0.79
   8   6   2    0.71    0.69
   8   6   3    0.75    0.98
   8   6   3   -0.06    1.05
   8   6   4   31.24    2.38
   8   6   4   36.50    2.58
   8   6   5   16.73    1.76
   8   6   5   17.24    1.92
  -8  -6  -5   15.59    1.42
   8   6   6   22.88    1.82
   8   6   6   22.52    1.19
  -8  -6  -6   27.21    2.76
   8   6   7   14.92    1.45
   8   6   7   14.49    1.38
  -8  -6  -7   17.03    2.59
   8   6   8   26.42    1.48
   8   6   8   26.52    1.47
  -8  -6  -8   39.22    3.58
  -8  -6  -9    3.49    1.38
  -8  -6 -10   21.29    3.74
  -8  -6 -11   15.92    3.54
  -8  -6 -12    2.67    1.58
  -8  -6 -13    0.80    2.17
  -8  -6 -14    3.56    3.11
   8   7  -6    2.60    1.70
   8   7  -5   13.32    2.24
   8   7  -4    3.28    2.57
   8   7  -3   16.70    3.27
   8   7  -2   35.41    3.89
   8   7  -1   11.01    1.56
   8   7  -1   11.44    2.58
   8   7   0    0.21    0.77
   8   7   0    0.17    1.16
   8   7   1    4.20    1.42
   8   7   1    7.07    1.87
   8   7   2   24.95    1.64
   8   7   2   25.78    2.65
   8   7   3    1.96    1.22
   8   7   3    1.58    0.72
   8   7   3    2.37    1.32
   8   7   4    0.13    0.63
   8   7   4    0.59    0.87
   8   7   4    0.71    0.94
   8   7   5    2.07    1.40
   8   7   5    2.23    1.22
   8   7   5    4.12    1.22
   8   7   6    3.19    1.10
   8   7   6    2.51    1.10
   8   7   7    8.04    1.22
   8   7   7    6.02    1.35
  -8  -7  -7   10.19    1.52
  -8  -7  -8    5.02    2.26
  -8  -7  -9   11.53    2.97
  -8  -7 -10    9.74    2.01
  -8  -7 -11   52.30    5.36
  -8  -7 -12    2.55    2.96
  -8  -7 -13   -0.41    1.43
   8   8  -5    1.94    2.50
   8   8  -4   -0.04    0.86
   8   8  -3    0.29    1.03
   8   8  -2   10.29    1.90
   8   8  -2   12.82    1.94
   8   8  -1    1.75    1.64
   8   8  -1    9.48    1.55
   8   8   0   32.85    2.78
   8   8   0   38.86    2.51
   8   8   1   32.90    3.17
   8   8   1   27.48    1.82
   8   8   2   -0.13    1.05
   8   8   2   -0.53    1.15
   8   8   3   -0.24    0.64
   8   8   3    0.65    0.62
   8   8   4    0.48    1.09
   8   8   4   -0.05    0.44
   8   8   4    0.38    0.82
   8   8   5    0.00    1.59
   8   8   5    0.98    0.55
   8   8   5    0.77    0.75
   8   8   6    0.00    0.95
   8   8   6    1.40    0.60
   8   8   6    1.75    0.56
   8   8   7    0.00    1.28
   8   8   7    0.23    0.78
   8   8   7    0.90    0.79
  -8  -8  -9   -0.67    1.13
  -8  -8 -10  102.08    6.56
  -8  -8 -11    0.87    1.43
  -8  -8 -12   23.91    3.06
   8   9  -3   31.41    5.29
   8   9  -2    2.49    2.04
   8   9  -2   12.73    3.32
   8   9  -1    7.74    1.34
   8   9  -1    7.82    3.22
   8   9   0    4.25    1.84
   8   9   0    5.01    1.69
   8   9   1    2.39    1.03
   8   9   1    2.05    1.36
   8   9   2    4.85    2.24
   8   9   2    2.91    1.84
   8   9   3    2.04    0.77
   8   9   3    0.00    0.98
   8   9   4   -0.01    1.95
   8   9   4    4.80    1.35
   8   9   5    0.00    1.05
   8   9   5    0.04    0.48
   8   9   6    0.01    1.38
   8   9   6    1.90    0.60
   8   9   7    0.00    0.87
   8   9   8    0.00    0.80
   8   9   9    0.00    0.48
  -8  -9 -11    0.64    1.29
   8  10   0    1.29    1.05
   8  10   1    9.04    2.26
   8  10   1    0.00    2.43
   8  10   2    0.00    0.85
   8  10   2   -0.48    0.83
   8  10   3    0.99    1.63
   8  10   3   -0.42    1.22
   8  10   4    2.87    1.98
   8  10   4    0.00    0.99
   8  10   5    0.01    2.42
   8  10   5    5.31    0.99
   8  10   6    0.01    1.56
   8  10   6    0.36    0.77
   8  10   7   -0.01    0.85
   8  10   8    0.00    1.00
   9  -2  -3    1.58    1.89
   9  -2  -2    0.13    2.01
   9  -2  -1    0.66    2.15
   9  -2   0    2.62    2.60
   9  -2   1    1.40    1.34
   9  -2   2   29.13    3.98
  -9   2  -2   -0.41    0.84
   9  -2   3    6.55    4.33
  -9   2  -3    0.96    0.95
   9  -2   4    7.62    1.90
  -9   2  -4    4.42    1.22
   9  -2   5    4.03    1.51
  -9   2  -5    5.13    1.58
  -9   2  -5    2.82    1.83
   9  -2   6   10.92    2.11
  -9   2  -6    3.77    1.64
  -9   2  -6    2.42    1.94
   9  -1  -4    1.87    1.64
   9  -1  -4    2.73    2.34
   9  -1  -3    4.31    2.90
   9  -1  -3    3.53    1.55
   9  -1  -2   -0.23    1.12
   9  -1  -1    1.12    2.22
   9  -1   0    1.28    1.48
   9  -1   1   -0.38    1.90
   9  -1   2    1.02    1.20
   9  -1   3    3.75    1.38
   9  -1   4   18.18    4.57
   9  -1   5   22.01    3.50
  -9   1  -5   20.94    2.06
  -9   1  -5    0.38    1.16
   9  -1   6   15.42    2.89
  -9   1  -6   19.08    2.63
  -9   1  -6   10.71    1.39
   9  -1   7   -0.23    1.54
  -9   1  -7    4.11    1.75
  -9   1  -7    0.50    0.78
   9  -1   8    3.44    1.73
  -9   1  -8    3.34    2.17
  -9   1  -8    1.83    0.83
   9   0  -5    5.75    3.38
   9   0  -5    6.06    2.07
   9   0  -4    2.29    2.53
   9   0  -4    1.81    1.62
   9   0  -3   -0.16    1.17
   9   0  -3    0.92    1.15
   9   0  -2    1.53    2.34
   9   0  -2    1.77    2.01
   9   0  -1   24.35    2.41
   9   0  -1   21.20    2.18
   9   0   0    9.16    2.88
   9   0   1   17.20    2.12
   9   0   2    1.64    2.15
   9   0   3    0.31    1.59
   9   0   4    3.13    2.08
   9   0   5   16.49    2.76
  -9   0  -5   12.00    1.83
   9   0   6    2.92    2.67
  -9   0  -6    0.89    1.21
   9   0   7   10.52    2.32
  -9   0  -7    9.66    1.32
   9   0   8    5.66    1.42
  -9   0  -8    4.68    1.95
   9   0   9   24.16    3.78
  -9   0  -9   18.67    2.94
   9   0  10    4.37    2.17
  -9   0 -10    1.76    1.95
   9   1  -6    4.19    2.67
   9   1  -6    3.78    2.07
   9   1  -5    0.70    1.29
   9   1  -5    0.59    1.39
   9   1  -4   31.16    4.34
   9   1  -4   29.97    4.65
   9   1  -3   11.40    3.24
   9   1  -3   14.32    2.20
   9   1  -2    0.72    1.04
   9   1  -2   -0.19    1.81
   9   1  -1    6.63    2.66
   9   1  -1    9.35    1.78
   9   1   0    2.24    1.34
   9   1   0    2.60    2.07
   9   1   1    3.38    2.07
   9   1   1    2.97    1.87
   9   1   2    4.74    2.09
   9   1   2    4.03    1.19
   9   1   3   10.47    1.59
   9   1   4   61.45    3.13
  -9  -1  -4   58.01    2.72
   9   1   5   41.21    2.44
  -9  -1  -5   38.40    2.50
   9   1   6    3.50    1.08
  -9  -1  -6    5.72    1.04
   9   1   7   10.24    2.94
   9   1   8    0.48    1.16
  -9  -1  -8   -0.02    0.81
   9   1   9    3.24    1.77
  -9  -1  -9    4.08    1.25
  -9  -1 -10   15.01    1.84
  -9  -1 -11   19.27    2.16
   9   2  -6    7.97    2.27
   9   2  -6    6.22    3.35
   9   2  -5    1.20    2.24
   9   2  -5    2.59    1.56
   9   2  -4    4.32    1.51
   9   2  -4    3.45    1.66
   9   2  -3    0.21    1.41
   9   2  -3   -0.37    1.39
   9   2  -2    4.07    1.48
   9   2  -2    4.26    2.63
   9   2  -1    0.76    1.21
   9   2  -1   -0.41    0.80
   9   2   0   -0.25    0.88
   9   2   0   -0.45    1.50
   9   2   1    4.44    1.34
   9   2   1    6.11    1.36
   9   2   2   16.60    2.83
   9   2   2   17.72    2.76
   9   2   3   35.72    3.39
   9   2   3   39.17    3.37
   9   2   4  104.96    4.97
   9   2   4  107.50    3.83
  -9  -2  -4  103.19    2.82
   9   2   5    3.44    1.85
   9   2   5    4.98    1.77
  -9  -2  -5    4.22    1.42
   9   2   6   31.23    2.76
   9   2   6   29.84    2.83
  -9  -2  -6   33.08    2.61
   9   2   7   12.78    2.01
   9   2   7   11.75    1.26
  -9  -2  -7   14.81    2.19
   9   2   8    3.06    1.41
   9   2   8    2.96    1.46
  -9  -2  -8    2.09    1.59
   9   2   9    0.04    0.50
   9   2   9   -0.47    0.80
  -9  -2  -9   -0.40    1.29
  -9  -2 -10    3.20    1.27
  -9  -2 -11   20.59    2.20
  -9  -2 -12    1.67    1.31
   9   3  -6    4.73    2.00
   9   3  -5    9.53    3.39
   9   3  -5    8.28    3.27
   9   3  -4    1.16    1.38
   9   3  -4    0.84    2.06
   9   3  -3   11.63    1.99
   9   3  -3    7.26    1.85
   9   3  -2   21.20    3.17
   9   3  -2   20.46    2.22
   9   3  -1    0.56    0.88
   9   3  -1    0.18    1.57
   9   3   0    2.29    1.70
   9   3   0    1.84    1.15
   9   3   1    2.90    1.77
   9   3   1    1.97    1.92
   9   3   2   18.25    1.69
   9   3   2   18.49    1.83
   9   3   3    0.52    0.84
   9   3   3    1.38    0.86
  -9  -3  -3    0.71    0.74
   9   3   4    0.77    0.82
   9   3   4    0.55    0.78
  -9  -3  -4    0.24    0.81
   9   3   5    2.55    0.96
   9   3   5    2.86    1.48
  -9  -3  -5    4.04    1.37
   9   3   6    4.32    1.00
   9   3   6    4.02    1.51
  -9  -3  -6    4.68    1.51
   9   3   7   24.49    2.24
   9   3   7   25.55    2.35
  -9  -3  -7   29.09    1.88
   9   3   8    6.85    1.54
   9   3   8    8.94    1.53
  -9  -3  -8    6.61    2.10
  -9  -3  -9   -0.24    0.79
  -9  -3 -10   15.59    3.07
  -9  -3 -11    7.29    2.63
  -9  -3 -12    8.34    2.94
   9   4  -6    5.57    3.15
   9   4  -6    6.07    3.10
   9   4  -5   26.59    2.74
   9   4  -5   29.88    4.20
   9   4  -4    1.04    1.86
   9   4  -4    0.21    1.89
   9   4  -3    2.21    2.39
   9   4  -3    3.38    2.30
   9   4  -2    0.59    1.16
   9   4  -2    1.32    1.13
   9   4  -1    5.77    2.41
   9   4  -1    6.26    1.50
   9   4   0    4.98    2.12
   9   4   0    3.39    2.09
   9   4   1    2.40    1.09
   9   4   1    1.59    1.05
   9   4   2    0.49    0.80
   9   4   2    0.80    1.33
   9   4   3    8.78    1.28
   9   4   3    6.62    2.06
   9   4   4   39.02    2.06
   9   4   4   38.83    3.12
  -9  -4  -4   38.20    2.41
   9   4   5    1.32    1.22
   9   4   5    1.31    0.79
  -9  -4  -5    1.66    1.25
   9   4   6    2.61    1.35
   9   4   6    2.83    0.85
  -9  -4  -6    1.67    1.43
   9   4   7    0.10    0.75
   9   4   7    0.08    0.47
  -9  -4  -7   -0.40    1.17
   9   4   8   17.03    1.75
   9   4   8   16.98    1.82
  -9  -4  -8   19.73    1.72
  -9  -4  -9    0.42    1.44
  -9  -4 -10   46.16    2.94
  -9  -4 -11    0.10    1.44
  -9  -4 -12    0.78    2.08
   9   5  -6    1.26    1.36
   9   5  -6   -0.89    2.07
   9   5  -5   -0.19    1.64
   9   5  -5    1.32    1.90
   9   5  -4    1.13    1.16
   9   5  -4    2.24    2.12
   9   5  -3    1.14    1.13
   9   5  -3    2.09    2.00
   9   5  -2    4.50    2.05
   9   5  -2    4.34    2.35
   9   5  -1   -0.32    1.24
   9   5  -1    0.26    0.75
   9   5   0    2.68    1.23
   9   5   0    4.11    1.21
   9   5   1    1.21    0.93
   9   5   1    0.59    1.53
   9   5   2    3.90    1.12
   9   5   2    3.90    1.13
   9   5   3    9.31    1.27
   9   5   3    7.42    2.03
   9   5   4    0.18    0.59
   9   5   4    0.30    1.00
   9   5   5    1.42    1.16
   9   5   5    1.03    1.27
  -9  -5  -5    0.06    0.78
   9   5   6   13.32    1.17
   9   5   6   15.00    1.77
  -9  -5  -6   15.06    2.28
   9   5   7   10.28    0.90
   9   5   7   10.81    1.68
  -9  -5  -7   10.91    2.44
  -9  -5  -8   25.35    3.30
  -9  -5  -9    0.47    0.93
  -9  -5 -10    0.68    1.73
  -9  -5 -11   18.61    2.16
  -9  -5 -12    4.56    1.66
   9   6  -5   -0.23    0.92
   9   6  -5   -0.11    1.29
   9   6  -4    1.20    1.10
   9   6  -4   -0.77    2.39
   9   6  -3   -0.02    1.73
   9   6  -3   -0.60    1.49
   9   6  -2    1.40    1.24
   9   6  -2    1.30    1.75
   9   6  -1   19.09    2.13
   9   6  -1   18.38    3.15
   9   6   0    0.86    1.00
   9   6   0    0.72    0.96
   9   6   1   17.41    1.81
   9   6   1   18.28    2.71
   9   6   2   -0.74    0.77
   9   6   2    0.57    1.21
   9   6   3   -0.15    0.58
   9   6   3    0.60    0.91
   9   6   4   11.75    2.09
   9   6   4   13.12    2.09
   9   6   5    1.53    1.33
   9   6   5    2.44    0.82
   9   6   6    8.68    1.73
   9   6   6   11.09    1.19
  -9  -6  -6   10.22    1.35
   9   6   7    0.27    0.64
   9   6   7   -0.15    0.62
  -9  -6  -7    0.07    0.66
  -9  -6  -8    0.31    1.41
  -9  -6  -9    1.43    1.92
  -9  -6 -10   25.52    2.69
  -9  -6 -11    6.91    3.28
  -9  -6 -12    0.61    2.04
   9   7  -4    1.75    1.67
   9   7  -4    0.91    1.32
   9   7  -3    0.27    1.54
   9   7  -3    1.25    1.19
   9   7  -2    0.86    1.40
   9   7  -2    0.59    1.06
   9   7  -1    1.90    1.65
   9   7  -1    0.56    1.77
   9   7   0   -0.17    1.09
   9   7   0    0.41    1.15
   9   7   1    3.74    1.10
   9   7   1    2.36    1.88
   9   7   2    6.14    2.02
   9   7   2   10.54    1.39
   9   7   3    1.36    0.86
   9   7   3    0.80    0.83
   9   7   4   15.25    2.14
   9   7   4   12.93    2.06
   9   7   5    1.89    1.24
   9   7   5    0.97    1.24
   9   7   6    3.81    1.42
   9   7   6    3.90    1.38
  -9  -7  -7    6.68    1.42
  -9  -7  -8    4.63    2.19
  -9  -7  -9    6.31    1.72
  -9  -7 -10    1.96    2.36
  -9  -7 -11    3.27    1.77
   9   8  -2    0.35    0.78
   9   8  -2    0.14    1.71
   9   8  -1   -0.31    0.78
   9   8  -1   -0.69    1.65
   9   8   0    5.39    1.18
   9   8   0    6.15    2.46
   9   8   1   -0.26    0.91
   9   8   1   -0.30    0.65
   9   8   1    0.13    1.32
   9   8   2    0.11    0.48
   9   8   2    0.07    0.79
   9   8   2   -0.33    0.99
   9   8   3    0.80    1.34
   9   8   3    1.67    1.39
   9   8   3    1.88    0.98
   9   8   4    4.26    0.98
   9   8   4    4.47    1.56
   9   8   4    5.25    1.70
   9   8   5    0.87    1.42
   9   8   5    3.00    0.85
   9   8   6   13.12    1.98
   9   8   6   16.26    2.33
  -9  -8  -9    1.09    1.18
  -9  -8 -10   15.32    2.22
   9   9   0    0.24    0.90
   9   9   1   -0.77    1.00
   9   9   1    0.92    1.22
   9   9   2    1.64    1.58
   9   9   2   -0.23    0.70
   9   9   2    4.03    1.78
   9   9   3    6.81    2.45
   9   9   3    4.41    1.00
   9   9   3    6.31    1.56
   9   9   4    0.70    1.58
   9   9   4    1.15    1.17
   9   9   4    3.86    1.81
   9   9   5    0.59    1.34
   9   9   5    0.41    0.63
   9   9   5    0.40    0.58
   9   9   6    0.00    0.65
  10   0   0    1.15    2.05
  10   0   0    0.10    1.72
  10   0   1    0.32    1.23
  10   0   1    0.13    0.89
  10   0   2   -1.39    2.55
  10   0   3    0.30    1.03
  10   0   4    1.86    1.25
  10   0   5    3.85    2.38
  10   1  -2    1.67    1.55
  10   1  -2    1.17    2.46
  10   1  -1    2.07    2.75
  10   1  -1    3.58    1.69
  10   1   0    2.73    1.57
  10   1   0    4.41    2.60
  10   1   1    5.35    3.11
  10   1   1   12.33    2.03
  10   1   2    7.87    1.94
  10   1   2   12.35    1.91
  10   1   3    6.99    1.77
  10   1   3    0.14    2.45
  10   1   4    1.56    1.65
  10   1   4    1.57    1.94
  10   1   5    8.50    1.38
  10   1   5    5.95    2.40
  10   1   6    3.63    1.15
  10   1   6    5.94    3.29
  10   1   7    6.74    1.24
  10   1   7    7.27    2.36
 -10  -1  -7    6.20    1.23
  10   2  -3   -0.56    1.01
  10   2  -3    0.98    1.99
  10   2  -2   13.80    2.18
  10   2  -2   13.70    3.60
  10   2  -1    6.68    1.84
  10   2  -1   11.16    1.94
  10   2   0    5.24    2.78
  10   2   0    4.92    2.60
  10   2   1    1.50    1.35
  10   2   1    2.18    2.09
  10   2   2   -0.03    1.60
  10   2   2    0.61    1.02
  10   2   3    0.28    1.37
  10   2   3    0.15    0.86
  10   2   4    2.55    2.12
  10   2   4    3.61    2.06
  10   2   5    0.06    1.42
  10   2   5    1.02    1.65
  10   2   6    9.27    2.33
  10   2   6   11.37    2.39
  10   2   7    1.09    1.28
  10   2   7    0.04    1.22
  10   2   7   -0.07    2.01
 -10  -2  -7    1.25    1.50
  10   2   8    1.49    1.34
  10   2   8    0.43    0.88
 -10  -2  -8    1.20    1.02
  10   3  -3   -0.02    1.27
  10   3  -3   -0.56    1.13
  10   3  -2   -0.06    2.02
  10   3  -2   -0.77    1.86
  10   3  -1    0.88    1.29
  10   3  -1   -0.67    0.98
  10   3   0    0.57    0.93
  10   3   0    0.08    1.81
  10   3   1    0.15    1.70
  10   3   1    1.24    0.99
  10   3   2    1.59    1.59
  10   3   2    0.05    1.51
  10   3   3   16.80    2.00
  10   3   3   16.34    2.94
  10   3   4   29.49    2.24
  10   3   4   33.21    3.35
  10   3   5    2.59    1.04
  10   3   5   -0.80    1.57
  10   3   6   -0.13    1.47
  10   3   6    2.28    1.08
  10   3   7    2.54    1.59
  10   3   7    3.23    1.64
 -10  -3  -7    3.61    1.66
  10   3   8    4.14    1.41
  10   3   8    1.07    2.53
 -10  -3  -8    1.94    1.79
 -10  -3  -9   13.98    1.92
  10   4  -3    2.72    2.43
  10   4  -3    1.25    1.45
  10   4  -2    0.13    0.86
  10   4  -2   -0.42    1.31
  10   4  -1    2.39    1.44
  10   4  -1    1.59    2.24
  10   4   0    2.66    2.92
  10   4   0   11.67    1.82
  10   4   1    2.61    2.11
  10   4   1    1.39    1.98
  10   4   2    0.68    1.08
  10   4   2    1.05    1.10
  10   4   3   18.73    2.88
  10   4   3   21.29    2.05
  10   4   4   32.12    3.24
  10   4   4   37.25    2.41
  10   4   5   26.50    3.11
  10   4   5   29.60    2.10
  10   4   6   32.04    3.04
  10   4   6   30.83    3.03
 -10  -4  -6   31.90    2.95
  10   4   7    0.04    0.81
  10   4   7    0.01    0.57
 -10  -4  -7   -0.09    1.14
 -10  -4  -8   11.37    1.61
 -10  -4  -9    4.27    2.10
  10   5  -2    0.63    1.23
  10   5  -2   -0.19    0.90
  10   5  -1   -0.33    1.75
  10   5  -1   -0.89    1.77
  10   5   0   -0.38    0.88
  10   5   0    0.28    1.43
  10   5   1    1.76    1.11
  10   5   1    0.66    1.12
  10   5   2    4.41    1.33
  10   5   2    4.78    2.20
  10   5   3    8.47    1.41
  10   5   3    3.73    2.31
  10   5   4    7.46    1.37
  10   5   4    9.34    1.55
  10   5   5   11.73    1.43
  10   5   5   13.15    1.44
  10   5   6   -0.49    1.33
  10   5   6    1.85    1.20
 -10  -5  -6    0.12    1.04
  10   5   7    0.48    0.86
  10   5   7    0.16    1.03
 -10  -5  -7    0.06    1.07
 -10  -5  -8   19.48    3.13
 -10  -5  -9   22.68    2.47
  10   6  -1    7.11    1.89
  10   6  -1    8.21    2.76
  10   6   0    0.87    1.88
  10   6   0    0.85    1.79
  10   6   1    8.44    2.74
  10   6   1   10.23    1.68
  10   6   2    1.82    1.70
  10   6   2    0.21    1.61
  10   6   3    1.31    1.46
  10   6   3    0.31    0.87
  10   6   4    4.02    1.16
  10   6   4    2.14    1.80
  10   6   5    1.15    0.88
  10   6   5    1.22    1.49
  10   6   6    0.59    1.14
  10   6   6    0.78    1.22
 -10  -6  -7   -0.12    0.69
 -10  -6  -8    0.09    0.80
 -10  -6  -9   -0.31    1.69
  10   7   0    3.62    2.35
  10   7   0    4.56    2.83
  10   7   1   -0.01    0.76
  10   7   1    0.49    1.50
  10   7   2    0.38    1.30
  10   7   2   -0.02    1.55
  10   7   3    5.62    2.14
  10   7   3    5.58    2.02
  10   7   4   11.55    2.38
  10   7   4   10.97    2.22
  10   7   5    5.37    1.82
  10   7   5    5.04    1.75
  10   7   6    1.78    1.47
  10   7   6    2.91    1.44
 -10  -7  -8   -0.20    0.86
  10   8   3    8.40    2.29
  10   8   3    5.86    2.38
  10   8   4    2.45    1.63
  10   8   4    1.10    1.63
  10   8   5    7.58    1.36
  10   8   5   10.15    2.13
   0   0   0    0.00    0.00
_computing_structure_solution     'SHELXT 2018/2 (Sheldrick, 2018)'
;
_shelx_hkl_checksum              68932
_shelx_res_file
;
TITL 10101715
    shelxl.res
    created by SHELXL-2018/3 at 19:12:33 on 11-Sep-2019
CELL  0.71075 7.66820 8.65150 12.86090 79.17000 78.96800 70.39400
ZERR  2 0.00060 0.00080 0.00100 0.00300 0.00200 0.00300
LATT 1
SFAC C H O N CL
UNIT 32 20 12 6 2
L.S. 10
FMAP 2
PLAN 32
WPDB -2
HTAB
BOND $H
CONF
LIST 4
TEMP -83.0
ACTA
SIZE 0.180 0.200 0.260
WGHT    0.077000
FVAR       0.67613
CL1   5    0.144204    0.287833   -0.102428    11.00000    0.05907    0.07352 =
         0.03571   -0.01063   -0.01542   -0.02999
O1    3    0.270215    0.492958    0.233972    11.00000    0.03829    0.04133 =
         0.02952   -0.01496   -0.00751    0.00786
O2    3    0.496006    0.272207    0.292399    11.00000    0.04996    0.04680 =
         0.02894   -0.00747   -0.01463    0.00865
O3    3    0.790384    0.353062    0.139020    11.00000    0.05439    0.05212 =
         0.05441   -0.00563   -0.02101   -0.01771
O4    3    0.916123    0.097245    0.114449    11.00000    0.03371    0.05741 =
         0.05588   -0.00612   -0.00502    0.01162
O5    3   -0.221067    0.923519    0.730005    11.00000    0.06893    0.06445 =
         0.03250   -0.01925    0.00026   -0.00430
O6    3   -0.385888    1.132759    0.636142    11.00000    0.05788    0.04791 =
         0.05669   -0.02339   -0.00086    0.00531
N1    4    0.789592    0.227472    0.109166    11.00000    0.02963    0.04496 =
         0.02887   -0.00070   -0.00180   -0.00338
N2    4    0.187181    0.572903    0.429804    11.00000    0.02939    0.03126 =
         0.02934   -0.00792   -0.00301   -0.00643
N3    4   -0.270285    0.996260    0.644738    11.00000    0.03468    0.04000 =
         0.03551   -0.01472    0.00374   -0.01292
C1    1    0.447328    0.310547    0.110654    11.00000    0.03105    0.02519 =
         0.02270   -0.00382   -0.00290   -0.00235
C2    1    0.626039    0.235839    0.061954    11.00000    0.03021    0.02870 =
         0.02879   -0.00224   -0.00370   -0.00303
C3    1    0.660678    0.173822   -0.034289    11.00000    0.04090    0.03777 =
         0.03102   -0.01115    0.00479   -0.00286
AFIX  43
H3    2    0.785039    0.121041   -0.064631    11.00000   -1.20000
AFIX   0
C4    1    0.511179    0.190010   -0.085504    11.00000    0.05384    0.03963 =
         0.02747   -0.01304   -0.00013   -0.01203
AFIX  43
H4    2    0.531267    0.149424   -0.151912    11.00000   -1.20000
AFIX   0
C5    1    0.332685    0.265964   -0.038605    11.00000    0.04548    0.03644 =
         0.02523   -0.00404   -0.00900   -0.01448
C6    1    0.297271    0.326394    0.059031    11.00000    0.03237    0.03431 =
         0.02620   -0.00567   -0.00424   -0.00449
AFIX  43
H6    2    0.172692    0.377559    0.089801    11.00000   -1.20000
AFIX   0
C7    1    0.408868    0.357594    0.221877    11.00000    0.02849    0.03127 =
         0.02439   -0.00674   -0.00523   -0.00347
C8    1    0.276564    0.494243    0.511139    11.00000    0.02977    0.03395 =
         0.03707   -0.00542   -0.00793   -0.00692
AFIX  43
H8    2    0.379851    0.397342    0.501163    11.00000   -1.20000
AFIX   0
C9    1    0.225362    0.547856    0.612683    11.00000    0.03652    0.04053 =
         0.03212   -0.00157   -0.01287   -0.01068
AFIX  43
H9    2    0.295494    0.488936    0.669132    11.00000   -1.20000
AFIX   0
C10   1    0.075247    0.684220    0.629897    11.00000    0.03559    0.04100 =
         0.02513   -0.00785   -0.00569   -0.01336
AFIX  43
H10   2    0.039659    0.720138    0.698459    11.00000   -1.20000
AFIX   0
C11   1   -0.027724    0.772366    0.544845    11.00000    0.02758    0.02939 =
         0.02421   -0.00511   -0.00228   -0.01215
C12   1   -0.186630    0.917394    0.546328    11.00000    0.02792    0.03048 =
         0.02826   -0.00798    0.00212   -0.01087
C13   1   -0.271574    0.993508    0.458227    11.00000    0.02860    0.03012 =
         0.03865   -0.00325   -0.00226   -0.00719
AFIX  43
H13   2   -0.376955    1.090140    0.462933    11.00000   -1.20000
AFIX   0
C14   1   -0.203721    0.929447    0.359996    11.00000    0.03550    0.03925 =
         0.03051    0.00074   -0.00887   -0.00698
AFIX  43
H14   2   -0.264213    0.981948    0.298918    11.00000   -1.20000
AFIX   0
C15   1   -0.051977    0.792781    0.353113    11.00000    0.03677    0.03821 =
         0.02368   -0.00519   -0.00542   -0.00808
AFIX  43
H15   2   -0.005289    0.751029    0.286601    11.00000   -1.20000
AFIX   0
C16   1    0.037761    0.711527    0.443767    11.00000    0.02684    0.02983 =
         0.02448   -0.00450   -0.00265   -0.00931
H1    2    0.248901    0.510067    0.310476    11.00000    0.09699
HKLF 4
REM  10101715
REM wR2 = 0.1479, GooF = S = 1.086, Restrained GooF = 1.086 for all data
REM R1 = 0.0517 for 3075 Fo > 4sig(Fo) and 0.0758 for all 4502 data
REM 239 parameters refined using 0 restraints
END
WGHT      0.0772      0.0000
REM Instructions for potential hydrogen bonds
EQIV $1 -x+2, -y, -z
HTAB C3 O4_$1
EQIV $2 x-1, y+1, z
HTAB C13 O2_$2
EQIV $3 -x, -y+1, -z
HTAB C15 Cl1_$3
HTAB C15 O1
HTAB O1 N2
REM Highest difference peak  0.417,  deepest hole -0.386,  1-sigma level  0.083
Q1    1   0.3804  0.3184  0.0773  11.00000  0.05    0.42
Q2    1   0.3342  0.3022  0.0136  11.00000  0.05    0.39
Q3    1   0.2575  0.5193  0.5622  11.00000  0.05    0.37
Q4    1   0.2323  0.2763 -0.0643  11.00000  0.05    0.36
Q5    1   0.5344  0.3013  0.0720  11.00000  0.05    0.36
Q6    1  -0.2120  0.9748  0.4059  11.00000  0.05    0.34
Q7    1   0.2579  0.2397 -0.1229  11.00000  0.05    0.34
Q8    1   0.2078  0.5006  0.5744  11.00000  0.05    0.33
Q9    1   0.0380  0.7451  0.5880  11.00000  0.05    0.33
Q10   1   0.4103  0.3371  0.1595  11.00000  0.05    0.32
Q11   1   0.6330  0.2165  0.0115  11.00000  0.05    0.31
Q12   1   0.2430  0.4443  0.6712  11.00000  0.05    0.31
Q13   1   0.2776  0.5241  0.2814  11.00000  0.05    0.31
Q14   1   0.2584  0.3568  0.0587  11.00000  0.05    0.31
Q15   1   0.8971  0.1928  0.0901  11.00000  0.05    0.30
Q16   1  -0.2158  1.0093  0.5001  11.00000  0.05    0.30
Q17   1   0.1290  0.1833 -0.1459  11.00000  0.05    0.30
Q18   1  -0.2164  0.9459  0.5859  11.00000  0.05    0.29
Q19   1  -0.4414  1.2253  0.7097  11.00000  0.05    0.29
Q20   1   0.7076  0.2297  0.0799  11.00000  0.05    0.28
Q21   1   0.4607  0.2405  0.2575  11.00000  0.05    0.27
Q22   1   0.9587  0.1992  0.1552  11.00000  0.05    0.26
Q23   1  -0.2305  0.9192  0.5070  11.00000  0.05    0.26
Q24   1  -0.0115  0.7651  0.3863  11.00000  0.05    0.26
Q25   1   0.4211  0.2966  0.3059  11.00000  0.05    0.25
Q26   1  -0.1260  0.8400  0.5577  11.00000  0.05    0.25
Q27   1   0.4230  0.2432 -0.0611  11.00000  0.05    0.25
Q28   1   0.4706  0.3342  0.2710  11.00000  0.05    0.24
Q29   1  -0.1846  0.9802  0.6956  11.00000  0.05    0.24
Q30   1   0.1645  0.4834  0.7268  11.00000  0.05    0.24
Q31   1   0.2126  0.5506  0.3615  11.00000  0.05    0.24
Q32   1   0.1581  0.2505 -0.1711  11.00000  0.05    0.24
;
_shelx_res_checksum              33951
loop_
_space_group_symop_operation_xyz
'x, y, z'
'-x, -y, -z'
loop_
_atom_site_type_symbol
_atom_site_label
_atom_site_fract_x
_atom_site_fract_y
_atom_site_fract_z
_atom_site_U_iso_or_equiv
_atom_site_adp_type
_atom_site_calc_flag
_atom_site_occupancy
Cl Cl1 0.14420(7) 0.28783(7) -0.10243(4) 0.05199(18) Uani d 1
O O1 0.27021(17) 0.49296(15) 0.23397(9) 0.0398(3) Uani d 1
O O2 0.49601(18) 0.27221(17) 0.29240(9) 0.0464(3) Uani d 1
O O3 0.7904(2) 0.35306(18) 0.13902(11) 0.0517(4) Uani d 1
O O4 0.91612(19) 0.09724(19) 0.11445(12) 0.0560(4) Uani d 1
O O5 -0.2211(2) 0.9235(2) 0.73000(11) 0.0588(4) Uani d 1
O O6 -0.3859(2) 1.13276(19) 0.63614(12) 0.0585(4) Uani d 1
N N1 0.78959(19) 0.22747(19) 0.10917(11) 0.0375(3) Uani d 1
N N2 0.18718(18) 0.57290(17) 0.42980(10) 0.0304(3) Uani d 1
N N3 -0.2703(2) 0.99626(19) 0.64474(12) 0.0363(3) Uani d 1
C C1 0.4473(2) 0.31055(18) 0.11065(11) 0.0280(3) Uani d 1
C C2 0.6260(2) 0.2358(2) 0.06195(12) 0.0311(3) Uani d 1
C C3 0.6607(3) 0.1738(2) -0.03429(13) 0.0394(4) Uani d 1
H H3 0.785039 0.121041 -0.064631 0.047 Uiso calc 1
C C4 0.5112(3) 0.1900(2) -0.08550(13) 0.0405(4) Uani d 1
H H4 0.531267 0.149424 -0.151912 0.049 Uiso calc 1
C C5 0.3327(2) 0.2660(2) -0.03861(12) 0.0347(4) Uani d 1
C C6 0.2973(2) 0.3264(2) 0.05903(12) 0.0322(3) Uani d 1
H H6 0.172692 0.377559 0.089801 0.039 Uiso calc 1
C C7 0.4089(2) 0.3576(2) 0.22188(12) 0.0289(3) Uani d 1
C C8 0.2766(2) 0.4942(2) 0.51114(13) 0.0338(4) Uani d 1
H H8 0.379851 0.397342 0.501163 0.041 Uiso calc 1
C C9 0.2254(2) 0.5479(2) 0.61268(13) 0.0360(4) Uani d 1
H H9 0.295494 0.488936 0.669132 0.043 Uiso calc 1
C C10 0.0752(2) 0.6842(2) 0.62990(12) 0.0329(4) Uani d 1
H H10 0.039659 0.720138 0.698459 0.039 Uiso calc 1
C C11 -0.0277(2) 0.77237(19) 0.54485(11) 0.0262(3) Uani d 1
C C12 -0.1866(2) 0.9174(2) 0.54633(12) 0.0287(3) Uani d 1
C C13 -0.2716(2) 0.9935(2) 0.45823(13) 0.0335(3) Uani d 1
H H13 -0.376955 1.090140 0.462933 0.040 Uiso calc 1
C C14 -0.2037(2) 0.9294(2) 0.36000(13) 0.0364(4) Uani d 1
H H14 -0.264213 0.981948 0.298918 0.044 Uiso calc 1
C C15 -0.0520(2) 0.7928(2) 0.35311(12) 0.0335(4) Uani d 1
H H15 -0.005289 0.751029 0.286601 0.040 Uiso calc 1
C C16 0.0378(2) 0.71153(19) 0.44377(11) 0.0269(3) Uani d 1
H H1 0.249(4) 0.510(4) 0.310(3) 0.097(9) Uiso d 1
loop_
_atom_site_aniso_label
_atom_site_aniso_U_11
_atom_site_aniso_U_22
_atom_site_aniso_U_33
_atom_site_aniso_U_12
_atom_site_aniso_U_13
_atom_site_aniso_U_23
Cl1 0.0591(3) 0.0735(4) 0.0357(3) -0.0300(3) -0.0154(2) -0.0106(2)
O1 0.0383(7) 0.0413(7) 0.0295(6) 0.0079(5) -0.0075(5) -0.0150(5)
O2 0.0500(8) 0.0468(8) 0.0289(6) 0.0086(6) -0.0146(5) -0.0075(5)
O3 0.0544(8) 0.0521(9) 0.0544(8) -0.0177(7) -0.0210(7) -0.0056(7)
O4 0.0337(7) 0.0574(10) 0.0559(8) 0.0116(6) -0.0050(6) -0.0061(7)
O5 0.0689(10) 0.0644(10) 0.0325(7) -0.0043(8) 0.0003(7) -0.0192(7)
O6 0.0579(9) 0.0479(9) 0.0567(9) 0.0053(7) -0.0009(7) -0.0234(7)
N1 0.0296(7) 0.0450(9) 0.0289(7) -0.0034(6) -0.0018(5) -0.0007(6)
N2 0.0294(6) 0.0313(7) 0.0293(6) -0.0064(5) -0.0030(5) -0.0079(5)
N3 0.0347(8) 0.0400(8) 0.0355(7) -0.0129(6) 0.0037(6) -0.0147(6)
C1 0.0310(8) 0.0252(7) 0.0227(7) -0.0023(6) -0.0029(6) -0.0038(6)
C2 0.0302(8) 0.0287(8) 0.0288(7) -0.0030(6) -0.0037(6) -0.0022(6)
C3 0.0409(9) 0.0378(9) 0.0310(8) -0.0029(7) 0.0048(7) -0.0111(7)
C4 0.0538(11) 0.0396(10) 0.0275(8) -0.0120(8) -0.0001(7) -0.0130(7)
C5 0.0455(10) 0.0364(9) 0.0252(7) -0.0145(7) -0.0090(7) -0.0040(7)
C6 0.0324(8) 0.0343(8) 0.0262(7) -0.0045(7) -0.0042(6) -0.0057(6)
C7 0.0285(7) 0.0313(8) 0.0244(7) -0.0035(6) -0.0052(6) -0.0067(6)
C8 0.0298(8) 0.0339(9) 0.0371(8) -0.0069(7) -0.0079(6) -0.0054(7)
C9 0.0365(9) 0.0405(9) 0.0321(8) -0.0107(7) -0.0129(7) -0.0016(7)
C10 0.0356(8) 0.0410(9) 0.0251(7) -0.0134(7) -0.0057(6) -0.0078(7)
C11 0.0276(7) 0.0294(8) 0.0242(7) -0.0121(6) -0.0023(5) -0.0051(6)
C12 0.0279(7) 0.0305(8) 0.0283(7) -0.0109(6) 0.0021(6) -0.0080(6)
C13 0.0286(8) 0.0301(8) 0.0387(9) -0.0072(6) -0.0023(6) -0.0033(7)
C14 0.0355(9) 0.0393(9) 0.0305(8) -0.0070(7) -0.0089(7) 0.0007(7)
C15 0.0368(9) 0.0382(9) 0.0237(7) -0.0081(7) -0.0054(6) -0.0052(6)
C16 0.0268(7) 0.0298(8) 0.0245(7) -0.0093(6) -0.0027(6) -0.0045(6)
loop_
_atom_type_symbol
_atom_type_description
_atom_type_scat_dispersion_real
_atom_type_scat_dispersion_imag
_atom_type_scat_source
C C 0.0033 0.0016 'International Tables Vol C Tables 4.2.6.8 and 6.1.1.4'
H H 0.0000 0.0000 'International Tables Vol C Tables 4.2.6.8 and 6.1.1.4'
O O 0.0106 0.0060 'International Tables Vol C Tables 4.2.6.8 and 6.1.1.4'
N N 0.0061 0.0033 'International Tables Vol C Tables 4.2.6.8 and 6.1.1.4'
Cl Cl 0.1484 0.1585 'International Tables Vol C Tables 4.2.6.8 and 6.1.1.4'
loop_
_geom_angle_atom_site_label_1
_geom_angle_atom_site_label_2
_geom_angle_atom_site_label_3
_geom_angle
C7 O1 H1 107.9(18)
O4 N1 O3 124.32(16)
O4 N1 C2 118.09(15)
O3 N1 C2 117.58(14)
C8 N2 C16 119.04(13)
O6 N3 O5 122.72(14)
O6 N3 C12 117.87(15)
O5 N3 C12 119.41(15)
C2 C1 C6 118.14(13)
C2 C1 C7 122.53(13)
C6 C1 C7 118.97(13)
C1 C2 C3 122.79(15)
C1 C2 N1 120.19(13)
C3 C2 N1 116.94(14)
C4 C3 C2 118.91(16)
C4 C3 H3 120.5
C2 C3 H3 120.5
C5 C4 C3 118.91(14)
C5 C4 H4 120.5
C3 C4 H4 120.5
C4 C5 C6 122.30(15)
C4 C5 Cl1 119.31(12)
C6 C5 Cl1 118.40(13)
C1 C6 C5 118.93(15)
C1 C6 H6 120.5
C5 C6 H6 120.5
O2 C7 O1 124.62(13)
O2 C7 C1 121.98(14)
O1 C7 C1 113.35(13)
N2 C8 C9 122.56(15)
N2 C8 H8 118.7
C9 C8 H8 118.7
C10 C9 C8 119.96(15)
C10 C9 H9 120.0
C8 C9 H9 120.0
C9 C10 C11 119.64(14)
C9 C10 H10 120.2
C11 C10 H10 120.2
C10 C11 C12 128.17(13)
C10 C11 C16 116.46(14)
C12 C11 C16 115.35(14)
C13 C12 C11 122.78(13)
C13 C12 N3 115.36(14)
C11 C12 N3 121.86(14)
C12 C13 C14 120.30(15)
C12 C13 H13 119.9
C14 C13 H13 119.9
C15 C14 C13 119.77(15)
C15 C14 H14 120.1
C13 C14 H14 120.1
C14 C15 C16 120.81(14)
C14 C15 H15 119.6
C16 C15 H15 119.6
N2 C16 C15 116.71(13)
N2 C16 C11 122.30(14)
C15 C16 C11 120.99(14)
loop_
_geom_bond_atom_site_label_1
_geom_bond_atom_site_label_2
_geom_bond_distance
Cl1 C5 1.7351(17)
O1 C7 1.3022(18)
O1 H1 1.00(3)
O2 C7 1.2098(19)
O3 N1 1.2207(19)
O4 N1 1.2158(19)
O5 N3 1.217(2)
O6 N3 1.216(2)
N1 C2 1.470(2)
N2 C8 1.312(2)
N2 C16 1.365(2)
N3 C12 1.4829(19)
C1 C2 1.385(2)
C1 C6 1.391(2)
C1 C7 1.5085(19)
C2 C3 1.385(2)
C3 C4 1.384(3)
C3 H3 0.9500
C4 C5 1.378(2)
C4 H4 0.9500
C5 C6 1.395(2)
C6 H6 0.9500
C8 C9 1.409(2)
C8 H8 0.9500
C9 C10 1.362(2)
C9 H9 0.9500
C10 C11 1.419(2)
C10 H10 0.9500
C11 C12 1.426(2)
C11 C16 1.431(2)
C12 C13 1.362(2)
C13 C14 1.411(2)
C13 H13 0.9500
C14 C15 1.355(2)
C14 H14 0.9500
C15 C16 1.415(2)
C15 H15 0.9500
loop_
_geom_hbond_atom_site_label_D
_geom_hbond_atom_site_label_H
_geom_hbond_atom_site_label_A
_geom_hbond_site_symmetry_A
_geom_hbond_distance_DH
_geom_hbond_distance_HA
_geom_hbond_distance_DA
_geom_hbond_angle_DHA
_geom_hbond_publ_flag
O1 H1 N2 . 0.99(4) 1.66(4) 2.6405(17) 169(3) y
C3 H3 O4 2_755 0.95 2.49 3.408(3) 162 y
C10 H10 O3 2_666 0.95 2.54 3.254(2) 132 y
C13 H13 O2 1_465 0.95 2.59 3.190(2) 121 y
C14 H14 O2 1_465 0.95 2.56 3.173(2) 122 y
loop_
_geom_torsion_atom_site_label_1
_geom_torsion_atom_site_label_2
_geom_torsion_atom_site_label_3
_geom_torsion_atom_site_label_4
_geom_torsion
C6 C1 C2 C3 -1.3(3)
C7 C1 C2 C3 171.77(16)
C6 C1 C2 N1 175.37(14)
C7 C1 C2 N1 -11.5(2)
O4 N1 C2 C1 135.40(16)
O3 N1 C2 C1 -45.7(2)
O4 N1 C2 C3 -47.7(2)
O3 N1 C2 C3 131.17(17)
C1 C2 C3 C4 1.4(3)
N1 C2 C3 C4 -175.35(16)
C2 C3 C4 C5 -0.6(3)
C3 C4 C5 C6 -0.3(3)
C3 C4 C5 Cl1 179.69(14)
C2 C1 C6 C5 0.4(2)
C7 C1 C6 C5 -172.98(15)
C4 C5 C6 C1 0.4(3)
Cl1 C5 C6 C1 -179.59(12)
C2 C1 C7 O2 -37.4(2)
C6 C1 C7 O2 135.67(18)
C2 C1 C7 O1 145.23(15)
C6 C1 C7 O1 -41.7(2)
C16 N2 C8 C9 -0.5(2)
N2 C8 C9 C10 1.5(3)
C8 C9 C10 C11 -0.6(2)
C9 C10 C11 C12 -179.44(15)
C9 C10 C11 C16 -1.2(2)
C10 C11 C12 C13 178.45(16)
C16 C11 C12 C13 0.2(2)
C10 C11 C12 N3 -1.3(2)
C16 C11 C12 N3 -179.55(13)
O6 N3 C12 C13 -11.0(2)
O5 N3 C12 C13 169.25(16)
O6 N3 C12 C11 168.68(15)
O5 N3 C12 C11 -11.0(2)
C11 C12 C13 C14 0.2(2)
N3 C12 C13 C14 179.91(14)
C12 C13 C14 C15 -0.8(3)
C13 C14 C15 C16 1.1(3)
C8 N2 C16 C15 179.18(15)
C8 N2 C16 C11 -1.4(2)
C14 C15 C16 N2 178.69(15)
C14 C15 C16 C11 -0.7(2)
C10 C11 C16 N2 2.2(2)
C12 C11 C16 N2 -179.29(13)
C10 C11 C16 C15 -178.39(14)
C12 C11 C16 C15 0.1(2)

_cod_database_fobs_code 2243148
