#------------------------------------------------------------------------------
#$Date: 2020-07-22 08:19:20 +0300 (Wed, 22 Jul 2020) $
#$Revision: 254475 $
#$URL: file:///home/coder/svn-repositories/cod/cif/2/24/35/2243506.cif $
#------------------------------------------------------------------------------
#
# This file is available in the Crystallography Open Database (COD),
# http://www.crystallography.net/. The original data for this entry
# were provided by IUCr Journals, http://journals.iucr.org/.
#
# The file may be used within the scientific community so long as
# proper attribution is given to the journal article from which the
# data were obtained.
#
data_2243506
loop_
_publ_author_name
'Wheaton, Amelia M.'
'Guzei, Ilia A.'
'Berry, John F.'
_publ_section_title
;
 Structural diversity in copper(I) iodide complexes with
 6-thioxopiperidin-2-one, piperidine-2,6-dithione and
 isoindoline-1,3-dithione ligands
;
_journal_issue                   8
_journal_name_full               'Acta Crystallographica Section E'
_journal_page_first              1336
_journal_page_last               1344
_journal_paper_doi               10.1107/S2056989020009676
_journal_volume                  76
_journal_year                    2020
_chemical_absolute_configuration ad
_chemical_formula_iupac          '[Cu I (C8 H5 N S2)]'
_chemical_formula_moiety         'C8 H5 Cu I N S2'
_chemical_formula_sum            'C8 H5 Cu I N S2'
_chemical_formula_weight         369.69
_chemical_name_systematic
Poly[(\m-isoindoline-1,3-dithione-\k^2^<i>S</i>:<i>S</i>)copper(I)]-\m~3~-iodido]
_space_group_crystal_system      monoclinic
_space_group_IT_number           9
_space_group_name_Hall           'C -2yc'
_space_group_name_H-M_alt        'C 1 c 1'
_atom_sites_solution_hydrogens   geom
_atom_sites_solution_primary     dual
_audit_creation_method
;
OLEX2
(compiled 2020.05.22 svn.r1d9e7f8d for OlexSys, GUI svn.r6115)
;
_cell_angle_alpha                90
_cell_angle_beta                 92.98(2)
_cell_angle_gamma                90
_cell_formula_units_Z            4
_cell_length_a                   15.174(5)
_cell_length_b                   4.1188(16)
_cell_length_c                   15.785(6)
_cell_measurement_reflns_used    4507
_cell_measurement_temperature    100.0
_cell_measurement_theta_max      31.885
_cell_measurement_theta_min      2.584
_cell_volume                     985.2(6)
_computing_cell_refinement
;
APEX3  (Bruker, 2017)
;
_computing_data_collection
;
APEX3  (Bruker, 2017)
;
_computing_data_reduction
;
APEX3  (Bruker, 2017)
;
_computing_molecular_graphics
;
<i>OLEX2</i> (Dolomanov <i>et al.</i>,  2009)
;
_computing_publication_material
;
<i>OLEX2</i> (Dolomanov <i>et al.</i>,  2009)
;
_computing_structure_refinement
;
SHELXL (Sheldrick, 2015b)
;
_computing_structure_solution
;
SHELXT (Sheldrick, 2015a)
;
_diffrn_ambient_temperature      100.0
_diffrn_detector                 'charge-coupled device (CCD) area detector'
_diffrn_detector_area_resol_mean 7.9
_diffrn_measured_fraction_theta_full 1.000
_diffrn_measured_fraction_theta_max 0.968
_diffrn_measurement_device       'three-circle diffractometer'
_diffrn_measurement_device_type  'Bruker APEXII Quazar'
_diffrn_measurement_method       '0.5\% \w and 0.5\% \f scans'
_diffrn_radiation_monochromator  'mirror optics'
_diffrn_radiation_probe          x-ray
_diffrn_radiation_type           'Mo K\a'
_diffrn_radiation_wavelength     0.71073
_diffrn_reflns_av_R_equivalents  0.0412
_diffrn_reflns_av_unetI/netI     0.0457
_diffrn_reflns_limit_h_max       22
_diffrn_reflns_limit_h_min       -22
_diffrn_reflns_limit_k_max       6
_diffrn_reflns_limit_k_min       -6
_diffrn_reflns_limit_l_max       23
_diffrn_reflns_limit_l_min       -23
_diffrn_reflns_number            11871
_diffrn_reflns_theta_full        25.000
_diffrn_reflns_theta_max         33.190
_diffrn_reflns_theta_min         2.584
_diffrn_source                   'microfocus sealed X-ray tube'
_diffrn_source_current           0.6
_diffrn_source_power             0.03
_diffrn_source_voltage           50.0
_exptl_absorpt_coefficient_mu    5.720
_exptl_absorpt_correction_T_max  0.4036
_exptl_absorpt_correction_T_min  0.3220
_exptl_absorpt_correction_type   multi-scan
_exptl_absorpt_process_details
;
(SADABS; Bruker, 2016)
;
_exptl_crystal_colour            black
_exptl_crystal_density_diffrn    2.492
_exptl_crystal_density_method    'not measured'
_exptl_crystal_description       block
_exptl_crystal_F_000             696
_exptl_crystal_size_max          0.297
_exptl_crystal_size_mid          0.016
_exptl_crystal_size_min          0.01
_refine_diff_density_max         3.174
_refine_diff_density_min         -1.131
_refine_ls_abs_structure_details
;
Flack <i>x</i> determined using 1438 quotients
[(<i>I</i>^+^)-(<i>I</i>^-^)]/[(<i>I</i>^+^)+(<i>I</i>^-^)]
(Parsons <i>et al.</i>,  2013)
;
_refine_ls_abs_structure_Flack   0.034(12)
_refine_ls_extinction_method     none
_refine_ls_goodness_of_fit_ref   1.056
_refine_ls_hydrogen_treatment    constr
_refine_ls_matrix_type           full
_refine_ls_number_parameters     118
_refine_ls_number_reflns         3603
_refine_ls_number_restraints     2
_refine_ls_restrained_S_all      1.056
_refine_ls_R_factor_all          0.0429
_refine_ls_R_factor_gt           0.0360
_refine_ls_shift/su_max          0.000
_refine_ls_shift/su_mean         0.000
_refine_ls_structure_factor_coef Fsqd
_refine_ls_weighting_details
'w=1/[\s^2^(Fo^2^)+(0.0417P)^2^+7.0163P] where P=(Fo^2^+2Fc^2^)/3'
_refine_ls_weighting_scheme      calc
_refine_ls_wR_factor_gt          0.0866
_refine_ls_wR_factor_ref         0.0890
_reflns_number_gt                3226
_reflns_number_total             3603
_reflns_threshold_expression     'I > 2\s(I)'
_cod_data_source_file            zl2791sup1.cif
_cod_data_source_block           V
_cod_database_code               2243506
_shelx_space_group_comment
;
The symmetry employed for this shelxl refinement is uniquely defined
by the following loop, which should always be used as a source of
symmetry information in preference to the above space-group names.
They are only intended as comments.
;
_shelx_estimated_absorpt_t_min   0.281
_shelx_estimated_absorpt_t_max   0.945
_shelx_hkl_file
;
   2   0   0  385.41   11.77
   2   0   0  390.13   11.71
  -2   0   0  422.52   12.98
  -2   0   0  443.39   13.11
  -2   0   0  456.22   13.23
   2   0   0  403.29   11.65
  -4   0   0  190.54    6.04
  -4   0   0  191.76    6.28
   4   0   0  189.48    6.19
  -4   0   0  188.13    5.77
   4   0   0  193.43    5.93
  -6   0   0   11.64    1.33
   6   0   0    7.71    0.80
   6   0   0    4.01    0.94
  -6   0   0   11.89    0.73
  -6   0   0   10.37    1.13
   8   0   0  564.18   17.34
  -8   0   0  573.99   17.51
  -8   0   0  557.41   16.88
  -8   0   0  560.56   17.86
   8   0   0  544.42   17.61
   8   0   0  577.14   17.06
   8   0   0  559.50   16.82
 -10   0   0  310.65   10.71
  10   0   0  305.55   10.48
  10   0   0  306.58   10.06
 -10   0   0  310.81   10.17
 -10   0   0  299.63   10.28
  10   0   0  294.42    9.37
  10   0   0  310.74    9.70
  12   0   0  297.26   10.73
 -12   0   0  282.65   10.08
  12   0   0  305.05   10.18
 -12   0   0  289.35    9.85
  12   0   0  301.51    9.75
 -12   0   0  290.24   10.52
 -14   0   0  192.95    7.89
 -14   0   0  209.43    8.43
  14   0   0  210.51    8.48
 -14   0   0  197.59    7.45
  14   0   0  207.09    7.19
 -16   0   0    8.74    2.33
  16   0   0    4.43    2.13
 -18   0   0   67.31    5.16
  18   0   0   62.77    5.22
  20   0   0   48.05    5.41
 -20   0   0   50.66    5.43
  22   0   0   67.35    6.67
 -22   0   0   73.83    6.92
   1  -1   0   40.13    1.68
   1   1   0   41.91    1.57
   1   1   0   39.38    1.67
  -1   1   0   32.99    1.47
  -1   1   0   33.95    1.53
   1   1   0   40.93    1.72
  -1   1   0   33.88    1.62
   1   1   0   43.98    1.87
   3  -1   0  833.29   25.72
   3  -1   0  860.77   25.53
   3  -1   0  922.01   26.06
  -3  -1   0  858.37   25.44
  -3  -1   0  824.67   25.24
  -3  -1   0  838.26   25.40
  -3   1   0  881.08   25.49
  -3   1   0  864.88   25.66
   3   1   0  836.57   25.71
   3   1   0  848.94   25.90
   5  -1   0  497.35   15.14
  -5  -1   0  492.24   15.14
  -5  -1   0  481.21   14.94
   5  -1   0  485.44   14.92
   5   1   0  491.19   15.05
  -5   1   0  497.00   14.95
  -5   1   0  488.61   15.22
   5   1   0  483.76   15.29
   7  -1   0  241.84    7.87
   7  -1   0  242.48    8.10
  -7  -1   0  246.76    8.07
  -7  -1   0  243.03    8.38
   7   1   0  243.20    7.92
  -7   1   0  258.06    8.47
   7   1   0  227.97    8.22
  -7   1   0  236.39    8.37
  -7   1   0  247.59    7.95
   9  -1   0   95.50    4.18
  -9  -1   0   93.30    3.97
  -9  -1   0  103.13    4.47
   9   1   0   99.14    4.47
  -9   1   0   97.65    3.70
   9   1   0   96.51    3.94
  -9   1   0   97.55    4.39
  -9   1   0  103.83    4.45
 -11  -1   0   37.43    2.51
  11  -1   0   35.92    2.79
  11  -1   0   38.84    2.33
 -11  -1   0   36.36    2.96
  11  -1   0   34.91    1.96
 -11   1   0   38.91    2.98
 -11   1   0   33.72    1.94
  11   1   0   35.27    2.34
  11   1   0   34.73    2.95
  13  -1   0   23.51    2.17
  13  -1   0   28.27    1.82
  13  -1   0   29.06    3.07
 -13  -1   0   29.29    3.08
 -13  -1   0   21.87    2.33
 -13  -1   0   30.44    2.95
 -13   1   0   25.51    2.93
  13   1   0   25.50    2.29
  13   1   0   33.47    3.46
 -13   1   0   24.80    1.71
 -15  -1   0  120.44    6.12
  15  -1   0  140.56    6.61
 -15  -1   0  123.96    6.09
 -15  -1   0  141.44    6.78
 -15   1   0  138.93    6.55
  15   1   0  131.07    5.65
  15   1   0  139.47    6.95
  17  -1   0   84.02    5.61
 -17  -1   0   86.32    5.17
 -17  -1   0   87.82    5.42
 -17  -1   0   97.00    6.06
  17   1   0   87.90    4.48
 -17   1   0   86.70    5.70
  17   1   0   97.77    6.14
  19  -1   0   28.54    4.09
 -19  -1   0   36.86    4.44
 -19   1   0   37.15    4.66
  19   1   0   26.51    4.18
  21  -1   0    5.84    3.32
 -21  -1   0   11.84    3.89
 -21   1   0    5.38    3.44
  21   1   0    2.72    3.56
   0   2   0    8.86    1.13
   0   2   0    8.10    0.93
   0   2   0    7.81    1.14
   0   2   0    7.60    0.91
  -2  -2   0   76.10    3.10
   2  -2   0   79.97    3.24
   2   2   0   78.02    2.96
   2   2   0   77.24    3.18
  -2   2   0   80.34    3.15
   2   2   0   83.51    3.48
  -2   2   0   80.11    3.22
   2   2   0   80.30    3.24
  -2   2   0   76.60    3.29
   4  -2   0   66.26    2.76
   4  -2   0   69.30    3.00
  -4  -2   0   70.58    2.87
   4  -2   0   68.64    2.55
  -4   2   0   65.24    3.14
   4   2   0   66.44    2.97
   4   2   0   65.51    2.91
   4   2   0   63.34    3.20
  -4   2   0   68.58    2.91
   4   2   0   63.16    2.44
   6  -2   0  110.55    4.39
  -6  -2   0  102.83    4.08
   6  -2   0  111.05    4.44
   6  -2   0  107.06    3.99
  -6  -2   0  105.07    4.09
  -6  -2   0  102.91    3.74
   6   2   0  109.51    4.75
  -6   2   0  112.80    4.19
   6   2   0  106.19    4.34
  -6   2   0  108.50    4.55
   8  -2   0   13.52    1.45
   8  -2   0   10.66    1.62
  -8  -2   0   21.77    1.79
  -8  -2   0   14.42    1.76
   8   2   0   14.29    2.01
   8   2   0   11.83    1.56
  -8   2   0   13.51    1.49
  -8   2   0   16.10    2.08
 -10  -2   0    5.81    1.61
  10  -2   0    9.44    1.71
 -10   2   0    7.41    1.74
  10   2   0   13.88    1.81
 -10   2   0    6.19    1.18
 -12  -2   0   25.98    2.98
  12  -2   0   26.44    2.18
 -12  -2   0   30.21    2.70
  12  -2   0   25.08    2.82
 -12  -2   0   26.79    3.30
  12  -2   0   25.37    2.25
 -12   2   0   26.79    2.19
  12   2   0   30.54    3.41
  12   2   0   33.46    2.67
 -12   2   0   28.98    3.28
  14  -2   0    0.39    1.70
  14  -2   0    2.53    1.09
  14  -2   0    4.14    1.33
 -14  -2   0    3.39    1.75
 -14  -2   0    1.90    1.99
 -14  -2   0    0.81    1.88
  14   2   0    4.52    2.34
  14   2   0    3.73    1.63
 -14   2   0    2.70    1.07
 -14   2   0    2.32    1.81
 -16  -2   0    2.49    2.54
  16  -2   0    1.77    1.11
 -16  -2   0    0.44    2.06
  16  -2   0    2.20    2.08
 -16  -2   0    2.02    2.06
  16  -2   0    0.47    1.21
 -16   2   0    1.12    1.08
  16   2   0    3.08    1.82
 -16   2   0   -1.37    1.98
  16   2   0   -0.44    2.33
 -18  -2   0    7.31    2.90
 -18  -2   0    5.05    2.62
  18  -2   0    3.84    2.71
 -18  -2   0    3.40    3.01
  18   2   0    4.03    2.14
  18   2   0    8.67    3.56
 -18   2   0   -1.29    2.37
  20  -2   0   29.55    4.51
 -20  -2   0   26.26    4.57
 -20  -2   0   26.60    4.15
 -20  -2   0   20.82    4.44
  20   2   0   27.33    5.02
  20   2   0   26.71    3.67
 -20   2   0   28.48    4.48
   1  -3   0   18.30    1.82
  -1   3   0   13.92    1.70
  -1   3   0   14.68    1.41
   1   3   0   13.84    1.65
  -1   3   0   12.70    1.43
   1   3   0   16.37    1.62
   1   3   0   14.92    1.50
  -1   3   0   16.23    1.80
   1   3   0   17.54    1.92
  -3  -3   0   37.16    2.29
   3  -3   0   37.42    2.45
  -3   3   0   39.07    2.65
   3   3   0   38.49    2.45
   3   3   0   37.35    2.75
  -3   3   0   37.43    2.37
   3   3   0   40.78    2.52
   3   3   0   39.81    2.10
  -5  -3   0   58.87    2.59
   5  -3   0   61.23    2.56
  -5  -3   0   58.88    2.99
   5  -3   0   58.23    3.27
   5   3   0   64.05    3.21
   5   3   0   62.50    3.69
  -5   3   0   53.80    3.01
  -5   3   0   57.67    3.37
   5   3   0   57.67    2.55
   5   3   0   58.25    3.26
  -7  -3   0  160.21    6.10
   7  -3   0  168.04    6.61
   7   3   0  167.35    6.60
  -7   3   0  164.92    6.20
  -7   3   0  153.77    6.58
   7   3   0  161.63    6.90
  -9  -3   0   34.01    2.64
   9  -3   0   28.74    2.69
  -9  -3   0   30.41    2.81
   9   3   0   27.21    2.71
  -9   3   0   31.47    3.09
   9   3   0   29.79    3.22
  -9   3   0   35.95    2.58
 -11  -3   0   12.72    2.30
  11  -3   0   12.34    2.17
 -11  -3   0    9.13    1.86
  11  -3   0    9.76    1.73
 -11  -3   0    8.72    2.66
  11  -3   0    9.82    1.54
  11   3   0    8.15    2.48
  11   3   0    9.47    2.01
 -11   3   0   11.46    2.34
 -11   3   0   11.36    1.78
 -13  -3   0    8.61    2.88
  13  -3   0    8.05    1.69
  13  -3   0    5.20    1.42
 -13  -3   0    9.70    2.16
 -13  -3   0    3.08    2.07
  13  -3   0    7.03    2.24
 -13   3   0    5.99    2.29
  13   3   0    4.93    2.59
  13   3   0    8.07    2.33
 -13   3   0    5.65    1.60
  15  -3   0   32.32    3.12
 -15  -3   0   35.34    4.18
  15  -3   0   41.28    4.29
 -15  -3   0   34.90    3.75
  15  -3   0   38.87    3.15
 -15  -3   0   32.68    4.52
 -15   3   0   35.60    3.06
 -15   3   0   38.57    4.40
  15   3   0   42.90    4.15
  15   3   0   43.52    5.24
 -17  -3   0    4.56    3.10
 -17  -3   0    9.04    3.50
 -17  -3   0    9.11    3.07
  17  -3   0    7.55    1.85
  17  -3   0    7.74    2.14
  17  -3   0    8.88    3.09
 -17   3   0   12.34    3.41
  17   3   0    7.48    2.84
 -17   3   0    6.56    1.86
  17   3   0   13.13    4.22
 -19  -3   0   21.71    4.75
 -19  -3   0   23.16    4.31
  19  -3   0   27.61    4.45
 -19  -3   0   22.97    4.63
  19   3   0   23.90    5.44
 -19   3   0   23.95    4.58
  19   3   0   21.06    3.84
   0  -4   0  112.43    5.16
   0  -4   0  115.08    5.58
   0   4   0  113.89    5.23
   0   4   0  111.86    5.16
   0   4   0  118.03    4.84
   0   4   0  115.59    4.87
  -2  -4   0  189.39    7.24
  -2  -4   0  171.43    6.69
  -2  -4   0  178.92    7.01
   2  -4   0  190.68    7.37
  -2  -4   0  183.41    7.83
   2   4   0  182.01    7.24
   2   4   0  178.61    6.78
   2   4   0  188.22    7.15
  -2   4   0  189.06    7.11
  -2   4   0  179.35    7.33
   2   4   0  188.05    7.47
  -2   4   0  181.68    6.95
  -4  -4   0   49.91    3.07
  -4  -4   0   48.61    2.70
   4  -4   0   44.47    3.22
  -4  -4   0   45.11    4.00
   4   4   0   44.50    2.53
   4   4   0   42.39    3.12
   4   4   0   44.91    3.19
   4   4   0   42.55    3.51
  -4   4   0   45.91    3.46
  -4   4   0   47.47    3.11
  -6  -4   0   21.92    3.39
  -6  -4   0   18.86    2.18
   6  -4   0   16.74    1.53
   6  -4   0   19.42    2.49
  -6   4   0   15.10    2.07
   6   4   0   14.18    2.42
   6   4   0   18.70    2.44
  -6   4   0   17.72    2.50
  -8  -4   0   55.17    5.16
   8  -4   0   50.50    3.76
   8  -4   0   50.14    2.76
  -8  -4   0   48.00    3.36
   8  -4   0   46.47    3.32
  -8   4   0   45.87    3.33
  -8   4   0   54.55    4.00
   8   4   0   39.63    3.90
   8   4   0   49.13    3.78
 -10  -4   0  135.20    8.28
  10  -4   0  160.75    6.72
  10  -4   0  155.62    6.08
 -10  -4   0  142.18    6.52
  10  -4   0  162.32    7.16
 -10   4   0  149.11    7.20
 -10   4   0  152.67    6.50
  10   4   0  145.80    7.52
  10   4   0  149.35    7.31
 -12  -4   0   77.46    5.02
  12  -4   0   83.69    4.68
  12  -4   0   90.90    5.36
 -12  -4   0   89.15    6.94
  12  -4   0   77.74    4.18
 -12  -4   0   82.82    5.08
 -12   4   0   83.00    4.69
  12   4   0   73.15    5.34
 -12   4   0   84.19    5.73
 -14  -4   0   18.06    4.35
 -14  -4   0   19.00    3.16
  14  -4   0   17.17    3.32
 -14  -4   0   19.42    3.37
  14  -4   0   16.15    2.40
  14  -4   0   17.38    2.40
  14   4   0   13.21    3.79
  14   4   0   18.20    3.39
 -14   4   0   19.55    3.42
 -14   4   0   20.77    2.83
 -16  -4   0   27.55    4.20
 -16  -4   0   24.99    3.91
 -16  -4   0   25.51    5.23
  16  -4   0   31.26    4.40
  16  -4   0   26.98    3.15
  16  -4   0   27.69    3.27
 -16   4   0   26.19    4.32
 -16   4   0   28.01    3.21
  16   4   0   34.66    4.61
 -18  -4   0    4.06    3.62
  18  -4   0    8.32    2.50
 -18   4   0    7.02    2.78
  -1  -5   0   36.91    3.05
  -1  -5   0   36.61    3.30
   1  -5   0   33.69    3.28
   1  -5   0   28.83    2.89
   1   5   0   28.35    3.17
  -1   5   0   38.12    3.56
   1   5   0   34.25    2.87
  -1   5   0   32.64    2.98
   3  -5   0   44.08    3.42
  -3  -5   0   44.00    4.55
  -3  -5   0   40.93    3.42
   3  -5   0   43.70    4.44
   3   5   0   45.50    3.55
  -3   5   0   41.01    3.78
   3   5   0   36.81    3.56
  -3   5   0   42.04    3.32
   5  -5   0  117.94    5.78
   5  -5   0  129.99    6.34
  -5  -5   0  121.84    7.47
  -5  -5   0  122.57    5.97
   5   5   0  112.90    5.99
  -5   5   0  125.49    5.99
   5   5   0  107.98    6.06
  -5   5   0  126.63    6.48
   7  -5   0   43.02    3.69
  -7  -5   0   42.99    3.64
  -7  -5   0   40.92    5.21
   7  -5   0   42.47    4.22
  -7   5   0   41.78    3.58
  -7   5   0   44.16    4.27
   7   5   0   54.27    4.86
  -9  -5   0   26.09    3.52
   9  -5   0   43.34    4.25
  -9  -5   0   32.34    5.17
   9  -5   0   37.83    3.61
   9  -5   0   36.76    2.81
  -9   5   0   35.26    3.61
   9   5   0   34.44    4.10
  -9   5   0   29.54    3.77
  11  -5   0    5.39    2.69
 -11  -5   0    4.83    4.02
  11  -5   0    2.24    1.53
  11  -5   0    1.42    1.71
  11   5   0    0.73    2.54
 -11   5   0    2.25    2.66
 -11   5   0    3.12    2.17
  13  -5   0   71.67    5.13
  13  -5   0   62.11    4.63
 -13  -5   0   67.51    8.84
  13  -5   0   75.79    6.08
 -13   5   0   65.08    5.06
 -13   5   0   67.15    8.52
  13   5   0   66.79    6.43
   2  -6   0   13.29    2.71
  -2   6   0   16.29    2.79
   4  -6   0    8.44    2.53
  -4   6   0    7.16    2.52
   6   6   0    4.44    3.77
  -6   6   0    4.76    2.86
 -22   0   1    5.71    3.55
  22   0  -1    5.17    3.51
  20   0  -1    3.36    2.89
 -20   0   1    1.65    2.75
 -18   0   1    4.35    2.42
  18   0  -1    1.13    2.31
  16   0  -1   -1.20    1.66
 -16   0   1   -1.11    1.64
  14   0  -1    7.37    2.03
 -14   0   1    1.10    1.46
 -14   0   1    1.49    1.20
  12   0  -1    3.24    0.95
  12   0  -1    2.88    0.87
 -12   0   1    0.35    1.16
 -10   0   1   -0.06    0.90
  10   0  -1    1.07    0.69
   8   0  -1    0.79    0.62
  -8   0   1    0.73    0.38
   8   0  -1    0.79    0.61
  -8   0   1    1.31    0.92
   6   0  -1    0.36    0.47
   6   0  -1    0.06    0.45
   6   0  -1   -0.80    0.66
  -6   0   1    0.19    0.34
  -6   0   1    0.96    0.77
  -6   0   1    0.28    0.67
   4   0  -1    0.80    0.63
  -4   0   1   -1.06    0.60
   4   0  -1    0.04    0.41
  -4   0   1    0.43    0.56
  -4   0   1   -0.08    0.30
   4   0  -1   -0.54    0.38
   2   0  -1    0.51    0.36
   2   0  -1   -0.21    0.25
  -2   0   1    0.17    0.19
  -2   0   1   -0.12    0.33
   2   0  -1   -0.11    0.28
  -2   0   1   -0.17    0.38
   0   0   1   -0.02    0.09
   0   0  -1    0.14    0.15
   2   0   1    0.03    0.26
  -2   0  -1    0.01    0.26
   2   0   1    0.02    0.26
  -2   0  -1    0.13    0.40
   2   0   1   -0.06    0.31
  -2   0  -1    0.00    0.41
   2   0   1   -0.30    0.20
   4   0   1    0.07    0.57
  -4   0  -1   -0.15    0.44
  -4   0  -1   -0.83    0.57
   4   0   1    0.00    0.28
  -4   0  -1    0.21    0.28
   4   0   1   -0.06    0.38
   4   0   1   -0.35    0.37
  -4   0  -1   -0.31    0.65
   6   0   1    0.06    0.40
  -6   0  -1   -0.02    0.56
  -6   0  -1    0.00    0.28
   6   0   1    0.03    0.29
   6   0   1    0.51    0.47
  -6   0  -1    0.20    0.76
  -6   0  -1    0.76    0.67
   6   0   1   -0.45    0.68
  -8   0  -1    0.53    0.73
  -8   0  -1    0.21    0.34
  -8   0  -1    0.46    0.75
  -8   0  -1    0.36    0.91
   8   0   1    0.15    0.33
   8   0   1    1.58    0.94
   8   0   1    0.73    0.53
   8   0   1    0.20    0.50
 -10   0  -1   -0.61    0.75
 -10   0  -1   -0.66    0.92
  10   0   1    1.28    0.61
  10   0   1    0.18    0.56
  12   0   1    0.66    0.68
  12   0   1    1.19    1.34
 -12   0  -1   -1.10    1.01
 -12   0  -1    0.50    0.91
 -12   0  -1   -0.95    1.22
  12   0   1    1.25    0.76
  14   0   1    0.41    0.80
 -14   0  -1   -0.54    0.97
 -14   0  -1    0.37    1.47
 -14   0  -1    0.50    1.42
  14   0   1    0.28    1.48
 -16   0  -1    0.60    1.67
  16   0   1    1.07    1.81
 -18   0  -1    0.56    2.17
  18   0   1    0.94    2.23
  20   0   1    2.77    2.69
 -20   0  -1    1.62    2.71
 -22   0  -1    2.19    3.44
  22   0   1    1.34    3.19
 -21  -1   1   19.29    4.26
  21  -1  -1   18.11    3.92
  21   1  -1   15.70    4.44
 -21   1   1   21.19    4.32
 -19  -1   1   26.72    4.03
  19  -1  -1   27.92    3.98
 -19   1   1   28.99    4.19
  19   1  -1   28.94    4.56
 -17  -1   1   27.64    3.70
  17  -1  -1   39.00    4.10
 -17  -1   1   26.95    3.39
 -17  -1   1   37.17    3.93
  17   1  -1   34.68    4.28
 -17   1   1   32.94    3.81
  17   1  -1   25.68    2.65
 -15  -1   1   67.31    4.75
 -15  -1   1   79.50    4.57
  15  -1  -1   71.45    4.67
 -15  -1   1   68.62    4.43
 -15   1   1   75.66    4.82
  15   1  -1   73.70    5.04
  15   1  -1   63.67    3.71
  13  -1  -1    4.02    1.72
  13  -1  -1    2.63    0.83
  13  -1  -1    1.75    0.92
 -13  -1   1    5.08    1.60
 -13  -1   1    5.42    1.76
 -13   1   1    5.38    1.83
 -13   1   1    4.20    1.01
  13   1  -1    1.92    1.71
  13   1  -1    1.90    1.23
 -11  -1   1   52.07    2.96
 -11  -1   1   49.92    3.34
  11  -1  -1   50.43    3.21
 -11   1   1   50.43    3.35
  11   1  -1   44.01    2.67
  11   1  -1   50.01    3.42
 -11   1   1   50.36    2.42
   9  -1  -1   69.05    3.11
  -9  -1   1   65.51    2.99
   9  -1  -1   66.44    3.36
  -9  -1   1   58.53    3.33
  -9   1   1   66.85    2.74
   9   1  -1   69.60    3.16
  -9   1   1   61.20    3.33
   9   1  -1   74.36    3.74
  -9   1   1   68.77    3.48
   7  -1  -1  297.40    9.80
   7  -1  -1  295.27    9.59
  -7  -1   1  293.81    9.54
  -7  -1   1  308.39   10.00
  -7   1   1  298.20    9.49
   7   1  -1  300.76    9.65
  -7   1   1  298.58    9.94
  -7   1   1  295.72    9.98
   7   1  -1  301.42   10.10
  -5  -1   1  251.06    8.13
   5  -1  -1  270.94    8.64
  -5  -1   1  265.65    8.43
   5  -1  -1  280.24    8.51
   5   1  -1  262.18    8.57
  -5   1   1  267.35    8.22
  -5   1   1  249.54    8.49
   5   1  -1  261.34    8.90
  -3  -1   1   19.50    1.06
  -3  -1   1   17.24    0.95
  -3  -1   1   18.04    1.15
   3  -1  -1   13.95    1.06
   3  -1  -1   14.68    0.95
   3   1  -1   14.40    1.40
  -3   1   1   17.73    1.36
   3   1  -1   13.78    1.11
  -3   1   1   20.59    1.17
   1  -1  -1   75.73    2.76
  -1  -1   1   77.22    2.69
   1  -1  -1   86.70    2.91
  -1  -1   1   76.65    2.70
  -1   1   1   79.77    2.74
  -1   1   1   85.52    2.66
   1   1  -1   80.66    2.71
  -1   1   1   81.05    2.80
   1   1  -1   82.80    2.80
   1   1  -1   81.21    2.84
  -1   1   1   79.64    2.97
   1   1  -1   83.15    3.10
  -1  -1  -1  189.31    6.22
   1  -1   1  197.92    6.35
  -1   1  -1  187.46    6.09
  -1   1  -1  196.15    5.81
   1   1   1  191.58    6.36
  -1   1  -1  185.02    5.93
  -1   1  -1  185.51    5.97
   1   1   1  198.19    6.28
   1   1   1  211.36    6.33
   1   1   1  199.59    6.17
  -3  -1  -1  775.66   23.75
   3  -1   1  774.16   23.86
  -3  -1  -1  769.14   23.59
  -3  -1  -1  800.37   23.81
   3   1   1  787.15   23.81
  -3   1  -1  820.42   23.80
  -3   1  -1  815.51   23.93
   3   1   1  803.05   23.89
   3   1   1  812.58   23.84
  -5  -1  -1  101.40    3.76
   5  -1   1   96.43    3.73
  -5  -1  -1   94.76    3.53
  -5   1  -1   99.32    3.48
   5   1   1   98.37    3.80
  -5   1  -1   95.00    3.75
   5   1   1   99.22    3.65
  -7  -1  -1  293.44    9.59
   7  -1   1  301.98    9.45
  -7  -1  -1  290.95    9.91
   7  -1   1  288.17    9.65
   7  -1   1  296.84    9.32
  -7   1  -1  305.77    9.95
   7   1   1  293.17    9.48
   7   1   1  283.02    9.73
  -7   1  -1  303.47    9.46
  -7   1  -1  297.45    9.89
   9  -1   1   12.16    1.63
   9  -1   1   15.97    1.47
   9  -1   1   14.23    1.23
  -9  -1  -1   16.50    1.64
  -9  -1  -1   15.77    1.95
  -9  -1  -1   19.40    2.08
   9   1   1   18.56    1.62
  -9   1  -1   21.67    2.18
  -9   1  -1   19.80    1.33
  -9   1  -1   25.45    2.34
   9   1   1   21.13    2.19
 -11  -1  -1   56.30    3.61
  11  -1   1   58.51    3.43
  11  -1   1   56.74    2.64
 -11  -1  -1   60.60    3.15
 -11  -1  -1   54.21    3.51
  11  -1   1   60.11    2.99
 -11   1  -1   56.69    3.46
  11   1   1   61.56    3.05
 -11   1  -1   58.16    2.59
  11   1   1   61.92    3.73
  13  -1   1   35.42    2.59
 -13  -1  -1   37.76    3.55
  13  -1   1   43.23    3.40
  13  -1   1   40.55    2.20
 -13  -1  -1   44.39    3.10
 -13  -1  -1   33.27    3.20
 -13   1  -1   40.63    3.36
 -13   1  -1   35.67    2.08
  13   1   1   42.66    2.67
  13   1   1   46.97    3.70
 -15  -1  -1   97.33    5.12
 -15  -1  -1   98.00    5.24
  15  -1   1  104.67    5.65
 -15  -1  -1   98.67    5.76
  15   1   1  108.57    5.97
  15   1   1   96.92    4.58
 -15   1  -1   95.70    5.46
  17  -1   1   65.10    5.05
 -17  -1  -1   65.38    5.15
 -17  -1  -1   64.48    4.38
 -17  -1  -1   69.52    4.96
  17   1   1   68.53    3.89
  17   1   1   71.61    5.46
 -17   1  -1   61.51    4.98
 -19  -1  -1    9.27    3.23
  19  -1   1    5.72    2.91
  19   1   1    4.97    3.10
 -19   1  -1   11.72    3.15
  21  -1   1    4.08    3.24
 -21  -1  -1    8.61    3.62
 -21   1  -1    2.17    3.11
  21   1   1    2.59    3.43
  20  -2  -1   32.34    4.61
 -20  -2   1   30.32    4.68
 -20  -2   1   28.45    4.38
 -20  -2   1   38.59    5.30
  20   2  -1   27.95    3.75
  20   2  -1   28.63    5.20
 -20   2   1   38.11    5.10
 -18  -2   1   24.13    3.83
  18  -2  -1   28.75    4.19
 -18  -2   1   25.12    3.94
 -18  -2   1   21.33    4.04
 -18   2   1   28.95    4.34
  18   2  -1   25.00    3.25
  18   2  -1   25.40    4.38
  16  -2  -1   23.87    2.60
  16  -2  -1   28.81    3.61
 -16  -2   1   30.41    3.92
  16  -2  -1   23.88    2.29
 -16  -2   1   28.19    3.81
 -16  -2   1   24.70    3.22
 -16   2   1   26.90    2.46
  16   2  -1   30.12    3.30
 -16   2   1   29.30    3.74
  16   2  -1   23.97    3.99
 -14  -2   1  101.12    5.64
  14  -2  -1  103.90    5.52
 -14  -2   1   90.57    4.98
 -14  -2   1   95.85    5.80
  14  -2  -1   95.51    4.74
  14  -2  -1  105.58    4.52
 -14   2   1   90.70    5.44
 -14   2   1   96.37    4.35
  14   2  -1   96.66    6.12
  14   2  -1   95.57    5.00
  12  -2  -1  206.83    8.16
 -12  -2   1  198.77    8.20
 -12  -2   1  210.05    7.77
 -12   2   1  203.15    7.35
  12   2  -1  209.46    7.94
  12   2  -1  199.45    8.75
 -12   2   1  194.43    8.29
 -10  -2   1  153.70    6.55
 -10  -2   1  170.25    6.23
  10  -2  -1  166.97    6.22
  10  -2  -1  169.33    6.61
  10   2  -1  157.20    6.35
 -10   2   1  156.36    6.78
 -10   2   1  164.87    6.07
  10   2  -1  162.36    7.14
   8  -2  -1   90.96    4.13
   8  -2  -1   94.39    3.83
  -8  -2   1  101.47    4.06
  -8  -2   1   98.27    4.32
  -8   2   1   98.23    4.02
   8   2  -1   98.67    4.78
   8   2  -1   95.77    4.19
  -8   2   1   93.55    4.52
  -6  -2   1   44.31    2.39
   6  -2  -1   41.34    2.32
   6  -2  -1   36.61    2.28
  -6  -2   1   44.92    2.21
  -6  -2   1   43.06    1.99
   6  -2  -1   40.05    1.99
   6   2  -1   37.06    2.77
  -6   2   1   42.24    2.68
   6   2  -1   38.95    2.36
  -6   2   1   43.93    2.32
  -4  -2   1  236.91    7.45
  -4  -2   1  237.04    7.75
   4  -2  -1  247.92    8.36
   4  -2  -1  259.67    8.01
   4  -2  -1  266.49    8.32
  -4   2   1  240.48    7.93
   4   2  -1  240.56    7.85
   4   2  -1  261.28    8.83
   4   2  -1  248.19    8.30
  -4   2   1  237.22    8.20
   4   2  -1  252.92    8.42
   2  -2  -1  492.20   15.24
  -2  -2   1  488.25   15.15
   2   2  -1  480.96   14.98
   2   2  -1  489.05   15.20
  -2   2   1  500.09   15.29
   2   2  -1  490.54   15.23
  -2   2   1  495.52   15.53
   2   2  -1  510.85   15.65
  -2   2   1  490.09   15.20
   0  -2  -1  613.71   19.22
   0  -2  -1  664.17   19.59
   0   2   1  625.96   19.29
   0   2  -1  617.84   19.32
   0   2  -1  651.59   19.62
   0   2  -1  616.15   19.19
   0   2   1  638.82   19.43
   0   2   1  650.01   19.26
   0   2   1  622.46   19.55
   0   2  -1  634.98   19.17
  -2  -2  -1  203.16    6.88
   2  -2   1  189.11    6.64
  -2   2  -1  202.66    6.93
   2   2   1  202.14    6.61
  -2   2  -1  204.97    6.82
   2   2   1  199.51    6.71
  -2   2  -1  209.01    7.00
   2   2   1  196.46    6.72
  -2   2  -1  206.14    6.51
   2   2   1  190.48    6.36
  -4  -2  -1   23.59    1.64
   4  -2   1   27.40    1.70
   4  -2   1   22.16    1.76
  -4   2  -1   26.08    1.64
   4   2   1   25.24    1.80
   4   2   1   24.17    1.32
   4   2   1   23.70    1.92
   4   2   1   24.34    1.79
  -4   2  -1   25.29    1.85
  -6  -2  -1  149.66    5.45
  -6  -2  -1  154.24    5.48
   6  -2   1  146.92    5.65
   6  -2   1  148.93    5.59
  -6   2  -1  149.15    5.43
   6   2   1  147.75    5.59
  -6   2  -1  150.68    5.74
   6   2   1  158.55    5.93
  -8  -2  -1  287.93    9.56
   8  -2   1  293.78    9.71
  -8  -2  -1  277.17   10.40
   8  -2   1  288.28    9.98
  -8  -2  -1  277.24    9.70
   8   2   1  290.74    9.90
   8   2   1  290.80   10.34
  -8   2  -1  280.02    9.97
  -8   2  -1  295.88    9.50
 -10  -2  -1  336.06   11.50
  10  -2   1  340.02   11.34
  10  -2   1  335.13   11.71
  10  -2   1  340.46   11.26
 -10  -2  -1  335.87   12.39
 -10  -2  -1  343.11   11.88
  10   2   1  347.95   11.62
  10   2   1  337.95   12.16
 -10   2  -1  352.25   11.33
 -10   2  -1  344.40   12.04
 -12  -2  -1  125.63    6.02
  12  -2   1  126.87    5.16
 -12  -2  -1  134.90    6.53
  12  -2   1  128.73    5.30
  12  -2   1  132.26    5.93
 -12  -2  -1  128.34    5.59
  12   2   1  129.13    6.46
  12   2   1  124.84    5.60
 -12   2  -1  133.94    5.16
 -12   2  -1  121.00    6.00
  14  -2   1   48.07    2.93
 -14  -2  -1   45.58    4.14
  14  -2   1   53.14    3.29
  14  -2   1   55.18    4.01
 -14  -2  -1   54.82    4.42
 -14  -2  -1   58.07    3.79
 -14   2  -1   45.45    4.02
 -14   2  -1   48.17    2.91
  14   2   1   47.36    4.65
  14   2   1   50.71    3.53
  16  -2   1    5.77    2.47
 -16  -2  -1    5.01    2.58
  16  -2   1    4.14    1.22
  16  -2   1    3.83    1.39
 -16  -2  -1    7.22    2.35
 -16  -2  -1    3.11    2.23
 -16   2  -1    2.40    2.09
  16   2   1    6.54    2.00
 -16   2  -1    6.73    1.38
  16   2   1    5.41    2.90
  18  -2   1   56.49    5.26
 -18  -2  -1   53.00    5.21
 -18  -2  -1   60.52    5.18
 -18  -2  -1   51.89    5.33
  18   2   1   52.03    4.26
  18   2   1   60.59    6.33
 -18   2  -1   66.57    6.06
 -20  -2  -1   41.04    5.17
  20  -2   1   62.98    6.28
 -20  -2  -1   59.24    5.84
 -20  -2  -1   55.20    6.07
 -20   2  -1   52.56    5.87
  20   2   1   58.98    6.82
  20   2   1   55.56    4.84
 -19  -3   1   19.85    4.43
  19  -3  -1   22.04    4.19
 -19  -3   1   29.14    4.53
 -19  -3   1   19.88    4.43
  19   3  -1   25.02    3.92
 -19   3   1   18.44    4.27
  19   3  -1   17.67    5.14
  17  -3  -1   62.74    4.04
 -17  -3   1   65.08    5.42
  17  -3  -1   66.56    5.60
 -17  -3   1   58.62    5.69
 -17  -3   1   64.87    6.45
  17  -3  -1   65.67    4.38
 -17   3   1   56.12    3.91
  17   3  -1   71.77    7.11
  17   3  -1   58.02    5.16
 -17   3   1   68.81    5.89
 -15  -3   1   54.66    4.50
  15  -3  -1   47.93    4.47
 -15  -3   1   47.83    5.44
 -15  -3   1   61.08    5.04
  15  -3  -1   45.66    3.34
  15  -3  -1   43.07    3.40
 -15   3   1   53.64    4.98
  15   3  -1   47.64    4.39
 -15   3   1   55.55    3.61
  15   3  -1   44.52    5.23
 -13  -3   1   61.28    4.48
 -13  -3   1   50.77    5.20
 -13  -3   1   53.84    3.85
  13  -3  -1   50.82    3.29
  13  -3  -1   49.13    3.29
  13  -3  -1   55.11    4.16
  13   3  -1   44.60    3.88
  13   3  -1   53.68    5.01
 -13   3   1   48.41    3.38
 -13   3   1   51.80    4.46
 -11  -3   1    5.16    1.87
  11  -3  -1    4.39    1.74
 -11  -3   1    5.10    1.69
  11   3  -1    2.86    1.63
 -11   3   1    7.65    1.54
 -11   3   1    6.47    2.08
  11   3  -1    5.07    2.32
  -9  -3   1   98.14    4.74
   9  -3  -1  102.16    4.84
   9  -3  -1  106.07    4.41
  -9  -3   1  101.66    4.61
  -9   3   1  104.65    5.34
   9   3  -1  104.34    5.01
   9   3  -1   99.07    5.55
  -9   3   1  109.58    4.72
   7  -3  -1  134.98    5.03
   7  -3  -1  148.31    5.79
  -7  -3   1  132.59    5.22
   7   3  -1  134.93    6.20
   7   3  -1  130.13    5.67
  -7   3   1  125.51    5.30
  -7   3   1  134.28    5.89
   5  -3  -1  226.45    7.34
  -5  -3   1  223.94    7.95
  -5  -3   1  223.10    7.53
   5  -3  -1  222.94    7.97
  -5   3   1  236.68    8.16
   5   3  -1  217.29    7.83
   5   3  -1  218.11    7.25
  -5   3   1  243.54    8.65
   5   3  -1  219.03    8.04
   5   3  -1  233.85    8.58
  -3  -3   1  113.71    4.47
   3  -3  -1  107.94    4.50
  -3  -3   1  114.91    4.30
  -3   3   1  116.91    5.02
   3   3  -1  109.40    4.57
  -3   3   1  115.18    4.65
   3   3  -1  113.47    4.50
   3   3  -1  112.90    5.03
   3   3  -1  109.73    4.13
   1  -3  -1    7.48    1.24
   1  -3  -1   11.72    1.64
  -1  -3   1   10.82    1.30
   1   3  -1    8.27    1.16
   1   3  -1   11.82    1.47
   1   3  -1   11.29    1.39
   1   3  -1   10.29    1.69
  -1   3   1   10.48    1.44
  -1   3   1    9.18    1.29
  -1   3   1   12.44    1.70
  -1   3   1   11.77    1.29
  -1  -3  -1   83.65    4.15
  -1  -3  -1   80.77    3.64
   1  -3   1   74.89    3.55
   1   3   1   71.45    3.26
   1   3   1   75.55    3.61
  -1   3  -1   83.68    3.60
  -1   3  -1   91.44    3.97
   1   3   1   75.00    3.37
  -1   3  -1   87.03    3.47
   1   3   1   75.82    3.56
  -1   3  -1   84.76    3.81
  -3  -3  -1  201.19    7.12
  -3  -3  -1  193.67    7.72
   3  -3   1  209.14    7.51
   3   3   1  203.55    6.95
   3   3   1  204.46    7.59
  -3   3  -1  204.46    7.20
   3   3   1  206.03    7.36
   3   3   1  204.49    7.45
  -3   3  -1  197.83    7.30
  -3   3  -1  191.36    7.01
  -5  -3  -1  303.48   11.13
   5  -3   1  306.74   10.38
  -5  -3  -1  295.21   10.12
  -5   3  -1  306.26   10.52
   5   3   1  297.41   10.27
  -5   3  -1  300.41   10.18
   5   3   1  296.64   10.51
   5   3   1  298.37    9.55
   5   3   1  294.53   10.19
   7  -3   1   73.02    3.65
  -7  -3  -1   77.55    4.76
   7  -3   1   75.91    3.90
   7  -3   1   73.73    3.15
  -7  -3  -1   71.46    3.65
  -7   3  -1   76.11    3.66
   7   3   1   71.21    4.09
  -7   3  -1   74.33    4.04
   7   3   1   61.63    3.69
  -9  -3  -1   49.59    3.14
  -9  -3  -1   48.41    3.30
   9  -3   1   54.44    2.86
  -9  -3  -1   48.42    4.24
   9  -3   1   49.90    3.10
   9  -3   1   53.18    3.42
  -9   3  -1   49.50    3.01
   9   3   1   52.92    3.94
   9   3   1   53.83    3.50
  -9   3  -1   52.14    3.66
 -11  -3  -1   10.37    2.17
  11  -3   1   12.47    1.63
  11  -3   1   12.62    2.28
  11  -3   1   14.78    1.97
 -11  -3  -1   12.74    2.96
 -11  -3  -1   12.25    2.05
 -11   3  -1   11.59    1.74
 -11   3  -1   12.47    2.30
  11   3   1   11.17    2.68
  11   3   1   13.37    2.22
 -13  -3  -1   88.62    5.33
  13  -3   1   96.16    5.49
  13  -3   1   91.37    4.55
 -13  -3  -1   92.56    5.15
 -13  -3  -1   95.57    6.35
  13  -3   1   84.47    4.52
 -13   3  -1   89.35    4.56
  13   3   1   99.54    5.31
 -13   3  -1   97.18    5.77
  13   3   1   97.26    6.19
 -15  -3  -1   58.64    4.93
  15  -3   1   62.79    4.95
 -15  -3  -1   72.25    5.94
  15  -3   1   58.16    3.75
 -15  -3  -1   57.85    4.64
  15  -3   1   53.96    3.60
 -15   3  -1   70.84    5.32
  15   3   1   50.70    5.62
 -15   3  -1   59.77    3.77
  15   3   1   58.23    4.57
  17  -3   1   43.23    3.76
  17  -3   1   51.95    3.62
 -17  -3  -1   44.69    4.95
 -17  -3  -1   43.85    5.46
  17  -3   1   54.88    5.24
 -17  -3  -1   43.71    4.69
 -17   3  -1   43.09    3.36
  17   3   1   43.57    4.62
  17   3   1   47.42    5.89
 -17   3  -1   43.17    4.98
 -19  -3  -1   31.13    4.93
 -19  -3  -1   20.16    4.49
  19  -3   1   35.23    4.92
 -19  -3  -1   27.70    4.54
  19   3   1   30.60    4.34
  19   3   1   27.28    5.74
 -19   3  -1   26.79    4.60
  18  -4  -1    2.19    2.02
 -18  -4   1    4.77    3.66
  18  -4  -1    0.10    3.88
  18   4  -1    2.11    5.08
 -18   4   1    3.44    2.61
 -16  -4   1    0.42    2.90
 -16  -4   1    2.98    3.82
  16  -4  -1   -1.12    2.60
  16  -4  -1    2.04    1.66
  16  -4  -1    1.29    1.68
 -16  -4   1    5.47    2.93
  16   4  -1    1.71    3.73
  16   4  -1    2.76    2.80
 -16   4   1   -1.48    1.71
 -16   4   1   -1.22    2.61
  14  -4  -1    2.89    1.49
 -14  -4   1    2.59    3.42
 -14  -4   1    1.96    2.62
  14  -4  -1    3.91    1.76
  14  -4  -1   -0.12    2.36
 -14  -4   1    3.63    2.36
  14   4  -1    0.84    3.03
 -14   4   1    1.61    1.77
 -14   4   1    5.97    2.84
  14   4  -1    0.85    2.46
 -12  -4   1   37.51    4.92
  12  -4  -1   23.44    2.83
 -12  -4   1   39.78    3.76
  12  -4  -1   26.13    2.55
  12  -4  -1   28.93    3.58
 -12  -4   1   29.74    3.43
 -12   4   1   32.42    4.17
 -12   4   1   31.25    3.18
  12   4  -1   28.65    4.21
  12   4  -1   20.78    3.32
  10  -4  -1   41.94    3.27
 -10  -4   1   42.10    4.88
  10  -4  -1   40.27    2.74
  10  -4  -1   37.69    3.48
 -10  -4   1   40.64    3.35
 -10   4   1   42.24    4.22
  10   4  -1   40.64    4.25
 -10   4   1   39.51    3.34
  10   4  -1   39.47    3.80
  -8  -4   1    6.71    2.75
  -8  -4   1    9.85    1.75
   8  -4  -1    3.97    1.75
  -8   4   1    2.88    1.51
  -8   4   1    8.81    2.19
   8   4  -1    5.87    2.01
   8   4  -1    1.68    2.03
  -6  -4   1   19.66    2.11
   6  -4  -1   19.14    2.42
   6   4  -1   21.82    2.61
  -6   4   1   18.56    2.30
  -6   4   1   20.97    2.73
   6   4  -1   18.93    2.76
  -4  -4   1    4.65    1.14
   4  -4  -1    2.41    1.45
  -4  -4   1    4.65    1.31
   4   4  -1    4.64    1.61
   4   4  -1    1.97    1.34
  -4   4   1    4.15    1.42
  -4   4   1    4.97    1.72
   4   4  -1    3.73    1.07
   4   4  -1    5.26    1.88
  -2  -4   1   33.36    2.84
   2  -4  -1   28.81    2.62
  -2  -4   1   29.82    2.48
  -2  -4   1   28.78    2.32
   2   4  -1   29.14    2.63
   2   4  -1   32.93    2.32
  -2   4   1   27.00    2.54
  -2   4   1   25.38    2.69
   2   4  -1   33.89    3.25
   2   4  -1   35.75    2.70
   0  -4   1   25.07    2.63
   0  -4  -1   18.74    2.50
   0  -4  -1   23.77    2.40
   0  -4   1   24.24    2.86
   0  -4   1   26.22    2.33
   0   4  -1   19.70    2.01
   0   4  -1   25.60    2.65
   0   4  -1   23.11    2.34
   0   4   1   25.81    2.48
   0   4   1   20.19    2.04
   0   4   1   28.02    2.37
   0   4  -1   18.03    2.00
   0   4   1   22.82    2.53
  -2  -4  -1   32.44    2.70
  -2  -4  -1   33.73    2.75
   2  -4   1   36.96    3.03
   2  -4   1   34.17    2.65
  -2  -4  -1   37.42    3.52
   2   4   1   35.00    2.46
   2   4   1   37.47    2.92
   2   4   1   32.15    2.60
  -2   4  -1   30.06    2.58
  -2   4  -1   31.29    2.81
   2   4   1   30.82    2.87
  -2   4  -1   33.25    2.85
   4  -4   1   13.21    1.93
   4  -4   1   12.36    2.08
  -4  -4  -1    9.95    1.74
  -4  -4  -1   10.38    2.42
  -4   4  -1   10.70    1.72
   4   4   1   13.71    2.21
   4   4   1   13.01    2.00
  -4   4  -1   10.98    1.90
   4   4   1    9.31    1.38
   4   4   1   10.97    1.93
   6  -4   1    5.51    1.07
  -6  -4  -1    6.44    2.51
  -6  -4  -1    9.19    1.67
   6  -4   1    7.55    1.87
   6  -4   1   11.14    1.86
  -6   4  -1    9.76    1.70
   6   4   1   11.26    1.97
   6   4   1    8.31    2.04
  -6   4  -1    9.96    2.02
   6   4   1    9.99    1.94
   8  -4   1   12.26    2.08
   8  -4   1   16.30    1.71
   8  -4   1   20.27    2.71
  -8  -4  -1   22.88    3.52
  -8  -4  -1   17.71    2.34
   8   4   1   22.96    2.75
  -8   4  -1   17.64    2.60
   8   4   1   18.41    2.76
  -8   4  -1   16.98    2.17
 -10  -4  -1    3.01    2.75
 -10  -4  -1    7.22    1.94
 -10  -4  -1    3.28    1.91
  10  -4   1    2.73    1.55
  10  -4   1    6.44    2.14
  10  -4   1    2.80    1.20
 -10   4  -1    3.46    1.58
  10   4   1    4.23    2.05
 -10   4  -1    4.83    2.09
  10   4   1    1.67    2.04
  12  -4   1   18.55    2.18
 -12  -4  -1   13.08    3.66
  12  -4   1   21.86    3.18
  12  -4   1   16.80    2.42
 -12  -4  -1   17.92    2.79
 -12  -4  -1   19.30    2.77
 -12   4  -1   18.42    3.24
  12   4   1   14.86    3.63
  12   4   1   15.31    3.04
 -12   4  -1   14.06    2.34
 -14  -4  -1   -0.51    2.18
  14  -4   1    2.82    2.54
  14  -4   1    0.18    1.42
  14  -4   1    0.04    1.34
 -14  -4  -1    0.12    2.34
 -14  -4  -1   -0.05    3.05
 -14   4  -1    1.23    1.70
  14   4   1    3.35    2.45
 -14   4  -1    1.00    2.45
 -16  -4  -1   14.55    4.37
  16  -4   1   12.94    2.33
 -16  -4  -1   10.90    3.38
  16  -4   1   12.05    2.39
  16  -4   1   10.48    3.43
 -16  -4  -1   12.32    3.23
  16   4   1    7.14    3.31
 -16   4  -1   13.40    2.52
 -16   4  -1   16.83    3.81
 -18   4  -1   -0.14    3.29
 -18   4  -1    1.33    5.70
 -13  -5   1   10.53    5.71
  13  -5  -1    4.45    1.91
  13  -5  -1    6.68    2.55
  13   5  -1   14.82    3.91
 -13   5   1   10.20    3.47
 -13   5   1    6.91    2.44
  11  -5  -1    0.79    1.44
 -11  -5   1    2.48    3.90
  11  -5  -1    2.04    1.83
 -11   5   1    2.47    2.70
 -11   5   1    1.03    1.89
  11   5  -1   -0.03    2.46
  -9  -5   1   14.06    4.02
   9  -5  -1   16.26    2.54
   9  -5  -1   13.88    1.87
   9   5  -1   15.21    3.11
  -9   5   1   16.72    2.68
  -9   5   1   13.67    3.10
   7  -5  -1    8.25    2.24
  -7  -5   1    8.39    3.46
  -7   5   1   11.26    2.34
   7   5  -1   11.83    2.82
  -7   5   1   10.81    2.70
   5  -5  -1    9.60    2.14
  -5  -5   1    7.72    3.01
   5   5  -1    9.67    2.48
   5   5  -1    9.46    2.82
  -5   5   1   11.94    2.29
  -5   5   1    5.10    2.25
  -3  -5   1    6.06    2.21
  -3  -5   1    5.20    2.63
   3  -5  -1    8.27    2.04
  -3   5   1    5.37    2.09
   3   5  -1    6.27    2.03
  -3   5   1    4.09    1.73
   3   5  -1    7.53    2.29
  -1  -5   1    6.54    1.70
  -1  -5   1   10.80    2.38
   1  -5  -1    6.86    1.89
  -1   5   1   11.03    2.32
   1   5  -1    6.57    2.32
   1   5  -1    6.65    1.72
  -1   5   1    8.76    1.97
   1  -5   1    9.59    1.99
  -1  -5  -1    7.93    1.80
   1  -5   1   13.43    2.58
  -1  -5  -1   13.75    2.39
   1   5   1   12.32    2.46
   1   5   1   14.62    2.13
  -1   5  -1   11.27    2.33
  -1   5  -1   11.81    2.08
   3  -5   1   15.28    2.71
   3  -5   1   13.83    2.24
  -3  -5  -1   15.52    2.43
  -3  -5  -1    8.90    2.90
   3   5   1   15.12    2.38
   3   5   1   12.28    2.45
  -3   5  -1   13.38    2.24
  -5  -5  -1   18.10    2.64
   5  -5   1   16.55    2.81
  -5  -5  -1   13.87    3.44
   5  -5   1   14.06    2.29
   5   5   1   17.66    2.74
   5   5   1   16.94    2.69
  -5   5  -1   12.91    2.36
  -7  -5  -1    4.03    3.09
   7  -5   1    1.09    2.08
   7  -5   1    3.40    1.73
  -7  -5  -1    5.00    1.98
   7   5   1    1.24    2.18
  -7   5  -1    0.83    1.72
  -9  -5  -1    5.54    2.16
  -9  -5  -1    3.75    3.56
   9  -5   1    1.62    1.34
   9  -5   1    3.81    1.86
   9  -5   1    4.19    2.43
   9   5   1    1.60    2.30
  -9   5  -1    2.10    1.91
 -11  -5  -1    1.24    3.67
  11  -5   1    0.60    2.41
 -11  -5  -1    0.83    2.37
  11  -5   1   -0.28    1.75
  11  -5   1   -0.77    1.38
  11   5   1   -0.42    2.42
 -11   5  -1    3.08    1.93
  13  -5   1   17.40    3.64
 -13  -5  -1   14.17    6.00
 -13  -5  -1   16.28    3.55
  13  -5   1   15.54    3.19
  13  -5   1   15.99    2.94
 -13   5  -1   12.27    3.07
  13   5   1   13.89    4.14
  -6  -6   1    0.89    5.19
  -6   6   1   14.25    3.50
   4  -6  -1   11.62    2.64
  -4   6   1   15.36    2.85
   2  -6  -1   51.22    4.38
  -2   6   1   57.38    4.53
   2  -6   1   24.64    3.19
  -2   6  -1   21.30    3.02
   4  -6   1    7.10    2.42
  -4   6  -1    9.75    2.59
  -6  -6  -1    1.47    5.07
  -6   6  -1   18.30    4.85
  22   0  -2   49.26    6.00
 -22   0   2   67.86    6.91
  20   0  -2   24.34    4.00
 -20   0   2   38.67    4.84
  18   0  -2   60.94    5.19
 -18   0   2   71.36    5.37
  16   0  -2   24.94    3.40
 -16   0   2   23.05    3.20
  14   0  -2  145.94    6.88
  14   0  -2  161.64    5.74
 -14   0   2  156.93    6.96
 -14   0   2  150.59    6.64
 -12   0   2  197.10    7.42
 -12   0   2  184.43    7.59
  12   0  -2  196.20    8.00
  12   0  -2  213.40    7.05
  10   0  -2  251.74    8.14
  10   0  -2  250.72    8.46
  10   0  -2  243.78    8.92
 -10   0   2  250.11    8.88
 -10   0   2  260.88    9.16
  -8   0   2  120.87    4.66
  -8   0   2  119.40    3.95
   8   0  -2  115.68    4.76
   8   0  -2  120.15    4.36
  -8   0   2  115.37    4.83
   8   0  -2  116.36    4.12
  -6   0   2  162.72    5.70
  -6   0   2  166.88    5.22
   6   0  -2  163.85    5.52
   6   0  -2  170.26    5.35
  -6   0   2  168.55    5.93
   6   0  -2  158.64    5.75
  -4   0   2  932.00   27.51
   4   0  -2  967.36   29.03
  -4   0   2  976.65   28.01
   4   0  -2  959.83   29.16
   4   0  -2 1000.00   28.89
  -4   0   2  888.04   27.79
   2   0  -2  756.52   22.98
  -2   0   2  683.67   22.70
   2   0  -2  779.69   23.03
   2   0  -2  788.92   22.91
  -2   0   2  814.44   22.60
  -2   0   2  800.77   22.82
   0   0   2  382.42   11.38
   0   0   2  412.28   11.33
   0   0  -2  371.83   11.06
   0   0   2  348.49   11.28
   0   0  -2  370.64   11.12
  -2   0  -2  446.71   13.84
   2   0   2  451.76   13.28
   2   0   2  407.05   13.24
   2   0   2  470.47   13.17
  -2   0  -2  474.40   13.79
  -2   0  -2  453.15   13.64
  -4   0  -2  189.42    6.12
   4   0   2  196.93    5.84
   4   0   2  185.65    6.12
  -4   0  -2  184.26    5.96
   4   0   2  185.45    6.04
  -4   0  -2  192.63    6.29
   6   0   2  255.21    7.93
   6   0   2  237.93    8.05
  -6   0  -2  251.88    8.16
  -6   0  -2  248.67    8.05
  -6   0  -2  255.64    8.45
   6   0   2  240.38    7.56
   6   0   2  252.63    7.74
  -8   0  -2  520.57   16.92
   8   0   2  539.20   16.51
  -8   0  -2  533.57   16.50
   8   0   2  531.13   16.02
  -8   0  -2  538.46   16.54
   8   0   2  519.88   16.72
   8   0   2  538.34   16.23
  10   0   2  604.87   19.01
  10   0   2  596.16   19.35
  10   0   2  621.06   18.66
 -10   0  -2  647.69   20.37
 -10   0  -2  629.85   19.77
  10   0   2  617.07   18.36
 -10   0  -2  628.56   19.83
 -12   0  -2   79.77    3.72
  12   0   2   76.63    3.74
  12   0   2   72.09    4.02
  12   0   2   70.11    2.73
  12   0   2   74.03    3.11
 -12   0  -2   74.64    3.93
 -12   0  -2   77.00    4.36
  14   0   2   19.28    2.65
 -14   0  -2   17.86    2.67
 -14   0  -2   18.26    2.14
 -14   0  -2   22.54    2.63
  16   0   2   64.01    4.63
 -16   0  -2   58.47    4.31
 -18   0  -2  118.55    6.68
  18   0   2  101.42    6.45
 -20   0  -2   74.49    6.09
  20   0   2   79.38    6.40
  22   0   2   66.79    6.72
 -22   0  -2   73.09    6.87
  21  -1  -2   16.84    3.97
 -21  -1   2   11.49    3.88
  21   1  -2   15.57    4.18
 -21   1   2   14.35    3.82
  19  -1  -2   25.11    3.87
 -19  -1   2   30.55    4.16
  19   1  -2   25.93    4.29
 -19   1   2   24.94    4.11
 -17  -1   2   53.26    4.27
  17  -1  -2   52.48    4.72
 -17  -1   2   68.22    4.92
 -17  -1   2   62.12    4.99
  17   1  -2   53.04    5.05
  17   1  -2   54.11    3.61
 -17   1   2   63.29    4.94
 -15  -1   2   74.78    4.94
 -15  -1   2   80.61    4.67
  15  -1  -2   70.42    4.67
  15   1  -2   75.66    5.16
 -15   1   2   74.30    4.81
  15   1  -2   64.68    3.75
 -13  -1   2   36.73    3.32
 -13  -1   2   40.35    3.06
  13  -1  -2   44.11    3.42
  13   1  -2   33.04    2.59
  13   1  -2   33.92    3.52
 -13   1   2   38.67    2.20
 -13   1   2   34.35    3.46
 -11  -1   2   32.99    2.80
 -11  -1   2   33.63    2.44
  11  -1  -2   29.75    2.66
  11  -1  -2   37.67    2.39
 -11   1   2   29.85    1.85
 -11   1   2   28.08    2.65
  11   1  -2   30.57    2.30
  11   1  -2   33.61    3.28
  -9  -1   2  134.11    5.05
   9  -1  -2  144.83    5.36
  -9  -1   2  134.38    5.56
   9  -1  -2  146.19    5.68
   9   1  -2  140.96    5.33
  -9   1   2  131.47    5.44
  -9   1   2  138.20    4.87
   9   1  -2  147.98    6.00
  -9   1   2  137.54    5.57
  -7  -1   2  409.92   13.12
  -7  -1   2  392.74   12.64
   7  -1  -2  393.38   12.60
   7  -1  -2  406.73   12.80
  -7   1   2  415.31   12.64
  -7   1   2  401.93   13.11
   7   1  -2  398.09   13.14
   7   1  -2  404.00   12.64
  -7   1   2  407.40   13.07
   5  -1  -2  249.70    7.71
   5  -1  -2  236.95    7.77
  -5  -1   2  229.53    7.48
  -5  -1   2  211.28    7.13
  -5   1   2  229.14    7.66
   5   1  -2  235.19    7.75
   5   1  -2  234.88    8.12
  -5   1   2  232.27    7.25
  -3  -1   2   32.12    1.56
   3  -1  -2   27.88    1.37
  -3  -1   2   34.55    1.30
  -3  -1   2   34.01    1.43
  -3  -1   2   36.28    1.46
   3  -1  -2   29.76    1.42
  -3   1   2   35.76    1.92
   3   1  -2   29.48    1.50
   3   1  -2   29.76    1.88
  -3   1   2   36.11    1.61
   1  -1  -2  186.71    5.85
   1  -1  -2  162.38    5.63
   1  -1  -2  188.99    5.67
  -1  -1   2  179.92    5.56
   1  -1  -2  192.99    5.75
  -1  -1   2  182.46    5.63
   1   1  -2  184.37    5.67
   1   1  -2  184.94    5.66
  -1   1   2  178.82    5.94
   1   1  -2  180.92    5.80
   1   1  -2  182.46    6.12
  -1   1   2  181.64    5.74
  -1  -1  -2  376.32   11.47
   1  -1   2  369.87   10.99
   1  -1   2  369.76   10.79
   1  -1   2  367.29   10.88
  -1  -1  -2  348.99   10.99
   1  -1   2  347.59   11.10
   1   1   2  355.22   10.88
  -1   1  -2  355.40   11.10
   1   1   2  365.91   10.89
   1   1   2  351.25   11.13
  -1   1  -2  369.47   11.17
  -1   1  -2  378.00   11.43
   1   1   2  353.37   10.99
  -1   1  -2  378.14   11.06
  -3  -1  -2  297.53    9.56
  -3  -1  -2  288.25    9.14
   3  -1   2  302.90    9.26
  -3  -1  -2  285.01    8.94
   3  -1   2  307.49    9.37
  -3  -1  -2  291.03    9.15
   3  -1   2  296.77    9.53
   3   1   2  296.99    9.43
   3   1   2  308.55    9.51
   3   1   2  294.32    9.09
  -3   1  -2  306.87    9.11
   3   1   2  303.10    9.40
  -3   1  -2  291.01    9.15
   5  -1   2  400.91   12.13
   5  -1   2  391.31   12.38
  -5  -1  -2  412.97   12.90
   5  -1   2  403.59   12.13
  -5  -1  -2  395.24   12.36
  -5  -1  -2  385.89   12.53
   5   1   2  380.74   12.21
   5   1   2  382.99   12.27
  -5   1  -2  400.17   12.50
  -5   1  -2  397.41   12.26
   7  -1   2  227.06    7.34
  -7  -1  -2  217.79    8.01
   7  -1   2  220.89    7.68
  -7  -1  -2  225.09    7.50
  -7  -1  -2  221.82    7.84
   7  -1   2  228.76    7.47
   7   1   2  229.17    7.53
   7   1   2  220.09    7.76
  -7   1  -2  217.76    7.78
  -7   1  -2  238.06    7.76
  -7   1  -2  230.09    7.33
  -9  -1  -2    5.43    1.11
   9  -1   2    6.08    1.03
   9  -1   2    4.92    1.20
   9  -1   2    6.42    0.90
  -9  -1  -2    3.94    1.32
  -9  -1  -2    1.97    1.15
   9   1   2    3.74    0.96
  -9   1  -2    6.90    1.39
  -9   1  -2    4.75    1.30
   9   1   2    7.40    1.54
  -9   1  -2    4.13    0.77
 -11  -1  -2   70.86    3.99
  11  -1   2   74.78    3.96
 -11  -1  -2   76.25    3.68
  11  -1   2   78.76    3.56
  11  -1   2   75.80    3.18
 -11  -1  -2   74.68    4.20
  11   1   2   76.81    3.52
  11   1   2   82.12    4.28
 -11   1  -2   68.48    3.86
 -11   1  -2   76.65    3.08
  13  -1   2  176.75    7.37
 -13  -1  -2  185.28    7.50
  13  -1   2  191.41    6.94
 -13  -1  -2  184.09    7.16
  13  -1   2  175.55    6.30
 -13  -1  -2  175.04    7.70
 -13   1  -2  185.37    7.47
 -13   1  -2  180.27    6.32
  13   1   2  180.48    6.72
  13   1   2  174.70    7.65
 -15  -1  -2  105.35    5.25
  15  -1   2   97.26    5.48
 -15  -1  -2   94.22    5.64
 -15  -1  -2   97.72    5.18
  15   1   2   99.77    4.56
 -15   1  -2   97.13    5.50
  15   1   2   95.93    5.68
 -17  -1  -2   47.08    4.78
  17  -1   2   53.98    4.60
 -17  -1  -2   43.82    4.19
 -17  -1  -2   40.82    3.73
 -17   1  -2   56.34    5.12
  17   1   2   39.81    3.17
  17   1   2   45.45    4.61
  19  -1   2   11.06    3.23
 -19  -1  -2   13.27    3.36
 -19   1  -2    9.21    3.16
  19   1   2   12.26    3.35
 -21  -1  -2    6.42    3.69
  21  -1   2    4.77    3.26
 -21   1  -2    5.90    3.41
  21   1   2    2.29    3.34
 -20  -2   2   13.92    3.89
 -20  -2   2    9.84    3.96
  20  -2  -2    2.75    3.02
 -20  -2   2    3.95    3.09
 -20   2   2    7.24    3.46
  20   2  -2    7.30    3.93
  20   2  -2   10.97    2.89
 -18  -2   2    1.32    2.64
  18  -2  -2    3.03    2.61
 -18  -2   2    2.76    2.54
 -18  -2   2    4.39    2.86
  18   2  -2    4.38    2.27
  18   2  -2    3.28    3.31
 -18   2   2    1.76    2.67
  16  -2  -2    3.79    1.51
 -16  -2   2    4.48    2.37
 -16  -2   2    8.83    2.68
  16  -2  -2    3.67    1.23
 -16  -2   2    0.78    2.22
  16  -2  -2    6.07    2.37
  16   2  -2    3.74    2.84
  16   2  -2    6.46    2.16
 -16   2   2    2.56    1.31
 -16   2   2    3.83    2.39
  14  -2  -2    4.57    1.96
 -14  -2   2    2.20    2.02
 -14  -2   2   10.32    2.20
  14   2  -2    2.91    1.68
 -14   2   2    2.98    1.14
  14   2  -2    5.09    2.38
 -14   2   2    3.66    1.96
  12  -2  -2   49.08    3.59
 -12  -2   2   41.25    3.73
 -12  -2   2   56.09    3.33
  12  -2  -2   48.74    3.17
 -12   2   2   48.86    3.84
  12   2  -2   50.92    3.37
 -12   2   2   51.36    2.94
  12   2  -2   54.62    4.32
 -10  -2   2   66.41    3.27
  10  -2  -2   60.72    3.62
  10  -2  -2   60.27    3.15
 -10  -2   2   61.96    3.74
  10   2  -2   58.51    4.16
  10   2  -2   65.77    3.50
 -10   2   2   61.22    3.11
 -10   2   2   55.58    3.77
   8  -2  -2    0.17    0.75
  -8  -2   2    1.41    1.12
  -8  -2   2    4.54    1.06
   8  -2  -2    1.29    1.06
  -8   2   2    1.68    0.90
   8   2  -2    1.79    1.44
   8   2  -2    1.69    1.04
  -8   2   2    1.81    1.17
   6  -2  -2    1.65    0.84
   6  -2  -2    3.21    1.01
  -6  -2   2    1.89    0.73
  -6  -2   2    3.13    0.96
   6  -2  -2    3.95    0.81
  -6  -2   2    1.83    0.64
   6   2  -2    4.98    1.52
  -6   2   2    4.74    1.28
   6   2  -2    2.64    0.98
  -6   2   2    3.41    0.91
   4  -2  -2   16.04    1.39
  -4  -2   2   17.32    1.09
   4  -2  -2   17.04    1.42
  -4  -2   2   16.69    1.26
   4  -2  -2   17.11    1.21
   4   2  -2   15.63    1.02
  -4   2   2   15.90    1.47
   4   2  -2   17.76    1.54
  -4   2   2   19.01    1.83
   4   2  -2   17.63    1.90
   2  -2  -2   59.10    2.55
   2  -2  -2   54.91    2.37
  -2  -2   2   55.41    2.33
  -2  -2   2   56.23    2.30
   2   2  -2   55.34    2.51
   2   2  -2   53.08    2.38
   2   2  -2   56.20    2.25
  -2   2   2   58.00    2.55
   2   2  -2   52.55    2.88
  -2   2   2   55.73    2.79
   0  -2   2    9.43    1.01
   0  -2  -2    5.77    1.12
   0  -2  -2    5.18    0.78
   0   2   2    8.95    0.99
   0   2  -2    8.94    1.35
   0   2   2    7.22    0.91
   0   2  -2    6.58    0.90
   0   2  -2    7.89    0.92
   0   2  -2    5.39    0.79
   0   2   2    8.38    1.21
   0   2   2    6.95    0.95
  -2  -2  -2   62.10    3.17
   2  -2   2   63.53    2.75
   2  -2   2   61.82    2.87
  -2  -2  -2   60.66    2.79
  -2   2  -2   62.04    2.68
   2   2   2   63.82    2.79
  -2   2  -2   61.39    2.61
   2   2   2   64.86    2.58
   2   2   2   66.11    2.80
  -2   2  -2   61.27    2.38
  -2   2  -2   61.52    2.89
   2   2   2   63.97    2.94
  -4  -2  -2   33.65    1.97
  -4  -2  -2   32.91    2.54
   4  -2   2   32.80    1.94
   4  -2   2   36.33    2.16
   4  -2   2   37.50    2.01
   4  -2   2   34.82    1.62
   4   2   2   29.96    2.07
   4   2   2   31.19    2.01
   4   2   2   34.03    2.16
  -4   2  -2   30.41    2.04
  -4   2  -2   32.67    1.83
   4   2   2   33.80    1.62
   6  -2   2   28.35    1.86
   6  -2   2   28.05    1.66
  -6  -2  -2   25.46    1.88
  -6  -2  -2   25.53    1.49
   6  -2   2   27.95    2.10
  -6  -2  -2   25.60    1.95
  -6  -2  -2   26.20    2.58
   6  -2   2   29.60    2.15
  -6   2  -2   27.34    2.10
   6   2   2   31.67    2.31
   6   2   2   29.46    2.06
  -6   2  -2   27.58    1.73
   8  -2   2   14.06    1.49
  -8  -2  -2   14.16    2.21
   8  -2   2   15.61    1.91
  -8  -2  -2   12.13    1.71
  -8  -2  -2   15.10    1.72
   8  -2   2   12.13    1.36
   8   2   2   15.42    1.72
   8   2   2   13.61    1.94
  -8   2  -2   14.30    1.44
  -8   2  -2   14.02    1.91
  10  -2   2   31.49    2.62
  10  -2   2   27.45    2.08
 -10  -2  -2   28.26    2.75
  10  -2   2   31.17    2.14
 -10  -2  -2   30.28    2.39
 -10  -2  -2   32.03    3.33
  10   2   2   30.33    2.46
 -10   2  -2   30.20    2.81
 -10   2  -2   28.58    2.04
  10   2   2   34.23    3.06
 -12  -2  -2   15.34    2.60
 -12  -2  -2   16.66    2.55
  12  -2   2   22.24    2.06
  12  -2   2   16.59    2.37
  12  -2   2   16.05    1.87
 -12  -2  -2   15.32    2.09
 -12   2  -2   18.45    2.54
  12   2   2   16.37    2.78
 -12   2  -2   14.87    1.70
  12   2   2   15.17    2.07
  14  -2   2    0.09    1.68
 -14  -2  -2    2.15    1.86
  14  -2   2    0.57    1.04
 -14  -2  -2    0.99    1.63
 -14  -2  -2   -0.70    1.67
  14  -2   2   -0.41    0.82
  14   2   2    2.12    1.49
  14   2   2    1.99    2.25
 -14   2  -2    1.28    0.95
 -14   2  -2   -0.13    1.64
 -16  -2  -2   15.94    2.83
 -16  -2  -2   12.46    2.80
 -16  -2  -2   17.39    3.36
  16  -2   2   12.36    1.80
  16  -2   2   12.93    2.04
  16  -2   2   11.08    2.67
  16   2   2   11.92    2.27
 -16   2  -2    9.65    2.73
  16   2   2   14.37    3.42
 -16   2  -2   13.86    1.80
 -18  -2  -2    1.79    2.45
 -18  -2  -2   -0.03    2.66
  18  -2   2    0.12    2.34
 -18  -2  -2    0.90    2.51
 -18   2  -2    1.26    2.43
  18   2   2    1.12    1.97
  18   2   2    2.78    3.31
 -20  -2  -2    3.38    3.59
 -20  -2  -2    1.99    3.27
  20  -2   2    0.45    2.94
 -20  -2  -2    1.14    2.89
  20   2   2    5.90    3.94
 -20   2  -2   -0.97    2.93
  20   2   2    2.38    2.40
 -19  -3   2    1.26    3.53
 -19  -3   2    3.15    3.52
 -19  -3   2    7.13    3.55
  19  -3  -2    4.00    3.33
 -19   3   2   -0.65    3.12
  19   3  -2    5.87    3.03
  19   3  -2    8.13    4.59
  17  -3  -2    7.22    2.02
 -17  -3   2    5.76    3.35
  17  -3  -2   13.61    2.26
  17  -3  -2    6.58    2.97
 -17  -3   2   10.74    3.47
 -17  -3   2   13.77    3.37
  17   3  -2   11.96    3.00
  17   3  -2   19.22    4.57
 -17   3   2    6.32    1.87
 -17   3   2   10.77    3.24
 -15  -3   2    7.31    2.81
 -15  -3   2   11.96    2.70
  15  -3  -2    7.69    2.67
  15  -3  -2    8.01    1.81
  15  -3  -2    9.39    1.82
 -15  -3   2    7.26    3.28
 -15   3   2   12.99    3.05
 -15   3   2   12.06    2.12
  15   3  -2   10.83    2.74
  15   3  -2    7.47    3.34
 -13  -3   2   19.25    2.65
  13  -3  -2   11.77    2.51
 -13  -3   2   13.82    2.71
 -13   3   2   18.11    3.17
  13   3  -2   11.55    2.47
 -13   3   2   12.52    2.01
  13   3  -2   12.78    3.16
 -11  -3   2   40.62    3.48
 -11  -3   2   42.73    3.19
  11  -3  -2   45.35    2.97
  11  -3  -2   37.53    3.39
  11   3  -2   41.98    3.41
  11   3  -2   42.30    4.11
 -11   3   2   45.07    3.93
 -11   3   2   41.22    2.98
   9  -3  -2   35.44    2.38
  -9  -3   2   24.98    2.50
  -9  -3   2   37.44    2.58
   9  -3  -2   36.03    2.90
  -9   3   2   29.35    2.48
   9   3  -2   42.51    3.72
  -9   3   2   36.20    3.46
   9   3  -2   39.74    3.09
   7  -3  -2   24.19    1.82
   7  -3  -2   26.40    2.33
  -7  -3   2   29.98    2.14
  -7   3   2   27.42    2.29
   7   3  -2   27.54    3.03
   7   3  -2   28.94    2.55
  -7   3   2   30.81    2.92
   5  -3  -2   24.99    2.13
  -5  -3   2   25.25    1.88
   5  -3  -2   25.58    1.58
  -5  -3   2   25.93    1.63
   5   3  -2   23.76    1.52
   5   3  -2   20.87    2.53
  -5   3   2   22.94    2.47
   5   3  -2   22.59    2.23
  -5   3   2   21.47    2.04
  -3  -3   2   17.45    1.62
  -3  -3   2   22.39    1.63
   3  -3  -2   17.94    1.80
  -3   3   2   21.15    1.90
   3   3  -2   17.63    1.85
  -3   3   2   26.48    2.49
   3   3  -2   21.65    2.46
   3   3  -2   19.24    1.76
   3   3  -2   18.17    1.49
   1  -3  -2   21.17    2.03
   1  -3  -2   18.26    1.63
  -1  -3   2   18.83    1.65
  -1   3   2   19.25    1.71
   1   3  -2   17.71    1.69
  -1   3   2   19.36    1.60
   1   3  -2   19.33    1.57
   1   3  -2   20.20    1.77
  -1   3   2   22.12    2.16
  -1   3   2   20.18    1.83
   1   3  -2   19.09    2.15
  -1  -3  -2   75.45    3.35
  -1  -3  -2   78.21    3.98
   1  -3   2   72.05    3.61
   1  -3   2   76.77    3.42
  -1   3  -2   75.81    3.37
   1   3   2   76.19    3.41
  -1   3  -2   79.94    3.81
  -1   3  -2   79.79    3.30
   1   3   2   75.95    3.37
   1   3   2   81.78    3.80
  -1   3  -2   77.60    3.50
   1   3   2   77.31    3.49
  -3  -3  -2  140.00    6.06
   3  -3   2  133.58    5.42
  -3  -3  -2  135.76    5.43
   3  -3   2  136.96    5.16
  -3   3  -2  136.66    5.46
  -3   3  -2  141.78    5.54
   3   3   2  128.79    4.84
  -3   3  -2  139.30    5.30
   3   3   2  126.45    5.33
   3   3   2  131.55    5.30
   3   3   2  130.80    5.20
  -5  -3  -2   26.74    2.21
   5  -3   2   22.71    1.54
   5  -3   2   25.84    2.51
   5  -3   2   23.28    2.08
  -5  -3  -2   30.07    3.06
  -5   3  -2   27.94    2.38
   5   3   2   25.14    2.25
   5   3   2   23.21    2.28
  -5   3  -2   27.58    2.07
   5   3   2   22.63    1.67
   5   3   2   22.27    2.15
  -7  -3  -2    3.86    1.97
   7  -3   2    7.53    1.38
   7  -3   2    6.59    1.58
   7  -3   2    4.82    0.98
  -7  -3  -2    7.09    1.40
  -7  -3  -2    7.18    1.48
  -7   3  -2    7.52    1.58
   7   3   2    5.63    1.45
  -7   3  -2    7.49    1.32
   7   3   2    4.33    1.59
  -9  -3  -2   13.86    1.97
   9  -3   2   19.03    2.42
   9  -3   2   19.02    2.04
  -9  -3  -2   10.51    1.74
  -9  -3  -2   15.63    2.76
   9  -3   2   19.19    1.84
  -9   3  -2   18.63    2.03
   9   3   2   13.20    2.36
  -9   3  -2   17.10    2.43
   9   3   2   17.32    2.26
  11  -3   2   33.11    3.20
  11  -3   2   27.26    2.44
 -11  -3  -2   27.21    2.87
  11  -3   2   27.40    2.30
 -11  -3  -2   28.84    2.77
 -11  -3  -2   29.06    3.70
 -11   3  -2   27.76    3.24
 -11   3  -2   28.10    2.49
  11   3   2   23.95    3.28
  11   3   2   31.76    3.10
  13  -3   2   27.67    2.56
  13  -3   2   29.55    3.43
 -13  -3  -2   28.16    3.34
  13  -3   2   27.10    2.70
 -13  -3  -2   26.29    3.86
 -13  -3  -2   27.50    3.14
 -13   3  -2   28.62    2.72
  13   3   2   26.48    3.74
 -13   3  -2   31.78    3.71
  13   3   2   30.34    3.28
 -15  -3  -2   26.35    3.66
  15  -3   2   32.99    2.92
  15  -3   2   32.58    3.17
 -15  -3  -2   28.84    4.26
 -15  -3  -2   34.48    3.71
  15  -3   2   41.29    4.43
 -15   3  -2   35.97    3.22
  15   3   2   28.82    4.40
 -15   3  -2   39.12    4.66
  15   3   2   40.58    4.11
  17  -3   2   28.13    4.10
  17  -3   2   23.39    2.65
 -17  -3  -2   27.33    4.21
  17  -3   2   25.35    3.10
 -17  -3  -2   18.84    4.08
 -17  -3  -2   22.73    3.75
 -17   3  -2   29.74    4.48
 -17   3  -2   22.59    2.62
  17   3   2   28.73    3.77
  17   3   2   20.54    4.58
 -19  -3  -2    0.90    3.46
 -19  -3  -2    0.49    3.30
  19  -3   2   -0.71    2.96
 -19  -3  -2    2.56    3.20
 -19   3  -2    5.97    3.49
  19   3   2   -0.32    4.59
  19   3   2    0.22    2.65
  18  -4  -2    3.28    2.36
  18  -4  -2    6.81    3.89
 -18   4   2    6.56    3.59
  18   4  -2    4.21    4.78
 -16  -4   2   18.21    3.95
  16  -4  -2   25.14    3.02
 -16  -4   2   19.74    4.01
  16  -4  -2   22.54    3.03
 -16  -4   2   19.11    4.79
  16  -4  -2   16.91    3.49
 -16   4   2   22.65    4.10
  16   4  -2   22.00    4.79
 -16   4   2   17.20    2.77
  16   4  -2   23.63    4.20
  14  -4  -2   39.84    3.42
 -14  -4   2   44.56    5.70
 -14  -4   2   32.63    3.84
 -14  -4   2   33.79    4.01
  14  -4  -2   45.73    4.55
  14  -4  -2   35.98    3.49
  14   4  -2   44.22    4.76
 -14   4   2   37.46    3.63
 -14   4   2   34.13    4.46
  14   4  -2   37.76    5.19
 -12  -4   2   72.56    4.99
 -12  -4   2   79.69    4.91
 -12  -4   2   75.38    6.86
  12  -4  -2   83.39    5.28
  12   4  -2   72.38    5.12
  12   4  -2   61.10    5.75
 -12   4   2   76.87    5.58
 -12   4   2   72.65    4.53
 -10  -4   2   53.33    3.71
  10  -4  -2   47.02    3.86
  10   4  -2   44.01    4.58
 -10   4   2   49.76    3.63
 -10   4   2   49.51    4.35
  10   4  -2   42.83    4.06
  -8  -4   2   29.51    2.71
   8  -4  -2   30.30    2.25
   8  -4  -2   25.94    2.83
   8   4  -2   26.90    3.50
  -8   4   2   40.21    3.84
  -8   4   2   32.75    3.04
   8   4  -2   31.62    3.31
  -6  -4   2   48.49    3.06
   6  -4  -2   52.20    2.61
   6  -4  -2   53.66    3.53
   6   4  -2   47.52    4.14
   6   4  -2   57.63    3.76
  -6   4   2   53.47    3.41
  -6   4   2   49.28    3.89
   4  -4  -2   79.94    3.98
  -4  -4   2   72.36    3.64
  -4  -4   2   70.41    3.38
  -4   4   2   76.53    3.97
   4   4  -2   72.98    3.82
   4   4  -2   77.27    3.42
   4   4  -2   76.55    4.14
   4   4  -2   72.93    4.66
  -4   4   2   71.58    4.40
  -2  -4   2  168.62    6.38
   2  -4  -2  170.15    6.72
  -2  -4   2  172.64    7.11
  -2  -4   2  166.20    6.50
  -2   4   2  172.32    7.22
   2   4  -2  179.96    6.83
   2   4  -2  173.74    7.41
   2   4  -2  169.72    6.69
  -2   4   2  174.14    6.74
   2   4  -2  174.85    6.42
   0  -4   2   98.31    4.55
   0  -4  -2  103.51    4.74
   0  -4   2  109.06    5.15
   0  -4  -2  115.93    5.35
   0   4   2  106.58    4.69
   0   4  -2  105.94    4.63
   0   4   2  103.61    5.11
   0   4   2  105.14    4.53
   0   4  -2  105.63    4.62
   0   4   2  103.66    4.66
   0   4  -2  108.29    4.80
   0   4  -2  108.37    5.20
  -2  -4  -2   49.57    3.14
   2  -4   2   57.40    3.23
  -2  -4  -2   49.34    3.77
  -2  -4  -2   47.93    3.26
   2  -4   2   48.70    3.52
   2   4   2   47.00    3.44
  -2   4  -2   48.41    3.01
   2   4   2   55.78    3.26
   2   4   2   47.49    2.95
  -2   4  -2   50.50    3.49
   2   4   2   52.59    3.17
  -4  -4  -2   17.61    2.17
   4  -4   2   17.72    2.07
   4  -4   2   17.86    2.45
  -4  -4  -2   15.92    2.76
  -4   4  -2   14.48    1.91
   4   4   2   17.77    1.82
  -4   4  -2   16.77    2.19
   4   4   2   17.57    2.28
   4   4   2   19.86    2.25
   4   4   2   17.02    2.28
   6  -4   2  107.86    5.38
  -6  -4  -2  111.33    5.26
  -6  -4  -2  110.37    6.35
   6  -4   2  111.20    4.26
   6  -4   2  112.04    5.07
  -6   4  -2  117.22    5.17
   6   4   2   95.87    5.31
  -6   4  -2  111.80    5.45
   6   4   2  114.98    5.36
   6   4   2  105.49    5.24
  -8  -4  -2   89.92    4.85
   8  -4   2   94.22    4.10
   8  -4   2   95.70    5.24
  -8  -4  -2   97.20    6.28
   8  -4   2   91.58    4.71
  -8   4  -2  100.24    4.81
   8   4   2   96.74    5.16
  -8   4  -2   97.89    5.21
  10  -4   2   59.15    3.84
 -10  -4  -2   80.51    5.93
  10  -4   2   64.33    4.48
  10  -4   2   64.40    3.47
 -10  -4  -2   61.51    4.26
 -10  -4  -2   62.89    4.06
 -10   4  -2   69.80    4.76
  10   4   2   67.28    4.47
 -10   4  -2   68.05    4.09
  12  -4   2   72.20    3.99
 -12  -4  -2   63.31    4.52
  12  -4   2   69.71    4.30
  12  -4   2   75.70    5.06
 -12  -4  -2   59.92    4.50
 -12  -4  -2   68.90    6.25
 -12   4  -2   66.13    5.06
 -12   4  -2   65.23    4.09
  12   4   2   71.78    5.07
  14  -4   2    6.46    2.84
  14  -4   2    5.80    1.90
 -14  -4  -2    5.35    2.66
  14  -4   2    7.27    1.98
 -14  -4  -2    7.96    3.57
 -14  -4  -2    3.50    2.54
 -14   4  -2    9.38    2.17
 -14   4  -2   10.84    3.05
  14   4   2    7.84    2.92
  16  -4   2   15.94    2.66
 -16  -4  -2   10.96    3.35
  16  -4   2   16.73    2.64
 -16  -4  -2   25.22    5.15
 -16  -4  -2   12.30    3.35
  16  -4   2   16.31    3.77
 -16   4  -2   14.61    2.51
 -16   4  -2   20.42    4.12
  16   4   2   15.31    3.52
  13  -5  -2   13.97    2.96
  13  -5  -2   14.31    2.76
 -13  -5   2    8.56    5.78
  13   5  -2   13.01    3.96
 -13   5   2   12.24    3.01
 -13   5   2   19.08    4.03
  11  -5  -2    6.21    2.24
  11  -5  -2    7.70    1.75
 -11  -5   2    2.44    3.88
 -11   5   2    7.95    2.33
  11   5  -2    7.77    3.13
 -11   5   2    5.75    3.05
   9  -5  -2   58.02    3.38
  -9  -5   2   60.39    6.36
   9  -5  -2   59.92    4.34
  -9   5   2   51.25    4.22
   9   5  -2   46.53    5.19
  -9   5   2   55.73    5.12
   9   5  -2   52.82    4.99
  -7  -5   2   71.23    6.50
   7  -5  -2   70.60    4.55
  -7   5   2   67.37    4.56
  -7   5   2   78.55    5.49
   7   5  -2   57.68    5.30
   7   5  -2   70.08    5.06
  -5  -5   2  106.80    7.14
  -5  -5   2   87.67    5.48
   5   5  -2   85.78    5.14
  -5   5   2   86.35    5.64
  -5   5   2   91.46    5.11
   5   5  -2   75.89    5.51
  -3  -5   2   64.41    4.64
  -3  -5   2   63.94    5.40
   3   5  -2   64.55    4.73
  -3   5   2   62.19    4.65
   3   5  -2   65.26    4.27
  -3   5   2   64.86    4.16
  -1  -5   2   10.85    1.91
  -1  -5   2   15.14    2.71
  -1   5   2    8.98    2.35
   1   5  -2   10.75    2.58
   1   5  -2    9.33    1.86
  -1   5   2   10.82    2.04
  -1  -5  -2   45.72    3.72
   1  -5   2   45.53    4.09
   1  -5   2   39.61    3.26
   1   5   2   42.20    3.26
  -1   5  -2   37.78    3.66
   1   5   2   36.06    3.66
  -1   5  -2   39.39    3.23
  -3  -5  -2   93.48    5.17
   3  -5   2   94.98    5.58
  -3  -5  -2   86.58    5.97
   3  -5   2   90.68    4.88
   3   5   2   91.59    5.41
  -3   5  -2   92.81    4.87
   3   5   2   88.58    4.91
   5  -5   2   89.01    4.87
  -5  -5  -2   78.82    4.89
   5  -5   2   86.65    5.40
  -5  -5  -2   79.36    5.96
  -5   5  -2   87.42    4.80
   5   5   2   75.36    5.05
   5   5   2   93.84    5.43
   7  -5   2   43.87    4.31
  -7  -5  -2   37.68    3.71
  -7  -5  -2   35.20    4.74
   7  -5   2   35.17    3.40
   7   5   2   37.97    4.10
  -7   5  -2   38.33    3.53
   9  -5   2   26.59    3.66
  -9  -5  -2   24.09    4.52
  -9  -5  -2   24.70    3.28
   9  -5   2   29.52    2.64
   9  -5   2   27.95    3.26
   9   5   2   30.14    3.93
  -9   5  -2   27.26    3.09
  11  -5   2   19.26    2.37
  11  -5   2   17.41    3.28
 -11  -5  -2   15.90    4.51
  11  -5   2   20.28    2.77
 -11  -5  -2   16.70    3.06
 -11   5  -2   22.04    3.12
  11   5   2   21.93    3.78
  13  -5   2   36.47    4.62
 -13  -5  -2   24.34    3.80
 -13   5  -2   19.89    4.09
   6   6  -2    2.43    3.72
  -6   6   2   -0.37    2.96
   4  -6  -2   12.18    2.83
  -4   6   2    6.99    2.48
   2  -6  -2   25.04    3.31
  -2   6   2   28.26    3.39
   2  -6   2   11.20    2.49
  -2   6  -2   10.21    2.53
   4  -6   2    4.18    2.21
  -4   6  -2    4.06    2.26
   6   6   2    4.11    3.54
  22   0  -3    4.45    3.54
 -22   0   3    0.93    3.47
  20   0  -3   -0.41    2.69
 -20   0   3    0.43    2.85
  18   0  -3    1.42    2.25
 -18   0   3    1.33    2.48
 -16   0   3   -2.25    1.67
  16   0  -3   -0.20    1.82
  14   0  -3    4.13    1.82
  14   0  -3    1.26    0.99
 -14   0   3    3.16    1.71
 -14   0   3    0.34    1.35
  12   0  -3    0.25    0.96
  12   0  -3    0.99    0.90
  12   0  -3    3.48    1.49
 -12   0   3    2.89    1.43
 -12   0   3    0.51    1.12
 -10   0   3    0.16    0.49
 -10   0   3    0.06    0.92
 -10   0   3    2.23    1.12
  10   0  -3    1.71    1.16
  10   0  -3   -0.01    0.72
  10   0  -3    0.43    0.73
   8   0  -3   -0.53    0.59
  -8   0   3   -0.06    0.79
   8   0  -3    0.32    0.59
  -8   0   3    0.41    0.44
  -8   0   3    0.31    0.95
   8   0  -3   -0.41    0.90
  -6   0   3    0.68    0.73
   6   0  -3   -0.38    0.50
   6   0  -3    0.34    0.52
  -6   0   3    0.56    0.41
  -6   0   3    0.41    0.80
   6   0  -3   -0.25    0.77
  -4   0   3    0.21    0.35
   4   0  -3   -0.08    0.62
   4   0  -3   -0.05    0.45
  -4   0   3    0.99    0.66
   4   0  -3    0.66    0.51
  -4   0   3   -0.36    0.59
  -2   0   3    0.25    0.51
  -2   0   3   -0.19    0.35
  -2   0   3   -0.42    0.47
   2   0  -3    0.43    0.46
   2   0  -3    0.59    0.49
   2   0  -3    0.48    0.57
   0   0  -3    0.70    0.49
   0   0   3    0.02    0.31
   0   0  -3    0.14    0.43
   0   0  -3   -0.10    0.39
   0   0   3    0.12    0.37
   0   0   3   -0.07    0.31
   2   0   3   -0.22    0.32
   2   0   3    0.23    0.38
  -2   0  -3    0.53    0.37
  -2   0  -3    0.16    0.58
  -2   0  -3   -0.32    0.56
   2   0   3    0.14    0.41
  -4   0  -3    0.13    0.66
   4   0   3   -0.15    0.32
  -4   0  -3   -0.14    0.43
   4   0   3    0.30    0.53
  -4   0  -3    0.07    0.62
   4   0   3   -0.29    0.40
  -6   0  -3    1.58    0.93
  -6   0  -3   -0.31    0.63
   6   0   3   -0.46    0.39
   6   0   3    0.28    0.72
   6   0   3    0.05    0.34
  -6   0  -3    0.37    0.59
  -8   0  -3   -0.45    0.73
  -8   0  -3    0.27    0.75
   8   0   3   -0.27    0.37
  -8   0  -3   -1.19    0.83
   8   0   3   -0.55    0.48
   8   0   3    0.99    0.90
 -10   0  -3   -1.28    0.97
  10   0   3    0.17    0.62
 -10   0  -3   -1.00    0.83
  10   0   3   -0.11    0.42
 -10   0  -3    0.67    0.89
  10   0   3   -0.99    1.01
 -12   0  -3    0.15    1.33
  12   0   3    0.35    1.43
 -12   0  -3    0.82    1.24
  12   0   3   -0.66    0.44
 -12   0  -3   -0.48    0.90
 -14   0  -3   -0.75    1.03
  14   0   3   -0.09    1.61
 -14   0  -3   -1.78    1.39
 -14   0  -3   -0.78    1.55
  16   0   3   -0.93    1.88
 -16   0  -3   -0.97    1.73
 -18   0  -3    2.20    2.54
  18   0   3    1.15    2.41
  20   0   3    0.14    2.69
 -20   0  -3   -0.13    2.79
 -22   0  -3   -0.71    3.26
  22   0   3    4.62    3.85
 -21  -1   3    7.84    3.85
  21  -1  -3   14.62    3.93
 -21   1   3   13.50    3.60
  21   1  -3    7.20    3.82
  19  -1  -3   18.83    3.56
 -19  -1   3   17.02    3.59
  19   1  -3   20.38    4.27
 -19   1   3   17.21    3.47
 -17  -1   3   49.23    4.54
  17  -1  -3   33.93    3.89
 -17  -1   3   35.71    4.23
  17   1  -3   34.86    3.15
  17   1  -3   38.51    4.70
 -17   1   3   38.77    4.13
 -15  -1   3   75.75    4.66
 -15  -1   3   72.16    4.84
  15  -1  -3   75.44    4.75
 -15   1   3   71.75    4.76
  15   1  -3   67.64    3.82
  15   1  -3   67.73    5.07
  13  -1  -3    9.77    1.70
 -13  -1   3    7.43    1.86
  13  -1  -3    5.60    1.86
 -13  -1   3   12.02    2.12
 -13   1   3    7.28    1.20
  13   1  -3    9.43    2.27
 -13   1   3    6.79    1.89
  13   1  -3    9.15    1.63
  11  -1  -3   77.83    4.17
 -11  -1   3   76.33    4.18
 -11  -1   3   70.94    3.71
  11  -1  -3   81.77    3.71
  11   1  -3   79.90    3.68
  11   1  -3   76.74    4.47
 -11   1   3   75.44    3.23
 -11   1   3   75.20    4.08
   9  -1  -3   23.00    2.23
  -9  -1   3   23.25    2.28
  -9  -1   3   23.75    1.89
   9  -1  -3   23.10    1.77
  -9   1   3   23.34    2.20
   9   1  -3   21.55    2.40
   9   1  -3   23.18    1.86
  -9   1   3   19.63    2.09
  -9   1   3   21.65    1.55
   7  -1  -3  188.05    6.30
   7  -1  -3  185.61    6.51
  -7  -1   3  194.67    6.85
  -7  -1   3  181.03    6.35
   7   1  -3  173.68    6.81
  -7   1   3  187.70    6.79
  -7   1   3  193.23    6.92
   7   1  -3  187.76    6.37
  -7   1   3  195.74    6.37
   5  -1  -3   79.20    3.14
  -5  -1   3   70.61    2.70
  -5  -1   3   70.66    3.03
   5  -1  -3   77.56    3.04
  -5   1   3   74.13    2.80
  -5   1   3   71.87    3.22
   5   1  -3   77.67    3.58
   5   1  -3   78.77    3.11
  -3  -1   3  122.12    4.18
  -3  -1   3  114.91    3.94
   3  -1  -3  120.19    4.04
   3  -1  -3  120.11    4.09
  -3  -1   3  127.85    3.94
  -3  -1   3  129.88    4.12
  -3   1   3  118.09    4.47
   3   1  -3  122.80    4.61
   3   1  -3  119.38    4.16
  -3   1   3  129.06    4.21
   1  -1  -3  103.25    3.48
   1  -1  -3   87.64    3.22
   1  -1  -3  106.70    3.46
   1  -1  -3  106.20    3.63
  -1  -1   3  102.08    3.30
  -1  -1   3   99.25    3.28
  -1  -1   3   98.22    3.08
  -1  -1   3   96.33    3.26
  -1   1   3   96.72    3.63
   1   1  -3  103.11    3.88
   1   1  -3  104.19    3.50
  -1   1   3   98.90    3.38
   1   1  -3  109.11    3.24
   1  -1   3  213.32    6.98
   1  -1   3  223.95    7.19
  -1  -1  -3  206.77    6.85
  -1  -1  -3  224.06    6.98
   1  -1   3  240.78    7.04
  -1  -1  -3  228.52    7.32
   1  -1   3  219.73    6.89
   1   1   3  221.38    6.94
  -1   1  -3  210.99    6.80
  -1   1  -3  234.11    6.97
  -1   1  -3  230.73    7.30
   1   1   3  220.47    7.21
  -1   1  -3  222.97    6.88
   3  -1   3  203.23    6.33
  -3  -1  -3  202.78    6.64
  -3  -1  -3  210.79    7.00
  -3  -1  -3  186.58    6.45
  -3  -1  -3  208.03    6.63
   3  -1   3  189.83    6.50
   3  -1   3  193.34    6.25
  -3   1  -3  213.33    6.53
  -3   1  -3  202.94    6.51
   3   1   3  198.06    6.11
   3   1   3  192.48    6.40
   3   1   3  203.50    6.53
   3   1   3  194.72    6.26
   5  -1   3   60.50    2.44
  -5  -1  -3   62.22    2.59
  -5  -1  -3   61.20    3.04
  -5  -1  -3   59.21    2.79
   5  -1   3   61.58    2.76
   5  -1   3   61.21    2.48
   5   1   3   62.45    2.13
  -5   1  -3   60.18    2.65
   5   1   3   57.42    2.61
  -5   1  -3   62.68    2.44
   5   1   3   58.38    2.59
  -7  -1  -3   59.37    3.18
  -7  -1  -3   58.03    2.65
   7  -1   3   60.93    2.70
  -7  -1  -3   56.72    3.02
   7  -1   3   63.53    2.98
   7  -1   3   61.80    2.57
  -7   1  -3   54.99    2.96
   7   1   3   63.46    2.78
  -7   1  -3   58.85    2.43
  -7   1  -3   59.15    2.88
   7   1   3   59.10    3.00
  -9  -1  -3   20.54    1.83
   9  -1   3   22.33    1.96
   9  -1   3   21.22    1.67
  -9  -1  -3   23.74    2.30
   9  -1   3   19.81    1.43
  -9  -1  -3   22.10    2.25
   9   1   3   22.32    2.17
   9   1   3   23.17    1.79
  -9   1  -3   20.15    1.40
  -9   1  -3   24.90    2.18
  -9   1  -3   26.12    2.39
 -11  -1  -3  106.99    5.08
  11  -1   3   89.41    4.09
 -11  -1  -3  100.27    4.46
 -11  -1  -3  102.26    4.85
  11  -1   3   99.13    3.79
  11  -1   3   93.31    4.53
 -11   1  -3   99.51    3.86
  11   1   3  103.53    4.85
 -11   1  -3   97.78    4.75
  11   1   3   92.47    4.06
  13  -1   3   59.90    3.90
  13  -1   3   64.04    3.37
 -13  -1  -3   60.70    3.91
 -13  -1  -3   59.95    3.63
  13  -1   3   59.86    2.84
 -13  -1  -3   67.15    4.39
  13   1   3   67.18    4.27
 -13   1  -3   62.84    4.09
  13   1   3   59.66    3.26
  15  -1   3   59.43    4.43
 -15  -1  -3   56.69    4.07
 -15  -1  -3   59.11    4.57
 -15  -1  -3   67.61    4.22
  15   1   3   66.58    3.57
 -15   1  -3   64.92    4.48
  15   1   3   62.08    4.75
 -17  -1  -3   13.43    2.79
 -17  -1  -3   13.26    3.01
  17  -1   3   13.79    3.07
 -17  -1  -3   12.28    2.43
  17   1   3   12.75    3.01
 -17   1  -3   11.89    3.08
  19  -1   3    8.89    3.17
 -19  -1  -3    7.01    2.97
 -19   1  -3   10.25    3.23
  19   1   3    6.91    3.22
  21  -1   3   13.28    3.72
 -21  -1  -3    5.79    3.63
 -21   1  -3    4.36    3.44
  21   1   3   10.46    3.88
 -20  -2   3   29.14    4.84
 -20  -2   3   26.00    4.23
 -20  -2   3   34.24    5.03
  20  -2  -3   22.65    4.20
 -20   2   3   28.12    4.95
  20   2  -3   28.15    5.44
  20   2  -3   28.37    3.76
 -18  -2   3   25.61    3.90
 -18  -2   3   21.40    3.75
 -18  -2   3   28.02    4.24
  18  -2  -3   25.28    3.87
  18   2  -3   20.70    4.39
 -18   2   3   22.96    4.17
  18   2  -3   25.69    3.42
 -16  -2   3   17.06    3.10
  16  -2  -3   25.85    3.53
 -16  -2   3   18.17    3.30
  16   2  -3   20.23    3.82
 -16   2   3   22.47    3.55
 -16   2   3   23.27    2.38
  16   2  -3   20.01    2.78
 -14  -2   3  101.16    5.15
  14  -2  -3   97.07    5.36
  14  -2  -3   97.25    4.91
 -14  -2   3   88.80    5.57
  14   2  -3   93.97    6.14
  14   2  -3   94.73    4.97
 -14   2   3   97.01    5.66
 -14   2   3   91.90    4.38
  12  -2  -3  131.05    5.93
  12  -2  -3  129.49    5.43
 -12  -2   3  138.65    5.78
 -12  -2   3  141.17    6.40
  12   2  -3  123.59    5.61
 -12   2   3  135.34    6.43
  12   2  -3  124.71    6.52
 -12   2   3  134.02    5.46
  10  -2  -3  112.71    5.10
 -10  -2   3  127.55    5.05
 -10  -2   3  122.43    5.52
  10  -2  -3  115.01    4.81
 -10   2   3  113.32    5.61
 -10   2   3  123.59    4.95
  10   2  -3  116.77    5.91
  10   2  -3  116.52    5.01
  -8  -2   3  100.25    4.37
   8  -2  -3   97.30    4.27
   8  -2  -3   96.99    3.97
  -8  -2   3   92.51    3.88
  -8   2   3   91.64    4.00
   8   2  -3   95.61    4.21
  -8   2   3   99.15    4.65
   8   2  -3   95.63    4.92
   6  -2  -3   79.85    3.51
   6  -2  -3   88.20    3.39
  -6  -2   3   81.56    3.10
   6  -2  -3   82.43    3.84
  -6  -2   3   77.60    3.43
  -6  -2   3   73.15    3.09
   6   2  -3   77.98    3.61
  -6   2   3   80.83    3.41
  -6   2   3   83.74    3.93
   6   2  -3   88.79    4.32
   4  -2  -3  294.24    9.47
  -4  -2   3  273.32    9.07
   4  -2  -3  292.34    9.62
   4  -2  -3  308.71    9.79
  -4  -2   3  283.38    8.98
   4   2  -3  297.27    9.82
   4   2  -3  311.14   10.43
  -4   2   3  296.18    9.45
  -4   2   3  305.36    9.93
   2  -2  -3  301.04    9.29
   2  -2  -3  289.74    8.93
  -2  -2   3  281.06    8.77
   2  -2  -3  294.54    9.10
  -2  -2   3  282.26    8.82
   2  -2  -3  269.63    9.04
   2   2  -3  279.01    9.02
   2   2  -3  292.37    9.82
  -2   2   3  277.49    9.07
  -2   2   3  277.85    9.43
   2   2  -3  288.96    9.29
   2   2  -3  284.53    8.99
   0  -2  -3  253.57    8.22
   0  -2  -3  220.28    7.59
   0  -2   3  254.33    8.02
   0   2   3  240.02    8.01
   0   2  -3  253.95    8.41
   0   2   3  254.18    8.01
   0   2  -3  241.76    7.76
   0   2  -3  251.66    7.81
   0   2  -3  230.76    7.68
   0   2   3  242.42    7.83
   0   2   3  246.78    8.42
   2  -2   3   94.45    3.86
  -2  -2  -3   89.02    3.64
  -2  -2  -3   89.45    3.99
   2  -2   3   95.08    3.25
   2  -2   3   96.56    3.65
   2   2   3   93.03    3.48
  -2   2  -3   82.66    3.34
  -2   2  -3   91.80    3.80
   2   2   3   93.63    3.90
  -2   2  -3   90.86    3.22
   2   2   3   94.86    3.57
  -2   2  -3   86.96    3.39
   2   2   3   94.13    3.69
   4  -2   3  140.25    5.36
  -4  -2  -3  140.70    5.80
   4  -2   3  148.96    5.17
   4  -2   3  144.91    4.86
   4  -2   3  151.92    5.21
  -4  -2  -3  151.29    5.28
  -4  -2  -3  140.19    5.01
   4   2   3  144.91    5.35
   4   2   3  139.26    5.19
  -4   2  -3  141.27    5.09
   4   2   3  134.13    4.78
   4   2   3  138.41    5.21
  -4   2  -3  141.09    5.20
  -6  -2  -3  178.46    6.14
   6  -2   3  170.56    6.03
  -6  -2  -3  184.54    6.57
  -6  -2  -3  179.34    6.52
  -6  -2  -3  186.52    7.32
   6  -2   3  181.64    6.55
   6  -2   3  182.96    6.27
   6   2   3  173.07    6.37
  -6   2  -3  191.49    6.74
  -6   2  -3  193.11    6.48
   6   2   3  174.15    6.50
  -8  -2  -3  242.15    8.74
  -8  -2  -3  243.53    8.54
   8  -2   3  257.55    8.94
  -8  -2  -3  246.97    9.41
   8  -2   3  254.35    8.41
   8  -2   3  242.26    8.44
   8   2   3  250.53    8.69
  -8   2  -3  257.66    8.93
  -8   2  -3  251.85    8.41
   8   2   3  238.22    8.88
 -10  -2  -3  175.07    7.54
 -10  -2  -3  170.53    6.66
  10  -2   3  188.49    7.00
  10  -2   3  170.91    6.35
 -10  -2  -3  173.49    6.99
  10  -2   3  171.10    6.43
  10   2   3  164.80    6.62
 -10   2  -3  179.22    7.10
  10   2   3  171.89    7.17
 -10   2  -3  178.19    6.39
  12  -2   3   44.19    2.62
 -12  -2  -3   44.27    3.62
 -12  -2  -3   37.27    3.01
  12  -2   3   44.46    3.33
  12  -2   3   49.48    2.88
 -12  -2  -3   42.99    3.74
 -12   2  -3   40.11    3.47
  12   2   3   38.09    2.98
 -12   2  -3   42.34    2.51
  12   2   3   37.74    3.76
  14  -2   3   16.72    1.92
 -14  -2  -3   16.62    2.54
 -14  -2  -3   12.24    2.56
  14  -2   3   17.57    2.18
 -14  -2  -3   19.80    2.94
  14  -2   3   17.72    2.75
 -14   2  -3   14.86    1.80
  14   2   3   17.47    2.33
  14   2   3   20.19    3.37
 -14   2  -3   17.79    2.80
 -16  -2  -3   56.49    5.04
  16  -2   3   58.20    3.29
  16  -2   3   58.58    3.90
 -16  -2  -3   67.73    4.75
  16  -2   3   63.88    4.97
 -16  -2  -3   58.56    4.90
  16   2   3   67.50    4.30
  16   2   3   62.67    5.59
 -16   2  -3   70.73    5.21
 -18  -2  -3   87.46    6.25
  18  -2   3   93.94    6.29
 -18  -2  -3   99.28    6.78
 -18  -2  -3   86.90    6.10
 -18   2  -3   87.04    6.33
  18   2   3   79.81    6.94
  18   2   3   82.45    5.32
  20  -2   3   65.09    6.40
 -20  -2  -3   55.71    5.70
 -20  -2  -3   62.56    6.44
 -20  -2  -3   61.40    5.90
 -20   2  -3   63.24    6.21
  20   2   3   49.40    6.42
 -19  -3   3   36.75    5.45
 -19  -3   3   39.69    5.35
  19  -3  -3   54.50    5.79
 -19  -3   3   39.93    5.18
  19   3  -3   43.54    6.41
  19   3  -3   43.35    4.89
 -19   3   3   57.15    5.96
  17  -3  -3   71.49    5.77
 -17  -3   3   65.31    5.56
 -17  -3   3   65.49    6.00
  17  -3  -3   67.00    4.55
  17  -3  -3   68.42    4.21
 -17  -3   3   61.88    6.31
 -17   3   3   65.43    5.94
 -17   3   3   60.59    4.13
  17   3  -3   63.86    6.76
  17   3  -3   65.92    5.32
 -15  -3   3   25.84    3.36
  15  -3  -3   18.72    3.30
 -15  -3   3   23.43    3.53
  15   3  -3   17.78    3.08
 -15   3   3   21.45    3.53
  15   3  -3   20.44    4.19
 -15   3   3   25.35    2.84
 -13  -3   3   35.31    3.30
  13  -3  -3   32.41    3.56
 -13  -3   3   29.83    3.52
  13  -3  -3   36.18    3.19
  13   3  -3   40.36    3.82
 -13   3   3   32.31    2.92
 -13   3   3   30.11    3.73
  13   3  -3   29.58    4.21
  11  -3  -3   21.51    2.74
 -11  -3   3   17.75    2.54
 -11  -3   3   21.09    2.37
  11  -3  -3   18.82    2.12
 -11   3   3   23.08    3.16
  11   3  -3   23.74    2.80
  11   3  -3   16.53    3.14
 -11   3   3   24.73    2.48
  -9  -3   3  159.62    6.22
  -9  -3   3  157.46    6.53
   9  -3  -3  162.24    6.10
   9  -3  -3  161.86    6.50
  -9   3   3  171.69    7.18
   9   3  -3  156.48    6.68
   9   3  -3  158.48    7.37
  -9   3   3  155.85    6.37
  -7  -3   3  122.28    4.87
   7  -3  -3  126.97    5.24
   7  -3  -3  128.87    4.84
  -7   3   3  128.16    5.22
  -7   3   3  122.49    5.76
   7   3  -3  129.20    6.15
   7   3  -3  121.72    5.44
  -5  -3   3  166.52    6.04
  -5  -3   3  166.66    5.80
   5  -3  -3  157.82    6.07
   5  -3  -3  169.72    5.68
  -5   3   3  172.38    6.43
   5   3  -3  161.33    6.29
   5   3  -3  158.09    6.92
  -5   3   3  180.23    7.00
  -3  -3   3   45.34    2.37
  -3  -3   3   49.55    2.37
   3  -3  -3   46.93    2.50
  -3   3   3   49.20    3.11
   3   3  -3   45.60    2.44
   3   3  -3   44.31    2.25
  -3   3   3   49.85    2.80
   3   3  -3   50.43    3.34
   3   3  -3   49.90    2.80
  -1  -3   3   73.88    3.34
   1  -3  -3   78.63    3.81
   1  -3  -3   76.54    3.35
  -1  -3   3   75.95    3.28
   1   3  -3   78.50    3.50
  -1   3   3   78.07    3.95
   1   3  -3   76.58    3.35
  -1   3   3   80.30    3.59
   1   3  -3   84.90    3.37
   1   3  -3   80.42    4.13
  -1   3   3   81.00    3.29
   1  -3   3  134.68    5.46
  -1  -3  -3  135.11    5.08
   1  -3   3  134.60    5.12
  -1  -3  -3  149.40    5.86
  -1   3  -3  141.08    5.09
   1   3   3  138.41    5.60
   1   3   3  128.15    5.00
  -1   3  -3  139.66    5.21
  -1   3  -3  131.64    5.17
  -1   3  -3  143.00    5.76
   1   3   3  135.23    5.11
   1   3   3  139.12    5.18
   3  -3   3  191.92    7.32
   3  -3   3  195.59    6.99
  -3  -3  -3  187.35    7.07
  -3  -3  -3  189.01    7.62
   3   3   3  189.37    7.00
   3   3   3  194.11    7.29
  -3   3  -3  206.93    7.32
   3   3   3  193.73    7.05
   3   3   3  200.62    6.77
  -3   3  -3  192.96    6.87
  -3   3  -3  185.69    6.91
  -5  -3  -3  195.72    8.19
   5  -3   3  197.43    7.63
  -5  -3  -3  204.76    7.39
   5  -3   3  200.63    6.76
   5  -3   3  209.70    7.35
   5   3   3  203.15    7.53
  -5   3  -3  197.04    7.23
   5   3   3  199.58    7.42
  -5   3  -3  205.79    7.45
   5   3   3  200.78    6.83
   5   3   3  197.70    7.41
   7  -3   3   37.09    2.23
  -7  -3  -3   39.02    3.56
  -7  -3  -3   36.41    2.68
   7  -3   3   42.69    2.65
   7  -3   3   42.56    3.00
  -7  -3  -3   34.33    2.56
   7   3   3   35.39    2.87
   7   3   3   42.09    2.89
  -7   3  -3   39.37    2.88
  -7   3  -3   36.53    2.49
   9  -3   3   27.58    2.35
  -9  -3  -3   22.75    3.20
   9  -3   3   29.86    2.18
  -9  -3  -3   29.02    2.57
  -9  -3  -3   28.74    2.61
   9  -3   3   29.07    2.94
  -9   3  -3   28.90    2.36
   9   3   3   26.26    2.68
  -9   3  -3   30.47    2.97
   9   3   3   28.03    3.04
  11  -3   3   33.29    3.24
 -11  -3  -3   38.02    4.12
  11  -3   3   37.40    2.75
  11  -3   3   39.70    2.69
 -11  -3  -3   37.23    3.15
 -11  -3  -3   38.80    3.45
  11   3   3   36.05    3.76
 -11   3  -3   37.93    3.55
 -11   3  -3   38.07    2.76
  11   3   3   35.90    3.19
 -13  -3  -3  103.76    5.98
 -13  -3  -3  118.78    5.97
 -13  -3  -3  115.83    6.98
  13  -3   3  119.87    6.15
  13  -3   3  109.37    5.25
  13  -3   3  120.48    5.37
  13   3   3  122.70    6.87
 -13   3  -3  121.70    6.45
  13   3   3  116.04    5.92
 -13   3  -3  126.96    5.38
 -15  -3  -3   63.83    5.18
  15  -3   3   61.30    3.83
  15  -3   3   62.49    4.03
 -15  -3  -3   63.25    4.81
  15  -3   3   69.20    5.12
 -15  -3  -3   66.43    5.80
  15   3   3   63.40    5.95
 -15   3  -3   64.34    5.42
  15   3   3   58.85    4.77
 -15   3  -3   61.28    3.77
 -17  -3  -3   21.04    3.88
  17  -3   3   19.29    2.48
 -17  -3  -3   16.20    4.02
 -17  -3  -3   17.35    3.39
  17  -3   3   32.77    4.42
  17  -3   3   27.59    3.31
  17   3   3   28.13    3.81
 -17   3  -3   22.62    2.61
 -17   3  -3   21.76    4.06
 -19  -3  -3   -2.39    2.98
 -19  -3  -3    1.79    3.36
 -19  -3  -3    2.44    3.65
  19  -3   3    3.18    3.26
 -19   3  -3    4.23    3.56
  18  -4  -3    2.05    3.25
 -18   4   3    1.01    2.84
  16  -4  -3   15.67    3.58
 -16  -4   3    9.52    3.65
  16  -4  -3   10.51    2.40
 -16  -4   3   11.01    4.51
  16  -4  -3   13.48    2.52
  16   4  -3    8.43    4.17
 -16   4   3   12.65    3.78
 -16   4   3   13.00    2.55
  16   4  -3   11.18    3.51
  14  -4  -3   15.05    2.26
 -14  -4   3   12.25    4.24
 -14  -4   3   12.92    3.24
  14  -4  -3   16.59    3.32
  14  -4  -3   16.44    2.55
  14   4  -3   13.42    3.92
 -14   4   3   15.00    3.54
 -14   4   3   13.11    2.40
  14   4  -3   14.22    3.31
 -12  -4   3   27.19    3.42
  12  -4  -3   26.63    3.42
 -12  -4   3   32.65    4.97
 -12   4   3   24.70    3.12
  12   4  -3   26.86    4.29
  12   4  -3   24.87    3.63
 -12   4   3   31.25    4.14
 -10  -4   3   27.95    2.99
  10  -4  -3   33.05    3.29
  10  -4  -3   30.24    2.60
  10   4  -3   30.27    3.49
 -10   4   3   26.54    3.53
 -10   4   3   38.30    3.37
  10   4  -3   22.70    3.68
   8  -4  -3    1.65    1.52
   8  -4  -3    1.50    1.05
  -8  -4   3    2.87    1.42
   8   4  -3    3.03    1.81
   8   4  -3    1.24    2.00
  -8   4   3    3.47    1.56
  -8   4   3   -0.40    1.64
  -6  -4   3    5.98    1.44
   6  -4  -3    6.14    1.11
   6  -4  -3    4.29    1.57
  -6   4   3    6.10    1.94
   6   4  -3    5.07    1.78
  -6   4   3    2.42    1.42
   6   4  -3    5.61    2.19
  -4  -4   3   37.36    2.61
   4  -4  -3   35.16    2.71
  -4  -4   3   39.65    2.53
   4   4  -3   33.60    3.57
   4   4  -3   32.55    2.57
  -4   4   3   37.80    2.98
  -4   4   3   39.16    3.41
   4   4  -3   34.08    2.95
   4   4  -3   31.71    2.16
  -2  -4   3   79.36    4.45
  -2  -4   3   79.17    3.73
   2  -4  -3   81.05    4.43
  -2  -4   3   73.18    3.68
   2   4  -3   72.08    3.71
   2   4  -3   74.24    3.94
   2   4  -3   73.79    3.53
  -2   4   3   80.21    4.13
   2   4  -3   74.80    4.64
  -2   4   3   84.90    4.67
   0  -4   3   35.47    2.61
   0  -4  -3   35.99    3.22
   0  -4   3   37.45    3.15
   0  -4   3   33.71    2.59
   0   4   3   33.84    2.71
   0   4  -3   38.17    2.61
   0   4   3   34.10    3.10
   0   4  -3   36.99    2.58
   0   4  -3   36.68    3.25
   0   4  -3   33.98    2.62
   0   4   3   35.02    2.53
   2  -4   3   14.58    1.90
   2  -4   3   13.29    2.24
  -2  -4  -3   11.62    2.26
  -2  -4  -3   11.39    2.01
  -2   4  -3   13.21    2.19
   2   4   3   15.61    2.25
  -2   4  -3    8.34    1.52
   2   4   3   13.30    1.80
   2   4   3   11.79    1.79
  -2   4  -3    7.80    1.57
   4  -4   3    0.62    1.17
  -4  -4  -3   -0.50    1.68
   4  -4   3    0.05    1.45
  -4  -4  -3    2.34    1.43
  -4   4  -3    0.51    1.16
   4   4   3    2.57    1.52
  -4   4  -3   -0.08    1.02
   4   4   3    1.81    1.06
   4   4   3    0.23    1.27
   6  -4   3   18.12    2.23
   6  -4   3   18.71    2.56
  -6  -4  -3   17.79    2.34
   6  -4   3   16.17    1.57
  -6  -4  -3   18.54    3.17
  -6   4  -3   16.55    2.29
   6   4   3   21.85    2.59
   6   4   3   22.77    2.67
  -6   4  -3   17.30    2.05
  -8  -4  -3   21.62    3.42
   8  -4   3   25.00    3.10
   8  -4   3   20.88    2.38
  -8  -4  -3   24.45    2.78
   8  -4   3   22.31    2.09
  -8   4  -3   22.14    2.58
   8   4   3   27.14    3.00
  -8   4  -3   18.14    2.57
  10  -4   3   39.19    2.78
 -10  -4  -3   36.05    3.31
 -10  -4  -3   37.55    3.40
  10  -4   3   33.75    3.71
 -10  -4  -3   31.13    4.38
  10  -4   3   39.83    3.17
 -10   4  -3   33.70    3.05
 -10   4  -3   33.94    3.68
  10   4   3   40.85    3.81
 -12  -4  -3   12.33    2.63
  12  -4   3   15.62    2.45
  12  -4   3   17.92    2.96
  12  -4   3   15.07    2.13
 -12  -4  -3   17.37    2.83
 -12  -4  -3   14.67    3.75
 -12   4  -3   13.56    2.90
  12   4   3   13.16    2.95
 -12   4  -3   14.86    2.26
  14  -4   3   -0.12    1.47
 -14  -4  -3    3.72    3.37
  14  -4   3    1.07    1.60
  14  -4   3   -1.16    2.14
 -14  -4  -3    2.94    2.60
 -14  -4  -3    2.61    2.39
 -14   4  -3    0.27    1.51
 -14   4  -3   -1.59    2.23
  14   4   3    0.59    2.40
  16  -4   3    2.21    1.79
 -16  -4  -3    0.51    3.43
 -16  -4  -3    5.97    3.26
  16  -4   3    3.76    2.01
  16  -4   3    2.21    2.92
 -16  -4  -3    4.54    2.87
 -16   4  -3    3.05    1.82
  16   4   3    6.83    3.25
  13  -5  -3    4.76    2.88
  13   5  -3    7.54    4.26
 -13   5   3    8.85    3.51
 -13   5   3    7.90    3.40
  13   5  -3    8.17    4.31
  11  -5  -3    4.24    1.56
  11  -5  -3    0.05    1.89
 -11  -5   3   10.71    4.51
  11   5  -3    4.22    3.37
 -11   5   3    0.87    2.69
  11   5  -3    5.42    3.15
 -11   5   3    3.10    2.23
  -9  -5   3   12.18    4.10
   9   5  -3    9.90    3.02
   9   5  -3    5.27    3.11
  -9   5   3   10.02    2.64
  -9   5   3    2.28    2.45
  -7  -5   3    0.48    3.11
  -7   5   3    0.53    2.08
  -7   5   3    1.54    1.79
   7   5  -3    0.47    2.13
   7   5  -3    2.36    2.65
  -5  -5   3   12.51    2.85
  -5   5   3    9.32    2.63
   5   5  -3    9.98    2.93
  -5   5   3   10.62    2.26
   5   5  -3   11.19    2.59
  -3  -5   3   10.96    2.65
   3   5  -3   11.81    2.29
  -3   5   3    5.87    1.99
   3   5  -3    6.65    2.50
  -3   5   3   11.92    2.64
  -1  -5   3   22.44    2.41
  -1  -5   3   19.17    3.02
  -1   5   3   20.12    3.07
  -1   5   3   22.41    2.68
   1   5  -3   15.95    2.88
   1   5  -3   20.55    2.31
   1  -5   3    6.83    1.77
   1  -5   3   14.09    2.83
  -1  -5  -3   11.13    2.42
  -1   5  -3   13.44    2.58
  -1   5  -3    8.80    1.92
   1   5   3    9.16    1.99
   1   5   3   11.33    2.46
  -3  -5  -3    1.41    2.34
  -3  -5  -3    3.06    1.86
   3  -5   3    0.36    1.43
   3  -5   3    3.31    2.16
  -3   5  -3    4.79    1.79
   3   5   3    3.69    1.86
   3   5   3    2.70    2.03
  -5  -5  -3   10.45    2.37
   5  -5   3    4.68    1.84
   5  -5   3    6.80    2.50
  -5  -5  -3    5.26    2.99
   5   5   3    4.74    2.09
  -5   5  -3    3.31    1.78
   5   5   3    4.88    2.24
  -7  -5  -3    0.13    2.77
   7  -5   3    2.84    1.74
  -7  -5  -3    6.73    2.25
   7  -5   3    5.29    2.46
   7   5   3    3.42    2.23
  -7   5  -3    1.59    1.72
  -9  -5  -3   15.84    2.91
   9  -5   3   13.21    1.97
   9  -5   3   14.16    3.22
  -9  -5  -3    9.21    3.82
   9  -5   3   14.81    2.44
  -9   5  -3   11.29    2.36
   9   5   3   12.40    3.08
  11  -5   3    3.06    2.74
  11  -5   3    8.80    2.25
 -11  -5  -3    7.07    4.09
  11  -5   3    4.24    1.79
 -11  -5  -3    8.50    2.80
  11   5   3    5.30    2.86
 -11   5  -3    4.05    2.07
 -13  -5  -3   13.46    3.34
  13  -5   3    2.60    3.07
  -6   6   3   22.62    5.09
   4  -6  -3   16.37    3.04
  -4   6   3   12.88    3.56
  -4   6   3   19.01    3.15
   2  -6  -3   31.95    3.67
   2  -6  -3   34.55    4.60
  -2   6   3   22.24    3.95
  -2   6   3   32.48    3.62
   0  -6  -3   21.34    3.98
   0   6   3   23.39    4.15
   2  -6   3   18.28    2.90
  -2  -6  -3   20.68    3.90
  -2   6  -3   21.92    2.96
   2   6   3   18.22    3.96
  -4  -6  -3   -0.65    3.12
   4  -6   3    5.84    2.40
   4   6   3    4.02    3.94
  -4   6  -3    5.28    2.36
  -6  -6  -3   27.70    6.80
 -22   0   4   93.14    7.67
  22   0  -4   90.00    7.61
 -20   0   4   29.69    4.44
  20   0  -4   23.35    3.94
 -18   0   4   22.12    3.67
  18   0  -4   20.11    3.50
 -16   0   4   16.98    2.98
  16   0  -4   18.73    3.00
  14   0  -4  237.09    9.78
 -14   0   4  258.67   10.08
  14   0  -4  256.61    8.60
 -14   0   4  254.08    9.77
 -12   0   4  222.30    8.36
  12   0  -4  232.25    7.85
  12   0  -4  229.20    8.92
 -12   0   4  217.62    8.61
 -12   0   4  223.10    7.34
  10   0  -4  191.00    6.95
 -10   0   4  207.01    6.73
  10   0  -4  201.25    6.70
 -10   0   4  204.81    7.87
 -10   0   4  214.07    7.69
  10   0  -4  196.91    7.55
   8   0  -4  206.71    7.46
   8   0  -4  199.73    6.98
  -8   0   4  201.66    6.52
   8   0  -4  211.49    6.79
  -8   0   4  207.33    7.23
  -8   0   4  205.75    7.45
  -6   0   4   85.82    3.03
   6   0  -4   88.01    3.12
  -6   0   4   92.32    3.76
   6   0  -4   84.03    3.30
   6   0  -4   83.27    3.55
  -6   0   4   85.36    3.55
  -4   0   4  457.96   13.40
   4   0  -4  439.70   13.79
   4   0  -4  458.04   13.51
  -4   0   4  458.84   13.86
  -4   0   4  416.99   13.64
   4   0  -4  437.37   13.65
   2   0  -4  533.25   16.03
  -2   0   4  535.78   16.65
   2   0  -4  516.00   15.86
  -2   0   4  615.56   16.45
   2   0  -4  534.37   15.97
  -2   0   4  494.84   16.44
   0   0   4  693.67   22.15
   0   0   4  785.95   22.23
   0   0  -4  719.34   21.59
   0   0  -4  723.28   21.64
   0   0   4  764.11   22.38
   0   0  -4  731.22   21.73
   2   0   4  144.53    4.73
  -2   0  -4  144.36    4.91
  -2   0  -4  143.03    4.82
  -2   0  -4  143.89    4.55
   2   0   4  137.10    4.62
   2   0   4  149.95    4.61
   4   0   4  323.45   10.73
  -4   0  -4  362.89   11.32
  -4   0  -4  352.61   11.06
  -4   0  -4  371.23   11.49
   4   0   4  360.25   10.81
   4   0   4  358.92   10.61
   6   0   4  199.19    6.72
  -6   0  -4  232.12    7.90
   6   0   4  201.80    6.82
   6   0   4  204.34    6.39
  -6   0  -4  222.79    7.38
  -6   0  -4  231.78    7.64
  -8   0  -4  332.39   10.94
  -8   0  -4  313.94   10.33
   8   0   4  315.24   10.55
  -8   0  -4  318.77   10.53
   8   0   4  322.88    9.95
   8   0   4  323.87   10.40
  10   0   4  202.72    7.41
 -10   0  -4  202.76    7.74
 -10   0  -4  201.11    7.20
 -10   0  -4  199.37    7.18
  10   0   4  199.05    7.05
  10   0   4  197.49    6.48
 -12   0  -4   57.76    3.43
  12   0   4   68.68    2.76
 -12   0  -4   58.56    3.26
  12   0   4   71.88    4.09
 -12   0  -4   58.92    3.99
 -14   0  -4   57.54    3.44
 -14   0  -4   59.16    3.93
  14   0   4   54.32    4.06
  16   0   4   76.66    5.22
 -16   0  -4   73.63    4.81
  18   0   4  132.66    7.49
 -18   0  -4  132.29    7.18
  20   0   4   28.68    4.42
 -20   0  -4   26.59    4.36
 -22   0  -4   20.73    4.69
  22   0   4   25.89    4.81
  21  -1  -4   19.48    4.31
 -21  -1   4   11.92    4.09
 -21   1   4   19.87    4.08
  21   1  -4   14.26    4.19
 -19  -1   4   63.52    5.75
  19  -1  -4   50.32    5.37
  19   1  -4   48.76    5.76
 -19   1   4   63.96    5.54
  17  -1  -4   56.53    4.74
 -17  -1   4   65.41    5.15
 -17  -1   4   71.10    5.19
 -17   1   4   63.66    5.08
  17   1  -4   58.50    5.38
  17   1  -4   48.91    3.63
 -15  -1   4   48.04    4.16
  15  -1  -4   57.31    4.31
 -15  -1   4   57.76    4.28
  15   1  -4   56.32    4.79
 -15   1   4   56.51    4.23
  15   1  -4   51.81    3.50
  13  -1  -4   22.51    2.76
  13  -1  -4   26.46    2.42
 -13  -1   4   21.24    2.69
 -13  -1   4   22.02    2.79
 -13   1   4   22.37    1.87
  13   1  -4   20.50    2.98
  13   1  -4   27.30    2.47
 -13   1   4   24.94    2.90
  11  -1  -4   68.23    3.36
  11  -1  -4   65.47    3.84
 -11  -1   4   67.65    3.61
 -11  -1   4   55.36    3.76
  11   1  -4   66.04    4.18
 -11   1   4   64.52    3.71
 -11   1   4   64.08    2.94
  11   1  -4   60.65    3.25
   9  -1  -4  116.06    4.57
   9  -1  -4  114.04    4.88
  -9  -1   4  117.08    4.55
  -9  -1   4  112.94    4.93
   9   1  -4  115.43    5.26
  -9   1   4  114.85    4.96
  -9   1   4  113.01    4.86
   9   1  -4  117.11    4.58
  -9   1   4  105.96    4.18
  -7  -1   4  265.01    8.99
   7  -1  -4  267.18    8.63
   7  -1  -4  261.39    8.77
  -7  -1   4  249.79    8.48
  -7   1   4  265.62    8.97
  -7   1   4  264.72    9.11
  -7   1   4  266.21    8.47
   7   1  -4  254.57    9.19
   7   1  -4  257.45    8.57
  -5  -1   4  294.12    8.47
   5  -1  -4  283.51    8.99
  -5  -1   4  274.49    9.06
   5  -1  -4  286.76    9.01
  -5  -1   4  263.57    8.68
   5   1  -4  274.71    9.57
  -5   1   4  280.54    9.14
  -5   1   4  277.66    9.24
  -5   1   4  276.59    8.84
   5   1  -4  274.80    8.99
   3  -1  -4   58.10    2.34
  -3  -1   4   64.26    2.26
  -3  -1   4   58.42    2.50
   3  -1  -4   63.98    2.36
   3  -1  -4   61.53    2.47
  -3   1   4   62.72    2.77
   3   1  -4   60.32    2.48
  -3   1   4   61.82    2.45
   3   1  -4   63.25    3.02
   1  -1  -4   82.73    3.00
  -1  -1   4   80.73    2.80
   1  -1  -4   86.11    3.14
  -1  -1   4   78.95    2.83
  -1  -1   4   72.26    2.80
  -1   1   4   82.05    3.18
   1   1  -4   82.08    3.38
   1   1  -4   79.20    2.96
  -1   1   4   80.17    2.87
   1  -1   4  345.23   10.16
  -1  -1  -4  343.86   10.58
  -1  -1  -4  313.96   10.25
   1  -1   4  320.84   10.33
   1  -1   4  323.95   10.08
  -1   1  -4  329.62   10.14
   1   1   4  323.67   10.36
  -1   1  -4  336.43   10.55
   1   1   4  328.01   10.07
  -3  -1  -4  321.15   10.59
   3  -1   4  328.88   10.19
  -3  -1  -4  324.72   10.24
   3  -1   4  339.64   10.24
  -3  -1  -4  319.26   10.29
   3  -1   4  323.01   10.44
   3   1   4  332.41   10.04
  -3   1  -4  323.60   10.05
  -3   1  -4  335.36    9.97
  -3   1  -4  330.77   10.33
   3   1   4  328.17   10.39
   3   1   4  315.98   10.01
   5  -1   4  177.32    6.04
  -5  -1  -4  176.73    6.50
   5  -1   4  177.93    6.28
   5  -1   4  186.67    6.01
  -5  -1  -4  175.40    5.99
  -5  -1  -4  171.55    6.22
   5   1   4  187.09    5.73
  -5   1  -4  180.27    6.01
   5   1   4  172.68    6.05
  -5   1  -4  179.99    6.30
  -7  -1  -4   72.92    3.14
   7  -1   4   79.29    3.13
  -7  -1  -4   72.71    3.50
   7  -1   4   82.41    3.54
   7  -1   4   80.98    3.31
  -7  -1  -4   66.60    3.56
   7   1   4   78.82    3.32
   7   1   4   77.89    3.51
  -7   1  -4   76.83    3.32
  -7   1  -4   69.86    3.40
  -9  -1  -4   45.98    3.15
  -9  -1  -4   50.67    2.74
   9  -1   4   44.22    2.76
   9  -1   4   49.71    2.32
  -9  -1  -4   54.57    3.28
   9  -1   4   51.35    2.59
   9   1   4   52.42    3.03
  -9   1  -4   55.43    3.04
   9   1   4   46.00    2.53
  -9   1  -4   52.23    3.18
  11  -1   4   72.73    3.24
 -11  -1  -4   87.46    4.48
 -11  -1  -4   83.90    4.58
 -11  -1  -4   85.19    4.01
  11  -1   4   80.31    3.68
  11  -1   4   78.90    4.08
 -11   1  -4   82.69    4.30
  11   1   4   84.30    4.37
  11   1   4   74.27    3.56
  13  -1   4   99.13    5.19
  13  -1   4  103.36    4.17
 -13  -1  -4  100.27    4.81
 -13  -1  -4   97.74    5.12
  13  -1   4  109.30    4.75
 -13  -1  -4  105.57    5.51
 -13   1  -4  103.57    5.22
  13   1   4  104.84    5.40
  15  -1   4   77.84    4.91
 -15  -1  -4   74.45    5.01
 -15  -1  -4   63.29    4.33
 -15  -1  -4   70.30    4.38
  15   1   4   73.68    5.13
 -15   1  -4   66.85    4.65
 -17  -1  -4   14.43    2.68
  17  -1   4   13.83    3.09
 -17  -1  -4   16.20    3.28
 -17  -1  -4   20.59    3.19
  17   1   4   20.79    3.50
 -17   1  -4   18.56    3.22
 -19  -1  -4    5.56    3.03
  19  -1   4    6.85    3.08
 -19   1  -4    8.94    3.21
  19   1   4    6.11    3.17
  21  -1   4   33.97    5.13
 -21  -1  -4   30.51    5.00
 -21   1  -4   30.35    4.75
  21   1   4   22.66    4.62
 -20  -2   4    2.57    3.59
 -20  -2   4    3.50    3.19
 -20  -2   4    5.68    3.67
  20  -2  -4    6.06    3.23
  20   2  -4    2.87    2.59
  20   2  -4    2.23    3.74
 -20   2   4    0.99    3.14
 -18  -2   4    4.95    3.10
 -18  -2   4    3.99    2.88
  18  -2  -4    2.45    2.66
  18   2  -4    3.39    3.25
 -18   2   4   10.00    3.23
  18   2  -4    2.63    2.22
  16  -2  -4   28.61    3.64
 -16  -2   4   25.10    3.43
 -16  -2   4   25.31    3.69
  16   2  -4   30.77    3.25
  16   2  -4   25.55    4.08
 -16   2   4   20.66    2.38
 -16   2   4   28.29    3.93
  14  -2  -4    9.31    2.37
 -14  -2   4    8.29    2.44
  14  -2  -4   11.80    1.99
 -14  -2   4   13.14    2.36
  14   2  -4   10.95    2.30
  14   2  -4   12.42    2.93
 -14   2   4   10.12    1.68
 -14   2   4    8.85    2.49
  12  -2  -4    4.35    1.80
 -12  -2   4    6.63    2.05
 -12  -2   4   12.88    2.03
  12  -2  -4    6.19    1.45
  12   2  -4    4.81    1.64
 -12   2   4    8.31    2.17
 -12   2   4   10.44    1.61
  12   2  -4    5.89    2.34
  10  -2  -4   33.14    2.37
 -10  -2   4   35.97    2.51
 -10  -2   4   29.06    2.83
  10  -2  -4   29.83    2.76
  10   2  -4   30.69    3.38
  10   2  -4   31.59    2.57
 -10   2   4   33.69    2.34
 -10   2   4   34.74    3.03
  -8  -2   4   15.60    1.55
   8  -2  -4   15.88    1.61
   8  -2  -4   16.76    1.91
  -8  -2   4   14.41    1.81
   8   2  -4   18.46    1.97
  -8   2   4   17.81    1.76
  -8   2   4   16.47    2.20
   8   2  -4   20.20    2.58
  -6  -2   4    7.61    1.28
  -6  -2   4    9.44    1.08
   6  -2  -4    8.50    1.31
   6  -2  -4   10.22    1.20
  -6  -2   4    8.43    1.02
   6   2  -4    6.73    1.71
  -6   2   4   10.06    1.69
  -6   2   4    7.53    1.21
   6   2  -4   10.06    1.41
  -4  -2   4   24.66    1.38
   4  -2  -4   23.11    1.50
  -4  -2   4   24.48    1.37
   4  -2  -4   20.71    1.67
  -4  -2   4   23.02    1.42
   4  -2  -4   24.46    1.54
  -4  -2   4   22.08    1.59
   4   2  -4   24.21    1.81
  -4   2   4   21.66    2.03
  -4   2   4   26.17    1.75
   4   2  -4   24.88    2.32
   2  -2  -4  124.80    4.20
   2  -2  -4  109.75    4.09
   2  -2  -4  124.07    4.51
  -2  -2   4  121.08    4.20
  -2  -2   4  115.48    3.97
   2  -2  -4  123.54    4.32
   2   2  -4  119.91    4.48
  -2   2   4  117.12    4.80
   2   2  -4  124.79    5.06
  -2   2   4  122.93    4.43
   2   2  -4  119.66    4.09
   0  -2   4   27.36    1.66
   0  -2  -4   25.20    1.35
   0  -2  -4   26.24    1.43
   0  -2  -4   26.59    1.51
   0  -2  -4   31.62    2.10
   0   2   4   29.33    1.73
   0   2  -4   29.57    1.59
   0   2   4   26.38    1.32
   0   2   4   25.99    1.95
   0   2  -4   28.80    1.44
   0   2  -4   28.44    2.21
   0   2  -4   30.52    1.70
  -2  -2  -4    4.42    1.27
   2  -2   4    6.16    0.87
   2  -2   4    5.63    0.71
  -2  -2  -4    6.85    1.11
   2  -2   4    5.28    1.10
  -2  -2  -4    3.39    0.58
  -2  -2  -4    4.08    0.82
   2  -2   4    5.25    0.86
  -2   2  -4    3.36    0.70
   2   2   4    5.31    0.96
  -2   2  -4    5.90    0.79
  -2   2  -4    5.64    1.15
   2   2   4    5.76    0.84
  -2   2  -4    4.13    0.75
   2   2   4    4.25    1.03
   2   2   4    5.88    0.88
  -4  -2  -4    1.30    1.15
  -4  -2  -4    2.95    0.89
   4  -2   4    5.22    1.11
   4  -2   4    2.97    0.78
   4  -2   4    3.79    0.95
   4  -2   4    3.37    0.70
  -4  -2  -4    3.10    0.65
  -4  -2  -4    4.38    1.04
   4   2   4    2.01    0.67
   4   2   4    5.84    1.03
  -4   2  -4    4.65    1.07
   4   2   4    3.12    0.97
   4   2   4    5.14    1.09
  -4   2  -4    3.48    0.88
  -4   2  -4    3.39    0.78
   6  -2   4   58.15    2.74
   6  -2   4   58.13    3.05
  -6  -2  -4   50.73    3.35
   6  -2   4   57.45    2.62
  -6  -2  -4   57.70    2.93
  -6  -2  -4   49.44    2.49
  -6  -2  -4   56.35    2.84
   6   2   4   55.48    2.94
  -6   2  -4   53.81    2.85
  -6   2  -4   56.04    2.58
   6   2   4   54.14    2.29
   6   2   4   57.63    2.93
   8  -2   4   19.52    1.72
   8  -2   4   22.87    2.18
  -8  -2  -4   23.38    2.26
  -8  -2  -4   22.87    2.59
  -8  -2  -4   21.78    2.02
   8  -2   4   21.71    1.73
   8   2   4   19.91    2.15
   8   2   4   16.17    1.86
  -8   2  -4   25.55    1.76
  -8   2  -4   23.24    2.30
  10  -2   4   22.48    2.14
  10  -2   4   23.87    2.57
 -10  -2  -4   23.37    2.24
 -10  -2  -4   22.66    2.77
  10  -2   4   20.42    1.83
 -10  -2  -4   21.28    2.47
 -10   2  -4   21.26    2.50
  10   2   4   18.37    2.07
  10   2   4   25.16    2.77
 -10   2  -4   20.70    1.77
 -12  -2  -4   23.99    2.55
  12  -2   4   22.95    2.70
  12  -2   4   22.97    2.01
 -12  -2  -4   27.47    3.01
  12  -2   4   20.32    2.19
 -12  -2  -4   22.90    3.01
 -12   2  -4   24.01    2.93
  12   2   4   23.81    3.15
  12   2   4   25.89    2.63
 -12   2  -4   21.68    1.90
 -14  -2  -4    3.10    2.02
  14  -2   4    4.20    1.96
 -14  -2  -4    7.07    2.04
  14  -2   4    7.06    1.57
 -14  -2  -4    7.71    2.37
  14  -2   4    4.95    1.20
  14   2   4    4.77    2.54
  14   2   4    3.30    1.65
 -14   2  -4    8.42    2.29
 -16  -2  -4    4.42    2.24
 -16  -2  -4    0.54    2.08
  16  -2   4    3.16    2.32
  16  -2   4    2.01    1.39
  16  -2   4    2.76    1.15
 -16  -2  -4    4.63    2.53
 -16   2  -4   -0.48    2.26
  16   2   4    3.54    2.85
 -18  -2  -4    5.32    2.80
 -18  -2  -4    6.84    3.21
 -18  -2  -4    5.59    2.86
  18  -2   4   11.56    3.21
  18   2   4    5.41    3.59
 -18   2  -4   10.67    3.24
 -20  -2  -4   10.28    4.31
 -20  -2  -4   13.27    3.69
 -20  -2  -4   16.91    4.02
  20  -2   4   20.55    4.38
  20   2   4   11.95    4.43
 -20   2  -4   19.30    4.11
 -19  -3   4    6.43    3.92
 -19  -3   4    9.32    3.83
 -19  -3   4    7.45    3.89
  19  -3  -4    8.40    3.55
  19   3  -4    7.15    3.34
  19   3  -4    4.32    4.25
 -19   3   4    5.24    3.55
  17  -3  -4   18.77    3.52
  17  -3  -4   13.52    2.20
 -17  -3   4   25.56    3.74
 -17  -3   4   19.65    4.11
  17   3  -4   13.63    4.25
 -17   3   4   15.87    3.86
 -17   3   4   23.18    2.84
  17   3  -4   18.93    3.38
 -15  -3   4   28.00    3.43
  15  -3  -4   39.42    4.13
 -15  -3   4   40.48    4.40
  15   3  -4   35.16    3.92
 -15   3   4   35.34    4.46
  15   3  -4   27.95    4.54
 -15   3   4   35.11    3.30
 -13  -3   4    4.73    2.25
 -13  -3   4    8.65    2.15
  13  -3  -4    7.19    1.80
  13  -3  -4    9.59    2.40
 -13   3   4    5.07    1.70
  13   3  -4    5.12    2.23
  13   3  -4    4.54    2.82
 -13   3   4    5.24    2.39
  11  -3  -4   10.41    1.65
 -11  -3   4    9.07    1.84
 -11  -3   4    7.47    2.11
  11  -3  -4    7.30    2.07
 -11   3   4    9.87    2.33
  11   3  -4    4.70    2.45
  11   3  -4    8.62    2.09
 -11   3   4    8.33    1.86
   9  -3  -4   12.86    2.11
  -9  -3   4   14.35    2.10
   9  -3  -4   14.96    1.73
  -9   3   4   11.59    2.27
  -9   3   4   11.81    1.81
   9   3  -4   14.88    2.83
   9   3  -4   12.63    2.07
   7  -3  -4   35.19    2.63
  -7  -3   4   45.87    2.51
   7  -3  -4   37.18    2.25
  -7  -3   4   44.48    2.86
   7   3  -4   38.01    3.73
  -7   3   4   42.46    2.83
  -7   3   4   41.00    3.36
   7   3  -4   38.58    2.89
   5  -3  -4   42.19    2.28
  -5  -3   4   44.66    2.33
  -5  -3   4   42.87    2.20
   5  -3  -4   47.13    2.58
   5   3  -4   44.34    2.85
  -5   3   4   45.57    3.22
  -5   3   4   39.06    2.64
   5   3  -4   37.10    3.41
   3  -3  -4   49.12    2.56
   3  -3  -4   52.18    2.35
  -3  -3   4   52.09    2.49
  -3  -3   4   52.21    2.55
   3  -3  -4   52.54    2.86
  -3   3   4   54.77    3.38
   3   3  -4   49.58    2.48
  -3   3   4   56.62    2.99
   3   3  -4   53.02    2.95
   3   3  -4   55.47    3.63
  -1  -3   4   34.64    1.94
   1  -3  -4   36.12    2.56
   1  -3  -4   32.26    1.95
  -1  -3   4   33.68    2.09
   1   3  -4   32.13    1.98
   1   3  -4   38.11    2.94
  -1   3   4   31.60    2.26
  -1   3   4   29.88    2.58
   1   3  -4   33.16    2.23
   1   3  -4   36.25    2.07
   1  -3   4    8.96    1.57
  -1  -3  -4    5.73    1.55
   1  -3   4    7.71    1.23
  -1  -3  -4    8.11    1.14
  -1   3  -4    9.78    1.25
  -1   3  -4    6.57    1.10
   1   3   4    7.76    1.10
  -1   3  -4    7.96    1.62
   1   3   4    9.58    1.64
  -1   3  -4    8.33    1.15
   1   3   4    9.60    1.37
   3  -3   4   27.29    1.62
   3  -3   4   31.19    2.11
  -3  -3  -4   29.72    2.41
   3  -3   4   28.08    2.46
  -3  -3  -4   30.20    2.85
   3   3   4   27.13    2.23
   3   3   4   28.65    2.06
   3   3   4   27.17    2.08
  -3   3  -4   27.63    2.44
  -3   3  -4   28.17    2.03
  -3   3  -4   27.56    1.99
   3   3   4   25.91    2.43
  -3   3  -4   28.17    1.77
   5  -3   4   33.58    1.98
   5  -3   4   39.25    2.45
  -5  -3  -4   33.98    3.22
   5  -3   4   33.49    2.76
  -5  -3  -4   32.00    2.48
   5   3   4   37.09    2.52
   5   3   4   33.50    2.12
  -5   3  -4   30.31    2.20
  -5   3  -4   31.93    2.36
   5   3   4   36.08    2.75
   5   3   4   38.30    2.66
  -7  -3  -4   26.99    2.47
   7  -3   4   29.03    2.20
   7  -3   4   26.11    1.94
   7  -3   4   26.63    2.58
  -7  -3  -4   29.27    3.21
  -7  -3  -4   25.88    2.39
  -7   3  -4   25.92    2.12
   7   3   4   27.21    2.57
  -7   3  -4   25.51    2.44
   7   3   4   24.49    2.48
   9  -3   4   17.36    1.84
  -9  -3  -4   15.88    2.17
   9  -3   4   22.94    2.77
  -9  -3  -4   17.52    2.25
   9  -3   4   18.89    2.06
  -9  -3  -4   21.84    3.13
   9   3   4   19.91    2.58
  -9   3  -4   15.70    2.29
   9   3   4   16.15    2.22
  -9   3  -4   17.82    1.91
 -11  -3  -4   37.77    3.21
 -11  -3  -4   36.27    3.35
  11  -3   4   37.82    3.61
  11  -3   4   32.28    2.59
  11  -3   4   36.37    2.66
 -11  -3  -4   32.28    3.83
  11   3   4   34.78    3.35
 -11   3  -4   34.87    2.65
 -11   3  -4   39.44    3.75
  11   3   4   30.64    3.43
 -13  -3  -4   14.76    3.25
 -13  -3  -4   21.55    2.85
  13  -3   4   12.98    2.68
 -13  -3  -4   14.61    2.73
  13  -3   4   17.10    2.15
  13  -3   4   12.57    2.02
 -13   3  -4   14.61    2.82
 -13   3  -4   16.64    2.08
  13   3   4   12.84    2.46
  13   3   4    8.15    4.26
 -15  -3  -4    1.50    2.50
 -15  -3  -4    4.69    2.88
  15  -3   4    7.90    1.91
  15  -3   4    5.90    2.56
  15  -3   4    7.94    1.67
 -15  -3  -4    8.29    2.49
 -15   3  -4    8.72    1.81
 -15   3  -4    7.66    2.86
  15   3   4    5.01    2.35
 -17  -3  -4    1.27    2.66
 -17  -3  -4   -1.55    2.85
  17  -3   4    2.76    2.79
 -17  -3  -4    2.57    3.19
  17  -3   4    1.00    1.70
  17  -3   4    1.64    1.52
 -17   3  -4    2.26    2.98
  19  -3   4   14.06    4.00
 -19  -3  -4    9.30    3.68
 -19  -3  -4   14.16    4.26
 -19  -3  -4    6.41    3.87
 -19   3  -4   13.09    4.09
 -16  -4   4   32.72    5.63
 -16  -4   4   26.81    4.33
  16  -4  -4   22.21    2.94
  16  -4  -4   24.07    3.09
 -16   4   4   26.70    4.48
 -16   4   4   23.16    3.22
  16   4  -4   18.03    4.57
  16   4  -4   29.63    4.31
  14  -4  -4   39.99    5.46
 -14  -4   4   36.02    4.18
 -14   4   4   38.57    3.69
  14   4  -4   29.32    4.85
 -14   4   4   33.14    4.40
  14   4  -4   40.63    4.75
  12  -4  -4   78.33    4.39
  12  -4  -4   80.11    5.93
 -12  -4   4   91.61    5.47
 -12   4   4   86.45    6.09
  12   4  -4   71.24    6.20
 -12   4   4   85.61    5.01
  12   4  -4   72.49    5.37
 -10  -4   4   66.48    4.31
  10  -4  -4   64.70    5.50
  10  -4  -4   59.00    3.43
  10   4  -4   48.60    5.03
 -10   4   4   62.46    4.12
  10   4  -4   62.04    4.48
 -10   4   4   62.24    4.90
   8  -4  -4   18.68    1.94
   8   4  -4   23.97    3.01
  -8   4   4   22.23    3.11
   8   4  -4   22.92    3.37
  -8   4   4   20.08    2.54
   6  -4  -4   59.33    2.97
  -6   4   4   60.45    4.28
   6   4  -4   66.15    4.10
  -6   4   4   55.20    3.63
   6   4  -4   62.39    4.68
  -4  -4   4   61.37    3.14
   4   4  -4   56.96    3.61
  -4   4   4   60.52    4.16
  -4   4   4   57.83    3.63
   4   4  -4   49.64    4.25
  -2  -4   4  140.00    5.59
  -2  -4   4  135.99    6.31
  -2   4   4  138.60    6.46
  -2   4   4  142.36    5.94
   2   4  -4  143.78    6.80
   2   4  -4  147.18    6.05
   2   4  -4  141.78    5.54
   0  -4  -4   70.30    4.16
   0  -4   4   64.74    3.48
   0  -4   4   69.76    4.17
   0   4  -4   62.05    4.14
   0   4  -4   60.75    3.40
   0   4  -4   62.52    3.33
   0   4   4   67.34    3.71
   0   4   4   63.87    4.11
  -2  -4  -4   92.29    4.66
  -2  -4  -4   82.80    4.94
   2  -4   4   86.72    4.76
   2  -4   4   84.66    4.17
  -2   4  -4   88.69    4.74
   2   4   4   85.58    4.72
   2   4   4   87.45    4.15
  -2   4  -4   78.29    3.99
  -4  -4  -4   20.66    2.95
  -4  -4  -4   19.65    2.41
   4  -4   4   16.89    2.52
   4  -4   4   14.98    1.96
   4   4   4   13.61    2.19
   4   4   4   17.17    2.21
  -4   4  -4   18.01    2.05
   4   4   4   13.59    1.73
   6  -4   4   95.14    3.92
   6  -4   4   93.37    5.15
  -6  -4  -4   85.59    5.65
   6  -4   4   87.19    4.47
  -6  -4  -4   91.78    4.84
  -6   4  -4   94.16    4.52
   6   4   4   90.73    4.82
   6   4   4   86.93    4.88
   8  -4   4   85.66    4.48
   8  -4   4   85.63    3.97
  -8  -4  -4   86.13    4.87
   8  -4   4   86.57    5.15
  -8  -4  -4   78.32    5.83
   8   4   4   89.38    4.99
  -8   4  -4   89.37    4.48
  10  -4   4   62.65    4.59
 -10  -4  -4   42.06    3.68
  10  -4   4   58.61    3.75
 -10  -4  -4   51.74    3.75
 -10  -4  -4   41.66    4.92
  10  -4   4   58.36    3.39
 -10   4  -4   52.20    3.47
  10   4   4   53.98    4.25
  12  -4   4   28.22    2.94
 -12  -4  -4   29.05    4.54
 -12  -4  -4   22.86    3.18
  12  -4   4   33.70    3.91
  12  -4   4   26.08    2.71
 -12  -4  -4   24.19    3.05
  12   4   4   28.63    3.58
 -12   4  -4   23.61    2.76
 -14  -4  -4   15.45    3.23
 -14  -4  -4   19.97    3.34
  14  -4   4   20.63    2.77
  14  -4   4   18.82    2.55
 -14  -4  -4   16.28    4.33
  14  -4   4   19.86    3.43
  14   4   4   21.30    3.61
 -14   4  -4   17.02    2.46
  16  -4   4   44.84    5.14
 -16  -4  -4   46.40    5.02
 -16  -4  -4   46.09    4.87
 -16  -4  -4   38.31    6.05
  16  -4   4   41.70    3.84
  16  -4   4   33.62    3.48
 -16   4  -4   42.91    3.91
  16   4   4   46.71    5.19
  13   5  -4    8.61    4.26
 -13   5   4   13.71    3.95
 -11  -5   4   13.49    4.80
  11   5  -4   19.06    3.86
 -11   5   4   19.83    3.99
 -11   5   4   20.03    3.13
  11   5  -4   14.78    3.95
  -9   5   4   86.06    5.29
   9   5  -4   82.34    5.86
   9   5  -4   78.26    6.50
  -9   5   4   90.34    6.45
   7   5  -4   58.54    5.55
  -7   5   4   62.15    5.24
  -7   5   4   56.75    4.34
   7   5  -4   56.87    4.77
  -5  -5   4   41.74    4.20
  -5   5   4   45.68    4.50
   5   5  -4   35.54    4.28
   5   5  -4   40.37    3.90
  -5   5   4   41.98    3.77
  -3  -5   4   21.52    3.24
  -3   5   4   23.78    3.17
   3   5  -4   13.85    2.98
   3   5  -4   17.51    2.59
  -3   5   4   19.42    2.69
  -1  -5   4   45.35    3.31
  -1  -5   4   45.84    4.33
   1   5  -4   45.10    4.32
  -1   5   4   41.89    4.12
   1   5  -4   35.51    3.01
  -1   5   4   40.54    3.53
  -1  -5  -4   66.10    4.73
   1  -5   4   64.83    4.95
   1  -5   4   54.82    3.84
  -1   5  -4   73.10    4.08
   1   5   4   65.93    4.02
  -1   5  -4   63.89    4.78
   1   5   4   57.44    4.62
  -3  -5  -4   86.87    5.27
   3  -5   4  103.17    5.92
   3  -5   4   93.13    4.98
  -3  -5  -4   94.23    6.27
   3   5   4   91.88    5.65
  -3   5  -4   89.74    4.78
  -5  -5  -4   78.81    5.12
   5  -5   4   90.96    5.62
   5  -5   4   71.86    4.49
  -5  -5  -4   76.22    6.06
  -5   5  -4   82.90    4.71
   5   5   4   76.36    5.26
  -7  -5  -4   12.39    2.68
   7  -5   4    9.12    2.07
   7  -5   4    9.26    2.81
  -7  -5  -4    8.74    3.50
   7   5   4   13.54    2.72
  -7   5  -4   13.39    2.27
  -9  -5  -4   18.82    3.10
  -9  -5  -4   13.40    4.20
   9  -5   4   12.66    3.15
   9  -5   4   13.29    2.39
   9  -5   4   14.01    2.12
  -9   5  -4    7.97    2.29
   9   5   4   13.82    3.05
  11  -5   4   32.58    3.47
  11  -5   4   35.68    4.46
  11  -5   4   35.60    3.20
 -11  -5  -4   41.92    4.45
 -11  -5  -4   33.96    5.46
  11   5   4   37.78    4.61
 -11   5  -4   34.03    3.67
 -13  -5  -4   62.67    5.69
  13  -5   4   68.62    6.26
  -6   6   4   10.91    3.59
   4  -6  -4   32.51    3.87
  -4   6   4   24.85    4.09
  -4   6   4   32.74    3.75
   2  -6  -4   14.43    3.48
   2  -6  -4   15.78    2.97
  -2   6   4   13.14    2.89
  -2   6   4   16.48    3.67
   0  -6  -4   25.30    3.88
   0   6  -4   18.50    4.22
   0   6   4   26.69    4.14
  -2  -6  -4    1.87    2.54
   2  -6   4   -0.74    4.03
   2  -6   4    0.88    2.02
  -2   6  -4    4.22    2.30
   2   6   4    4.74    2.93
   4  -6   4    4.50    2.28
   4  -6   4    6.69    3.66
  -4  -6  -4    8.53    3.03
  -4   6  -4    8.14    2.54
   4   6   4    2.01    2.82
   6  -6   4    5.13    3.50
  -6  -6  -4   13.36    3.38
 -22   0   5   -0.70    3.56
  22   0  -5    3.28    3.71
  20   0  -5    0.82    2.85
 -20   0   5   -1.97    2.78
  18   0  -5    0.84    2.43
 -18   0   5   -1.31    2.45
  16   0  -5   -0.23    2.00
 -16   0   5    1.64    2.21
  14   0  -5    0.04    1.05
 -14   0   5   -1.41    1.32
  14   0  -5    3.93    1.94
 -14   0   5    4.28    2.00
 -12   0   5    0.74    0.66
 -12   0   5    0.10    1.47
  12   0  -5    0.81    1.57
  12   0  -5   -1.54    0.90
 -12   0   5   -0.04    1.19
  10   0  -5    1.51    1.31
 -10   0   5    1.05    0.58
  10   0  -5    0.14    0.81
 -10   0   5    0.88    1.09
 -10   0   5    1.36    1.30
  10   0  -5    0.69    0.81
   8   0  -5    0.24    1.01
  -8   0   5    0.15    0.50
   8   0  -5    0.37    0.64
  -8   0   5    0.60    1.05
  -8   0   5    0.86    0.87
   8   0  -5   -0.29    0.63
  -6   0   5    0.47    0.49
  -6   0   5    0.88    0.88
  -6   0   5   -0.35    0.71
   6   0  -5    0.23    0.90
   6   0  -5   -0.02    0.60
   6   0  -5   -0.57    0.54
   4   0  -5   -0.15    0.71
   4   0  -5    0.41    0.54
  -4   0   5   -0.73    0.66
   4   0  -5   -0.25    0.56
  -4   0   5    0.20    0.65
  -4   0   5    0.68    0.46
   2   0  -5    0.24    0.65
  -2   0   5   -0.47    0.41
   2   0  -5   -0.21    0.55
  -2   0   5   -0.07    0.54
  -2   0   5   -0.42    0.50
   2   0  -5   -0.10    0.53
   0   0   5    0.53    0.42
   0   0   5    0.60    0.56
   0   0  -5   -0.28    0.54
   0   0  -5    1.43    0.64
   0   0  -5   -0.23    0.59
   0   0   5    0.45    0.42
  -2   0  -5   -0.37    0.40
   2   0   5   -0.05    0.37
  -2   0  -5   -0.07    0.60
   2   0   5    0.18    0.44
   2   0   5    0.29    0.45
  -2   0  -5    0.26    0.66
   4   0   5   -0.10    0.55
   4   0   5    0.59    0.51
  -4   0  -5    0.33    0.49
   4   0   5   -0.20    0.38
  -4   0  -5   -0.57    0.79
  -4   0  -5   -0.10    0.67
  -6   0  -5    0.01    0.74
   6   0   5    0.03    0.50
  -6   0  -5    0.41    0.63
  -6   0  -5    0.30    0.84
   6   0   5    0.00    0.42
   6   0   5    0.06    0.69
   8   0   5    1.53    0.94
  -8   0  -5    0.60    0.86
  -8   0  -5   -0.38    0.95
  -8   0  -5    0.28    0.78
   8   0   5   -0.46    0.54
   8   0   5   -0.24    0.42
  10   0   5    0.81    1.16
 -10   0  -5   -1.46    1.17
  10   0   5    0.08    0.51
 -10   0  -5    0.41    0.97
 -10   0  -5   -0.16    0.93
  10   0   5    0.65    0.77
 -12   0  -5    0.09    1.09
  12   0   5    1.53    1.51
 -12   0  -5   -0.46    1.18
  12   0   5    0.24    0.59
 -12   0  -5   -1.66    1.35
 -14   0  -5   -1.20    1.49
 -14   0  -5   -0.72    1.16
  14   0   5    0.12    1.74
 -16   0  -5    1.46    1.95
  16   0   5   -2.39    1.92
  18   0   5   -0.11    2.41
 -18   0  -5    0.50    2.37
  20   0   5    0.70    2.71
 -20   0  -5   -1.41    2.76
  22   0   5   -2.93    3.42
 -21  -1   5   27.11    4.77
  21  -1  -5   27.55    4.64
  21   1  -5   30.92    5.19
 -21   1   5   24.02    4.52
 -19  -1   5   47.64    5.04
  19  -1  -5   52.69    5.46
  19   1  -5   55.76    6.00
 -19   1   5   48.24    5.38
 -17  -1   5   30.52    4.00
  17  -1  -5   23.79    3.64
 -17  -1   5   31.25    4.10
  17   1  -5   35.66    3.20
  17   1  -5   24.30    3.89
 -17   1   5   31.03    3.83
  15  -1  -5   40.29    3.97
 -15  -1   5   41.77    4.12
 -15  -1   5   43.48    4.06
  15   1  -5   42.50    3.21
 -15   1   5   45.01    3.96
  15   1  -5   35.94    4.10
 -13  -1   5   -0.33    1.35
  13  -1  -5   -0.22    1.05
 -13  -1   5    1.21    1.70
  13  -1  -5   -0.87    1.53
  13   1  -5    1.80    1.87
 -13   1   5   -0.73    0.81
 -13   1   5   -0.08    1.36
  13   1  -5    0.25    1.21
 -11  -1   5   88.76    4.66
  11  -1  -5   88.18    4.09
 -11  -1   5   92.83    4.31
  11  -1  -5   89.07    4.62
 -11   1   5   80.81    3.59
  11   1  -5   94.28    4.11
  11   1  -5   91.37    5.06
 -11   1   5   87.69    4.57
  -9  -1   5   59.64    3.44
  -9  -1   5   60.17    3.15
   9  -1  -5   67.42    3.46
   9  -1  -5   59.91    2.98
  -9   1   5   64.28    3.43
  -9   1   5   61.64    3.53
   9   1  -5   64.20    3.83
   9   1  -5   58.80    3.00
  -9   1   5   61.69    2.77
  -7  -1   5  279.04    9.16
  -7  -1   5  289.77    9.63
   7  -1  -5  281.23    9.14
   7  -1  -5  275.71    9.25
   7   1  -5  273.78    9.07
  -7   1   5  282.10    9.10
  -7   1   5  270.10    9.56
   7   1  -5  271.49    9.76
  -7   1   5  287.13    9.73
   5  -1  -5  144.25    5.04
  -5  -1   5  145.37    4.50
  -5  -1   5  137.73    5.08
  -5  -1   5  130.61    4.69
   5  -1  -5  139.35    4.68
   5  -1  -5  144.73    5.05
  -5   1   5  131.09    5.21
   5   1  -5  140.33    5.63
  -5   1   5  141.58    5.18
  -5   1   5  142.83    4.83
   5   1  -5  141.59    5.04
   3  -1  -5   37.70    1.80
  -3  -1   5   33.66    1.48
  -3  -1   5   35.01    1.87
   3  -1  -5   36.78    1.86
  -3  -1   5   36.09    1.57
   3  -1  -5   34.06    1.66
   3   1  -5   34.89    1.85
  -3   1   5   36.19    2.09
   3   1  -5   35.53    2.32
  -3   1   5   33.74    1.74
   1  -1  -5   11.82    1.19
  -1  -1   5   10.46    0.93
  -1  -1   5    8.49    0.94
   1  -1  -5   13.84    1.19
   1   1  -5   12.62    1.12
  -1   1   5    9.30    0.91
  -1   1   5   11.59    1.27
   1   1  -5   13.83    1.45
  -1  -1  -5  164.43    5.77
   1  -1   5  166.76    5.85
  -1  -1  -5  165.70    5.57
   1  -1   5  174.05    5.67
   1  -1   5  175.24    5.66
   1   1   5  177.25    5.62
  -1   1  -5  167.36    5.78
   1   1   5  167.99    5.87
  -1   1  -5  158.40    5.34
   3  -1   5  254.39    7.91
  -3  -1  -5  235.05    7.91
   3  -1   5  236.86    8.11
   3  -1   5  242.83    7.90
  -3  -1  -5  240.19    8.18
  -3  -1  -5  235.85    7.76
   3   1   5  239.26    7.60
   3   1   5  254.35    7.74
  -3   1  -5  242.89    7.88
  -3   1  -5  242.90    7.56
   3   1   5  251.12    8.09
  -3   1  -5  236.43    7.49
  -5  -1  -5   96.68    4.16
   5  -1   5  105.46    3.72
  -5  -1  -5   91.06    3.94
   5  -1   5   96.25    3.95
   5  -1   5  101.68    3.77
  -5  -1  -5   93.50    3.67
   5   1   5   94.02    3.69
  -5   1  -5   93.19    3.41
  -5   1  -5   97.23    3.67
  -5   1  -5   99.20    3.97
  -7  -1  -5   70.77    3.52
  -7  -1  -5   67.78    3.07
   7  -1   5   68.40    3.27
   7  -1   5   67.15    3.02
   7  -1   5   68.58    2.89
  -7  -1  -5   63.54    3.51
  -7   1  -5   70.34    3.23
   7   1   5   68.88    3.19
  -7   1  -5   71.63    3.42
   9  -1   5    7.16    1.12
  -9  -1  -5   10.30    1.47
   9  -1   5    6.64    1.43
  -9  -1  -5   13.34    1.94
   9  -1   5    5.94    0.99
  -9  -1  -5    8.05    1.69
   9   1   5    8.07    1.63
  -9   1  -5   13.86    2.33
  -9   1  -5   12.02    1.76
 -11  -1  -5   96.92    4.93
  11  -1   5   87.09    3.98
 -11  -1  -5   92.24    4.28
  11  -1   5   82.60    4.38
 -11  -1  -5   83.71    4.58
  11  -1   5   90.70    3.64
 -11   1  -5   91.24    4.56
  11   1   5   87.86    4.58
  13  -1   5   22.17    1.79
  13  -1   5   18.62    2.09
 -13  -1  -5   19.70    2.56
 -13  -1  -5   23.85    2.97
  13  -1   5   25.92    2.98
 -13  -1  -5   18.46    2.40
  13   1   5   21.89    2.86
 -13   1  -5   32.79    3.28
 -15  -1  -5   45.12    3.71
 -15  -1  -5   42.73    3.57
  15  -1   5   45.87    4.11
 -15  -1  -5   45.00    4.27
 -15   1  -5   41.31    4.02
  15   1   5   48.04    4.31
 -17  -1  -5   10.41    4.77
  17  -1   5   20.94    3.49
 -17  -1  -5   15.61    2.58
 -17  -1  -5   16.39    3.02
 -17   1  -5   16.61    3.14
  17   1   5   13.70    3.24
 -19  -1  -5   25.76    4.04
  19  -1   5   27.04    4.31
 -19   1  -5   26.78    4.21
  19   1   5   20.32    3.92
 -21  -1  -5   16.93    4.19
  21  -1   5   20.58    4.34
 -21   1  -5   14.04    3.99
  21   1   5   19.25    4.50
 -20  -2   5    4.37    3.15
 -20  -2   5    7.06    3.73
  20  -2  -5   10.39    3.65
 -20  -2   5    9.28    3.89
  20   2  -5   12.28    4.47
 -20   2   5   12.22    3.95
  20   2  -5   10.43    3.05
  18  -2  -5   17.47    3.51
 -18  -2   5    4.93    3.08
 -18  -2   5   16.70    3.63
  18   2  -5   15.47    4.16
 -18   2   5   18.45    3.68
  18   2  -5   15.06    2.94
 -16  -2   5   58.31    4.78
  16  -2  -5   57.95    4.09
 -16  -2   5   57.51    5.34
  16  -2  -5   48.49    4.52
 -16   2   5   57.93    5.09
  16   2  -5   55.25    5.69
 -16   2   5   47.55    3.37
  16   2  -5   50.39    4.11
 -14  -2   5  141.55    6.63
  14  -2  -5  150.32    6.35
 -14  -2   5  145.13    7.19
  14  -2  -5  146.60    6.96
  14   2  -5  142.78    7.91
 -14   2   5  148.81    6.01
 -14   2   5  148.84    7.29
  14   2  -5  146.37    6.62
  12  -2  -5  179.03    7.09
 -12  -2   5  174.37    7.70
 -12  -2   5  182.68    7.14
  12  -2  -5  189.04    7.64
  12   2  -5  177.43    8.38
 -12   2   5  187.28    6.89
  12   2  -5  180.76    7.26
 -12   2   5  180.17    7.80
  10  -2  -5  105.90    4.64
 -10  -2   5  111.50    4.68
  10  -2  -5  116.57    5.07
 -10  -2   5  114.16    5.27
  10   2  -5  103.79    5.75
  10   2  -5  108.10    4.89
 -10   2   5  114.95    5.53
 -10   2   5  104.90    4.61
  -8  -2   5   13.53    1.81
   8  -2  -5   17.41    1.95
  -8  -2   5   14.40    1.48
   8  -2  -5   14.30    1.55
  -8   2   5   16.92    2.26
   8   2  -5   14.03    2.38
   8   2  -5   18.63    1.97
  -8   2   5   15.98    1.73
  -6  -2   5   76.08    4.28
  -6  -2   5   79.71    3.10
  -6  -2   5   76.69    2.94
   6  -2  -5   79.28    3.45
  -6  -2   5   83.21    3.59
   6  -2  -5   83.58    3.46
   6   2  -5   81.58    4.31
   6   2  -5   78.26    3.61
  -6   2   5   78.85    3.95
  -6   2   5   81.66    3.48
  -4  -2   5  314.43   10.16
  -4  -2   5  306.37    9.94
  -4  -2   5  333.08   10.12
   4  -2  -5  322.77   10.22
  -4  -2   5  317.04   10.29
   4  -2  -5  302.64   10.05
   4  -2  -5  323.98   10.48
   4   2  -5  316.66   10.45
   4   2  -5  328.20   11.15
  -4   2   5  328.08   10.98
  -4   2   5  338.84   10.53
  -2  -2   5  406.08   12.61
  -2  -2   5  411.29   12.72
   2  -2  -5  415.00   13.05
   2  -2  -5  433.39   12.83
  -2  -2   5  416.94   12.70
  -2  -2   5  405.39   12.38
   2  -2  -5  412.89   12.92
   2  -2  -5  385.04   12.51
  -2   2   5  415.58   12.96
   2   2  -5  421.32   13.03
   2   2  -5  403.66   13.62
  -2   2   5  402.78   13.39
   0  -2   5  269.79    8.27
   0  -2  -5  253.82    8.69
   0  -2   5  249.75    8.34
   0  -2   5  270.25    8.54
   0  -2  -5  246.72    8.15
   0   2   5  261.16    8.99
   0   2  -5  256.51    8.27
   0   2  -5  256.29    8.91
   0   2   5  258.16    8.53
   2  -2   5   60.25    2.95
   2  -2   5   58.71    2.40
  -2  -2  -5   61.77    2.97
   2  -2   5   56.37    2.60
  -2  -2  -5   49.67    2.30
  -2  -2  -5   64.09    2.70
   2  -2   5   60.09    2.64
  -2  -2  -5   63.04    3.27
  -2   2  -5   62.28    3.09
   2   2   5   55.97    2.54
  -2   2  -5   61.99    2.63
  -2   2  -5   57.32    2.36
  -2   2  -5   61.13    2.49
   2   2   5   55.54    2.95
  -4  -2  -5   88.23    3.69
   4  -2   5   82.20    3.48
   4  -2   5   86.13    3.67
   4  -2   5   83.09    3.80
  -4  -2  -5   83.75    3.70
  -4  -2  -5   92.94    4.37
   4  -2   5   84.49    3.31
   4   2   5   85.96    3.76
  -4   2  -5   84.60    3.46
  -4   2  -5   88.62    3.19
   4   2   5   84.85    3.25
  -4   2  -5   87.40    3.50
  -4   2  -5   88.56    3.86
   6  -2   5  158.26    5.86
  -6  -2  -5  161.67    6.78
   6  -2   5  167.52    5.80
  -6  -2  -5  163.79    6.17
  -6  -2  -5  165.66    6.13
   6  -2   5  159.31    6.26
   6   2   5  163.30    6.07
   6   2   5  162.49    5.43
  -6   2  -5  167.04    5.89
  -6   2  -5  167.67    6.09
   6   2   5  159.45    6.17
  -8  -2  -5  250.74    8.72
   8  -2   5  257.32    8.88
   8  -2   5  271.48    9.41
  -8  -2  -5  238.71    8.89
  -8  -2  -5  244.88    9.50
   8  -2   5  251.18    8.82
  -8   2  -5  255.07    8.86
   8   2   5  261.68    9.15
  -8   2  -5  252.56    8.45
   8   2   5  263.63    9.14
 -10  -2  -5   97.27    5.25
 -10  -2  -5   95.90    4.84
  10  -2   5   99.75    4.26
 -10  -2  -5   93.15    4.36
  10  -2   5  107.22    4.46
  10  -2   5  106.88    4.91
  10   2   5   99.98    5.01
 -10   2  -5   96.02    4.73
  10   2   5   95.06    4.59
 -10   2  -5   88.28    3.98
 -12  -2  -5   43.45    3.81
  12  -2   5   46.20    2.82
 -12  -2  -5   44.43    3.26
  12  -2   5   55.04    3.67
  12  -2   5   48.59    3.04
 -12  -2  -5   38.52    3.83
 -12   2  -5   49.99    3.78
  12   2   5   47.65    4.03
  12   2   5   51.33    3.32
 -14  -2  -5   41.74    4.21
  14  -2   5   49.12    4.43
  14  -2   5   35.87    2.63
 -14  -2  -5   41.78    3.63
 -14  -2  -5   45.87    4.20
  14  -2   5   37.86    2.94
  14   2   5   40.45    4.37
 -14   2  -5   46.08    4.19
  16  -2   5   52.13    3.23
  16  -2   5   56.90    4.05
 -16  -2  -5   61.09    4.61
 -16  -2  -5   64.02    5.30
  16  -2   5   56.86    4.99
 -16  -2  -5   56.52    4.93
 -16   2  -5   61.13    5.10
  16   2   5   60.84    5.75
 -18  -2  -5   38.44    4.58
  18  -2   5   53.64    5.34
 -18  -2  -5   53.57    5.05
 -18  -2  -5   57.14    5.64
  18   2   5   52.87    5.96
 -18   2  -5   54.24    5.66
  20  -2   5   28.06    4.71
 -20  -2  -5   14.31    4.50
 -20  -2  -5   18.26    4.12
 -20   2  -5   22.53    4.39
  19  -3  -5   33.54    4.68
 -19  -3   5   35.91    5.31
 -19  -3   5   31.43    5.30
  19   3  -5   30.66    4.43
  19   3  -5   31.65    5.87
 -19   3   5   36.04    5.40
  17  -3  -5   54.00    5.22
 -17  -3   5   49.68    5.21
 -17  -3   5   48.16    5.87
 -17   3   5   46.88    3.81
 -17   3   5   43.93    5.15
  17   3  -5   44.71    4.63
  17   3  -5   44.69    5.96
 -15  -3   5   19.38    3.51
  15  -3  -5   12.63    3.03
 -15  -3   5   14.71    2.95
  15  -3  -5   15.06    2.45
 -15   3   5   14.25    2.36
 -15   3   5   11.39    3.08
  15   3  -5   15.95    3.04
  15   3  -5   13.73    3.67
 -13  -3   5   25.61    2.92
  13  -3  -5   25.33    2.69
  13  -3  -5   31.55    3.40
 -13  -3   5   28.27    3.56
 -13   3   5   27.11    2.87
  13   3  -5   27.45    3.98
 -13   3   5   28.96    3.72
  13   3  -5   29.28    3.44
  11  -3  -5   34.50    2.79
 -11  -3   5   35.85    2.94
 -11  -3   5   33.25    3.39
  11  -3  -5   41.43    3.45
  11   3  -5   37.39    3.38
 -11   3   5   35.44    2.93
  11   3  -5   30.69    3.87
 -11   3   5   39.91    3.91
  -9  -3   5  174.19    6.87
   9  -3  -5  171.03    6.44
  -9  -3   5  164.57    6.33
   9  -3  -5  174.35    6.86
  -9   3   5  168.09    6.70
  -9   3   5  169.12    7.49
   9   3  -5  166.91    7.00
   9   3  -5  166.21    7.86
   7  -3  -5  136.21    5.25
  -7  -3   5  140.13    5.20
   7  -3  -5  140.38    5.57
  -7  -3   5  139.50    5.57
   7   3  -5  136.16    5.77
   7   3  -5  128.37    6.51
  -7   3   5  133.36    6.26
  -7   3   5  134.93    5.62
  -5  -3   5   73.45    3.15
   5  -3  -5   64.49    3.05
   5  -3  -5   66.21    3.16
  -5  -3   5   77.05    3.18
   5   3  -5   73.40    4.41
  -5   3   5   75.51    4.22
   5   3  -5   71.42    3.67
  -5   3   5   74.83    3.69
   3  -3  -5   16.93    1.80
   3  -3  -5   16.84    1.55
  -3  -3   5   16.24    1.41
  -3  -3   5   16.53    1.58
   3  -3  -5   17.45    1.53
  -3   3   5   14.45    2.11
   3   3  -5   15.01    1.83
  -3   3   5   15.04    1.73
   3   3  -5   15.76    2.31
   1  -3  -5  108.76    4.69
   1  -3  -5   93.88    3.84
  -1  -3   5  108.69    4.20
  -1  -3   5   99.20    3.81
  -1   3   5   98.57    4.34
   1   3  -5  111.39    5.18
   1   3  -5  107.72    4.36
  -1   3   5  108.36    4.91
   1   3  -5  104.78    3.91
   1  -3   5  199.83    7.02
   1  -3   5  200.01    7.47
  -1  -3  -5  183.55    6.68
  -1  -3  -5  200.55    7.63
   1   3   5  190.94    6.97
  -1   3  -5  211.32    7.75
   1   3   5  204.18    7.58
   1   3   5  185.05    6.61
  -1   3  -5  193.77    6.88
  -1   3  -5  199.53    6.88
   3  -3   5  173.38    5.79
  -3  -3  -5  177.67    7.17
   3  -3   5  176.66    6.33
   3  -3   5  174.78    6.75
  -3  -3  -5  166.86    6.56
  -3   3  -5  157.67    6.01
  -3   3  -5  177.92    6.80
  -3   3  -5  165.98    6.16
   3   3   5  174.07    6.77
   3   3   5  138.87    6.75
  -3   3  -5  170.93    5.91
   3   3   5  172.48    6.16
   5  -3   5  131.82    5.92
  -5  -3  -5  134.94    6.31
   5  -3   5  151.16    5.25
  -5  -3  -5  125.66    5.46
   5  -3   5  147.71    5.63
  -5  -3  -5  134.89    5.24
   5   3   5  144.53    5.83
   5   3   5  138.59    5.93
  -5   3  -5  132.77    5.22
  -5   3  -5  134.92    5.27
   5   3   5  137.98    5.24
   7  -3   5    4.39    1.08
   7  -3   5    5.07    1.52
  -7  -3  -5    3.20    1.38
   7  -3   5    3.28    1.14
  -7  -3  -5    0.97    1.74
  -7  -3  -5    3.80    1.45
  -7   3  -5    0.82    0.89
   7   3   5    2.79    1.37
  -7   3  -5    5.09    1.36
   9  -3   5   55.64    3.08
  -9  -3  -5   55.77    3.60
   9  -3   5   54.56    3.78
   9  -3   5   58.66    3.30
  -9  -3  -5   60.67    4.58
  -9  -3  -5   59.17    3.71
  -9   3  -5   61.88    3.80
  -9   3  -5   57.78    3.24
   9   3   5   57.57    3.66
 -11  -3  -5   66.50    4.33
 -11  -3  -5   66.00    5.09
  11  -3   5   68.74    4.25
  11  -3   5   53.95    3.43
  11  -3   5   59.28    3.42
 -11  -3  -5   61.17    4.06
 -11   3  -5   72.46    3.71
  11   3   5   56.41    3.95
  13  -3   5  117.58    5.30
  13  -3   5  115.45    6.11
 -13  -3  -5  104.44    6.69
 -13  -3  -5  103.96    5.57
 -13  -3  -5   97.24    5.83
  13  -3   5  107.51    5.09
 -13   3  -5  101.77    4.90
  13   3   5  102.55    5.72
 -13   3  -5  111.61    6.09
  15  -3   5   39.56    3.16
 -15  -3  -5   38.75    4.03
  15  -3   5   35.44    4.22
 -15  -3  -5   41.52    4.35
 -15  -3  -5   36.10    4.74
  15  -3   5   38.02    3.47
 -15   3  -5   33.08    4.33
 -17  -3  -5   15.31    4.00
 -17  -3  -5   16.24    3.75
 -17  -3  -5   14.47    3.40
  17  -3   5   13.76    3.50
  17  -3   5   13.97    2.32
  17  -3   5   14.12    2.68
 -17   3  -5   16.72    3.92
 -19  -3  -5   15.76    5.74
 -19  -3  -5   12.26    4.13
 -19  -3  -5    7.61    4.00
 -19   3  -5    5.76    4.14
 -16  -4   5    9.53    3.61
  16   4  -5   13.04    4.49
  16   4  -5   16.62    3.98
 -16   4   5   12.03    3.82
 -16   4   5   11.27    2.67
  14  -4  -5    5.45    2.11
 -14  -4   5    7.59    2.97
 -14   4   5    8.37    3.20
  14   4  -5    9.51    3.74
 -14   4   5    5.72    2.35
  14   4  -5    7.21    3.00
  12  -4  -5    8.34    1.95
 -12  -4   5   13.53    2.86
  12   4  -5    7.24    2.80
 -12   4   5    9.90    2.97
  12   4  -5    6.31    3.24
 -12   4   5    7.72    2.23
  10  -4  -5    1.75    1.37
 -10  -4   5    4.47    2.19
  10   4  -5    4.39    2.28
 -10   4   5    0.47    1.64
  10   4  -5   -0.40    2.42
 -10   4   5   -0.71    1.91
   8  -4  -5    4.88    1.27
  -8   4   5    3.95    2.05
   8   4  -5    3.30    1.96
   8   4  -5    4.84    2.39
  -8   4   5    4.86    1.71
   6  -4  -5   30.02    2.17
  -6   4   5   24.48    3.17
  -6   4   5   24.77    2.60
   6   4  -5   29.08    3.01
   6   4  -5   24.31    3.51
  -4  -4   5   32.82    2.44
  -4   4   5   29.03    3.15
   4   4  -5   33.58    3.01
   4   4  -5   29.66    3.62
  -4   4   5   32.23    2.88
  -2  -4   5   23.42    2.22
  -2  -4   5   28.54    3.15
  -2   4   5   26.92    3.19
   2   4  -5   22.25    3.10
   2   4  -5   26.86    2.58
  -2   4   5   30.73    2.75
   0  -4  -5   12.60    2.23
   0  -4   5   12.07    1.71
   0  -4   5   11.53    2.24
   0   4  -5   11.07    1.66
   0   4   5   13.23    2.20
   0   4  -5   13.60    2.46
   0   4  -5   14.14    1.78
   0   4   5   12.39    1.90
   2  -4   5    6.46    1.89
   2  -4   5    3.83    1.40
  -2  -4  -5    6.25    2.07
  -2  -4  -5    9.61    2.01
   2   4   5    5.34    1.51
  -2   4  -5    7.84    1.50
  -2   4  -5    6.67    1.90
   2   4   5    6.96    1.88
  -4  -4  -5   14.54    2.22
   4  -4   5   14.29    2.36
  -4  -4  -5   11.71    2.56
   4  -4   5   11.13    1.76
   4   4   5   11.82    1.68
  -4   4  -5   11.42    1.87
   4   4   5   13.79    2.38
   6  -4   5   58.04    3.54
   6  -4   5   56.74    2.98
   6  -4   5   56.83    4.22
  -6  -4  -5   56.02    4.77
  -6  -4  -5   54.75    3.88
  -6   4  -5   59.44    3.51
   6   4   5   59.33    3.88
   6   4   5   54.69    4.03
   8  -4   5   36.52    3.01
  -8  -4  -5   35.06    3.02
   8  -4   5   33.90    2.58
  -8  -4  -5   42.74    4.55
   8  -4   5   45.59    4.21
  -8  -4  -5   42.21    3.58
  -8   4  -5   34.41    2.94
   8   4   5   31.01    3.31
  10  -4   5    8.35    1.70
  10  -4   5    8.29    2.54
 -10  -4  -5    4.89    3.02
  10  -4   5    9.60    1.92
 -10  -4  -5    6.63    2.13
 -10  -4  -5   11.77    2.43
  10   4   5    7.27    2.37
 -10   4  -5    6.73    1.68
  12  -4   5    3.12    1.64
 -12  -4  -5    1.15    3.06
  12  -4   5    3.11    2.34
  12  -4   5    1.02    1.38
 -12  -4  -5    5.82    2.34
 -12  -4  -5    2.36    2.21
 -12   4  -5    3.58    1.77
  12   4   5    1.10    2.20
  14  -4   5    7.93    2.04
 -14  -4  -5    8.54    3.92
  14  -4   5    8.30    2.19
 -14  -4  -5    8.16    2.93
 -14  -4  -5    9.05    2.70
  14  -4   5    9.18    3.03
 -14   4  -5    5.75    1.97
  16  -4   5   10.68    2.54
 -16  -4  -5   10.17    3.48
 -16  -4  -5   11.79    3.44
  16  -4   5   14.03    2.58
  16  -4   5    8.13    3.42
 -16  -4  -5   12.21    4.59
  13   5  -5    0.04    3.88
 -13   5   5   -0.88    3.33
 -11   5   5    3.52    3.06
  11   5  -5   -0.06    3.30
 -11   5   5    2.05    2.35
  11   5  -5   -0.25    2.72
   9  -5  -5    4.89    1.74
  -9   5   5    8.47    3.22
   9   5  -5    5.93    2.83
   9   5  -5    2.79    3.18
  -9   5   5    3.21    2.34
   7  -5  -5    5.02    1.48
  -7   5   5    5.74    2.34
  -7   5   5    7.50    2.88
   7   5  -5    2.77    2.99
   7   5  -5    5.48    2.56
  -5  -5   5   13.02    2.97
  -5   5   5   16.59    2.75
   5   5  -5   18.69    3.67
   5   5  -5   14.83    2.77
  -5   5   5   13.36    2.99
  -3  -5   5   11.96    2.89
   3   5  -5   11.10    3.05
  -3   5   5    5.49    2.10
   3   5  -5    9.45    2.25
  -3   5   5    8.29    2.57
  -1  -5   5    1.46    2.09
  -1  -5   5    1.76    1.54
  -1   5   5   -0.24    1.67
  -1   5   5    2.70    2.13
   1   5  -5    2.68    2.32
   1  -5   5    8.65    1.87
  -1  -5  -5    6.64    2.39
   1  -5   5   15.94    3.04
  -1   5  -5    7.50    1.95
   1   5   5    5.48    1.89
  -1   5  -5    9.29    2.51
   1   5   5    8.47    2.48
  -3  -5  -5    5.20    2.22
  -3  -5  -5    5.63    2.73
   3  -5   5    7.62    1.88
   3  -5   5    9.46    2.71
   3   5   5    6.00    2.45
  -3   5  -5    4.44    1.78
   5  -5   5   14.54    2.41
  -5  -5  -5   19.06    3.79
   5  -5   5   21.36    3.53
  -5  -5  -5   17.91    2.96
   5   5   5   18.76    3.17
  -5   5  -5   18.05    2.51
  -7  -5  -5    7.78    3.49
   7  -5   5    4.91    2.61
   7  -5   5    4.11    1.53
   7  -5   5    2.13    1.73
  -7  -5  -5    5.32    2.42
  -7   5  -5    3.58    1.78
   9  -5   5   19.14    3.46
   9  -5   5   15.27    2.26
  -9  -5  -5   12.81    3.98
  -9  -5  -5   15.39    2.97
   9  -5   5   14.31    2.48
  -9   5  -5   13.29    2.47
  11  -5   5    1.19    1.83
  11  -5   5    2.57    1.87
 -11  -5  -5   -0.22    3.66
 -11  -5  -5    2.86    2.62
  11  -5   5    3.23    2.68
 -11   5  -5    1.68    1.93
   6   6  -5    9.08    5.43
  -4  -6   5   11.13    5.41
  -4   6   5   14.84    3.72
  -4   6   5   14.65    3.11
   4   6  -5   12.48    3.85
  -2  -6   5   40.22    4.95
   2  -6  -5   36.73    4.61
   2   6  -5   36.58    4.69
  -2   6   5   41.05    4.20
  -2   6   5   36.42    4.66
   0  -6  -5   17.17    3.54
   0  -6   5   18.93    4.10
   0   6   5   14.77    3.60
   0   6  -5    7.97    3.22
   2  -6   5   11.00    2.65
  -2  -6  -5   11.29    3.14
   2  -6   5    7.20    3.46
   2   6   5   13.49    3.54
  -4  -6  -5   12.17    3.35
   4  -6   5    7.65    3.47
   4  -6   5   13.10    3.05
   4   6   5   12.84    3.47
  22   0  -6   33.80    5.67
 -22   0   6   40.28    5.67
 -20   0   6    2.19    3.20
  20   0  -6   -1.58    2.88
  18   0  -6   57.98    5.68
 -18   0   6   58.67    5.49
  16   0  -6  103.56    6.26
 -16   0   6  118.31    6.47
  14   0  -6  259.36   10.25
 -14   0   6  238.99    9.57
  14   0  -6  244.79    8.72
 -12   0   6  226.02    7.65
 -12   0   6  239.58    8.95
 -12   0   6  230.62    9.05
  12   0  -6  228.44    7.84
  12   0  -6  222.46    8.91
 -10   0   6   23.09    1.54
  10   0  -6   20.11    2.39
  10   0  -6   22.72    1.91
  10   0  -6   27.60    1.90
 -10   0   6   20.70    2.38
 -10   0   6   26.81    2.64
   8   0  -6   31.20    1.83
  -8   0   6   26.06    2.29
  -8   0   6   31.25    2.40
   8   0  -6   27.28    1.88
   8   0  -6   28.84    2.51
  -8   0   6   30.32    1.60
   6   0  -6  258.06    8.57
   6   0  -6  261.92    8.88
  -6   0   6  258.10    8.90
   6   0  -6  259.77    8.31
  -6   0   6  271.71    8.26
  -6   0   6  250.87    8.64
  -4   0   6  888.82   28.67
   4   0  -6  959.74   28.78
  -4   0   6  995.65   29.06
   4   0  -6  960.73   28.66
  -4   0   6  984.41   28.51
   4   0  -6  930.93   28.44
   2   0  -6  464.57   14.38
  -2   0   6  442.13   14.38
  -2   0   6  477.81   14.73
  -2   0   6  502.66   14.44
   2   0  -6  469.80   14.38
   2   0  -6  461.75   14.25
   0   0   6  566.60   17.32
   0   0   6  538.71   16.96
   0   0  -6  556.11   16.85
   0   0  -6  551.11   17.05
   0   0   6  591.74   17.09
   0   0  -6  559.71   16.93
   2   0   6    7.62    0.82
  -2   0  -6    4.53    0.94
   2   0   6    6.96    0.97
  -2   0  -6    4.67    0.87
   2   0   6    6.72    0.74
  -2   0  -6    6.25    0.69
  -4   0  -6  213.81    7.46
   4   0   6  226.34    7.05
   4   0   6  191.35    6.82
  -4   0  -6  215.62    7.32
  -4   0  -6  222.80    6.96
   4   0   6  213.96    6.76
  -6   0  -6  368.87   11.85
   6   0   6  378.88   11.36
   6   0   6  361.05   11.63
  -6   0  -6  370.74   11.56
   6   0   6  354.26   11.58
  -6   0  -6  364.83   12.11
  -8   0  -6  481.35   15.26
   8   0   6  451.71   14.82
  -8   0  -6  471.79   15.01
  -8   0  -6  482.32   15.65
   8   0   6  476.38   14.44
   8   0   6  475.82   14.95
 -10   0  -6  150.77    5.88
  10   0   6  148.42    5.16
 -10   0  -6  149.53    5.74
 -10   0  -6  151.01    6.40
  10   0   6  147.03    5.66
  10   0   6  147.73    5.94
 -12   0  -6   55.83    3.37
  12   0   6   52.11    2.46
 -12   0  -6   54.21    3.27
  12   0   6   47.08    3.54
 -12   0  -6   49.73    3.86
  14   0   6   71.72    4.67
 -14   0  -6   76.68    4.45
 -14   0  -6   75.77    4.08
 -16   0  -6   37.17    3.79
  16   0   6   47.19    4.65
  18   0   6   92.37    6.50
 -18   0  -6   96.81    6.27
  20   0   6   38.31    5.12
 -20   0  -6   30.37    4.53
  22   0   6   31.00    7.06
  21  -1  -6   38.56    5.33
 -21  -1   6   37.17    5.44
 -21   1   6   43.55    5.66
  21   1  -6   32.86    5.50
 -19  -1   6   58.54    5.66
  19  -1  -6   40.44    4.75
  19   1  -6   47.85    5.74
 -19   1   6   46.80    5.24
 -17  -1   6   48.51    4.64
  17  -1  -6   56.31    4.84
 -17  -1   6   36.72    4.15
 -17   1   6   50.87    5.07
  17   1  -6   48.53    3.69
  17   1  -6   46.12    5.21
  15  -1  -6   12.62    2.67
 -15  -1   6   15.96    2.78
 -15  -1   6   20.55    3.12
  15   1  -6   14.35    2.14
  15   1  -6   15.25    3.16
 -15   1   6   14.76    2.93
  13  -1  -6   28.57    2.57
 -13  -1   6   36.08    3.34
 -13  -1   6   30.46    3.19
  13  -1  -6   30.21    3.22
 -13   1   6   31.94    3.54
 -13   1   6   31.47    2.26
  13   1  -6   30.17    2.72
  13   1  -6   30.55    3.50
  11  -1  -6  104.21    4.62
 -11  -1   6  108.18    5.15
  11  -1  -6  104.90    5.14
 -11  -1   6   99.37    4.79
 -11   1   6   97.41    5.10
  11   1  -6  114.97    5.71
  11   1  -6  103.29    4.60
 -11   1   6  100.90    4.12
  -9  -1   6  264.49    8.90
  -9  -1   6  263.03    9.35
   9  -1  -6  241.46    8.66
   9  -1  -6  262.78    9.02
   9   1  -6  249.83    8.64
   9   1  -6  256.85    9.52
  -9   1   6  251.85    9.27
  -9   1   6  259.05    9.40
  -9   1   6  249.45    8.53
   7  -1  -6  222.80    7.45
   7  -1  -6  212.58    6.91
  -7  -1   6  222.24    7.86
   7  -1  -6  209.19    7.48
  -7  -1   6  214.24    7.40
  -7  -1   6  214.54    6.93
   7   1  -6  214.80    7.35
  -7   1   6  213.55    7.82
  -7   1   6  228.55    7.94
   7   1  -6  213.30    8.11
  -7   1   6  225.31    7.36
  -5  -1   6   56.94    2.92
  -5  -1   6   63.34    2.34
   5  -1  -6   59.90    2.49
   5  -1  -6   60.53    2.73
   5  -1  -6   59.75    2.76
  -5  -1   6   59.62    2.54
   5   1  -6   57.79    2.70
   5   1  -6   67.61    3.47
  -5   1   6   60.43    3.03
  -5   1   6   59.81    2.60
  -5   1   6   56.03    2.88
  -3  -1   6   32.25    1.91
   3  -1  -6   36.44    2.00
  -3  -1   6   33.97    1.64
   3  -1  -6   38.86    1.93
   3  -1  -6   37.68    1.76
  -3   1   6   31.36    2.03
   3   1  -6   35.07    1.92
  -3   1   6   33.20    1.77
  -3   1   6   33.24    2.07
   3   1  -6   38.17    2.44
  -1  -1   6  227.76    7.12
   1  -1  -6  208.71    7.02
   1  -1  -6  218.43    7.12
  -1  -1   6  213.85    7.25
  -1   1   6  214.83    7.41
  -1   1   6  228.27    7.18
   1   1  -6  209.37    6.95
   1   1  -6  213.98    7.38
   1  -1   6  323.48   10.02
   1  -1   6  315.06   10.22
  -1  -1  -6  304.14   10.03
  -1  -1  -6  317.15   10.21
   1  -1   6  322.32   10.06
   1   1   6  324.98    9.99
   1   1   6  307.20   10.19
  -1   1  -6  317.15   10.23
  -1   1  -6  314.76    9.83
   3  -1   6  436.45   13.53
  -3  -1  -6  413.18   12.97
  -3  -1  -6  415.46   13.39
   3  -1   6  431.39   13.77
  -3  -1  -6  398.99   13.16
   3  -1   6  445.61   13.59
  -3   1  -6  424.98   13.13
  -3   1  -6  417.75   12.81
   3   1   6  447.17   13.40
   3   1   6  438.67   13.69
  -3   1  -6  420.89   12.64
   3   1   6  419.40   13.13
   5  -1   6  101.96    4.21
   5  -1   6  106.82    4.06
  -5  -1  -6  104.16    4.36
  -5  -1  -6  103.50    4.54
  -5  -1  -6  104.19    4.01
   5  -1   6  108.53    3.97
   5   1   6  114.89    3.82
  -5   1  -6  104.44    3.81
  -5   1  -6  108.15    4.30
  -5   1  -6  103.06    3.91
   5   1   6   99.37    3.86
  -7  -1  -6   17.55    1.99
   7  -1   6   19.32    1.48
  -7  -1  -6   19.51    2.15
   7  -1   6   21.98    1.92
   7  -1   6   18.74    1.61
  -7  -1  -6   22.30    1.81
   7   1   6   17.43    1.59
  -7   1  -6   23.12    1.56
  -7   1  -6   21.37    2.10
  -7   1  -6   22.09    1.98
   7   1   6   20.48    1.81
   9  -1   6   56.37    3.11
   9  -1   6   55.13    2.93
   9  -1   6   53.67    2.61
  -9  -1  -6   53.68    3.50
  -9  -1  -6   60.54    3.12
  -9  -1  -6   62.86    3.68
   9   1   6   53.51    3.16
  -9   1  -6   62.75    3.38
  11  -1   6  160.63    6.62
  11  -1   6  156.94    6.23
 -11  -1  -6  154.90    6.88
  11  -1   6  159.91    5.82
 -11  -1  -6  155.89    6.29
 -11  -1  -6  162.93    6.78
  11   1   6  160.25    6.66
 -11   1  -6  162.76    6.57
 -13  -1  -6   58.91    3.75
 -13  -1  -6   52.07    3.84
 -13  -1  -6   57.79    4.27
  13  -1   6   59.36    3.47
  13  -1   6   66.13    3.10
  13  -1   6   57.07    4.08
  13   1   6   59.23    4.14
 -13   1  -6   59.59    4.00
 -15  -1  -6   57.72    4.24
 -15  -1  -6   60.52    4.22
 -15  -1  -6   63.53    4.89
  15  -1   6   57.54    4.52
  15   1   6   59.20    4.59
 -15   1  -6   58.77    4.53
  17  -1   6   20.25    3.50
 -17  -1  -6   25.59    3.63
 -17  -1  -6   13.57    2.62
  17   1   6   25.25    3.79
 -17   1  -6   18.85    3.33
 -19  -1  -6   15.04    3.51
  19  -1   6   10.63    3.43
 -19   1  -6   10.54    3.33
  19   1   6   12.51    3.61
  21  -1   6   10.40    4.05
 -21  -1  -6    6.82    3.78
  21   1   6    7.65    3.99
 -21   1  -6   11.08    3.98
 -20  -2   6    2.34    3.66
  20  -2  -6    5.59    3.48
 -20  -2   6    6.45    3.77
 -20   2   6    9.65    3.99
  20   2  -6    4.76    2.84
  20   2  -6    4.60    4.08
  18  -2  -6    0.25    2.49
 -18  -2   6    2.66    2.92
 -18  -2   6   -0.09    2.83
  18   2  -6    1.43    3.29
 -18   2   6    3.00    2.91
  18   2  -6    1.46    2.24
  16  -2  -6    2.89    2.40
 -16  -2   6    1.12    2.45
 -16  -2   6    2.97    2.52
  16  -2  -6    2.33    1.70
 -16   2   6    2.45    1.41
 -16   2   6    2.60    2.60
  16   2  -6    2.92    2.10
  16   2  -6    2.63    2.98
 -14  -2   6    6.00    2.20
 -14  -2   6    2.64    2.11
  14  -2  -6    2.62    2.03
  14  -2  -6    6.36    1.73
  14   2  -6    3.81    1.89
 -14   2   6    4.78    2.28
 -14   2   6    1.84    1.30
  14   2  -6    5.85    2.75
  12  -2  -6    6.44    1.54
  12  -2  -6   11.86    2.26
 -12  -2   6    6.43    2.08
 -12  -2   6   13.51    2.16
 -12   2   6   15.00    2.66
  12   2  -6    7.68    1.86
 -12   2   6    7.16    1.68
  12   2  -6    3.08    2.19
  10  -2  -6    3.70    1.57
 -10  -2   6    2.73    1.43
  10  -2  -6    1.00    1.00
 -10  -2   6    2.76    1.49
  10   2  -6    2.34    1.82
 -10   2   6    3.76    1.19
 -10   2   6    1.09    1.45
  10   2  -6    1.68    1.27
   8  -2  -6    1.70    1.27
  -8  -2   6   -0.39    0.97
   8  -2  -6    0.29    0.91
  -8  -2   6    0.23    1.15
   8   2  -6   -1.29    1.39
   8   2  -6    0.62    1.05
  -8   2   6    0.99    0.93
  -8   2   6    0.43    1.26
   6  -2  -6   34.95    2.17
  -6  -2   6   30.04    2.24
  -6  -2   6   32.31    1.73
   6  -2  -6   33.84    2.25
  -6  -2   6   31.42    1.77
  -6   2   6   31.18    2.11
  -6   2   6   32.16    2.61
   6   2  -6   34.74    3.05
   6   2  -6   35.76    2.40
  -4  -2   6    6.44    1.13
  -4  -2   6    5.85    0.74
   4  -2  -6    6.00    0.99
  -4  -2   6    7.37    0.97
   4  -2  -6    4.34    1.01
  -4  -2   6    6.96    1.01
   4  -2  -6    4.61    1.01
   4   2  -6    5.23    1.62
  -4   2   6    6.12    1.12
   4   2  -6    3.54    1.02
  -4   2   6    7.44    1.42
  -2  -2   6   27.90    1.69
   2  -2  -6   28.17    1.74
   2  -2  -6   28.56    2.02
  -2  -2   6   26.12    1.63
  -2  -2   6   26.68    1.73
   2  -2  -6   26.29    1.39
   2  -2  -6   26.43    1.76
   2   2  -6   25.92    1.87
   2   2  -6   30.32    2.46
  -2   2   6   26.70    2.20
  -2   2   6   25.70    1.85
   0  -2   6    2.00    0.75
   0  -2   6    2.22    0.70
   0  -2  -6    1.70    0.66
   0  -2   6    2.11    0.77
   0  -2  -6    2.79    0.87
   0  -2  -6    2.66    1.12
   0   2   6    3.64    1.07
   0   2  -6    2.67    0.80
   0   2   6    2.39    0.83
   0   2  -6    1.70    1.11
  -2  -2  -6   27.20    2.03
   2  -2   6   25.94    1.65
  -2  -2  -6   31.40    2.48
   2  -2   6   26.96    2.07
  -2  -2  -6   31.28    1.97
   2  -2   6   29.27    1.86
  -2  -2  -6   24.68    1.50
   2  -2   6   27.01    1.84
  -2   2  -6   26.06    2.22
  -2   2  -6   29.84    1.69
   2   2   6   28.00    1.74
   2   2   6   29.24    2.14
  -2   2  -6   25.89    1.37
   4  -2   6    2.82    0.78
  -4  -2  -6    1.95    1.00
  -4  -2  -6    1.53    0.92
  -4  -2  -6    1.14    0.78
  -4  -2  -6    1.04    1.22
   4  -2   6    2.20    0.87
   4  -2   6    2.09    1.05
  -4   2  -6    3.51    1.10
   4   2   6    2.49    0.76
   4   2   6    2.36    0.77
   4   2   6    1.17    0.93
  -4   2  -6    2.50    0.78
  -4   2  -6    1.03    0.60
  -6  -2  -6   56.18    3.12
   6  -2   6   53.51    2.68
   6  -2   6   54.22    3.11
   6  -2   6   54.64    2.75
  -6  -2  -6   57.34    3.03
  -6  -2  -6   53.33    3.58
  -6   2  -6   54.68    2.84
   6   2   6   51.46    2.70
   6   2   6   57.62    3.13
   6   2   6   50.02    2.38
  -8  -2  -6   11.78    1.66
  -8  -2  -6    7.70    1.71
   8  -2   6   10.50    1.42
   8  -2   6    8.25    1.32
   8  -2   6   10.22    1.79
  -8  -2  -6   11.59    2.18
   8   2   6   11.00    1.66
   8   2   6    8.29    1.05
  -8   2  -6   10.16    1.63
 -10  -2  -6    1.50    1.23
  10  -2   6    0.19    0.89
  10  -2   6   -0.53    1.07
 -10  -2  -6   -0.32    1.54
 -10  -2  -6   -1.21    1.39
  10  -2   6    0.65    0.85
  10   2   6   -0.03    1.49
 -10   2  -6    2.65    1.51
 -12  -2  -6    2.62    1.51
  12  -2   6    2.22    1.53
 -12  -2  -6   -0.61    1.66
  12  -2   6    0.29    1.04
  12  -2   6    1.87    0.99
 -12  -2  -6    2.74    1.96
 -12   2  -6    0.97    1.66
  12   2   6    1.03    1.86
 -14  -2  -6    5.35    2.33
  14  -2   6   11.72    1.96
  14  -2   6   11.35    2.61
 -14  -2  -6   11.02    2.31
  14  -2   6   13.17    1.69
 -14  -2  -6   14.43    2.80
  14   2   6   15.56    3.18
 -14   2  -6   15.08    2.98
 -16  -2  -6   14.17    2.83
 -16  -2  -6    8.01    2.77
  16  -2   6   10.13    1.72
  16  -2   6   14.17    3.20
 -16  -2  -6   12.71    3.30
  16   2   6   10.58    3.51
 -16   2  -6   18.93    3.42
  18  -2   6   -0.98    2.60
 -18  -2  -6    1.15    3.00
 -18  -2  -6    1.45    2.62
 -18  -2  -6    5.47    2.88
 -18   2  -6    5.73    3.10
 -20  -2  -6    5.59    3.47
  20  -2   6    2.42    3.44
 -20  -2  -6    4.77    5.29
 -20   2  -6    7.25    3.65
  19  -3  -6   29.77    4.54
 -19  -3   6   22.14    4.62
  19   3  -6   21.19    3.96
  19   3  -6   20.98    5.33
 -19   3   6   22.31    4.83
 -17  -3   6    0.03    2.99
  17  -3  -6    5.89    2.99
  17  -3  -6    3.63    2.25
 -17   3   6    1.09    3.15
  17   3  -6    2.17    2.68
 -17   3   6    2.06    1.88
  17   3  -6    2.15    3.43
 -15  -3   6    5.52    2.86
  15  -3  -6    4.48    2.56
  15  -3  -6    3.41    1.86
  15   3  -6    2.78    3.00
  15   3  -6    5.85    2.58
 -15   3   6    4.08    1.84
 -15   3   6    4.45    2.78
  13  -3  -6    1.44    1.51
  13  -3  -6    3.72    2.17
 -13  -3   6    3.35    2.43
 -13   3   6    3.23    2.36
  13   3  -6    4.84    2.30
 -13   3   6    4.20    1.78
  13   3  -6   -1.01    2.36
  11  -3  -6   46.22    3.71
  11  -3  -6   48.03    3.12
 -11  -3   6   48.20    4.03
 -11   3   6   47.60    4.15
 -11   3   6   43.46    3.25
  11   3  -6   44.06    3.67
  11   3  -6   44.95    4.63
   9  -3  -6   36.01    2.62
  -9  -3   6   36.97    3.20
   9  -3  -6   37.75    3.09
   9   3  -6   36.61    3.97
  -9   3   6   38.01    3.58
  -9   3   6   36.34    2.87
   9   3  -6   38.46    3.16
   7  -3  -6   93.97    4.31
  -7  -3   6   91.81    4.39
   7  -3  -6   96.46    4.13
   7   3  -6   97.50    4.66
  -7   3   6   99.59    5.13
  -7   3   6   91.54    4.40
   7   3  -6   87.83    5.36
  -5  -3   6   10.47    1.30
  -5  -3   6    7.76    1.39
   5  -3  -6    7.66    1.38
   5  -3  -6    8.64    1.24
   5   3  -6   10.87    1.74
  -5   3   6    8.22    1.48
  -5   3   6   12.48    2.16
   5   3  -6   12.92    2.43
   3  -3  -6    1.28    0.84
  -3  -3   6    2.12    0.93
   3  -3  -6    2.31    1.21
  -3   3   6    0.15    1.13
   3   3  -6    1.25    1.08
   3   3  -6    1.51    1.52
  -3   3   6    1.08    1.08
  -1  -3   6   17.30    1.71
   1  -3  -6   12.82    1.89
   1  -3  -6   17.91    1.59
   1   3  -6   16.49    2.32
   1   3  -6   19.67    1.89
  -1   3   6   17.81    1.93
  -1   3   6   18.15    2.17
  -1  -3  -6   75.70    3.35
   1  -3   6   84.14    4.18
  -1  -3  -6   77.75    4.22
   1  -3   6   74.92    3.20
   1  -3   6   78.22    3.65
   1   3   6   83.85    3.73
  -1   3  -6   81.39    3.50
  -1   3  -6   75.27    4.21
   1   3   6   83.12    4.26
  -3  -3  -6   59.56    3.05
  -3  -3  -6   57.84    3.45
   3  -3   6   64.92    2.95
   3  -3   6   68.61    3.36
   3  -3   6   66.65    3.78
  -3  -3  -6   64.03    4.02
  -3   3  -6   62.37    3.08
   3   3   6   70.32    3.29
   3   3   6   67.50    3.82
  -3   3  -6   61.99    3.67
  -3   3  -6   58.96    2.86
  -5  -3  -6   37.69    2.75
  -5  -3  -6   35.28    2.57
   5  -3   6   31.47    2.34
  -5  -3  -6   33.92    3.32
   5  -3   6   31.30    2.07
   5  -3   6   32.24    2.82
   5   3   6   31.68    2.79
  -5   3  -6   25.73    3.01
   5   3   6   32.38    2.19
  -5   3  -6   32.93    2.31
   7  -3   6   34.15    2.50
  -7  -3  -6   32.28    3.53
   7  -3   6   33.16    2.29
  -7  -3  -6   35.64    2.90
   7  -3   6   33.35    2.95
  -7  -3  -6   34.11    2.87
  -7   3  -6   37.05    2.75
   7   3   6   29.74    2.88
  -7   3  -6   36.18    2.49
   9  -3   6    2.00    1.13
   9  -3   6    3.52    1.61
  -9  -3  -6    2.65    1.51
  -9  -3  -6    0.43    1.48
   9  -3   6    2.74    1.20
  -9  -3  -6    0.60    1.97
  -9   3  -6    2.06    1.39
  -9   3  -6    2.41    1.09
 -11  -3  -6   19.16    2.63
 -11  -3  -6   20.08    3.28
 -11  -3  -6   17.76    2.63
  11  -3   6   18.00    2.21
  11  -3   6   18.69    2.25
  11  -3   6   20.80    2.83
 -11   3  -6   18.38    2.74
 -13  -3  -6   10.07    2.65
  13  -3   6   16.97    2.89
 -13  -3  -6   16.51    2.71
 -13  -3  -6   13.55    3.27
  13  -3   6   11.71    1.91
  13  -3   6   11.30    2.04
 -13   3  -6   13.09    2.88
  15  -3   6   31.16    3.04
 -15  -3  -6   35.40    3.88
  15  -3   6   32.05    3.30
 -15  -3  -6   28.25    4.33
 -15  -3  -6   30.79    4.04
  15  -3   6   37.27    4.41
 -15   3  -6   25.73    6.24
 -17  -3  -6    3.92    3.20
  17  -3   6    4.07    2.15
  17  -3   6    8.03    1.86
 -17  -3  -6    8.52    3.46
  17  -3   6    4.71    3.06
 -17  -3  -6    5.26    3.01
 -19  -3  -6    6.62    3.87
 -19  -3  -6    5.45    4.09
 -16  -4   6   40.00    4.97
 -16   4   6   54.73    4.64
  16   4  -6   52.05    5.53
  16   4  -6   42.37    6.30
 -16   4   6   37.98    5.20
 -14  -4   6   48.32    4.97
  14  -4  -6   49.71    4.00
 -14   4   6   51.44    5.41
  14   4  -6   42.68    5.76
  14   4  -6   55.90    5.07
 -14   4   6   51.52    4.47
  12  -4  -6   54.70    3.70
 -12  -4   6   62.79    4.97
  12   4  -6   41.40    5.05
 -12   4   6   53.50    4.14
  12   4  -6   52.12    4.67
 -12   4   6   54.38    5.28
  10  -4  -6   25.43    2.55
 -10  -4   6   28.86    3.25
  10   4  -6   27.67    4.02
 -10   4   6   28.72    3.26
  10   4  -6   32.76    3.68
 -10   4   6   22.10    3.53
   8  -4  -6   25.18    2.31
  -8   4   6   27.95    3.57
   8   4  -6   26.70    3.15
  -8   4   6   27.36    2.95
   8   4  -6   18.87    3.21
   6  -4  -6   55.42    3.05
   6   4  -6   51.71    3.77
  -6   4   6   57.34    4.40
   6   4  -6   53.58    4.72
  -6   4   6   55.87    3.71
   4  -4  -6  130.80    5.07
  -4  -4   6  130.26    5.35
  -4   4   6  141.41    6.66
   4   4  -6  132.78    6.86
   4   4  -6  126.73    5.83
  -4   4   6  129.72    5.92
  -2  -4   6  153.52    6.31
  -2  -4   6  165.82    7.28
  -2   4   6  160.99    6.68
  -2   4   6  174.24    7.47
   2   4  -6  153.79    6.27
   2   4  -6  146.79    7.14
   0  -4  -6   32.82    3.24
   0  -4   6   33.46    3.35
   0  -4   6   31.78    2.59
   0   4  -6   32.00    3.32
   0   4   6   30.51    3.30
   0   4   6   33.68    2.83
   0   4  -6   33.25    2.54
   2  -4   6   20.55    2.22
   2  -4   6   26.67    3.09
  -2  -4  -6   25.63    2.90
  -2  -4  -6   19.19    2.77
   2   4   6   25.41    2.49
   2   4   6   26.92    3.10
  -2   4  -6   25.76    2.36
  -2   4  -6   27.17    3.13
   4  -4   6   48.58    3.83
   4  -4   6   45.39    3.13
  -4  -4  -6   56.50    3.79
  -4  -4  -6   48.58    4.22
   4  -4   6   42.19    2.53
  -4   4  -6   50.93    3.74
   4   4   6   47.33    3.01
   4   4   6   45.05    3.75
  -4   4  -6   45.57    3.16
  -6  -4  -6   99.82    6.18
   6  -4   6  107.33    4.44
   6  -4   6  113.36    5.86
  -6  -4  -6  104.08    5.29
   6  -4   6   94.07    4.90
  -6   4  -6   97.94    4.79
   6   4   6  102.22    5.54
  -8  -4  -6   88.15    4.93
   8  -4   6   83.42    4.52
   8  -4   6   91.30    5.34
  -8  -4  -6   82.27    4.43
  -8  -4  -6   72.01    5.85
   8  -4   6   83.52    4.12
  -8   4  -6   83.68    4.42
 -10  -4  -6   45.88    4.01
  10  -4   6   50.84    3.59
 -10  -4  -6   43.50    5.04
  10  -4   6   54.46    3.47
 -10  -4  -6   48.51    3.93
  10  -4   6   54.31    4.66
 -10   4  -6   50.85    3.54
  12  -4   6   29.60    2.99
  12  -4   6   25.30    2.85
  12  -4   6   28.97    3.83
 -12  -4  -6   15.59    4.05
 -12  -4  -6   28.89    3.55
 -12  -4  -6   26.25    3.26
  14  -4   6   10.58    3.10
 -14  -4  -6   10.80    3.91
 -14  -4  -6   13.00    3.03
  14  -4   6   13.38    2.36
 -14  -4  -6    8.71    2.97
  14  -4   6    9.42    2.17
  16  -4   6   35.47    3.79
 -16  -4  -6   41.83    8.90
  16  -4   6   32.55    3.68
  16  -4   6   45.48    8.09
 -16  -4  -6   32.67    4.83
  13   5  -6    8.81    5.07
  11  -5  -6   34.33    3.14
 -11   5   6   30.43    4.49
  11   5  -6   31.43    4.41
  11   5  -6   17.92    4.57
 -11   5   6   31.51    3.79
   9  -5  -6   56.50    3.69
  -9   5   6   60.92    5.84
  -9   5   6   57.06    4.68
   9   5  -6   50.03    5.80
   9   5  -6   58.98    5.21
   7  -5  -6   46.75    3.14
   7   5  -6   36.66    4.11
  -7   5   6   42.94    4.66
  -7   5   6   45.11    3.99
   7   5  -6   39.26    5.10
  -5  -5   6   30.99    3.92
  -5   5   6   27.88    3.75
   5   5  -6   28.46    3.58
   5   5  -6   22.42    3.86
  -5   5   6   26.26    3.25
  -3  -5   6   13.43    3.06
   3   5  -6   12.79    2.46
  -3   5   6   12.17    2.91
   3   5  -6   10.10    2.83
  -3   5   6    8.94    2.48
  -1  -5   6   40.85    3.48
  -1  -5   6   59.78    4.85
  -1   5   6   49.51    3.93
  -1   5   6   42.41    4.39
   1   5  -6   47.87    4.63
   1  -5   6   92.16    4.93
  -1  -5  -6   94.06    5.78
   1  -5   6   90.11    5.96
   1   5   6   93.09    5.86
   1   5   6   92.08    5.04
  -1   5  -6   90.12    5.76
   3  -5   6   43.95    3.61
  -3  -5  -6   45.36    4.80
   3  -5   6   54.19    4.76
  -3  -5  -6   54.10    4.45
   3   5   6   42.66    4.20
   5  -5   6   27.29    2.95
   5  -5   6   34.37    4.18
  -5  -5  -6   28.02    3.47
  -5  -5  -6   30.51    4.08
   5   5   6   30.85    3.77
  -7  -5  -6    4.03    3.20
   7  -5   6   13.50    3.18
   7  -5   6    7.79    2.04
  -7  -5  -6   14.93    2.97
   7  -5   6   12.18    1.92
   9  -5   6   39.08    3.70
   9  -5   6   40.06    3.39
  -9  -5  -6   43.26    4.32
   9  -5   6   41.45    4.68
  11  -5   6   28.94    3.50
  11  -5   6   35.32    3.32
 -11  -5  -6   28.44    4.09
  11  -5   6   36.88    4.62
 -11  -5  -6   27.71    5.29
  -4  -6   6   14.11    3.95
   4   6  -6    9.94    3.69
  -4   6   6   11.30    4.13
  -4   6   6   14.37    4.75
  -2  -6   6    9.98    3.75
   2  -6  -6   11.89    3.63
   2   6  -6    8.26    3.44
  -2   6   6    2.22    3.17
  -2   6   6    4.60    2.64
   0  -6  -6   -0.65    2.78
   0  -6   6    3.16    3.56
   0   6  -6   -1.15    2.77
   0   6   6    0.19    3.03
  -2  -6  -6    6.47    3.05
   2  -6   6    4.76    3.62
   2  -6   6    3.23    2.35
   2   6   6    1.19    2.99
   4  -6   6   18.49    4.51
  22   0  -7    1.29    4.12
 -22   0   7    0.36    3.78
  20   0  -7    2.71    3.27
 -20   0   7    2.00    3.18
  18   0  -7   -0.80    2.44
 -18   0   7    0.74    2.61
 -16   0   7    1.55    2.31
  16   0  -7    1.51    2.37
 -14   0   7    1.66    2.11
  14   0  -7   -0.29    1.24
  14   0  -7    2.80    2.18
 -12   0   7    0.54    1.33
 -12   0   7    0.50    1.71
  12   0  -7    0.08    1.10
 -12   0   7   -0.86    0.69
  12   0  -7    0.50    1.75
  10   0  -7   -1.42    1.38
 -10   0   7   -0.12    0.66
 -10   0   7    1.19    1.44
  10   0  -7   -0.09    0.87
 -10   0   7   -0.25    1.03
  10   0  -7    0.44    0.81
   8   0  -7    0.11    0.73
   8   0  -7   -0.50    0.70
   8   0  -7   -0.20    1.22
  -8   0   7    0.39    1.09
  -8   0   7   -0.30    0.60
  -8   0   7    0.45    0.89
  -6   0   7    0.00    0.54
  -6   0   7   -0.40    0.92
   6   0  -7   -0.47    0.69
   6   0  -7    1.11    1.08
  -6   0   7   -0.15    0.85
   6   0  -7    0.88    0.74
   4   0  -7   -0.29    0.89
   4   0  -7   -0.27    0.66
  -4   0   7    0.59    0.78
   4   0  -7   -0.89    0.66
  -4   0   7   -0.54    0.69
  -4   0   7    0.01    0.55
   2   0  -7    0.51    0.73
  -2   0   7   -0.31    0.52
   2   0  -7    0.15    0.71
  -2   0   7   -0.18    0.53
   2   0  -7   -0.01    0.68
  -2   0   7    0.40    0.66
   0   0  -7    1.17    0.76
   0   0  -7    1.20    0.68
   0   0   7    0.77    0.56
   0   0   7    1.29    0.71
   0   0   7    1.29    0.50
   2   0   7    0.29    0.50
   2   0   7   -0.67    0.44
   2   0   7    0.47    0.62
  -2   0  -7   -0.53    0.48
  -2   0  -7    0.29    0.78
  -2   0  -7    0.63    0.76
  -2   0  -7   -0.15    0.46
   2   0   7    0.18    0.51
   4   0   7    0.65    0.66
  -4   0  -7   -0.17    0.84
  -4   0  -7   -0.07    0.53
   4   0   7   -0.10    0.49
   4   0   7    0.61    0.68
  -4   0  -7   -0.39    0.76
   6   0   7    0.29    0.64
  -6   0  -7    0.32    0.88
   6   0   7   -0.76    0.48
  -6   0  -7    0.50    0.68
  -6   0  -7    0.82    1.02
   6   0   7   -0.04    0.72
   8   0   7   -0.03    0.97
   8   0   7   -0.11    0.55
   8   0   7    0.44    0.73
  -8   0  -7    0.18    0.79
  -8   0  -7    1.21    1.18
  -8   0  -7   -0.33    0.92
 -10   0  -7    1.17    1.44
 -10   0  -7    0.63    1.02
  10   0   7   -0.35    0.59
 -10   0  -7    0.37    1.09
  10   0   7   -0.39    1.20
  10   0   7   -0.38    0.81
 -12   0  -7    0.66    1.31
 -12   0  -7   -0.39    1.13
 -12   0  -7    0.57    1.57
  12   0   7   -0.14    0.69
  12   0   7   -0.35    1.50
  14   0   7   -3.55    1.63
 -14   0  -7    0.59    1.35
 -14   0  -7   -0.92    1.53
  16   0   7   -0.54    2.17
 -16   0  -7    0.75    2.09
  18   0   7    2.36    2.74
 -18   0  -7    0.59    2.66
  20   0   7   -1.83    2.99
 -20   0  -7   -0.92    3.09
  21  -1  -7   28.84    4.84
 -21  -1   7   21.34    4.66
  21   1  -7   21.32    5.13
 -21   1   7   19.64    4.53
 -19  -1   7   31.34    4.66
  19  -1  -7   33.73    4.59
  19   1  -7   27.28    4.73
 -19   1   7   39.80    5.13
  17  -1  -7    2.77    2.47
 -17  -1   7    7.16    2.55
 -17  -1   7    1.86    2.67
 -17   1   7    8.06    3.15
  17   1  -7    3.49    2.81
  17   1  -7    2.57    1.95
  15  -1  -7    4.72    2.33
 -15  -1   7    1.47    1.88
 -15  -1   7    6.26    2.37
  15   1  -7    4.58    1.79
  15   1  -7    3.42    2.40
 -15   1   7    7.90    2.59
  13  -1  -7   56.26    3.40
  13  -1  -7   50.32    4.03
 -13  -1   7   56.06    3.98
 -13  -1   7   54.77    4.09
 -13   1   7   56.07    2.98
  13   1  -7   52.23    3.34
 -13   1   7   51.34    4.24
  13   1  -7   49.32    4.47
 -11  -1   7  145.44    6.03
  11  -1  -7  150.99    6.50
 -11  -1   7  147.20    6.41
  11  -1  -7  150.41    5.91
  11   1  -7  148.10    5.87
  11   1  -7  149.32    6.95
 -11   1   7  137.47    5.34
 -11   1   7  141.65    6.46
   9  -1  -7  108.19    3.93
  -9  -1   7  107.24    4.63
   9  -1  -7  101.28    4.49
   9  -1  -7  104.79    4.80
  -9  -1   7   99.42    3.75
  -9  -1   7  112.04    5.03
  -9   1   7  109.79    5.04
   9   1  -7  106.41    5.34
   9   1  -7  107.33    4.41
  -9   1   7  112.64    4.29
   7  -1  -7  100.64    4.29
   7  -1  -7  103.94    4.21
   7  -1  -7  103.35    3.77
  -7  -1   7  100.30    3.56
  -7  -1   7   96.40    4.00
  -7  -1   7  102.06    4.45
  -7   1   7  101.00    3.92
   7   1  -7   95.92    4.11
   7   1  -7  107.83    4.98
  -7   1   7   99.59    4.51
  -7   1   7   96.51    4.41
   5  -1  -7    8.27    1.05
   5  -1  -7    7.68    1.17
  -5  -1   7    6.05    0.84
   5  -1  -7    8.07    1.16
  -5  -1   7    5.67    1.01
  -5  -1   7    7.08    1.29
  -5   1   7    6.36    1.21
  -5   1   7    6.90    1.02
   5   1  -7    7.61    1.58
   5   1  -7    7.75    1.17
  -5   1   7    7.00    1.28
  -3  -1   7   77.03    3.28
   3  -1  -7   71.87    3.00
  -3  -1   7   76.67    2.90
   3  -1  -7   69.50    3.09
   3  -1  -7   73.64    2.81
   3   1  -7   71.65    3.51
  -3   1   7   75.43    3.04
  -3   1   7   69.19    3.25
  -3   1   7   73.12    3.29
   3   1  -7   70.74    3.00
   1  -1  -7  163.76    5.94
   1  -1  -7  175.88    6.02
  -1  -1   7  161.92    5.84
  -1  -1   7  170.15    5.65
  -1   1   7  160.53    5.90
   1   1  -7  176.31    5.87
   1   1  -7  167.23    6.25
  -1   1   7  173.94    5.72
  -1   1   7  171.92    6.39
  -1  -1  -7  312.91   10.00
   1  -1   7  317.26   10.20
   1  -1   7  316.24   10.07
  -1  -1  -7  309.58   10.13
   1  -1   7  317.20    9.98
   1   1   7  319.00    9.93
   1   1   7  303.01   10.12
  -1   1  -7  302.49    9.74
  -1   1  -7  301.08   10.09
   3  -1   7  293.90    9.69
   3  -1   7  286.70    9.41
  -3  -1  -7  299.23    9.91
  -3  -1  -7  300.95   10.06
  -3  -1  -7  298.31    9.63
   3  -1   7  302.38    9.55
  -3   1  -7  320.75    9.89
  -3   1  -7  298.86    9.78
  -3   1  -7  296.08    9.52
   3   1   7  290.21    9.58
   3   1   7  294.78    9.35
  -3   1  -7  280.24    9.20
  -5  -1  -7    4.57    1.23
  -5  -1  -7    6.02    1.37
   5  -1   7    4.90    0.93
   5  -1   7    5.46    0.95
  -5  -1  -7    3.56    0.95
   5  -1   7    4.35    1.07
  -5   1  -7    4.65    0.96
   5   1   7    5.23    0.98
  -5   1  -7    5.90    0.95
  -5   1  -7    5.63    1.29
   5   1   7    4.98    0.86
   5   1   7    4.45    0.94
   7  -1   7   29.64    1.87
  -7  -1  -7   30.03    2.11
  -7  -1  -7   32.70    2.63
  -7  -1  -7   33.27    2.69
   7  -1   7   28.71    2.00
   7  -1   7   30.60    2.24
  -7   1  -7   32.30    1.94
  -7   1  -7   30.71    2.23
  -7   1  -7   34.17    2.61
   7   1   7   26.74    2.05
  -9  -1  -7   61.51    3.90
  -9  -1  -7   65.68    3.90
   9  -1   7   71.97    3.80
  -9  -1  -7   64.52    3.33
   9  -1   7   75.94    3.36
   9  -1   7   76.07    3.59
  -9   1  -7   68.75    3.60
   9   1   7   76.36    3.76
  -9   1  -7   62.71    2.98
  11  -1   7  143.26    5.75
  11  -1   7  132.79    5.99
 -11  -1  -7  134.41    6.30
  11  -1   7  137.31    5.35
 -11  -1  -7  145.93    5.90
 -11  -1  -7  147.25    6.55
 -11   1  -7  139.40    6.06
  11   1   7  148.44    6.15
 -11   1  -7  139.31    5.50
  13  -1   7   47.11    2.70
 -13  -1  -7   39.98    3.40
 -13  -1  -7   38.36    3.60
 -13  -1  -7   46.55    4.00
  13  -1   7   44.23    3.09
  13  -1   7   45.01    3.78
  13   1   7   49.70    3.99
 -13   1  -7   46.67    3.78
  15  -1   7   59.30    4.66
 -15  -1  -7   45.70    3.89
 -15  -1  -7   51.28    4.54
 -15  -1  -7   49.90    3.97
  15   1   7   50.83    4.52
 -15   1  -7   48.55    4.27
 -17  -1  -7    5.68    2.60
  17  -1   7    3.09    2.64
 -17  -1  -7    1.86    2.02
  17   1   7    4.73    2.73
 -17   1  -7   10.72    2.89
  19  -1   7    7.34    3.49
 -19  -1  -7    7.65    3.27
  19   1   7    8.96    3.45
 -19   1  -7    6.22    3.13
 -21  -1  -7   18.24    5.01
  21  -1   7   12.20    4.45
 -21   1  -7   10.97    4.00
  21   1   7   15.28    4.53
  20  -2  -7   12.43    3.95
 -20  -2   7    9.85    4.11
 -20  -2   7   10.61    5.47
  20   2  -7    8.47    3.07
 -20   2   7   10.17    3.90
  20   2  -7    8.99    4.71
 -18  -2   7   34.23    4.61
 -18  -2   7   30.09    4.45
  18  -2  -7   30.30    4.29
 -18   2   7   41.43    5.12
  18   2  -7   34.04    5.14
  18   2  -7   41.68    4.18
  16  -2  -7  106.85    6.32
 -16  -2   7   94.69    6.36
 -16  -2   7  101.89    6.17
  16   2  -7  104.35    5.78
 -16   2   7  100.03    6.50
  16   2  -7   95.19    7.20
 -16   2   7   94.87    4.81
 -14  -2   7  123.44    6.65
  14  -2  -7  123.01    5.75
 -14  -2   7  123.60    6.15
  14  -2  -7  135.45    6.55
 -14   2   7  122.13    5.39
  14   2  -7  116.57    5.88
  14   2  -7  117.65    7.22
 -14   2   7  121.03    6.71
  12  -2  -7   65.75    3.70
 -12  -2   7   67.51    4.52
  12  -2  -7   67.56    4.30
 -12  -2   7   71.57    4.09
  12   2  -7   60.67    3.93
 -12   2   7   62.28    4.59
  12   2  -7   66.61    5.08
 -12   2   7   63.13    3.56
 -10  -2   7    4.85    1.63
  10  -2  -7    4.64    1.29
  10  -2  -7    3.99    1.74
 -10  -2   7    3.59    1.58
  10   2  -7    2.62    1.38
  10   2  -7    3.10    2.01
 -10   2   7    2.61    1.23
 -10   2   7    5.02    1.77
   8  -2  -7   73.78    3.67
  -8  -2   7   74.93    3.98
   8  -2  -7   82.17    3.92
  -8  -2   7   78.45    3.50
   8   2  -7   80.23    4.78
  -8   2   7   75.12    4.17
   8   2  -7   74.73    3.79
  -8   2   7   70.04    3.48
  -6  -2   7  320.28   10.98
  -6  -2   7  342.78   10.34
   6  -2  -7  336.36   10.73
  -6  -2   7  315.73   10.28
   6  -2  -7  332.40   10.87
   6   2  -7  316.12   10.94
   6   2  -7  329.72   11.83
  -6   2   7  324.96   10.83
  -6   2   7  329.81   11.45
   4  -2  -7  438.07   13.73
  -4  -2   7  445.99   13.71
   4  -2  -7  435.22   13.54
   4  -2  -7  414.61   13.31
  -4  -2   7  406.18   12.87
  -4  -2   7  424.98   13.27
  -4   2   7  426.77   13.62
   4   2  -7  443.12   14.66
  -4   2   7  425.62   14.11
   4   2  -7  425.58   13.81
   2  -2  -7  196.67    7.06
   2  -2  -7  201.21    6.90
  -2  -2   7  194.47    7.00
  -2  -2   7  208.51    7.09
  -2  -2   7  208.08    6.99
   2   2  -7  199.29    7.64
   2   2  -7  200.83    6.94
  -2   2   7  209.53    7.65
  -2   2   7  218.65    7.22
   0  -2   7   86.72    3.41
   0  -2   7   84.62    3.46
   0  -2  -7   75.76    3.35
   0  -2   7   83.10    3.50
   0  -2  -7   91.63    4.02
   0  -2  -7   86.12    3.58
   0   2   7   84.70    3.96
   0   2   7   85.14    3.54
   0   2  -7   85.74    3.48
   0   2  -7   89.56    4.20
   2  -2   7   49.56    2.84
  -2  -2  -7   43.86    3.03
  -2  -2  -7   51.24    2.75
  -2  -2  -7   47.46    2.63
   2  -2   7   47.83    2.41
   2  -2   7   53.49    2.55
   2   2   7   47.00    2.82
   2   2   7   51.14    2.49
  -2   2  -7   47.26    2.29
  -2   2  -7   48.72    2.95
   4  -2   7  254.32    8.41
   4  -2   7  240.63    8.28
  -4  -2  -7  239.07    8.39
   4  -2   7  237.01    8.76
  -4  -2  -7  243.09    8.45
  -4  -2  -7  253.05    9.08
   4   2   7  250.05    8.71
  -4   2  -7  251.92    8.62
   4   2   7  254.86    8.19
  -4   2  -7  244.60    7.90
  -4   2  -7  226.84    7.84
   6  -2   7  329.61   11.35
  -6  -2  -7  335.09   11.22
  -6  -2  -7  327.48   10.99
   6  -2   7  333.60   10.94
   6  -2   7  330.70   10.88
  -6  -2  -7  343.54   11.80
  -6   2  -7  306.40   10.67
   6   2   7  328.99   10.54
   6   2   7  326.78   11.21
   8  -2   7  213.02    7.54
  -8  -2  -7  199.40    8.36
  -8  -2  -7  206.53    7.60
   8  -2   7  206.87    7.57
  -8  -2  -7  212.89    7.96
   8  -2   7  207.98    8.03
   8   2   7  211.07    7.02
  -8   2  -7  208.65    7.59
 -10  -2  -7  105.59    5.68
 -10  -2  -7  108.94    5.38
  10  -2   7  109.87    4.56
  10  -2   7  102.87    5.07
  10  -2   7  104.57    4.67
 -10  -2  -7  105.23    4.96
 -10   2  -7  115.25    5.25
  10   2   7  103.50    5.10
  12  -2   7   10.92    1.78
 -12  -2  -7   10.67    2.08
 -12  -2  -7    6.95    2.16
  12  -2   7    8.75    1.47
 -12  -2  -7   11.38    2.51
  12  -2   7   12.27    2.34
 -12   2  -7    6.39    2.19
  12   2   7    5.08    3.62
 -14  -2  -7   46.56    3.99
 -14  -2  -7   54.06    4.54
  14  -2   7   43.20    3.25
  14  -2   7   42.23    2.93
 -14  -2  -7   42.84    4.36
  14  -2   7   43.93    4.29
 -14   2  -7   45.81    4.41
 -16  -2  -7   58.33    5.23
 -16  -2  -7   52.35    4.58
  16  -2   7   62.58    3.73
  16  -2   7   69.88    5.43
 -16  -2  -7   59.56    5.11
 -16   2  -7   55.60    5.17
 -18  -2  -7   72.30    6.10
 -18  -2  -7   92.06    6.97
 -18  -2  -7   90.54    6.24
  18  -2   7   96.34    6.84
 -18   2  -7   86.66    6.59
 -20  -2  -7   22.57    6.05
  20  -2   7   27.68    5.28
 -20   2  -7   20.52    4.60
 -19  -3   7   33.39    5.31
  19   3  -7   26.08    7.19
  19   3  -7   33.22    4.64
 -17  -3   7   30.32    4.46
  17  -3  -7   34.98    4.80
  17  -3  -7   29.64    3.50
  17   3  -7   30.71    4.20
 -17   3   7   38.43    5.22
  17   3  -7   22.67    4.81
 -17   3   7   34.74    3.60
  15  -3  -7    5.29    2.68
  15  -3  -7    4.17    1.85
 -15  -3   7    6.95    2.99
  15   3  -7    4.15    2.54
 -15   3   7    5.25    1.93
  15   3  -7    2.88    3.29
 -15   3   7    4.61    2.93
  13  -3  -7   28.89    2.96
  13  -3  -7   30.51    3.55
 -13  -3   7   26.68    3.56
  13   3  -7   29.80    3.42
  13   3  -7   22.07    3.82
 -13   3   7   25.81    3.70
 -13   3   7   23.39    2.70
 -11  -3   7   82.79    5.05
  11  -3  -7   78.47    4.81
  11  -3  -7   75.72    4.12
 -11   3   7   84.51    4.53
 -11   3   7   90.17    5.55
  11   3  -7   79.08    4.71
  11   3  -7   78.81    5.70
  -9  -3   7  172.07    7.22
   9  -3  -7  167.37    6.67
   9   3  -7  178.12    7.27
  -9   3   7  184.40    7.93
   9   3  -7  173.15    8.19
  -9   3   7  168.46    6.94
   7  -3  -7   44.93    2.80
  -7  -3   7   44.01    3.16
  -7   3   7   44.30    3.03
   7   3  -7   38.32    3.94
   7   3  -7   46.01    3.21
  -7   3   7   46.79    3.70
  -5  -3   7   31.45    2.16
   5  -3  -7   30.76    2.18
  -5  -3   7   31.99    2.54
  -5   3   7   37.38    2.66
   5   3  -7   30.82    3.43
   5   3  -7   27.73    2.51
  -5   3   7   35.71    3.14
  -3  -3   7   18.55    1.78
   3  -3  -7   19.24    2.05
   3  -3  -7   20.44    1.84
  -3  -3   7   19.40    1.83
   3   3  -7   20.58    2.08
   3   3  -7   22.77    2.90
  -3   3   7   17.37    2.32
  -3   3   7   16.87    1.90
   1  -3  -7  196.62    6.86
  -1  -3   7  194.37    6.83
   1  -3  -7  201.06    7.50
  -1  -3   7  195.43    7.02
  -1   3   7  194.72    7.21
  -1   3   7  204.08    7.86
   1   3  -7  189.14    7.09
   1   3  -7  194.90    7.98
   1  -3   7  199.79    7.02
  -1  -3  -7  205.15    8.12
  -1  -3  -7  214.05    7.34
   1  -3   7  207.06    7.44
   1  -3   7  206.37    7.98
  -1   3  -7  205.98    7.32
  -1   3  -7  208.39    8.20
   1   3   7  218.63    8.09
   1   3   7  203.07    7.44
   3  -3   7  119.17    4.82
   3  -3   7  105.82    4.33
  -3  -3  -7  109.21    4.91
  -3  -3  -7  102.11    4.45
   3  -3   7  107.98    5.14
  -3  -3  -7  102.87    5.38
   3   3   7  111.03    4.60
   3   3   7  111.23    5.20
  -3   3  -7  107.58    5.08
  -3   3  -7  102.50    4.17
   5  -3   7   62.58    3.04
   5  -3   7   59.21    3.30
  -5  -3  -7   65.46    4.37
   5  -3   7   59.42    3.72
  -5  -3  -7   63.96    3.46
  -5  -3  -7   55.85    3.50
   5   3   7   61.12    3.08
   5   3   7   59.68    3.72
  -7  -3  -7   16.55    2.70
   7  -3   7   22.29    2.76
  -7  -3  -7   15.41    2.17
  -7  -3  -7   17.91    2.22
   7  -3   7   16.00    1.92
   7  -3   7   18.30    1.94
   7   3   7   15.57    2.33
   9  -3   7   95.50    4.52
  -9  -3  -7  104.92    5.12
   9  -3   7   99.30    5.31
  -9  -3  -7  108.59    6.11
  -9  -3  -7  101.34    5.24
   9  -3   7  102.02    4.71
  11  -3   7   59.10    3.75
 -11  -3  -7   64.61    4.21
 -11  -3  -7   60.71    4.35
  11  -3   7   69.43    3.88
 -11  -3  -7   59.13    5.02
  11  -3   7   70.50    4.63
 -13  -3  -7   82.40    5.16
 -13  -3  -7   86.47    6.16
  13  -3   7   83.31    4.61
  13  -3   7   97.05    4.88
  13  -3   7   86.32    5.55
 -13  -3  -7   83.34    5.40
  15  -3   7   22.74    3.57
 -15  -3  -7   27.79    4.08
  15  -3   7   22.00    2.61
  15  -3   7   24.26    2.94
 -15  -3  -7   22.76    3.44
 -15  -3  -7   25.16    4.07
  17  -3   7    7.38    2.42
  17  -3   7    6.22    1.99
  17  -3   7   12.77    3.59
 -17  -3  -7    8.57    3.50
 -17  -3  -7    7.95    3.60
 -17  -3  -7   10.05    3.10
 -16  -4   7    4.40    3.71
  16  -4  -7    3.37    2.48
 -16   4   7    7.32    4.08
  16   4  -7    4.01    4.30
 -16   4   7    5.03    2.58
  16   4  -7    3.76    3.75
  14  -4  -7   17.24    2.66
 -14  -4   7   14.28    3.52
  14   4  -7   20.81    3.88
 -14   4   7   16.41    3.90
  14   4  -7   15.73    4.42
  12  -4  -7    7.31    2.02
 -12  -4   7    4.21    2.79
  12   4  -7    7.20    2.83
  12   4  -7    6.69    3.36
 -12   4   7    7.41    2.21
 -12   4   7    7.35    2.99
 -10  -4   7    2.36    2.29
  10  -4  -7    2.89    1.51
  10   4  -7    2.12    2.55
  10   4  -7    4.18    2.35
 -10   4   7    5.09    2.14
 -10   4   7    5.69    2.48
  -8  -4   7    4.99    2.04
   8  -4  -7    3.21    1.39
  -8   4   7    5.13    1.93
  -8   4   7    4.10    2.31
   8   4  -7    6.44    2.16
   8   4  -7    4.70    2.63
   6  -4  -7   12.35    1.73
   6   4  -7   14.10    3.02
  -6   4   7    7.58    2.28
   6   4  -7   12.32    2.35
  -6   4   7    9.34    2.04
   4  -4  -7   11.99    1.58
  -4  -4   7   14.24    1.87
   4   4  -7   13.17    2.89
  -4   4   7   22.51    2.55
  -4   4   7   21.39    2.96
   4   4  -7   14.02    2.19
  -2  -4   7   28.43    2.55
   2  -4  -7   29.13    2.29
  -2  -4   7   27.69    3.23
  -2   4   7   25.66    3.17
  -2   4   7   27.71    2.77
   2   4  -7   28.38    3.50
   2   4  -7   28.78    2.78
   0  -4   7    6.73    1.65
   0  -4  -7    3.67    1.90
   0  -4   7    5.86    2.08
   0   4  -7    5.93    1.49
   0   4   7    7.33    2.13
   0   4   7    4.15    1.69
   0   4  -7    6.82    2.04
   2  -4   7   12.26    1.92
   2  -4   7    8.41    2.11
  -2  -4  -7    5.20    2.16
  -2  -4  -7   10.40    2.22
  -2   4  -7    9.29    2.25
   2   4   7    6.30    2.02
   2   4   7    8.84    1.80
   4  -4   7    8.49    1.83
   4  -4   7    9.81    1.53
   4  -4   7   10.20    2.34
  -4  -4  -7   15.23    2.43
  -4  -4  -7   12.49    2.72
   4   4   7   12.76    1.91
  -4   4  -7   12.83    2.38
   4   4   7   12.63    2.42
   6  -4   7   23.23    2.22
  -6  -4  -7   24.01    2.93
  -6  -4  -7   18.28    2.27
  -6  -4  -7   19.75    3.23
   6  -4   7   20.76    2.49
   6  -4   7   21.85    3.16
   6   4   7   21.00    3.02
   8  -4   7    5.98    1.58
   8  -4   7    9.26    2.48
  -8  -4  -7    4.38    2.67
  -8  -4  -7    3.37    1.85
   8  -4   7    7.24    1.73
  -8  -4  -7    9.11    2.31
 -10  -4  -7    3.29    2.12
 -10  -4  -7   -1.99    2.45
 -10  -4  -7    1.15    1.94
  10  -4   7    1.08    1.42
  10  -4   7    1.99    2.16
  10  -4   7    0.93    1.46
  12  -4   7    7.97    2.64
 -12  -4  -7    6.73    3.45
  12  -4   7    3.22    1.82
 -12  -4  -7    7.64    2.67
 -12  -4  -7    5.47    2.56
  12  -4   7    9.00    2.09
 -14  -4  -7   10.49    4.06
  14  -4   7   11.09    2.50
 -14  -4  -7   13.10    3.18
 -14  -4  -7    8.43    3.12
  14  -4   7   14.05    3.30
  14  -4   7   11.74    2.41
  16  -4   7   17.41    3.26
  16  -4   7   14.79    3.39
  11  -5  -7   -0.82    1.76
  11   5  -7    1.02    2.93
 -11   5   7    0.04    3.00
  11   5  -7   -1.89    3.33
 -11   5   7    3.07    2.63
   9  -5  -7   18.58    2.47
   9   5  -7   13.93    3.99
  -9   5   7   16.49    3.15
   9   5  -7   19.87    3.60
  -9   5   7   15.86    3.69
   7  -5  -7    1.21    1.51
  -7   5   7    2.47    2.09
   7   5  -7    4.89    3.13
   7   5  -7    3.89    2.53
  -7   5   7    1.28    2.61
   5  -5  -7    0.91    1.36
  -5  -5   7    3.69    2.54
   5   5  -7    1.06    2.15
  -5   5   7    1.49    2.48
   5   5  -7    3.76    2.79
  -5   5   7    2.41    2.12
  -3  -5   7    3.14    2.60
  -3   5   7    0.31    2.29
   3   5  -7    0.94    2.48
   3   5  -7   -0.64    1.76
  -3   5   7   -2.09    1.75
  -1  -5   7   16.74    3.28
  -1  -5   7   18.39    2.42
   1   5  -7   22.07    3.51
  -1   5   7   24.01    2.95
  -1   5   7   16.64    3.18
   1  -5   7   11.04    2.96
   1  -5   7    8.34    2.10
  -1  -5  -7   10.17    2.70
   1   5   7   11.82    2.37
   1   5   7    6.58    2.65
  -1   5  -7    8.90    2.68
  -3  -5  -7    5.94    2.41
   3  -5   7    5.47    1.96
  -3  -5  -7    4.05    2.74
   3  -5   7    8.47    2.89
  -3   5  -7    6.09    2.38
   3   5   7    6.35    2.59
  -5  -5  -7    5.87    3.12
   5  -5   7    7.61    2.86
   5  -5   7    8.82    2.12
  -5  -5  -7   11.70    2.73
   5   5   7    9.89    2.98
   7  -5   7   -1.38    1.60
  -7  -5  -7    1.14    2.35
   7  -5   7    0.55    1.63
   7  -5   7    0.36    2.46
  -7  -5  -7    0.88    2.96
   9  -5   7    2.94    2.76
   9  -5   7    2.02    2.01
  -9  -5  -7    2.16    2.52
  -9  -5  -7    0.99    3.35
   9  -5   7    1.74    1.82
  11  -5   7    3.36    2.99
 -11  -5  -7    4.56    2.86
 -11  -5  -7    5.06    5.14
  -2  -6   7   18.57    4.50
  -2   6   7   22.24    3.47
   2   6  -7   13.32    4.25
   0  -6   7    4.70    3.77
   0  -6  -7    0.82    3.93
   0   6  -7    0.73    2.97
   2  -6   7    8.96    4.23
   2  -6   7   11.46    2.74
 -22   0   8   24.13    5.30
  20   0  -8   18.10    4.47
 -20   0   8   10.00    3.81
  18   0  -8   83.10    6.64
 -18   0   8   75.03    5.97
  16   0  -8   72.27    5.71
 -16   0   8   86.79    5.76
  14   0  -8  128.68    6.86
 -14   0   8  129.53    6.36
  14   0  -8  126.34    5.29
  12   0  -8   51.50    4.16
 -12   0   8   41.27    3.48
  12   0  -8   53.76    2.98
 -12   0   8   46.06    3.66
 -12   0   8   42.80    2.36
 -10   0   8   60.53    3.70
  10   0  -8   59.56    2.94
 -10   0   8   54.63    3.65
  10   0  -8   62.75    4.01
  10   0  -8   48.89    3.11
 -10   0   8   62.09    2.76
   8   0  -8  212.36    7.77
  -8   0   8  208.86    7.63
   8   0  -8  227.85    8.33
   8   0  -8  226.97    7.54
  -8   0   8  218.10    7.01
  -8   0   8  197.62    7.80
  -6   0   8  486.83   15.91
  -6   0   8  478.02   15.51
   6   0  -8  498.33   15.36
  -6   0   8  513.01   15.24
   6   0  -8  493.73   15.88
   6   0  -8  486.36   15.56
   4   0  -8  599.16   18.53
  -4   0   8  525.63   16.91
  -4   0   8  574.42   16.88
   4   0  -8  581.42   18.19
   4   0  -8  597.43   18.42
   2   0  -8   70.79    3.13
  -2   0   8   62.42    2.67
  -2   0   8   70.15    3.14
  -2   0   8   72.73    2.84
   2   0  -8   67.27    3.04
   2   0  -8   75.35    3.06
   0   0   8   77.47    3.04
   0   0  -8   77.14    3.39
   0   0   8   79.13    3.35
   0   0   8   74.91    2.85
   0   0  -8   74.83    3.04
   0   0  -8   78.55    3.27
  -2   0  -8   77.98    3.04
  -2   0  -8   87.03    3.50
   2   0   8   81.92    3.40
  -2   0  -8   85.18    3.66
   2   0   8   83.59    3.04
   2   0   8   76.36    3.07
   2   0   8   81.95    3.16
  -2   0  -8   81.31    2.99
   4   0   8  708.01   22.44
  -4   0  -8  733.04   22.96
  -4   0  -8  754.88   22.77
   4   0   8  740.29   22.70
  -4   0  -8  732.30   22.28
   4   0   8  772.66   22.47
   6   0   8  374.74   11.66
  -6   0  -8  400.30   13.21
   6   0   8  360.20   11.81
  -6   0  -8  399.19   12.93
  -6   0  -8  394.38   12.49
   6   0   8  372.20   12.00
   8   0   8  221.51    7.90
   8   0   8  216.82    7.87
   8   0   8  235.02    7.54
  -8   0  -8  238.48    8.24
  -8   0  -8  224.36    7.78
  -8   0  -8  225.87    8.60
  10   0   8  102.55    4.74
 -10   0  -8  105.74    5.36
 -10   0  -8  107.50    4.62
  10   0   8  103.33    4.04
 -10   0  -8  111.84    4.88
 -12   0  -8   92.79    4.57
  12   0   8   99.15    5.06
 -12   0  -8   94.56    4.64
  12   0   8   99.79    4.01
 -14   0  -8   97.12    4.86
 -14   0  -8  101.86    5.25
  14   0   8   92.63    5.35
 -16   0  -8  117.71    6.36
  16   0   8  132.82    7.04
 -18   0  -8  123.33    7.12
  18   0   8  125.99    7.46
  20   0   8   15.66    4.15
 -20   0  -8   11.98    3.74
 -21  -1   8   17.28    4.61
  21  -1  -8   14.45    4.25
 -21   1   8   20.33    4.88
  21   1  -8   17.88    4.97
  19  -1  -8   20.40    4.07
 -19  -1   8   15.54    3.90
  19   1  -8   28.86    4.79
 -19   1   8   28.62    4.65
  17  -1  -8    9.09    3.01
 -17  -1   8   18.36    3.52
  17   1  -8   12.81    2.41
 -17   1   8   17.86    3.82
  17   1  -8    7.93    3.21
  15  -1  -8    5.86    2.38
 -15  -1   8    3.38    2.03
 -15  -1   8    4.82    2.48
  15   1  -8    2.13    2.36
 -15   1   8    7.74    2.73
  15   1  -8    7.66    2.05
 -13  -1   8   51.85    4.16
  13  -1  -8   44.84    3.54
  13  -1  -8   67.73    4.46
 -13  -1   8   65.62    4.29
 -13   1   8   52.85    4.31
 -13   1   8   49.18    2.96
  13   1  -8   62.76    3.65
  13   1  -8   57.19    4.84
  11  -1  -8  156.94    6.47
  11  -1  -8  172.04    7.05
 -11  -1   8  160.49    6.97
 -11  -1   8  146.68    6.44
  11  -1  -8  167.71    5.89
 -11   1   8  162.65    5.96
  11   1  -8  166.97    6.48
 -11   1   8  164.68    7.03
  11   1  -8  166.44    7.58
  -9  -1   8  119.92    5.57
  -9  -1   8  125.63    5.17
   9  -1  -8  129.63    4.66
   9  -1  -8  119.81    5.18
   9  -1  -8  130.17    5.50
  -9  -1   8  118.79    4.37
  -9   1   8  128.16    5.60
   9   1  -8  131.46    6.19
   9   1  -8  131.13    5.18
  -9   1   8  131.12    4.89
  -7  -1   8   56.74    2.44
  -7  -1   8   53.46    2.84
  -7  -1   8   56.38    3.29
   7  -1  -8   59.11    3.06
   7  -1  -8   59.46    3.16
   7  -1  -8   58.82    2.68
  -7   1   8   54.54    3.24
   7   1  -8   61.41    3.76
  -7   1   8   59.91    2.79
   7   1  -8   59.77    2.98
  -7   1   8   57.44    3.28
  -5  -1   8   17.02    1.39
   5  -1  -8   14.36    1.57
  -5  -1   8   17.40    1.46
   5  -1  -8   17.06    1.55
   5  -1  -8   17.88    1.67
  -5  -1   8   16.26    1.82
  -5   1   8   16.71    1.51
  -5   1   8   17.03    1.86
   5   1  -8   16.27    1.62
   5   1  -8   15.98    2.12
  -5   1   8   20.03    1.96
  -3  -1   8  190.24    6.88
   3  -1  -8  199.94    6.47
   3  -1  -8  195.85    6.88
   3  -1  -8  204.07    6.73
  -3  -1   8  204.20    6.48
  -3   1   8  184.90    6.82
   3   1  -8  194.00    6.75
  -3   1   8  192.15    6.93
   3   1  -8  189.28    7.20
  -3   1   8  197.58    6.61
   1  -1  -8  247.58    8.50
   1  -1  -8  255.37    8.49
  -1  -1   8  236.09    8.19
  -1  -1   8  248.78    7.91
   1   1  -8  255.97    8.81
  -1   1   8  239.78    8.22
  -1   1   8  240.58    8.19
  -1   1   8  245.79    7.98
   1   1  -8  256.78    8.37
   1  -1   8  293.27    9.81
   1  -1   8  310.26    9.64
   1  -1   8  293.63    9.74
  -1  -1  -8  283.35    9.60
  -1  -1  -8  287.11    9.70
  -1   1  -8  295.19    9.36
   1   1   8  299.06    9.78
  -1   1  -8  281.04    9.64
  -1   1  -8  294.59    9.56
   1   1   8  310.18    9.60
   1   1   8  287.80    9.80
   3  -1   8  145.35    5.20
   3  -1   8  143.62    5.34
  -3  -1  -8  140.06    5.14
  -3  -1  -8  141.41    5.58
  -3  -1  -8  146.92    5.54
   3  -1   8  148.60    5.45
   3   1   8  142.93    5.31
   3   1   8  151.20    5.17
   3   1   8  141.47    5.32
  -3   1  -8  140.18    5.38
  -3   1  -8  145.38    5.12
  -3   1  -8  142.82    5.31
  -5  -1  -8   19.70    1.73
  -5  -1  -8   20.82    2.12
   5  -1   8   25.71    1.87
   5  -1   8   19.50    1.83
  -5  -1  -8   19.18    2.11
   5  -1   8   21.36    1.59
  -5   1  -8   22.90    1.70
   5   1   8   21.91    1.58
  -5   1  -8   23.69    2.14
   5   1   8   17.58    1.65
  -5   1  -8   20.40    1.64
  -7  -1  -8   54.83    2.84
  -7  -1  -8   56.57    3.51
   7  -1   8   55.87    3.02
  -7  -1  -8   54.75    3.45
   7  -1   8   54.61    2.85
   7  -1   8   49.08    2.61
   7   1   8   51.92    2.77
  -7   1  -8   54.42    2.68
  -7   1  -8   55.24    2.91
   7   1   8   52.13    2.52
  -9  -1  -8  129.70    6.00
   9  -1   8  146.65    5.72
  -9  -1  -8  138.16    6.11
   9  -1   8  148.94    5.98
   9  -1   8  139.64    5.42
  -9  -1  -8  141.56    5.50
  -9   1  -8  137.46    5.59
  -9   1  -8  135.82    5.15
   9   1   8  141.14    5.77
 -11  -1  -8  156.61    6.86
  11  -1   8  145.54    6.32
  11  -1   8  148.75    6.12
  11  -1   8  156.86    5.73
 -11  -1  -8  155.08    6.22
 -11  -1  -8  149.02    6.70
 -11   1  -8  146.05    5.69
 -11   1  -8  147.36    6.34
  11   1   8  143.65    6.32
  13  -1   8  103.35    5.67
 -13  -1  -8  105.81    5.85
  13  -1   8  111.04    4.61
 -13  -1  -8  104.40    5.58
 -13  -1  -8  109.69    5.32
  13   1   8  114.03    5.71
 -13   1  -8  103.12    5.51
 -15  -1  -8    8.97    2.66
 -15  -1  -8   10.10    2.46
 -15  -1  -8    8.30    2.34
  15  -1   8   12.75    2.85
  15   1   8   13.31    2.89
 -15   1  -8   10.32    2.56
 -17  -1  -8   -1.00    2.26
  17  -1   8    2.57    2.74
 -17  -1  -8    1.14    2.12
 -17   1  -8    2.00    2.50
  17   1   8   -0.13    2.53
 -19  -1  -8   26.16    4.26
  19  -1   8   25.33    4.51
 -19   1  -8   21.40    4.03
  19   1   8   26.01    5.43
 -21   1  -8   37.13    5.44
  20  -2  -8    5.01    3.49
 -20   2   8    0.45    3.62
  20   2  -8    1.34    4.09
  20   2  -8   -1.77    2.76
 -18  -2   8    0.43    2.94
  18  -2  -8    3.52    2.89
  18   2  -8   -0.58    3.19
 -18   2   8    4.06    3.52
  18   2  -8    0.95    2.44
  16  -2  -8   14.17    3.11
 -16  -2   8   15.15    3.42
 -16  -2   8    7.71    4.40
  16   2  -8   16.96    3.86
 -16   2   8   19.16    3.80
 -16   2   8   21.81    2.55
  16   2  -8   17.73    2.91
  14  -2  -8   10.32    2.59
 -14  -2   8    6.83    2.53
  14  -2  -8    5.71    1.65
 -14  -2   8    6.27    2.38
 -14   2   8   10.24    2.87
 -14   2   8    8.52    1.80
  14   2  -8    3.47    2.68
  14   2  -8    8.05    2.25
  12  -2  -8    5.65    1.47
 -12  -2   8    4.38    2.00
 -12  -2   8    8.78    2.20
  12  -2  -8    3.84    2.01
  12   2  -8    6.52    2.46
 -12   2   8    7.41    2.31
  12   2  -8    3.49    1.72
 -12   2   8    5.68    1.51
 -10  -2   8   24.03    2.48
  10  -2  -8   17.02    2.05
  10  -2  -8   23.66    2.59
 -10  -2   8   23.63    2.78
 -10   2   8   24.35    2.97
  10   2  -8   20.14    2.33
  10   2  -8   23.42    3.19
 -10   2   8   22.05    2.30
   8  -2  -8   32.47    2.54
  -8  -2   8   26.51    2.20
  -8  -2   8   35.30    2.48
   8  -2  -8   36.37    2.81
  -8  -2   8   32.54    2.89
  -8   2   8   37.96    2.56
   8   2  -8   32.54    2.66
   8   2  -8   36.31    3.48
  -8   2   8   35.86    3.12
   6  -2  -8   17.19    1.82
  -6  -2   8   17.41    2.02
  -6  -2   8   17.84    1.53
   6  -2  -8   18.33    1.81
  -6  -2   8   12.62    1.84
   6  -2  -8   21.06    1.78
  -6   2   8   16.91    1.81
   6   2  -8   20.92    2.05
   6   2  -8   23.33    2.90
  -6   2   8   17.21    2.16
   4  -2  -8    3.41    0.94
  -4  -2   8    3.19    0.97
   4  -2  -8    2.16    1.03
  -4  -2   8    3.76    1.19
   4  -2  -8    3.21    1.07
  -4   2   8    1.53    1.20
   4   2  -8    2.02    1.55
  -4   2   8    4.32    1.20
   4   2  -8    3.51    1.16
   2  -2  -8   43.33    2.47
  -2  -2   8   48.15    2.62
  -2  -2   8   44.78    2.39
   2  -2  -8   43.71    2.68
  -2   2   8   50.25    2.63
   2   2  -8   41.17    2.42
   2   2  -8   41.38    3.15
  -2   2   8   43.04    2.87
   0  -2   8    2.31    0.85
   0  -2  -8    2.74    1.06
   0  -2  -8    4.31    1.31
   0  -2   8    1.35    0.90
   0   2   8    2.24    1.08
   0   2  -8    2.23    0.91
   0   2   8    2.82    1.01
   0   2  -8    3.71    1.37
  -2  -2  -8   21.66    2.00
   2  -2   8   15.36    1.58
   2  -2   8   18.68    1.64
  -2  -2  -8   23.01    2.10
   2  -2   8   19.33    2.09
  -2  -2  -8   19.40    2.19
   2   2   8   18.23    2.03
   2   2   8   19.26    1.67
  -2   2  -8   21.74    2.22
  -2   2  -8   21.78    1.67
  -4  -2  -8    0.29    1.12
  -4  -2  -8    3.56    1.64
   4  -2   8    1.77    1.13
   4  -2   8    1.25    0.88
   4  -2   8    1.48    0.91
  -4  -2  -8    5.12    1.25
   4   2   8    3.97    1.24
  -4   2  -8    1.59    0.86
  -4   2  -8    2.68    1.13
   4   2   8    1.60    0.91
  -4   2  -8    1.56    0.79
  -6  -2  -8   37.95    2.68
  -6  -2  -8   37.44    2.97
   6  -2   8   48.29    3.19
   6  -2   8   45.60    2.68
  -6  -2  -8   40.86    3.52
   6  -2   8   50.19    2.76
   6   2   8   48.78    3.08
   6   2   8   48.91    2.54
  -6   2  -8   42.08    2.22
  -6   2  -8   39.96    2.39
  -8  -2  -8   26.79    3.14
  -8  -2  -8   29.99    2.93
   8  -2   8   30.32    2.30
   8  -2   8   26.08    2.14
   8  -2   8   26.93    2.63
  -8  -2  -8   29.38    2.53
   8   2   8   26.97    1.97
  -8   2  -8   28.35    2.47
  10  -2   8   14.94    1.79
 -10  -2  -8   15.67    2.11
  10  -2   8   16.39    2.44
  10  -2   8   14.12    1.83
 -10  -2  -8   11.48    2.20
 -10  -2  -8   13.02    2.58
 -10   2  -8   15.72    2.29
 -12  -2  -8    8.96    2.02
  12  -2   8    5.74    1.33
  12  -2   8    7.49    1.69
  12  -2   8    9.97    2.18
 -12  -2  -8    7.30    2.39
 -12  -2  -8   12.44    2.48
 -12   2  -8    6.72    2.18
  14  -2   8    7.87    1.83
 -14  -2  -8    4.61    2.18
  14  -2   8    4.28    2.24
 -14  -2  -8    4.68    2.45
  14  -2   8    5.19    1.46
 -14  -2  -8    4.01    2.37
 -14   2  -8    5.16    2.47
 -16  -2  -8   12.10    3.18
  16  -2   8   13.99    2.04
 -16  -2  -8   21.40    3.34
  16  -2   8   20.41    3.61
 -16  -2  -8   17.57    3.56
 -16   2  -8   21.72    3.79
 -18  -2  -8    4.24    2.84
  18  -2   8    2.90    2.96
 -18  -2  -8    0.50    2.63
 -18  -2  -8    0.32    3.05
 -18   2  -8   -0.82    2.94
 -19  -3   8    2.58    3.75
  19   3  -8    3.55    3.52
  17  -3  -8    2.97    2.14
 -17  -3   8    3.62    3.32
  17   3  -8    0.94    3.53
 -17   3   8    5.36    2.29
 -17   3   8   -0.25    3.00
  15  -3  -8    8.38    2.19
 -15  -3   8   11.08    3.39
 -15   3   8   16.01    3.53
  15   3  -8    8.93    3.59
 -15   3   8    9.91    2.28
  15   3  -8   11.21    2.94
  13  -3  -8   22.43    2.65
 -13  -3   8   26.59    3.67
 -13   3   8   29.09    3.98
  13   3  -8   30.69    3.58
 -13   3   8   24.77    2.89
  13   3  -8   23.59    4.09
  11  -3  -8   34.51    2.93
 -11  -3   8   26.96    3.25
 -11   3   8   35.59    3.26
 -11   3   8   27.74    3.74
  11   3  -8   32.83    4.17
  11   3  -8   36.55    3.58
  -9  -3   8   10.44    2.17
   9  -3  -8   15.41    2.02
   9   3  -8   14.50    2.39
  -9   3   8   12.47    2.13
  -9   3   8   12.59    2.57
   9   3  -8    7.59    2.60
  -7  -3   8    8.63    1.81
   7  -3  -8    7.97    1.51
   7   3  -8    3.66    2.16
  -7   3   8    8.99    1.76
  -7   3   8    6.68    1.98
   7   3  -8    7.55    1.81
   5  -3  -8    1.38    1.05
  -5  -3   8    1.53    1.26
  -5  -3   8    1.38    1.09
  -5   3   8    0.67    1.12
   5   3  -8    0.65    1.71
   5   3  -8    2.08    1.30
  -5   3   8    0.97    1.39
   3  -3  -8   65.80    3.35
  -3  -3   8   73.35    3.48
  -3  -3   8   69.97    3.58
   3  -3  -8   73.19    3.79
  -3   3   8   72.20    4.17
  -3   3   8   70.97    3.70
   3   3  -8   71.45    4.61
   3   3  -8   71.12    3.70
  -1  -3   8   57.20    3.09
   1  -3  -8   55.26    3.59
  -1  -3   8   56.94    3.02
   1  -3  -8   59.03    3.05
   1   3  -8   57.35    3.99
   1   3  -8   59.77    3.18
  -1   3   8   62.44    3.32
  -1   3   8   53.52    3.64
   1  -3   8   52.78    2.79
  -1  -3  -8   49.06    2.93
   1  -3   8   50.42    3.51
   1  -3   8   55.62    3.06
  -1  -3  -8   52.35    3.70
   1   3   8   51.44    3.52
   1   3   8   57.85    3.18
  -1   3  -8   47.94    3.57
  -1   3  -8   56.56    2.94
  -3  -3  -8   73.85    4.48
  -3  -3  -8   67.91    3.86
   3  -3   8   64.14    3.87
  -3  -3  -8   63.46    3.45
   3  -3   8   59.81    3.08
   3  -3   8   62.93    3.33
   3   3   8   61.99    3.87
  -3   3  -8   64.77    4.01
   3   3   8   61.67    3.27
  -3   3  -8   66.71    3.18
   5  -3   8    8.59    1.54
   5  -3   8   10.85    1.50
  -5  -3  -8    7.86    1.70
  -5  -3  -8    6.68    1.66
  -5  -3  -8    7.23    2.21
   5  -3   8   12.13    2.12
   5   3   8    8.20    1.47
   5   3   8    8.03    1.87
  -7  -3  -8   11.97    2.05
  -7  -3  -8    9.40    1.93
   7  -3   8   10.77    1.71
  -7  -3  -8   10.24    2.57
   7  -3   8   13.42    1.76
   7  -3   8   13.56    2.32
   7   3   8   10.71    2.08
  -9  -3  -8   23.03    2.67
  -9  -3  -8   25.35    3.50
  -9  -3  -8   31.43    3.09
   9  -3   8   33.37    3.51
   9  -3   8   27.91    2.64
   9  -3   8   27.48    2.59
 -11  -3  -8   57.58    4.09
  11  -3   8   56.10    3.71
 -11  -3  -8   55.95    5.00
 -11  -3  -8   47.79    4.25
  11  -3   8   49.45    3.37
  11  -3   8   58.36    4.54
 -13  -3  -8   21.28    3.11
  13  -3   8   19.54    2.38
 -13  -3  -8   16.73    3.42
 -13  -3  -8   17.98    3.22
  13  -3   8   25.40    3.63
  13  -3   8   24.62    2.84
  15  -3   8    2.67    1.98
  15  -3   8    5.53    1.87
 -15  -3  -8    7.21    3.00
 -15  -3  -8    7.60    2.75
 -15  -3  -8    9.76    3.43
  15  -3   8    6.50    2.85
 -17  -3  -8   -1.90    3.01
 -17  -3  -8    3.79    2.86
  17  -3   8    6.60    3.81
  17  -3   8    1.93    1.80
 -17  -3  -8    2.47    3.24
  17  -3   8    1.50    3.10
  16  -4  -8   47.45    4.36
  16   4  -8   29.29    7.09
 -16   4   8   55.25    4.97
  14  -4  -8   29.26    3.23
 -14  -4   8   24.71    4.15
 -14   4   8   35.81    3.96
  14   4  -8   17.90    4.47
 -14   4   8   27.72    4.56
  14   4  -8   27.59    4.16
  12  -4  -8   13.31    2.32
 -12  -4   8   10.73    3.04
 -12   4   8   20.53    3.71
 -12   4   8   18.22    2.92
  12   4  -8   19.81    4.00
  12   4  -8   11.86    3.14
 -10  -4   8   11.29    2.76
  10  -4  -8   16.49    2.22
  10   4  -8   18.09    3.04
 -10   4   8   14.64    3.22
  10   4  -8   10.08    3.16
 -10   4   8   15.78    2.59
   8  -4  -8   43.95    3.16
  -8  -4   8   39.59    3.61
  -8   4   8   39.07    3.66
  -8   4   8   48.28    4.62
   8   4  -8   51.17    3.98
   8   4  -8   31.78    4.10
   6  -4  -8  129.41    5.49
   6   4  -8  126.16    7.22
   6   4  -8  134.80    6.28
  -6   4   8  129.70    6.01
  -6   4   8  127.26    6.82
  -4  -4   8   63.01    3.61
   4  -4  -8   59.25    3.24
  -4   4   8   66.85    4.78
   4   4  -8   54.21    3.83
   4   4  -8   57.30    4.91
  -4   4   8   59.79    3.98
  -2  -4   8   83.63    5.04
   2  -4  -8   74.70    3.73
  -2  -4   8   69.48    3.95
   2   4  -8   82.79    5.36
   2   4  -8   76.26    4.16
  -2   4   8   75.35    4.32
  -2   4   8   82.31    4.97
   0  -4  -8    3.81    1.30
   0  -4   8    6.36    2.15
   0  -4  -8    3.02    1.99
   0  -4   8    3.06    1.37
   0   4   8    3.10    1.95
   0   4  -8    0.78    1.79
   0   4  -8    3.46    1.35
   0   4   8    6.30    1.76
  -2  -4  -8   92.73    5.46
  -2  -4  -8   94.47    5.21
  -2  -4  -8   82.47    4.13
   2  -4   8   93.16    4.15
   2  -4   8   90.28    4.60
   2  -4   8  100.07    5.45
  -2   4  -8   98.54    5.36
   2   4   8   92.65    5.43
   2   4   8   90.37    4.60
   4  -4   8   61.68    4.48
   4  -4   8   59.77    3.82
  -4  -4  -8   61.45    4.92
   4  -4   8   62.67    3.39
  -4  -4  -8   56.21    3.59
  -4  -4  -8   70.46    4.43
   4   4   8   64.33    4.56
  -4   4  -8   59.78    4.28
   4   4   8   62.73    3.67
  -6  -4  -8  126.91    7.22
  -6  -4  -8  119.06    5.70
   6  -4   8  128.36    5.40
   6  -4   8  127.16    6.68
  -6  -4  -8  134.22    6.31
   6  -4   8  127.25    5.90
   6   4   8  124.82    6.52
   8  -4   8   64.66    3.83
  -8  -4  -8   60.16    4.13
   8  -4   8   66.98    4.18
   8  -4   8   65.67    4.87
  -8  -4  -8   59.70    4.51
  -8  -4  -8   73.63    5.74
 -10  -4  -8    4.17    2.31
  10  -4   8   11.52    2.26
  10  -4   8   11.43    2.15
 -10  -4  -8   11.10    2.61
  10  -4   8   13.02    3.03
 -10  -4  -8    7.56    3.27
  12  -4   8   12.42    2.35
 -12  -4  -8   12.47    2.87
  12  -4   8    9.29    2.13
 -12  -4  -8   14.16    2.92
  12  -4   8   13.36    3.14
 -12  -4  -8   12.94    3.87
  14  -4   8   35.37    4.36
  14  -4   8   27.92    3.29
 -14  -4  -8   33.46    5.31
  14  -4   8   35.70    3.69
 -14  -4  -8   25.27    3.95
 -14  -4  -8   30.75    4.05
  11  -5  -8   36.45    4.67
 -11   5   8   34.12    5.13
  11   5  -8   27.70    4.54
 -11   5   8   35.48    4.89
  11   5  -8   27.52    5.08
   9  -5  -8   58.57    3.95
  -9   5   8   66.21    6.20
   9   5  -8   56.06    5.29
  -9   5   8   55.84    4.86
   9   5  -8   41.35    5.42
   7  -5  -8   19.63    2.31
   7   5  -8   15.92    3.65
  -7   5   8   22.17    4.03
  -7   5   8   20.13    3.21
   7   5  -8   17.96    3.30
   5  -5  -8   16.27    2.09
  -5  -5   8   17.70    3.60
  -5   5   8   18.32    3.61
  -5   5   8   18.08    3.01
   5   5  -8   17.00    3.74
   5   5  -8   18.20    3.21
  -3  -5   8   15.59    3.36
   3   5  -8   16.69    2.81
   3   5  -8   17.42    3.48
  -3   5   8   15.19    2.86
  -3   5   8   10.57    3.08
   1  -5  -8   86.54    5.83
  -1  -5   8   81.81    6.03
  -1  -5   8   82.10    4.79
   1   5  -8   77.14    5.75
  -1   5   8   99.89    5.45
  -1   5   8   87.01    6.07
  -1  -5  -8   75.55    5.50
   1  -5   8   55.32    4.07
   1  -5   8   69.10    5.47
  -1   5  -8   68.13    5.36
   1   5   8   57.29    4.36
   1   5   8   75.32    5.64
   3  -5   8   48.11    4.73
  -3  -5  -8   36.60    4.51
   3  -5   8   39.56    3.58
  -3  -5  -8   40.74    4.19
   3   5   8   36.08    4.20
  -3   5  -8   35.37    3.95
  -5  -5  -8   23.28    3.42
  -5  -5  -8   28.02    4.45
   5  -5   8   28.30    3.25
   5  -5   8   27.54    4.04
   5   5   8   23.37    3.83
   7  -5   8   19.62    3.77
  -7  -5  -8   12.99    3.14
   7  -5   8   19.15    2.43
  -7  -5  -8   15.14    4.04
   7  -5   8   13.33    2.54
   9  -5   8   35.68    3.33
  -9  -5  -8   43.08    4.60
   9  -5   8   30.83    3.58
  -9  -5  -8   48.54    5.81
   9  -5   8   57.68    5.62
 -22   0   9    5.67    6.09
  20   0  -9    0.12    3.41
 -20   0   9    3.37    3.60
  18   0  -9   -0.15    2.88
 -18   0   9    1.90    2.94
 -16   0   9    1.19    2.45
  16   0  -9    0.50    2.49
  14   0  -9   -1.29    1.26
  14   0  -9   -3.06    1.91
 -14   0   9   -1.67    1.85
 -12   0   9    0.80    0.99
  12   0  -9    0.04    1.13
 -12   0   9    1.41    1.85
 -12   0   9    0.03    1.29
  12   0  -9   -1.78    1.63
 -10   0   9   -0.18    0.84
  10   0  -9    1.74    1.15
  10   0  -9    0.30    1.61
 -10   0   9    1.00    1.27
 -10   0   9   -0.37    1.44
  -8   0   9    0.40    0.75
   8   0  -9    0.91    1.38
   8   0  -9   -0.69    0.83
   8   0  -9   -0.22    0.87
  -8   0   9    0.32    1.24
  -8   0   9   -0.43    1.01
  -6   0   9   -1.49    0.61
   6   0  -9    0.06    1.19
  -6   0   9   -0.77    0.77
   6   0  -9   -0.45    0.74
  -6   0   9    0.24    0.94
   6   0  -9    0.68    0.89
   4   0  -9   -0.84    0.96
   4   0  -9    1.12    0.86
  -4   0   9   -0.18    0.75
   4   0  -9    1.10    0.89
  -4   0   9    0.50    0.82
  -4   0   9   -0.30    0.78
  -2   0   9    0.22    0.62
  -2   0   9   -0.47    0.65
   2   0  -9    0.14    0.83
   2   0  -9    0.09    0.84
  -2   0   9   -0.25    0.70
   2   0  -9    0.76    0.90
   0   0  -9    0.75    0.61
   0   0   9    0.19    0.52
   0   0   9    0.08    0.81
   0   0  -9    0.08    0.71
   0   0   9   -0.66    0.64
   0   0  -9   -0.53    0.80
   0   0  -9    0.67    0.91
  -2   0  -9    0.47    1.00
   2   0   9   -1.13    0.63
   2   0   9   -0.14    0.63
   2   0   9    0.40    0.62
  -2   0  -9   -0.62    0.84
   2   0   9   -0.18    0.55
  -2   0  -9   -0.15    0.55
  -2   0  -9    0.34    0.55
  -4   0  -9    0.10    0.60
   4   0   9   -0.32    0.58
  -4   0  -9    0.11    0.88
  -4   0  -9   -0.86    0.96
   4   0   9    0.56    0.69
   4   0   9   -0.45    0.68
   6   0   9    0.17    0.81
  -6   0  -9   -0.17    0.72
   6   0   9    0.90    0.87
  -6   0  -9    1.34    1.11
   6   0   9    0.68    0.70
  -6   0  -9   -1.18    1.04
  -8   0  -9   -0.18    0.90
   8   0   9   -0.11    1.02
  -8   0  -9   -0.39    1.12
   8   0   9   -0.25    0.67
  -8   0  -9   -0.89    1.27
   8   0   9    0.82    0.96
 -10   0  -9    0.00    1.26
 -10   0  -9   -0.08    1.08
  10   0   9    0.39    1.35
  10   0   9    2.21    0.88
 -10   0  -9    1.26    1.75
  12   0   9    0.48    0.86
  12   0   9    1.57    1.67
 -12   0  -9    0.56    1.44
 -12   0  -9    0.07    1.37
 -14   0  -9    0.64    1.81
 -14   0  -9    0.15    1.47
  14   0   9    5.05    2.18
  16   0   9    2.19    2.44
 -16   0  -9    1.39    2.30
 -18   0  -9   -0.83    2.52
  18   0   9    1.04    2.83
  20   0   9    0.52    3.39
 -20   0  -9   -2.15    2.96
  21  -1  -9    9.85    4.30
 -21  -1   9   14.72    4.71
 -21   1   9   14.97    4.71
  21   1  -9    6.67    4.96
  19  -1  -9   12.62    3.88
 -19  -1   9   12.78    3.90
 -19   1   9    9.49    3.79
  19   1  -9    9.28    4.04
 -17  -1   9    3.55    2.81
  17  -1  -9    6.54    2.97
  17   1  -9    8.56    2.29
  17   1  -9   14.27    3.76
 -17   1   9   12.78    3.62
 -15  -1   9   30.68    3.66
 -15  -1   9   22.80    3.24
  15  -1  -9   34.13    3.97
  15   1  -9   32.84    4.25
 -15   1   9   32.13    4.05
  15   1  -9   27.26    2.95
  13  -1  -9   19.48    2.96
 -13  -1   9   17.99    2.79
 -13  -1   9   20.89    2.90
 -13   1   9   18.89    2.01
  13   1  -9   19.87    2.37
 -13   1   9   20.20    3.01
  13   1  -9   17.03    3.04
 -11  -1   9   78.55    4.73
  11  -1  -9   86.85    4.23
 -11  -1   9   82.21    4.50
  11  -1  -9   83.01    3.58
  11  -1  -9   88.82    4.77
  11   1  -9   75.95    5.22
 -11   1   9   85.90    3.88
  11   1  -9   76.27    4.04
 -11   1   9   82.75    4.78
  -9  -1   9   11.98    1.93
   9  -1  -9   14.77    2.18
  -9  -1   9   13.57    1.39
   9  -1  -9   11.71    1.70
   9  -1  -9   14.15    1.51
  -9  -1   9   13.98    2.18
  -9   1   9   15.26    2.30
   9   1  -9   14.15    1.82
   9   1  -9   13.51    2.41
  -9   1   9   15.50    1.74
   7  -1  -9   49.15    2.92
  -7  -1   9   56.64    2.86
   7  -1  -9   53.07    2.58
  -7  -1   9   52.87    3.36
  -7  -1   9   53.89    2.53
   7  -1  -9   51.41    3.09
  -7   1   9   53.12    3.26
  -7   1   9   58.27    2.86
   7   1  -9   48.60    3.66
   7   1  -9   51.05    2.83
  -5  -1   9   10.63    1.24
   5  -1  -9   12.39    1.41
  -5  -1   9   10.94    1.59
   5  -1  -9   11.53    1.53
  -5  -1   9   11.15    1.23
   5  -1  -9   16.48    1.64
   5   1  -9   11.76    1.93
  -5   1   9   10.78    1.37
  -5   1   9    8.71    1.43
  -5   1   9   14.91    1.80
   5   1  -9   12.73    1.48
  -3  -1   9  209.02    6.78
   3  -1  -9  211.55    6.73
   3  -1  -9  205.68    7.22
  -3  -1   9  192.48    7.23
   3  -1  -9  207.91    7.05
  -3   1   9  192.88    7.26
   3   1  -9  199.07    7.53
   3   1  -9  206.07    7.07
  -3   1   9  199.21    7.17
  -3   1   9  211.43    6.95
   3   1  -9  188.66    7.00
   1  -1  -9  165.73    5.93
  -1  -1   9  157.21    5.38
   1  -1  -9  159.03    5.93
  -1  -1   9  155.66    5.72
   1   1  -9  163.21    6.22
  -1   1   9  152.68    5.73
  -1   1   9  141.10    5.56
   1   1  -9  160.54    5.81
  -1   1   9  150.67    5.43
   1   1  -9  158.34    5.77
   1  -1   9   61.41    2.98
   1  -1   9   66.29    2.84
  -1  -1  -9   62.19    3.20
   1  -1   9   69.72    3.11
  -1  -1  -9   62.91    3.18
   1   1   9   60.07    2.94
  -1   1  -9   56.92    3.05
  -1   1  -9   65.93    3.05
   1   1   9   58.50    3.02
  -1   1  -9   58.64    2.88
   1   1   9   61.32    2.82
   3  -1   9   77.32    3.28
  -3  -1  -9   80.10    3.83
  -3  -1  -9   75.14    3.29
   3  -1   9   76.17    3.51
  -3  -1  -9   74.79    3.75
   3  -1   9   78.17    3.47
  -3   1  -9   72.84    3.42
   3   1   9   79.63    3.28
  -3   1  -9   76.27    3.31
  -3   1  -9   78.95    3.65
   3   1   9   78.72    3.42
   3   1   9   69.49    3.40
   5  -1   9   17.10    1.64
   5  -1   9   18.19    1.88
  -5  -1  -9   18.27    1.74
  -5  -1  -9   16.79    2.01
   5  -1   9   20.86    1.94
  -5  -1  -9   16.69    2.06
  -5   1  -9   16.88    1.58
  -5   1  -9   17.32    1.63
   5   1   9   18.54    1.64
   5   1   9   16.46    1.48
   7  -1   9  127.11    4.83
  -7  -1  -9  129.18    5.69
  -7  -1  -9  129.53    5.69
   7  -1   9  127.71    5.07
  -7  -1  -9  125.75    4.96
   7  -1   9  124.63    5.17
  -7   1  -9  126.80    4.97
  -7   1  -9  127.19    4.91
   7   1   9  112.28    4.73
   9  -1   9   47.35    2.66
  -9  -1  -9   48.16    3.65
   9  -1   9   46.48    3.13
  -9  -1  -9   49.62    3.83
  -9  -1  -9   53.31    3.12
   9  -1   9   43.82    2.89
   9   1   9   43.36    3.00
  -9   1  -9   50.06    2.78
  -9   1  -9   51.65    3.25
   9   1   9   42.89    2.50
  11  -1   9  140.77    5.51
  11  -1   9  140.95    6.21
  11  -1   9  130.78    5.81
 -11  -1  -9  135.90    6.55
 -11  -1  -9  129.17    6.29
 -11  -1  -9  137.42    5.85
  11   1   9  141.59    6.08
 -11   1  -9  136.66    6.02
 -11   1  -9  134.21    5.35
 -13  -1  -9   41.71    3.51
  13  -1   9   34.96    2.63
 -13  -1  -9   54.25    4.32
  13  -1   9   41.95    3.97
 -13  -1  -9   35.02    3.54
 -13   1  -9   39.30    3.70
  13   1   9   35.80    3.60
  15  -1   9   16.14    3.14
 -15  -1  -9    7.29    2.27
 -15  -1  -9    7.29    2.32
 -15   1  -9    7.89    2.56
  15   1   9   11.14    2.79
 -17  -1  -9    1.40    2.21
  17  -1   9    1.71    2.71
 -17  -1  -9    3.56    2.63
 -17   1  -9    5.42    2.77
 -19  -1  -9   32.74    4.53
  19  -1   9   45.24    5.46
 -19   1  -9   37.05    4.75
  20  -2  -9    8.88    3.89
 -20   2   9   13.44    4.53
  20   2  -9   11.29    3.52
  20   2  -9    6.86    5.52
 -18  -2   9   27.05    4.51
  18  -2  -9   35.13    4.59
  18   2  -9   35.11    4.11
  18   2  -9   38.07    5.47
 -18   2   9   39.40    5.12
  16  -2  -9   42.63    4.62
 -16  -2   9   36.19    4.39
 -16   2   9   40.73    3.41
 -16   2   9   46.43    5.07
  16   2  -9   45.24    4.16
  16   2  -9   37.45    5.13
  14  -2  -9   44.67    3.46
  14  -2  -9   51.77    4.49
 -14  -2   9   46.42    4.53
  14   2  -9   45.15    5.05
 -14   2   9   57.82    5.04
  14   2  -9   44.22    3.89
 -14   2   9   47.67    3.42
  12  -2  -9   28.80    3.20
  12  -2  -9   21.79    2.36
 -12  -2   9   25.90    3.33
 -12   2   9   33.39    3.86
  12   2  -9   20.17    3.40
 -12   2   9   31.67    3.00
  12   2  -9   21.42    2.72
  10  -2  -9   62.05    3.95
 -10  -2   9   59.87    4.15
  10  -2  -9   60.46    3.61
 -10   2   9   59.52    4.17
 -10   2   9   53.90    3.27
  10   2  -9   59.44    4.62
  10   2  -9   60.10    3.68
   8  -2  -9  141.37    5.43
  -8  -2   9  132.71    5.79
   8  -2  -9  133.10    5.59
   8  -2  -9  136.66    5.64
  -8  -2   9  121.77    4.66
   8   2  -9  138.38    6.68
  -8   2   9  123.73    5.89
   8   2  -9  137.22    5.70
  -8   2   9  122.99    5.20
   6  -2  -9  182.02    6.81
   6  -2  -9  171.49    6.89
   6  -2  -9  191.24    6.36
  -6  -2   9  181.64    6.26
  -6  -2   9  178.49    7.06
  -6   2   9  178.47    6.72
   6   2  -9  179.40    6.81
   6   2  -9  175.90    7.63
  -6   2   9  183.07    7.30
   4  -2  -9  184.35    6.69
   4  -2  -9  195.07    6.92
  -4  -2   9  194.10    6.62
  -4  -2   9  190.51    7.12
   4   2  -9  188.08    7.71
   4   2  -9  184.66    6.86
  -4   2   9  189.29    6.92
  -4   2   9  186.29    7.41
  -2  -2   9   37.87    2.26
  -2  -2   9   34.43    2.48
   2  -2  -9   40.37    2.55
   2  -2  -9   36.76    2.63
  -2   2   9   35.31    2.67
   2   2  -9   38.32    2.45
  -2   2   9   37.36    2.41
   2   2  -9   39.57    3.11
   0  -2  -9   86.43    4.23
   0  -2  -9   86.06    3.94
   0  -2   9   90.57    3.94
   0  -2   9   90.59    3.80
   0   2   9   92.06    3.92
   0   2  -9   84.34    3.70
   0   2  -9   94.28    4.48
   0   2   9   89.15    4.23
   2  -2   9  141.59    5.32
   2  -2   9  132.05    5.24
  -2  -2  -9  139.32    5.48
  -2  -2  -9  137.34    5.50
  -2  -2  -9  134.11    5.81
   2  -2   9  139.78    5.71
   2   2   9  134.86    5.62
   2   2   9  141.01    5.27
  -2   2  -9  134.79    5.09
  -2   2  -9  137.75    5.72
  -4  -2  -9  299.40   10.95
  -4  -2  -9  299.68   10.32
   4  -2   9  298.26   10.60
   4  -2   9  307.82   10.16
  -4  -2  -9  307.81   10.52
   4  -2   9  297.84   10.16
   4   2   9  313.65   10.03
  -4   2  -9  297.17   10.48
   4   2   9  287.46   10.36
  -4   2  -9  309.95    9.97
  -6  -2  -9  213.98    8.12
  -6  -2  -9  220.24    8.65
  -6  -2  -9  213.26    7.82
   6  -2   9  196.77    7.32
   6  -2   9  203.58    7.83
   6  -2   9  204.10    7.39
   6   2   9  198.10    7.63
  -6   2  -9  208.97    7.28
   6   2   9  207.13    7.11
  -8  -2  -9   68.13    3.72
   8  -2   9   72.47    3.65
  -8  -2  -9   65.96    4.55
   8  -2   9   69.38    4.08
   8  -2   9   72.29    3.70
  -8  -2  -9   74.29    4.25
   8   2   9   73.71    3.35
  10  -2   9    9.57    2.10
  10  -2   9    7.33    1.57
 -10  -2  -9    5.05    2.06
 -10  -2  -9    7.07    2.26
  10  -2   9    7.78    1.48
 -10  -2  -9    8.62    1.86
  12  -2   9   54.61    3.35
 -12  -2  -9   60.50    3.96
 -12  -2  -9   54.20    4.58
  12  -2   9   54.07    3.60
 -12  -2  -9   52.16    4.62
  12  -2   9   54.62    4.18
 -14  -2  -9  111.41    6.06
  14  -2   9  111.53    5.31
  14  -2   9  120.55    5.82
 -14  -2  -9  125.66    6.85
 -14  -2  -9  118.68    6.73
  14  -2   9  121.40    6.52
 -16  -2  -9   82.57    5.70
  16  -2   9   92.61    6.53
  16  -2   9   93.90    4.83
 -16  -2  -9   84.14    6.17
 -16  -2  -9   91.25    6.45
 -18  -2  -9   33.60    4.57
 -18  -2  -9   35.16    4.62
 -18  -2  -9   42.08    7.71
  18  -2   9   45.97    5.32
  17  -3  -9   13.61    3.40
 -17  -3   9    7.73    3.65
  17   3  -9    8.23    4.18
 -17   3   9   11.17    2.56
 -17   3   9    7.77    3.59
 -15  -3   9    7.47    3.24
  15  -3  -9   12.25    2.49
 -15   3   9    7.08    2.26
 -15   3   9    3.58    3.01
  15   3  -9    8.90    2.82
  15   3  -9    9.86    3.65
 -13  -3   9   65.06    5.23
  13  -3  -9   62.04    4.12
 -13   3   9   53.64    4.07
  13   3  -9   65.16    4.73
 -13   3   9   66.16    5.50
  13   3  -9   49.28    5.26
  11  -3  -9   55.58    3.77
 -11  -3   9   49.94    4.52
 -11   3   9   63.42    5.05
  11   3  -9   64.15    4.37
  11   3  -9   55.64    5.19
 -11   3   9   57.01    3.93
   9  -3  -9   99.42    4.74
  -9  -3   9  101.52    5.44
  -9   3   9  107.86    5.95
   9   3  -9   96.38    6.06
  -9   3   9  104.08    5.09
   9   3  -9   90.05    5.08
   7  -3  -9   38.10    2.74
  -7  -3   9   31.81    3.01
   7   3  -9   29.16    3.71
   7   3  -9   34.35    3.08
  -7   3   9   31.68    2.82
  -7   3   9   36.77    3.48
   5  -3  -9   39.77    2.77
  -5  -3   9   36.13    2.58
   5  -3  -9   42.22    3.94
  -5  -3   9   41.36    3.01
   5   3  -9   35.27    2.97
  -5   3   9   37.43    2.83
  -5   3   9   47.31    3.54
   5   3  -9   38.46    3.94
   3  -3  -9   69.90    3.81
  -3  -3   9   66.57    3.66
   3  -3  -9   66.24    3.49
  -3  -3   9   67.07    3.40
  -3   3   9   69.41    4.20
   3   3  -9   74.34    4.69
   3   3  -9   65.98    3.67
  -3   3   9   67.05    3.67
  -1  -3   9  171.08    6.42
  -1  -3   9  173.55    6.47
   1  -3  -9  162.17    6.67
   1  -3  -9  158.41    6.16
   1   3  -9  160.60    6.24
  -1   3   9  164.13    7.11
   1   3  -9  163.88    7.17
  -1   3   9  169.29    6.62
   1  -3   9  172.58    6.62
   1  -3   9  180.06    6.45
  -1  -3  -9  172.85    7.25
   1  -3   9  170.76    7.20
  -1  -3  -9  166.69    6.56
  -1   3  -9  178.09    6.48
   1   3   9  169.07    7.21
  -1   3  -9  171.01    7.30
   1   3   9  175.86    6.70
  -3  -3  -9   30.36    2.57
   3  -3   9   36.43    2.45
   3  -3   9   36.69    2.62
  -3  -3  -9   27.11    3.18
  -3  -3  -9   23.72    2.62
   3  -3   9   35.01    3.33
   3   3   9   31.85    2.51
  -3   3  -9   29.58    2.21
   3   3   9   28.42    2.99
  -3   3  -9   26.09    2.92
   5  -3   9   34.07    2.55
  -5  -3  -9   39.65    3.09
   5  -3   9   33.94    3.22
  -5  -3  -9   33.03    3.62
   5  -3   9   31.85    2.60
  -5  -3  -9   38.17    3.05
   5   3   9   35.01    3.19
   5   3   9   38.59    2.58
  -7  -3  -9   30.83    3.66
   7  -3   9   27.30    3.12
   7  -3   9   23.80    2.42
  -7  -3  -9   25.92    2.91
   7  -3   9   28.66    2.52
  -7  -3  -9   24.76    2.77
   7   3   9   28.15    3.10
   9  -3   9  123.81    5.64
  -9  -3  -9  123.30    5.93
   9  -3   9  123.16    5.57
  -9  -3  -9  135.17    7.23
   9  -3   9  133.24    6.40
  -9  -3  -9  124.34    6.11
 -11  -3  -9   74.69    5.82
  11  -3   9   79.90    4.35
  11  -3   9   67.26    4.11
 -11  -3  -9   73.31    4.75
 -11  -3  -9   76.46    5.09
  11  -3   9   75.29    5.15
  13  -3   9   50.88    3.93
 -13  -3  -9   48.02    4.67
 -13  -3  -9   44.79    4.26
  13  -3   9   48.21    3.67
  13  -3   9   60.85    4.92
 -13  -3  -9   44.14    5.00
  15  -3   9    8.99    2.37
 -15  -3  -9    4.12    3.11
  15  -3   9    4.53    2.77
 -15  -3  -9    3.58    2.67
 -15  -3  -9    4.37    3.21
  15  -3   9    4.10    1.78
 -17  -3  -9   13.05    3.58
 -17  -3  -9   13.23    4.06
  17  -3   9   17.19    2.72
 -17  -3  -9   17.31    4.32
  17  -3   9   16.64    4.18
  16  -4  -9   15.56    3.69
  14  -4  -9    7.07    2.41
 -14  -4   9    6.14    3.45
  14   4  -9    6.52    3.31
 -14   4   9    5.18    3.43
 -14   4   9   12.64    2.90
  14   4  -9    3.03    3.65
  12  -4  -9    1.58    1.79
 -12  -4   9    2.22    2.70
  12   4  -9    1.94    2.58
 -12   4   9    2.32    2.83
  12   4  -9    2.00    3.09
 -12   4   9    5.68    2.32
 -10  -4   9    1.30    2.39
  10  -4  -9    1.30    1.49
  10   4  -9    1.82    2.70
 -10   4   9    1.77    1.98
  10   4  -9    1.54    2.15
 -10   4   9    1.23    2.54
  -8  -4   9   20.53    2.99
   8  -4  -9   17.10    2.33
  -8   4   9   20.81    3.55
   8   4  -9   21.43    3.03
   8   4  -9   16.97    3.55
  -8   4   9   19.51    2.77
  -6  -4   9   37.61    3.45
   6  -4  -9   34.41    3.00
  -6   4   9   34.70    3.40
  -6   4   9   36.15    4.14
   6   4  -9   42.61    4.65
   6   4  -9   41.35    3.81
  -4  -4   9   24.82    2.41
   4  -4  -9   20.21    2.15
  -4  -4   9   22.77    2.55
  -4   4   9   25.16    3.48
   4   4  -9   26.98    2.91
   4   4  -9   18.42    3.27
  -4   4   9   25.91    2.85
  -2  -4   9   21.03    2.31
   2  -4  -9   21.93    2.19
  -2  -4   9   21.53    2.34
  -2  -4   9   25.98    3.35
   2   4  -9   20.91    3.22
   2   4  -9   19.64    2.51
  -2   4   9   18.87    2.42
  -2   4   9   16.14    2.81
   0  -4  -9    1.68    1.98
   0  -4   9    4.35    2.04
   0  -4   9    1.69    1.43
   0  -4  -9    2.39    1.35
   0  -4   9    1.68    1.39
   0   4  -9    4.29    2.02
   0   4   9    3.09    1.98
   0   4   9    2.93    1.67
   0   4  -9    1.16    1.30
   2  -4   9   13.76    1.86
  -2  -4  -9   20.01    2.83
  -2  -4  -9   10.56    2.53
  -2  -4  -9   14.09    1.93
   2  -4   9   19.30    2.98
   2  -4   9   14.73    2.13
   2   4   9   16.66    2.87
   2   4   9   16.05    2.24
  -2   4  -9   12.95    2.65
   4  -4   9    6.80    2.35
   4  -4   9    4.15    1.47
  -4  -4  -9    7.18    2.17
   4  -4   9    3.59    1.61
  -4  -4  -9    3.26    1.78
  -4  -4  -9    3.03    2.39
  -4   4  -9    6.80    2.10
   4   4   9    6.41    1.79
   4   4   9    6.35    2.18
  -6  -4  -9   29.57    3.04
   6  -4   9   40.32    3.35
   6  -4   9   42.06    4.35
  -6  -4  -9   29.64    3.98
  -6  -4  -9   35.56    3.60
   6  -4   9   37.02    3.02
   6   4   9   45.45    4.24
   8  -4   9   17.44    2.43
  -8  -4  -9   26.59    3.31
   8  -4   9   25.12    2.69
  -8  -4  -9   19.37    3.66
  -8  -4  -9   14.10    2.61
   8  -4   9   20.91    3.45
 -10  -4  -9    0.34    2.88
 -10  -4  -9    4.25    2.31
  10  -4   9    1.67    1.61
  10  -4   9    1.07    1.67
  10  -4   9    4.47    2.56
 -10  -4  -9    2.47    2.26
  12  -4   9   -0.01    2.33
 -12  -4  -9    0.11    2.42
  12  -4   9    1.19    1.73
 -12  -4  -9   -1.40    3.13
  12  -4   9    0.31    1.91
 -12  -4  -9    1.65    2.45
 -14  -4  -9    4.20    3.87
  14  -4   9    5.72    2.99
  14  -4   9    4.47    2.40
  14  -4   9    3.35    2.04
 -14  -4  -9    7.18    3.09
 -14  -4  -9    1.84    2.94
   9  -5  -9    0.49    1.76
   9   5  -9   -0.50    2.84
   9   5  -9   -0.40    3.34
  -9   5   9    4.87    2.59
  -9   5   9    0.06    2.98
   7  -5  -9    3.26    1.74
   7   5  -9    2.76    2.71
   7   5  -9    0.27    3.04
  -7   5   9    2.14    2.45
  -7   5   9   -0.11    2.85
  -5  -5   9   17.32    3.62
   5  -5  -9   11.00    2.10
   5   5  -9   10.80    2.71
  -5   5   9   17.42    3.74
   5   5  -9   16.10    3.58
  -5   5   9   14.30    2.96
  -3  -5   9   15.07    3.60
   3  -5  -9   12.86    1.95
  -3   5   9   11.02    3.20
  -3   5   9   11.02    2.75
   3   5  -9   11.50    2.60
   3   5  -9   14.05    3.40
  -1  -5   9    2.60    1.88
  -1  -5   9    4.97    2.75
   1  -5  -9    5.31    2.71
   1   5  -9    4.55    2.66
  -1   5   9    0.35    2.06
  -1   5   9    0.17    2.44
  -1  -5  -9    8.57    2.85
   1  -5   9    8.46    3.05
   1  -5   9    5.05    2.09
   1   5   9    8.10    2.89
  -1   5  -9   13.49    3.06
   1   5   9   11.12    2.52
  -3  -5  -9   -0.28    2.31
  -3  -5  -9    0.98    2.67
   3  -5   9    1.85    2.60
   3  -5   9    0.38    1.79
  -3   5  -9    0.33    2.15
   3   5   9    1.44    2.52
  -5  -5  -9    7.25    3.41
   5  -5   9    2.12    1.95
   5  -5   9    2.43    1.88
   5  -5   9    9.70    3.22
  -5  -5  -9    4.50    2.58
   5   5   9    5.46    2.91
  -7  -5  -9    1.82    2.55
   7  -5   9    5.63    2.94
  -7  -5  -9    1.42    3.33
   7  -5   9    6.06    2.23
   7  -5   9    3.64    2.03
   9  -5   9   16.29    2.72
   9  -5   9   17.02    3.93
  -9  -5  -9   16.05    3.48
   9  -5   9   13.01    2.69
  -9  -5  -9   14.72    4.47
  -9  -5  -9    9.80    2.71
  20   0 -10    7.63    4.05
 -20   0  10    7.40    4.09
  18   0 -10   66.33    6.42
 -18   0  10   82.45    6.59
  16   0 -10   42.41    4.84
 -16   0  10   53.76    5.12
 -14   0  10  100.77    5.93
  14   0 -10   72.68    5.46
  14   0 -10   75.53    4.01
 -12   0  10   36.43    2.48
  12   0 -10   41.31    4.04
  12   0 -10   40.97    2.88
 -12   0  10   42.73    3.82
 -10   0  10   93.99    5.03
  10   0 -10   98.68    4.33
 -10   0  10   94.65    4.80
 -10   0  10   90.21    3.88
  10   0 -10  105.81    5.46
  -8   0  10   98.34    4.53
   8   0 -10  108.15    4.42
  -8   0  10  101.02    4.95
   8   0 -10  115.27    5.34
   8   0 -10  103.62    4.69
  -8   0  10  104.22    4.09
   6   0 -10  153.15    6.01
  -6   0  10  156.76    5.95
  -6   0  10  165.14    5.77
   6   0 -10  161.65    5.87
   6   0 -10  156.70    6.30
  -6   0  10  162.45    6.51
   4   0 -10  322.56   10.87
   4   0 -10  341.20   11.13
   4   0 -10  338.82   11.14
  -4   0  10  359.18   10.93
  -4   0  10  338.14   11.46
  -4   0  10  319.75   10.82
  -2   0  10   42.74    2.15
  -2   0  10   46.42    2.39
  -2   0  10   48.74    2.74
   2   0 -10   45.83    2.69
   2   0 -10   42.50    2.49
   2   0 -10   48.56    2.60
   0   0  10  143.83    5.05
   0   0  10  133.05    4.80
   0   0 -10  148.54    5.51
   0   0  10  132.43    4.71
   0   0 -10  147.04    5.35
   0   0 -10  134.57    5.03
   0   0 -10  137.42    4.77
   0   0  10  138.91    5.36
   2   0  10  161.24    5.64
  -2   0 -10  172.13    5.77
   2   0  10  169.36    6.18
   2   0  10  154.39    5.71
  -2   0 -10  186.74    6.66
   2   0  10  170.72    5.59
  -2   0 -10  180.27    6.39
  -2   0 -10  165.55    5.86
   4   0  10  383.78   12.01
   4   0  10  359.38   11.91
  -4   0 -10  392.23   12.95
   4   0  10  385.85   12.38
  -4   0 -10  414.72   13.33
  -4   0 -10  389.99   12.38
  -6   0 -10  175.83    6.62
  -6   0 -10  176.56    6.11
   6   0  10  166.97    6.21
   6   0  10  159.50    5.89
  -6   0 -10  176.34    7.01
   8   0  10   41.43    2.37
  -8   0 -10   34.23    3.08
  -8   0 -10   31.15    2.26
   8   0  10   39.74    4.32
   8   0  10   38.50    2.64
  -8   0 -10   29.30    2.71
 -10   0 -10   48.09    3.02
  10   0  10   44.53    2.56
  10   0  10   46.85    3.26
 -10   0 -10   50.74    3.40
 -12   0 -10   82.98    4.42
 -12   0 -10   81.80    4.48
  12   0  10   71.88    3.46
  12   0  10   78.88    4.48
  14   0  10  172.47    7.73
 -14   0 -10  172.58    7.37
 -14   0 -10  183.24    7.66
  16   0  10   64.88    5.40
 -16   0 -10   57.61    4.84
 -18   0 -10   32.87    4.32
  18   0  10   29.39    4.42
  20   0  10    2.94    3.61
 -20   0 -10    0.63    3.25
  21  -1 -10   22.58    5.16
 -21   1  10   27.00    5.68
  19  -1 -10   17.76    4.24
  19   1 -10   20.47    4.69
 -19   1  10   28.22    4.77
 -17  -1  10    4.49    3.01
  17  -1 -10    1.81    2.86
 -17   1  10    4.16    3.13
  17   1 -10    5.77    3.42
  17   1 -10    4.97    2.28
  15  -1 -10   22.97    3.68
 -15  -1  10   19.68    3.31
 -15  -1  10   21.83    3.41
 -15   1  10   22.80    3.70
  15   1 -10   23.08    3.88
  15   1 -10   21.49    2.80
 -13  -1  10   47.25    4.08
  13  -1 -10   61.76    4.57
 -13  -1  10   47.33    3.99
 -13   1  10   52.17    4.49
  13   1 -10   56.78    3.73
 -13   1  10   48.94    3.07
  13   1 -10   55.05    5.14
  11  -1 -10   66.03    4.45
  11  -1 -10   68.38    3.33
 -11  -1  10   63.07    4.42
 -11  -1  10   71.11    4.08
  11  -1 -10   70.69    3.89
  11   1 -10   60.66    3.70
 -11   1  10   68.78    4.61
 -11   1  10   69.37    3.58
  11   1 -10   74.02    5.05
   9  -1 -10   57.84    3.41
  -9  -1  10   66.18    4.11
  -9  -1  10   61.81    2.87
   9  -1 -10   59.55    3.80
   9  -1 -10   53.04    2.91
  -9  -1  10   60.69    3.47
   9   1 -10   59.13    4.31
  -9   1  10   60.28    3.23
  -9   1  10   64.90    4.06
   9   1 -10   54.66    3.30
   7  -1 -10   60.21    3.40
  -7  -1  10   62.25    2.92
  -7  -1  10   64.36    3.21
  -7  -1  10   62.05    3.83
   7  -1 -10   57.55    3.29
   7  -1 -10   54.22    2.87
   7   1 -10   61.35    3.99
  -7   1  10   68.02    3.70
   7   1 -10   54.92    3.15
  -7   1  10   70.05    3.30
   5  -1 -10   26.57    2.32
   5  -1 -10   29.67    2.10
   5  -1 -10   29.30    2.27
  -5  -1  10   26.14    2.46
  -5  -1  10   21.81    1.60
  -5  -1  10   29.14    1.92
  -5   1  10   20.78    2.19
   5   1 -10   24.99    2.07
  -5   1  10   23.37    1.94
   5   1 -10   28.53    2.78
   3  -1 -10  119.71    4.29
   3  -1 -10  114.70    4.89
  -3  -1  10  123.72    4.56
  -3  -1  10  123.67    5.15
   3  -1 -10  121.20    4.75
   3   1 -10  118.24    4.75
  -3   1  10  119.46    4.71
   3   1 -10  123.74    5.28
  -3   1  10  121.25    4.93
  -3   1  10  122.95    5.16
   1  -1 -10  219.26    8.06
  -1  -1  10  224.18    7.93
  -1  -1  10  233.62    7.56
   1  -1 -10  234.79    8.06
   1   1 -10  238.36    8.58
   1   1 -10  227.51    8.27
  -1   1  10  212.19    7.90
  -1   1  10  221.88    7.60
  -1   1  10  219.14    7.74
   1   1 -10  231.19    7.90
  -1  -1 -10  166.60    6.20
  -1  -1 -10  149.23    5.68
   1  -1  10  162.56    5.65
   1  -1  10  155.09    5.81
   1  -1  10  163.12    5.98
  -1  -1 -10  157.12    6.05
  -1   1 -10  163.45    6.43
   1   1  10  150.76    5.73
   1   1  10  147.23    5.93
   1   1  10  154.07    5.62
  -1   1 -10  155.82    5.80
  -1   1 -10  158.73    6.02
  -3  -1 -10   19.72    2.12
   3  -1  10   24.92    2.07
   3  -1  10   28.28    2.15
  -3  -1 -10   23.24    2.27
   3  -1  10   24.62    1.90
  -3  -1 -10   21.54    1.86
   3   1  10   25.76    2.00
  -3   1 -10   25.04    1.96
  -3   1 -10   25.85    2.08
   3   1  10   26.26    1.99
   5  -1  10   39.33    2.40
   5  -1  10   41.98    2.66
  -5  -1 -10   41.30    3.08
   5  -1  10   39.23    2.59
  -5  -1 -10   41.86    3.11
  -5  -1 -10   42.69    2.51
  -5   1 -10   39.92    2.50
   5   1  10   39.78    2.15
   5   1  10   40.64    2.40
  -7  -1 -10  117.32    5.64
   7  -1  10  114.05    4.94
  -7  -1 -10  124.15    5.60
  -7  -1 -10  126.07    4.93
   7  -1  10  109.43    4.82
   7  -1  10  115.46    4.58
  -7   1 -10  122.01    4.86
  -7   1 -10  117.94    4.82
   7   1  10  111.02    4.43
   7   1  10   99.48    4.49
  -9  -1 -10  111.31    4.81
  -9  -1 -10  109.40    5.52
  -9  -1 -10  107.72    5.46
   9  -1  10  108.26    4.79
   9  -1  10  108.04    4.49
   9  -1  10   95.69    4.78
  -9   1 -10  107.67    4.87
  -9   1 -10  110.72    4.60
   9   1  10   95.89    4.86
   9   1  10  106.62    4.32
 -11  -1 -10   85.14    4.40
 -11  -1 -10   75.55    5.01
  11  -1  10   75.42    4.20
  11  -1  10   78.18    3.83
  11  -1  10   79.58    4.54
 -11  -1 -10   84.39    4.86
 -11   1 -10   75.36    3.81
 -11   1 -10   80.69    4.48
  13  -1  10   20.29    2.14
 -13  -1 -10   22.74    3.04
 -13  -1 -10   19.14    3.26
 -13  -1 -10   26.03    2.90
  13  -1  10   30.14    3.48
 -13   1 -10   20.90    2.95
 -15  -1 -10    4.38    2.28
 -15  -1 -10    2.68    2.23
  15  -1  10    6.46    2.80
 -15   1 -10    6.09    2.49
  17  -1  10   24.89    3.93
 -17  -1 -10   25.87    3.81
 -17  -1 -10   26.96    3.67
 -17   1 -10   28.98    4.08
 -19  -1 -10   43.99    5.17
  19  -1  10   44.34    5.51
 -19   1 -10   42.48    4.99
  20   2 -10    0.16    4.75
 -18  -2  10    1.49    3.25
  18  -2 -10   -1.58    4.31
  18   2 -10    0.54    2.62
 -18   2  10    0.86    3.52
  18   2 -10   -0.45    3.43
  16  -2 -10   16.83    3.64
 -16  -2  10   13.14    3.51
  16   2 -10   19.97    4.38
  16   2 -10   18.20    2.99
 -16   2  10   12.67    2.30
 -16   2  10   15.52    3.77
  14  -2 -10   10.03    2.04
  14  -2 -10    3.33    2.52
 -14  -2  10    4.80    2.52
 -14   2  10    6.07    1.80
 -14   2  10   12.45    3.24
  14   2 -10    7.36    2.27
  14   2 -10    1.89    2.70
  12  -2 -10    4.32    1.60
  12  -2 -10    3.37    2.22
 -12  -2  10    4.27    2.13
 -12   2  10    3.70    1.65
 -12   2  10    5.29    2.37
  12   2 -10    2.97    1.87
  12   2 -10    1.79    2.36
 -10  -2  10    1.24    1.73
  10  -2 -10    0.97    1.34
 -10   2  10    1.37    1.27
  10   2 -10    1.50    1.56
  10   2 -10   -0.36    1.90
 -10   2  10    1.36    1.71
   8  -2 -10   17.72    2.09
  -8  -2  10   21.10    2.56
  -8  -2  10   21.06    1.88
   8  -2 -10   21.75    1.99
   8   2 -10   18.84    3.08
   8   2 -10   15.64    2.13
  -8   2  10   20.71    2.70
  -8   2  10   18.19    2.13
   6  -2 -10   29.03    2.59
  -6  -2  10   24.74    2.61
  -6  -2  10   30.04    2.13
   6  -2 -10   24.00    2.15
  -6   2  10   28.83    2.95
   6   2 -10   27.93    2.50
   6   2 -10   30.22    3.29
  -6   2  10   30.67    2.50
  -4  -2  10   12.08    1.49
   4  -2 -10   11.15    1.69
   4  -2 -10   11.76    1.62
  -4  -2  10    9.00    1.66
   4   2 -10   11.67    1.69
  -4   2  10   10.75    1.58
   4   2 -10    6.41    1.88
  -4   2  10    9.72    1.84
  -2  -2  10   24.13    2.06
   2  -2 -10   20.61    2.04
   2  -2 -10   19.63    2.05
  -2  -2  10   19.69    2.09
   2   2 -10   19.36    1.96
  -2   2  10   24.99    2.57
  -2   2  10   23.92    2.15
   2   2 -10   22.11    2.66
   0  -2 -10   23.04    2.39
   0  -2  10   23.56    2.32
   0  -2  10   24.54    2.05
   0  -2  10   26.48    2.31
   0  -2 -10   21.68    2.10
   0   2 -10   21.07    1.95
   0   2 -10   20.14    2.47
   0   2  10   22.37    2.33
   0   2  10   23.53    2.10
   2  -2  10   46.85    2.69
  -2  -2 -10   44.53    2.98
  -2  -2 -10   47.94    3.06
   2  -2  10   45.56    3.07
  -2  -2 -10   45.83    3.38
   2  -2  10   48.83    2.83
   2   2  10   42.85    2.98
  -2   2 -10   45.06    2.66
  -2   2 -10   50.47    3.25
   2   2  10   43.27    2.70
  -4  -2 -10   15.96    1.94
  -4  -2 -10   16.67    2.36
   4  -2  10   15.38    1.69
   4  -2  10   14.22    1.76
   4  -2  10   14.21    2.02
  -4  -2 -10   14.21    2.05
  -4   2 -10   15.69    2.06
  -4   2 -10   21.67    1.96
   4   2  10   13.78    1.93
   4   2  10   12.19    1.63
  -6  -2 -10   14.81    2.25
  -6  -2 -10   16.24    2.03
   6  -2  10   15.97    1.95
   6  -2  10   17.63    2.35
  -6  -2 -10   15.18    2.49
   6  -2  10   16.15    1.93
   6   2  10   20.61    2.32
  -6   2 -10   12.09    1.59
   6   2  10   16.69    1.79
  -8  -2 -10   12.49    2.50
  -8  -2 -10   11.98    1.94
  -8  -2 -10   15.16    2.39
   8  -2  10   11.90    1.87
   8  -2  10   14.28    2.23
   8  -2  10   10.52    1.68
   8   2  10   14.70    1.72
  10  -2  10    0.35    1.31
 -10  -2 -10    0.80    1.53
  10  -2  10   -0.47    1.02
 -10  -2 -10    1.08    1.87
  10  -2  10    4.81    1.81
 -10  -2 -10    0.32    1.88
  12  -2  10   -1.21    1.33
 -12  -2 -10    1.20    2.21
  12  -2  10    1.67    1.29
 -12  -2 -10    2.63    2.29
  12  -2  10    0.99    1.90
 -12  -2 -10    2.09    1.82
  14  -2  10    5.40    3.17
 -14  -2 -10    8.33    2.49
 -14  -2 -10    3.78    2.68
 -14  -2 -10    3.58    2.65
  14  -2  10    6.50    2.59
  14  -2  10    4.82    1.63
 -16  -2 -10   15.39    3.50
 -16  -2 -10   10.89    3.56
  16  -2  10   16.93    2.43
  16  -2  10   19.40    3.70
 -16  -2 -10   17.70    3.30
  18  -2  10    3.90    3.43
 -18  -2 -10    6.41    3.16
 -18  -2 -10    1.27    2.86
 -17  -3  10    9.72    4.02
 -17   3  10   10.06    2.79
 -17   3  10    8.52    3.89
  17   3 -10    7.24    3.31
  17   3 -10    9.64    4.06
 -15  -3  10    3.60    3.04
  15  -3 -10    4.39    2.14
  15   3 -10    9.22    3.02
 -15   3  10    5.92    3.42
  15   3 -10    8.37    3.61
 -15   3  10    4.53    2.20
 -13  -3  10    1.77    2.51
  13  -3 -10    2.42    1.75
 -13   3  10    4.65    2.09
  13   3 -10   -0.17    2.73
 -13   3  10    6.08    2.99
  13   3 -10    2.44    2.27
 -11  -3  10   16.77    3.09
  11  -3 -10    8.90    2.02
 -11   3  10   16.21    3.25
 -11   3  10   14.38    2.39
  11   3 -10   10.52    3.12
  11   3 -10   12.89    2.69
  -9  -3  10    8.72    2.32
   9  -3 -10    8.41    1.83
   9   3 -10    7.21    2.09
   9   3 -10    4.93    2.50
  -9   3  10    8.27    2.38
  -9   3  10    7.25    1.81
   7  -3 -10   26.26    2.60
  -7  -3  10   25.21    2.80
   7   3 -10   22.16    2.63
  -7   3  10   26.10    3.15
  -7   3  10   25.30    2.65
   7   3 -10   22.39    3.26
  -5  -3  10   21.51    2.06
  -5  -3  10   18.03    2.30
   5  -3 -10   22.11    2.25
   5  -3 -10   21.22    2.59
  -5   3  10   21.21    2.37
   5   3 -10   20.01    3.06
  -5   3  10   16.03    2.48
   5   3 -10   20.01    2.45
  -3  -3  10   30.22    2.59
   3  -3 -10   32.47    2.61
  -3  -3  10   30.64    2.83
   3  -3 -10   38.34    3.05
   3   3 -10   33.94    2.78
  -3   3  10   30.20    2.71
   3   3 -10   28.97    3.36
  -3   3  10   27.48    3.07
   1  -3 -10   16.78    1.98
  -1  -3  10   11.84    1.75
  -1  -3  10   15.00    1.82
  -1  -3  10   12.28    2.14
   1  -3 -10   17.93    2.42
  -1   3  10   16.30    2.10
   1   3 -10   21.47    2.25
  -1   3  10   13.28    2.22
   1   3 -10   22.14    2.92
  -1  -3 -10    7.23    2.02
   1  -3  10   10.59    1.64
  -1  -3 -10    6.66    1.52
   1  -3  10   12.42    2.23
   1  -3  10   11.91    1.69
  -1   3 -10   10.54    1.67
  -1   3 -10   13.57    2.32
   1   3  10    8.56    1.69
   1   3  10    9.68    2.02
   3  -3  10   23.27    2.30
  -3  -3 -10   23.94    2.55
  -3  -3 -10   22.38    2.90
   3  -3  10   26.35    2.39
   3  -3  10   31.27    3.15
  -3  -3 -10   27.86    2.87
   3   3  10   29.07    3.15
  -3   3 -10   26.17    2.88
  -3   3 -10   26.87    2.20
   3   3  10   31.13    2.66
   5  -3  10   13.38    1.83
  -5  -3 -10    8.95    2.51
   5  -3  10   13.30    1.87
  -5  -3 -10   12.10    2.12
   5  -3  10   10.67    2.23
  -5  -3 -10   10.82    2.03
   5   3  10   13.72    2.28
   5   3  10   11.29    1.75
  -7  -3 -10   30.40    3.68
   7  -3  10   40.87    3.88
  -7  -3 -10   34.58    3.28
   7  -3  10   34.01    2.86
   7  -3  10   33.84    2.95
  -7  -3 -10   34.61    3.30
   7   3  10   36.65    3.54
   9  -3  10   24.63    2.73
  -9  -3 -10   26.04    2.91
   9  -3  10   19.28    2.43
  -9  -3 -10   22.22    3.09
   9  -3  10   23.12    3.28
  -9  -3 -10   22.52    3.53
  11  -3  10   19.76    3.28
 -11  -3 -10   14.46    3.22
  11  -3  10   12.37    2.14
  11  -3  10   15.25    2.46
 -11  -3 -10   10.14    2.68
 -11  -3 -10   14.44    2.74
 -13  -3 -10    0.86    2.20
 -13  -3 -10    0.20    2.47
  13  -3  10   -0.13    1.46
  13  -3  10    0.64    1.83
  13  -3  10    0.84    2.28
 -13  -3 -10    3.12    2.88
  15  -3  10    3.35    1.88
 -15  -3 -10   11.10    3.58
 -15  -3 -10    5.04    3.45
  15  -3  10    8.60    3.22
 -15  -3 -10    5.46    2.79
  15  -3  10    8.41    2.54
 -17  -3 -10    6.19    4.28
  17  -3  10   10.81    2.46
 -17  -3 -10   10.12    4.21
 -14  -4  10   18.81    4.10
  14  -4 -10   23.65    3.19
  14   4 -10   21.39    4.18
  14   4 -10   20.40    4.77
 -14   4  10   24.37    4.77
 -14   4  10   23.05    3.54
 -12  -4  10   21.34    3.79
  12  -4 -10   19.04    2.71
  12   4 -10   18.68    3.51
 -12   4  10   21.56    3.14
  12   4 -10   13.92    4.01
 -12   4  10   26.14    4.25
 -10  -4  10   23.03    3.41
  10  -4 -10   15.83    2.45
  10   4 -10   15.69    3.01
 -10   4  10   21.28    3.68
  10   4 -10   15.34    3.58
 -10   4  10   18.14    2.83
   8  -4 -10   38.76    3.46
  -8  -4  10   43.57    4.05
  -8   4  10   43.21    4.55
   8   4 -10   46.38    4.23
   8   4 -10   42.89    5.04
  -8   4  10   44.00    3.90
   6  -4 -10   73.56    4.13
  -6  -4  10   68.32    4.55
  -6   4  10   74.18    5.40
   6   4 -10   70.28    4.68
  -6   4  10   69.80    4.50
   6   4 -10   73.88    5.89
  -4  -4  10   29.09    2.90
  -4  -4  10   30.68    2.84
   4  -4 -10   32.45    2.83
   4   4 -10   31.55    3.27
  -4   4  10   38.33    3.50
   4   4 -10   31.03    4.04
  -4   4  10   42.67    4.38
   2  -4 -10   31.92    2.89
  -2  -4  10   44.49    3.50
  -2  -4  10   41.09    3.27
  -2  -4  10   46.85    4.27
   2   4 -10   40.39    4.18
  -2   4  10   42.19    3.57
  -2   4  10   44.81    4.24
   2   4 -10   39.24    3.26
   0  -4 -10   23.46    3.10
   0  -4  10   22.23    2.54
   0  -4  10   31.86    3.69
   0  -4 -10   25.91    2.41
   0  -4  10   29.99    2.70
   0   4  10   27.75    3.50
   0   4  10   22.55    2.86
   0   4 -10   20.70    2.99
   0   4 -10   23.94    2.53
   2  -4  10   62.07    4.68
  -2  -4 -10   64.42    3.84
   2  -4  10   64.55    3.83
   2  -4  10   61.82    3.93
  -2  -4 -10   56.33    4.69
  -2  -4 -10   71.07    4.69
   2   4  10   61.14    4.03
   2   4  10   74.13    5.06
   4  -4  10   55.75    3.59
  -4  -4 -10   58.04    4.05
  -4  -4 -10   59.42    4.96
   4  -4  10   52.51    3.82
   4  -4  10   64.22    4.78
  -4  -4 -10   57.97    4.44
   4   4  10   64.03    3.89
  -4   4 -10   68.88    4.64
   4   4  10   60.42    4.70
   6  -4  10   61.75    3.94
   6  -4  10   66.45    4.17
  -6  -4 -10   61.70    4.55
  -6  -4 -10   61.24    5.49
  -6  -4 -10   60.64    4.28
   6  -4  10   71.65    5.21
   6   4  10   61.72    4.92
   8  -4  10   24.26    3.56
  -8  -4 -10   18.73    2.91
  -8  -4 -10   16.36    3.71
  -8  -4 -10   23.66    3.29
   8  -4  10   18.14    2.49
   8  -4  10   22.16    2.67
 -10  -4 -10   10.04    2.70
  10  -4  10   11.69    2.33
 -10  -4 -10    9.22    3.56
  10  -4  10    9.21    2.15
 -10  -4 -10   13.73    2.91
  10  -4  10   13.12    3.27
 -12  -4 -10   37.58    5.28
  12  -4  10   32.96    3.54
 -12  -4 -10   36.33    4.13
  12  -4  10   36.49    3.76
  12  -4  10   48.10    5.06
 -12  -4 -10   37.85    4.37
  14  -4  10   40.38    4.15
  14  -4  10   32.34    4.00
   9  -5 -10   38.15    3.57
  -9   5  10   38.95    5.33
   9   5 -10   33.78    4.62
  -9   5  10   42.90    4.50
   9   5 -10   31.22    5.17
   7  -5 -10    1.51    1.86
   7   5 -10    4.07    2.75
   7   5 -10    2.63    3.33
  -7   5  10    3.02    2.51
  -7   5  10    3.45    3.17
   5  -5 -10   23.07    2.69
  -5  -5  10   22.69    4.06
  -5   5  10   27.38    4.29
   5   5 -10   27.20    3.57
   5   5 -10   21.40    4.22
  -5   5  10   23.48    3.44
  -3  -5  10   33.98    4.53
   3  -5 -10   37.64    3.28
  -3   5  10   33.18    3.88
   3   5 -10   35.48    4.59
   3   5 -10   29.14    3.68
  -3   5  10   34.84    4.50
  -1  -5  10   60.94    4.43
  -1  -5  10   67.67    5.82
   1  -5 -10   67.00    4.04
   1  -5 -10   73.87    5.63
  -1   5  10   64.70    4.85
  -1   5  10   61.02    5.83
   1   5 -10   56.06    5.50
   1  -5  10   65.60    5.86
  -1  -5 -10   58.52    5.19
   1  -5  10   58.89    4.49
   1   5  10   70.92    4.90
   1   5  10   64.58    5.79
  -1   5 -10   63.16    5.38
  -3  -5 -10    9.99    3.20
   3  -5  10   14.45    2.65
   3  -5  10   18.72    3.72
  -3  -5 -10   18.76    3.54
  -3   5 -10   12.47    3.01
   3   5  10   18.86    3.64
  -5  -5 -10   14.07    3.15
   5  -5  10    6.29    2.14
   5  -5  10    6.32    2.43
   5  -5  10    9.36    3.27
  -5  -5 -10    3.91    3.21
  -5  -5 -10   13.33    2.53
   5   5  10    7.26    3.14
  -7  -5 -10   20.87    3.69
   7  -5  10   20.23    3.97
  -7  -5 -10   11.70    4.00
   7  -5  10   11.01    2.61
   7  -5  10   17.00    2.65
  -9  -5 -10   55.32    7.74
 -20   0  11   -3.86    3.64
  20   0 -11    0.32    3.69
 -18   0  11   -4.61    2.95
  18   0 -11   -0.20    3.15
 -16   0  11   -1.18    2.70
  16   0 -11   -1.31    2.49
  14   0 -11    2.31    2.44
  14   0 -11   -0.43    1.49
 -14   0  11   -2.65    2.07
  12   0 -11    0.42    1.36
  12   0 -11   -0.67    1.96
 -12   0  11    0.69    1.89
 -12   0  11   -0.72    1.07
  10   0 -11   -0.28    1.18
 -10   0  11   -0.34    1.49
 -10   0  11   -0.91    1.40
 -10   0  11   -0.46    0.98
  10   0 -11   -0.57    1.74
  -8   0  11    0.82    0.94
   8   0 -11   -0.14    1.11
  -8   0  11    0.59    1.32
   8   0 -11    0.12    1.61
  -8   0  11    0.03    1.28
   6   0 -11    1.55    1.49
   6   0 -11    0.70    1.11
  -6   0  11    0.05    0.88
   6   0 -11    0.04    1.10
  -6   0  11   -0.63    1.06
  -6   0  11   -0.28    0.99
  -4   0  11   -1.47    0.73
   4   0 -11   -0.52    0.91
  -4   0  11   -0.34    1.02
   4   0 -11    0.10    0.98
  -4   0  11   -1.12    0.88
   4   0 -11   -0.82    1.09
   2   0 -11   -0.24    0.95
  -2   0  11    0.44    0.90
   2   0 -11   -0.38    0.98
  -2   0  11   -0.53    0.66
  -2   0  11   -0.39    0.88
   2   0 -11    0.33    1.03
   0   0 -11    1.25    1.17
   0   0 -11    0.49    0.69
   0   0  11    1.98    1.00
   0   0 -11    0.19    1.03
   0   0  11    0.90    0.67
   0   0  11    1.69    0.76
   0   0  11    1.75    0.93
   0   0 -11    1.04    0.84
   2   0  11    0.43    0.91
   2   0  11   -0.80    0.76
  -2   0 -11    0.00    0.65
  -2   0 -11    0.73    1.13
  -2   0 -11   -0.01    1.05
   2   0  11    0.75    0.71
  -4   0 -11   -1.57    0.96
  -4   0 -11    0.42    1.29
   4   0  11    0.54    0.92
   4   0  11   -0.10    0.75
  -4   0 -11    0.37    0.75
   4   0  11   -0.51    0.78
   6   0  11    0.73    0.88
  -6   0 -11    0.19    0.85
   6   0  11    0.05    1.01
  -6   0 -11    1.03    1.49
   6   0  11    0.62    0.94
  -6   0 -11   -0.71    1.14
   8   0  11    1.36    1.23
  -8   0 -11   -1.70    1.39
   8   0  11    0.69    0.85
  -8   0 -11    0.05    1.28
  -8   0 -11    0.84    1.01
 -10   0 -11    0.64    1.38
  10   0  11    0.11    0.86
 -10   0 -11    0.42    1.22
  10   0  11   -0.85    1.41
 -12   0 -11    1.26    1.51
  12   0  11   -2.49    1.56
  12   0  11   -0.54    0.91
 -12   0 -11   -0.06    1.47
 -14   0 -11    0.71    1.97
  14   0  11    0.25    2.13
 -14   0 -11   -0.02    1.64
  16   0  11    1.87    2.66
 -16   0 -11    0.72    2.32
 -18   0 -11    0.45    2.80
 -20   0 -11   -0.43    3.36
  19  -1 -11    9.89    3.89
  19   1 -11   25.55    5.06
 -19   1  11   23.14    4.66
  17  -1 -11    1.12    2.95
 -17   1  11    1.89    3.06
  17   1 -11    2.61    2.20
  17   1 -11    1.06    3.23
 -15  -1  11    6.56    2.91
  15  -1 -11   14.64    3.24
  15   1 -11   11.84    2.34
 -15   1  11   13.97    3.28
  15   1 -11   14.35    3.57
 -13  -1  11   17.12    2.82
  13  -1 -11   18.81    3.09
 -13   1  11   32.62    2.79
 -13   1  11   32.26    3.81
  13   1 -11   19.16    3.54
  13   1 -11   21.60    2.68
  11  -1 -11  118.69    5.86
  11  -1 -11  107.12    5.49
 -11  -1  11  115.89    6.12
  11  -1 -11  109.78    4.64
  11   1 -11  108.90    5.14
  11   1 -11  106.28    6.22
 -11   1  11  120.01    5.12
 -11   1  11  117.09    6.01
   9  -1 -11   21.42    2.08
   9  -1 -11   19.02    2.53
   9  -1 -11   23.91    2.52
  -9  -1  11   17.53    2.45
  -9  -1  11   19.33    1.80
   9   1 -11   23.45    3.19
  -9   1  11   26.97    2.81
  -9   1  11   17.99    2.11
   9   1 -11   18.03    2.21
  -7  -1  11   73.14    3.26
   7  -1 -11   67.42    3.38
   7  -1 -11   70.63    3.85
   7  -1 -11   77.09    3.87
  -7  -1  11   71.10    4.22
  -7   1  11   70.44    3.96
   7   1 -11   68.44    3.63
  -7   1  11   72.14    3.55
   7   1 -11   69.66    4.43
   5  -1 -11    3.22    1.31
   5  -1 -11    5.97    1.48
  -5  -1  11    2.43    1.09
  -5  -1  11    2.64    1.36
   5  -1 -11    5.89    1.34
   5   1 -11    3.93    1.78
  -5   1  11    2.29    1.04
   5   1 -11    7.58    1.41
  -5   1  11    2.03    1.23
   3  -1 -11   96.75    4.30
  -3  -1  11  106.40    4.72
   3  -1 -11  106.39    4.22
   3  -1 -11   99.89    4.52
  -3  -1  11   96.12    4.01
   3   1 -11  101.22    4.36
   3   1 -11  100.57    4.77
  -3   1  11   97.71    4.35
  -3   1  11  102.88    4.22
  -1  -1  11   72.87    3.19
   1  -1 -11   72.38    3.71
  -1  -1  11   66.88    3.59
   1  -1 -11   75.64    3.65
   1   1 -11   75.96    3.88
   1   1 -11   71.41    3.47
  -1   1  11   67.36    3.22
  -1   1  11   64.81    3.29
   1  -1  11   83.79    3.98
  -1  -1 -11   72.35    3.68
   1  -1  11   75.89    3.65
   1  -1  11   82.32    3.54
  -1  -1 -11   76.69    3.89
  -1  -1 -11   66.39    3.29
  -1   1 -11   71.06    3.57
   1   1  11   77.22    3.57
  -1   1 -11   73.51    3.49
   1   1  11   79.13    3.54
  -3  -1 -11   55.26    3.42
  -3  -1 -11   54.17    3.39
   3  -1  11   52.97    3.05
   3  -1  11   52.82    3.00
   3  -1  11   49.98    2.74
  -3  -1 -11   51.33    2.75
  -3   1 -11   49.21    2.91
   3   1  11   51.72    2.84
  -3   1 -11   50.08    2.90
   3   1  11   50.43    2.86
   5  -1  11   22.16    2.21
  -5  -1 -11   18.77    1.89
   5  -1  11   18.17    1.77
  -5  -1 -11   18.28    2.29
   5  -1  11   19.15    2.08
  -5  -1 -11   22.95    2.60
   5   1  11   18.10    1.84
  -5   1 -11   20.04    2.00
   7  -1  11   81.68    3.87
  -7  -1 -11   91.71    4.86
  -7  -1 -11   83.25    4.71
   7  -1  11   77.53    4.07
   7  -1  11   83.94    4.12
  -7  -1 -11   90.12    3.99
  -7   1 -11   91.60    4.30
  -7   1 -11   81.94    3.94
   7   1  11   79.97    3.73
   9  -1  11   18.48    2.00
  -9  -1 -11   24.31    2.89
   9  -1  11   26.17    2.61
   9  -1  11   22.14    2.60
  -9  -1 -11   24.31    2.96
  -9  -1 -11   23.85    2.40
  -9   1 -11   22.25    2.13
  -9   1 -11   21.31    2.40
   9   1  11   17.67    1.87
 -11  -1 -11   33.00    3.52
 -11  -1 -11   33.14    3.40
 -11  -1 -11   33.94    3.18
  11  -1  11   39.23    3.55
  11  -1  11   32.45    2.67
 -11   1 -11   31.64    2.59
 -11   1 -11   31.68    3.07
 -13  -1 -11    3.90    2.18
  13  -1  11    8.08    2.49
 -13  -1 -11    4.71    1.92
 -13  -1 -11    7.41    2.91
 -13   1 -11    3.29    2.00
  15  -1  11   33.95    4.17
 -15  -1 -11   26.14    3.50
 -15  -1 -11   31.48    3.57
 -15   1 -11   20.19    3.70
  17  -1  11   19.81    3.97
 -17  -1 -11   14.51    3.86
 -17  -1 -11   22.18    3.58
 -19  -1 -11   18.32    4.10
  19  -1  11   12.20    4.00
 -18  -2  11   44.43    5.66
  18   2 -11   58.60    5.19
  18   2 -11   53.04    6.55
 -18   2  11   67.82    6.71
 -16  -2  11   48.55    5.43
 -16   2  11   55.73    4.07
  16   2 -11   49.10    4.49
 -16   2  11   58.33    5.90
  16   2 -11   42.08    5.35
 -14  -2  11   76.28    5.70
 -14   2  11   83.36    6.00
  14   2 -11   62.49    5.91
  14   2 -11   60.25    4.56
 -14   2  11   68.88    4.31
  12  -2 -11   12.20    2.21
 -12  -2  11    5.76    2.45
 -12   2  11   13.34    2.13
  12   2 -11    9.89    3.02
 -12   2  11   12.66    2.86
  12   2 -11    9.48    2.30
  10  -2 -11   50.54    3.61
 -10  -2  11   47.80    4.27
 -10   2  11   47.51    3.35
 -10   2  11   50.41    4.20
  10   2 -11   49.97    3.59
  10   2 -11   52.36    4.62
  -8  -2  11   92.72    3.90
   8  -2 -11   87.78    3.91
  -8  -2  11   81.78    4.86
   8  -2 -11   93.15    4.52
   8   2 -11   79.15    5.31
  -8   2  11   88.16    5.01
  -8   2  11   85.85    4.32
   8   2 -11   88.21    4.52
  -6  -2  11  151.15    6.50
   6  -2 -11  139.97    5.47
  -6  -2  11  144.60    5.51
   6  -2 -11  146.26    5.99
  -6   2  11  150.13    6.47
  -6   2  11  148.05    6.00
   6   2 -11  145.80    6.81
   6   2 -11  132.27    5.83
   4  -2 -11  147.44    5.80
  -4  -2  11  168.04    6.78
   4  -2 -11  151.43    6.03
  -4  -2  11  170.85    6.16
   4   2 -11  147.36    6.73
  -4   2  11  161.65    6.82
  -4   2  11  160.97    6.37
   4   2 -11  145.07    5.91
  -2  -2  11   44.54    2.66
   2  -2 -11   38.74    2.90
  -2  -2  11   39.94    3.04
   2  -2 -11   38.87    2.94
   2   2 -11   48.97    3.61
   2   2 -11   39.94    2.74
  -2   2  11   42.19    3.12
  -2   2  11   39.96    2.76
   0  -2  11   64.66    3.32
   0  -2  11   63.49    3.58
   0  -2 -11   74.63    3.78
   0  -2  11   65.91    3.69
   0  -2 -11   72.55    4.00
   0   2  11   60.63    3.36
   0   2 -11   68.21    4.10
   0   2 -11   63.61    3.37
   0   2  11   63.08    3.66
   2  -2  11   91.08    4.57
  -2  -2 -11   95.96    4.58
   2  -2  11   95.04    4.34
  -2  -2 -11  101.36    5.05
   2  -2  11   94.36    4.24
  -2  -2 -11  102.55    4.79
  -2   2 -11   95.42    4.30
   2   2  11   92.66    4.53
  -2   2 -11  106.18    4.91
   2   2  11   94.95    4.26
  -4  -2 -11  200.62    7.89
   4  -2  11  193.49    7.28
  -4  -2 -11  182.64    7.12
   4  -2  11  196.84    7.40
   4  -2  11  195.70    7.75
  -4  -2 -11  194.15    7.57
   4   2  11  195.52    7.53
  -4   2 -11  181.59    7.29
   4   2  11  198.92    7.22
  -4   2 -11  186.84    6.91
   6  -2  11   85.51    4.07
  -6  -2 -11   77.89    4.11
   6  -2  11   81.98    4.55
  -6  -2 -11   81.55    4.61
  -6  -2 -11   80.15    4.86
   6  -2  11   82.71    4.24
  -6   2 -11   77.77    3.75
   6   2  11   87.21    4.49
   6   2  11   81.74    3.96
   8  -2  11   41.39    2.88
  -8  -2 -11   39.19    3.06
   8  -2  11   41.01    3.42
  -8  -2 -11   29.42    3.49
  -8  -2 -11   32.01    3.31
   8  -2  11   39.57    3.14
  -8   2 -11   36.53    3.94
   8   2  11   38.93    2.73
  10  -2  11   44.94    3.84
  10  -2  11   43.38    3.08
 -10  -2 -11   49.26    3.61
 -10  -2 -11   47.96    4.39
 -10  -2 -11   41.10    4.00
  10  -2  11   42.63    3.36
 -12  -2 -11   70.96    5.29
  12  -2  11   74.01    4.97
  12  -2  11   66.12    3.94
  12  -2  11   71.67    4.46
 -12  -2 -11   80.76    4.73
 -12  -2 -11   72.78    5.45
  14  -2  11   66.05    5.30
 -14  -2 -11   71.96    5.08
 -14  -2 -11   61.85    5.41
 -14  -2 -11   60.28    5.44
  14  -2  11   65.62    4.08
  16  -2  11   28.55    3.09
 -16  -2 -11   30.29    4.01
 -16  -2 -11   23.70    4.10
 -16  -2 -11   24.61    4.26
  16  -2  11   34.45    4.74
 -18  -2 -11   11.20    3.51
 -18  -2 -11    4.38    3.26
  18  -2  11    9.93    3.95
 -17  -3  11    5.02    3.67
  17   3 -11    0.41    3.76
 -17   3  11    3.76    2.42
  17   3 -11    2.06    3.13
 -17   3  11    2.78    3.72
  15  -3 -11   20.40    2.92
 -15  -3  11   22.16    4.18
  15   3 -11   18.92    3.57
 -15   3  11   30.00    3.45
 -15   3  11   29.05    4.67
  15   3 -11   18.06    4.36
 -13  -3  11   72.73    5.92
  13  -3 -11   76.15    4.66
  13   3 -11   75.34    6.35
  13   3 -11   68.76    5.24
 -13   3  11   77.03    6.26
 -13   3  11   70.49    4.73
  11  -3 -11   41.87    3.68
 -11  -3  11   32.46    4.04
 -11   3  11   49.87    5.01
  11   3 -11   41.36    4.91
 -11   3  11   40.32    3.53
  11   3 -11   41.86    4.03
  -9  -3  11   69.68    4.86
   9  -3 -11   68.06    4.13
   9   3 -11   64.51    4.30
   9   3 -11   56.34    5.13
  -9   3  11   72.08    5.12
  -9   3  11   64.32    4.16
   7  -3 -11    1.33    1.43
  -7  -3  11    5.06    1.87
  -7   3  11    4.12    1.75
   7   3 -11    1.39    1.64
   7   3 -11    3.94    2.38
  -7   3  11    0.79    1.81
   5  -3 -11   63.41    3.90
  -5  -3  11   64.53    3.49
  -5  -3  11   57.92    3.91
   5  -3 -11   62.56    3.81
   5   3 -11   61.50    4.85
  -5   3  11   57.38    3.71
  -5   3  11   62.50    4.36
   5   3 -11   68.77    3.95
  -3  -3  11   54.49    3.75
  -3  -3  11   56.07    3.38
   3  -3 -11   65.07    3.63
   3  -3 -11   61.10    3.78
  -3   3  11   56.70    3.58
   3   3 -11   66.33    4.71
  -3   3  11   59.86    4.16
   3   3 -11   57.35    3.72
   1  -3 -11  150.71    6.21
   1  -3 -11  148.51    6.55
  -1  -3  11  165.83    6.57
  -1  -3  11  162.03    6.45
  -1  -3  11  161.12    7.07
  -1   3  11  158.66    6.60
  -1   3  11  162.00    7.13
   1   3 -11  139.47    6.06
   1   3 -11  160.22    7.20
  -1  -3 -11  102.16    5.08
   1  -3  11   98.17    4.66
  -1  -3 -11   91.43    4.68
   1  -3  11  105.29    5.37
   1  -3  11  100.22    4.73
  -1  -3 -11   97.60    5.28
  -1   3 -11   99.17    4.54
   1   3  11  101.30    4.86
   1   3  11  106.08    5.37
  -1   3 -11   97.67    5.24
   3  -3  11   10.07    2.20
  -3  -3 -11    7.35    1.85
  -3  -3 -11    8.51    1.85
   3  -3  11    6.47    1.62
  -3  -3 -11    6.72    2.26
   3  -3  11    7.23    1.60
   3   3  11   11.34    2.20
  -3   3 -11    8.80    2.00
  -3   3 -11    7.65    1.48
   3   3  11    8.12    1.75
   5  -3  11   30.12    2.71
   5  -3  11   25.64    2.62
  -5  -3 -11   31.28    3.06
  -5  -3 -11   34.84    3.23
  -5  -3 -11   29.47    3.59
   5  -3  11   33.97    3.48
   5   3  11   27.68    3.09
   5   3  11   31.59    2.67
   7  -3  11   67.11    4.05
   7  -3  11   72.25    4.08
  -7  -3 -11   63.24    4.33
  -7  -3 -11   74.20    5.32
  -7  -3 -11   66.83    4.49
   7  -3  11   70.04    4.73
  -9  -3 -11  109.57    6.83
   9  -3  11  108.84    5.52
  -9  -3 -11  104.67    5.97
   9  -3  11  116.76    5.50
  -9  -3 -11  121.48    5.89
   9  -3  11  110.37    6.21
 -11  -3 -11   25.39    3.95
 -11  -3 -11   30.33    3.64
  11  -3  11   36.14    4.18
  11  -3  11   31.67    3.28
  11  -3  11   27.11    2.84
 -11  -3 -11   27.54    3.33
  13  -3  11   20.82    2.72
 -13  -3 -11   14.12    3.36
 -13  -3 -11   22.43    3.34
  13  -3  11   27.49    4.03
  13  -3  11   21.65    3.07
 -13  -3 -11   17.03    3.80
 -15  -3 -11    4.48    3.51
  15  -3  11    6.04    2.09
 -15  -3 -11    5.38    3.31
 -15  -3 -11    7.12    3.05
  15  -3  11    5.37    2.60
  15  -3  11   11.34    3.38
  17  -3  11   21.68    3.03
 -17  -3 -11   28.90    7.35
 -14  -4  11    2.93    3.86
  14  -4 -11    1.72    2.23
  14   4 -11    0.80    3.81
  14   4 -11    5.89    4.35
 -14   4  11    2.51    2.75
 -14   4  11    3.36    4.07
 -12  -4  11    3.23    3.01
  12  -4 -11    0.19    1.86
 -12   4  11    2.65    2.42
 -12   4  11    5.53    3.27
  12   4 -11   -1.94    3.03
  12   4 -11    4.11    2.93
 -10  -4  11    4.32    2.92
  10  -4 -11    6.85    2.15
 -10   4  11    4.20    2.99
  10   4 -11   13.72    3.03
 -10   4  11    7.18    2.53
  10   4 -11    0.46    2.96
  -8  -4  11   20.61    3.20
   8  -4 -11   21.58    2.65
  -8   4  11   23.01    3.06
  -8   4  11   22.03    3.66
   8   4 -11   21.15    3.24
   8   4 -11   19.26    3.97
   6  -4 -11   28.58    2.80
  -6  -4  11   23.75    3.15
  -6   4  11   27.45    3.29
   6   4 -11   24.38    3.25
  -6   4  11   25.31    3.62
   6   4 -11   25.42    4.06
  -4  -4  11    4.76    1.99
   4  -4 -11    2.78    1.65
  -4  -4  11    2.83    1.81
  -4   4  11    3.43    2.02
   4   4 -11    4.46    2.08
   4   4 -11    5.36    2.59
  -4   4  11    3.72    2.31
  -2  -4  11    5.23    2.34
  -2  -4  11    3.20    1.81
  -2  -4  11   -0.01    1.56
   2  -4 -11    3.15    1.56
   2   4 -11    0.54    1.70
  -2   4  11    3.89    2.47
   2   4 -11    2.05    2.32
  -2   4  11    1.94    1.92
   0  -4 -11    5.72    2.31
   0  -4 -11    3.22    2.18
   0  -4  11    6.00    1.85
   0  -4  11    5.05    1.85
   0  -4 -11    1.97    1.57
   0  -4  11    4.58    2.36
   0   4  11    3.01    1.94
   0   4 -11    1.40    1.58
   0   4 -11    0.86    2.03
   0   4  11    4.61    2.33
   2  -4  11   54.25    3.72
  -2  -4 -11   56.83    4.36
  -2  -4 -11   39.51    4.10
  -2  -4 -11   45.14    3.52
   2  -4  11   45.59    3.66
   2  -4  11   55.77    4.64
  -2   4 -11   37.90    4.07
   2   4  11   49.44    4.72
   2   4  11   54.66    3.85
  -4  -4 -11   24.77    3.57
   4  -4  11   34.55    3.93
   4  -4  11   22.79    2.81
  -4  -4 -11   31.60    3.24
  -4  -4 -11   27.02    3.43
   4  -4  11   28.34    2.82
  -4   4 -11   28.50    3.49
   4   4  11   33.62    3.75
   4   4  11   26.71    2.92
   6  -4  11   26.09    3.81
   6  -4  11   19.12    2.62
  -6  -4 -11   17.49    3.45
   6  -4  11   14.58    2.33
  -6  -4 -11   16.20    2.74
  -6  -4 -11   16.47    2.91
   6   4  11   15.23    2.93
   8  -4  11    5.30    2.71
   8  -4  11    3.24    1.82
  -8  -4 -11    3.26    2.92
   8  -4  11    5.23    2.12
  -8  -4 -11    8.04    2.62
  -8  -4 -11    8.25    2.59
  10  -4  11    3.62    2.11
  10  -4  11    3.82    1.99
 -10  -4 -11    6.33    2.72
 -10  -4 -11    7.50    2.72
  10  -4  11    3.13    2.68
 -10  -4 -11    4.57    3.38
  12  -4  11    7.81    3.20
  12  -4  11    5.61    2.58
 -12  -4 -11    5.71    3.89
 -12  -4 -11    3.03    2.91
 -12  -4 -11    6.13    2.99
  12  -4  11   10.89    2.48
   9   5 -11   11.58    4.23
   7  -5 -11    1.25    1.97
  -7   5  11    1.46    2.46
   7   5 -11    1.93    2.78
   7   5 -11    2.19    3.34
  -7   5  11    2.60    3.26
   5  -5 -11    1.77    1.95
  -5  -5  11    1.90    3.19
  -5   5  11    0.90    2.90
   5   5 -11    1.57    2.98
  -5   5  11    2.17    2.57
   5   5 -11    3.57    2.68
   3  -5 -11    0.87    1.83
  -3  -5  11    1.63    2.93
   3   5 -11    2.22    2.40
  -3   5  11   -0.63    2.71
   3   5 -11    1.19    2.72
  -3   5  11    3.90    2.65
  -1  -5  11    3.35    2.15
  -1  -5  11    4.45    3.09
   1  -5 -11    1.19    1.83
   1  -5 -11    1.70    2.75
   1   5 -11    3.03    2.69
  -1   5  11    1.66    2.88
  -1   5  11    2.73    2.47
   1  -5  11    2.11    2.23
  -1  -5 -11    1.32    1.83
   1  -5  11    3.79    3.07
   1  -5  11    2.51    2.06
  -1  -5 -11    3.98    2.71
  -1   5 -11    3.71    2.70
   1   5  11   -1.69    2.37
   1   5  11    4.11    2.97
   3  -5  11   12.97    3.63
  -3  -5 -11    8.52    2.21
  -3  -5 -11    6.40    3.20
   3  -5  11    9.74    2.58
   3  -5  11   13.08    2.76
  -3  -5 -11   15.41    3.42
   3   5  11   13.92    3.56
  -3   5 -11    7.23    2.93
   5  -5  11   16.16    3.91
   5  -5  11   16.56    2.75
  -5  -5 -11   18.61    3.45
  -5  -5 -11   13.73    2.70
  -5  -5 -11    7.27    3.55
   5  -5  11   11.95    2.78
   5   5  11   12.32    3.50
  -7  -5 -11    2.90    3.57
  -7  -5 -11    1.53    3.04
   7  -5  11    3.51    3.13
   7  -5  11   -1.88    2.09
  -7  -5 -11    0.45    2.82
   7  -5  11    1.49    2.52
  20   0 -12    9.37    4.72
  18   0 -12  115.02    8.24
 -18   0  12  130.90    8.11
 -16   0  12   67.20    5.73
  16   0 -12   55.15    5.62
 -14   0  12   56.54    4.79
  14   0 -12   51.98    5.13
  14   0 -12   46.69    3.53
  12   0 -12    6.58    1.81
 -12   0  12   10.57    2.40
  12   0 -12   10.24    2.76
 -12   0  12    7.18    1.58
  10   0 -12  122.44    6.25
 -10   0  12  132.55    5.99
  10   0 -12  114.08    5.10
 -10   0  12  136.44    5.37
  -8   0  12  272.55    9.69
  -8   0  12  264.73   10.32
   8   0 -12  285.73    9.65
   8   0 -12  271.00   10.33
  -8   0  12  286.29    9.41
  -6   0  12  179.90    6.64
   6   0 -12  173.42    6.65
   6   0 -12  179.12    7.08
  -6   0  12  173.77    7.38
  -6   0  12  185.20    6.55
  -4   0  12  233.09    8.60
   4   0 -12  229.84    8.03
   4   0 -12  232.47    8.26
  -4   0  12  222.98    7.75
  -4   0  12  230.95    7.93
   4   0 -12  215.38    8.05
   2   0 -12    4.35    1.43
  -2   0  12    2.40    0.88
  -2   0  12    1.90    1.21
   2   0 -12    1.58    1.15
   2   0 -12    3.61    1.30
  -2   0  12    2.29    1.07
   0   0 -12  161.49    5.78
   0   0  12  152.24    6.09
   0   0  12  155.07    5.65
   0   0  12  143.96    5.29
   0   0 -12  155.09    5.46
   0   0 -12  165.22    6.38
   0   0  12  143.84    5.19
   0   0 -12  165.94    6.19
  -2   0 -12   94.75    3.67
   2   0  12  108.23    4.75
   2   0  12   95.70    3.93
   2   0  12  102.92    4.22
  -2   0 -12  107.59    4.82
  -2   0 -12   97.38    4.42
   4   0  12  308.44   10.21
  -4   0 -12  297.32   10.28
   4   0  12  319.20   10.35
  -4   0 -12  291.07    9.56
   4   0  12  307.25   10.82
  -4   0 -12  308.26   10.72
  -6   0 -12  164.32    6.49
  -6   0 -12  160.12    5.84
   6   0  12  161.32    6.00
   6   0  12  162.31    6.01
  -6   0 -12  167.53    7.03
   8   0  12   47.35    2.83
  -8   0 -12   53.42    3.52
  -8   0 -12   56.24    3.05
   8   0  12   52.20    3.07
 -10   0 -12   34.37    3.05
  10   0  12   30.63    2.95
  10   0  12   29.85    2.38
 -10   0 -12   35.80    2.81
  12   0  12   65.76    4.29
 -12   0 -12   71.01    4.31
 -12   0 -12   71.10    4.26
  12   0  12   64.27    3.43
  14   0  12   95.52    6.30
 -14   0 -12   98.92    5.51
 -14   0 -12   90.07    5.13
 -16   0 -12   12.00    3.00
 -18   0 -12   32.18    4.44
  19  -1 -12    5.42    3.88
 -19   1  12   11.59    4.40
  19   1 -12    4.96    4.29
  17  -1 -12    2.82    3.20
  17   1 -12    1.35    2.24
 -17   1  12    3.95    3.36
  17   1 -12    2.17    3.48
  15  -1 -12   31.63    4.21
  15   1 -12   27.41    3.13
 -15   1  12   41.33    4.66
  15   1 -12   31.08    4.49
  13  -1 -12   72.08    5.24
 -13  -1  12   71.81    5.26
  13   1 -12   64.58    4.17
 -13   1  12   72.81    5.28
  13   1 -12   68.61    5.65
 -13   1  12   69.25    4.00
  11  -1 -12  131.75    6.38
 -11  -1  12  129.66    6.67
  11  -1 -12  119.25    5.23
  11   1 -12  123.74    5.67
  11   1 -12  132.42    6.95
 -11   1  12  127.51    5.54
 -11   1  12  129.34    6.45
   9  -1 -12   43.31    3.29
  -9  -1  12   44.64    2.63
   9  -1 -12   52.84    3.82
  -9  -1  12   45.73    3.81
   9  -1 -12   45.84    2.97
   9   1 -12   46.65    3.24
   9   1 -12   42.79    4.13
  -9   1  12   44.81    3.58
  -9   1  12   45.80    3.03
   7  -1 -12   12.35    1.94
   7  -1 -12   10.18    1.62
   7  -1 -12    8.71    2.00
  -7  -1  12   10.93    1.54
  -7  -1  12    7.69    1.94
  -7   1  12    9.55    1.89
  -7   1  12   11.99    1.76
   7   1 -12   10.97    2.39
   7   1 -12   11.84    1.86
   5  -1 -12   39.73    2.78
  -5  -1  12   41.86    2.64
  -5  -1  12   39.75    3.26
   5  -1 -12   39.80    3.06
   5   1 -12   45.67    3.47
  -5   1  12   42.49    2.64
   5   1 -12   43.83    2.85
  -5   1  12   40.17    2.89
  -3  -1  12  150.22    6.25
  -3  -1  12  144.17    5.56
   3  -1 -12  152.21    6.22
   3  -1 -12  151.17    5.95
  -3   1  12  153.14    5.75
  -3   1  12  147.13    5.87
   3   1 -12  162.84    6.51
   3   1 -12  152.30    6.05
  -1  -1  12  152.31    5.67
   1  -1 -12  150.51    5.96
   1  -1 -12  154.77    6.11
  -1  -1  12  154.44    6.24
  -1   1  12  147.54    5.72
  -1   1  12  150.06    5.81
   1   1 -12  145.02    5.78
   1   1 -12  145.15    6.09
   1  -1  12   74.50    3.86
   1  -1  12   67.60    3.27
  -1  -1 -12   62.13    3.61
   1  -1  12   63.89    3.37
  -1  -1 -12   60.66    3.13
  -1  -1 -12   65.97    3.80
   1   1  12   71.46    3.40
  -1   1 -12   64.73    3.39
  -1   1 -12   60.71    3.41
   1   1  12   60.86    3.25
   3  -1  12   53.39    3.30
   3  -1  12   56.38    2.99
   3  -1  12   54.43    3.17
  -3  -1 -12   56.33    2.94
  -3  -1 -12   58.78    3.54
  -3  -1 -12   53.24    3.68
   3   1  12   55.08    3.05
  -3   1 -12   50.94    3.15
  -3   1 -12   55.73    3.10
   3   1  12   53.26    3.03
  -5  -1 -12   27.26    2.84
  -5  -1 -12   22.99    2.16
   5  -1  12   19.34    2.12
   5  -1  12   16.99    1.85
  -5  -1 -12   24.18    2.67
   5  -1  12   20.94    2.25
   5   1  12   19.34    1.99
  -5   1 -12   27.58    2.46
  -7  -1 -12   95.05    5.06
   7  -1  12   91.88    4.61
   7  -1  12   97.52    4.35
  -7  -1 -12   97.29    5.15
  -7  -1 -12   88.40    4.18
   7  -1  12   98.12    4.68
  -7   1 -12   87.06    4.19
   7   1  12   95.82    4.26
  -9  -1 -12   90.67    5.31
   9  -1  12   87.87    4.27
   9  -1  12   85.24    4.66
   9  -1  12   99.26    4.82
  -9  -1 -12   94.99    4.53
  -9  -1 -12   88.68    5.16
   9   1  12   89.05    4.15
  -9   1 -12   91.98    4.29
  11  -1  12   60.36    4.28
  11  -1  12   60.82    3.52
 -11  -1 -12   55.35    3.83
 -11  -1 -12   53.04    4.36
 -11  -1 -12   55.27    4.60
 -11   1 -12   51.99    3.36
  13  -1  12    5.33    1.63
 -13  -1 -12    6.78    2.46
 -13  -1 -12    5.39    2.14
  13  -1  12    6.16    2.54
  15  -1  12   24.38    3.83
 -15  -1 -12   29.89    3.83
 -15  -1 -12   25.88    3.44
 -17  -1 -12   21.42    3.72
  17  -1  12   30.22    4.41
  19  -1  12   17.52    4.45
 -19  -1 -12    9.78    4.07
  18   2 -12   -1.44    3.71
  18   2 -12    0.23    2.79
 -18   2  12   -0.75    3.63
 -16  -2  12    6.46    3.44
  16   2 -12    3.98    2.65
  16   2 -12    4.21    3.64
 -16   2  12    9.05    3.61
 -16   2  12    7.14    2.61
 -14  -2  12   11.31    3.03
 -14   2  12    5.90    2.15
  14   2 -12    3.78    3.15
 -14   2  12    6.40    2.98
  14   2 -12    7.48    2.51
 -12  -2  12    3.99    2.48
  12  -2 -12    2.40    1.70
 -12   2  12    6.38    1.89
  12   2 -12    6.16    2.14
  12   2 -12    3.51    2.69
 -12   2  12    4.54    2.45
  10  -2 -12    6.38    1.80
 -10  -2  12    5.13    2.27
 -10   2  12    3.36    1.72
  10   2 -12    7.60    2.70
  10   2 -12    7.23    2.03
 -10   2  12    7.71    2.46
  -8  -2  12    4.58    1.94
  -8  -2  12    2.65    1.38
   8  -2 -12    3.95    1.65
   8  -2 -12    1.93    1.37
   8   2 -12    2.49    2.13
  -8   2  12    3.26    1.49
   8   2 -12    2.55    1.71
  -8   2  12    3.77    1.91
   6  -2 -12   51.50    3.52
  -6  -2  12   48.45    3.83
   6  -2 -12   50.87    3.10
  -6  -2  12   53.49    2.96
   6   2 -12   53.46    3.44
  -6   2  12   49.18    3.28
  -6   2  12   54.17    3.85
   6   2 -12   49.17    4.19
   4  -2 -12   17.95    2.16
   4  -2 -12   19.06    2.17
  -4  -2  12   18.03    1.92
  -4  -2  12   14.91    2.27
  -4   2  12   17.22    2.48
   4   2 -12   17.78    2.18
  -4   2  12   16.12    1.97
   4   2 -12   18.91    2.77
   2  -2 -12   15.90    2.12
  -2  -2  12   15.33    1.85
   2  -2 -12   11.56    1.96
  -2  -2  12   13.82    2.08
   2   2 -12   12.38    2.34
   2   2 -12   14.80    1.87
  -2   2  12   14.77    2.19
  -2   2  12   15.62    1.99
   0  -2 -12    0.17    1.29
   0  -2  12    0.97    1.29
   0  -2  12   -0.41    1.23
   0  -2  12    0.43    1.10
   0  -2 -12    0.58    1.46
   0   2  12   -1.51    1.08
   0   2  12   -0.24    1.14
   0   2 -12   -0.58    1.46
   0   2 -12    0.68    1.12
   2  -2  12   44.63    3.27
  -2  -2 -12   47.50    3.25
   2  -2  12   49.68    3.27
  -2  -2 -12   49.02    3.54
   2  -2  12   48.80    3.03
  -2  -2 -12   49.16    3.71
  -2   2 -12   50.00    3.52
   2   2  12   48.22    3.04
  -2   2 -12   45.46    2.96
   2   2  12   43.89    3.27
   4  -2  12    2.75    1.26
  -4  -2 -12    4.42    2.00
   4  -2  12    4.36    1.50
  -4  -2 -12    4.25    1.51
   4  -2  12    4.69    1.72
  -4  -2 -12    5.44    1.89
   4   2  12    3.16    1.48
  -4   2 -12    4.32    1.58
   4   2  12    2.27    1.39
  -4   2 -12    4.03    1.39
   6  -2  12   16.93    2.46
   6  -2  12   13.08    1.86
  -6  -2 -12   11.62    2.40
  -6  -2 -12   13.41    2.48
   6  -2  12   15.58    2.07
  -6  -2 -12   17.37    2.31
   6   2  12   15.77    2.00
  -6   2 -12   15.15    1.89
   8  -2  12    4.72    1.92
   8  -2  12    3.74    1.44
  -8  -2 -12    9.10    1.98
  -8  -2 -12    4.49    2.15
   8  -2  12    6.09    1.75
  -8  -2 -12    4.93    2.28
   8   2  12    2.79    1.35
  -8   2 -12    7.47    2.48
  10  -2  12   17.32    2.20
  10  -2  12   23.68    2.72
  10  -2  12   25.58    3.38
 -10  -2 -12   23.56    3.19
 -10  -2 -12   16.30    3.11
 -10  -2 -12   19.16    2.64
  12  -2  12   14.53    2.33
 -12  -2 -12   17.65    3.26
 -12  -2 -12   18.71    2.85
 -12  -2 -12   12.18    3.00
  12  -2  12   16.71    3.15
  12  -2  12   14.21    2.50
 -14  -2 -12    4.58    3.04
  14  -2  12    2.77    1.69
  14  -2  12    9.14    2.98
 -14  -2 -12    8.29    2.71
 -14  -2 -12    1.95    2.65
 -16  -2 -12    3.93    3.30
  16  -2  12    2.34    3.17
 -16  -2 -12    2.73    2.88
  16  -2  12    2.44    1.91
 -18  -2 -12   -1.60    3.08
 -17  -3  12    6.31    4.09
 -17   3  12    2.93    2.55
 -15  -3  12    7.95    3.63
  15  -3 -12    9.86    2.46
  15   3 -12   16.70    4.09
 -15   3  12    9.76    2.69
 -15   3  12   12.68    4.07
  15   3 -12    6.56    3.13
 -13  -3  12    6.92    3.06
  13  -3 -12    5.85    2.07
 -13   3  12    8.99    3.34
 -13   3  12   12.09    2.55
  13   3 -12    3.18    2.69
  13   3 -12    1.20    3.08
 -11  -3  12   58.50    5.20
  11  -3 -12   54.42    4.15
 -11   3  12   47.03    4.06
  11   3 -12   40.83    4.91
 -11   3  12   59.69    5.34
  11   3 -12   46.28    4.38
   9  -3 -12    4.84    1.96
  -9  -3  12    2.72    2.15
  -9   3  12    4.37    2.54
   9   3 -12    4.03    2.12
   9   3 -12    4.39    2.64
  -9   3  12    5.51    1.96
  -7  -3  12   19.89    2.90
   7  -3 -12   14.21    2.19
  -7   3  12   14.54    2.34
   7   3 -12   17.12    2.61
  -7   3  12   17.68    3.03
   7   3 -12   15.22    3.13
  -5  -3  12    1.83    1.47
  -5  -3  12    1.69    1.71
   5  -3 -12    1.25    1.59
   5  -3 -12   -3.07    1.23
  -5   3  12    1.80    1.84
   5   3 -12   -1.26    1.46
  -5   3  12    1.15    1.48
   5   3 -12    1.65    2.17
  -3  -3  12   28.76    2.96
   3  -3 -12   21.55    2.56
   3  -3 -12   23.90    2.49
  -3  -3  12   32.15    2.81
   3   3 -12   29.16    3.55
  -3   3  12   34.75    3.04
   3   3 -12   26.52    2.72
  -3   3  12   30.55    3.42
   1  -3 -12   42.65    3.67
   1  -3 -12   42.18    3.34
  -1  -3  12   45.75    3.22
  -1  -3  12   48.47    3.52
  -1  -3  12   46.44    3.90
  -1   3  12   57.03    4.14
  -1   3  12   46.47    3.50
   1   3 -12   49.08    4.08
   1   3 -12   45.67    3.30
  -1  -3 -12   20.68    2.43
   1  -3  12   21.70    2.87
  -1  -3 -12   18.00    2.73
   1  -3  12   22.06    2.41
   1  -3  12   23.61    2.61
  -1  -3 -12   24.90    2.87
  -1   3 -12   21.75    2.34
   1   3  12   26.60    2.73
   1   3  12   23.53    2.97
  -1   3 -12   23.90    3.00
   3  -3  12   21.49    2.35
   3  -3  12   16.47    2.18
  -3  -3 -12   15.90    2.70
  -3  -3 -12   17.75    2.59
  -3  -3 -12   15.51    2.50
   3  -3  12   21.96    3.03
   3   3  12   16.82    2.21
   3   3  12   21.60    2.91
  -3   3 -12   20.05    2.21
  -3   3 -12   18.09    2.60
  -5  -3 -12    3.29    2.25
   5  -3  12    5.64    2.11
   5  -3  12    3.58    1.60
  -5  -3 -12    8.55    2.11
  -5  -3 -12    4.94    2.04
   5  -3  12    1.69    1.39
   5   3  12    2.90    1.57
   5   3  12    4.33    1.95
   7  -3  12   24.45    2.73
   7  -3  12   26.71    3.41
  -7  -3 -12   28.70    3.32
  -7  -3 -12   28.48    3.26
   7  -3  12   17.57    2.40
  -7  -3 -12   24.73    3.65
   9  -3  12    5.05    1.95
   9  -3  12    7.63    2.64
  -9  -3 -12    0.30    2.14
  -9  -3 -12    2.62    2.03
   9  -3  12    3.51    1.70
  -9  -3 -12    2.88    2.62
 -11  -3 -12   18.90    3.44
 -11  -3 -12   18.32    2.97
 -11  -3 -12   20.12    3.72
  11  -3  12   25.23    3.78
  11  -3  12   17.52    2.52
  11  -3  12   20.82    2.97
  13  -3  12   17.96    3.05
 -13  -3 -12    4.92    3.08
 -13  -3 -12   13.52    3.75
 -13  -3 -12   15.92    3.29
  13  -3  12   12.73    3.48
  13  -3  12    7.80    2.10
  15  -3  12   11.05    3.66
  15  -3  12    8.23    2.33
 -15  -3 -12   11.29    3.91
 -15  -3 -12   10.12    3.44
 -15  -3 -12    5.51    3.55
  14  -4 -12    9.81    2.87
  12  -4 -12    8.49    2.49
 -12  -4  12   12.62    3.67
  12   4 -12    9.75    3.87
  12   4 -12   16.12    3.61
 -12   4  12    9.44    3.00
 -12   4  12   10.08    3.77
 -10  -4  12   18.73    3.64
  10  -4 -12   17.39    2.75
 -10   4  12    9.64    2.78
  10   4 -12   20.58    3.53
 -10   4  12   15.05    3.76
  10   4 -12   14.56    3.83
  -8  -4  12   58.22    5.12
   8  -4 -12   57.94    4.26
   8   4 -12   45.31    5.25
   8   4 -12   53.56    4.63
  -8   4  12   67.73    4.80
  -8   4  12   69.67    5.93
  -6  -4  12   80.22    5.50
   6  -4 -12   78.96    4.58
  -6   4  12   83.38    5.21
   6   4 -12   63.23    5.91
   6   4 -12   77.80    5.04
  -6   4  12   95.74    6.35
   4  -4 -12   22.12    2.78
  -4  -4  12   22.50    2.94
  -4  -4  12   21.74    3.39
  -4   4  12   30.10    3.82
  -4   4  12   29.20    3.26
   4   4 -12   20.87    3.64
   4   4 -12   29.88    3.30
   2  -4 -12   22.27    2.61
  -2  -4  12   21.69    2.86
  -2  -4  12   32.22    4.00
  -2  -4  12   18.20    2.57
   2   4 -12   23.56    3.47
  -2   4  12   35.85    4.29
  -2   4  12   28.98    3.22
   2   4 -12   29.38    3.05
   0  -4 -12   17.14    3.02
   0  -4  12   14.65    3.12
   0  -4 -12    5.35    2.39
   0  -4  12    9.55    2.12
   0  -4 -12   10.35    2.08
   0  -4  12   14.63    2.51
   0   4 -12   14.82    2.87
   0   4  12   14.11    2.56
   0   4  12   15.40    3.11
   0   4 -12   17.05    2.53
   2  -4  12   77.07    4.83
   2  -4  12   82.21    4.93
  -2  -4 -12   89.49    5.56
  -2  -4 -12   78.00    4.77
   2  -4  12   87.33    5.78
   2   4  12   97.30    5.99
   2   4  12   78.84    4.80
  -2   4 -12   89.92    5.65
   4  -4  12   48.70    3.89
  -4  -4 -12   52.50    4.25
  -4  -4 -12   36.48    4.19
  -4  -4 -12   58.31    4.66
   4  -4  12   52.09    4.02
   4  -4  12   58.86    4.96
   4   4  12   53.72    4.06
   4   4  12   52.79    4.92
  -4   4 -12   54.24    4.50
  -6  -4 -12   26.62    4.01
   6  -4  12   40.27    4.46
  -6  -4 -12   39.18    3.93
   6  -4  12   40.97    3.56
  -6  -4 -12   29.36    3.47
   6  -4  12   31.13    3.20
   6   4  12   32.19    3.78
  -8  -4 -12   20.06    4.05
   8  -4  12   23.82    3.02
  -8  -4 -12   19.57    3.11
   8  -4  12   28.77    4.07
   8  -4  12   17.80    2.76
  -8  -4 -12   23.36    3.49
 -10  -4 -12   24.86    4.60
 -10  -4 -12   31.39    3.84
 -10  -4 -12   27.14    3.81
  10  -4  12   25.21    3.31
  10  -4  12   23.31    4.01
  10  -4  12   21.90    3.04
  12  -4  12   24.92    4.53
  12  -4  12   22.12    3.30
 -12  -4 -12   13.20    5.46
 -12  -4 -12   18.08    3.64
  12  -4  12   22.45    3.28
 -12  -4 -12   19.41    4.18
   7   5 -12    2.53    2.97
   7   5 -12   -0.47    3.62
  -7   5  12    1.31    3.16
  -7   5  12    4.34    5.51
  -5  -5  12   33.98    4.85
  -5  -5  12   26.51    3.64
   5  -5 -12   34.57    3.37
   5   5 -12   36.91    4.16
  -5   5  12   34.32    4.73
  -5   5  12   32.99    4.13
   5   5 -12   29.70    4.52
   3  -5 -12   36.65    3.37
  -3  -5  12   42.79    5.20
  -3   5  12   43.35    5.10
   3   5 -12   45.03    4.34
  -3   5  12   41.75    4.36
   3   5 -12   41.46    4.98
   1  -5 -12   44.63    3.93
  -1  -5  12   50.19    4.40
  -1  -5  12   46.28    5.22
  -1  -5  12   41.49    4.05
   1  -5 -12   45.02    4.92
  -1   5  12   49.76    5.24
   1   5 -12   33.52    4.49
  -1   5  12   47.38    4.58
   1  -5  12   30.97    3.41
   1  -5  12   32.05    4.76
   1  -5  12   27.12    3.47
  -1  -5 -12   35.77    4.43
  -1  -5 -12   22.94    2.88
   1   5  12   22.46    3.60
   1   5  12   33.52    4.49
  -1   5 -12   20.78    3.64
  -3  -5 -12   -1.28    2.84
   3  -5  12    4.44    2.45
   3  -5  12    2.39    3.22
  -3  -5 -12    1.30    2.09
  -3  -5 -12    1.27    2.79
   3  -5  12    3.96    2.60
   3   5  12    0.47    3.02
   5  -5  12   30.39    4.75
   5  -5  12   27.42    3.59
  -5  -5 -12   25.44    4.57
  -5  -5 -12   28.33    3.53
   5  -5  12   25.64    3.43
  -5  -5 -12   30.23    4.31
   5   5  12   24.82    4.18
  20   0 -13   -1.96    4.14
  18   0 -13    0.39    3.57
  16   0 -13   -1.34    2.96
  14   0 -13    0.84    2.69
  14   0 -13    0.45    1.67
 -14   0  13   -0.29    2.36
 -12   0  13   -1.03    1.84
 -12   0  13   -0.51    1.26
  12   0 -13   -0.38    2.18
  12   0 -13    0.39    1.57
 -10   0  13   -0.99    1.17
 -10   0  13    0.08    1.69
  10   0 -13    0.50    1.90
  10   0 -13   -0.51    1.41
  -8   0  13   -1.53    1.08
   8   0 -13   -1.22    1.73
  -8   0  13   -0.09    1.32
   8   0 -13   -1.14    1.28
  -6   0  13   -0.99    1.07
  -6   0  13    0.39    1.06
   6   0 -13   -1.65    1.46
   6   0 -13   -0.71    1.20
  -6   0  13   -0.18    1.40
  -4   0  13    0.09    0.96
  -4   0  13    0.65    1.09
  -4   0  13    1.61    1.24
   4   0 -13   -0.33    1.33
   4   0 -13    0.45    1.23
  -2   0  13   -0.52    1.02
   2   0 -13    0.05    1.13
   2   0 -13    0.89    1.31
   2   0 -13   -0.96    1.06
  -2   0  13   -0.39    1.14
  -2   0  13    0.58    0.78
   0   0  13    1.05    1.17
   0   0  13    3.04    0.99
   0   0 -13    0.45    1.30
   0   0 -13    0.94    1.32
   0   0  13    2.16    0.94
   0   0 -13    1.60    1.04
   0   0  13    0.51    1.26
   0   0 -13    1.90    0.89
  -2   0 -13   -0.38    1.38
   2   0  13    0.06    0.98
   2   0  13    0.19    1.16
  -2   0 -13    1.02    0.83
   2   0  13    1.19    0.87
  -2   0 -13   -0.84    1.22
  -4   0 -13    0.29    0.82
   4   0  13   -0.78    0.93
  -4   0 -13   -0.10    1.51
  -4   0 -13    1.09    1.36
   4   0  13   -0.45    0.93
   6   0  13    1.04    1.10
   6   0  13    0.33    1.07
  -6   0 -13    1.23    0.97
  -6   0 -13   -0.68    1.27
   8   0  13    1.73    1.34
   8   0  13    0.48    1.11
  -8   0 -13    0.57    1.16
  -8   0 -13    0.32    1.41
  10   0  13   -0.35    1.01
 -10   0 -13   -0.70    1.29
 -10   0 -13   -1.33    1.47
  12   0  13    0.63    1.17
 -12   0 -13   -2.40    1.55
 -12   0 -13    0.79    1.68
 -14   0 -13    2.42    2.27
 -14   0 -13    1.68    2.26
 -16   0 -13    0.55    2.60
 -19   1  13    1.51    3.91
  19   1 -13    2.73    4.26
  17   1 -13   19.14    4.52
  17   1 -13   13.65    2.97
 -17   1  13   13.17    3.90
  15   1 -13   42.05    5.27
 -15   1  13   51.89    5.28
  15   1 -13   52.95    4.21
 -13  -1  13   21.95    3.40
 -13   1  13   36.33    3.20
  13   1 -13   36.89    3.40
  13   1 -13   31.92    4.23
 -13   1  13   44.13    4.40
 -11  -1  13   77.98    5.23
  11  -1 -13   68.18    3.76
 -11   1  13   65.72    3.93
 -11   1  13   71.95    4.78
  11   1 -13   67.45    4.15
  11   1 -13   64.00    5.16
   9  -1 -13   15.25    2.43
  -9  -1  13   13.66    2.53
  -9  -1  13   13.95    1.75
   9  -1 -13   11.90    1.92
   9   1 -13   17.58    2.28
  -9   1  13   11.67    1.91
  -9   1  13   13.48    2.41
   9   1 -13   15.46    2.96
   7  -1 -13   12.36    2.12
  -7  -1  13   18.18    1.93
   7  -1 -13   12.84    1.91
  -7  -1  13   11.31    2.17
   7   1 -13   14.44    2.62
   7   1 -13   13.16    2.11
  -7   1  13   14.39    1.99
  -7   1  13   12.34    2.09
  -5  -1  13   45.62    2.84
   5  -1 -13   48.37    3.38
   5  -1 -13   43.80    3.00
  -5  -1  13   48.07    3.55
  -5   1  13   41.92    2.83
  -5   1  13   45.87    3.18
   5   1 -13   47.18    3.10
   5   1 -13   44.58    3.73
  -3  -1  13  133.87    5.32
  -3  -1  13  130.76    5.94
   3  -1 -13  122.50    5.46
   3  -1 -13  128.16    5.28
   3   1 -13  116.04    5.26
  -3   1  13  134.56    5.41
  -3   1  13  132.85    5.52
   3   1 -13  126.49    5.75
  -1  -1  13  163.94    6.01
  -1  -1  13  170.56    6.79
   1  -1 -13  159.58    6.53
   1  -1 -13  155.62    6.35
   1   1 -13  167.01    6.32
  -1   1  13  156.06    6.10
   1   1 -13  157.70    6.48
  -1   1  13  145.60    5.99
   1  -1  13    9.56    1.49
  -1  -1 -13   10.10    1.94
   1  -1  13   10.29    1.82
   1  -1  13   11.78    1.79
  -1  -1 -13   11.27    1.63
  -1  -1 -13   10.82    2.07
   1   1  13   12.04    1.61
  -1   1 -13   10.46    1.76
   1   1  13   10.86    1.64
  -1   1 -13   10.26    1.71
  -3  -1 -13   40.43    2.58
  -3  -1 -13   42.42    3.24
   3  -1  13   35.51    3.03
   3  -1  13   34.80    2.54
  -3  -1 -13   43.11    3.47
   3  -1  13   40.67    2.84
  -3   1 -13   39.71    2.78
   3   1  13   35.89    2.67
  -3   1 -13   40.19    2.88
   3   1  13   37.91    2.66
   5  -1  13   27.98    2.57
  -5  -1 -13   17.25    2.48
   5  -1  13   20.04    2.14
  -5  -1 -13   20.11    2.62
  -5  -1 -13   24.38    2.26
   5  -1  13   29.17    2.74
  -5   1 -13   25.96    2.46
   5   1  13   27.83    2.40
   7  -1  13   86.42    4.56
  -7  -1 -13   83.93    4.16
  -7  -1 -13   85.77    5.11
   7  -1  13   84.78    4.44
  -7  -1 -13   86.57    4.90
   7  -1  13   79.88    4.06
  -7   1 -13   87.99    4.25
   7   1  13   82.64    4.04
   9  -1  13   35.37    3.32
  -9  -1 -13   32.03    2.98
  -9  -1 -13   40.35    3.94
   9  -1  13   33.08    2.78
  -9  -1 -13   32.70    3.44
   9   1  13   36.62    2.71
  -9   1 -13   28.57    2.68
  11  -1  13   58.86    3.59
 -11  -1 -13   60.11    4.14
 -11  -1 -13   63.61    4.71
 -11  -1 -13   62.66    6.62
  11  -1  13   54.65    4.23
 -11   1 -13   57.87    3.94
 -13  -1 -13    6.21    2.30
  13  -1  13    5.87    2.70
 -13  -1 -13    9.18    2.72
  13  -1  13    6.70    1.82
 -15  -1 -13   13.69    2.95
  15  -1  13   10.07    3.28
 -15  -1 -13    9.13    3.00
 -17  -1 -13    8.72    3.27
  17  -1  13   10.52    3.72
  18   2 -13   46.57    6.62
 -18   2  13   60.62    6.53
  18   2 -13   42.71    4.77
 -16  -2  13   36.83    4.98
 -16   2  13   46.81    5.39
  16   2 -13   45.42    4.45
  16   2 -13   36.71    5.48
 -14  -2  13    4.45    2.95
 -14   2  13    1.60    2.89
 -14   2  13    1.68    2.00
  14   2 -13    4.30    2.44
  14   2 -13    1.85    2.95
 -12  -2  13    7.49    2.74
  12  -2 -13   10.69    2.39
  12   2 -13   18.12    3.70
  12   2 -13   14.31    2.73
 -12   2  13    8.06    2.08
 -12   2  13   15.50    3.30
  10  -2 -13   88.39    4.88
 -10   2  13   89.67    5.60
  10   2 -13   83.67    4.87
 -10   2  13   82.04    4.60
  10   2 -13   75.86    5.76
   8  -2 -13  231.19    8.76
  -8  -2  13  218.42    7.82
   8  -2 -13  210.42    7.96
  -8  -2  13  224.55    9.23
  -8   2  13  223.75    9.04
   8   2 -13  214.81    8.64
  -8   2  13  208.01    8.34
   8   2 -13  236.84    9.75
   6  -2 -13  112.96    5.14
  -6  -2  13  123.55    5.16
   6  -2 -13  127.49    5.77
  -6  -2  13  127.20    6.23
   6   2 -13  121.61    6.42
  -6   2  13  128.71    6.10
   6   2 -13  124.11    5.55
  -6   2  13  123.52    5.55
  -4  -2  13   67.28    4.25
   4  -2 -13   63.38    3.74
   4  -2 -13   68.40    3.96
  -4  -2  13   56.90    3.35
   4   2 -13   60.65    3.77
  -4   2  13   58.86    3.94
   4   2 -13   69.17    4.65
  -4   2  13   63.41    3.62
  -2  -2  13    7.91    1.94
   2  -2 -13    6.85    1.83
   2  -2 -13    6.12    1.74
  -2  -2  13    6.16    1.48
  -2   2  13    8.62    1.86
   2   2 -13    6.78    1.62
   2   2 -13    7.26    2.15
  -2   2  13    8.26    1.65
   0  -2 -13  108.62    5.13
   0  -2  13  104.83    5.11
   0  -2  13  100.25    4.65
   0  -2 -13  106.70    5.13
   0  -2  13   99.39    5.12
   0   2  13  105.51    4.82
   0   2 -13  100.46    5.29
   0   2 -13  104.96    4.76
   0   2  13  107.38    5.05
   2  -2  13  188.03    7.60
  -2  -2 -13  173.09    7.01
   2  -2  13  195.93    7.57
  -2  -2 -13  182.79    7.59
   2  -2  13  183.76    7.15
  -2  -2 -13  190.70    7.59
   2   2  13  193.43    7.26
   2   2  13  177.12    7.40
  -2   2 -13  181.59    6.96
  -2   2 -13  170.51    7.32
   4  -2  13  142.99    5.89
  -4  -2 -13  136.37    5.81
  -4  -2 -13  129.28    6.28
   4  -2  13  140.76    6.27
  -4  -2 -13  138.55    6.55
   4  -2  13  136.92    6.04
  -4   2 -13  133.87    5.93
   4   2  13  135.05    6.04
  -4   2 -13  138.62    5.70
   4   2  13  134.11    5.81
   6  -2  13  112.12    5.33
   6  -2  13  109.85    5.03
  -6  -2 -13   99.22    4.96
  -6  -2 -13  103.48    5.63
  -6  -2 -13  100.39    5.80
   6  -2  13  105.18    5.53
  -6   2 -13  108.01    4.78
   6   2  13  104.42    5.00
   8  -2  13   13.17    2.64
  -8  -2 -13   18.16    2.54
  -8  -2 -13   11.02    2.53
   8  -2  13   12.74    2.18
  -8  -2 -13   12.52    2.81
   8  -2  13   10.64    1.96
   8   2  13   10.49    1.88
  10  -2  13   30.94    3.34
  10  -2  13   30.82    3.63
 -10  -2 -13   37.05    3.60
  10  -2  13   20.83    2.55
 -10  -2 -13   32.92    3.93
 -10  -2 -13   34.82    3.97
 -12  -2 -13   35.79    4.33
  12  -2  13   46.98    3.68
 -12  -2 -13   51.15    4.19
 -12  -2 -13   56.77    5.13
  12  -2  13   60.65    4.83
 -14  -2 -13   65.48    5.18
  14  -2  13   69.84    4.56
  14  -2  13   84.77    5.95
 -14  -2 -13   68.33    6.02
 -14  -2 -13   67.63    5.84
 -16  -2 -13   23.30    4.33
  16  -2  13   33.51    4.77
 -16  -2 -13   25.54    3.90
  16  -2  13   27.05    3.78
 -17   3  13    9.08    3.17
 -15  -3  13   17.03    4.20
 -15   3  13   19.69    3.12
  15   3 -13   20.73    3.95
 -15   3  13   20.39    4.56
  15   3 -13   18.39    4.59
  13  -3 -13   63.40    4.79
 -13  -3  13   69.19    6.33
  13   3 -13   65.82    5.34
  13   3 -13   70.07    6.41
 -13   3  13   77.30    6.42
 -13   3  13   61.41    4.86
  11  -3 -13   23.51    2.97
 -11  -3  13   34.43    4.39
  11   3 -13   22.50    4.18
 -11   3  13   39.74    4.69
 -11   3  13   29.92    3.41
  11   3 -13   26.83    3.55
   9  -3 -13   14.17    2.45
  -9  -3  13   21.46    3.47
  -9   3  13   23.94    3.66
   9   3 -13   19.68    2.99
   9   3 -13   21.57    3.69
  -9   3  13   18.63    2.71
  -7  -3  13    5.50    2.44
   7  -3 -13    2.85    1.81
   7   3 -13    2.27    2.53
  -7   3  13    2.74    2.24
  -7   3  13    1.17    1.83
   7   3 -13    6.23    2.18
   5  -3 -13   84.41    4.78
  -5  -3  13   80.85    4.42
  -5  -3  13   97.31    5.29
   5  -3 -13   80.09    4.73
   5   3 -13   86.97    5.87
  -5   3  13  101.34    5.75
  -5   3  13   85.82    4.78
   5   3 -13   83.87    4.85
  -3  -3  13  121.12    5.99
  -3  -3  13  118.99    5.47
   3  -3 -13  121.08    5.66
   3  -3 -13  116.89    5.67
  -3   3  13  120.91    5.75
  -3   3  13  131.70    6.47
   3   3 -13  131.53    5.82
   3   3 -13  113.91    6.56
  -1  -3  13   64.47    4.25
   1  -3 -13   53.38    3.85
  -1  -3  13   62.29    4.47
  -1  -3  13   56.34    3.76
   1  -3 -13   56.10    4.01
  -1   3  13   72.72    4.64
   1   3 -13   56.95    3.73
   1   3 -13   56.61    4.43
  -1   3  13   64.82    4.06
   1  -3  13   50.81    3.52
   1  -3  13   52.23    3.89
   1  -3  13   50.29    4.14
  -1  -3 -13   44.45    3.63
  -1  -3 -13   51.66    3.97
  -1  -3 -13   38.37    3.78
   1   3  13   58.34    4.36
  -1   3 -13   49.92    4.01
   1   3  13   57.03    3.78
  -1   3 -13   46.24    3.28
   3  -3  13   10.21    1.96
  -3  -3 -13    6.93    2.49
  -3  -3 -13   14.25    2.56
   3  -3  13   15.04    2.32
   3  -3  13   15.85    2.76
  -3  -3 -13   12.69    2.43
   3   3  13   11.10    2.11
  -3   3 -13   14.78    2.62
   3   3  13    8.13    2.19
  -3   3 -13   13.81    2.01
  -5  -3 -13   69.18    5.13
  -5  -3 -13   67.99    4.42
   5  -3  13   59.40    4.02
  -5  -3 -13   68.25    4.68
   5  -3  13   65.49    4.76
   5  -3  13   55.37    3.88
   5   3  13   59.13    3.87
   5   3  13   66.84    4.60
  -7  -3 -13   37.87    4.23
   7  -3  13   40.61    3.47
   7  -3  13   42.19    3.68
  -7  -3 -13   38.52    3.94
   7  -3  13   47.07    4.46
  -7  -3 -13   44.44    3.88
  -9  -3 -13   90.99    5.87
   9  -3  13   91.80    5.37
   9  -3  13  103.64    6.14
   9  -3  13   83.06    4.97
  -9  -3 -13   86.91    5.34
  -9  -3 -13   96.87    6.46
 -11  -3 -13   18.56    3.93
 -11  -3 -13   23.48    3.41
 -11  -3 -13   24.75    3.73
  11  -3  13   17.85    2.61
  11  -3  13   22.93    3.85
  11  -3  13   21.80    3.13
 -13  -3 -13   13.11    3.15
 -13  -3 -13    5.21    3.22
 -13  -3 -13    9.96    3.70
  13  -3  13    4.18    3.19
  13  -3  13   11.18    2.91
  13  -3  13    6.35    2.13
  15  -3  13    7.18    5.86
  15  -3  13    9.65    2.62
 -15  -3 -13    1.09    3.44
 -12  -4  13   -0.72    3.21
  12  -4 -13    5.09    2.36
 -12   4  13    2.63    2.67
 -12   4  13    7.17    3.68
  12   4 -13    3.06    3.17
  12   4 -13    2.47    3.53
  10  -4 -13    5.96    2.42
 -10  -4  13    4.32    3.09
 -10   4  13    5.14    3.37
  10   4 -13    2.39    2.83
 -10   4  13    8.81    2.90
  10   4 -13    7.74    3.64
  -8  -4  13    5.69    2.83
   8  -4 -13    2.53    2.19
  -8   4  13    6.53    2.55
   8   4 -13    4.28    3.11
   8   4 -13    5.34    2.71
  -8   4  13   11.92    3.32
  -6  -4  13   18.61    3.32
   6  -4 -13   10.58    2.40
   6   4 -13   15.55    3.03
  -6   4  13   18.65    3.68
   6   4 -13   14.90    3.53
  -6   4  13   14.23    2.92
  -4  -4  13    2.21    2.16
  -4  -4  13   -0.09    2.45
   4  -4 -13    1.36    1.83
  -4   4  13    2.05    2.12
  -4   4  13    4.14    2.63
   4   4 -13    1.25    2.06
   4   4 -13    0.97    2.52
  -2  -4  13    4.20    2.03
  -2  -4  13    6.87    2.47
  -2  -4  13    8.12    2.97
   2  -4 -13    4.39    1.97
   2   4 -13    4.87    2.19
  -2   4  13    5.67    2.39
   2   4 -13    8.35    2.77
  -2   4  13    3.42    2.50
   0  -4  13   13.97    3.23
   0  -4  13   19.87    2.90
   0  -4  13   11.70    2.34
   0  -4 -13   17.48    2.56
   0  -4 -13   12.41    2.92
   0  -4 -13   20.16    3.29
   0   4 -13   18.18    2.67
   0   4  13   16.37    3.32
   0   4 -13   18.53    3.25
   0   4  13   18.68    2.82
   2  -4  13   10.34    3.03
   2  -4  13   11.41    2.36
  -2  -4 -13    5.70    2.82
  -2  -4 -13   16.21    3.01
   2  -4  13   10.62    2.52
  -2  -4 -13   10.46    2.43
   2   4  13   11.25    3.05
  -2   4 -13   14.81    3.08
   2   4  13   13.64    2.76
  -4  -4 -13    9.68    2.58
   4  -4  13    7.37    2.23
  -4  -4 -13    3.25    2.63
   4  -4  13   11.33    3.04
  -4  -4 -13   10.87    2.88
   4  -4  13    4.23    1.93
   4   4  13   10.45    2.55
   4   4  13    5.03    2.77
   6  -4  13    0.26    1.90
  -6  -4 -13   -0.35    2.30
  -6  -4 -13    2.35    2.36
  -6  -4 -13    2.09    2.90
   6  -4  13    3.07    2.74
   6  -4  13    0.70    1.76
   6   4  13    0.83    2.42
  -8  -4 -13    3.81    2.77
  -8  -4 -13   -0.49    3.10
   8  -4  13    2.45    2.77
  -8  -4 -13    3.03    2.62
   8  -4  13   -2.31    1.93
   8  -4  13    1.14    1.97
  10  -4  13    5.10    2.35
 -10  -4 -13    4.37    3.66
 -10  -4 -13    5.80    2.89
 -10  -4 -13    3.05    2.98
  10  -4  13   11.97    3.57
  10  -4  13    5.34    2.55
  -5  -5  13    5.70    4.58
  -5   5  13    4.75    3.04
   5   5 -13    0.14    4.03
  -5   5  13    8.06    5.90
   5   5 -13    6.01    3.10
  -3  -5  13    2.18    3.41
  -3  -5  13    3.00    2.88
   3  -5 -13    0.00    2.05
  -3   5  13    3.13    3.35
  -3   5  13    1.04    2.82
   3   5 -13   -0.35    2.73
   3   5 -13    2.07    2.91
   1  -5 -13   11.18    3.64
  -1  -5  13    8.45    3.03
  -1  -5  13    6.47    2.73
   1  -5 -13   11.13    2.57
  -1  -5  13    9.62    3.90
   1   5 -13    4.24    3.07
  -1   5  13   12.41    3.71
  -1   5  13   10.34    3.20
  -1  -5 -13    6.29    2.44
  -1  -5 -13    6.66    3.36
   1  -5  13   10.73    3.12
   1  -5  13    5.65    2.63
   1  -5  13    6.64    3.78
   1   5  13   10.51    3.76
  -1   5 -13    7.86    3.10
   1   5  13   14.05    3.36
   3  -5  13    1.61    3.09
   3  -5  13    0.57    3.49
   3  -5  13    1.54    2.34
  -3  -5 -13   -2.42    2.88
  -3  -5 -13    1.33    2.73
  -3  -5 -13    0.10    3.09
   3   5  13   -1.34    3.12
  -5  -5 -13    2.43    3.54
  18   0 -14   47.69    6.19
  16   0 -14   22.84    4.41
  14   0 -14   16.15    3.67
  14   0 -14   20.92    2.74
 -12   0  14   30.27    2.74
  12   0 -14   37.87    3.31
  12   0 -14   32.11    3.97
  10   0 -14  167.59    7.76
 -10   0  14  167.28    6.56
  10   0 -14  163.98    6.76
  -8   0  14  207.00    7.65
   8   0 -14  214.32    8.61
   8   0 -14  204.60    7.90
  -6   0  14   75.90    3.80
   6   0 -14   91.66    4.72
   6   0 -14   81.29    4.29
   4   0 -14   41.27    3.14
   4   0 -14   41.95    3.02
  -4   0  14   34.54    2.54
  -4   0  14   28.78    3.07
   2   0 -14   55.53    3.20
  -2   0  14   52.34    3.71
  -2   0  14   52.30    3.07
   2   0 -14   52.72    3.35
   0   0 -14  273.10   10.08
   0   0 -14  272.23    9.70
   0   0  14  269.70    9.45
   0   0  14  272.79   10.62
   0   0  14  276.59    9.50
  -2   0 -14  252.56    9.12
   2   0  14  248.82    8.81
   4   0  14  189.49    7.10
  -4   0 -14  191.32    7.44
   6   0  14   57.25    3.24
  -6   0 -14   55.35    3.61
   8   0  14   12.10    1.71
  -8   0 -14   20.97    2.58
  10   0  14   32.76    2.68
 -10   0 -14   45.45    3.62
 -12   0 -14  101.02    5.45
  12   0  14  115.33    5.19
 -14   0 -14   98.70    7.42
 -19   1  14   -2.70    3.99
  19   1 -14    1.77    4.78
  17   1 -14   27.05    5.21
  17   1 -14   21.82    3.55
 -17   1  14   23.13    4.46
  15   1 -14   49.36    5.71
 -15   1  14   59.80    5.69
  15   1 -14   47.60    4.40
 -13   1  14   50.96    3.74
 -13   1  14   57.83    4.93
  13   1 -14   55.80    4.21
  13   1 -14   56.65    5.50
  11  -1 -14   19.48    2.34
 -11  -1  14   22.56    3.25
 -11   1  14   23.33    2.65
 -11   1  14   25.54    3.35
  11   1 -14   22.47    3.51
  11   1 -14   24.94    2.91
  -9  -1  14    1.70    1.33
  -9  -1  14    4.67    2.09
   9  -1 -14    1.75    1.60
  -9   1  14    4.73    1.64
  -9   1  14    2.44    1.86
   9   1 -14    4.64    2.28
   9   1 -14    2.97    1.75
   7  -1 -14   22.98    2.76
  -7  -1  14   25.39    3.13
   7  -1 -14   23.68    2.45
  -7  -1  14   21.41    2.19
   7   1 -14   23.37    3.08
  -7   1  14   29.55    2.90
   7   1 -14   25.35    2.64
  -7   1  14   25.92    2.55
  -5  -1  14  136.14    6.11
   5  -1 -14  121.93    5.27
  -5  -1  14  120.08    5.16
   5  -1 -14  124.39    5.70
  -5   1  14  118.21    5.21
   5   1 -14  124.93    5.98
   5   1 -14  117.73    5.40
  -5   1  14  121.18    5.46
  -3  -1  14  158.81    6.76
   3  -1 -14  143.24    6.06
   3  -1 -14  143.97    6.28
  -3  -1  14  149.76    5.98
   3   1 -14  150.20    6.50
  -3   1  14  150.99    6.07
   3   1 -14  147.42    6.13
  -3   1  14  138.20    5.90
  -1  -1  14  116.70    5.03
  -1  -1  14  109.97    4.78
  -1  -1  14  123.17    5.73
   1  -1 -14  126.17    5.65
   1  -1 -14  120.91    5.49
   1   1 -14  122.06    5.35
  -1   1  14  111.07    4.89
   1   1 -14  126.05    5.59
  -1   1  14  112.82    4.89
   1  -1  14   24.06    2.41
  -1  -1 -14   22.97    2.59
  -1  -1 -14   28.29    2.87
  -1  -1 -14   27.75    2.35
   1  -1  14   27.37    2.35
   1  -1  14   20.13    2.63
   1   1  14   20.92    2.13
   1   1  14   26.49    2.47
  -1   1 -14   22.60    2.39
  -1   1 -14   28.86    2.62
  -3  -1 -14   25.22    2.86
   3  -1  14   22.74    2.23
   3  -1  14   31.44    3.06
  -3  -1 -14   28.22    2.34
  -3  -1 -14   20.20    2.55
   3  -1  14   27.73    2.53
   3   1  14   24.82    2.35
  -3   1 -14   27.63    2.59
   3   1  14   28.40    2.55
  -3   1 -14   28.93    2.47
  -5  -1 -14   81.27    3.92
   5  -1  14   73.92    4.08
   5  -1  14   82.55    4.39
   5  -1  14   71.04    3.86
  -5  -1 -14   79.15    4.56
  -5  -1 -14   83.03    4.92
   5   1  14   73.71    3.89
  -5   1 -14   75.74    4.10
  -7  -1 -14   91.83    5.28
  -7  -1 -14  101.72    4.69
   7  -1  14   94.49    4.51
   7  -1  14   95.15    4.78
   7  -1  14   86.87    4.84
  -7  -1 -14  100.15    5.63
  -7   1 -14   96.91    4.75
   7   1  14   87.87    4.36
   9  -1  14   76.41    4.15
  -9  -1 -14   73.82    4.90
  -9  -1 -14   74.85    5.21
   9  -1  14   78.80    4.61
  -9  -1 -14   72.51    4.18
   9   1  14   79.62    4.10
  -9   1 -14   70.16    4.01
  11  -1  14   26.03    2.61
 -11  -1 -14   25.68    3.37
  11  -1  14   26.61    3.29
 -11  -1 -14   21.96    2.88
 -11   1 -14   24.78    3.35
 -13  -1 -14    6.11    2.46
  13  -1  14    5.09    1.86
 -13  -1 -14    6.14    2.64
  13  -1  14    7.95    2.92
 -15  -1 -14   10.62    2.89
  15  -1  14   14.33    3.55
 -15  -1 -14   16.29    3.31
 -17  -1 -14   25.15    4.04
  18   2 -14    0.57    3.21
 -18   2  14    2.41    4.70
 -16  -2  14    3.61    3.61
  16   2 -14    1.99    2.77
 -16   2  14    1.58    3.57
  16   2 -14    6.05    3.96
 -14  -2  14    1.70    2.94
 -14   2  14    2.24    2.00
 -14   2  14    4.01    3.20
  14   2 -14    0.88    2.33
  14   2 -14    1.01    3.11
 -12  -2  14    0.59    2.58
 -12   2  14    3.33    2.67
 -12   2  14    2.34    1.91
  12   2 -14    1.85    2.26
  12   2 -14    2.62    2.96
 -10  -2  14    0.38    2.11
  10  -2 -14    2.04    1.81
  10   2 -14    4.70    2.79
 -10   2  14    3.82    1.81
 -10   2  14    4.79    2.53
  10   2 -14    3.50    2.19
  -8  -2  14    8.76    1.79
   8  -2 -14    9.81    1.90
   8  -2 -14    7.22    2.05
  -8  -2  14   10.26    2.54
   8   2 -14    5.60    2.15
  -8   2  14   12.40    2.60
  -8   2  14    8.66    2.01
   8   2 -14   11.47    2.84
  -6  -2  14   10.07    2.28
  -6  -2  14    7.02    1.74
   6  -2 -14    7.26    1.82
   6  -2 -14    7.61    2.06
  -6   2  14    8.55    1.86
   6   2 -14    7.00    2.43
  -6   2  14    4.32    2.08
   6   2 -14    5.93    1.89
   4  -2 -14    1.24    1.59
  -4  -2  14    2.39    1.79
  -4  -2  14    2.22    1.47
   4  -2 -14    1.78    1.59
  -4   2  14    0.29    1.41
   4   2 -14    4.33    1.70
  -4   2  14    0.76    1.62
   4   2 -14    3.21    2.13
   2  -2 -14    3.37    1.70
   2  -2 -14    2.67    1.67
  -2  -2  14    2.99    1.82
  -2  -2  14    4.12    1.50
   2   2 -14    3.03    2.03
  -2   2  14    6.24    1.68
  -2   2  14    4.87    1.80
   2   2 -14    3.50    1.54
   0  -2 -14    2.97    1.82
   0  -2 -14    1.03    1.66
   0  -2 -14    4.30    1.80
   0  -2  14    0.89    1.38
   0  -2  14    4.24    1.76
   0  -2  14    3.89    1.77
   0   2  14    0.33    1.41
   0   2 -14    2.27    1.52
   0   2  14    1.39    1.47
   0   2 -14    4.68    1.87
   2  -2  14    9.97    1.81
   2  -2  14    5.17    1.91
   2  -2  14    6.87    1.93
  -2  -2 -14    5.41    2.13
  -2  -2 -14    6.52    2.11
  -2  -2 -14    7.57    1.88
  -2   2 -14    9.71    1.88
   2   2  14    6.45    1.84
   2   2  14    6.71    1.85
  -2   2 -14   10.32    2.09
   4  -2  14   10.26    2.23
  -4  -2 -14    7.27    1.84
   4  -2  14    7.77    1.75
  -4  -2 -14    6.02    2.16
  -4  -2 -14    5.80    2.14
   4  -2  14    6.60    1.97
  -4   2 -14    9.37    1.83
  -4   2 -14    7.46    1.92
   4   2  14    7.81    1.95
   4   2  14    5.71    1.80
  -6  -2 -14   14.61    2.67
  -6  -2 -14   11.30    2.62
   6  -2  14   10.32    1.91
   6  -2  14   11.50    2.22
   6  -2  14   13.25    2.60
  -6  -2 -14   11.18    2.20
   6   2  14    6.79    1.92
  -6   2 -14    8.80    1.89
  -8  -2 -14    1.56    2.24
   8  -2  14    3.21    2.16
  -8  -2 -14    1.35    2.21
  -8  -2 -14    3.54    1.86
   8  -2  14    0.98    1.51
   8  -2  14   -0.53    1.63
   8   2  14    2.03    1.61
 -10  -2 -14    6.36    2.78
  10  -2  14    3.91    1.98
 -10  -2 -14    1.91    2.51
 -10  -2 -14    1.98    2.00
  10  -2  14    7.19    2.65
  10  -2  14    2.98    1.75
 -12  -2 -14    4.82    2.87
 -12  -2 -14    3.14    2.35
  12  -2  14    2.24    1.85
  12  -2  14    3.21    2.63
 -12  -2 -14    4.53    2.82
 -14  -2 -14    2.90    2.72
  14  -2  14    1.84    1.95
 -14  -2 -14   -1.26    2.64
 -14  -2 -14    5.80    4.85
  14  -2  14    2.31    2.95
 -16  -2 -14    2.47    3.01
  16  -2  14    4.55    3.64
 -16  -2 -14    3.03    3.34
 -15  -3  14    9.76    4.09
  15   3 -14   10.59    4.20
 -15   3  14   12.81    4.25
 -15   3  14   16.06    3.29
  15   3 -14   17.15    4.16
 -13  -3  14   11.17    3.83
  13  -3 -14    8.80    2.57
  13   3 -14    9.20    3.73
  13   3 -14   11.75    3.39
 -13   3  14   14.76    4.02
 -13   3  14   12.98    2.91
 -11  -3  14    4.20    2.99
  11  -3 -14    2.03    2.07
  11   3 -14    3.94    2.65
  11   3 -14   -0.95    2.89
 -11   3  14    4.44    2.44
 -11   3  14   -0.45    2.83
  -9  -3  14    1.39    2.58
   9  -3 -14    0.35    1.81
   9   3 -14   -1.77    2.12
  -9   3  14    0.38    1.97
   9   3 -14    0.92    2.54
  -9   3  14    2.55    2.63
   7  -3 -14   25.97    3.03
  -7  -3  14   29.63    3.73
   7   3 -14   25.15    3.89
  -7   3  14   29.63    3.31
   7   3 -14   27.85    3.30
  -7   3  14   27.25    3.72
   5  -3 -14   18.19    2.69
  -5  -3  14   23.49    3.12
  -5  -3  14   23.65    2.60
   5  -3 -14   20.86    3.03
   5   3 -14   31.32    3.92
  -5   3  14   28.82    3.02
   5   3 -14   25.48    3.07
  -5   3  14   29.85    3.77
  -3  -3  14   35.53    3.22
  -3  -3  14   44.89    3.97
   3  -3 -14   27.99    3.03
   3  -3 -14   25.15    2.95
  -3   3  14   32.15    3.28
   3   3 -14   41.87    3.60
  -3   3  14   37.34    3.81
   3   3 -14   42.80    4.29
   1  -3 -14   21.06    2.72
  -1  -3  14   23.46    2.62
  -1  -3  14   33.71    3.41
  -1  -3  14   23.89    3.32
   1  -3 -14   16.36    2.60
  -1   3  14   26.09    3.38
   1   3 -14   25.22    3.28
   1   3 -14   27.11    2.88
  -1   3  14   23.04    2.90
   1  -3  14    4.28    1.96
  -1  -3 -14    3.80    1.98
   1  -3  14    2.84    1.71
   1  -3  14    4.18    2.20
  -1  -3 -14    3.32    2.14
  -1  -3 -14    5.15    2.22
   1   3  14    6.59    2.22
   1   3  14    2.61    1.88
  -1   3 -14    4.42    2.25
  -1   3 -14    2.34    1.63
   3  -3  14    1.97    1.63
  -3  -3 -14   -0.31    1.96
   3  -3  14    0.21    2.04
   3  -3  14    1.42    1.71
  -3  -3 -14    1.22    2.06
  -3  -3 -14    0.29    1.83
  -3   3 -14    1.26    1.92
   3   3  14    0.58    1.67
   3   3  14    3.30    2.16
  -3   3 -14    0.78    1.50
  -5  -3 -14   21.98    3.51
  -5  -3 -14   22.56    3.01
   5  -3  14   24.43    2.83
   5  -3  14   36.30    3.98
   5  -3  14   29.12    3.12
  -5  -3 -14   30.20    3.55
   5   3  14   30.38    3.11
   5   3  14   28.66    3.41
   7  -3  14   21.11    2.86
  -7  -3 -14   19.51    3.21
  -7  -3 -14   23.64    3.08
   7  -3  14   21.09    2.66
   7  -3  14   24.72    3.64
  -7  -3 -14   18.23    3.47
   9  -3  14   38.67    4.52
   9  -3  14   42.47    3.93
  -9  -3 -14   34.52    4.54
  -9  -3 -14   38.14    3.80
   9  -3  14   33.57    3.42
  -9  -3 -14   31.55    4.05
  11  -3  14    6.86    3.26
  11  -3  14    6.77    2.30
 -11  -3 -14   11.91    3.00
 -11  -3 -14    8.36    3.43
 -11  -3 -14    5.84    3.04
  11  -3  14    6.81    2.57
  13  -3  14    1.70    2.05
  13  -3  14    2.86    2.66
 -13  -3 -14   -0.09    3.17
 -13  -3 -14    2.03    2.65
 -13  -3 -14   -3.52    3.04
  13  -3  14    1.47    3.16
  12  -4 -14   14.21    3.06
  10  -4 -14   56.54    4.73
 -10  -4  14   40.62    5.11
  10   4 -14   55.68    5.28
  10   4 -14   40.14    5.37
 -10   4  14   55.67    5.00
 -10   4  14   56.59    5.99
  -8  -4  14   36.52    4.42
   8  -4 -14   35.35    3.73
   8   4 -14   32.31    4.80
  -8   4  14   45.60    4.37
  -8   4  14   53.93    5.65
   8   4 -14   44.12    4.55
  -6  -4  14   40.18    4.32
   6  -4 -14   43.50    3.94
   6   4 -14   38.69    4.18
  -6   4  14   45.09    4.94
   6   4 -14   39.26    5.00
  -6   4  14   37.02    4.03
   4  -4 -14    1.58    2.02
  -4  -4  14    6.50    3.09
  -4  -4  14    3.60    2.53
  -4   4  14    2.46    2.17
   4   4 -14    5.28    2.45
   4   4 -14    2.52    2.81
  -4   4  14    4.45    2.89
  -2  -4  14   21.20    3.18
   2  -4 -14   21.57    2.89
  -2  -4  14   19.80    3.69
  -2  -4  14   13.34    2.49
  -2   4  14   27.94    3.45
   2   4 -14   28.14    3.96
  -2   4  14   25.69    3.83
   2   4 -14   25.67    3.39
   0  -4 -14   44.02    4.44
   0  -4  14   41.87    4.63
   0  -4 -14   31.56    3.35
   0  -4  14   40.12    3.95
   0  -4 -14   29.42    3.68
   0  -4  14   30.75    3.34
   0   4  14   44.81    4.78
   0   4 -14   26.10    3.64
   0   4  14   38.29    3.80
   0   4 -14   38.27    3.69
   2  -4  14   78.90    5.15
   2  -4  14   89.59    5.66
  -2  -4 -14   91.73    5.74
  -2  -4 -14   73.22    5.05
   2  -4  14   95.23    6.38
   2   4  14  103.86    6.43
   2   4  14   83.72    5.50
  -2   4 -14   78.56    5.61
   4  -4  14   56.10    5.24
  -4  -4 -14   47.87    4.43
   4  -4  14   37.12    3.70
  -4  -4 -14   46.47    4.20
  -4  -4 -14   34.30    4.38
   4  -4  14   50.30    4.33
   4   4  14   42.85    4.28
   4   4  14   47.28    4.71
  -6  -4 -14   22.78    4.10
  -6  -4 -14   25.23    3.63
   6  -4  14   21.85    3.04
   6  -4  14   25.49    4.05
  -6  -4 -14   24.32    3.73
   6  -4  14   16.80    2.82
   6   4  14   26.99    3.92
   8  -4  14    7.86    3.35
  -8  -4 -14    1.00    3.17
   8  -4  14    7.00    2.54
  -8  -4 -14    6.39    3.01
   8  -4  14    5.27    2.34
  -8  -4 -14    5.76    2.98
  10  -4  14   17.57    4.22
  10  -4  14   26.14    3.62
  10  -4  14   30.73    5.24
 -10  -4 -14   19.78    4.21
 -10  -4 -14   21.43    3.95
   5   5 -14   28.05    4.39
  -3   5  14   32.97    4.55
  -1  -5  14   22.64    3.45
  -1   5  14   24.16    3.88
   1  -5  14    9.01    3.00
   1   5  14    8.75    3.35
  -3  -5 -14    7.86    3.88
  18   0 -15   -3.29    4.14
  16   0 -15    4.88    3.65
  14   0 -15    0.98    2.05
  14   0 -15    0.67    2.87
  12   0 -15   -1.28    1.64
  12   0 -15   -0.12    2.54
 -12   0  15   -1.53    1.49
  10   0 -15    0.82    2.34
 -10   0  15    0.14    1.42
  10   0 -15    2.19    1.77
  -8   0  15    0.73    1.46
   8   0 -15   -0.36    1.53
   8   0 -15    0.45    2.03
   6   0 -15    0.73    1.51
  -6   0  15    2.30    1.39
   4   0 -15   -0.45    1.42
  -4   0  15   -0.93    1.12
  -2   0  15    0.24    1.19
   2   0 -15   -0.76    1.38
   0   0  15    1.28    1.21
   0   0 -15    2.70    1.65
   2   0  15    0.15    1.28
  -2   0 -15   -0.24    1.45
   4   0  15    0.26    1.19
  -4   0 -15   -1.38    1.44
  -6   0 -15    1.35    1.54
   6   0  15    0.47    1.23
  -8   0 -15   -0.61    1.44
   8   0  15   -1.15    1.16
  10   0  15    1.23    1.39
 -10   0 -15    0.65    1.71
  12   0  15   -1.09    1.44
 -12   0 -15   -0.65    1.84
  17   1 -15   13.79    3.50
  17   1 -15   10.17    4.39
 -15   1  15   38.16    4.79
  15   1 -15   37.88    4.15
  15   1 -15   31.00    5.02
 -13   1  15    7.21    2.06
  13   1 -15    3.75    2.33
  13   1 -15    4.62    3.17
 -13   1  15    4.24    2.81
  11  -1 -15    7.93    1.99
 -11   1  15   11.71    2.17
  11   1 -15    5.66    2.83
  11   1 -15   14.29    2.69
 -11   1  15   13.06    2.80
   9  -1 -15    2.81    1.76
  -9  -1  15    2.09    2.04
  -9  -1  15    3.12    1.57
   9   1 -15    3.47    1.88
  -9   1  15    3.01    1.96
   9   1 -15    1.81    2.38
  -9   1  15    4.67    1.75
   7  -1 -15   89.89    4.53
  -7  -1  15   86.99    5.31
  -7  -1  15   73.62    4.02
   7   1 -15   88.52    4.74
  -7   1  15   77.31    4.27
  -7   1  15   90.90    4.78
   7   1 -15   87.82    5.39
  -5  -1  15   43.59    3.74
   5  -1 -15   46.44    3.64
   5  -1 -15   43.04    3.30
  -5  -1  15   33.20    2.87
  -5   1  15   40.90    3.25
   5   1 -15   51.92    4.02
   5   1 -15   41.87    3.34
  -5   1  15   36.49    2.91
  -3  -1  15   84.15    4.99
   3  -1 -15   94.63    4.85
   3  -1 -15   82.41    4.54
  -3  -1  15   79.07    4.20
   3   1 -15   92.72    4.98
  -3   1  15   94.73    4.36
  -3   1  15   78.25    4.15
   3   1 -15   87.75    4.63
  -1  -1  15   31.16    2.70
   1  -1 -15   36.30    3.16
   1  -1 -15   41.98    3.43
   1  -1 -15   38.51    2.78
  -1  -1  15   38.39    3.60
  -1  -1  15   33.57    2.78
  -1   1  15   28.90    2.61
  -1   1  15   33.42    2.70
   1   1 -15   37.56    3.05
   1   1 -15   37.70    3.19
  -1  -1 -15    9.69    2.22
   1  -1  15    9.14    1.65
  -1  -1 -15   10.33    1.63
  -1  -1 -15    7.76    1.92
   1  -1  15    9.22    1.80
   1  -1  15    8.40    2.00
  -1   1 -15    8.65    1.85
   1   1  15   10.54    1.81
   1   1  15   12.56    1.85
  -1   1 -15    7.00    1.76
   3  -1  15   20.15    2.38
  -3  -1 -15   16.86    2.49
   3  -1  15   18.44    2.12
  -3  -1 -15   22.56    3.03
  -3  -1 -15   19.47    2.06
   3  -1  15   21.08    2.80
   3   1  15   20.41    2.24
   3   1  15   20.01    2.20
  -3   1 -15   21.57    2.45
   5  -1  15   77.19    4.18
  -5  -1 -15   69.43    4.47
   5  -1  15   73.65    4.51
  -5  -1 -15   75.75    4.92
   5  -1  15   73.20    3.90
  -5  -1 -15   77.99    3.83
  -5   1 -15   67.00    4.07
   5   1  15   65.74    3.91
  -7  -1 -15  108.73    6.13
   7  -1  15  108.27    5.27
  -7  -1 -15  104.27    4.88
   7  -1  15  100.53    4.90
  -7  -1 -15  106.87    5.66
  -7   1 -15  109.27    5.21
   7   1  15  103.64    4.94
   9  -1  15   26.13    3.13
  -9  -1 -15   26.40    2.81
  -9  -1 -15   21.12    2.98
   9  -1  15   21.06    2.45
   9   1  15   23.00    2.52
  -9   1 -15   27.31    2.89
 -11  -1 -15    8.74    2.70
 -11  -1 -15   13.85    2.55
  11  -1  15   10.37    1.99
  11  -1  15   10.94    2.73
 -13  -1 -15    1.10    2.44
 -13  -1 -15   -0.03    2.25
  13  -1  15    1.41    1.83
 -15  -1 -15   33.16    4.00
 -15  -1 -15   28.42    4.06
 -17  -1 -15    9.38    5.38
 -16   2  15    3.04    3.85
  16   2 -15    0.82    2.92
  16   2 -15    5.38    4.10
 -14  -2  15   15.05    4.04
 -14   2  15   16.31    2.85
 -14   2  15   20.51    4.07
  14   2 -15    7.91    3.03
  14   2 -15   12.84    3.98
 -12  -2  15   51.49    5.35
  12   2 -15   51.18    5.56
  12   2 -15   56.58    4.70
 -12   2  15   46.84    4.11
 -12   2  15   56.54    5.37
  10  -2 -15   93.82    5.48
 -10  -2  15   95.81    6.38
  10   2 -15   97.71    5.57
 -10   2  15   99.37    6.01
 -10   2  15   79.26    4.93
  10   2 -15   86.73    6.36
   8  -2 -15   67.57    4.01
  -8  -2  15   68.32    3.89
  -8  -2  15   77.38    5.47
   8  -2 -15   75.84    4.64
  -8   2  15   61.84    4.16
   8   2 -15   69.08    4.63
  -8   2  15   70.94    5.10
   8   2 -15   63.47    5.47
  -6  -2  15   33.68    3.02
   6  -2 -15   25.80    2.64
  -6  -2  15   23.43    3.24
   6  -2 -15   25.46    2.94
   6   2 -15   27.58    3.03
  -6   2  15   32.74    3.54
   6   2 -15   29.89    3.69
  -6   2  15   27.44    2.82
  -4  -2  15   12.87    1.96
   4  -2 -15   13.04    2.19
   4  -2 -15   13.16    2.31
  -4  -2  15   14.60    2.63
   4   2 -15   10.94    2.74
   4   2 -15   13.92    2.26
  -4   2  15   12.57    2.40
  -4   2  15   12.09    2.18
  -2  -2  15   69.70    4.76
  -2  -2  15   68.52    3.91
   2  -2 -15   72.19    4.33
   2  -2 -15   72.99    4.51
   2   2 -15   76.09    4.85
   2   2 -15   72.88    4.20
  -2   2  15   77.65    4.52
  -2   2  15   67.49    4.09
   0  -2  15  152.29    6.44
   0  -2  15  158.92    6.90
   0  -2 -15  167.96    6.80
   0  -2  15  155.12    7.10
   0  -2 -15  158.47    7.04
   0   2  15  152.62    6.61
   0   2  15  166.94    6.90
   0   2 -15  161.02    7.12
   0   2 -15  153.95    6.67
   2  -2  15  150.32    6.81
   2  -2  15  142.58    6.52
  -2  -2 -15  154.43    6.37
   2  -2  15  134.67    6.06
  -2  -2 -15  142.98    6.75
  -2  -2 -15  150.77    6.99
   2   2  15  146.40    6.36
  -2   2 -15  148.15    6.37
   2   2  15  138.93    6.19
  -2   2 -15  148.76    6.64
   4  -2  15   99.21    5.38
  -4  -2 -15  100.31    5.67
  -4  -2 -15   91.69    5.45
  -4  -2 -15  101.50    4.91
   4  -2  15   90.90    4.76
   4  -2  15   98.42    5.33
  -4   2 -15   90.18    4.86
   4   2  15   90.09    4.80
   4   2  15   89.84    4.95
   6  -2  15    2.70    2.13
  -6  -2 -15    2.13    2.07
   6  -2  15   -0.40    1.69
   6  -2  15    0.73    1.47
  -6  -2 -15    3.36    1.84
  -6  -2 -15   -1.37    2.03
  -6   2 -15    3.69    1.73
   6   2  15    0.79    1.65
  -8  -2 -15   35.56    3.41
  -8  -2 -15   25.82    3.62
   8  -2  15   30.17    3.02
   8  -2  15   38.43    3.66
   8  -2  15   40.31    4.02
  -8  -2 -15   34.50    3.99
   8   2  15   26.56    3.02
 -10  -2 -15   71.07    4.66
  10  -2  15   65.87    5.18
 -10  -2 -15   67.28    5.61
  10  -2  15   61.71    4.20
 -10  -2 -15   62.29    5.46
 -12  -2 -15  102.02    6.87
  12  -2  15   95.91    5.45
  12  -2  15  108.18    6.41
 -12  -2 -15   98.36    6.94
 -12  -2 -15  105.40    6.08
 -14  -2 -15   47.09    4.62
 -14  -2 -15   46.91    5.22
  14  -2  15   46.81    4.12
  14  -2  15   51.47    5.40
  16  -2  15    7.92    4.96
 -15  -3  15   23.49    5.13
 -15   3  15   28.65    4.15
  13  -3 -15   44.20    4.60
 -13  -3  15   47.34    5.65
 -13   3  15   40.06    4.18
  13   3 -15   41.33    4.73
 -13   3  15   52.34    5.69
  13   3 -15   32.97    5.12
  11  -3 -15    4.50    2.43
 -11  -3  15    4.98    3.24
 -11   3  15    7.22    3.44
  11   3 -15    5.50    3.34
 -11   3  15    6.04    2.56
  11   3 -15    4.66    2.81
   9  -3 -15   14.53    2.67
  -9  -3  15    9.25    3.36
   9   3 -15   13.70    3.61
  -9   3  15   18.93    3.72
  -9   3  15   12.90    2.55
   9   3 -15   16.44    3.23
   7  -3 -15   17.96    2.77
  -7  -3  15   21.96    3.69
  -7   3  15   23.65    3.71
   7   3 -15   26.91    3.34
  -7   3  15   15.24    2.68
   7   3 -15   25.99    4.06
   5  -3 -15   94.00    5.40
  -5  -3  15   86.40    4.77
   5  -3 -15   84.02    6.23
  -5  -3  15   87.75    5.77
  -5   3  15   98.01    5.99
   5   3 -15   94.82    6.31
   5   3 -15   89.97    5.31
  -5   3  15   87.67    5.10
   3  -3 -15   50.95    4.14
  -3  -3  15   57.03    4.70
  -3  -3  15   49.62    3.81
   3  -3 -15   66.86    4.48
  -3  -3  15   55.41    4.64
  -3   3  15   69.03    5.04
   3   3 -15   65.22    4.40
   3   3 -15   57.77    5.05
  -3   3  15   51.16    4.10
  -1  -3  15   49.48    4.43
   1  -3 -15   34.65    3.47
  -1  -3  15   56.33    4.55
   1  -3 -15   41.27    3.81
  -1  -3  15   46.60    3.73
   1   3 -15   46.61    3.69
   1   3 -15   42.75    4.37
  -1   3  15   44.98    3.90
  -1   3  15   52.99    4.52
   1  -3  15   10.62    2.80
   1  -3  15    8.20    2.42
   1  -3  15    9.98    2.13
  -1  -3 -15    8.08    2.29
  -1  -3 -15    4.60    2.24
  -1  -3 -15   12.32    2.53
   1   3  15   12.35    2.50
   1   3  15    8.65    2.54
  -1   3 -15    9.57    2.23
  -1   3 -15    8.84    2.62
  -3  -3 -15   38.03    3.80
   3  -3  15   35.78    4.04
   3  -3  15   31.49    3.50
  -3  -3 -15   27.89    3.39
  -3  -3 -15   29.90    3.67
   3  -3  15   27.67    3.06
  -3   3 -15   30.04    3.47
   3   3  15   31.65    3.27
  -3   3 -15   32.73    3.17
   3   3  15   35.06    3.78
   5  -3  15   63.98    4.78
   5  -3  15   70.33    5.25
  -5  -3 -15   67.68    5.26
   5  -3  15   60.18    4.34
  -5  -3 -15   70.28    4.85
  -5  -3 -15   70.84    5.41
   5   3  15   69.55    4.96
   5   3  15   63.46    4.47
   7  -3  15   59.80    4.67
  -7  -3 -15   57.45    5.21
  -7  -3 -15   69.01    4.86
  -7  -3 -15   62.73    5.50
   7  -3  15   61.99    4.37
   7  -3  15   63.75    5.27
  -9  -3 -15   44.66    4.70
  -9  -3 -15   40.78    4.94
   9  -3  15   46.17    4.28
   9  -3  15   52.47    5.13
   9  -3  15   51.36    4.10
  -9  -3 -15   41.82    4.07
 -11  -3 -15    1.79    3.05
 -11  -3 -15    4.00    2.64
  11  -3  15    5.86    3.25
  11  -3  15    4.07    2.50
 -11  -3 -15    1.76    3.37
  11  -3  15    1.28    1.94
  13  -3  15   13.78    4.01
 -13  -3 -15   11.53    3.34
 -13  -3 -15    8.49    3.97
  13  -3  15    8.63    2.76
 -10  -4  15    7.37    4.20
  10  -4 -15    2.76    2.49
  10   4 -15    7.07    4.10
 -10   4  15    5.20    3.24
 -10   4  15   13.77    4.25
  10   4 -15    3.00    4.15
   8  -4 -15    9.97    2.82
  -8  -4  15   10.76    3.62
  -8   4  15   12.74    3.88
   8   4 -15    9.92    3.29
  -8   4  15    7.71    3.03
   8   4 -15    9.72    3.85
  -6  -4  15    6.55    3.17
   6  -4 -15    4.70    2.40
   6   4 -15    2.38    2.57
  -6   4  15    8.21    2.80
  -6   4  15    8.56    3.40
   6   4 -15    2.67    3.06
  -4  -4  15    2.25    3.01
  -4  -4  15    2.30    2.55
   4  -4 -15    1.34    2.19
   4   4 -15    4.65    2.59
  -4   4  15   -1.11    2.71
  -4   4  15    2.76    2.38
   4   4 -15    2.28    2.95
  -2  -4  15    1.32    2.84
  -2  -4  15    0.25    2.42
  -2  -4  15    1.67    2.03
   2  -4 -15    1.73    2.17
   2   4 -15    1.31    2.68
  -2   4  15    0.91    2.67
   2   4 -15    3.33    2.36
  -2   4  15    1.80    2.42
   0  -4 -15    0.87    2.24
   0  -4  15    5.45    2.69
   0  -4  15    2.52    2.12
   0  -4 -15    3.47    2.72
   0  -4 -15    2.42    2.50
   0  -4  15    2.81    2.92
   0   4  15    3.73    2.57
   0   4 -15    2.53    2.81
   0   4  15    1.29    2.68
   0   4 -15    2.05    2.23
  -2  -4 -15   11.63    2.82
  -2  -4 -15    9.83    3.21
   2  -4  15   20.00    3.97
   2  -4  15   25.08    3.53
   2  -4  15   12.69    2.72
  -2  -4 -15   16.27    3.39
  -2   4 -15   12.11    3.02
   2   4  15   24.26    3.89
   2   4  15   20.21    3.38
   4  -4  15    1.42    2.05
   4  -4  15    6.30    3.18
   4  -4  15    1.31    2.55
  -4  -4 -15    3.63    2.64
  -4  -4 -15    4.99    2.77
  -4  -4 -15    1.47    2.74
   4   4  15    2.96    2.93
   4   4  15    6.82    3.07
   6  -4  15    1.62    2.55
   6  -4  15    3.93    3.18
   6  -4  15    3.27    2.23
  -6  -4 -15    3.65    2.99
  -6  -4 -15    5.48    2.89
  -6  -4 -15    2.41    3.13
   6   4  15    4.42    2.99
   8  -4  15   -1.79    2.89
   8  -4  15    0.53    2.45
  -8  -4 -15    1.09    2.87
   8  -4  15    0.50    2.16
  -8  -4 -15    4.62    3.71
  -8  -4 -15   -0.34    2.79
  14   0 -16   36.14    3.57
 -12   0  16   38.33    3.40
  12   0 -16   44.64    3.82
  10   0 -16   70.34    4.38
 -10   0  16   70.29    4.09
   8   0 -16   80.29    4.58
  -8   0  16   80.36    4.30
   6   0 -16    9.04    2.07
  -6   0  16   13.80    2.01
  -4   0  16   47.86    3.21
   4   0 -16   54.22    3.75
   2   0 -16   84.83    4.58
  -2   0  16   87.44    4.34
   0   0  16  213.80    7.95
   0   0 -16  237.87    8.91
   2   0  16   76.83    4.05
  -2   0 -16   85.96    4.61
  -4   0 -16   50.57    3.64
   4   0  16   48.27    3.33
   6   0  16    0.69    1.41
  -6   0 -16    1.40    1.67
   8   0  16  103.68    5.05
  -8   0 -16  113.89    5.67
  10   0  16  111.79    5.40
 -10   0 -16  121.85    6.09
  12   0  16   83.19    4.68
 -12   0 -16   79.01    5.05
  17   1 -16   16.01    5.36
  17   1 -16   12.00    4.80
  15   1 -16   20.46    3.41
  15   1 -16   20.92    4.61
  13   1 -16   14.39    3.00
  13   1 -16   20.43    3.95
 -13   1  16   17.24    2.69
  11  -1 -16    8.22    2.10
  11   1 -16    7.01    2.42
  11   1 -16   12.38    3.29
 -11   1  16    9.48    2.19
  -9  -1  16   12.97    2.15
  -9  -1  16   15.62    3.55
   9  -1 -16   21.04    2.66
   9   1 -16   16.64    3.21
   9   1 -16   17.44    2.74
  -9   1  16   13.24    2.30
  -7  -1  16   43.55    3.26
  -7  -1  16   54.10    4.61
   7  -1 -16   52.57    3.70
  -7   1  16   51.10    4.29
   7   1 -16   57.18    3.95
   7   1 -16   56.53    4.68
  -7   1  16   49.58    3.53
  -5  -1  16   68.15    4.74
   5  -1 -16   68.05    4.17
  -5  -1  16   58.75    3.71
  -5   1  16   66.54    3.85
   5   1 -16   67.70    4.26
   5   1 -16   80.72    4.94
  -5   1  16   66.16    4.26
  -3  -1  16   60.26    3.70
   3  -1 -16   65.68    4.08
   3  -1 -16   60.53    4.51
  -3  -1  16   62.57    4.54
   3   1 -16   66.05    4.16
   3   1 -16   68.03    4.35
  -3   1  16   57.64    3.65
  -3   1  16   62.43    3.82
   1  -1 -16    9.25    2.28
   1  -1 -16   15.74    2.11
  -1  -1  16   16.51    2.19
  -1  -1  16   22.23    2.91
   1  -1 -16   16.33    2.33
  -1  -1  16   16.10    2.10
  -1   1  16   16.09    2.05
   1   1 -16   13.62    2.18
  -1   1  16   14.93    2.10
   1   1 -16   15.01    2.32
   1  -1  16   11.91    1.85
  -1  -1 -16   15.84    1.99
   1  -1  16   19.80    2.57
  -1  -1 -16   11.89    2.44
  -1  -1 -16   12.43    2.35
   1  -1  16   10.51    2.00
   1   1  16   10.01    1.83
  -1   1 -16   11.71    2.12
   1   1  16   12.90    2.00
  -1   1 -16   12.76    2.05
   3  -1  16   44.39    4.00
  -3  -1 -16   43.19    3.04
   3  -1  16   32.60    2.89
   3  -1  16   43.89    3.25
  -3  -1 -16   41.01    3.87
  -3  -1 -16   43.22    3.59
   3   1  16   35.09    3.01
  -3   1 -16   37.80    3.33
   3   1  16   46.61    3.22
  -5  -1 -16   71.55    6.33
  -5  -1 -16   85.77    5.06
   5  -1  16   90.80    4.67
   5  -1  16   84.05    4.43
  -5  -1 -16   93.64    4.50
  -5   1 -16   95.66    4.76
   5   1  16   83.53    4.47
   7  -1  16   77.51    4.33
  -7  -1 -16   86.19    5.15
  -7  -1 -16   82.96    4.49
   7  -1  16   81.34    5.32
  -7   1 -16   79.61    4.54
   7   1  16   79.09    4.38
  -9  -1 -16   18.20    2.96
  -9  -1 -16   17.81    2.98
   9  -1  16   15.34    2.27
   9   1  16   15.29    2.27
  -9   1 -16   18.15    2.66
 -11  -1 -16    2.35    2.33
 -11  -1 -16    0.16    3.49
  11  -1  16    2.90    1.80
 -13  -1 -16   13.98    3.17
  13  -1  16    8.90    2.28
 -15  -1 -16   33.56    4.22
  16   2 -16   -1.26    3.76
 -16   2  16    4.85    3.94
  16   2 -16    0.00    3.02
 -14  -2  16    4.53    3.48
 -14   2  16    2.41    2.35
  14   2 -16    5.49    2.92
  14   2 -16    2.74    3.60
 -14   2  16    0.73    3.25
 -12  -2  16    8.65    3.46
 -12   2  16   11.94    3.39
  12   2 -16    8.10    2.89
 -12   2  16    9.33    2.62
  12   2 -16    8.84    3.58
 -10  -2  16    5.62    2.99
 -10   2  16    3.17    2.06
  10   2 -16    6.55    3.23
  10   2 -16    5.69    2.61
 -10   2  16    9.52    2.96
  -8  -2  16    3.52    2.56
   8  -2 -16    3.36    1.88
   8  -2 -16    1.75    1.97
  -8  -2  16    3.46    1.86
  -8   2  16    4.88    2.49
   8   2 -16    2.93    2.66
   8   2 -16    1.22    2.18
  -8   2  16    3.58    2.03
  -6  -2  16    7.49    2.57
   6  -2 -16   10.57    2.45
  -6  -2  16   14.89    2.37
   6  -2 -16   17.52    2.41
   6   2 -16   11.32    2.42
   6   2 -16   18.52    3.36
  -6   2  16   14.30    2.39
  -6   2  16   11.08    2.57
  -4  -2  16    4.88    2.37
   4  -2 -16    2.74    1.83
   4  -2 -16    6.49    2.13
  -4  -2  16    1.45    1.65
   4   2 -16    5.77    2.13
  -4   2  16    4.03    1.83
  -4   2  16    3.73    2.02
   4   2 -16    6.43    2.56
  -2  -2  16    8.09    2.24
   2  -2 -16    5.27    2.01
  -2  -2  16    7.89    2.35
   2  -2 -16    6.50    2.11
  -2  -2  16    3.45    1.62
   2   2 -16    7.12    1.98
  -2   2  16    2.22    1.73
   2   2 -16    2.12    2.21
  -2   2  16    4.54    1.93
   0  -2 -16    2.55    1.96
   0  -2  16    4.49    2.08
   0  -2 -16   -0.07    1.91
   0  -2  16    4.43    2.14
   0  -2 -16    1.71    1.84
   0  -2  16    2.12    1.59
   0   2  16    0.69    1.72
   0   2  16    0.60    1.64
   0   2 -16    2.25    1.73
   0   2 -16    2.35    1.90
  -2  -2 -16   29.06    3.30
   2  -2  16   31.49    3.46
   2  -2  16   28.77    3.41
  -2  -2 -16   36.03    3.71
   2  -2  16   27.96    2.83
  -2  -2 -16   28.87    2.97
   2   2  16   34.85    3.30
  -2   2 -16   28.88    3.22
  -2   2 -16   32.35    3.10
   2   2  16   31.35    3.08
  -4  -2 -16    7.44    2.01
  -4  -2 -16    4.17    2.30
   4  -2  16    3.08    1.67
   4  -2  16    3.53    2.10
   4  -2  16    3.06    2.11
  -4  -2 -16    3.11    2.15
   4   2  16    1.51    1.75
  -4   2 -16    2.22    1.74
   4   2  16    3.21    1.86
  -6  -2 -16   -0.20    2.15
   6  -2  16    3.33    1.83
   6  -2  16    3.63    2.28
  -6  -2 -16    5.80    2.08
   6  -2  16    4.20    2.14
  -6  -2 -16    1.23    2.33
   6   2  16    2.50    1.90
  -6   2 -16    3.02    1.77
   8  -2  16   -1.25    1.97
  -8  -2 -16    2.17    2.47
  -8  -2 -16    2.71    1.95
   8  -2  16    0.70    2.22
  -8  -2 -16    2.95    2.63
   8  -2  16    0.65    1.68
   8   2  16    1.29    1.79
 -10  -2 -16    6.14    2.97
 -10  -2 -16    6.81    3.25
 -10  -2 -16   11.66    2.66
  10  -2  16    8.34    3.07
  10  -2  16   11.04    2.32
 -12  -2 -16    5.77    3.30
 -12  -2 -16    5.51    2.79
  12  -2  16    5.10    2.32
  12  -2  16    9.20    3.17
  14  -2  16   -0.34    3.15
  14  -2  16    1.35    2.25
 -14  -2 -16    0.94    3.18
 -14  -2 -16    2.55    3.09
 -13  -3  16    2.56    3.70
  13   3 -16    1.25    3.38
  13   3 -16    3.26    3.82
 -13   3  16    0.54    2.68
 -13   3  16   -0.07    3.49
  11  -3 -16    6.55    2.67
 -11  -3  16    4.22    3.44
  11   3 -16    5.48    3.06
 -11   3  16    3.65    2.48
 -11   3  16    6.29    3.49
  11   3 -16    4.31    3.44
  -9  -3  16    9.08    3.43
   9  -3 -16    5.06    2.41
   9   3 -16    8.66    3.57
   9   3 -16    7.27    2.79
  -9   3  16   11.03    2.85
  -9   3  16   10.56    3.48
  -7  -3  16   15.31    3.54
   7  -3 -16   16.25    2.80
  -7   3  16   15.49    2.90
  -7   3  16   17.07    3.50
   7   3 -16   20.30    3.27
   7   3 -16   13.50    3.60
  -5  -3  16    8.10    2.18
  -5  -3  16   10.23    2.90
   5  -3 -16    6.90    2.42
   5   3 -16   10.27    3.19
  -5   3  16    6.28    2.39
  -5   3  16   10.61    2.96
   5   3 -16    9.54    2.65
  -3  -3  16    7.41    2.73
   3  -3 -16    6.54    2.32
   3  -3 -16    8.25    2.42
  -3  -3  16    2.74    2.44
  -3  -3  16    4.77    2.01
   3   3 -16    8.03    2.45
  -3   3  16    6.82    2.74
  -3   3  16   12.87    2.66
   3   3 -16    8.61    2.93
  -1  -3  16    0.49    1.75
  -1  -3  16   -0.14    2.26
   1  -3 -16    0.63    2.01
   1  -3 -16   -0.81    2.07
  -1  -3  16    0.00    2.19
   1  -3 -16   -1.45    2.14
   1   3 -16    0.45    1.82
  -1   3  16    3.39    2.40
   1   3 -16    1.10    2.21
  -1   3  16    2.09    2.11
   1  -3  16   15.29    3.11
   1  -3  16   18.30    2.99
  -1  -3 -16   14.71    2.87
  -1  -3 -16    7.29    2.57
   1  -3  16   11.51    2.34
  -1  -3 -16   14.08    2.89
   1   3  16   13.57    2.75
  -1   3 -16   11.13    2.44
   1   3  16   17.34    3.14
  -1   3 -16   16.03    2.97
   3  -3  16   21.39    3.20
  -3  -3 -16   22.11    3.33
  -3  -3 -16   17.05    3.16
   3  -3  16   19.34    2.71
  -3  -3 -16   23.25    3.15
   3  -3  16   22.30    3.64
   3   3  16   17.65    2.82
   3   3  16   25.49    3.47
  -3   3 -16   22.28    2.89
  -3   3 -16   25.04    3.32
  -5  -3 -16   23.94    3.23
  -5  -3 -16   18.44    3.42
   5  -3  16   17.71    2.74
   5  -3  16   22.08    3.31
   5  -3  16   21.85    3.62
  -5  -3 -16   19.08    3.49
   5   3  16   20.13    3.07
   5   3  16   24.40    3.41
   7  -3  16   21.80    3.76
  -7  -3 -16   22.97    3.77
   7  -3  16   14.03    2.54
  -7  -3 -16   25.61    4.03
  -7  -3 -16   20.88    3.19
   7  -3  16   20.50    3.17
  -9  -3 -16    0.41    2.96
   9  -3  16    1.87    2.89
   9  -3  16   -1.06    1.90
  -9  -3 -16   -0.30    2.27
  -9  -3 -16    0.07    2.81
   9  -3  16   -0.18    2.22
 -11  -3 -16    3.53    2.95
  11  -3  16    4.05    2.72
 -11  -3 -16    5.76    3.67
  11  -3  16    3.86    2.38
 -11  -3 -16    1.09    3.19
  11  -3  16    3.78    3.41
  -8  -4  16    6.29    3.72
   8  -4 -16   12.07    3.07
   8   4 -16   12.50    3.53
   8   4 -16   11.71    4.01
  -8   4  16   16.56    3.45
  -8   4  16   13.50    3.96
  -6  -4  16   24.74    4.13
   6  -4 -16   13.55    2.93
   6   4 -16   15.30    3.97
  -6   4  16   19.30    3.58
   6   4 -16   16.93    3.48
  -6   4  16   21.74    4.15
  -4  -4  16   13.02    3.36
  -4  -4  16   16.38    3.94
   4  -4 -16    8.10    2.75
   4   4 -16    7.50    3.22
   4   4 -16   10.07    3.12
  -4   4  16    4.80    2.95
  -4   4  16   12.95    3.68
   2  -4 -16   43.55    4.20
  -2  -4  16   36.63    3.78
  -2  -4  16   43.01    4.66
  -2  -4  16   53.78    5.33
   2  -4 -16   56.65    5.13
   2   4 -16   56.05    4.72
  -2   4  16   40.47    4.76
   2   4 -16   37.66    4.74
  -2   4  16   39.25    4.37
   0  -4  16   38.82    4.77
   0  -4 -16   48.34    4.78
   0  -4  16   27.07    3.38
   0  -4  16   26.47    3.85
   0  -4 -16   22.73    3.69
   0  -4 -16   29.22    3.63
   0   4 -16   37.45    3.91
   0   4 -16   28.92    4.13
   0   4  16   36.26    4.53
   0   4  16   35.36    4.07
   2  -4  16   62.45    5.83
  -2  -4 -16   63.57    5.30
   2  -4  16   40.34    4.28
   2  -4  16   45.78    4.54
  -2  -4 -16   36.96    4.34
  -2  -4 -16   47.64    4.57
   2   4  16   60.63    5.75
  -2   4 -16   55.93    5.19
   2   4  16   57.84    5.01
  -4  -4 -16    6.53    3.05
   4  -4  16   11.22    3.70
   4  -4  16    6.42    2.66
  -4  -4 -16   12.48    3.26
  -4  -4 -16    5.19    3.12
   4  -4  16    7.39    3.10
   4   4  16   13.07    3.56
   6  -4  16   21.58    4.21
   6  -4  16   18.29    3.49
  -6  -4 -16   14.84    3.49
  -6  -4 -16   14.81    3.59
  -6  -4 -16    6.06    3.64
   6  -4  16   12.33    2.82
  14   0 -17   -0.42    2.31
 -12   0  17    0.81    2.30
  12   0 -17   -0.15    2.06
 -10   0  17    0.37    1.74
  10   0 -17   -0.43    1.90
   8   0 -17    0.65    1.80
  -8   0  17   -0.49    1.49
   6   0 -17    1.65    1.91
  -6   0  17    0.24    1.41
   4   0 -17   -1.08    1.62
  -4   0  17   -1.41    1.34
   2   0 -17   -2.30    1.55
  -2   0  17   -0.85    1.32
   0   0  17    1.14    1.43
   0   0 -17    0.06    1.65
   2   0  17   -0.83    1.32
  -2   0 -17   -0.51    1.63
  -4   0 -17   -0.80    1.61
   4   0  17    3.31    1.52
   6   0  17    0.06    1.53
  -6   0 -17   -0.58    1.64
  -8   0 -17    0.10    1.92
   8   0  17    1.86    1.68
 -10   0 -17   -1.17    1.85
  10   0  17    0.34    1.79
 -12   0 -17    0.45    2.27
  12   0  17   -1.09    1.91
  17   1 -17    3.44    4.53
  15   1 -17   12.90    3.35
  15   1 -17   23.07    4.58
 -13   1  17    5.70    2.34
  13   1 -17    5.03    2.67
  13   1 -17    6.10    3.44
  11  -1 -17   23.15    2.86
  11   1 -17   25.02    3.30
 -11   1  17   20.12    2.81
  11   1 -17   21.04    3.83
  -9  -1  17    1.78    1.74
   9  -1 -17   -0.25    1.81
   9   1 -17    0.93    2.62
   9   1 -17    4.87    2.33
  -9   1  17    0.06    1.81
  -7  -1  17   34.00    3.03
   7  -1 -17   32.77    3.20
   7   1 -17   41.03    3.67
   7   1 -17   40.83    4.12
  -7   1  17   31.30    3.10
  -5  -1  17   14.32    2.19
   5  -1 -17   15.79    2.53
  -5  -1  17   12.67    2.70
  -5   1  17   13.86    2.23
   5   1 -17   12.75    2.45
   5   1 -17   16.85    2.91
   3  -1 -17   29.31    3.05
  -3  -1  17   32.27    2.92
  -3  -1  17   27.14    3.32
   3   1 -17   30.61    3.35
  -3   1  17   39.19    3.27
   3   1 -17   31.80    3.19
  -1  -1  17   13.79    2.14
  -1  -1  17   10.11    2.10
   1  -1 -17    8.50    2.18
  -1  -1  17    8.90    2.44
   1   1 -17    5.91    2.47
   1   1 -17   16.42    2.44
  -1   1  17    7.35    1.78
   1  -1  17   25.13    3.64
   1  -1  17   28.68    4.52
   1  -1  17   22.23    2.51
  -1  -1 -17   22.73    2.91
  -1   1 -17   25.51    2.83
   1   1  17   26.47    2.56
  -3  -1 -17   53.36    4.10
   3  -1  17   48.85    3.35
  -3   1 -17   62.61    4.04
   3   1  17   48.19    3.42
   5  -1  17   12.47    2.07
  -5  -1 -17   14.67    2.72
  -5   1 -17   20.16    2.65
   5   1  17   14.98    2.23
   7  -1  17   37.65    3.32
  -7  -1 -17   36.82    3.76
  -7   1 -17   36.27    3.36
   7   1  17   37.83    3.31
  -9  -1 -17    1.32    2.31
   9  -1  17    0.09    1.64
   9   1  17    1.10    1.73
  -9   1 -17   -1.10    1.69
  11  -1  17   17.24    2.71
 -11  -1 -17   15.81    3.24
  13  -1  17    5.45    2.22
 -13  -1 -17    9.25    3.11
 -15  -1 -17   25.03    4.26
 -14   2  17   14.10    4.03
 -14   2  17   10.51    2.95
  14   2 -17   11.68    3.53
  14   2 -17    9.32    4.03
 -12  -2  17   20.15    4.31
  12   2 -17   23.35    4.53
 -12   2  17   21.93    3.29
  12   2 -17   15.27    3.40
 -12   2  17   14.45    3.76
 -10  -2  17   54.28    5.49
  10   2 -17   47.27    4.51
  10   2 -17   50.87    5.45
 -10   2  17   56.69    5.32
 -10   2  17   43.53    4.02
   8  -2 -17   30.66    3.18
  -8  -2  17   32.74    4.24
  -8  -2  17   34.66    4.23
  -8   2  17   38.91    3.75
   8   2 -17   29.93    4.17
   8   2 -17   34.08    3.70
  -8   2  17   48.69    4.68
  -6  -2  17   21.15    3.52
   6  -2 -17   20.52    2.71
   6  -2 -17   22.22    3.17
  -6  -2  17   19.17    2.62
  -6   2  17   26.35    3.46
  -6   2  17   29.34    3.15
   6   2 -17   25.50    3.11
   6   2 -17   18.09    3.52
  -4  -2  17   31.09    3.71
  -4  -2  17   28.91    2.92
   4  -2 -17   32.01    3.16
   4  -2 -17   32.48    3.58
   4   2 -17   26.37    3.17
  -4   2  17   28.45    3.34
  -4   2  17   24.23    2.98
   4   2 -17   31.49    3.88
  -2  -2  17   60.73    4.40
  -2  -2  17   52.89    4.84
   2  -2 -17   53.19    4.11
   2  -2 -17   57.50    4.39
  -2  -2  17   45.29    3.57
  -2   2  17   57.29    4.23
   2   2 -17   52.98    3.94
  -2   2  17   41.46    3.67
   2   2 -17   47.70    4.44
   0  -2 -17  106.44    5.32
   0  -2 -17  105.54    5.87
   0  -2  17  100.50    5.56
   0  -2  17   94.42    6.11
   0  -2 -17   97.91    5.51
   0  -2  17   88.64    4.95
   0   2  17  104.06    5.41
   0   2 -17   97.01    5.51
   0   2 -17  103.92    5.41
   0   2  17   92.61    5.16
  -2  -2 -17   36.71    3.74
   2  -2  17   32.08    3.71
   2  -2  17   33.09    3.07
  -2  -2 -17   32.21    3.68
  -2  -2 -17   42.38    3.57
   2  -2  17   43.26    4.04
  -2   2 -17   40.87    3.61
  -2   2 -17   41.72    3.65
   2   2  17   37.07    3.51
   2   2  17   36.32    3.49
   4  -2  17   21.94    2.74
   4  -2  17   19.71    3.13
   4  -2  17   27.29    3.33
  -4  -2 -17   14.91    2.95
  -4  -2 -17   21.43    3.54
  -4  -2 -17   19.11    2.67
  -4   2 -17   19.49    2.73
   4   2  17   22.20    2.93
   4   2  17   19.09    2.68
   6  -2  17   18.34    3.13
  -6  -2 -17   16.59    2.65
   6  -2  17    8.99    2.15
   6  -2  17   13.05    2.84
  -6  -2 -17   11.49    2.87
  -6  -2 -17   12.63    3.17
   6   2  17    9.09    2.37
  -6   2 -17   15.98    2.59
  -8  -2 -17   70.92    5.89
  -8  -2 -17   81.70    5.73
   8  -2  17   67.21    4.61
   8  -2  17   81.44    5.51
  -8  -2 -17   72.53    4.76
   8   2  17   70.45    4.70
  10  -2  17   62.83    5.39
 -10  -2 -17   51.34    5.15
 -10  -2 -17   69.98    4.89
  10  -2  17   60.83    4.53
 -12  -2 -17   36.43    4.13
 -12  -2 -17   29.89    4.43
  12  -2  17   39.38    4.89
  12  -2  17   26.29    3.33
 -14  -2 -17   14.41    3.61
  14  -2  17    7.01    3.17
 -13  -3  17   19.50    5.64
 -13   3  17   23.11    4.91
  11  -3 -17    0.23    3.12
 -11  -3  17   -1.12    3.35
  11   3 -17    6.62    3.93
  11   3 -17   -0.48    2.91
 -11   3  17   -2.32    2.28
 -11   3  17    0.84    3.35
  -9  -3  17   19.31    4.18
   9  -3 -17   18.57    3.20
   9   3 -17   23.46    4.52
   9   3 -17   20.23    3.62
  -9   3  17   25.34    4.30
  -9   3  17   17.83    3.21
  -7  -3  17   23.47    4.08
   7  -3 -17   13.77    2.91
   7   3 -17   28.63    3.87
  -7   3  17   28.19    4.13
  -7   3  17   12.06    2.96
   7   3 -17   28.21    4.30
   5  -3 -17   72.71    5.30
  -5  -3  17   68.41    5.82
  -5  -3  17   65.21    4.50
  -5   3  17   85.34    5.75
   5   3 -17   65.58    5.05
  -5   3  17   63.43    4.84
   5   3 -17   67.17    5.88
   3  -3 -17   40.63    3.96
   3  -3 -17   37.08    3.68
  -3  -3  17   50.78    4.80
  -3  -3  17   39.31    4.48
  -3  -3  17   40.35    3.59
   3   3 -17   43.97    4.77
   3   3 -17   49.53    4.37
  -3   3  17   44.97    4.19
  -3   3  17   48.84    4.66
  -1  -3  17   10.55    3.05
  -1  -3  17   12.45    3.10
   1  -3 -17    4.48    2.47
  -1  -3  17    9.15    2.30
   1  -3 -17    3.94    2.38
   1  -3 -17    9.93    2.80
   1   3 -17    9.88    2.60
  -1   3  17    9.34    2.59
   1   3 -17    5.80    2.70
  -1   3  17    8.82    2.74
   1  -3  17    8.65    2.29
   1  -3  17    9.07    3.03
   1  -3  17   11.61    2.99
  -1  -3 -17   14.76    2.90
  -1  -3 -17    5.69    2.63
  -1  -3 -17    9.77    2.84
  -1   3 -17    6.07    2.66
   1   3  17   14.56    3.00
   1   3  17    8.64    2.63
  -1   3 -17   11.64    2.62
  -3  -3 -17   33.16    4.02
  -3  -3 -17   34.66    3.81
   3  -3  17   39.01    4.43
  -3  -3 -17   27.75    3.70
   3  -3  17   34.35    4.12
   3  -3  17   34.15    3.47
  -3   3 -17   33.57    3.75
  -3   3 -17   37.81    3.70
   3   3  17   38.97    3.89
   3   3  17   32.12    3.86
  -5  -3 -17   91.44    5.54
  -5  -3 -17   72.81    5.80
   5  -3  17   78.77    6.03
   5  -3  17   92.94    6.38
  -5  -3 -17   75.31    6.12
   5  -3  17   78.97    5.11
   5   3  17   77.00    5.42
   5   3  17   83.69    5.82
  -7  -3 -17   16.85    3.61
  -7  -3 -17   24.24    3.39
   7  -3  17   27.90    4.08
  -7  -3 -17   16.35    3.76
   7  -3  17   20.75    3.08
   7  -3  17   21.21    3.65
   9  -3  17   23.07    4.16
  -9  -3 -17   22.95    3.51
   9  -3  17   15.68    3.48
  -9  -3 -17   15.96    4.05
  -9  -3 -17   19.63    3.95
   9  -3  17   19.81    3.02
 -11  -3 -17    1.56    3.06
 -11  -3 -17    0.02    3.40
  11  -3  17    1.45    3.49
  -6  -4  17    0.14    3.31
  -6  -4  17   -1.80    3.27
   6  -4 -17    1.93    2.55
  -6   4  17    2.47    3.46
   6   4 -17   -1.06    2.84
   6   4 -17    3.26    3.56
  -6   4  17    1.27    3.16
   4  -4 -17   -0.40    2.51
  -4  -4  17    2.99    3.48
  -4  -4  17    4.34    3.16
  -4   4  17    1.49    3.22
   4   4 -17    1.29    3.10
   4   4 -17    5.14    3.02
  -4   4  17    2.91    2.85
   2  -4 -17    9.61    3.06
  -2  -4  17   12.12    3.70
   2  -4 -17   17.73    3.78
  -2  -4  17   12.08    2.85
  -2  -4  17   12.73    3.85
  -2   4  17   12.20    3.37
   2   4 -17   10.05    3.53
  -2   4  17   14.98    3.95
   2   4 -17   15.42    3.30
   0  -4  17    7.07    3.59
   0  -4 -17    3.89    2.88
   0  -4  17    6.66    2.68
   0  -4 -17   10.05    3.00
   0  -4 -17   12.67    3.59
   0  -4  17    8.96    3.39
   0   4 -17    5.42    3.10
   0   4  17    9.62    3.25
   0   4  17   12.88    3.69
   0   4 -17   13.23    3.18
   2  -4  17   21.44    4.35
   2  -4  17   10.68    2.93
  -2  -4 -17   17.01    3.64
  -2  -4 -17   11.33    3.55
   2  -4  17   22.66    3.97
  -2  -4 -17   23.47    3.87
  -2   4 -17   21.28    3.67
   2   4  17   20.72    3.79
   2   4  17   25.65    4.17
   4  -4  17    4.97    3.37
  -4  -4 -17    6.87    3.16
   4  -4  17   -0.51    2.34
   4  -4  17    5.83    3.67
  -4  -4 -17    3.50    3.02
  -4  -4 -17    1.24    3.20
   4   4  17    4.31    3.17
  14   0 -18    4.65    3.04
  12   0 -18   42.36    4.05
  10   0 -18   75.11    4.85
 -10   0  18   80.51    4.78
   8   0 -18   57.35    4.24
  -8   0  18   56.33    3.99
   6   0 -18    4.74    2.23
  -6   0  18    9.70    2.10
  -4   0  18   42.58    3.29
   4   0 -18   61.56    4.19
  -2   0  18   31.17    2.93
   2   0 -18   32.61    3.18
   0   0 -18  128.32    6.00
   0   0  18  110.38    5.25
  -2   0 -18   24.97    2.99
   2   0  18   30.06    2.90
  -4   0 -18   37.33    3.45
   4   0  18   45.77    3.48
   6   0  18   13.04    2.26
  -6   0 -18   19.41    2.74
   8   0  18   68.78    4.38
  -8   0 -18   80.81    5.02
 -10   0 -18   48.73    4.47
  10   0  18   46.16    4.00
 -12   0 -18   13.24    3.00
  12   0  18   16.19    3.02
  15   1 -18   28.42    4.17
 -13   1  18   16.40    3.05
  13   1 -18   17.93    3.48
  11  -1 -18    1.26    2.14
  11   1 -18    1.54    2.37
 -11   1  18   -0.19    2.03
   9  -1 -18    8.58    2.51
  -9  -1  18    9.05    2.21
   9   1 -18    7.61    2.58
  -9   1  18    8.47    2.43
   7  -1 -18   45.65    3.92
  -7  -1  18   46.46    3.67
   7   1 -18   51.37    4.15
  -7   1  18   51.11    3.89
  -5  -1  18   36.37    3.31
   5  -1 -18   34.92    3.37
  -5   1  18   36.03    3.23
   5   1 -18   38.87    3.66
   3  -1 -18   32.19    3.28
  -3  -1  18   33.59    3.05
  -3   1  18   32.29    3.14
   3   1 -18   34.14    3.44
   1  -1 -18   11.93    2.49
  -1  -1  18   11.82    2.26
  -1   1  18   16.21    2.27
   1   1 -18   10.95    2.35
  -1  -1 -18   16.85    2.66
   1  -1  18    9.10    2.04
  -1   1 -18   14.77    2.44
   1   1  18    8.55    2.07
  -3  -1 -18   35.62    3.52
   3  -1  18   42.77    3.35
   3   1  18   36.07    3.23
  -3   1 -18   40.50    3.61
   5  -1  18   43.23    3.50
  -5  -1 -18   31.75    3.52
  -5   1 -18   48.97    3.85
   5   1  18   41.91    3.47
  -7  -1 -18   24.76    3.27
   7  -1  18   19.27    2.57
  -7   1 -18   23.53    2.96
   7   1  18   26.34    2.94
  -9  -1 -18    6.10    2.62
   9  -1  18    1.85    1.87
   9   1  18    8.99    2.22
  -9   1 -18    6.40    2.34
 -11  -1 -18   15.97    3.27
  11  -1  18   13.30    2.63
  13  -1  18   15.15    2.85
 -13  -1 -18   12.51    3.47
 -14   2  18   -0.01    2.64
  14   2 -18    1.77    4.14
 -12   2  18    4.01    2.61
  12   2 -18    4.22    3.07
  12   2 -18    6.86    3.83
 -10  -2  18    7.55    3.59
  10   2 -18    6.47    2.94
  10   2 -18    7.87    3.55
 -10   2  18    5.28    2.49
  -8  -2  18    3.63    3.04
   8  -2 -18    2.23    2.48
  -8   2  18    3.02    2.92
   8   2 -18    0.69    2.42
   8   2 -18    1.49    3.03
  -8   2  18    1.33    1.98
  -6  -2  18    1.77    2.69
   6  -2 -18    1.68    2.09
  -6  -2  18    1.89    1.94
   6   2 -18    2.68    2.25
  -6   2  18    2.10    2.02
  -6   2  18    1.85    2.41
   6   2 -18   -0.41    2.57
   4  -2 -18    5.58    2.29
  -4  -2  18   12.80    3.15
   4  -2 -18    7.48    2.64
  -4  -2  18   10.19    2.42
  -4   2  18   10.48    2.52
   4   2 -18   11.48    2.72
  -4   2  18   11.07    2.68
   4   2 -18   14.54    3.09
   2  -2 -18   17.56    2.86
   2  -2 -18    9.60    2.45
  -2  -2  18    9.99    2.31
  -2  -2  18   14.56    3.04
   2  -2 -18   15.30    2.74
  -2  -2  18   14.35    2.93
   2   2 -18   14.23    2.90
  -2   2  18   13.66    2.66
  -2   2  18   13.81    2.60
   2   2 -18   12.34    2.51
   0  -2  18    2.75    2.49
   0  -2 -18   -0.23    2.28
   0  -2  18    0.39    1.70
   0  -2 -18    0.97    2.14
   0  -2  18   -0.17    2.08
   0  -2 -18    2.27    2.07
   0   2  18   -0.80    1.85
   0   2  18    0.63    1.93
   0   2 -18   -0.99    1.81
   0   2 -18    2.19    2.22
   2  -2  18   14.24    3.02
   2  -2  18   18.88    3.17
  -2  -2 -18    7.17    2.59
   2  -2  18   10.12    2.23
  -2  -2 -18   13.86    2.48
  -2  -2 -18   12.53    3.00
  -2   2 -18    9.25    2.44
  -2   2 -18   13.91    2.64
   2   2  18   14.43    2.72
   2   2  18   16.36    2.65
   4  -2  18    4.51    2.46
  -4  -2 -18    3.84    2.20
  -4  -2 -18    5.28    2.52
   4  -2  18    5.61    2.69
  -4  -2 -18    6.84    2.81
   4  -2  18    1.90    1.87
  -4   2 -18    3.21    2.15
   4   2  18    8.83    2.47
  -6  -2 -18    1.83    2.81
  -6  -2 -18    3.42    2.56
   6  -2  18    0.09    1.74
  -6  -2 -18    4.04    2.23
   6  -2  18    1.39    2.30
  -6   2 -18    3.12    2.23
   6   2  18    2.90    2.17
  -8  -2 -18    2.43    2.57
  -8  -2 -18    0.61    2.60
   8  -2  18    4.37    2.08
   8  -2  18    1.70    2.65
   8   2  18    0.45    2.24
 -10  -2 -18    5.97    3.21
  10  -2  18    6.20    2.37
 -10  -2 -18    5.21    3.91
  12  -2  18    8.43    2.83
 -12  -2 -18   11.31    5.92
 -11  -3  18   12.41    4.46
 -11   3  18   14.48    4.26
  11   3 -18    6.78    4.24
  -9  -3  18   -1.38    3.31
   9  -3 -18    0.02    2.40
   9   3 -18   -0.03    2.86
  -9   3  18    3.10    2.78
  -9   3  18    1.27    3.09
   9   3 -18    0.15    3.46
   7  -3 -18    2.89    2.43
  -7  -3  18    5.58    3.51
   7   3 -18    2.44    3.30
   7   3 -18    0.08    2.70
  -7   3  18    5.05    3.28
  -7   3  18    2.77    2.48
  -5  -3  18   11.53    3.52
   5  -3 -18    4.24    2.63
  -5  -3  18    4.47    2.38
   5   3 -18    6.68    2.95
   5   3 -18    7.62    3.47
  -5   3  18   10.17    2.86
  -5   3  18   11.67    3.39
   3  -3 -18    7.75    2.70
  -3  -3  18   16.16    3.64
   3  -3 -18    8.55    2.89
  -3  -3  18   11.71    2.52
  -3  -3  18   18.32    3.56
   3   3 -18   16.50    3.18
  -3   3  18   16.96    3.02
   3   3 -18   21.16    3.77
  -3   3  18   19.83    3.52
   1  -3 -18    3.61    2.51
  -1  -3  18    3.23    2.07
  -1  -3  18    4.16    2.88
   1  -3 -18    7.04    2.85
  -1  -3  18   10.96    3.28
   1  -3 -18    8.75    2.80
  -1   3  18    5.58    2.70
   1   3 -18    2.83    2.37
  -1   3  18    8.69    3.05
   1   3 -18    7.81    2.87
   1  -3  18    7.58    2.38
   1  -3  18    7.17    3.03
  -1  -3 -18    3.57    2.67
  -1  -3 -18   12.32    2.84
  -1  -3 -18    8.10    3.08
   1  -3  18    7.74    3.08
  -1   3 -18    4.52    2.48
   1   3  18    5.96    2.84
   1   3  18    7.11    2.82
  -1   3 -18    6.35    2.82
  -3  -3 -18   11.93    2.85
  -3  -3 -18   11.64    3.18
   3  -3  18   12.15    3.33
   3  -3  18   14.37    3.38
  -3  -3 -18    9.09    3.14
   3  -3  18    6.22    2.42
   3   3  18    8.96    2.86
   3   3  18    7.57    2.89
  -3   3 -18    8.15    2.69
   5  -3  18    0.80    2.94
  -5  -3 -18    4.28    2.67
  -5  -3 -18    2.42    2.79
  -5  -3 -18    2.79    3.04
   5  -3  18    3.26    2.28
   5  -3  18   -1.78    2.56
   5   3  18    0.37    2.50
  -7  -3 -18    8.49    3.62
   7  -3  18    7.12    2.51
  -7  -3 -18    4.56    3.19
   7  -3  18   12.09    3.50
  -7  -3 -18    6.78    2.77
   7  -3  18    7.86    3.22
  -9  -3 -18    1.84    3.46
   9  -3  18    1.57    3.16
  -9  -3 -18    1.25    2.89
   9  -3  18    3.40    3.41
   4  -4 -18    7.99    3.18
  -4   4  18    4.11    3.71
   4   4 -18    2.51    3.15
   4   4 -18    2.80    5.40
  -2  -4  18   40.17    5.86
   2  -4 -18   31.94    4.21
  -2  -4  18   30.84    5.38
  -2  -4  18   29.09    3.62
   2  -4 -18   37.93    4.90
  -2   4  18   22.97    4.30
  -2   4  18   35.25    5.01
   2   4 -18   35.38    4.32
   2   4 -18   31.80    4.82
   0  -4  18   19.66    4.71
   0  -4 -18   15.56    3.65
   0  -4  18   19.59    3.37
   0  -4 -18   18.83    3.71
   0  -4  18   23.65    4.42
   0  -4 -18   26.37    4.34
   0   4 -18   24.61    4.22
   0   4  18   26.88    4.57
   0   4 -18   22.10    4.33
   0   4  18   23.13    3.98
   2  -4  18   17.24    4.59
  -2  -4 -18   10.01    3.63
  -2  -4 -18   22.22    4.24
   2  -4  18   17.41    5.58
   2   4  18   16.85    3.92
   2   4  18   20.33    4.35
  -2   4 -18    7.60    3.83
  12   0 -19   -1.54    2.35
  10   0 -19   -0.43    2.21
 -10   0  19    0.43    1.97
   8   0 -19    0.30    2.08
  -8   0  19    0.63    1.83
  -6   0  19   -0.25    1.75
   6   0 -19   -0.57    2.05
   4   0 -19   -0.23    1.95
  -4   0  19    0.13    1.56
  -2   0  19    0.62    1.65
   2   0 -19   -3.07    1.69
   0   0 -19    0.63    1.91
   0   0  19    0.86    1.71
   2   0  19   -0.18    1.51
  -2   0 -19    0.73    1.87
   4   0  19   -1.29    1.56
  -4   0 -19   -0.05    1.99
  -6   0 -19    1.43    2.06
   6   0  19    0.02    1.75
  -8   0 -19   -1.67    2.04
   8   0  19   -0.57    1.80
 -10   0 -19   -2.33    2.17
  10   0  19   -1.96    1.92
 -12   0 -19   -0.36    2.48
  12   0  19   -0.26    3.16
 -13   1  19    1.20    2.63
  13   1 -19    0.07    2.81
  11  -1 -19    5.40    2.95
  11   1 -19    3.20    2.74
 -11   1  19    1.29    2.27
   9  -1 -19    5.05    2.41
  -9  -1  19    3.90    2.21
   9   1 -19    4.01    2.55
  -9   1  19    9.41    2.59
   7  -1 -19   43.93    3.97
  -7  -1  19   42.13    3.68
   7   1 -19   45.47    4.13
  -7   1  19   45.72    3.93
   5  -1 -19   28.45    3.25
  -5  -1  19   21.29    2.75
   5   1 -19   28.74    3.44
  -5   1  19   22.74    2.83
  -3  -1  19   25.97    2.95
   3  -1 -19   23.53    2.99
   3   1 -19   26.84    3.27
  -3   1  19   26.55    3.06
  -1  -1  19   21.28    2.72
   1  -1 -19   21.33    2.98
  -1   1  19   19.35    2.70
   1   1 -19   19.54    2.86
   1  -1  19   10.81    2.35
  -1  -1 -19   15.05    2.77
  -1   1 -19   18.42    2.86
   1   1  19   13.99    2.38
  -3  -1 -19   27.07    3.33
   3  -1  19   24.16    2.94
  -3   1 -19   29.56    3.37
   3   1  19   17.05    2.56
   5  -1  19   16.22    2.53
  -5  -1 -19    7.77    2.57
   5   1  19   17.74    2.57
  -5   1 -19   10.24    2.51
   7  -1  19   46.06    3.81
  -7  -1 -19   36.14    4.00
  -7   1 -19   41.06    3.83
   7   1  19   32.40    3.48
  -9  -1 -19    3.46    2.63
   9  -1  19    3.07    2.09
  -9   1 -19   -3.30    1.93
   9   1  19   -0.56    1.90
 -11  -1 -19   16.23    3.53
  11  -1  19    8.78    2.64
  13  -1  19    1.91    2.53
  12   2 -19   47.60    5.85
  12   2 -19   41.38    4.99
 -12   2  19   48.22    4.78
 -10   2  19   42.80    4.27
  10   2 -19   46.80    5.60
  10   2 -19   57.05    5.25
  -8  -2  19   32.81    4.71
   8   2 -19   38.15    4.20
   8   2 -19   39.81    4.92
  -8   2  19   36.04    3.93
  -6  -2  19    3.29    2.16
  -6  -2  19    4.49    3.07
   6  -2 -19   -0.42    2.09
   6   2 -19    1.58    2.93
  -6   2  19    2.90    2.28
   6   2 -19    3.58    2.46
   4  -2 -19   21.75    3.03
  -4  -2  19   19.90    3.32
  -4  -2  19   19.09    2.84
  -4  -2  19   21.31    3.62
   4   2 -19   20.49    3.23
  -4   2  19   18.82    2.96
   4   2 -19   23.83    3.80
  -2  -2  19   55.59    4.33
  -2  -2  19   51.27    4.97
  -2  -2  19   62.47    4.87
   2  -2 -19   47.94    4.31
  -2   2  19   56.48    4.34
   2   2 -19   61.06    4.80
   2   2 -19   51.51    4.36
   0  -2  19   65.97    4.53
   0  -2 -19   68.88    6.24
   0  -2 -19   56.70    4.83
   0  -2  19   78.24    5.31
   0  -2  19   75.17    6.11
   0   2 -19   71.30    5.07
   0   2 -19   69.71    4.78
   0   2  19   73.22    4.85
   2  -2  19   33.24    3.29
   2  -2  19   34.30    4.31
  -2  -2 -19   28.11    3.54
   2  -2  19   42.41    4.39
  -2  -2 -19   30.20    4.86
   2   2  19   35.62    3.67
  -2   2 -19   36.73    4.86
  -2   2 -19   34.99    3.61
  -4  -2 -19   23.95    3.45
   4  -2  19   19.57    2.83
   4   2  19   20.41    3.04
  -4   2 -19   22.08    3.18
   6  -2  19   13.25    2.66
  -6  -2 -19   19.91    3.43
   6   2  19   15.46    2.90
  -6   2 -19   20.28    3.25
  -8  -2 -19   24.81    3.92
   8  -2  19   24.12    3.12
   8   2  19   19.73    3.70
  10  -2  19   27.22    3.37
 -10  -2 -19   36.10    4.78
  -9  -3  19   19.46    4.83
  -9   3  19   28.26    4.51
   9   3 -19   24.96    4.98
  -7  -3  19   20.46    4.37
   7  -3 -19   19.16    3.60
   7   3 -19   28.21    4.17
  -7   3  19   31.10    4.57
   7   3 -19   29.66    4.82
  -7   3  19   18.83    3.44
  -5  -3  19   48.59    4.24
   5  -3 -19   29.89    4.11
  -5  -3  19   46.01    5.41
  -5  -3  19   55.28    5.47
  -5   3  19   51.00    5.12
   5   3 -19   45.32    5.24
  -5   3  19   41.59    4.39
   5   3 -19   49.90    4.84
   3  -3 -19    4.38    2.85
   3  -3 -19   15.04    3.01
  -3  -3  19   11.54    3.67
  -3  -3  19   16.19    3.76
  -3  -3  19   10.06    2.69
   3  -3 -19   21.45    3.69
   3   3 -19   18.42    3.77
   3   3 -19   17.82    3.37
  -3   3  19   15.99    3.21
  -3   3  19   15.76    3.63
  -1  -3  19    4.85    2.32
  -1  -3  19    7.28    3.22
   1  -3 -19    6.08    2.91
   1  -3 -19   11.20    3.09
  -1  -3  19    8.47    3.30
   1  -3 -19    5.92    2.87
  -1   3  19    8.56    3.23
   1   3 -19    6.25    3.01
   1   3 -19    6.48    2.82
  -1   3  19    8.02    2.93
   1  -3  19    7.30    2.60
  -1  -3 -19    7.50    2.99
  -1  -3 -19   15.84    3.52
   1  -3  19   10.30    3.50
   1  -3  19   17.37    3.83
  -1  -3 -19   21.41    3.43
  -1   3 -19   16.75    3.12
   1   3  19   10.49    3.12
   1   3  19   13.30    3.25
  -1   3 -19   19.96    3.44
   3  -3  19   43.36    4.84
  -3  -3 -19   27.22    4.26
   3  -3  19   33.26    3.80
  -3  -3 -19   36.54    4.60
   3  -3  19   41.60    4.76
  -3  -3 -19   51.95    4.71
  -3   3 -19   42.00    4.27
   3   3  19   38.93    4.38
   3   3  19   41.90    4.39
  -5  -3 -19   52.98    4.82
   5  -3  19   50.03    5.21
   5  -3  19   54.76    5.40
  -5  -3 -19   41.77    4.96
  -5  -3 -19   39.55    4.80
   5  -3  19   40.48    4.00
   5   3  19   41.07    4.50
   7  -3  19   10.58    3.80
   7  -3  19   15.73    3.92
  -7  -3 -19    6.92    3.96
  -7  -3 -19    6.84    3.04
  12   0 -20   36.20    4.13
 -10   0  20   37.91    3.71
  10   0 -20   36.49    3.98
   8   0 -20   34.62    3.70
  -8   0  20   36.79    3.58
   6   0 -20   12.15    2.91
  -6   0  20   11.22    2.41
  -4   0  20   41.44    3.58
   4   0 -20   39.12    3.85
   2   0 -20   89.64    5.32
  -2   0  20   76.69    4.61
   0   0  20  137.64    6.37
   0   0 -20  142.68    6.84
  -2   0 -20   37.76    3.64
   2   0  20   35.21    3.36
   4   0  20   23.41    2.98
  -4   0 -20   22.01    3.08
   6   0  20    8.44    2.35
  -6   0 -20    7.85    2.52
   8   0  20   46.77    4.23
  -8   0 -20   54.81    4.71
  10   0  20   65.28    4.88
 -10   0 -20   66.97    5.21
 -12   0 -20   21.47    3.66
  13   1 -20    1.36    3.14
 -13   1  20   -0.26    2.64
 -11   1  20    9.06    2.84
  11   1 -20    5.23    3.01
  -9  -1  20   16.76    2.93
   9  -1 -20   17.99    3.15
  -9   1  20   19.94    3.14
   9   1 -20   15.97    3.38
  -7  -1  20   36.89    3.61
   7  -1 -20   37.96    3.89
  -7   1  20   43.30    3.95
   7   1 -20   40.07    4.03
  -5  -1  20   49.51    4.08
   5  -1 -20   45.23    4.17
   5   1 -20   48.70    4.40
  -5   1  20   44.10    3.98
   3  -1 -20   10.99    2.70
  -3  -1  20   12.84    2.46
   3   1 -20   15.51    2.85
  -3   1  20   12.18    2.46
  -1  -1  20   -0.48    1.80
   1  -1 -20   -1.30    1.94
  -1   1  20   -0.58    1.77
   1   1 -20    1.87    2.18
   1  -1  20   37.14    3.51
  -1  -1 -20   30.50    3.57
  -1   1 -20   36.70    3.68
   1   1  20   36.01    3.49
   3  -1  20   50.21    4.12
  -3   1 -20   51.44    4.32
   3   1  20   46.46    3.87
  -5  -1 -20   28.35    3.58
   5  -1  20   30.03    3.31
  -5   1 -20   29.05    3.43
   5   1  20   25.14    3.04
  -7  -1 -20   16.60    3.24
   7  -1  20   14.59    2.85
  -7   1 -20   17.01    3.10
   7   1  20   22.15    2.95
   9  -1  20    6.05    2.57
  -9  -1 -20    9.47    3.18
  -9   1 -20    4.62    2.65
   9   1  20    4.66    2.41
  11  -1  20    2.90    2.48
 -11  -1 -20    3.86    3.83
 -10   2  20    3.65    2.88
  10   2 -20    3.24    3.25
   8   2 -20    6.16    3.19
  -8   2  20    5.92    2.84
   6  -2 -20    2.50    2.35
  -6  -2  20    3.86    2.30
  -6   2  20    1.58    2.38
   6   2 -20    1.48    2.52
   4  -2 -20    2.28    2.37
  -4  -2  20    0.77    2.11
  -4  -2  20   -0.08    3.79
   4   2 -20    2.75    2.54
  -4   2  20    0.61    2.17
  -2  -2  20   14.14    2.82
  -2  -2  20   10.67    4.08
   2  -2 -20   18.84    3.14
   2   2 -20   19.17    3.09
  -2   2  20   12.08    2.80
   0  -2  20    0.92    2.01
   0  -2 -20    1.12    2.40
   0   2  20    2.57    2.33
   0   2 -20    2.00    2.37
   2  -2  20    0.59    1.92
  -2  -2 -20    1.88    2.59
   2   2  20    2.32    2.37
  -2   2 -20   -0.12    2.18
   4  -2  20   -1.91    1.87
  -4  -2 -20   -0.66    2.47
   4   2  20   -0.55    2.22
  -4   2 -20    0.77    2.33
   6  -2  20   12.43    2.82
  -6  -2 -20   17.05    3.51
   6   2  20   16.66    3.11
  -6   2 -20   18.87    3.31
  -8  -2 -20    4.87    3.28
   8  -2  20    2.01    2.42
  -7  -3  20   31.97    5.24
   7   3 -20   37.28    5.47
  -5  -3  20    2.97    3.58
  -5  -3  20   11.57    3.83
   5  -3 -20   13.06    3.50
  -5  -3  20    8.07    2.96
   5   3 -20    7.00    3.77
  -5   3  20    9.16    5.13
  -5   3  20    6.44    3.40
   5   3 -20    8.95    3.56
  -3  -3  20    5.76    3.38
   3  -3 -20    8.68    3.95
   3  -3 -20    4.07    3.00
  -3  -3  20    3.96    2.65
   3  -3 -20    6.13    2.96
  -3  -3  20    7.19    3.71
  -3   3  20    5.86    3.02
  -3   3  20    0.75    3.20
   3   3 -20    3.48    3.20
   3   3 -20    6.13    3.12
  -1  -3  20    3.01    3.31
   1  -3 -20    5.02    3.62
  -1  -3  20    4.77    3.35
   1  -3 -20   -0.42    2.74
  -1  -3  20    5.20    2.47
   1  -3 -20    2.45    3.07
   1   3 -20    2.88    3.08
  -1   3  20    6.15    3.33
   1   3 -20    3.75    2.85
  -1   3  20    4.11    2.88
   1  -3  20    3.86    3.43
  -1  -3 -20    5.11    3.28
  -1  -3 -20    9.91    3.74
   1  -3  20    4.77    2.63
   1  -3  20   11.03    3.80
  -1  -3 -20    7.10    3.17
  -1   3 -20    4.73    2.91
   1   3  20    5.45    3.21
   1   3  20    5.86    3.08
  -1   3 -20    1.86    2.81
   3  -3  20    3.72    3.41
  -3  -3 -20    1.57    3.08
  -3  -3 -20    3.42    3.32
   3  -3  20    3.13    3.37
   3  -3  20    1.88    2.31
  -3  -3 -20    5.39    3.76
   3   3  20    2.86    3.08
  -3   3 -20    4.00    2.99
   3   3  20    4.64    3.07
  -5  -3 -20   20.04    4.23
   5  -3  20   20.11    4.22
   5  -3  20   18.89    4.24
   5   3  20   13.48    3.65
  12   0 -21    0.79    2.90
  10   0 -21    0.85    2.73
 -10   0  21   -1.62    2.36
  -8   0  21   -2.48    2.01
   8   0 -21   -0.15    2.33
   6   0 -21    1.14    2.51
  -6   0  21   -1.07    2.06
  -4   0  21    0.54    2.01
   4   0 -21    1.52    2.45
   2   0 -21    1.99    2.34
  -2   0  21   -1.27    1.74
   0   0 -21    0.33    2.28
   0   0  21    0.09    1.76
  -2   0 -21   -0.74    2.14
   2   0  21    1.73    1.99
  -4   0 -21    3.05    2.37
   4   0  21    0.18    1.90
  -6   0 -21   -0.16    2.32
   6   0  21   -1.14    1.97
   8   0  21   -2.36    2.04
  -8   0 -21   -0.42    2.53
  10   0  21   -1.50    2.33
 -10   0 -21    2.58    3.00
 -11   1  21   16.29    3.42
  11   1 -21   27.53    4.97
  -9  -1  21    4.41    2.63
   9  -1 -21    4.53    2.84
   9   1 -21    9.60    3.25
  -9   1  21    7.04    2.81
   7  -1 -21   39.56    4.09
  -7  -1  21   42.57    3.96
   7   1 -21   49.49    4.63
  -7   1  21   40.45    4.04
   5  -1 -21   25.52    3.47
  -5  -1  21   20.11    3.00
  -5   1  21   25.29    3.28
   5   1 -21   30.56    3.80
  -3  -1  21   -0.26    1.91
   3  -1 -21    4.02    2.56
   3   1 -21    2.07    2.45
  -3   1  21    3.13    2.15
  -1  -1  21    0.31    1.99
   1  -1 -21    0.07    2.26
  -1   1  21    2.65    2.20
   1   1 -21   -0.93    2.35
   1  -1  21   26.38    3.12
  -1  -1 -21   23.79    3.49
  -1   1 -21   31.88    3.71
   1   1  21   27.81    3.27
   3  -1  21   51.41    4.40
  -3  -1 -21   43.90    4.29
  -3   1 -21   48.51    4.49
   3   1  21   58.35    4.42
   5  -1  21   17.68    2.99
  -5  -1 -21   12.12    3.04
  -5   1 -21   18.29    3.16
   5   1  21   14.37    2.67
  -7  -1 -21   10.63    3.32
   7  -1  21   13.57    2.92
  -7   1 -21   16.95    3.22
   7   1  21    6.71    2.50
   9  -1  21   -0.88    2.59
  -9  -1 -21    1.99    3.73
  -9   1 -21    4.99    2.79
   9   1  21    1.93    2.41
  -8   2  21   -1.05    2.60
   8   2 -21    1.45    3.78
   6  -2 -21    8.92    2.97
  -6  -2  21   10.71    2.93
   6   2 -21    8.94    3.25
  -6   2  21   14.01    3.09
   4  -2 -21   57.89    4.92
  -4  -2  21   54.46    4.78
   4   2 -21   63.23    5.29
  -4   2  21   63.54    4.98
  -2  -2  21   41.96    4.09
   2  -2 -21   44.50    4.40
  -2   2  21   48.63    4.36
   2   2 -21   58.63    4.94
   0  -2 -21   57.68    5.05
   0  -2  21   55.65    4.80
   0   2 -21   52.41    4.86
   0   2  21   56.58    4.79
  -2  -2 -21    6.78    3.08
   2  -2  21    9.51    2.70
   2   2  21    6.76    2.85
  -2   2 -21   14.53    3.09
  -4  -2 -21   11.62    3.38
   4  -2  21    5.32    2.49
   4   2  21    5.97    2.90
  -4   2 -21   13.28    3.12
   6  -2  21   14.16    3.45
  -6  -2 -21   14.97    5.06
  -6   2 -21   28.99    3.84
   6   2  21   17.86    3.46
  -5  -3  21   21.68    6.03
   5   3 -21    9.13    4.10
   3  -3 -21    2.40    3.03
  -3  -3  21    4.41    3.06
  -3  -3  21    3.89    3.92
  -3  -3  21    9.00    3.89
   3   3 -21    4.47    3.50
   1  -3 -21    3.79    3.96
  -1  -3  21    8.32    3.86
  -1  -3  21    1.83    4.17
  -1  -3  21    3.23    3.75
   1  -3 -21    6.45    3.27
   1   3 -21    9.33    4.05
   1   3 -21    9.92    3.51
   1  -3  21   28.75    4.97
   1  -3  21   24.44    4.95
  -1  -3 -21   17.05    4.25
  -1   3 -21   25.33    4.00
  -3  -3 -21   16.22    4.81
  -3   3 -21   32.86    5.82
 -10   0  22    4.07    2.83
  10   0 -22   -0.67    3.10
  -8   0  22    7.00    2.82
   8   0 -22    4.04    2.91
   6   0 -22   38.60    4.32
  -6   0  22   28.34    3.75
   4   0 -22  101.26    6.19
  -4   0  22   87.13    5.50
   2   0 -22   39.94    4.18
  -2   0  22   28.51    3.25
   0   0  22   28.38    3.33
   0   0 -22   26.22    3.51
  -2   0 -22    1.22    2.43
   2   0  22    0.00    2.07
  -4   0 -22   20.30    3.37
   4   0  22   21.22    3.10
  -6   0 -22   44.26    4.47
   6   0  22   48.80    4.36
   8   0  22   56.92    5.17
   9  -1 -22   28.99    4.07
  -9  -1  22   22.56    3.60
  -9   1  22   27.97    3.98
   7  -1 -22   23.52    3.83
  -7  -1  22   23.65    3.45
   7   1 -22   28.31    4.10
  -7   1  22   22.74    3.49
  -5  -1  22    4.34    2.49
   5  -1 -22    6.64    2.91
  -5   1  22    1.49    2.33
   5   1 -22    5.41    2.94
   3  -1 -22    5.15    2.72
  -3  -1  22    4.92    2.43
   3   1 -22    3.92    2.78
  -3   1  22    1.89    2.38
   1  -1 -22   15.56    3.19
  -1  -1  22   12.40    2.80
   1   1 -22   18.60    3.50
  -1   1  22   15.13    2.85
   1  -1  22   18.63    3.05
  -1  -1 -22   21.49    3.41
  -1   1 -22   27.06    3.58
   1   1  22   21.73    3.01
   3  -1  22   32.53    3.63
  -3  -1 -22   32.25    4.00
   3   1  22   34.63    3.79
  -3   1 -22   39.03    4.07
   5  -1  22   21.78    3.41
  -5  -1 -22   21.18    3.57
   5   1  22   18.50    3.18
  -5   1 -22   23.36    3.62
  -7   1 -22    0.96    2.74
   7   1  22    1.90    2.55
  -6  -2  22    1.63    2.67
   6  -2 -22    0.93    2.83
  -4  -2  22   -0.49    2.47
   4  -2 -22   -2.58    2.61
   4   2 -22   -0.76    3.23
  -4   2  22    0.43    3.08
   2  -2 -22    4.98    2.95
  -2  -2  22    3.01    2.66
   2   2 -22    4.51    2.96
  -2   2  22    2.82    2.65
   0  -2 -22   -0.31    2.81
   0  -2  22   -1.63    2.40
   0   2  22    0.69    2.73
   0   2 -22   -0.45    2.59
   2  -2  22    4.38    3.22
  -2  -2 -22    2.73    3.47
   2   2  22    3.08    2.71
  -2   2 -22    4.09    2.82
   4   2  22    4.17    2.96
  -4   2 -22    0.41    2.67
  -8   0  23    1.02    4.16
   6   0 -23    2.26    3.11
  -6   0  23   -0.01    2.46
  -4   0  23    1.47    2.46
   4   0 -23    1.46    2.99
  -2   0  23    0.47    2.37
   2   0 -23   -0.30    2.71
   0   0 -23    0.26    2.62
   0   0  23    1.93    2.12
  -2   0 -23   -0.34    2.66
   2   0  23    1.83    2.38
   4   0  23   -0.18    2.58
  -4   0 -23    1.58    4.61
  -7  -1  23    1.86    3.19
   5  -1 -23    1.81    2.95
  -5  -1  23   -0.25    2.43
  -5   1  23    0.74    4.55
  -3  -1  23    6.24    2.85
   3  -1 -23    8.65    3.16
   3   1 -23    8.86    3.52
  -3   1  23    3.48    2.76
   1  -1 -23   10.47    3.28
  -1  -1  23   14.63    3.20
  -1   1  23   13.16    3.07
   1   1 -23   11.02    3.49
  -1  -1 -23   17.61    3.88
   1  -1  23   17.90    3.42
   1   1  23   18.22    3.35
  -1   1 -23   22.33    3.90
   3   1  23    7.78    3.61
  -3   1 -23   18.85    3.80
   0   0   0    0.00    0.00
;
_shelx_hkl_checksum              7467
_shelx_res_file
;
TITL Berry838_b.res in Cc
    berry838.res
    created by SHELXL-2018/3 at 09:48:02 on 31-May-2020
REM Old TITL Berry838 in Cc
REM SHELXT solution in Cc
REM R1 0.040, Rweak 0.011, Alpha 0.014, Orientation as input
REM Flack x = 0.023 ( 0.012 ) from Parsons' quotients
REM Formula found by SHELXT: C8 N S2 Cu I
CELL 0.71073 15.1743 4.1188 15.7853 90 92.977 90
ZERR 4 0.005 0.0016 0.0057 0 0.021 0
LATT -7
SYMM +X,-Y,0.5+Z
SFAC C H Cu I N S
UNIT 32 20 4 4 4 8
EQIV $1 +X,1-Y,-0.5+Z
L.S. 20
PLAN  1
SIZE 0.01 0.016 0.297
TEMP -173.15
MPLA C1 C2 C7 C8 N1
MPLA C2 C3 C4 C5 C6 C7
CONF
HTAB N1 I1_$1
BOND $H
LIST 4
MORE -1
fmap 2
acta 50
REM <olex2.extras>
REM <HklSrc "%.\\Berry838.hkl">
REM </olex2.extras>
WGHT    0.041700    7.016300
FVAR       0.10253
I1    4    0.689570    0.109313    0.749740    11.00000    0.01311    0.01109 =
         0.01686   -0.00077   -0.00081   -0.00093
CU1   3    0.594913    0.599233    0.691637    11.00000    0.01552    0.01619 =
         0.01220   -0.00098    0.00044   -0.00075
S1    6    0.607475    0.660737    0.549961    11.00000    0.01413    0.01498 =
         0.01243   -0.00111    0.00027    0.00006
S2    6    0.465502    0.275727    0.250276    11.00000    0.01321    0.01852 =
         0.01201   -0.00172   -0.00018   -0.00111
N1    5    0.545047    0.477374    0.396919    11.00000    0.01441    0.01372 =
         0.01188    0.00056    0.00130    0.00059
AFIX  43
H1    2    0.587624    0.579000    0.371951    11.00000   -1.20000
AFIX   0
C1    1    0.538162    0.469962    0.484990    11.00000    0.01184    0.01183 =
         0.01298    0.00156    0.00019    0.00276
C2    1    0.459560    0.269061    0.497470    11.00000    0.01189    0.00852 =
         0.01694   -0.00043    0.00152    0.00556
C3    1    0.419665    0.181215    0.571203    11.00000    0.01428    0.01334 =
         0.01672    0.00086    0.00196    0.00220
AFIX  43
H3    2    0.442699    0.252848    0.625113    11.00000   -1.20000
AFIX   0
C4    1    0.344803   -0.015189    0.563931    11.00000    0.01000    0.01772 =
         0.01699    0.00158    0.00271    0.00108
AFIX  43
H4    2    0.316667   -0.082004    0.613403    11.00000   -1.20000
AFIX   0
C5    1    0.310634   -0.115271    0.482818    11.00000    0.01204    0.01823 =
         0.01885    0.00130   -0.00312   -0.00184
AFIX  43
H5    2    0.259718   -0.249734    0.478913    11.00000   -1.20000
AFIX   0
C6    1    0.349306   -0.022729    0.409347    11.00000    0.01077    0.01086 =
         0.01661    0.00085   -0.00143   -0.00009
AFIX  43
H6    2    0.325668   -0.090075    0.355269    11.00000   -1.20000
AFIX   0
C7    1    0.424363    0.173271    0.417244    11.00000    0.01454    0.00919 =
         0.01403    0.00147    0.00199    0.00237
C8    1    0.479535    0.312255    0.353849    11.00000    0.01137    0.01256 =
         0.01175    0.00011    0.00226    0.00317
HKLF 4
REM  Berry838_b.res in Cc
REM wR2 = 0.089009, GooF = S = 1.05617, Restrained GooF = 1.05587 for all data
REM R1 = 0.036024 for 3226 Fo > 4sig(Fo) and 0.042898 for all 3603 data
REM 118 parameters refined using 2 restraints
END
WGHT      0.0417      7.0162
REM Highest difference peak  3.174,  deepest hole -1.131,  1-sigma level  0.218
Q1    1   0.6899 -0.0888  0.7334  11.00000  0.05    3.17
;
_shelx_res_checksum              44794
loop_
_space_group_symop_operation_xyz
'x, y, z'
'x, -y, z+1/2'
'x+1/2, y+1/2, z'
'x+1/2, -y+1/2, z+1/2'
loop_
_atom_site_type_symbol
_atom_site_label
_atom_site_fract_x
_atom_site_fract_y
_atom_site_fract_z
_atom_site_U_iso_or_equiv
_atom_site_adp_type
_atom_site_calc_flag
_atom_site_occupancy
_atom_site_disorder_assembly
_atom_site_disorder_group
I I1 0.68957(2) 0.10931(10) 0.74974(2) 0.01374(11) Uani d 1 . .
Cu Cu1 0.59491(6) 0.5992(2) 0.69164(6) 0.0146(2) Uani d 1 . .
S S1 0.60747(14) 0.6607(5) 0.54996(12) 0.0139(3) Uani d 1 . .
S S2 0.46550(14) 0.2757(5) 0.25028(12) 0.0146(3) Uani d 1 . .
N N1 0.5450(5) 0.4774(16) 0.3969(4) 0.0133(12) Uani d 1 . .
H H1 0.587624 0.579000 0.371951 0.016 Uiso calc 1 . .
C C1 0.5382(5) 0.4700(18) 0.4850(5) 0.0122(13) Uani d 1 . .
C C2 0.4596(5) 0.2691(18) 0.4975(5) 0.0124(14) Uani d 1 . .
C C3 0.4197(5) 0.1812(19) 0.5712(5) 0.0147(14) Uani d 1 . .
H H3 0.442699 0.252848 0.625113 0.018 Uiso calc 1 . .
C C4 0.3448(5) -0.015(2) 0.5639(5) 0.0148(14) Uani d 1 . .
H H4 0.316667 -0.082004 0.613403 0.018 Uiso calc 1 . .
C C5 0.3106(5) -0.115(2) 0.4828(5) 0.0165(15) Uani d 1 . .
H H5 0.259718 -0.249734 0.478913 0.020 Uiso calc 1 . .
C C6 0.3493(5) -0.0227(18) 0.4093(5) 0.0128(13) Uani d 1 . .
H H6 0.325668 -0.090075 0.355269 0.015 Uiso calc 1 . .
C C7 0.4244(5) 0.1733(18) 0.4172(5) 0.0125(13) Uani d 1 . .
C C8 0.4795(5) 0.3123(19) 0.3538(5) 0.0118(13) Uani d 1 . .
loop_
_atom_site_aniso_label
_atom_site_aniso_U_11
_atom_site_aniso_U_22
_atom_site_aniso_U_33
_atom_site_aniso_U_12
_atom_site_aniso_U_13
_atom_site_aniso_U_23
I1 0.0131(2) 0.01109(17) 0.0169(2) -0.0009(2) -0.00081(15) -0.0008(2)
Cu1 0.0155(5) 0.0162(5) 0.0122(5) -0.0008(4) 0.0004(4) -0.0010(4)
S1 0.0141(9) 0.0150(8) 0.0124(8) 0.0001(6) 0.0003(7) -0.0011(6)
S2 0.0132(8) 0.0185(9) 0.0120(8) -0.0011(7) -0.0002(7) -0.0017(7)
N1 0.014(3) 0.014(3) 0.012(3) 0.001(2) 0.001(2) 0.001(2)
C1 0.012(3) 0.012(3) 0.013(3) 0.003(2) 0.000(3) 0.002(3)
C2 0.012(4) 0.009(3) 0.017(3) 0.006(3) 0.002(3) 0.000(2)
C3 0.014(3) 0.013(3) 0.017(3) 0.002(3) 0.002(3) 0.001(3)
C4 0.010(3) 0.018(3) 0.017(4) 0.001(3) 0.003(3) 0.002(3)
C5 0.012(3) 0.018(4) 0.019(4) -0.002(3) -0.003(3) 0.001(3)
C6 0.011(3) 0.011(3) 0.017(3) 0.000(2) -0.001(3) 0.001(3)
C7 0.015(3) 0.009(3) 0.014(3) 0.002(2) 0.002(3) 0.001(2)
C8 0.011(3) 0.013(3) 0.012(3) 0.003(2) 0.002(3) 0.000(2)
loop_
_atom_type_symbol
_atom_type_description
_atom_type_scat_dispersion_real
_atom_type_scat_dispersion_imag
_atom_type_scat_source
C C 0.0033 0.0016 'International Tables Vol C Tables 4.2.6.8 and 6.1.1.4'
H H 0.0000 0.0000 'International Tables Vol C Tables 4.2.6.8 and 6.1.1.4'
Cu Cu 0.3201 1.2651 'International Tables Vol C Tables 4.2.6.8 and 6.1.1.4'
I I -0.4742 1.8119 'International Tables Vol C Tables 4.2.6.8 and 6.1.1.4'
N N 0.0061 0.0033 'International Tables Vol C Tables 4.2.6.8 and 6.1.1.4'
S S 0.1246 0.1234 'International Tables Vol C Tables 4.2.6.8 and 6.1.1.4'
loop_
_geom_angle_atom_site_label_1
_geom_angle_atom_site_label_2
_geom_angle_atom_site_label_3
_geom_angle_site_symmetry_1
_geom_angle_site_symmetry_3
_geom_angle
_geom_angle_publ_flag
Cu1 I1 Cu1 . 1_545 102.12(4) ?
I1 Cu1 I1 . 1_565 102.12(4) ?
S1 Cu1 I1 . 1_565 100.30(6) ?
S1 Cu1 I1 . . 111.05(6) ?
S1 Cu1 S2 . 2_565 119.65(8) ?
S2 Cu1 I1 2_565 1_565 98.16(7) ?
S2 Cu1 I1 2_565 . 120.16(7) ?
C1 S1 Cu1 . . 118.8(3) ?
C8 S2 Cu1 . 2_564 108.3(3) ?
C1 N1 H1 . . 123.3 ?
C8 N1 H1 . . 123.3 ?
C8 N1 C1 . . 113.3(7) ?
N1 C1 S1 . . 122.3(6) ?
N1 C1 C2 . . 104.3(7) ?
C2 C1 S1 . . 133.3(6) ?
C3 C2 C1 . . 130.6(7) ?
C3 C2 C7 . . 121.4(7) ?
C7 C2 C1 . . 108.0(7) ?
C2 C3 H3 . . 120.9 ?
C2 C3 C4 . . 118.1(8) ?
C4 C3 H3 . . 120.9 ?
C3 C4 H4 . . 120.0 ?
C3 C4 C5 . . 120.1(8) ?
C5 C4 H4 . . 120.0 ?
C4 C5 H5 . . 119.1 ?
C6 C5 C4 . . 121.8(8) ?
C6 C5 H5 . . 119.1 ?
C5 C6 H6 . . 121.1 ?
C5 C6 C7 . . 117.7(7) ?
C7 C6 H6 . . 121.1 ?
C2 C7 C8 . . 107.7(7) ?
C6 C7 C2 . . 120.9(7) ?
C6 C7 C8 . . 131.4(7) ?
N1 C8 S2 . . 126.7(6) ?
N1 C8 C7 . . 106.6(6) ?
C7 C8 S2 . . 126.7(6) ?
loop_
_geom_bond_atom_site_label_1
_geom_bond_atom_site_label_2
_geom_bond_site_symmetry_2
_geom_bond_distance
_geom_bond_publ_flag
I1 Cu1 . 2.6152(13) y
I1 Cu1 1_545 2.6798(13) y
Cu1 S1 . 2.269(2) y
Cu1 S2 2_565 2.273(2) y
S1 C1 . 1.632(8) ?
S2 C8 . 1.645(7) ?
N1 H1 . 0.8800 ?
N1 C1 . 1.400(10) ?
N1 C8 . 1.357(10) ?
C1 C2 . 1.473(11) ?
C2 C3 . 1.388(11) ?
C2 C7 . 1.405(11) ?
C3 H3 . 0.9500 ?
C3 C4 . 1.394(12) ?
C4 H4 . 0.9500 ?
C4 C5 . 1.417(12) ?
C5 H5 . 0.9500 ?
C5 C6 . 1.380(11) ?
C6 H6 . 0.9500 ?
C6 C7 . 1.396(11) ?
C7 C8 . 1.455(11) ?
loop_
_geom_hbond_atom_site_label_D
_geom_hbond_atom_site_label_H
_geom_hbond_atom_site_label_A
_geom_hbond_site_symmetry_A
_geom_hbond_distance_DH
_geom_hbond_distance_HA
_geom_hbond_distance_DA
_geom_hbond_angle_DHA
_geom_hbond_publ_flag
N1 H1 I1 2_564 0.88 2.84 3.692(7) 163.2 yes
loop_
_geom_torsion_atom_site_label_1
_geom_torsion_atom_site_label_2
_geom_torsion_atom_site_label_3
_geom_torsion_atom_site_label_4
_geom_torsion_site_symmetry_1
_geom_torsion_site_symmetry_2
_geom_torsion_site_symmetry_3
_geom_torsion_site_symmetry_4
_geom_torsion
_geom_torsion_publ_flag
Cu1 S1 C1 N1 . . . . -175.6(5) ?
Cu1 S1 C1 C2 . . . . 5.3(9) ?
Cu1 S2 C8 N1 2_564 . . . 18.3(8) ?
Cu1 S2 C8 C7 2_564 . . . -161.5(6) ?
S1 C1 C2 C3 . . . . 0.4(13) ?
S1 C1 C2 C7 . . . . 178.6(6) ?
N1 C1 C2 C3 . . . . -178.9(8) ?
N1 C1 C2 C7 . . . . -0.6(8) ?
C1 N1 C8 S2 . . . . 178.7(6) ?
C1 N1 C8 C7 . . . . -1.5(9) ?
C1 C2 C3 C4 . . . . -179.8(8) ?
C1 C2 C7 C6 . . . . 179.5(7) ?
C1 C2 C7 C8 . . . . -0.2(8) ?
C2 C3 C4 C5 . . . . -1.0(12) ?
C2 C7 C8 S2 . . . . -179.1(6) ?
C2 C7 C8 N1 . . . . 1.0(8) ?
C3 C2 C7 C6 . . . . -2.0(11) ?
C3 C2 C7 C8 . . . . 178.2(7) ?
C3 C4 C5 C6 . . . . -0.2(12) ?
C4 C5 C6 C7 . . . . 0.4(12) ?
C5 C6 C7 C2 . . . . 0.7(11) ?
C5 C6 C7 C8 . . . . -179.6(8) ?
C6 C7 C8 S2 . . . . 1.1(12) ?
C6 C7 C8 N1 . . . . -178.7(8) ?
C7 C2 C3 C4 . . . . 2.1(11) ?
C8 N1 C1 S1 . . . . -178.0(6) ?
C8 N1 C1 C2 . . . . 1.3(8) ?

_cod_database_fobs_code 2243506
