#------------------------------------------------------------------------------
#$Date: 2020-03-28 08:19:52 +0200 (Sat, 28 Mar 2020) $
#$Revision: 249820 $
#$URL: file:///home/coder/svn-repositories/cod/cif/2/24/33/2243331.cif $
#------------------------------------------------------------------------------
#
# This file is available in the Crystallography Open Database (COD),
# http://www.crystallography.net/. The original data for this entry
# were provided by IUCr Journals, http://journals.iucr.org/.
#
# The file may be used within the scientific community so long as
# proper attribution is given to the journal article from which the
# data were obtained.
#
data_2243331
loop_
_publ_author_name
'Chadeayne, Andrew R.'
'Pham, Duyen N. K.'
'Golen, James A.'
'Manke, David R.'
_publ_section_title
;
 Norpsilocin: freebase and fumarate salt
;
_journal_coeditor_code           PK2623
_journal_issue                   4
_journal_name_full               'Acta Crystallographica Section E'
_journal_page_first              589
_journal_page_last               593
_journal_paper_doi               10.1107/S2056989020004077
_journal_volume                  76
_journal_year                    2020
_chemical_formula_iupac          'C11 H15 N2 O +, 0.5C4 H2 O4 2-'
_chemical_formula_moiety         'C11 H15 N2 O +, 0.5(C4 H2 O4 2-)'
_chemical_formula_sum            'C13 H16 N2 O3'
_chemical_formula_weight         248.28
_chemical_name_common
;
4-Hydroxy-<i>N</i>-methyltryptammonium fumarate
;
_chemical_name_systematic
;
Bis{[2-(4-hydroxy-1<i>H</i>-indol-3-yl)ethyl]methylazanium}
but-2-enedioate
;
_space_group_crystal_system      triclinic
_space_group_IT_number           2
_space_group_name_Hall           '-P 1'
_space_group_name_H-M_alt        'P -1'
_atom_sites_solution_hydrogens   mixed
_audit_creation_method
;
Olex2 1.3
(compiled 2020.02.04 svn.rd84adfe8 for OlexSys, GUI svn.r6032)
;
_cell_angle_alpha                105.524(4)
_cell_angle_beta                 110.554(4)
_cell_angle_gamma                97.167(4)
_cell_formula_units_Z            2
_cell_length_a                   7.7363(10)
_cell_length_b                   9.7146(12)
_cell_length_c                   9.7854(13)
_cell_measurement_reflns_used    3848
_cell_measurement_temperature    297(2)
_cell_measurement_theta_max      25.47
_cell_measurement_theta_min      2.66
_cell_volume                     643.69(15)
_computing_cell_refinement
;
SAINT (Bruker, 2018)
;
_computing_data_collection
;
APEX3 (Bruker, 2018)
;
_computing_data_reduction
;
SAINT (Bruker, 2018)
;
_computing_molecular_graphics
;
OLEX2 (Dolomanov <i>et al.</i>,  2009)
;
_computing_publication_material
;
publCIF (Westrip, 2010)
;
_computing_structure_refinement
;
SHELXL2018 (Sheldrick, 2015b)
;
_computing_structure_solution
;
SHELXT2014 (Sheldrick, 2015a)
;
_diffrn_ambient_temperature      297.15
_diffrn_measured_fraction_theta_full 0.995
_diffrn_measured_fraction_theta_max 0.989
_diffrn_measurement_device_type  'Bruker D8 Venture CMOS'
_diffrn_measurement_method       '\f and \w scans'
_diffrn_radiation_type           MoK\a
_diffrn_radiation_wavelength     0.71073
_diffrn_reflns_av_R_equivalents  0.0456
_diffrn_reflns_av_unetI/netI     0.0289
_diffrn_reflns_limit_h_max       9
_diffrn_reflns_limit_h_min       -9
_diffrn_reflns_limit_k_max       11
_diffrn_reflns_limit_k_min       -11
_diffrn_reflns_limit_l_max       11
_diffrn_reflns_limit_l_min       -11
_diffrn_reflns_number            14395
_diffrn_reflns_theta_full        25.242
_diffrn_reflns_theta_max         25.463
_diffrn_reflns_theta_min         2.655
_diffrn_source_current           30.0
_diffrn_source_power             1.5
_diffrn_source_voltage           50.0
_diffrn_standards_number         0
_exptl_absorpt_coefficient_mu    0.092
_exptl_absorpt_correction_T_max  0.7452
_exptl_absorpt_correction_T_min  0.6846
_exptl_absorpt_correction_type   multi-scan
_exptl_absorpt_process_details
;
(SADABS; Bruker, 2018)
;
_exptl_crystal_colour            colourless
_exptl_crystal_density_diffrn    1.281
_exptl_crystal_description       BLOCK
_exptl_crystal_F_000             264
_exptl_crystal_size_max          0.24
_exptl_crystal_size_mid          0.19
_exptl_crystal_size_min          0.03
_refine_diff_density_max         0.151
_refine_diff_density_min         -0.147
_refine_ls_extinction_coef       0.035(8)
_refine_ls_extinction_expression Fc^*^=kFc[1+0.001xFc^2^\l^3^/sin(2\q)]^-1/4^
_refine_ls_extinction_method
;
SHELXL2018 (Sheldrick, 2015b)
;
_refine_ls_goodness_of_fit_ref   1.106
_refine_ls_hydrogen_treatment    mixed
_refine_ls_matrix_type           full
_refine_ls_number_parameters     181
_refine_ls_number_reflns         2365
_refine_ls_number_restraints     4
_refine_ls_restrained_S_all      1.107
_refine_ls_R_factor_all          0.0619
_refine_ls_R_factor_gt           0.0391
_refine_ls_shift/su_max          0.000
_refine_ls_shift/su_mean         0.000
_refine_ls_structure_factor_coef Fsqd
_refine_ls_weighting_details
'w=1/[\s^2^(Fo^2^)+(0.0428P)^2^+0.1031P] where P=(Fo^2^+2Fc^2^)/3'
_refine_ls_weighting_scheme      calc
_refine_ls_wR_factor_gt          0.0900
_refine_ls_wR_factor_ref         0.0983
_reflns_number_gt                1774
_reflns_number_total             2365
_reflns_threshold_expression     'I > 2\s(I)'
_cod_data_source_file            pk2623sup1.cif
_cod_data_source_block           II
_cod_original_cell_volume        643.69(14)
_cod_database_code               2243331
_shelx_space_group_comment
;
The symmetry employed for this shelxl refinement is uniquely defined
by the following loop, which should always be used as a source of
symmetry information in preference to the above space-group names.
They are only intended as comments.
;
_shelx_estimated_absorpt_t_min   0.978
_shelx_estimated_absorpt_t_max   0.997
_shelx_hkl_file
;
  -1   0   0 3079.59   48.00
  -1   0   0 3033.80   48.00
   1   0   0 2735.43   48.00
   1   0   0 3098.49   48.10
  -2   0   0 1429.36   24.20
  -2   0   0 1389.26   24.00
  -2   0   0 1400.56   24.00
   2   0   0 1426.06   24.10
   2   0   0 1372.76   24.00
  -3   0   0    9.00    3.90
  -3   0   0   15.30    4.10
  -3   0   0    6.90    3.80
   3   0   0   11.60    4.10
   3   0   0   19.10    4.20
  -4   0   0  277.77    9.30
  -4   0   0  262.77    8.90
  -4   0   0  250.97    8.90
   4   0   0  266.67    9.30
   4   0   0  258.67    9.20
  -5   0   0   49.99    6.10
  -5   0   0   43.70    6.50
  -5   0   0   48.40    6.10
   5   0   0   45.60    6.20
   5   0   0   39.20    6.00
  -6   0   0  279.47   12.00
  -6   0   0  269.57   12.60
  -6   0   0  255.27   11.60
   6   0   0  284.27   12.90
   6   0   0  240.88   20.00
  -7   0   0    7.00    7.20
  -7   0   0    7.70    7.50
   7   0   0   28.90   16.50
   7   0   0   -6.70    7.00
  -8   0   0   -3.70    8.60
  -8   0   0    0.10    8.00
  -8   0   0   14.00    9.80
   8   0   0   -1.80    7.70
   8   0   0   10.80    9.80
   8  -1   0   39.30   10.40
   8  -1   0   12.50    8.20
  -8   1   0   24.60    8.90
  -8   1   0   22.00    8.10
  -8   1   0   29.70    9.60
   7  -1   0   33.50    7.80
   7  -1   0   41.00    8.70
  -7   1   0   31.40    8.00
  -7   1   0   30.00    7.80
   6  -1   0  621.14   17.00
   6  -1   0  655.53   19.00
  -6   1   0  604.34   16.70
  -6   1   0  611.74   17.00
   5  -1   0   88.29    8.50
   5  -1   0   98.49    8.30
  -5   1   0   83.89    7.50
  -5   1   0   79.29    6.30
  -5   1   0   86.59    7.10
   4  -1   0  114.09    7.30
   4  -1   0  121.29    7.60
  -4   1   0  126.39    7.90
  -4   1   0  122.59    7.40
  -4   1   0  144.49   10.70
   3  -1   0    7.00    3.90
   3  -1   0    3.40    3.60
   3  -1   0    9.80    4.50
  -3   1   0    5.10    5.10
  -3   1   0   10.60    3.90
  -3   1   0    6.10    3.20
   2  -1   0   11.20    3.80
   2  -1   0   15.70    3.50
  -2   1   0    9.60    3.40
  -2   1   0   10.30    3.40
   1  -1   0 2345.27   38.90
   1  -1   0 2382.66   38.10
  -1   1   0 2324.87   38.10
  -1   1   0 2342.27   38.10
  -2  -1   0  440.66   10.00
  -2  -1   0  422.86   11.00
  -2  -1   0  430.96    9.00
  -2  -1   0  429.26    9.00
   2   1   0  443.76    9.10
   2   1   0  426.86    9.10
   2   1   0  437.56   10.00
  -3  -1   0  933.01   18.60
  -3  -1   0  956.40   18.60
  -3  -1   0  910.01   17.70
  -3  -1   0  932.71   17.90
   3   1   0  972.90   19.30
   3   1   0  940.51   17.90
  -4  -1   0   -2.00    4.20
  -4  -1   0   -2.00    4.80
  -4  -1   0   -1.80    4.50
  -4  -1   0    1.60    8.00
   4   1   0    2.60    4.50
   4   1   0    1.40    4.40
  -5  -1   0  225.48    9.60
  -5  -1   0  228.68   10.30
  -5  -1   0  231.28   10.40
  -5  -1   0  225.68   10.80
   5   1   0  231.08   10.20
   5   1   0  221.28   10.10
  -6  -1   0   -2.40    6.80
  -6  -1   0   -3.80    6.40
  -6  -1   0   -1.40    7.20
  -6  -1   0    4.20    6.10
   6   1   0    4.20    6.60
   6   1   0    3.30    7.10
  -7  -1   0  236.88   13.40
  -7  -1   0  248.08   13.10
  -7  -1   0  263.97   13.10
   7   1   0  277.87   14.40
   7   1   0  236.88   12.60
  -8  -1   0   80.69   10.10
  -8  -1   0   87.49   10.30
  -8  -1   0   73.29   10.00
   8   1   0   56.99    9.50
   8   1   0   70.49   10.70
   8  -2   0   13.70    9.50
   8  -2   0   16.20    8.80
  -8   2   0   13.90    9.70
  -8   2   0   17.50    7.70
  -8   2   0    8.80    8.50
   7  -2   0  445.76   16.00
   7  -2   0  490.15   17.00
  -7   2   0  441.26   18.10
  -7   2   0  425.16   16.00
   6  -2   0   26.30    7.30
   6  -2   0   24.50    7.10
  -6   2   0   25.30    6.90
  -6   2   0   19.90    7.00
   5  -2   0   30.80    6.30
   5  -2   0   33.50    5.60
  -5   2   0   44.80    6.40
  -5   2   0   41.70    6.20
   4  -2   0  248.88    8.90
   4  -2   0  266.37    9.50
   4  -2   0  250.77   10.40
  -4   2   0  245.58    9.50
  -4   2   0  254.07    9.30
   3  -2   0    8.30    4.50
   3  -2   0    8.50    3.80
   3  -2   0    2.90    4.90
  -3   2   0    3.60    4.00
  -3   2   0    4.40    4.40
   2  -2   0   27.10    3.50
   2  -2   0   24.60    3.20
   2  -2   0   22.30    4.50
  -2   2   0   28.80    4.70
  -2   2   0   26.00    3.80
   1  -2   0   -7.80    4.80
   1  -2   0    3.70    3.00
   1  -2   0   -2.60    3.00
  -1   2   0    1.80    3.50
  -1   2   0   -1.70    4.90
  -1   2   0   -1.00    3.40
   0  -2   0  761.62   14.10
   0  -2   0  729.03   14.90
   0  -2   0  766.22   14.70
   0  -2   0  751.62   13.80
   0  -2   0  758.42   14.60
   0   2   0  731.33   15.00
   0   2   0  739.23   14.70
   0   2   0  750.52   14.60
   0   2   0  743.23   14.00
   0   2   0  746.83   16.30
   0   2   0  757.62   14.00
  -1  -2   0 4534.35   73.29
  -1  -2   0 4541.35   72.99
  -1  -2   0 4495.35   73.09
   1   2   0 4457.25   73.19
   1   2   0 4545.04   72.99
   1   2   0 4568.44   73.19
   1   2   0 4333.97   73.39
   1   2   0 4512.15   73.79
   1   2   0 4401.06   73.19
  -2  -2   0  442.96    9.10
  -2  -2   0  442.46   10.80
  -2  -2   0  440.26    9.10
  -2  -2   0  442.86   11.10
  -2  -2   0  451.85   10.80
   2   2   0  451.65   11.10
   2   2   0  441.66   10.40
   2   2   0  458.95    9.30
   2   2   0  440.86    9.30
  -3  -2   0   14.40    3.90
  -3  -2   0   10.20    5.10
  -3  -2   0   13.60    4.70
  -3  -2   0   17.90    5.80
  -3  -2   0   16.00    3.80
  -3  -2   0   20.40    5.40
   3   2   0   17.00    4.00
   3   2   0   11.80    5.20
   3   2   0   15.10    4.10
  -4  -2   0    4.40    6.20
  -4  -2   0    6.50    4.50
  -4  -2   0   -1.30    5.20
  -4  -2   0    1.20    4.70
  -4  -2   0    3.10    4.30
   4   2   0   -6.60    4.40
   4   2   0    8.40    4.40
  -5  -2   0  207.98   13.20
  -5  -2   0  190.38   11.00
  -5  -2   0  199.28   10.10
  -5  -2   0  196.18   11.60
   5   2   0  208.48    9.80
   5   2   0  198.88   10.20
  -6  -2   0  115.99   11.10
  -6  -2   0  124.79   10.30
  -6  -2   0  109.49    9.80
  -6  -2   0   92.79    9.20
   6   2   0  117.79   10.20
   6   2   0  106.69    9.00
  -7  -2   0    2.80   11.10
  -7  -2   0    3.80    7.50
  -7  -2   0   -7.00    7.60
  -7  -2   0  -21.10   11.80
  -7  -2   0   -1.10    7.00
   7   2   0   -4.80    7.00
   7   2   0    0.60    8.10
   8  -3   0   45.30   11.00
   8  -3   0   30.60    8.90
  -8   3   0   42.90   10.00
  -8   3   0   30.50   10.20
   7  -3   0   -2.90    7.60
   7  -3   0   -2.00    7.80
  -7   3   0   16.40    7.60
  -7   3   0   12.60    7.90
   6  -3   0   54.79    8.20
   6  -3   0   47.20    7.40
   6  -3   0   39.50    7.70
  -6   3   0   48.50    7.80
  -6   3   0   41.10    7.80
   5  -3   0   58.69    7.20
   5  -3   0   58.99    6.70
   5  -3   0   64.49    7.50
  -5   3   0   52.69    6.60
  -5   3   0   74.69    7.10
   4  -3   0  853.81   19.60
   4  -3   0  835.02   17.50
   4  -3   0  854.11   17.90
  -4   3   0  819.82   17.80
  -4   3   0  840.02   17.90
   3  -3   0  163.58    7.60
   3  -3   0  141.19    9.50
   3  -3   0  150.78    7.10
  -3   3   0  144.49    7.60
  -3   3   0  148.69   10.40
  -3   3   0  157.98    7.50
   2  -3   0 1391.16   23.90
   2  -3   0 1371.66   23.80
   2  -3   0 1309.97   28.40
  -2   3   0 1360.76   23.80
  -2   3   0 1345.97   26.30
  -2   3   0 1374.16   23.90
   1  -3   0  271.57    6.30
   1  -3   0  271.47    6.20
   1  -3   0  245.28   12.70
   1  -3   0  269.17    8.10
  -1   3   0  264.17    9.70
  -1   3   0  267.87    6.50
  -1   3   0  270.07    6.50
  -1   3   0  265.47    6.40
   0  -3   0 2063.19   36.90
   0  -3   0 2089.79   35.00
   0  -3   0 2109.89   34.90
   0  -3   0 2119.79   35.70
   0   3   0 2029.20   35.90
   0   3   0 2020.30   35.50
   0   3   0 2121.89   35.10
   0   3   0 2045.00   37.30
   0   3   0 2082.89   35.50
   0   3   0 2032.30   35.60
  -1  -3   0    1.30    3.90
  -1  -3   0   -0.80    3.90
  -1  -3   0    2.50    2.90
   1   3   0    2.00    3.30
   1   3   0    5.70    3.90
   1   3   0    9.50    4.30
   1   3   0   -5.40    3.70
   1   3   0   -4.10    4.00
   1   3   0   -2.70    3.70
   1   3   0   -0.70    3.70
  -2  -3   0 1574.44   29.10
  -2  -3   0 1599.44   28.60
  -2  -3   0 1588.64   28.90
  -2  -3   0 1575.54   28.60
  -2  -3   0 1548.25   26.30
   2   3   0 1529.65   29.50
   2   3   0 1575.94   29.00
   2   3   0 1568.74   26.30
   2   3   0 1570.24   26.90
   2   3   0 1568.14   28.90
  -3  -3   0  155.68    6.30
  -3  -3   0  147.29    8.70
  -3  -3   0  151.38    6.10
  -3  -3   0  150.78    9.50
  -3  -3   0  145.49    8.40
  -3  -3   0  150.98    8.60
   3   3   0  151.48    6.40
   3   3   0  151.78    9.00
   3   3   0  142.59    8.90
   3   3   0  145.49    6.40
   3   3   0  142.29    8.10
  -4  -3   0  243.88   11.00
  -4  -3   0  233.88   12.20
  -4  -3   0  246.68   11.00
  -4  -3   0  242.28    8.70
  -4  -3   0  232.98    8.30
  -4  -3   0  246.68   10.90
   4   3   0  246.48    8.80
   4   3   0  240.18   11.50
   4   3   0  241.08    8.80
  -5  -3   0   27.20    7.60
  -5  -3   0   29.90    7.60
  -5  -3   0   33.10    8.90
  -5  -3   0   20.70    5.60
  -5  -3   0   37.50    6.10
  -5  -3   0   26.20    9.70
   5   3   0   29.50    6.20
   5   3   0   28.80    6.10
   5   3   0   19.50    7.70
  -6  -3   0   11.30    9.50
  -6  -3   0   11.10    8.10
  -6  -3   0    9.00    4.70
  -6  -3   0   15.80    8.20
  -6  -3   0   14.80    6.30
   6   3   0   -2.10    7.10
   6   3   0   16.30    6.80
  -7  -3   0   -0.10   10.70
  -7  -3   0   19.30    9.00
  -7  -3   0    7.20    7.00
  -7  -3   0   16.90   10.20
  -7  -3   0   11.20    8.20
   7   3   0    2.10   10.30
   7   3   0    4.70    7.40
   7   3   0   -0.90    8.10
   8  -4   0   10.50    9.50
   8  -4   0   21.50   10.20
  -8   4   0   21.50   13.60
  -8   4   0    5.40    8.20
   7  -4   0   57.19    9.40
   7  -4   0   62.19    9.70
   7  -4   0   55.19    8.90
  -7   4   0   59.19    9.70
  -7   4   0   60.09    9.40
   6  -4   0  126.89   11.20
   6  -4   0  107.99    8.70
   6  -4   0  124.79   12.60
  -6   4   0  108.19    9.20
  -6   4   0  114.29    9.30
  -6   4   0  132.69   13.20
   5  -4   0  357.66   14.50
   5  -4   0  354.76   12.40
   5  -4   0  351.86   11.80
  -5   4   0  348.27   12.40
  -5   4   0  364.46   12.40
   4  -4   0   44.60    5.60
   4  -4   0   49.70    7.30
   4  -4   0   53.39    5.30
  -4   4   0   43.30    5.50
  -4   4   0   51.29    8.00
  -4   4   0   48.70    5.80
   3  -4   0    2.40    3.90
   3  -4   0    2.30    5.90
   3  -4   0   -0.20    4.60
  -3   4   0   -2.20    4.40
  -3   4   0    1.50    4.10
  -3   4   0   -0.20    6.10
   2  -4   0    6.10    6.00
   2  -4   0   16.40    3.90
   2  -4   0   14.30    3.70
   2  -4   0   15.60    5.50
  -2   4   0   12.20    5.70
  -2   4   0   10.60    3.90
  -2   4   0    7.80    3.90
   1  -4   0  682.63   15.20
   1  -4   0  699.83   12.80
   1  -4   0  680.73   14.90
   1  -4   0  662.53   15.50
   1  -4   0  684.13   12.70
  -1   4   0  687.13   12.80
  -1   4   0  690.93   13.50
  -1   4   0  686.13   17.40
   0  -4   0  181.28    7.70
   0  -4   0  180.48    9.00
   0  -4   0  179.78    8.20
   0   4   0  176.48    7.80
   0   4   0  195.08    7.20
   0   4   0  188.88    8.00
   0   4   0  175.78    8.70
   0   4   0  169.08   10.00
   0   4   0  170.58    9.10
  -1  -4   0  858.21   17.80
  -1  -4   0  850.21   17.50
   1   4   0  855.51   17.80
   1   4   0  833.32   18.50
   1   4   0  853.81   18.50
   1   4   0  851.71   18.10
   1   4   0  873.81   17.50
   1   4   0  849.41   18.00
   1   4   0  850.11   17.90
   1   4   0  845.12   19.20
  -2  -4   0  291.57   10.00
  -2  -4   0  310.37   10.90
  -2  -4   0  300.37   10.50
   2   4   0  304.47   10.60
   2   4   0  296.27   10.90
   2   4   0  303.37   11.40
   2   4   0  294.57   11.10
   2   4   0  300.57   11.10
   2   4   0  292.97   11.00
  -3  -4   0   73.09    6.40
  -3  -4   0   69.49    5.40
  -3  -4   0   75.69    8.60
  -3  -4   0   76.69    9.10
  -3  -4   0   76.39    6.60
  -3  -4   0   95.19    8.00
   3   4   0   81.09    5.70
   3   4   0   75.39    8.30
   3   4   0   73.19    7.70
  -4  -4   0   35.20    4.90
  -4  -4   0   36.20    8.10
  -4  -4   0   42.50    5.10
  -4  -4   0   36.50    7.90
  -4  -4   0   40.00    7.10
  -4  -4   0   34.50    6.30
   4   4   0   39.20    5.20
   4   4   0   44.40    5.30
   4   4   0   44.80    8.40
  -5  -4   0   12.90    8.50
  -5  -4   0   -2.10    6.70
  -5  -4   0    5.70    5.10
  -5  -4   0    2.70    5.20
  -5  -4   0    8.30    7.20
  -5  -4   0   -0.90    7.70
   5   4   0    8.00    6.40
   5   4   0    4.40    5.50
   5   4   0    5.90   10.10
  -6  -4   0   52.49    8.90
  -6  -4   0   57.09    8.90
  -6  -4   0   50.39   10.30
   6   4   0   48.70    7.10
   6   4   0   49.00   10.60
   6   4   0   63.99    7.60
  -7  -4   0    5.70    8.60
  -7  -4   0    2.20    3.20
  -7  -4   0    2.30    9.80
  -7  -4   0    2.80   10.00
   7   4   0  -17.10    7.80
   7   4   0   -3.00    7.30
   7   4   0    6.00   12.50
   8  -5   0   -3.00   10.40
   8  -5   0   -3.20    8.50
  -8   5   0   -2.60    8.80
  -8   5   0   -7.00   19.10
   7  -5   0  104.19   14.10
   7  -5   0   83.29   10.10
   7  -5   0   95.79    9.80
  -7   5   0   88.09   10.10
  -7   5   0  146.59   14.80
  -7   5   0   84.59   10.10
   6  -5   0  119.79    9.40
   6  -5   0  143.79   14.00
   6  -5   0  114.29   10.90
  -6   5   0  128.09   15.30
  -6   5   0  124.69   12.10
  -6   5   0   97.09    9.10
   5  -5   0   19.10    6.80
   5  -5   0    7.80    5.80
   5  -5   0   12.00    7.90
  -5   5   0    7.80    6.80
  -5   5   0    1.30   10.40
  -5   5   0    9.20    6.30
   4  -5   0  488.35   12.80
   4  -5   0  519.45   17.40
   4  -5   0  537.75   13.80
  -4   5   0  522.95   13.60
  -4   5   0  534.15   18.20
  -4   5   0  510.35   13.50
   3  -5   0  238.78    8.30
   3  -5   0  250.97   12.90
  -3   5   0  256.97    8.90
  -3   5   0  251.07   13.00
  -3   5   0  244.98    8.80
   2  -5   0  300.77    8.30
   2  -5   0  305.87    8.40
   2  -5   0  296.47   11.10
   2  -5   0  309.87   10.60
  -2   5   0  310.97    8.60
  -2   5   0  309.47    8.70
  -2   5   0  303.67   13.00
   1  -5   0 2632.24   45.50
   1  -5   0 2602.44   42.90
   1  -5   0 2592.14   45.70
   1  -5   0 2578.34   45.90
   1  -5   0 2633.54   43.00
  -1   5   0 2575.24   44.20
  -1   5   0 2622.54   45.80
  -1   5   0 2614.84   43.00
  -1   5   0 2604.84   48.70
  -1   5   0 2649.83   43.00
  -1   5   0 2602.24   44.10
   0  -5   0    7.00    4.90
   0  -5   0    9.20    4.90
   0  -5   0    0.50    5.70
   0   5   0   11.40    4.80
   0   5   0    1.40    5.90
   0   5   0    7.80    4.60
   0   5   0    9.00    5.80
   0   5   0   11.80    4.60
   0   5   0    5.90    6.00
   0   5   0   10.90    4.20
   0   5   0   14.70    5.00
  -1  -5   0  210.08    9.50
  -1  -5   0  200.78    8.70
   1   5   0  201.68    9.20
   1   5   0  194.68   10.50
   1   5   0  199.98    9.40
   1   5   0  205.18    9.20
   1   5   0  208.68    8.60
   1   5   0  194.48    9.40
   1   5   0  193.98   11.10
   1   5   0  196.68    9.90
   1   5   0  189.58   10.00
  -2  -5   0    5.00    4.80
  -2  -5   0   12.00    5.70
   2   5   0   23.40    6.10
   2   5   0   12.50    6.40
   2   5   0    6.90    6.00
   2   5   0    0.60    5.60
   2   5   0   10.00    6.20
   2   5   0   10.50    5.80
   2   5   0    4.70    6.40
   2   5   0   13.80    5.40
  -3  -5   0   50.39    7.50
  -3  -5   0   49.90    8.20
  -3  -5   0   43.80    7.50
   3   5   0   44.60    7.70
  -4  -5   0  202.48   13.10
  -4  -5   0  205.78   12.30
  -4  -5   0  221.28   13.20
  -4  -5   0  180.18   11.90
   4   5   0  190.58    8.40
   4   5   0  208.48   12.70
  -5  -5   0   36.80    5.70
  -5  -5   0   42.00    5.50
  -5  -5   0   37.50    8.20
  -5  -5   0   43.20    8.40
  -5  -5   0   39.60   15.50
   5   5   0   12.20   10.40
   5   5   0   51.19    6.30
   5   5   0   39.70    6.00
  -6  -5   0    3.40    1.90
  -6  -5   0    4.40   14.20
  -6  -5   0   16.50   10.00
  -6  -5   0    6.00    7.10
   6   5   0    7.70   11.10
   6   5   0   20.50   11.30
   6   5   0   19.60    6.60
   8  -6   0  102.09   11.10
   8  -6   0  110.09   12.30
  -8   6   0  120.49   11.70
   7  -6   0  238.58   14.50
   7  -6   0  233.38   14.60
  -7   6   0  230.18   13.90
  -7   6   0  272.77   20.90
  -7   6   0  252.17   15.80
   6  -6   0   -0.80    7.10
  -6   6   0   10.50    7.50
  -6   6   0   12.80   11.20
  -6   6   0    4.40    7.50
   5  -6   0   38.80    6.30
   5  -6   0   49.99    7.60
   5  -6   0   36.50    9.60
  -5   6   0   41.10    7.40
  -5   6   0   45.40   10.20
  -5   6   0   54.39   12.60
   4  -6   0  171.38    9.40
  -4   6   0  161.18   15.00
  -4   6   0  177.28    9.80
  -4   6   0  163.08    9.50
   3  -6   0   -1.30    4.50
   3  -6   0    5.20    6.20
   3  -6   0    0.30    4.10
  -3   6   0    0.00    7.00
  -3   6   0    1.00    4.70
  -3   6   0   -2.30    4.40
   2  -6   0   83.19    6.00
   2  -6   0   90.59    7.90
   2  -6   0   83.19    7.20
   2  -6   0   93.39    5.80
   2  -6   0   88.79    8.50
  -2   6   0   73.99    6.00
  -2   6   0   82.89    6.40
  -2   6   0   69.49    6.10
  -2   6   0   76.99   10.40
   1  -6   0   93.99    8.30
   1  -6   0   82.39    8.80
   1  -6   0   85.89    9.40
  -1   6   0   71.79   10.20
  -1   6   0   82.49    6.60
  -1   6   0   83.69    9.00
   0  -6   0    6.40    5.30
   0  -6   0    5.80    6.20
   0  -6   0    0.70    5.20
   0   6   0    6.00    4.80
   0   6   0    4.40    6.00
   0   6   0    6.20    4.90
   0   6   0    1.80    6.70
   0   6   0    8.60    4.30
   0   6   0    1.10    7.10
   0   6   0    3.60    6.40
   0   6   0    1.60    5.10
   0   6   0    8.80    5.40
  -1  -6   0  135.09    8.80
  -1  -6   0  131.99    9.70
   1   6   0  134.29    9.70
   1   6   0  138.59    9.60
   1   6   0  131.09    9.80
   1   6   0  152.98   10.50
   1   6   0  115.49   11.30
   1   6   0  141.59   10.30
   1   6   0  139.49    8.50
   1   6   0  125.39   10.70
   1   6   0  120.89    9.40
  -2  -6   0  293.17   12.80
  -2  -6   0  279.07   11.70
   2   6   0  291.57   13.10
   2   6   0  288.17   12.90
   2   6   0  283.77   18.40
   2   6   0  286.27   13.90
   2   6   0  270.27   14.50
  -3  -6   0  342.27   13.50
  -3  -6   0  325.77   14.50
   3   6   0  325.87   14.10
   3   6   0  308.17   14.70
   3   6   0  347.57   15.10
   3   6   0  348.57   16.60
  -4  -6   0  280.37   13.70
  -4  -6   0  299.97   15.10
  -4  -6   0  298.27   15.10
   4   6   0  325.77   15.80
   4   6   0  289.57   16.70
  -5  -6   0    5.30    7.10
  -5  -6   0    8.40    9.00
   5   6   0   13.30    9.80
   5   6   0   15.00   10.20
  -6  -6   0   30.70   10.00
  -6  -6   0   31.30    9.70
   6   6   0   28.90   14.30
   6   6   0   40.30   11.00
   6   6   0   16.80    6.40
   7  -7   0    1.60    8.70
   7  -7   0   -3.80    8.20
  -7   7   0  -10.00    9.70
  -7   7   0   34.50   16.40
  -7   7   0    4.70    7.70
   6  -7   0  244.58   13.70
  -6   7   0  200.48   26.90
  -6   7   0  261.67   14.50
  -6   7   0  268.57   13.20
  -6   7   0  302.37   21.10
   5  -7   0   22.50    7.40
   5  -7   0   29.00    8.70
   5  -7   0   16.70    6.40
  -5   7   0   40.80   13.10
  -5   7   0   40.00    7.60
  -5   7   0   13.70    7.20
  -5   7   0   22.80   10.80
   4  -7   0  -12.60    5.70
   4  -7   0    1.90    5.30
   4  -7   0    9.70    7.40
  -4   7   0   -2.70    6.30
  -4   7   0    2.60    5.80
  -4   7   0    0.60   10.10
   3  -7   0  601.04   18.60
   3  -7   0  622.74   14.40
   3  -7   0  590.24   14.10
   3  -7   0  602.64   17.50
   3  -7   0  621.04   16.90
  -3   7   0  606.44   14.40
  -3   7   0  696.73   23.20
  -3   7   0  612.14   24.80
  -3   7   0  618.14   15.00
  -3   7   0  582.64   13.80
   2  -7   0  117.39   10.10
   2  -7   0  123.19    6.80
   2  -7   0  109.29    6.70
   2  -7   0  123.29   10.30
   2  -7   0  116.79   11.50
  -2   7   0  113.09   11.40
  -2   7   0  122.99    7.40
  -2   7   0  121.39    7.50
  -2   7   0  123.79    7.20
  -2   7   0  116.19   12.50
   1  -7   0   40.50    6.90
   1  -7   0   34.30    7.70
   1  -7   0   38.70    7.00
  -1   7   0   41.30    8.40
  -1   7   0   35.90    5.20
  -1   7   0   48.20    8.70
   0  -7   0  306.67   12.90
   0  -7   0  291.27   14.20
   0   7   0  277.97   15.70
   0   7   0  284.07   11.00
   0   7   0  280.77   23.00
   0   7   0  270.97   12.20
   0   7   0  254.47   12.10
   0   7   0  258.27   14.20
   1   7   0  141.49   12.80
   1   7   0  111.99   12.50
   1   7   0  133.19   12.70
   1   7   0  141.29   11.40
   1   7   0  128.09   11.00
   1   7   0  127.89   11.90
   1   7   0  129.49   11.40
  -2  -7   0   81.39    8.30
   2   7   0  100.59   10.70
   2   7   0   80.49   10.00
   2   7   0  109.79   13.20
   2   7   0   71.59    9.30
   2   7   0  107.09   13.20
   2   7   0   78.69    8.50
   2   7   0  104.79   12.30
  -3  -7   0   -7.00    7.20
   3   7   0    3.00    7.10
   3   7   0   11.50    9.10
   3   7   0   -2.80    8.60
   3   7   0    1.00    7.20
  -4  -7   0    3.80    8.00
   4   7   0   14.10    9.60
   4   7   0    6.10    8.40
   4   7   0   -3.80    8.50
   4   7   0   13.20   10.60
   4   7   0   11.40   10.20
  -5  -7   0   -0.20    8.60
   5   7   0    1.60   11.00
   5   7   0    2.80   10.50
   5   7   0   10.70   10.00
   5   7   0   -1.10   11.50
   5   7   0    5.00   10.60
   7  -8   0   10.50    8.30
   7  -8   0    5.40    9.50
  -7   8   0   13.20   10.40
  -7   8   0   14.90    7.90
   6  -8   0    2.40    8.60
   6  -8   0    5.50    8.70
   6  -8   0   -2.80    7.80
  -6   8   0    8.40    7.40
  -6   8   0   -3.80    8.20
   5  -8   0  169.48   11.20
   5  -8   0  146.39   13.60
  -5   8   0  170.98   12.50
  -5   8   0  187.38   17.50
  -5   8   0  169.08   11.00
  -5   8   0  169.48   17.50
   4  -8   0  379.16   15.90
   4  -8   0  376.96   12.60
   4  -8   0  392.86   14.90
   4  -8   0  373.46   12.60
  -4   8   0  404.16   23.40
  -4   8   0  387.96   13.70
  -4   8   0  373.26   12.60
  -4   8   0  395.66   20.00
  -4   8   0  385.06   11.10
   3  -8   0  111.99    8.00
   3  -8   0  104.79   10.40
   3  -8   0   99.39    9.20
   3  -8   0  108.19    8.20
   3  -8   0   88.19    9.00
  -3   8   0  100.49    9.30
  -3   8   0  105.89    8.00
  -3   8   0  100.19   13.80
  -3   8   0  109.19   13.00
  -3   8   0   94.19    8.60
   2  -8   0   39.50    5.00
   2  -8   0   38.20    4.90
   2  -8   0   35.60    7.60
   2  -8   0   32.60    8.80
   2  -8   0   45.80    8.30
  -2   8   0   37.50    8.80
  -2   8   0   42.00    5.60
  -2   8   0   40.60    5.20
  -2   8   0   42.20    6.10
   1  -8   0    4.70    8.20
   1  -8   0   -3.20    6.70
  -1   8   0    0.50    7.70
  -1   8   0    1.40    5.30
  -1   8   0   -3.20    8.10
   0   8   0   13.30    9.20
   0   8   0   10.30    8.30
   0   8   0   12.80    7.20
   0   8   0    9.30    7.30
   0   8   0    5.30    9.00
   1   8   0  190.58   13.00
   1   8   0  177.08   15.50
   1   8   0  178.48   14.60
   1   8   0  170.48   18.90
   1   8   0  198.08   14.90
   1   8   0  194.28   14.80
   2   8   0   76.99   11.40
   2   8   0   79.89   10.70
   2   8   0   45.90    8.40
   2   8   0   69.99    9.80
   2   8   0   57.59    9.80
   2   8   0   51.39    9.90
   2   8   0   59.69   10.70
  -3  -8   0    2.30    8.00
   3   8   0   15.60    9.00
   3   8   0   -1.20   10.20
   3   8   0    6.00    9.40
   3   8   0    5.90    9.10
   3   8   0    2.50    8.20
  -4  -8   0   -2.90   12.10
   4   8   0   -1.80    9.90
   4   8   0    6.80   11.50
   4   8   0   21.20   10.80
   4   8   0    4.70   10.30
   4   8   0    0.10    9.30
   6  -9   0    0.80    7.90
   6  -9   0   -9.10    8.80
   6  -9   0    6.30    7.50
  -6   9   0    4.80    7.00
  -6   9   0    1.10    8.80
  -6   9   0   13.80   17.60
   5  -9   0    6.80    7.40
   5  -9   0   11.80    6.90
   5  -9   0    7.90    9.00
   5  -9   0    2.30    8.50
  -5   9   0   22.50   13.90
  -5   9   0   12.00    6.70
  -5   9   0   15.90    5.40
  -5   9   0   -1.70   17.60
   4  -9   0   -3.00    7.40
   4  -9   0    9.60    4.20
   4  -9   0   -4.00    7.70
   4  -9   0    6.10    5.90
   4  -9   0    3.60    8.90
  -4   9   0   -0.30    6.00
  -4   9   0   -0.60    5.20
  -4   9   0    3.20    6.90
   3  -9   0   -1.80    5.40
   3  -9   0    2.00    8.70
   3  -9   0   -1.60    7.30
   3  -9   0   -1.90    5.00
   3  -9   0    5.70    7.40
  -3   9   0   -1.80    5.50
   2  -9   0    9.50    8.70
   2  -9   0   -7.40    7.30
  -2   9   0    7.50    5.60
   1  -9   0   17.80    8.00
   1  -9   0   19.30    9.10
  -1   9   0   15.20    7.30
  -1   9   0   21.80    8.20
  -1   9   0   28.30    6.80
  -1   9   0   21.30   10.80
   0   9   0    6.50    9.60
   0   9   0   -2.50    7.70
   0   9   0    7.30    7.40
   0   9   0    1.90    9.20
   0   9   0   -0.50    6.40
   1   9   0   -2.40    9.90
   1   9   0    1.60    9.70
   1   9   0   10.50    8.10
   1   9   0    2.00    8.00
   1   9   0   12.00    8.40
   1   9   0    3.40    9.90
   2   9   0   17.80   10.60
   2   9   0   27.20   12.80
   2   9   0   25.60   11.00
   2   9   0    1.60   10.00
   2   9   0    1.10    9.50
   2   9   0    9.00    9.50
   2   9   0    1.60    8.90
   3   9   0   11.90   10.90
   3   9   0   26.50   12.10
   3   9   0  -12.70   10.60
   3   9   0   10.90   10.00
   3   9   0   15.50   10.70
   5 -10   0   21.40   14.00
   5 -10   0    2.40    8.10
   5 -10   0   14.00    8.90
   5 -10   0    9.30    8.30
   5 -10   0    7.00    6.70
  -5  10   0   14.00    5.60
  -5  10   0   16.30    8.50
  -5  10   0  -21.10   33.50
  -5  10   0   19.10   20.40
  -5  10   0    2.70    7.00
   4 -10   0    4.00    8.10
   4 -10   0    8.60    7.80
   4 -10   0    8.40    5.80
   4 -10   0    1.90    9.20
   4 -10   0    1.40    7.00
  -4  10   0   12.80    7.40
  -4  10   0   25.30   21.50
  -4  10   0    1.70    5.60
  -4  10   0    3.60    6.20
  -4  10   0    7.00   16.80
   3 -10   0   40.90    6.70
   3 -10   0   34.80   10.10
   3 -10   0   44.30    8.90
   3 -10   0   31.20    9.10
  -3  10   0   37.40    6.80
  -3  10   0   42.00   13.60
  -3  10   0   31.30    9.10
  -3  10   0   32.20   11.90
  -3  10   0   40.30    6.20
   2 -10   0   15.40    9.90
   2 -10   0   15.20    7.90
  -2  10   0   33.60   11.90
  -2  10   0   31.50   12.50
  -2  10   0   20.90    6.90
   1 -10   0   24.10    8.30
   1 -10   0    9.20    9.40
  -1  10   0    1.20    6.60
  -1  10   0   11.20   10.50
  -1  10   0    4.60    7.60
  -1  10   0   14.80   11.10
  -1  10   0   14.00    8.20
   0  10   0   12.90    8.90
   0  10   0   10.70   10.40
   0  10   0   11.10   11.60
   0  10   0   -2.20    8.10
   1  10   0   10.20   11.10
   1  10   0   10.30    9.80
   1  10   0    8.90   10.00
   1  10   0    2.10    8.80
   2  10   0   68.89   14.30
   2  10   0   21.70   18.90
   2  10   0   36.10   11.20
   2  10   0   13.30   12.20
   2  10   0   36.10   15.20
   2  10   0   35.10   11.50
  -4  11   0   14.00    6.40
  -4  11   0  -31.20   21.20
  -4  11   0   18.00   19.60
   3 -11   0   18.70    9.50
   3 -11   0   13.30    8.70
   3 -11   0    2.70   11.80
  -3  11   0   20.00    6.40
  -3  11   0   25.40   16.50
  -3  11   0   11.50    6.60
  -3  11   0   24.90   12.90
   2 -11   0   34.60    9.00
   2 -11   0   21.40   18.60
  -2  11   0   37.20    9.50
  -2  11   0   37.70    9.80
  -2  11   0   36.70    7.90
  -2  11   0   33.20   12.20
  -2  11   0   46.30   13.10
  -1  11   0   14.20    9.20
  -1  11   0   39.40   13.70
  -1  11   0   19.10   12.40
  -1  11   0   23.40    9.90
   0  11  -1   -7.80    7.10
   0  11  -1    9.80   11.80
   0  11  -1   10.80    9.90
   0  11  -1    8.50    9.40
   0  11  -1   -0.10   12.20
  -1  11  -1    9.10    9.20
  -1  11  -1    6.80    7.00
  -1  11  -1   24.90   13.40
  -1  11  -1    4.40    8.50
  -1  11  -1    8.20   12.50
   1 -11   1   10.90   10.60
  -2  11  -1   29.90    7.40
  -2  11  -1   33.80   13.50
  -2  11  -1   39.60    9.20
  -2  11  -1   21.30   11.50
  -2  11  -1   14.60   16.40
   2 -11   1   34.80    8.80
   2 -11   1   38.90   10.30
  -3  11  -1   -5.10    6.30
  -3  11  -1   32.10   15.20
  -3  11  -1  -13.80   14.40
  -3  11  -1   13.10    6.00
  -3  11  -1   12.00    6.50
   3 -11   1    6.80    9.90
   3 -11   1    5.30    7.30
  -4  11  -1   21.60    6.70
  -4  11  -1   48.50   18.10
  -4  11  -1  -24.60   20.40
  -4  11  -1   15.30    7.80
  -4  11  -1   12.00    6.90
   4 -11   1   13.80    8.80
   4 -11   1   11.20    7.60
   4 -11   1    2.10   12.20
   2  10  -1   10.40   11.50
   2  10  -1   14.50   10.00
   2  10  -1   26.70   11.10
   2  10  -1   10.10   11.90
   2  10  -1   -2.10   10.80
   2  10  -1   -8.60   11.70
   2  10  -1   11.20   10.70
   1  10  -1   24.30   11.50
   1  10  -1    4.60    8.10
   1  10  -1   10.90    8.60
   1  10  -1    0.20    7.10
   1  10  -1   13.20   10.70
   0  10  -1   56.19   12.80
   0  10  -1   50.49    9.20
   0  10  -1   80.19   14.00
   0  10  -1   67.39    9.40
   0  10  -1   66.09    8.40
  -1  10  -1   14.00   10.50
  -1  10  -1    0.00    7.00
  -1  10  -1   14.00    6.70
  -1  10  -1    5.40   11.00
  -1  10  -1   -3.80    7.50
   1 -10   1    2.10    9.10
  -2  10  -1   71.29    7.80
   2 -10   1   70.99   10.60
   2 -10   1   64.49    8.70
   2 -10   1   69.69    9.70
  -3  10  -1   75.79    7.40
  -3  10  -1   59.09   13.60
  -3  10  -1   58.29   14.10
  -3  10  -1   63.19    6.70
  -3  10  -1   71.39    7.80
   3 -10   1   82.79    7.30
   3 -10   1   67.69   11.20
   3 -10   1   53.99    9.20
  -4  10  -1    8.00    6.10
  -4  10  -1    3.30    7.20
  -4  10  -1    0.90   16.80
  -4  10  -1   11.70    7.30
  -4  10  -1   23.20   13.30
   4 -10   1   12.50    6.40
   4 -10   1   29.50    7.70
   4 -10   1    5.90    8.30
   4 -10   1   11.80    9.80
   4 -10   1   19.30    7.40
  -5  10  -1   50.69   22.30
  -5  10  -1  -54.79   33.70
  -5  10  -1   30.10    8.80
  -5  10  -1   37.90   10.10
  -5  10  -1   17.90    7.10
   5 -10   1   30.20    8.60
   5 -10   1   21.70    9.80
   5 -10   1   26.10    7.30
   5 -10   1   23.40    8.20
   5 -10   1   18.50   11.60
   3   9  -1   28.20   12.30
   3   9  -1   26.30   16.50
   3   9  -1   20.90   18.00
   3   9  -1   47.40   11.30
   3   9  -1   -5.90   10.80
   3   9  -1    5.30   11.30
   2   9  -1   -1.10    9.50
   2   9  -1    7.00    8.70
   2   9  -1    4.30    9.80
   2   9  -1    1.60    8.70
   2   9  -1   12.40    9.60
   2   9  -1    8.30    8.70
   2   9  -1    5.10   10.00
   1   9  -1   10.40    8.10
   1   9  -1   -2.10    9.10
   1   9  -1   -6.40    9.20
   1   9  -1   11.10    7.10
   1   9  -1   14.20    7.80
   1   9  -1   -6.70    7.10
   1   9  -1   -4.70    9.30
   1   9  -1   -0.30    9.70
   0   9  -1   12.10    9.60
   0   9  -1    6.50    6.70
   0   9  -1    4.90    9.90
   0   9  -1   17.00    6.30
   0   9  -1    7.70    8.10
   0   9  -1    2.60    7.80
  -1   9  -1    8.60    6.50
  -1   9  -1   -1.70    7.10
  -1   9  -1    1.20    6.70
  -1   9  -1   -2.80    5.70
  -1   9  -1    8.00    6.40
   1  -9   1   -0.10    7.00
   1  -9   1   -0.60    8.10
   1  -9   1   -4.50    7.10
  -2   9  -1   86.49    7.40
  -2   9  -1   83.29    6.00
   2  -9   1   64.09    8.20
   2  -9   1   65.09    9.70
   2  -9   1   71.69    9.60
  -3   9  -1   -0.60    6.40
  -3   9  -1   -5.40    6.10
   3  -9   1    3.90    5.20
   3  -9   1    5.40    5.70
   3  -9   1    5.70    6.70
   3  -9   1   -0.60    8.80
   3  -9   1    2.50    7.50
  -4   9  -1   84.89    7.90
  -4   9  -1  112.79    9.00
   4  -9   1  101.39    9.40
   4  -9   1   80.99    9.90
   4  -9   1  117.69   11.20
   4  -9   1   97.59   11.80
  -5   9  -1  307.67   14.60
  -5   9  -1  308.97   13.20
  -5   9  -1  316.07   30.00
   5  -9   1  295.97   13.20
   5  -9   1  313.47   13.80
   5  -9   1  301.27   13.80
   5  -9   1  275.67   16.20
  -6   9  -1   33.70    8.40
  -6   9  -1   61.19   10.30
  -6   9  -1  113.39   22.20
   6  -9   1   39.60    9.20
   6  -9   1   32.70    8.60
   6  -9   1   44.00   10.80
   6  -9   1   35.00    8.20
   4   8  -1   22.90   11.20
   4   8  -1    8.10    9.00
   4   8  -1    5.20   16.40
   4   8  -1   -2.20   11.10
   3   8  -1    6.10   10.50
   3   8  -1    4.30    7.60
   3   8  -1   14.40    8.50
   3   8  -1  -23.50    9.40
   3   8  -1    2.20    9.20
   3   8  -1  -16.70    9.50
   3   8  -1    2.30    8.50
   2   8  -1  110.59   10.50
   2   8  -1   93.69   10.20
   2   8  -1   88.49    8.50
   2   8  -1   93.89   10.10
   2   8  -1   86.59   11.40
   2   8  -1  107.09   11.10
   2   8  -1  119.99   14.00
   2   8  -1   88.59    9.10
   2   8  -1   77.89    9.90
   1   8  -1  171.98   12.60
   1   8  -1  172.58   12.60
   1   8  -1  175.38   10.90
   1   8  -1  182.88   13.00
   1   8  -1  203.28   14.10
   1   8  -1  184.88   12.70
   1   8  -1  159.88   14.60
   1   8  -1  151.58   14.80
   1   8  -1  176.28   14.10
   0   8  -1   66.29   10.30
   0   8  -1   86.29    8.70
   0   8  -1   68.89   13.20
   0   8  -1   64.69   10.30
   0   8  -1   74.19   12.90
   0   8  -1   68.59    8.20
  -1   8  -1  293.07   17.00
  -1   8  -1  309.67   11.30
  -1   8  -1  287.97   15.70
  -1   8  -1  312.87   12.30
   1  -8   1  311.17   12.90
   1  -8   1  268.17   17.10
   1  -8   1  297.37   14.50
  -2   8  -1  113.59    8.60
  -2   8  -1  115.89   13.00
  -2   8  -1  113.49    7.80
  -2   8  -1  100.79    9.20
  -2   8  -1  100.79   13.50
  -2   8  -1  107.69    8.20
   2  -8   1  110.19   10.40
   2  -8   1  109.19    6.90
   2  -8   1  117.99    7.50
   2  -8   1  122.79   12.00
   2  -8   1  114.59   11.30
  -3   8  -1    7.00    9.00
  -3   8  -1   12.30    9.70
  -3   8  -1    8.90    5.70
  -3   8  -1    1.70    6.10
   3  -8   1    1.90    7.70
   3  -8   1   -6.60    5.10
   3  -8   1    1.10    6.30
   3  -8   1   11.70   10.30
   3  -8   1    5.10    5.30
  -4   8  -1   -2.70    6.20
  -4   8  -1    0.90   11.80
  -4   8  -1   11.10    9.70
  -4   8  -1    0.70    6.80
   4  -8   1   -3.40    6.10
   4  -8   1    2.60    6.20
   4  -8   1    5.70    6.60
   4  -8   1   25.40    8.00
  -5   8  -1   17.60   14.30
  -5   8  -1   79.29   14.00
  -5   8  -1   43.70    7.70
  -5   8  -1   53.69    8.60
   5  -8   1   61.49   10.00
   5  -8   1   53.79    8.30
   5  -8   1   64.99   11.50
  -6   8  -1   -0.20    7.50
  -6   8  -1   10.50    9.40
  -6   8  -1   50.29   15.20
   6  -8   1   16.10   10.60
   6  -8   1   24.60    8.40
  -7   8  -1   38.20   11.50
   7  -8   1   29.20   16.70
   7  -8   1   21.90    9.30
   5   7  -1   26.30   10.00
   5   7  -1   30.10   10.80
   5   7  -1  -14.40   11.40
   5   7  -1   31.30    9.60
  -5  -7   1   15.50   10.10
  -5  -7   1   17.00    8.90
   4   7  -1    8.50    8.50
   4   7  -1   21.50   10.30
   4   7  -1   11.20    8.10
   4   7  -1    7.00    7.80
   4   7  -1    1.80   10.80
  -4  -7   1    2.10    7.60
   3   7  -1   94.99   12.90
   3   7  -1   86.69    8.80
   3   7  -1   97.19   10.10
   3   7  -1  107.69   10.70
   3   7  -1   98.19   10.80
   3   7  -1   94.39    9.70
   3   7  -1   92.99   12.70
   3   7  -1  107.39   13.80
  -3  -7   1   94.49    9.20
   2   7  -1  243.78   13.20
   2   7  -1  224.08   13.20
   2   7  -1  236.48   12.60
   2   7  -1  223.38   14.10
   2   7  -1  221.38   13.80
   2   7  -1  207.88   12.00
   2   7  -1  234.88   13.70
   2   7  -1  215.58   11.00
   2   7  -1  235.18   15.00
   1   7  -1   93.29   10.40
   1   7  -1  103.49   12.40
   1   7  -1  111.49   10.20
   1   7  -1   99.39   11.00
   1   7  -1   95.19    8.40
   1   7  -1  100.79   10.40
   1   7  -1   87.09   11.50
   1   7  -1  103.39   11.30
   0   7  -1    5.50    5.40
   0   7  -1    4.20    6.10
   0   7  -1   -0.50    4.50
   0   7  -1    7.40    6.60
   0   7  -1   -1.30    5.60
   0   7  -1    0.90    8.00
   0   7  -1    3.60    6.00
   0   7  -1    5.70    7.40
   0  -7   1   -6.70    6.90
   0  -7   1    7.60    5.80
  -1   7  -1   45.80    5.50
  -1   7  -1   47.30    5.90
  -1   7  -1   36.00    8.20
  -1   7  -1   35.00    7.70
   1  -7   1   51.19    6.50
   1  -7   1   51.39    7.50
   1  -7   1   46.60    7.10
  -2   7  -1    4.10    6.90
  -2   7  -1   13.00    7.80
  -2   7  -1   12.50    4.70
  -2   7  -1   13.40    4.90
  -2   7  -1   11.10    4.40
   2  -7   1   19.20    4.40
   2  -7   1   10.60    7.00
   2  -7   1    7.30    5.40
   2  -7   1   15.10    6.50
   2  -7   1   11.70    4.30
  -3   7  -1  134.79   14.50
  -3   7  -1  116.89   12.30
  -3   7  -1  129.79    8.80
  -3   7  -1  119.09    9.30
   3  -7   1  140.09   11.70
   3  -7   1  135.69   10.50
   3  -7   1  125.79    9.50
   3  -7   1  120.39   14.10
   3  -7   1  116.69    8.20
  -4   7  -1    4.60    9.10
  -4   7  -1    3.80   12.40
  -4   7  -1    7.00    6.20
  -4   7  -1    8.30    6.60
   4  -7   1   -0.80    5.70
   4  -7   1    1.20    6.20
   4  -7   1    2.80    9.10
  -5   7  -1   24.30   19.90
  -5   7  -1    5.40    7.60
  -5   7  -1   -1.90    6.90
  -5   7  -1   -0.40   13.30
   5  -7   1    0.40    7.30
   5  -7   1   14.50   11.80
   5  -7   1   -1.60    4.20
  -6   7  -1    5.70    8.90
  -6   7  -1   25.40   14.20
  -6   7  -1    9.30    7.10
   6  -7   1   19.60   10.30
   6  -7   1   24.40    7.90
  -7   7  -1   25.50   10.20
  -7   7  -1   32.50   13.80
  -7   7  -1   20.80    8.70
   7  -7   1   31.00    8.70
   7  -7   1   16.70    9.00
   7  -7   1   19.50   10.50
   6   6  -1   27.40   11.20
  -6  -6   1   21.50    9.10
  -6  -6   1   29.50    8.90
  -6  -6   1   14.20    9.70
   5   6  -1    9.70    8.90
  -5  -6   1    6.80   13.00
  -5  -6   1   14.60    8.90
  -5  -6   1    5.40    7.00
   4   6  -1   66.49    8.60
   4   6  -1   57.89    9.70
   4   6  -1   47.70    9.40
   4   6  -1   79.79   10.80
  -4  -6   1   63.49    9.00
  -4  -6   1   75.19    9.70
  -4  -6   1   62.89    7.90
   3   6  -1  117.19   10.90
   3   6  -1  107.59   12.40
   3   6  -1  110.29   12.40
   3   6  -1  100.59   13.30
   3   6  -1  106.59   11.60
   3   6  -1   82.79    8.90
  -3  -6   1  114.69   12.30
  -3  -6   1  107.29   13.50
   2   6  -1  260.87   12.00
   2   6  -1  272.97   11.10
   2   6  -1  265.87   12.20
   2   6  -1  265.47   12.30
   2   6  -1  271.27   13.60
   2   6  -1  271.77   12.20
   2   6  -1  271.67   10.80
   2   6  -1  282.27   13.20
   2   6  -1  276.57   11.50
   1   6  -1   35.90    6.30
   1   6  -1   38.80    5.60
   1   6  -1   43.80    7.80
   1   6  -1   49.30    7.20
   1   6  -1   33.30    6.30
   1   6  -1   32.70    7.20
   1   6  -1   47.80    5.80
   1   6  -1   44.80    5.90
   1   6  -1   42.10    6.60
   0   6  -1  242.58   10.30
   0   6  -1  236.58   10.50
   0   6  -1  257.57   10.70
   0   6  -1  246.58    9.00
   0   6  -1  228.08   12.50
   0   6  -1  239.88   10.20
   0   6  -1  241.88    9.10
   0   6  -1  231.08   12.20
   0  -6   1  236.78   11.10
   0  -6   1  252.07   10.00
   0  -6   1  234.08   10.60
  -1   6  -1 1461.65   26.30
  -1   6  -1 1411.76   26.50
  -1   6  -1 1421.16   31.40
  -1   6  -1 1443.56   24.80
  -1   6  -1 1416.16   30.70
   1  -6   1 1425.46   28.10
   1  -6   1 1454.45   28.40
   1  -6   1 1476.35   27.50
   1  -6   1 1415.76   24.60
  -2   6  -1  407.56   15.00
  -2   6  -1  411.96   10.50
  -2   6  -1  413.96   10.20
  -2   6  -1  422.66   10.70
  -2   6  -1  416.16   16.10
   2  -6   1  415.76   16.40
   2  -6   1  422.46   10.30
   2  -6   1  412.86   11.80
   2  -6   1  421.86   13.40
   2  -6   1  414.06   13.80
   2  -6   1  425.36   10.30
  -3   6  -1  112.19    7.80
  -3   6  -1  116.09   13.30
  -3   6  -1  111.29   10.70
  -3   6  -1  108.39    8.20
   3  -6   1  104.79    7.50
   3  -6   1  106.59   12.20
   3  -6   1  114.09    8.70
  -4   6  -1  229.58   18.00
  -4   6  -1  240.88   11.20
  -4   6  -1  218.08   13.60
  -4   6  -1  233.38   10.60
   4  -6   1  244.68   15.10
   4  -6   1  252.97   10.70
   4  -6   1  232.18   10.40
  -5   6  -1   20.30    7.30
  -5   6  -1   24.20    7.90
  -5   6  -1    9.70    9.40
   5  -6   1   25.20    7.40
   5  -6   1   20.00    9.30
  -6   6  -1   12.90   11.70
  -6   6  -1   -9.20    7.10
  -6   6  -1    6.90    7.80
   6  -6   1    3.90    7.80
   6  -6   1    3.20    9.10
  -7   6  -1    9.20    9.70
  -7   6  -1    5.20    8.90
   7  -6   1   12.90   11.80
   7  -6   1   10.70   10.10
   7  -6   1    5.50    8.50
  -8   6  -1   15.00   11.50
   8  -6   1    0.50    9.90
   8  -6   1   11.20   10.00
   7   5  -1   21.80   12.60
   7   5  -1   13.50    6.80
   7   5  -1   -0.50    7.40
  -7  -5   1   15.90   10.70
  -7  -5   1   17.00    9.30
  -7  -5   1    5.90    7.10
  -7  -5   1   -5.50    9.00
   6   5  -1  124.39    9.70
   6   5  -1  102.39   12.40
   6   5  -1  118.09    9.10
  -6  -5   1  102.59   10.20
  -6  -5   1  135.59   14.50
  -6  -5   1  126.99   13.10
  -6  -5   1  118.99    8.80
   5   5  -1  511.15   12.50
   5   5  -1  508.55   17.50
  -5  -5   1  512.55   12.10
  -5  -5   1  479.05   16.40
  -5  -5   1  495.95   19.20
  -5  -5   1  477.65   17.10
   4   5  -1  201.88   12.00
   4   5  -1  199.68   12.80
   4   5  -1  193.28   12.30
   4   5  -1  199.78   13.00
  -4  -5   1  184.58   12.90
  -4  -5   1  188.98   12.30
  -4  -5   1  210.68   16.30
   3   5  -1  400.36   14.20
   3   5  -1  402.56   14.70
   3   5  -1  429.06   14.50
   3   5  -1  418.96   13.30
   3   5  -1  412.56   12.90
   3   5  -1  407.96   14.30
  -3  -5   1  420.96   13.80
  -3  -5   1  430.46   13.10
  -3  -5   1  413.96   14.70
   2   5  -1  333.17   12.40
   2   5  -1  301.17   11.70
   2   5  -1  308.27   10.80
   2   5  -1  320.27   12.90
   2   5  -1  314.67   10.50
   2   5  -1  328.37   11.90
   2   5  -1  315.97   11.90
   2   5  -1  317.87   11.60
   2   5  -1  312.27   10.60
  -2  -5   1  328.87   10.80
  -2  -5   1  314.27   12.40
   1   5  -1    3.40    5.00
   1   5  -1    6.10    5.70
   1   5  -1    5.70    3.90
   1   5  -1   -0.90    5.70
   1   5  -1    9.50    4.80
   1   5  -1   12.10    5.20
   1   5  -1    9.90    4.40
   1   5  -1    5.20    4.50
   1   5  -1    2.30    4.60
   0   5  -1  213.38   11.10
   0   5  -1  224.48   10.20
   0   5  -1  215.78   11.30
   0   5  -1  219.38    9.50
   0   5  -1  215.48    9.70
   0   5  -1  225.88    9.40
   0   5  -1  219.18    8.10
   0   5  -1  222.08    8.50
   0  -5   1  227.88    9.50
   0  -5   1  211.88   10.00
   0  -5   1  216.38    9.10
  -1   5  -1   16.20    6.80
  -1   5  -1   16.00    3.70
  -1   5  -1   24.80    4.20
  -1   5  -1   21.90    6.60
  -1   5  -1   18.20    3.50
   1  -5   1   22.00    5.70
   1  -5   1   18.30    5.50
   1  -5   1   10.80    6.50
   1  -5   1   25.20    3.50
   1  -5   1   26.10    3.50
   1  -5   1   20.10    4.60
  -2   5  -1   23.40    6.70
  -2   5  -1   11.60    6.80
  -2   5  -1   15.10    4.30
  -2   5  -1   21.40    4.50
   2  -5   1   21.90    4.10
   2  -5   1   17.80    4.40
   2  -5   1   12.90    7.00
   2  -5   1   19.60    4.00
  -3   5  -1 1278.77   24.50
  -3   5  -1 1310.87   24.60
  -3   5  -1 1307.27   27.70
  -3   5  -1 1302.07   29.00
   3  -5   1 1343.67   24.70
   3  -5   1 1330.77   28.90
   3  -5   1 1278.67   24.40
  -4   5  -1    2.50    6.50
  -4   5  -1    7.90    5.90
  -4   5  -1    5.50    5.40
  -4   5  -1   11.20    8.70
   4  -5   1    8.00    7.20
   4  -5   1   -0.10    5.60
   4  -5   1    9.00    5.00
  -5   5  -1   35.20    6.90
  -5   5  -1   36.40    8.90
  -5   5  -1   42.30    7.30
   5  -5   1   32.60    7.00
   5  -5   1   40.30    6.90
   5  -5   1   34.90    9.00
  -6   5  -1   -2.20    7.20
  -6   5  -1  -13.00    8.70
  -6   5  -1    4.20    7.80
   6  -5   1    5.60    8.30
   6  -5   1   -1.90    7.50
   6  -5   1    1.70    6.80
  -7   5  -1   20.20    8.80
  -7   5  -1   27.10    8.20
   7  -5   1   34.00    9.10
   7  -5   1   25.40    8.30
   7  -5   1   44.30    9.80
  -8   5  -1   14.70   10.80
  -8   5  -1   24.10    9.50
   8  -5   1   18.50    9.70
   8  -5   1   34.50   11.50
   8  -5   1    0.40    9.60
   7   4  -1   69.99    8.30
   7   4  -1   54.79   11.20
   7   4  -1   84.09    8.80
  -7  -4   1   74.19    8.10
  -7  -4   1   66.29   10.40
  -7  -4   1   72.79   10.20
  -7  -4   1   87.59   13.40
  -7  -4   1   39.80    6.40
   6   4  -1   -2.70    6.00
   6   4  -1    4.20    6.50
   6   4  -1    0.90   10.40
  -6  -4   1   -4.40    8.00
  -6  -4   1    9.80    5.60
  -6  -4   1    5.00    5.90
  -6  -4   1   10.50   10.70
  -6  -4   1    5.70    7.70
   5   4  -1   41.70    8.50
   5   4  -1   44.80    6.10
   5   4  -1   34.90    8.20
   5   4  -1   35.00    5.70
  -5  -4   1   38.20    9.60
  -5  -4   1   27.60    9.30
  -5  -4   1   36.80    8.20
  -5  -4   1   34.20    6.60
  -5  -4   1   37.20    5.30
   4   4  -1    1.90    4.30
   4   4  -1    4.80    4.40
   4   4  -1   10.70    7.00
   4   4  -1    7.70    5.90
   4   4  -1   -6.40    5.60
   4   4  -1    7.30    6.00
  -4  -4   1    7.20    4.00
  -4  -4   1   -9.60    7.20
  -4  -4   1    3.40    4.00
  -4  -4   1    1.90    6.30
  -4  -4   1    3.90    5.80
   3   4  -1   89.69    8.80
   3   4  -1  101.09    8.60
   3   4  -1  102.79    7.80
   3   4  -1   99.09    8.80
  -3  -4   1  104.39    9.30
  -3  -4   1   94.19    8.90
  -3  -4   1  107.99    7.90
   2   4  -1   29.20    6.20
   2   4  -1   33.90    6.20
   2   4  -1   25.50    5.70
   2   4  -1   24.80    4.80
   2   4  -1   23.60    5.20
   2   4  -1   22.70    4.80
   2   4  -1   24.90    5.30
   2   4  -1   32.10    5.20
   2   4  -1   27.30    5.70
  -2  -4   1   33.80    5.70
  -2  -4   1   25.30    5.60
  -2  -4   1   25.50    5.10
   1   4  -1   67.69    7.30
   1   4  -1   61.49    6.80
   1   4  -1   62.69    6.40
   1   4  -1   69.39    7.30
   1   4  -1   71.59    6.30
   1   4  -1   69.79    6.20
   1   4  -1   64.09    6.80
   1   4  -1   54.89    6.60
   1   4  -1   62.49    7.90
   0   4  -1  798.32   18.50
   0   4  -1  791.72   16.70
   0   4  -1  808.12   18.70
   0   4  -1  823.82   15.80
   0   4  -1  801.72   16.30
   0   4  -1  799.72   15.80
   0   4  -1  783.12   16.50
   0  -4   1  806.32   16.80
   0  -4   1  788.62   16.80
   0  -4   1  831.12   17.90
   0  -4   1  820.42   19.30
  -1   4  -1  473.35   10.10
  -1   4  -1  469.15   14.00
  -1   4  -1  467.05   13.50
  -1   4  -1  478.75   10.80
  -1   4  -1  469.15    9.90
   1  -4   1  458.35   14.20
   1  -4   1  465.05   12.20
   1  -4   1  466.85   10.80
   1  -4   1  468.25    9.70
   1  -4   1  471.75    9.70
  -2   4  -1    0.20    4.10
  -2   4  -1    1.90    5.70
  -2   4  -1    2.80    6.30
   2  -4   1   -6.10    5.70
   2  -4   1   -0.50    3.80
   2  -4   1    2.30    3.80
  -3   4  -1  846.02   19.40
  -3   4  -1  852.81   17.40
  -3   4  -1  825.22   21.00
  -3   4  -1  839.62   17.30
   3  -4   1  859.71   17.30
   3  -4   1  835.82   17.20
   3  -4   1  847.52   20.70
  -4   4  -1   18.70    5.80
  -4   4  -1   21.40    6.20
  -4   4  -1   23.00    5.90
   4  -4   1   18.60    7.00
   4  -4   1   20.90    5.40
   4  -4   1   19.60    5.60
  -5   4  -1   73.99    7.50
  -5   4  -1   76.79    8.20
  -5   4  -1   79.99    8.70
   5  -4   1   72.79    8.10
   5  -4   1   65.19    9.00
  -6   4  -1  150.68   13.90
  -6   4  -1  158.38   12.20
   6  -4   1  158.68   14.80
   6  -4   1  156.38   14.30
   6  -4   1  145.49   11.60
  -7   4  -1   16.70    8.20
  -7   4  -1    4.60    8.50
   7  -4   1    7.90    7.70
   7  -4   1   17.40    9.00
   7  -4   1   13.90    8.80
  -8   4  -1   -4.70   10.40
  -8   4  -1    0.90    8.50
   8  -4   1   -5.80   12.40
   8  -4   1   -5.40    8.00
   7   3  -1   14.60    7.00
   7   3  -1    8.80    7.90
  -7  -3   1    8.90   11.40
  -7  -3   1    3.90    6.50
  -7  -3   1   13.80    7.70
  -7  -3   1   13.90    7.00
  -7  -3   1   17.10   10.20
   6   3  -1   98.09    8.10
   6   3  -1  101.19    9.60
  -6  -3   1   74.09    8.20
  -6  -3   1   85.49    7.50
  -6  -3   1   99.29    7.60
  -6  -3   1   84.49   10.60
  -6  -3   1   99.49   11.60
   5   3  -1   13.90    5.50
   5   3  -1   18.80    5.60
   5   3  -1   19.90    7.30
  -5  -3   1   11.40    5.50
  -5  -3   1   15.80    6.50
  -5  -3   1    7.50    5.20
  -5  -3   1   14.00    8.10
  -5  -3   1   12.90    9.10
   4   3  -1    5.10    5.70
   4   3  -1   12.80    4.20
   4   3  -1   20.30    4.50
  -4  -3   1    9.30    7.30
  -4  -3   1   14.20    6.40
  -4  -3   1    6.90    4.00
  -4  -3   1    7.50    5.00
  -4  -3   1    4.60    4.10
   3   3  -1  833.82   18.00
   3   3  -1  844.52   18.20
   3   3  -1  845.52   15.70
   3   3  -1  866.81   15.70
   3   3  -1  845.32   18.10
  -3  -3   1  825.62   18.50
  -3  -3   1  854.91   15.60
  -3  -3   1  838.32   15.60
  -3  -3   1  859.21   19.40
  -3  -3   1  837.92   17.80
   2   3  -1  897.61   17.70
   2   3  -1  872.01   18.70
   2   3  -1  914.31   18.80
   2   3  -1  901.61   18.00
   2   3  -1  864.11   18.70
   2   3  -1  881.11   18.60
  -2  -3   1  896.01   18.50
  -2  -3   1  874.61   18.80
  -2  -3   1  887.91   17.80
  -2  -3   1  878.01   18.80
   1   3  -1  116.09    5.70
   1   3  -1  114.89    6.90
   1   3  -1  110.59    6.50
   1   3  -1  119.29    6.40
   1   3  -1  118.59    5.60
   1   3  -1  118.89    6.10
   1   3  -1  117.19    5.80
   1   3  -1  113.19    7.00
   1   3  -1  118.79    6.50
  -1  -3   1  120.79    7.50
  -1  -3   1  127.19   10.60
  -1  -3   1  131.59    8.50
   0   3  -1 2329.17   40.90
   0   3  -1 2328.17   41.20
   0   3  -1 2320.97   39.10
   0   3  -1 2314.47   39.30
   0  -3   1 2359.26   39.40
   0  -3   1 2323.27   41.10
   0  -3   1 2308.47   39.00
   0  -3   1 2387.06   41.20
   0  -3   1 2311.87   39.20
  -1   3  -1 1594.44   30.20
  -1   3  -1 1621.24   27.20
  -1   3  -1 1612.14   27.20
  -1   3  -1 1654.53   29.90
   1  -3   1 1581.34   27.20
   1  -3   1 1649.93   27.20
   1  -3   1 1606.64   27.10
  -2   3  -1  234.98    9.00
  -2   3  -1  236.28   10.80
  -2   3  -1  227.28    7.50
  -2   3  -1  255.07    7.70
   2  -3   1  233.48    7.40
   2  -3   1  236.78   10.40
   2  -3   1  240.38    7.40
  -3   3  -1  196.08    8.70
  -3   3  -1  213.28    9.10
  -3   3  -1  212.58    8.50
   3  -3   1  205.88    8.30
   3  -3   1  205.68   10.90
   3  -3   1  204.68    8.30
  -4   3  -1  448.86   12.40
  -4   3  -1  443.06   12.40
  -4   3  -1  439.86   12.30
   4  -3   1  448.06   14.60
   4  -3   1  443.26   12.30
   4  -3   1  451.05   12.40
  -5   3  -1  397.66   13.00
  -5   3  -1  392.36   13.10
   5  -3   1  408.26   13.10
   5  -3   1  403.06   13.20
   5  -3   1  397.66   15.20
  -6   3  -1  129.39   11.60
  -6   3  -1  130.49   11.60
   6  -3   1  139.49   13.60
   6  -3   1  127.69   11.80
  -7   3  -1  109.99   10.40
  -7   3  -1   90.59   10.00
   7  -3   1  109.39   10.40
   7  -3   1   90.59   10.10
  -8   3  -1   60.49    9.50
  -8   3  -1   97.89   11.80
   8  -3   1  117.39   12.10
   8  -3   1   57.59   10.00
   8   2  -1   59.59    8.80
   8   2  -1   57.29   10.00
  -8  -2   1   63.39    8.70
  -8  -2   1   39.30   12.50
  -8  -2   1   36.70    9.20
  -8  -2   1   35.10   13.20
  -8  -2   1   34.90    8.80
   7   2  -1   48.30    7.90
   7   2  -1   50.39    8.30
  -7  -2   1   42.40    7.70
  -7  -2   1   37.20    7.80
  -7  -2   1   39.90   13.00
   6   2  -1   57.49   11.50
   6   2  -1   66.69    7.60
  -6  -2   1   72.19    7.50
  -6  -2   1   63.89    7.90
  -6  -2   1   63.29    7.10
   5   2  -1   71.99    6.50
   5   2  -1   85.49    7.70
   5   2  -1   85.29    8.20
  -5  -2   1   82.29    7.80
  -5  -2   1   76.39    6.30
  -5  -2   1   76.49    7.20
   4   2  -1 1096.79   24.90
   4   2  -1 1078.19   20.40
   4   2  -1 1074.79   21.60
  -4  -2   1 1045.60   20.10
  -4  -2   1 1070.99   20.30
  -4  -2   1 1087.09   21.60
   3   2  -1   60.49    5.40
   3   2  -1   69.59    5.90
   3   2  -1   64.89    4.60
  -3  -2   1   66.19    5.10
  -3  -2   1   80.59    7.60
  -3  -2   1   68.49    5.80
  -3  -2   1   79.99    8.80
  -3  -2   1   55.49    5.40
   2   2  -1    8.60    2.50
   2   2  -1    7.00    2.40
   2   2  -1    9.00    3.00
   2   2  -1    6.00    3.40
   2   2  -1    7.10    4.00
   2   2  -1    3.20    3.40
  -2  -2   1    5.50    3.30
  -2  -2   1    9.50    4.80
  -2  -2   1   11.60    5.20
  -2  -2   1    7.70    2.30
  -2  -2   1    0.90    3.70
  -2  -2   1    8.00    2.40
   1   2  -1  310.17    8.00
   1   2  -1  295.07    8.90
   1   2  -1  294.07    7.80
   1   2  -1  297.07    9.00
   1   2  -1  306.47    8.10
   1   2  -1  298.67    8.90
   1   2  -1  295.17    9.00
  -1  -2   1  288.87    9.00
  -1  -2   1  291.87    9.00
  -1  -2   1  294.67    8.80
  -1  -2   1  302.17    7.70
  -1  -2   1  300.67    8.80
   0   2  -1 1568.24   26.20
   0   2  -1 1573.94   25.50
   0   2  -1 1556.24   28.00
   0   2  -1 1549.14   25.50
   0   2  -1 1535.95   28.20
   0  -2   1 1547.95   25.40
   0  -2   1 1569.34   26.80
   0  -2   1 1541.85   28.20
   0  -2   1 1585.34   28.10
   0  -2   1 1564.94   26.50
  -1   2  -1   17.80    5.60
  -1   2  -1   13.00    3.40
  -1   2  -1    8.60    3.50
  -1   2  -1   -2.10    4.60
   1  -2   1    6.20    5.20
   1  -2   1    2.00    4.50
   1  -2   1    6.30    3.20
  -2   2  -1  972.40   18.00
  -2   2  -1  946.81   21.60
  -2   2  -1  989.60   18.50
   2  -2   1  970.80   19.90
   2  -2   1  984.00   18.00
   2  -2   1  955.90   17.80
  -3   2  -1  104.69    7.40
  -3   2  -1   93.59    7.10
  -3   2  -1   82.79    6.30
   3  -2   1   96.59    7.10
   3  -2   1   96.79   11.50
   3  -2   1   93.69    6.90
  -4   2  -1  391.16   11.50
  -4   2  -1  368.86   11.00
  -4   2  -1  341.27   10.00
   4  -2   1  373.76   13.10
   4  -2   1  366.06   11.10
   4  -2   1  350.16   10.90
  -5   2  -1   22.80    5.90
  -5   2  -1   26.70    5.00
  -5   2  -1   34.80    6.40
   5  -2   1   30.20    6.50
   5  -2   1   32.70    7.30
   5  -2   1   29.20    6.30
  -6   2  -1  288.97   10.80
  -6   2  -1  257.17   13.20
  -6   2  -1  278.47   13.10
   6  -2   1  285.77   14.60
   6  -2   1  280.67   14.50
   6  -2   1  276.97   13.20
  -7   2  -1   -5.30    8.20
  -7   2  -1   -3.10    7.90
   7  -2   1   -6.80    7.40
   7  -2   1   -4.40    8.20
  -8   2  -1   -6.30    9.10
  -8   2  -1    7.20    9.20
   8  -2   1   -1.20   10.10
   8  -2   1   -0.40    8.30
   8   1  -1   64.09    9.20
   8   1  -1   50.89    9.90
  -8  -1   1   56.39    9.40
  -8  -1   1   45.00    8.60
  -8  -1   1   45.00    9.10
   7   1  -1   38.40    8.30
   7   1  -1   21.80    7.30
  -7  -1   1   17.50    7.60
  -7  -1   1   19.10    7.50
   6   1  -1   13.30    6.50
   6   1  -1    3.60    6.50
  -6  -1   1   13.40    6.70
  -6  -1   1    3.30    6.00
  -6  -1   1   -0.70    6.40
   5   1  -1   -0.30    5.30
   5   1  -1    3.80    4.90
   5   1  -1    4.20    5.00
  -5  -1   1    4.30    4.60
  -5  -1   1    3.30    5.20
  -5  -1   1    5.60    5.20
   4   1  -1  147.99    7.70
   4   1  -1  148.89    7.30
   4   1  -1  147.79    7.40
  -4  -1   1  139.69    7.50
  -4  -1   1  156.28    7.40
  -4  -1   1  155.88    7.20
   3   1  -1 2390.46   40.70
   3   1  -1 2435.76   40.20
   3   1  -1 2356.96   40.00
  -3  -1   1 2317.17   40.00
  -3  -1   1 2429.56   40.10
  -3  -1   1 2428.56   40.60
   2   1  -1 4251.37   69.09
   2   1  -1 4219.68   67.99
   2   1  -1 4148.08   67.59
   2   1  -1 4145.08   67.49
  -2  -1   1 4164.18   68.09
  -2  -1   1 4209.38   67.59
  -2  -1   1 4237.48   67.99
  -2  -1   1 4136.59   67.49
   1   1  -1   23.50    3.70
   1   1  -1   13.60    2.20
   1   1  -1   19.30    3.60
   1   1  -1   17.10    2.60
   1   1  -1   16.30    3.00
   1   1  -1   15.60    2.30
  -1  -1   1    6.70    3.00
  -1  -1   1   16.70    1.90
  -1  -1   1   14.80    2.20
  -1  -1   1   17.60    3.80
  -1  -1   1   19.80    4.30
  -1  -1   1   17.30    4.20
   0   1  -1 1919.31   31.30
   0  -1   1 1918.31   32.60
  -1   1  -1 1268.37   22.00
  -1   1  -1 1302.17   22.30
  -1   1  -1 1274.57   22.10
   1  -1   1 1265.77   22.30
   1  -1   1 1282.87   22.10
   1  -1   1 1264.77   22.00
  -2   1  -1    5.50    3.30
  -2   1  -1    7.10    3.60
   2  -1   1    8.20    3.70
   2  -1   1   -3.20    3.20
  -3   1  -1 1080.39   20.80
  -3   1  -1 1082.09   20.20
  -3   1  -1 1106.29   21.00
   3  -1   1 1131.69   21.00
   3  -1   1 1115.69   21.00
  -4   1  -1    3.40    4.20
  -4   1  -1    1.50    4.40
  -4   1  -1    1.80    4.80
   4  -1   1    4.80    5.00
   4  -1   1   -0.20    4.70
  -5   1  -1   56.39    6.10
  -5   1  -1   64.69    7.20
  -5   1  -1   63.99    9.80
   5  -1   1   65.19    7.00
   5  -1   1   63.69    7.40
  -6   1  -1   90.69    7.80
  -6   1  -1   72.79    8.30
   6  -1   1   83.19    8.80
   6  -1   1   84.99    9.00
  -7   1  -1   98.59    9.00
  -7   1  -1   98.79    9.70
   7  -1   1  118.29   11.20
   7  -1   1   88.49    9.40
  -8   1  -1   26.90    9.10
  -8   1  -1   20.00    9.00
  -8   1  -1   15.50   10.50
   8  -1   1   23.20   10.60
   8  -1   1   23.50   11.10
   8   0  -1   10.00    8.10
   8   0  -1   14.40    9.20
  -8   0   1    7.50    8.50
  -8   0   1   11.30    8.20
  -8   0   1   -4.20    7.30
   7   0  -1  102.59    9.60
   7   0  -1  104.19    9.40
  -7   0   1   91.99    8.90
  -7   0   1  106.39   10.20
   6   0  -1  328.67   12.70
   6   0  -1  323.27   12.60
  -6   0   1  332.17   11.90
  -6   0   1  324.57   12.20
  -6   0   1  362.06   12.90
   5   0  -1   -0.50    4.80
   5   0  -1   -7.30    4.70
  -5   0   1   -8.50    5.10
  -5   0   1   -2.70    4.70
  -5   0   1   -6.80    4.60
   4   0  -1  575.04   13.20
   4   0  -1  568.04   12.60
   4   0  -1  570.04   13.00
  -4   0   1  583.94   13.20
  -4   0   1  549.95   12.70
  -4   0   1  559.14   12.60
   3   0  -1 1220.78   21.70
   3   0  -1 1121.99   24.20
   3   0  -1 1216.68   21.60
  -3   0   1 1228.68   21.70
  -3   0   1 1195.38   21.50
  -3   0   1 1196.98   21.20
   2   0  -1  212.18    6.40
   2   0  -1  207.48    6.50
  -2   0   1  201.48    7.00
  -2   0   1  210.98    6.60
  -2   0   1  218.68    5.70
   1   0  -1  248.08    5.30
  -1   0  -1  931.41   16.70
  -1   0  -1  945.31   16.80
   1   0   1  927.31   16.70
   1   0   1  919.41   16.80
   1   0   1  921.21   16.80
  -2   0  -1  884.31   16.40
  -2   0  -1  888.01   16.50
  -3   0  -1 1019.40   21.00
  -3   0  -1  993.90   19.20
  -3   0  -1  980.60   19.40
   3   0   1 1003.40   19.40
   3   0   1 1022.10   19.40
  -4   0  -1  420.26   11.50
  -4   0  -1  420.66   11.50
  -4   0  -1  420.56   11.80
   4   0   1  420.46   11.80
   4   0   1  424.56   11.70
  -5   0  -1  938.31   20.60
  -5   0  -1  911.51   20.20
  -5   0  -1  967.70   21.10
   5   0   1  933.11   20.60
   5   0   1  955.70   20.80
  -6   0  -1  115.49   10.60
  -6   0  -1  100.49    9.00
   6   0   1   90.59    8.40
   6   0   1   94.39    9.00
  -7   0  -1   27.70   14.20
  -7   0  -1   -7.50    7.80
  -7   0  -1   -1.20    7.70
  -7   0  -1   -0.40    7.60
   7   0   1   -8.50    8.70
   7   0   1    1.70    7.80
  -8   0  -1   45.10    9.70
  -8   0  -1   45.70    9.80
   8   0   1   60.79   11.30
   8   0   1   48.50   10.90
   8  -1  -1   87.79    9.50
   8  -1  -1  101.79   11.40
  -8   1   1  121.89   11.00
  -8   1   1  100.39    9.00
   7  -1  -1   19.60    7.50
   7  -1  -1   25.70    8.10
  -7   1   1   36.40    7.00
  -7   1   1   25.30    7.80
   6  -1  -1  151.38   10.40
   6  -1  -1  158.18   10.30
  -6   1   1  139.09   10.20
  -6   1   1  131.89   10.70
  -6   1   1  137.39    8.90
   5  -1  -1  323.97   10.70
   5  -1  -1  340.37   11.10
  -5   1   1  330.67   10.60
  -5   1   1  335.77   11.20
   4  -1  -1 1342.77   24.40
   4  -1  -1 1279.87   26.00
   4  -1  -1 1263.17   24.00
  -4   1   1 1347.77   24.40
  -4   1   1 1243.68   24.00
   3  -1  -1   18.70    3.80
   3  -1  -1   14.40    4.20
  -3   1   1   20.60    3.90
   2  -1  -1 1202.98   21.00
  -2   1   1 1187.48   21.20
  -2   1   1 1191.28   21.00
   0  -1  -1  273.17    7.80
   0  -1  -1  255.07    6.20
   0  -1  -1  271.57    6.40
   0  -1  -1  273.07    7.90
   0   1   1  275.87    6.40
   0   1   1  277.47    7.40
   0   1   1  259.27    7.70
  -1  -1  -1  752.42   13.70
  -1  -1  -1  768.22   15.00
   1   1   1  762.62   14.90
   1   1   1  736.33   13.70
   1   1   1  766.12   13.80
  -2  -1  -1   80.19    5.00
  -2  -1  -1   72.39    5.60
  -2  -1  -1   85.09    6.70
   2   1   1   80.29    6.10
   2   1   1   77.79    5.70
   2   1   1   79.79    5.40
  -3  -1  -1  284.07    8.80
  -3  -1  -1  275.57    9.60
  -3  -1  -1  281.07    8.60
   3   1   1  284.47    9.00
   3   1   1  282.97    8.90
  -4  -1  -1   72.59    6.00
  -4  -1  -1   64.29    5.70
  -4  -1  -1   72.29    6.60
   4   1   1   70.29    6.20
   4   1   1   79.79    6.40
  -5  -1  -1   37.20    7.20
  -5  -1  -1   27.40    6.60
  -5  -1  -1   24.20    6.00
   5   1   1   32.40    6.80
   5   1   1   24.70    6.40
  -6  -1  -1  183.38   12.20
  -6  -1  -1  195.18   11.90
  -6  -1  -1  173.28   12.00
   6   1   1  191.08   12.50
   6   1   1  182.28   11.40
  -7  -1  -1  -12.60   12.30
  -7  -1  -1   -6.30    8.20
  -7  -1  -1   -2.80    8.30
  -7  -1  -1    6.80    8.00
   7   1   1   -3.60   10.40
   7   1   1   -6.50    7.20
   8  -2  -1  125.59   11.90
   8  -2  -1  136.59   13.10
  -8   2   1  109.59   10.40
  -8   2   1  103.39   12.90
   7  -2  -1  255.17   13.50
   7  -2  -1  289.47   14.00
  -7   2   1  279.17   13.70
  -7   2   1  272.07   11.00
  -7   2   1  264.87   13.70
   6  -2  -1   54.49    7.20
   6  -2  -1   70.69    7.30
  -6   2   1   46.90    7.70
  -6   2   1   57.29    7.80
   5  -2  -1  106.69    7.90
   5  -2  -1   98.49    8.50
  -5   2   1  116.49    8.80
  -5   2   1   95.99    7.90
   4  -2  -1   14.20    5.00
   4  -2  -1   13.20    4.50
  -4   2   1   16.90    4.60
  -4   2   1   13.50    4.90
   3  -2  -1  549.45   12.10
   3  -2  -1  546.55   12.30
  -3   2   1  545.25   12.20
  -3   2   1  534.45   13.10
  -3   2   1  542.55   12.10
   2  -2  -1 1481.35   25.50
   2  -2  -1 1452.75   25.40
  -2   2   1 1495.15   25.60
  -2   2   1 1490.15   26.30
  -2   2   1 1491.95   27.00
   1  -2  -1 7299.97  116.59
  -1   2   1 7172.18  115.99
  -1   2   1 7256.97  116.49
  -1   2   1 7312.57  115.99
   0  -2  -1 1733.13   30.30
   0  -2  -1 1748.33   30.20
   0  -2  -1 1742.53   28.70
   0  -2  -1 1745.33   28.70
   0  -2  -1 1769.02   29.40
   0   2   1 1754.72   28.70
   0   2   1 1709.43   31.40
  -1  -2  -1 1277.67   23.60
  -1  -2  -1 1215.78   22.90
  -1  -2  -1 1282.37   21.60
  -1  -2  -1 1283.57   22.40
  -1  -2  -1 1258.97   21.50
  -1  -2  -1 1284.17   22.80
   1   2   1 1270.77   21.60
   1   2   1 1257.27   23.40
   1   2   1 1254.47   21.50
   1   2   1 1282.17   22.10
  -2  -2  -1    3.40    3.60
  -2  -2  -1    8.60    3.70
  -2  -2  -1    1.40    4.70
  -2  -2  -1   -5.80    4.60
  -2  -2  -1   -2.90    3.80
   2   2   1   -1.90    3.70
   2   2   1    1.00    4.50
   2   2   1    2.30    3.70
  -3  -2  -1  224.58    7.90
  -3  -2  -1  222.88   10.10
  -3  -2  -1  221.58   10.10
  -3  -2  -1  210.48    9.30
  -3  -2  -1  205.18    7.60
  -3  -2  -1  210.58    9.40
   3   2   1  213.88    9.60
   3   2   1  225.18    8.10
   3   2   1  217.68   10.00
  -4  -2  -1  308.37   10.00
  -4  -2  -1  307.47   11.80
  -4  -2  -1  318.97   11.90
  -4  -2  -1  329.67   11.60
  -4  -2  -1  331.37   11.70
  -4  -2  -1  330.47   13.70
   4   2   1  313.87   10.40
   4   2   1  314.17   10.80
   4   2   1  297.77   12.00
  -5  -2  -1  176.78   10.50
  -5  -2  -1  178.28   17.80
  -5  -2  -1  176.98   12.50
  -5  -2  -1  181.08   11.70
  -5  -2  -1  156.58    9.70
   5   2   1  184.68   10.30
   5   2   1  170.88   12.00
   5   2   1  208.88   11.20
  -6  -2  -1   17.60   17.30
  -6  -2  -1   40.90    9.10
  -6  -2  -1   42.30    9.10
  -6  -2  -1   48.30    7.80
   6   2   1   29.60    6.70
   6   2   1   50.59    7.80
   6   2   1   48.20    8.40
  -7  -2  -1   28.50    9.50
  -7  -2  -1   20.10    9.10
  -7  -2  -1   12.30   11.70
  -7  -2  -1    9.90    8.30
  -7  -2  -1    8.90    7.40
  -7  -2  -1   10.90    9.20
   7   2   1   12.00    7.70
   7   2   1   19.90    9.10
   7   2   1   14.90   10.90
   8  -3  -1  235.18   14.30
   8  -3  -1  237.38   16.20
  -8   3   1  241.58   14.60
  -8   3   1  216.18   11.00
  -8   3   1  252.37   16.00
   7  -3  -1   82.69    9.40
   7  -3  -1   86.69    9.50
  -7   3   1  108.49    9.70
  -7   3   1   78.09    9.10
   6  -3  -1    2.90    7.10
   6  -3  -1   -4.10    6.50
  -6   3   1   -0.90    6.20
  -6   3   1   -2.80    6.20
   5  -3  -1  424.16   12.60
   5  -3  -1  416.76   12.20
  -5   3   1  415.76   12.60
  -5   3   1  398.46   12.20
   4  -3  -1   63.89    5.60
   4  -3  -1   77.49    6.40
  -4   3   1   67.99    7.10
  -4   3   1   58.09    5.70
  -4   3   1   59.19    5.80
   3  -3  -1  173.58    8.40
   3  -3  -1  156.68    7.30
  -3   3   1  168.18    9.40
  -3   3   1  162.48    7.50
  -3   3   1  165.08    7.60
   2  -3  -1  280.57    7.80
   2  -3  -1  277.47    8.70
   2  -3  -1  268.87    7.50
  -2   3   1  285.37    7.70
  -2   3   1  281.57    7.70
  -2   3   1  272.87   10.30
  -2   3   1  279.37    6.00
   1  -3  -1 4620.64   74.39
   1  -3  -1 4609.94   74.39
   1  -3  -1 4650.23   75.89
   1  -3  -1 4475.75   75.79
   1  -3  -1 4674.13   74.49
   1  -3  -1 4631.74   74.69
  -1   3   1 4731.33   74.49
  -1   3   1 4534.85   75.59
  -1   3   1 4645.44   74.39
  -1   3   1 4587.44   74.39
   0  -3  -1 1110.49   19.70
   0  -3  -1 1107.19   23.10
   0  -3  -1 1113.09   19.10
   0  -3  -1 1155.98   20.80
   0  -3  -1 1124.69   21.70
   0  -3  -1 1142.39   21.70
   0   3   1 1129.59   19.20
   0   3   1 1135.99   21.80
   0   3   1 1110.09   21.50
   0   3   1 1138.69   21.20
  -1  -3  -1  503.55   12.50
  -1  -3  -1  479.75   11.00
  -1  -3  -1  517.65   12.00
  -1  -3  -1  503.25   13.30
   1   3   1  507.45   13.10
   1   3   1  485.25   13.10
   1   3   1  525.05   12.40
   1   3   1  514.25   10.10
  -2  -3  -1  181.38    8.30
  -2  -3  -1  165.48    8.30
  -2  -3  -1  170.88    6.40
  -2  -3  -1  160.88   12.10
  -2  -3  -1  160.28    6.00
  -2  -3  -1  163.98    8.80
   2   3   1  180.28    6.70
   2   3   1  164.98    9.00
   2   3   1  176.28    6.40
  -3  -3  -1   32.10    6.10
  -3  -3  -1   32.90    4.50
  -3  -3  -1   30.20    5.40
  -3  -3  -1   27.50    6.10
  -3  -3  -1   40.70    4.50
  -3  -3  -1   30.50    6.00
   3   3   1   31.00    4.70
   3   3   1   27.00    4.80
   3   3   1   26.10    5.20
   3   3   1   21.30    5.80
  -4  -3  -1   15.40    5.00
  -4  -3  -1   24.20    6.90
  -4  -3  -1    7.50    7.00
  -4  -3  -1   13.70    5.40
  -4  -3  -1   23.60    6.00
  -4  -3  -1   13.20    7.50
   4   3   1   16.70    6.90
   4   3   1   11.50    5.60
   4   3   1   12.00    5.30
  -5  -3  -1  170.08   13.60
  -5  -3  -1  165.28    9.70
  -5  -3  -1  164.38   12.20
  -5  -3  -1  152.48   12.20
  -5  -3  -1  141.29    9.50
  -5  -3  -1  164.18   11.40
   5   3   1  158.18   10.60
   5   3   1  163.28   13.40
  -6  -3  -1   13.80    6.70
  -6  -3  -1    8.60    8.50
  -6  -3  -1   14.00    7.90
  -6  -3  -1   16.00    9.70
  -6  -3  -1   17.20    7.70
   6   3   1    9.90   11.30
   6   3   1   -0.30    6.80
   6   3   1   13.80    7.80
  -7  -3  -1   26.00    8.50
  -7  -3  -1   34.50    7.70
  -7  -3  -1   34.10   11.50
  -7  -3  -1   47.00    9.10
  -7  -3  -1   20.10   12.40
  -7  -3  -1   15.70   10.60
   7   3   1   34.30    9.40
   7   3   1   37.40    8.50
   7   3   1   40.70   13.40
   8  -4  -1    2.00    9.00
   8  -4  -1   -5.30    8.50
  -8   4   1    1.70    5.90
  -8   4   1   40.30   10.20
  -8   4   1    0.50    7.90
   7  -4  -1  114.89   10.10
   7  -4  -1  134.29   12.20
  -7   4   1  106.19    9.90
  -7   4   1  102.59   10.20
   6  -4  -1   13.60    7.30
   6  -4  -1    5.40    6.40
  -6   4   1   19.40    7.50
  -6   4   1   12.50    6.80
   5  -4  -1   -3.00    5.40
   5  -4  -1   -1.80    5.40
  -5   4   1    4.10    5.80
  -5   4   1   -3.90    5.50
  -5   4   1    4.90    8.00
   4  -4  -1   50.89    5.60
   4  -4  -1   51.19    5.20
  -4   4   1   54.49    5.60
  -4   4   1   44.70    7.20
  -4   4   1   51.39    5.60
   3  -4  -1   40.50    4.70
   3  -4  -1   41.40    5.90
  -3   4   1   51.39    5.10
  -3   4   1   39.90    6.70
  -3   4   1   40.10    5.00
   2  -4  -1  544.45   13.40
   2  -4  -1  542.65   11.80
   2  -4  -1  546.45   11.60
   2  -4  -1  543.85   11.00
  -2   4   1  558.14   12.00
  -2   4   1  532.65   10.80
  -2   4   1  551.74   11.90
  -2   4   1  535.45   15.70
   1  -4  -1 2115.09   37.90
   1  -4  -1 2194.28   37.80
   1  -4  -1 2120.99   37.90
   1  -4  -1 2138.29   37.60
   1  -4  -1 2120.89   35.50
   1  -4  -1 2089.89   35.40
  -1   4   1 2097.49   35.50
  -1   4   1 2133.79   35.50
  -1   4   1 2118.19   37.50
  -1   4   1 2200.68   36.20
  -1   4   1 2118.29   40.40
   0  -4  -1    9.20    4.30
   0  -4  -1    9.50    5.80
   0  -4  -1   14.00    4.90
   0  -4  -1    0.30    4.80
   0   4   1    6.00    4.40
   0   4   1    9.30    4.30
   0   4   1    9.80    5.50
   0   4   1    9.00    5.70
   0   4   1    8.10    2.90
  -1  -4  -1  561.14   14.70
  -1  -4  -1  559.34   13.80
  -1  -4  -1  565.14   13.30
   1   4   1  548.15   13.50
   1   4   1  552.44   13.30
   1   4   1  528.05   14.50
   1   4   1  537.75   14.50
  -2  -4  -1  113.99    8.40
  -2  -4  -1   92.39    8.60
  -2  -4  -1   98.19    8.10
   2   4   1   99.99    8.50
   2   4   1  110.89    5.70
   2   4   1  113.39    8.50
   2   4   1  125.19    6.00
   2   4   1  112.79    9.00
  -3  -4  -1   47.20    6.90
  -3  -4  -1   49.30    7.00
  -3  -4  -1   62.39    5.00
  -3  -4  -1   47.10    6.80
  -3  -4  -1   67.89    6.30
   3   4   1   66.79    5.30
   3   4   1   56.49    7.20
   3   4   1   59.29    5.20
   3   4   1   40.90    6.90
  -4  -4  -1  157.68   11.60
  -4  -4  -1  160.48   11.70
  -4  -4  -1  162.68    8.70
  -4  -4  -1  162.88    9.20
  -4  -4  -1  163.68   11.70
  -4  -4  -1  165.18   10.90
   4   4   1  144.69   12.40
   4   4   1  160.38    9.20
   4   4   1  155.98    8.90
  -5  -4  -1   19.70    5.80
  -5  -4  -1   14.30    8.20
  -5  -4  -1   26.30    6.20
  -5  -4  -1   23.30    8.80
  -5  -4  -1   22.20    8.80
  -5  -4  -1   34.30    7.90
   5   4   1   26.60    6.40
   5   4   1   32.60    6.60
  -6  -4  -1  220.78   15.10
  -6  -4  -1  190.58   14.90
  -6  -4  -1  208.68   11.90
  -6  -4  -1  224.78   13.20
  -6  -4  -1  197.08   10.90
   6   4   1  226.28   12.50
   6   4   1  218.88   11.80
   6   4   1  216.88   18.30
   8  -5  -1   -1.60   11.40
   8  -5  -1   -9.50    8.40
  -8   5   1   17.20   10.50
  -8   5   1    5.00    8.80
   7  -5  -1   85.89    9.90
   7  -5  -1   93.69    9.50
  -7   5   1  109.69   11.10
  -7   5   1   67.59    9.20
   6  -5  -1    9.40    7.40
   6  -5  -1   17.90    6.90
  -6   5   1   10.10    7.70
  -6   5   1    5.90   12.50
  -6   5   1    9.80    7.80
   5  -5  -1    9.00    6.40
   5  -5  -1   -7.50    5.00
  -5   5   1   -6.80    5.90
  -5   5   1   -6.10    5.80
  -5   5   1   -9.80    8.70
   4  -5  -1   91.79    7.80
   4  -5  -1   92.49    7.90
   4  -5  -1   74.49    7.20
  -4   5   1   80.09   11.50
  -4   5   1   96.29    8.00
  -4   5   1   83.49    7.70
   3  -5  -1  597.94   15.20
   3  -5  -1  578.34   15.20
   3  -5  -1  577.74   13.20
  -3   5   1  602.44   17.90
  -3   5   1  616.14   13.60
  -3   5   1  584.04   13.50
   2  -5  -1    8.40    3.70
   2  -5  -1    3.90    6.50
   2  -5  -1    9.70    4.00
   2  -5  -1   13.90    4.40
   2  -5  -1   12.80    5.50
   2  -5  -1   19.10    5.30
  -2   5   1    0.30    5.90
  -2   5   1    6.70    3.40
  -2   5   1    9.80    3.90
  -2   5   1   14.50    3.90
   1  -5  -1    0.60    5.40
   1  -5  -1   -0.50    3.20
   1  -5  -1    5.60    3.10
   1  -5  -1   -2.00    4.20
   1  -5  -1   -8.00    5.00
   1  -5  -1   -6.20    5.40
  -1   5   1   -0.90    5.00
  -1   5   1    0.10    6.20
  -1   5   1    1.70    3.40
  -1   5   1    1.00    3.30
  -1   5   1    0.50    3.90
   0  -5  -1 2637.24   45.60
   0  -5  -1 2687.33   46.10
   0  -5  -1 2683.83   47.50
   0  -5  -1 2666.73   47.60
   0   5   1 2643.44   47.30
   0   5   1 2637.14   46.90
   0   5   1 2665.83   47.60
   0   5   1 2617.64   46.40
  -1  -5  -1   40.00    6.30
  -1  -5  -1   31.00    6.00
  -1  -5  -1   28.20    5.50
   1   5   1   41.20    5.90
   1   5   1   33.00    6.50
   1   5   1   39.90    6.30
   1   5   1   50.29    6.30
   1   5   1   45.70    6.10
  -2  -5  -1   26.30    5.60
  -2  -5  -1   37.40    6.70
   2   5   1   41.20    7.30
   2   5   1   33.20    6.70
   2   5   1   46.90    6.70
   2   5   1   49.10    7.90
  -3  -5  -1  462.65   19.80
  -3  -5  -1  486.15   15.30
  -3  -5  -1  444.86   18.10
   3   5   1  429.66   15.40
   3   5   1  433.76   15.30
   3   5   1  419.46   15.90
  -4  -5  -1   46.80    7.90
  -4  -5  -1   59.89    8.80
  -4  -5  -1   58.09    8.70
  -4  -5  -1   64.09    5.70
   4   5   1   69.39    6.40
   4   5   1   69.59    6.20
   4   5   1   88.59    9.80
  -5  -5  -1  109.19   17.70
  -5  -5  -1   78.69    9.60
  -5  -5  -1   80.89   10.50
  -5  -5  -1  108.79    8.80
   5   5   1  109.99    9.60
   5   5   1   95.29    9.30
   5   5   1   73.59   11.20
  -6  -5  -1   15.70    7.00
  -6  -5  -1   -6.10    7.20
  -6  -5  -1    5.90    2.10
  -6  -5  -1   14.60    9.30
   6   5   1   19.70   12.20
   6   5   1    7.70    6.90
   6   5   1   16.40    7.30
   8  -6  -1  162.78   15.80
   8  -6  -1  141.79   12.70
  -8   6   1  166.78   14.30
  -8   6   1  121.39   11.40
   7  -6  -1   52.89    8.80
   7  -6  -1   38.70    8.30
  -7   6   1   51.59    9.90
  -7   6   1   42.40    8.20
   6  -6  -1   59.29    8.50
  -6   6   1   54.39   10.00
  -6   6   1   59.19    8.30
  -6   6   1   86.59   15.20
   5  -6  -1  114.99   12.10
   5  -6  -1  130.89   10.20
   5  -6  -1  126.69    9.40
  -5   6   1  133.19   18.50
  -5   6   1  112.49   10.70
   4  -6  -1    0.30    6.60
   4  -6  -1    3.40    7.60
   4  -6  -1    1.20    5.60
  -4   6   1    8.30    8.10
  -4   6   1   -1.20    5.80
  -4   6   1   -2.60    5.10
   3  -6  -1   96.89    7.40
   3  -6  -1   97.29    9.60
   3  -6  -1   93.19    7.10
  -3   6   1  110.29    7.70
  -3   6   1   96.79    7.60
  -3   6   1   98.49    5.90
  -3   6   1   95.09   11.80
   2  -6  -1   -3.00    5.40
   2  -6  -1    0.90    6.20
   2  -6  -1   -1.40    3.80
   2  -6  -1    8.20    4.60
   2  -6  -1   -3.40    3.80
   2  -6  -1   -5.10    5.30
  -2   6   1   -2.90    4.00
  -2   6   1    0.90    6.40
  -2   6   1    3.60    3.80
  -2   6   1   -3.50    4.00
   1  -6  -1   29.80    3.60
   1  -6  -1   21.00    5.10
   1  -6  -1   21.60    3.80
   1  -6  -1   24.10    6.70
   1  -6  -1   24.30    6.60
  -1   6   1   28.30    3.90
  -1   6   1   25.50    3.80
  -1   6   1   24.60    4.90
  -1   6   1   34.80    7.60
  -1   6   1   19.50    5.70
   0  -6  -1   47.20    7.80
   0  -6  -1   44.20    7.10
   0  -6  -1   56.39    5.90
   0  -6  -1   61.29    6.70
   0   6   1   48.50    8.80
   0   6   1   40.50    6.10
   0   6   1   51.59    6.30
   0   6   1   42.50    6.50
   0   6   1   47.20    7.40
  -1  -6  -1  333.67   13.90
  -1  -6  -1  311.67   11.80
  -1  -6  -1  338.27   12.80
   1   6   1  349.17   12.90
   1   6   1  336.87   21.10
   1   6   1  365.46   15.30
   1   6   1  358.36   15.10
   1   6   1  323.67   12.60
  -2  -6  -1   33.70    7.00
   2   6   1   42.00    7.70
   2   6   1   47.50    8.50
   2   6   1   37.80    7.40
   2   6   1   23.70    7.00
   2   6   1   35.70    8.80
   2   6   1   35.80    6.80
  -3  -6  -1  110.09   11.10
  -3  -6  -1  127.79   12.10
   3   6   1  114.99   12.80
  -4  -6  -1    0.40    8.10
  -4  -6  -1    7.40    8.20
  -4  -6  -1    6.10    9.10
   4   6   1    2.40    9.20
   4   6   1   17.60    9.20
  -5  -6  -1   35.60    9.60
  -5  -6  -1   23.30    8.30
  -5  -6  -1   27.50   10.20
   5   6   1   30.00   10.40
   5   6   1   35.70   11.90
   8  -7  -1    4.60    8.40
  -8   7   1   18.90    9.10
  -8   7   1   -8.20   12.50
   7  -7  -1  175.48   13.30
   7  -7  -1  165.28   13.20
  -7   7   1  148.29   12.50
  -7   7   1  174.78   21.50
  -7   7   1  134.89   12.10
   6  -7  -1  -17.50    7.90
   6  -7  -1   -0.80    7.00
  -6   7   1  -18.40   14.40
  -6   7   1   -3.20    6.50
  -6   7   1  -19.10    9.10
   5  -7  -1  163.28   10.20
   5  -7  -1  176.28   11.00
   5  -7  -1  154.78   13.60
  -5   7   1  164.08   11.70
  -5   7   1  161.98   10.40
  -5   7   1  158.38    6.90
  -5   7   1  208.18   21.30
   4  -7  -1  221.78   10.00
   4  -7  -1  230.58   13.10
   4  -7  -1  244.48   11.00
  -4   7   1  255.67   18.30
  -4   7   1  245.78   11.30
  -4   7   1  235.48    8.20
  -4   7   1  244.28   10.80
   3  -7  -1   10.20    6.90
   3  -7  -1   -2.00    7.70
   3  -7  -1   -2.50    6.50
   3  -7  -1   -0.30    5.00
   3  -7  -1   -1.60    5.50
  -3   7   1    3.00    4.40
  -3   7   1   -6.50    9.30
  -3   7   1    4.10    5.10
  -3   7   1    4.40    5.50
   2  -7  -1   27.70    4.80
   2  -7  -1   18.30    7.80
   2  -7  -1   19.30    4.40
   2  -7  -1   17.70    6.80
   2  -7  -1   21.80    7.20
  -2   7   1   28.00    5.00
  -2   7   1   24.70    5.10
  -2   7   1   27.50    4.90
  -2   7   1   14.50   10.10
   1  -7  -1  399.26   15.50
   1  -7  -1  399.76   14.80
   1  -7  -1  376.66   12.90
  -1   7   1  377.96   17.50
  -1   7   1  398.66   12.00
  -1   7   1  401.06   17.80
   0  -7  -1  157.08   10.90
   0  -7  -1  132.09   11.90
   0   7   1  139.99   13.90
   0   7   1  116.89   12.70
   0   7   1  129.09   10.40
   0   7   1  160.28   10.70
   0   7   1  132.89   11.00
  -1  -7  -1   -7.30   10.80
  -1  -7  -1   12.60    6.20
   1   7   1   10.30    7.10
   1   7   1    4.50    3.10
   1   7   1   -1.60    3.90
   1   7   1   12.50    7.50
   1   7   1    2.40    8.90
   1   7   1   -0.80    8.50
  -2  -7  -1  323.07   14.70
  -2  -7  -1  314.97   13.50
   2   7   1  302.47   15.10
   2   7   1  325.27   14.70
   2   7   1  298.77   17.10
  -3  -7  -1   60.69    9.10
  -3  -7  -1   56.69    9.50
   3   7   1   51.09    8.80
   3   7   1   75.79   11.50
   3   7   1   74.09   13.30
  -4  -7  -1    8.10    9.00
  -4  -7  -1   15.90    7.60
   4   7   1   17.60   12.40
   4   7   1   17.60   10.60
   4   7   1   18.50   10.90
   4   7   1   12.90   10.20
   4   7   1   14.40    9.90
   7  -8  -1   45.20    9.20
   7  -8  -1   23.90    9.10
   7  -8  -1   44.60   10.00
  -7   8   1   55.49   10.70
  -7   8   1   36.00    8.10
   6  -8  -1   19.30    8.20
   6  -8  -1   17.10    7.70
   6  -8  -1   18.90    8.70
  -6   8   1   -4.60   10.00
  -6   8   1   15.50    7.10
  -6   8   1   20.60   11.30
   5  -8  -1   17.70    8.10
   5  -8  -1   14.20    7.20
  -5   8   1    0.40    4.30
  -5   8   1    5.90   10.70
  -5   8   1    9.90    6.80
  -5   8   1    1.40    7.50
   4  -8  -1  537.45   14.90
   4  -8  -1  552.44   19.90
   4  -8  -1  538.65   18.10
   4  -8  -1  534.65   14.80
   4  -8  -1  576.14   18.10
  -4   8   1  531.05   13.10
  -4   8   1  579.24   24.50
  -4   8   1  542.25   15.10
  -4   8   1  581.04   15.80
   3  -8  -1  138.89    8.40
   3  -8  -1  137.19    8.50
   3  -8  -1  149.49   12.00
   3  -8  -1  126.49   12.50
   3  -8  -1  115.89   12.10
  -3   8   1  143.09   15.60
  -3   8   1  133.59    9.50
  -3   8   1  132.29    8.10
  -3   8   1  139.79    9.10
   2  -8  -1   75.59    9.00
   2  -8  -1   84.69    5.80
   2  -8  -1   87.49    7.00
   2  -8  -1   91.59   10.30
  -2   8   1   95.69    6.60
  -2   8   1   84.29    8.00
  -2   8   1   89.69    7.30
   1  -8  -1   58.69   10.10
   1  -8  -1   46.20    8.70
  -1   8   1   60.99    7.20
  -1   8   1   55.39    8.20
  -1   8   1   73.49    9.40
   0  -8  -1   -3.30    7.20
   0  -8  -1    0.20    8.80
   0   8   1   13.70   10.20
   0   8   1   10.50    7.10
   0   8   1   14.60    9.70
   0   8   1    4.70    8.10
  -1  -8  -1  148.39   12.70
   1   8   1  153.68   13.90
   1   8   1  149.09   15.30
   1   8   1  153.28   14.70
   1   8   1  135.99   15.40
  -2  -8  -1   18.80    7.60
  -2  -8  -1   14.60    8.10
   2   8   1   -0.90    9.10
   2   8   1   17.10    9.70
   2   8   1   15.20    8.70
   2   8   1   38.40   11.10
   2   8   1   26.50   10.00
   2   8   1   14.70    8.00
  -3  -8  -1   -3.80    8.90
  -3  -8  -1    3.80    7.70
   3   8   1    5.50    9.60
   3   8   1   11.60   10.50
   3   8   1   18.40   10.40
   3   8   1   13.50    9.60
   3   8   1   -0.20   10.00
   6  -9  -1    5.40    7.90
   6  -9  -1   13.50    7.70
   6  -9  -1    6.00    9.00
  -6   9   1  -40.30   22.10
  -6   9   1   11.60    7.40
  -6   9   1   -4.40   11.20
  -6   9   1   34.40   17.10
   5  -9  -1   18.50    8.70
   5  -9  -1   20.90    8.50
   5  -9  -1    9.10   10.60
   5  -9  -1   28.60    7.50
   5  -9  -1   32.90    7.20
  -5   9   1   24.80    7.20
  -5   9   1   31.60    5.20
  -5   9   1   23.50   13.60
  -5   9   1   22.30    8.10
  -5   9   1   27.60   17.50
   4  -9  -1    3.00    9.30
   4  -9  -1   12.10    6.00
   4  -9  -1    6.80    8.20
   4  -9  -1   18.30    8.30
  -4   9   1   11.00   13.40
  -4   9   1   10.20    5.10
  -4   9   1   20.40   11.60
  -4   9   1    8.50    7.00
  -4   9   1    4.30    6.20
   3  -9  -1   14.30    5.70
   3  -9  -1    1.80    5.00
   3  -9  -1   12.60    7.90
   3  -9  -1    3.30    9.00
   3  -9  -1    3.20    7.90
  -3   9   1    0.90    5.50
  -3   9   1    1.00    5.60
  -3   9   1    3.30   10.00
   2  -9  -1   20.30    8.50
   2  -9  -1   23.20    9.30
  -2   9   1    7.80    6.20
   1  -9  -1   47.90    9.30
   1  -9  -1   54.19   10.00
  -1   9   1   43.50    8.90
  -1   9   1   40.50   10.60
  -1   9   1   26.70    8.40
  -1   9   1   23.10   11.20
  -1   9   1   28.90    9.30
   0  -9  -1    4.60    8.10
   0   9   1   18.20   10.40
   0   9   1   12.70   10.50
   0   9   1   29.70    9.00
   0   9   1   12.10    8.30
   1   9   1   23.60    9.30
   1   9   1   10.30    8.30
   1   9   1    3.40   10.80
   1   9   1   -1.10    9.00
   1   9   1   -7.50   12.00
   1   9   1   10.40    9.90
   2   9   1   28.20   10.90
   2   9   1   23.60   10.50
   2   9   1   26.90    9.40
   2   9   1   41.10   12.40
   2   9   1   11.70   10.60
   2   9   1    8.10   12.30
   2   9   1   11.50   11.30
   5 -10  -1    0.60   17.90
   5 -10  -1    7.00    6.60
   5 -10  -1    1.40    8.80
   5 -10  -1    7.70    8.70
   5 -10  -1   22.40    8.40
  -5  10   1   13.00    7.10
  -5  10   1   11.80    8.40
  -5  10   1   30.30    5.80
  -5  10   1    6.30   21.90
  -5  10   1   36.50   16.20
   4 -10  -1   -0.60    8.40
   4 -10  -1   -1.00    8.50
   4 -10  -1  -10.40    9.40
   4 -10  -1   -4.00    4.50
   4 -10  -1   -4.70    7.00
  -4  10   1   22.50   12.90
  -4  10   1    9.60    5.90
  -4  10   1   13.10    7.30
  -4  10   1   -1.80    6.30
  -4  10   1    8.40   25.20
   3 -10  -1    1.90    3.40
   3 -10  -1    8.00    9.50
   3 -10  -1   -1.20    1.40
   3 -10  -1    4.00    8.30
  -3  10   1    2.70    7.30
  -3  10   1   14.30    6.30
  -3  10   1   31.10   14.50
  -3  10   1    0.00    6.00
   2 -10  -1   -7.30    9.10
   2 -10  -1    5.70    7.80
  -2  10   1   25.00   21.50
   1 -10  -1   42.10    9.30
  -1  10   1   42.00   14.50
  -1  10   1   42.70    9.50
  -1  10   1   58.69   10.70
   0  10   1   19.50    9.90
   0  10   1    4.80   10.80
   0  10   1    2.70    8.70
   0  10   1   10.10    9.10
   1  10   1   23.30   12.20
   1  10   1   -5.00    9.50
   1  10   1   -3.80   11.10
   1  10   1   40.30   24.60
   1  10   1    2.30   12.10
   1  11  -2   82.19   16.20
   1  11  -2   38.50    9.80
   1  11  -2   46.60   13.10
   1  11  -2   37.50    8.70
   0  11  -2   17.00    9.80
   0  11  -2   -7.50    6.50
   0  11  -2   15.20   12.30
   0  11  -2   -4.70   11.40
   0  11  -2    6.60   15.00
  -1  11  -2    4.60    6.60
  -1  11  -2   16.60    8.70
  -1  11  -2    3.00   13.60
  -1  11  -2   25.30   11.10
  -1  11  -2   -9.70   11.20
   1 -11   2   10.80    9.80
  -2  11  -2    6.10    6.70
  -2  11  -2   -9.70   12.30
  -2  11  -2    6.70    8.00
  -2  11  -2   14.50   10.60
   2 -11   2   16.10    9.70
   2 -11   2    2.00   10.30
  -3  11  -2   48.80   12.70
  -3  11  -2   41.40    6.60
  -3  11  -2   23.70   16.80
  -3  11  -2   38.40    7.20
  -3  11  -2   28.10    7.40
   3 -11   2   41.70   14.00
   3 -11   2   35.70   10.50
  -4  11  -2    0.70    6.20
  -4  11  -2   19.10    6.60
  -4  11  -2   13.20   10.30
  -4  11  -2    7.60    8.10
   4 -11   2   26.20   14.40
   4 -11   2    3.60    2.10
   4 -11   2    2.20   18.50
   4 -11   2   21.50    7.10
   4 -11   2    2.50    8.70
   3  10  -2   33.60   12.50
   3  10  -2   43.10   12.40
   3  10  -2   46.60   14.30
   3  10  -2   49.00   12.30
   3  10  -2   27.50   12.80
   3  10  -2  -25.50   19.30
   2  10  -2   12.50   11.60
   2  10  -2    4.30    9.20
   2  10  -2   13.40   11.20
   2  10  -2   -3.90   10.00
   2  10  -2   -6.10   10.40
   2  10  -2   -2.00   12.00
   2  10  -2    7.80    8.80
   2  10  -2  -11.60   13.70
   1  10  -2   20.70    8.30
   1  10  -2   15.10    8.50
   1  10  -2   18.60   10.10
   1  10  -2   31.60    7.70
   1  10  -2   15.90   11.10
   1  10  -2   33.70   11.60
   1  10  -2   15.50   11.00
   0  10  -2   25.20   10.50
   0  10  -2   -4.70    7.70
   0  10  -2    1.70    6.30
   0  10  -2   -5.10    8.70
   0  10  -2    1.10    6.60
   0  10  -2   -3.10   11.00
  -1  10  -2    8.90    8.10
  -1  10  -2    4.30    7.90
  -1  10  -2   14.10    7.70
  -1  10  -2    4.00   10.60
  -1  10  -2   10.00    6.10
  -1  10  -2   -1.60   12.90
   1 -10   2   18.90    9.20
   1 -10   2    4.70    8.10
  -2  10  -2   -1.00   12.70
  -2  10  -2   -6.90    7.40
  -2  10  -2    7.10    6.10
   2 -10   2    7.70    8.00
   2 -10   2    9.90    8.70
   2 -10   2    3.80    6.70
  -3  10  -2    6.60    6.00
  -3  10  -2   32.90    6.30
  -3  10  -2   18.50   11.30
  -3  10  -2    8.80    8.20
  -3  10  -2  -14.40   13.10
   3 -10   2   -0.80    6.60
   3 -10   2   -5.00    4.70
   3 -10   2    1.30    4.70
   3 -10   2    4.00    9.10
   3 -10   2    8.30    8.40
  -4  10  -2    5.00    7.50
  -4  10  -2   19.60   14.60
  -4  10  -2  -36.90   17.60
  -4  10  -2   15.30    6.60
   4 -10   2    7.70    6.60
   4 -10   2    6.60    9.70
   4 -10   2   11.60    7.70
   4 -10   2   15.10    6.40
   4 -10   2    1.80    8.70
  -5  10  -2   14.20    8.90
  -5  10  -2   41.70   12.50
  -5  10  -2   22.40    7.50
   5 -10   2   19.70    6.30
   5 -10   2   20.90    8.90
   5 -10   2   18.90    7.30
   4   9  -2   22.40   10.60
   4   9  -2   23.80   10.50
   4   9  -2   31.70   11.30
   4   9  -2    7.30   11.30
   4   9  -2   16.80   11.80
   4   9  -2   31.30   13.50
   3   9  -2  -10.60    9.80
   3   9  -2    9.50    9.20
   3   9  -2   -0.80    9.40
   3   9  -2   -7.50    9.30
   3   9  -2  -20.10    9.80
   3   9  -2   13.30    9.10
   3   9  -2   14.40   11.10
   3   9  -2    8.10   10.00
   3   9  -2  -10.90    6.40
   2   9  -2   14.80    9.10
   2   9  -2    3.60   10.50
   2   9  -2    4.80    8.40
   2   9  -2   -2.30    5.40
   2   9  -2   -2.20    8.10
   2   9  -2   13.00    8.50
   2   9  -2    0.80    9.40
   2   9  -2    0.20    8.90
   2   9  -2    2.70    9.60
   1   9  -2  147.49   10.60
   1   9  -2  175.38   13.30
   1   9  -2  178.28   14.50
   1   9  -2  162.58   16.40
   1   9  -2  159.68   15.60
   1   9  -2  182.88   14.80
   1   9  -2  153.48   13.20
   1   9  -2  149.49   12.40
   0   9  -2  251.57   13.80
   0   9  -2  270.27   12.10
   0   9  -2  259.17   14.50
   0   9  -2  291.27   13.30
   0   9  -2  275.87   16.80
   0   9  -2  256.07   18.10
   0  -9   2  277.37   15.70
  -1   9  -2   38.30    8.80
  -1   9  -2   45.40    7.30
  -1   9  -2   39.20    6.50
   1  -9   2   53.69    9.50
   1  -9   2   41.20    8.30
  -2   9  -2    5.90    5.40
  -2   9  -2    3.90    6.30
  -2   9  -2    5.00    6.60
  -2   9  -2    2.20    4.90
  -2   9  -2    4.00    4.00
   2  -9   2   20.30    8.60
   2  -9   2    7.50    7.50
   2  -9   2    1.40    6.20
   2  -9   2    8.90    5.80
   2  -9   2    9.90    4.60
  -3   9  -2   11.90    6.80
  -3   9  -2   17.10    8.70
  -3   9  -2   14.50    6.20
   3  -9   2    7.30    7.90
   3  -9   2   10.00    5.60
   3  -9   2   10.20    5.90
   3  -9   2    0.40    5.90
   3  -9   2    8.40    9.80
   3  -9   2   14.80    9.10
  -4   9  -2   99.79    9.30
  -4   9  -2  123.59   10.50
   4  -9   2  108.79   10.40
   4  -9   2  100.19   13.30
   4  -9   2  104.09    9.60
   4  -9   2   99.99   10.60
  -5   9  -2   25.20    7.70
  -5   9  -2   50.09    9.60
   5  -9   2   35.50    9.30
   5  -9   2   38.40   11.90
   5  -9   2   37.90   10.00
   5  -9   2   45.00    6.90
   5  -9   2   38.00    8.10
  -6   9  -2   80.59   18.10
  -6   9  -2   34.90   10.20
  -6   9  -2   24.70    9.50
   6  -9   2   36.20   12.20
   6  -9   2   37.90    9.50
   5   8  -2  109.19   15.60
   5   8  -2  114.39   14.10
   5   8  -2  115.89   13.30
   5   8  -2  167.88   17.00
   5   8  -2  138.39   17.30
   4   8  -2   50.79    9.70
   4   8  -2   62.09   11.80
   4   8  -2   61.99   12.70
   4   8  -2   41.80   10.80
   4   8  -2   36.90    9.50
   4   8  -2   41.20    9.70
   3   8  -2   -1.80    7.80
   3   8  -2   -4.20    6.30
   3   8  -2  -16.60    8.70
   3   8  -2    6.50    9.30
   3   8  -2    2.10   10.20
   3   8  -2   -2.40    8.10
   3   8  -2    7.00    8.00
   3   8  -2   -1.60    9.30
   3   8  -2   -9.20    7.10
   2   8  -2   22.00    9.70
   2   8  -2   20.40    8.80
   2   8  -2   39.30    8.80
   2   8  -2   25.50    8.40
   2   8  -2   36.20    8.70
   2   8  -2   37.20    8.10
   2   8  -2   23.00    9.90
   2   8  -2   31.60    7.40
   2   8  -2   33.80    6.90
   1   8  -2    7.50    8.90
   1   8  -2   -5.80    8.30
   1   8  -2   14.80    7.50
   1   8  -2    1.60    6.40
   1   8  -2    3.70    7.20
   1   8  -2   -0.20    6.60
   1   8  -2   -0.50   12.80
   1   8  -2    1.10    6.20
   1   8  -2    2.20    8.80
   0   8  -2   27.10    9.00
   0   8  -2   32.00    9.90
   0   8  -2   34.70    8.30
   0   8  -2   25.30    9.60
   0   8  -2   26.80    6.80
   0   8  -2   22.20    7.20
   0   8  -2   35.70    8.50
   0  -8   2   43.50    8.50
   0  -8   2   53.49   13.20
  -1   8  -2  456.75   17.90
  -1   8  -2  460.25   13.60
  -1   8  -2  455.75   19.90
  -1   8  -2  453.05   13.90
   1  -8   2  475.55   14.30
   1  -8   2  478.15   24.80
   1  -8   2  470.05   16.10
  -2   8  -2   95.59    9.00
  -2   8  -2  105.59    8.60
  -2   8  -2   94.49   11.70
  -2   8  -2  108.69    8.20
  -2   8  -2  102.69   13.30
   2  -8   2  111.99    9.00
   2  -8   2  117.69    7.60
   2  -8   2  101.49    7.60
   2  -8   2  102.09    9.70
   2  -8   2   94.09   12.50
   2  -8   2  114.29   11.80
  -3   8  -2   91.79    7.40
  -3   8  -2   85.69   13.00
  -3   8  -2  115.99   13.70
   3  -8   2   77.09    9.40
   3  -8   2   91.49   17.50
   3  -8   2  101.09    8.90
   3  -8   2   84.19   11.80
   3  -8   2   93.39    8.60
   3  -8   2  102.29    8.70
  -4   8  -2  280.07   12.20
  -4   8  -2  318.97   13.40
  -4   8  -2  324.57   20.10
  -4   8  -2  218.08   23.00
   4  -8   2  308.57   12.30
   4  -8   2  295.57   18.90
   4  -8   2  284.67   15.70
   4  -8   2  271.57   11.90
   4  -8   2  299.47   11.30
  -5   8  -2   37.60   10.90
  -5   8  -2   27.40    7.50
  -5   8  -2   40.40    8.70
   5  -8   2   36.30   11.20
   5  -8   2   33.40    6.20
   5  -8   2   23.00    7.60
   5  -8   2   40.70    8.20
  -6   8  -2   59.49    9.10
  -6   8  -2   76.29   14.40
  -6   8  -2   63.09   10.20
   6  -8   2   51.19   12.00
   6  -8   2   60.49    9.30
  -7   8  -2   88.29   12.70
  -7   8  -2   55.99    9.80
   7  -8   2   64.69   12.80
   7  -8   2   56.29   10.00
   6   7  -2   18.80   12.80
   6   7  -2   36.50   12.50
   6   7  -2   29.40   14.50
  -6  -7   2   36.10   10.10
  -6  -7   2   26.10   11.00
   5   7  -2   99.09   12.10
   5   7  -2   83.49   13.50
   5   7  -2  103.19   11.30
   5   7  -2   93.09   12.40
   5   7  -2   66.69   10.80
   5   7  -2   83.09   10.80
  -5  -7   2   89.09   11.00
  -5  -7   2   93.39   10.90
   4   7  -2    7.40    8.80
   4   7  -2    7.80    7.80
   4   7  -2   15.90    9.20
   4   7  -2    4.60    8.10
   4   7  -2   11.70   10.10
  -4  -7   2   -7.00    8.30
   3   7  -2  635.04   18.30
   3   7  -2  649.24   20.30
   3   7  -2  640.44   20.90
   3   7  -2  627.24   18.80
   3   7  -2  651.53   21.40
   3   7  -2  613.74   18.10
   3   7  -2  609.94   19.90
   3   7  -2  624.64   19.70
   2   7  -2  125.09   15.70
   2   7  -2  150.78   13.50
   2   7  -2  145.29   14.70
   2   7  -2  160.48   14.00
   2   7  -2  150.58   10.40
   2   7  -2  168.08   13.10
   2   7  -2  135.59    9.50
   2   7  -2  153.48   13.90
   1   7  -2   10.30    7.90
   1   7  -2   12.50    7.10
   1   7  -2   -1.90    7.30
   1   7  -2   -0.70    4.80
   1   7  -2   16.20    5.90
   1   7  -2   14.40    6.40
   1   7  -2   11.40    6.40
   1   7  -2    7.70    6.40
   1   7  -2    6.00    6.80
   0   7  -2   70.09    9.20
   0   7  -2   70.79    9.50
   0   7  -2   57.59    7.10
   0   7  -2   56.69    6.90
   0   7  -2   75.99    6.60
   0   7  -2   88.19    7.80
   0   7  -2   74.39    6.80
   0  -7   2   91.89    8.10
   0  -7   2   78.39    8.20
  -1   7  -2   68.29    8.70
  -1   7  -2   76.89    6.40
  -1   7  -2   54.69    9.00
  -1   7  -2   63.89    5.90
   1  -7   2   60.29    7.20
   1  -7   2   90.09   10.90
   1  -7   2   70.89    7.80
   1  -7   2   71.69    6.50
  -2   7  -2   20.50    5.00
  -2   7  -2   25.00    5.30
  -2   7  -2   24.90    5.00
  -2   7  -2   20.70    7.70
  -2   7  -2   20.60    8.80
   2  -7   2   24.70    7.50
   2  -7   2   27.70    5.30
   2  -7   2   27.70    9.30
   2  -7   2   16.60    6.70
   2  -7   2   39.70    5.00
   2  -7   2   30.10    5.00
  -3   7  -2   23.30    6.40
  -3   7  -2   34.70    6.20
  -3   7  -2   29.60    9.90
   3  -7   2   23.30    5.90
   3  -7   2   19.40    8.90
   3  -7   2   23.70    5.30
  -4   7  -2   34.60    9.90
  -4   7  -2   31.40    7.40
  -4   7  -2   32.90   13.20
   4  -7   2   33.20    7.20
   4  -7   2   35.40    6.70
   4  -7   2   31.60    9.90
  -5   7  -2    8.20   10.90
  -5   7  -2   -5.10    7.60
  -5   7  -2    7.60    7.60
   5  -7   2   -4.10    9.20
   5  -7   2   11.20    7.60
  -6   7  -2    4.30    7.80
  -6   7  -2   10.80    9.00
   6  -7   2   -3.50    8.30
   6  -7   2    0.30    9.90
  -7   7  -2   -1.80    8.60
  -7   7  -2    0.00   10.20
   7  -7   2    5.50    8.40
   7  -7   2    5.80   10.40
   7  -7   2    7.40    9.30
   6   6  -2  -15.00   14.60
   6   6  -2   21.00   12.50
   6   6  -2   -2.00    9.70
  -6  -6   2   17.40    9.00
  -6  -6   2   18.60   10.40
  -6  -6   2    6.40    7.70
   5   6  -2   17.60    8.50
   5   6  -2   29.50    9.10
  -5  -6   2   27.80    7.90
  -5  -6   2   28.50    9.70
  -5  -6   2    8.30    8.40
   4   6  -2    8.70    8.40
   4   6  -2    2.70    7.40
   4   6  -2   10.50    9.60
   4   6  -2   -1.90    7.10
   4   6  -2    3.10    6.80
  -4  -6   2   13.90    7.40
  -4  -6   2    5.50   13.00
   3   6  -2  208.18   13.10
   3   6  -2  208.18   11.40
   3   6  -2  207.48   10.40
   3   6  -2  216.68   13.60
   3   6  -2  221.68   11.00
   3   6  -2  212.38   13.40
   3   6  -2  205.18   11.90
   3   6  -2  212.48   13.30
  -3  -6   2  219.38   13.40
  -3  -6   2  227.68   13.10
   2   6  -2    6.70    5.20
   2   6  -2    8.50    5.70
   2   6  -2   12.80    7.20
   2   6  -2   10.10    7.00
   2   6  -2    8.70    5.60
   2   6  -2   36.80    6.60
   2   6  -2   18.30    6.30
   2   6  -2   14.80    5.00
   2   6  -2   12.20    5.80
   1   6  -2  266.77    9.90
   1   6  -2  270.57    9.40
   1   6  -2  262.37   11.20
   1   6  -2  259.27   10.50
   1   6  -2  242.58   10.80
   1   6  -2  257.17   11.30
   1   6  -2  250.57   12.60
   1   6  -2  253.57   12.90
   1   6  -2  256.57   10.40
   0   6  -2  518.15   13.80
   0   6  -2  504.65   12.60
   0   6  -2  508.85   17.00
   0   6  -2  483.85   16.00
   0   6  -2  509.75   14.70
   0   6  -2  502.65   14.50
   0   6  -2  513.35   12.80
   0  -6   2  528.75   17.50
   0  -6   2  500.65   14.00
   0  -6   2  518.35   14.20
  -1   6  -2   47.60    4.30
  -1   6  -2   53.19    4.50
  -1   6  -2   43.90    7.80
  -1   6  -2   46.30    7.50
  -1   6  -2   53.29    5.30
   1  -6   2   45.90    5.00
   1  -6   2   58.69    6.70
   1  -6   2   51.49    4.30
   1  -6   2   43.20    8.20
   1  -6   2   60.99    4.40
   1  -6   2   53.19    6.60
  -2   6  -2  548.85   18.70
  -2   6  -2  528.25   17.10
  -2   6  -2  540.55   14.60
  -2   6  -2  554.14   12.70
   2  -6   2  548.15   12.60
   2  -6   2  556.54   18.50
   2  -6   2  552.04   12.40
   2  -6   2  534.05   12.40
  -3   6  -2   26.40    5.70
  -3   6  -2   28.40    7.80
  -3   6  -2   35.20    9.80
  -3   6  -2   22.40    5.50
   3  -6   2   22.00    8.00
   3  -6   2   20.40    5.90
   3  -6   2   31.20    5.30
   3  -6   2   29.30    5.40
  -4   6  -2    9.10    6.70
  -4   6  -2   17.40    8.10
  -4   6  -2    6.80    6.50
   4  -6   2   12.10    6.50
   4  -6   2   20.10    9.00
   4  -6   2   13.60    5.90
  -5   6  -2   79.19    8.70
  -5   6  -2   64.99    8.80
  -5   6  -2   67.09   10.40
   5  -6   2   60.49   10.70
   5  -6   2   65.89    8.70
  -6   6  -2   28.50    7.90
  -6   6  -2   35.30    8.80
  -6   6  -2   53.09   11.30
   6  -6   2   46.00    8.70
   6  -6   2   45.60   13.30
   6  -6   2   31.90    8.10
  -7   6  -2   15.10    8.90
  -7   6  -2    9.10    9.90
   7  -6   2   16.00   10.10
   7  -6   2   -4.80    9.20
   7  -6   2  -10.10    8.90
   7   5  -2    6.70    6.30
   7   5  -2    4.50    7.70
   7   5  -2    6.60   10.40
  -7  -5   2   11.30    8.90
  -7  -5   2    0.90    1.70
  -7  -5   2   16.40    9.50
  -7  -5   2    4.70    9.80
  -7  -5   2    9.60    6.40
   6   5  -2    8.10    8.40
   6   5  -2   10.30    5.70
   6   5  -2    9.60    6.00
  -6  -5   2   11.70    5.40
  -6  -5   2   22.80    8.10
  -6  -5   2    6.00    4.80
  -6  -5   2   16.00    9.60
  -6  -5   2   11.90    8.70
   5   5  -2   66.29    9.00
   5   5  -2   76.09    7.20
   5   5  -2   78.59    6.10
  -5  -5   2   78.39    9.50
  -5  -5   2   77.69    8.30
  -5  -5   2   65.59   10.90
   4   5  -2   26.70    7.20
   4   5  -2   39.30    7.20
   4   5  -2   40.70    9.00
   4   5  -2   37.20    7.50
   4   5  -2   37.10    6.90
  -4  -5   2   36.40    7.80
  -4  -5   2   32.50    7.00
  -4  -5   2   38.90    7.90
   3   5  -2   31.20    6.00
   3   5  -2   29.60    6.80
   3   5  -2   60.39    8.70
   3   5  -2   30.70    6.70
   3   5  -2   36.50    7.60
   3   5  -2   39.60    5.80
   3   5  -2   34.10    5.70
  -3  -5   2   34.80    7.60
  -3  -5   2   39.40    7.70
   2   5  -2   14.50    5.40
   2   5  -2   17.30    4.60
   2   5  -2    9.10    6.30
   2   5  -2   13.70    5.40
   2   5  -2   18.90    6.30
   2   5  -2   14.10    5.60
   2   5  -2   17.70    4.90
   2   5  -2   21.00    4.90
   2   5  -2   13.50    5.00
  -2  -5   2   17.40    6.50
  -2  -5   2   11.40    5.70
   1   5  -2  322.47    9.90
   1   5  -2  328.67   11.40
   1   5  -2  318.97   12.80
   1   5  -2  334.87   11.50
   1   5  -2  333.97    9.90
   1   5  -2  336.87   10.80
   1   5  -2  325.57   10.70
   1   5  -2  347.67   13.00
   1   5  -2  329.97   10.60
  -1  -5   2  330.77   10.90
  -1  -5   2  320.27   12.80
  -1  -5   2  334.97   13.50
   0   5  -2  216.48    8.70
   0   5  -2  228.48   11.20
   0   5  -2  220.58   11.80
   0   5  -2  207.08    9.60
   0  -5   2  218.18    9.40
   0  -5   2  210.28    9.20
   0  -5   2  217.58   11.80
  -1   5  -2   15.30    7.10
  -1   5  -2    6.80    6.70
  -1   5  -2   12.10    3.90
  -1   5  -2   13.70    4.00
   1  -5   2   17.00    3.60
   1  -5   2   24.20    5.90
   1  -5   2   18.60    3.60
   1  -5   2   23.20    5.90
   1  -5   2   17.70    7.20
   1  -5   2   15.00    3.80
  -2   5  -2  584.74   13.00
  -2   5  -2  564.64   13.00
  -2   5  -2  572.24   18.00
  -2   5  -2  568.44   16.40
   2  -5   2  596.14   12.80
   2  -5   2  567.44   17.40
   2  -5   2  559.54   12.70
  -3   5  -2   -1.40    5.00
  -3   5  -2   -3.20    5.20
  -3   5  -2   -4.00    5.80
   3  -5   2    0.60    4.70
   3  -5   2    0.80    7.20
   3  -5   2   -0.30    4.40
  -4   5  -2   23.90    7.50
  -4   5  -2   10.10    6.10
  -4   5  -2   17.80    6.10
   4  -5   2   18.90    9.60
   4  -5   2   25.60    8.40
   4  -5   2   18.80    5.90
  -5   5  -2  133.99   12.00
  -5   5  -2  160.78   14.20
  -5   5  -2  153.48   13.20
   5  -5   2  141.89   11.00
   5  -5   2  148.79   15.00
   5  -5   2  137.39   10.90
  -6   5  -2   80.29   10.30
  -6   5  -2   79.09   10.40
  -6   5  -2   69.99    9.00
   6  -5   2   67.79    9.40
   6  -5   2   72.89   11.20
   6  -5   2   53.69    8.30
  -7   5  -2    6.80    8.80
  -7   5  -2    8.00   10.10
   7  -5   2   12.60    8.40
   7  -5   2   12.70   10.10
   7  -5   2   12.70   10.40
   7   4  -2   47.30    7.50
   7   4  -2   49.99    7.90
  -7  -4   2   50.79   12.60
  -7  -4   2   40.80    8.50
  -7  -4   2   45.90    9.60
  -7  -4   2   49.70    6.90
  -7  -4   2   54.49   10.50
   6   4  -2   49.40    7.00
   6   4  -2   50.79    7.60
   6   4  -2   27.20    7.10
  -6  -4   2   63.19    8.90
  -6  -4   2   51.19    6.50
  -6  -4   2   46.70    6.10
  -6  -4   2   42.50   15.00
  -6  -4   2   46.10   10.50
   5   4  -2    9.60    6.10
   5   4  -2    2.50    5.00
   5   4  -2   -9.70    4.80
  -5  -4   2    2.10    7.70
  -5  -4   2    2.20    6.00
  -5  -4   2   -2.20    8.40
  -5  -4   2   -7.20    4.60
  -5  -4   2    5.30    4.70
   4   4  -2   32.10    4.20
   4   4  -2   28.50    6.20
   4   4  -2   29.70    4.20
  -4  -4   2   29.60    4.10
  -4  -4   2   14.70    5.30
  -4  -4   2   33.40    4.10
  -4  -4   2   21.50    7.50
  -4  -4   2   23.20    7.30
   3   4  -2   21.60    5.00
   3   4  -2   29.50    5.70
   3   4  -2   28.20    5.30
   3   4  -2   33.50    7.00
   3   4  -2   25.70    5.50
  -3  -4   2   25.10    5.10
  -3  -4   2   24.80    5.90
  -3  -4   2   21.60    6.40
  -3  -4   2   33.20    6.40
   2   4  -2   10.30    4.10
   2   4  -2   13.40    5.60
   2   4  -2    8.20    4.40
   2   4  -2   12.30    5.60
   2   4  -2   13.40    6.00
   2   4  -2   19.30    5.30
   2   4  -2    9.30    4.40
   2   4  -2   17.00    5.90
  -2  -4   2    6.70    5.40
  -2  -4   2    8.70    5.90
  -2  -4   2    8.50    5.70
   1   4  -2   65.29    7.00
   1   4  -2   78.49    7.10
   1   4  -2   69.99    7.70
   1   4  -2   74.79    7.30
   1   4  -2   70.39    6.90
   1   4  -2   64.29    8.40
   1   4  -2   70.69    6.10
   1   4  -2   69.79    7.60
  -1  -4   2   65.79    8.80
  -1  -4   2   74.49    6.90
  -1  -4   2   70.79    9.10
   0   4  -2  311.47    7.20
   0   4  -2  312.47   12.30
   0   4  -2  312.37    7.10
   0   4  -2  317.37   10.20
   0   4  -2  304.77    9.70
   0   4  -2  317.07   11.50
   0  -4   2  310.07   12.10
   0  -4   2  306.37   11.50
   0  -4   2  308.97    7.10
   0  -4   2  310.57    9.90
  -1   4  -2    7.10    3.70
  -1   4  -2    8.40    6.20
  -1   4  -2   16.00    6.80
  -1   4  -2   11.80    3.70
   1  -4   2   15.40    6.10
   1  -4   2    9.80    3.70
   1  -4   2   13.00    3.60
   1  -4   2   10.70    6.30
  -2   4  -2 1203.08   22.20
  -2   4  -2 1172.38   24.70
  -2   4  -2 1185.88   22.20
   2  -4   2 1232.18   22.20
   2  -4   2 1197.28   22.10
   2  -4   2 1170.08   25.90
  -3   4  -2  333.97   10.60
  -3   4  -2  356.86   12.20
  -3   4  -2  336.17   10.60
   3  -4   2  342.37   10.30
   3  -4   2  350.86   10.70
   3  -4   2  339.97   13.90
  -4   4  -2   68.29    7.60
  -4   4  -2   49.60    6.80
  -4   4  -2   51.69    6.30
   4  -4   2   57.09    6.20
   4  -4   2   47.70    8.20
   4  -4   2   43.20    6.40
  -5   4  -2  124.89   10.50
  -5   4  -2  132.39   11.00
   5  -4   2  140.29   14.20
   5  -4   2  110.49   10.60
   5  -4   2  129.59   10.70
  -6   4  -2   -1.20    8.50
  -6   4  -2    6.60    7.30
   6  -4   2   20.80    8.00
   6  -4   2   -3.10    7.50
   6  -4   2   -3.10    8.80
  -7   4  -2    0.10    8.80
  -7   4  -2   15.50    9.90
   7  -4   2   11.10    9.80
   7  -4   2    0.90    9.30
   7  -4   2   14.40    8.50
  -8   4  -2   61.39   10.70
   8  -4   2  120.09   16.60
   8  -4   2   86.39   13.20
   8   3  -2  112.09    9.80
   8   3  -2  147.09   13.40
  -8  -3   2  137.39   11.10
  -8  -3   2  131.49   12.80
  -8  -3   2  101.89   14.20
  -8  -3   2  118.39   11.40
  -8  -3   2  114.69   13.40
   7   3  -2   38.10    7.40
   7   3  -2   57.49    8.20
  -7  -3   2   43.50   11.30
  -7  -3   2   46.00   11.60
  -7  -3   2   36.00    6.90
  -7  -3   2   34.60    7.70
   6   3  -2  -12.70    6.00
   6   3  -2   12.20    7.20
   6   3  -2    1.20    7.60
  -6  -3   2   -0.70    8.70
  -6  -3   2  -14.40   10.00
  -6  -3   2    9.80    9.30
  -6  -3   2    6.70    5.70
  -6  -3   2   -3.00    5.60
   5   3  -2   58.89    5.90
   5   3  -2   38.80    6.30
   5   3  -2   55.19    5.90
  -5  -3   2   59.69    6.70
  -5  -3   2   71.49    9.20
  -5  -3   2   64.19   10.40
  -5  -3   2   69.49    6.10
  -5  -3   2   58.49    5.70
   4   3  -2  371.16    9.60
   4   3  -2  368.26   11.50
   4   3  -2  383.46    9.80
  -4  -3   2  381.46   14.00
  -4  -3   2  394.26   13.80
  -4  -3   2  367.66    9.40
  -4  -3   2  361.86   11.60
  -4  -3   2  376.86    9.50
  -4  -3   2  372.86   11.50
   3   3  -2  110.19    5.40
   3   3  -2  103.19    7.10
   3   3  -2  101.79    5.50
   3   3  -2  103.59    7.40
  -3  -3   2  107.29    7.30
  -3  -3   2  106.69    5.20
  -3  -3   2  109.39    5.00
  -3  -3   2  118.79    9.60
  -3  -3   2  115.79    8.90
  -3  -3   2   97.49    8.10
   2   3  -2    5.90    3.70
   2   3  -2    8.20    5.30
   2   3  -2    5.80    4.80
   2   3  -2   12.30    5.30
   2   3  -2    7.70    2.60
   2   3  -2    7.90    3.70
   2   3  -2    2.00    4.30
  -2  -3   2    2.70    5.10
  -2  -3   2    3.90    4.90
  -2  -3   2    4.10    4.70
  -2  -3   2    8.60    5.30
   1   3  -2   -4.20    3.50
   1   3  -2    3.80    3.40
   1   3  -2    0.50    3.80
   1   3  -2   -1.60    4.80
   1   3  -2   -4.20    3.80
   1   3  -2   -0.80    4.30
  -1  -3   2   -2.50    4.20
  -1  -3   2   -2.80    4.40
  -1  -3   2   -0.60    4.40
  -1  -3   2   -1.30    3.20
  -1  -3   2   -4.40    4.50
   0   3  -2 1181.68   20.20
   0   3  -2 1197.48   23.30
   0   3  -2 1178.28   20.50
   0   3  -2 1162.88   23.60
   0   3  -2 1172.38   20.10
   0   3  -2 1172.18   22.00
   0  -3   2 1174.48   25.00
   0  -3   2 1199.88   20.10
   0  -3   2 1172.08   20.80
   0  -3   2 1185.18   20.10
  -1   3  -2  330.97    8.10
  -1   3  -2  328.27    9.40
  -1   3  -2  334.67   10.40
   1  -3   2  318.57   12.10
   1  -3   2  327.97    8.20
   1  -3   2  332.57    8.10
   1  -3   2  315.67   11.50
  -2   3  -2 2647.83   44.20
  -2   3  -2 2616.24   44.20
  -2   3  -2 2677.63   45.80
   2  -3   2 2719.83   45.90
   2  -3   2 2356.76   50.89
   2  -3   2 2608.74   47.20
   2  -3   2 2664.03   44.20
  -3   3  -2   -4.80    4.50
  -3   3  -2    3.90    5.10
  -3   3  -2    3.90    4.70
   3  -3   2    0.20    4.50
   3  -3   2   -1.20    4.40
   3  -3   2    2.00    6.70
  -4   3  -2    3.80    5.30
  -4   3  -2    5.40    5.40
  -4   3  -2    7.70    5.40
   4  -3   2    0.20    5.00
   4  -3   2   11.60    7.60
   4  -3   2   10.00    5.70
  -5   3  -2  122.19   10.90
  -5   3  -2  108.89    8.10
  -5   3  -2  122.59   11.10
   5  -3   2  114.09   10.40
   5  -3   2  143.49   13.60
  -6   3  -2   88.69    9.00
  -6   3  -2   87.09    9.00
   6  -3   2   78.99    9.30
   6  -3   2   97.79    9.20
   6  -3   2   91.19   11.00
  -7   3  -2    4.20    8.50
  -7   3  -2   -0.70    8.10
  -7   3  -2    8.60    6.50
   7  -3   2   -1.70    9.10
   7  -3   2    9.60    8.10
   7  -3   2   10.10    9.60
  -8   3  -2   16.50    9.70
   8  -3   2   24.30   10.80
   8  -3   2   24.20   12.90
   8   2  -2    1.40    8.40
   8   2  -2    2.60    7.50
  -8  -2   2  -11.40   12.40
  -8  -2   2    2.10    7.60
  -8  -2   2   16.20    8.20
  -8  -2   2   -2.50    7.30
  -8  -2   2  -19.50   11.90
   7   2  -2  284.77   12.40
   7   2  -2  313.57   13.60
  -7  -2   2  305.77   13.30
  -7  -2   2  306.07   12.60
  -7  -2   2  266.37   19.60
   6   2  -2  487.85   13.90
   6   2  -2  492.15   15.40
   6   2  -2  478.35   14.10
  -6  -2   2  488.25   14.00
  -6  -2   2  463.85   13.50
  -6  -2   2  480.85   14.60
   5   2  -2  165.58    8.30
   5   2  -2  157.18    8.90
   5   2  -2  161.38    8.30
  -5  -2   2  152.28    7.90
  -5  -2   2  145.39    8.90
   4   2  -2 1296.17   22.90
   4   2  -2 1231.68   23.90
  -4  -2   2 1265.37   22.90
  -4  -2   2 1203.28   23.60
  -4  -2   2 1277.67   23.80
  -4  -2   2 1233.08   26.40
  -4  -2   2 1174.88   22.50
   3   2  -2  314.17    9.70
   3   2  -2  336.07    9.40
   3   2  -2  343.97    8.60
   3   2  -2  339.67    8.50
  -3  -2   2  352.16   12.10
  -3  -2   2  339.07   10.40
  -3  -2   2  326.17    8.40
  -3  -2   2  327.57    8.30
  -3  -2   2  339.07    9.60
   2   2  -2  909.81   16.10
   2   2  -2  916.21   16.10
   2   2  -2  935.11   17.10
   2   2  -2  923.21   16.60
  -2  -2   2  909.81   16.00
  -2  -2   2  909.11   18.40
  -2  -2   2  913.71   16.00
  -2  -2   2  916.91   18.70
  -2  -2   2  919.61   18.50
   1   2  -2  901.31   19.00
   1   2  -2  824.32   14.50
   1   2  -2  762.72   20.70
   1   2  -2  817.42   14.50
  -1  -2   2  835.22   14.40
  -1  -2   2  829.82   14.90
  -1  -2   2  830.32   16.50
  -1  -2   2  807.82   17.00
  -1  -2   2  838.92   14.50
  -1  -2   2  824.02   16.40
  -1  -2   2  822.92   16.70
  -1   2  -2 9999.00  160.08
  -1   2  -2 9867.41  159.58
  -1   2  -2 9997.20  158.78
   1  -2   2 9832.02  158.78
   1  -2   2 9982.00  158.88
  -2   2  -2  577.44   12.70
  -2   2  -2  568.24   12.60
  -2   2  -2  572.14   13.00
   2  -2   2  575.24   12.80
   2  -2   2  579.34   13.10
   2  -2   2  565.74   12.60
  -3   2  -2   18.90    5.20
  -3   2  -2   23.90    4.90
   3  -2   2   24.70    5.30
   3  -2   2   19.60    5.00
  -4   2  -2   26.30    6.10
  -4   2  -2   29.00    5.50
   4  -2   2   17.00    5.60
   4  -2   2   26.50    5.60
  -5   2  -2   58.89    7.30
  -5   2  -2   54.79    7.50
  -5   2  -2   60.79    6.60
   5  -2   2   66.39    8.30
   5  -2   2   45.00    7.90
  -6   2  -2    2.00    7.40
  -6   2  -2    0.50    6.10
  -6   2  -2  -10.40    7.10
   6  -2   2   -6.20    7.40
   6  -2   2    6.70    7.60
   6  -2   2   -0.90    9.40
  -7   2  -2  159.98   11.30
  -7   2  -2  120.29   12.80
  -7   2  -2  116.99   10.60
   7  -2   2  115.49   11.30
   7  -2   2  106.69   15.30
   7  -2   2   95.59    9.90
   8   1  -2    9.20   12.90
   8   1  -2  -12.20    7.30
  -8  -1   2   -0.50    7.50
  -8  -1   2    4.90    7.30
   7   1  -2  110.59    9.00
   7   1  -2   86.59    8.50
  -7  -1   2   99.89    8.60
  -7  -1   2  113.39    9.20
   6   1  -2   16.10    6.30
   6   1  -2    7.00    6.60
   6   1  -2   13.00    6.20
  -6  -1   2   11.20    6.00
  -6  -1   2   12.00    5.90
  -6  -1   2   15.70    6.70
   5   1  -2   14.40    5.10
   5   1  -2   16.70    5.10
   5   1  -2   12.60    4.90
  -5  -1   2   21.10    4.90
  -5  -1   2   15.50    4.60
  -5  -1   2   15.10    5.30
   4   1  -2   -2.00    4.20
   4   1  -2    4.00    4.10
   4   1  -2    5.00    4.10
  -4  -1   2    0.30    4.10
  -4  -1   2   -3.80    3.80
  -4  -1   2   -1.80    4.00
   3   1  -2   46.50    4.10
   3   1  -2   36.10    4.20
   3   1  -2   39.50    4.20
  -3  -1   2   34.10    4.00
  -3  -1   2   41.00    6.90
  -3  -1   2   33.90    4.00
   2   1  -2  158.78    5.50
   2   1  -2  165.18    5.60
   2   1  -2  167.08    5.40
  -2  -1   2  155.78    5.20
  -2  -1   2  152.08    5.20
   1   1  -2 2329.67   38.40
   1   1  -2 2306.67   38.30
   1   1  -2 2325.57   39.30
  -1  -1   2 2321.57   38.30
  -1  -1   2 2361.56   39.30
  -1  -1   2 2357.36   39.30
  -1  -1   2 2338.07   38.30
   0   1  -2 3217.48   52.59
   0   1  -2 3256.57   52.49
   0   1  -2 3243.88   52.49
   0  -1   2 3265.47   52.59
   0  -1   2 3211.08   52.49
   0  -1   2 3160.18   52.49
  -2   1  -2 5422.96   89.39
  -2   1  -2 5591.34   90.79
   2  -1   2 5473.95   89.49
  -3   1  -2  699.03   15.30
  -3   1  -2  690.63   15.40
   3  -1   2  703.73   15.50
   3  -1   2  698.03   15.30
  -4   1  -2  218.88    9.40
  -4   1  -2  227.88   10.00
  -4   1  -2  229.68    9.70
   4  -1   2  225.18    9.80
   4  -1   2  220.98    9.90
  -5   1  -2  276.87   12.60
  -5   1  -2  267.37   11.10
  -5   1  -2  250.07   11.50
   5  -1   2  260.47   12.30
   5  -1   2  282.17   12.10
  -6   1  -2   87.29    8.40
   6  -1   2   97.79   10.00
   6  -1   2   83.79    9.30
  -7   1  -2  112.29   15.60
  -7   1  -2  140.69   13.40
   7  -1   2  121.79   12.10
   7  -1   2   98.89   12.30
   7  -1   2  119.09   11.60
   7  -1   2   98.39   10.10
  -9   0   2   32.30    8.10
   8   0  -2   -5.30    7.30
   8   0  -2   -9.20    8.10
  -8   0   2    6.10    7.90
  -8   0   2    1.30    7.70
  -8   0   2   -7.40    9.00
   7   0  -2   -8.80    6.70
   7   0  -2    9.60    7.30
  -7   0   2   -2.30    6.00
  -7   0   2   -4.30    7.00
   6   0  -2  381.16   12.90
   6   0  -2  380.46   12.90
   6   0  -2  377.86   12.40
  -6   0   2  392.46   12.30
  -6   0   2  392.56   11.90
  -6   0   2  385.36   13.10
   5   0  -2  175.68    8.80
   5   0  -2  192.08    8.80
   5   0  -2  180.48    7.80
  -5   0   2  164.58    8.90
  -5   0   2  187.88    7.90
  -5   0   2  174.78    8.10
   4   0  -2  471.85   11.80
   4   0  -2  481.45   11.00
   4   0  -2  484.05   11.90
  -4   0   2  493.65   11.80
  -4   0   2  504.35   11.80
  -4   0   2  483.45   12.00
   3   0  -2  219.58    7.40
   3   0  -2  200.88    7.00
  -3   0   2  218.18    7.20
  -3   0   2  213.58    6.10
  -3   0   2  205.38    6.90
   2   0  -2  143.29    5.60
   2   0  -2  145.49    4.30
   2   0  -2  142.79    5.70
  -2   0   2  144.99    5.60
  -2   0   2  143.29    5.50
   1   0  -2   49.00    4.50
   1   0  -2   37.80    4.10
  -1   0   2   48.30    4.10
  -1   0   2   40.00    4.20
   0   0  -2 4522.05   71.89
   0   0   2 4395.86   71.79
   0   0   2 4431.96   71.89
  -1   0  -2  781.42   15.00
  -1   0  -2  780.12   14.90
  -1   0  -2  815.92   15.10
   1   0   2  810.92   15.90
   1   0   2  784.52   15.00
   1   0   2  778.82   14.90
  -2   0  -2   84.59    6.10
  -2   0  -2   88.79    6.80
   2   0   2   89.19    6.90
   2   0   2   75.59    6.60
   2   0   2   81.49    6.30
  -3   0  -2 1155.08   22.50
  -3   0  -2 1214.08   22.80
   3   0   2 1188.88   22.80
   3   0   2 1191.18   23.10
   3   0   2 1203.68   22.80
  -4   0  -2   -1.10    4.80
  -4   0  -2   -4.30    5.60
  -4   0  -2    1.40    5.50
   4   0   2   -0.60    5.00
   4   0   2   -1.70    5.10
   4   0   2   -5.00    5.30
  -5   0  -2   99.59    8.40
  -5   0  -2   91.59    7.80
  -5   0  -2   85.09    8.20
   5   0   2   77.09    8.10
   5   0   2   77.09    8.20
   5   0   2   73.29    8.60
  -6   0  -2    4.70    7.50
  -6   0  -2   -2.30    7.20
   6   0   2    2.40    8.00
   6   0   2   -0.90    7.40
   6   0   2   14.10    7.40
  -7   0  -2   -4.70    8.40
  -7   0  -2    4.90    8.00
  -7   0  -2   -0.40    9.30
   7   0   2    6.10    8.00
   7   0   2    7.40    9.40
   7   0   2    7.60    8.40
   9  -1  -2   -1.60    8.90
   9  -1  -2    1.40   10.70
  -9   1   2   -3.20    8.30
  -9   1   2    0.90    6.90
   8  -1  -2   37.50    8.70
   8  -1  -2   61.59   10.10
  -8   1   2   37.00    9.40
  -8   1   2   42.40    7.20
   7  -1  -2   84.49    9.10
   7  -1  -2   85.19   14.50
  -7   1   2   95.69    8.90
  -7   1   2   87.39    8.70
   6  -1  -2  353.26   12.70
   6  -1  -2  357.76   10.90
   6  -1  -2  361.86   12.60
  -6   1   2  365.96   10.70
  -6   1   2  351.46   12.90
  -6   1   2  344.97   12.20
   5  -1  -2  288.77    8.50
   5  -1  -2  297.57   10.30
   5  -1  -2  308.37   10.50
  -5   1   2  312.37   10.60
  -5   1   2  281.37    9.90
  -5   1   2  295.27    8.40
   4  -1  -2    4.50    4.50
   4  -1  -2    8.50    4.20
   4  -1  -2    8.30    4.30
  -4   1   2    9.40    3.10
  -4   1   2   14.00    5.20
  -4   1   2    8.00    4.60
   3  -1  -2 1135.89   20.80
   3  -1  -2 1115.09   20.60
  -3   1   2 1108.99   20.70
  -3   1   2 1134.59   20.90
  -3   1   2 1124.89   18.80
   2  -1  -2 1361.06   23.60
   2  -1  -2 1332.07   23.60
  -2   1   2 1376.86   23.60
  -2   1   2 1355.96   23.60
   1  -1  -2    2.50    3.70
   1  -1  -2    9.40    3.40
  -1   1   2    7.50    3.40
  -1   1   2    8.40    3.60
   0  -1  -2  781.32   14.30
   0  -1  -2  730.23   15.10
   0  -1  -2  776.92   14.20
   0   1   2  775.72   14.70
   0   1   2  759.52   14.10
  -1  -1  -2  150.38    5.80
  -1  -1  -2  146.29    6.20
   1   1   2  152.68    6.70
   1   1   2  163.88    6.20
   1   1   2  149.39    6.10
  -2  -1  -2  185.78    7.50
  -2  -1  -2  188.98    7.90
   2   1   2  176.28    7.50
   2   1   2  173.78    8.20
   2   1   2  194.38    7.80
  -3  -1  -2   53.89    6.70
  -3  -1  -2   33.50    6.20
  -3  -1  -2   39.80    5.00
   3   1   2   39.70    5.80
   3   1   2   46.80    5.50
   3   1   2   42.30    5.40
  -4  -1  -2  600.24   14.90
  -4  -1  -2  585.44   14.40
  -4  -1  -2  576.34   15.60
   4   1   2  599.54   16.40
   4   1   2  605.04   15.10
   4   1   2  579.44   14.90
  -5  -1  -2   42.00    7.70
  -5  -1  -2   44.10    7.30
  -5  -1  -2   46.90    6.80
   5   1   2   69.29    8.20
   5   1   2   41.70    8.20
   5   1   2   46.20    8.20
  -6  -1  -2   31.80    7.90
  -6  -1  -2   23.10    9.60
  -6  -1  -2   43.80    8.70
   6   1   2   35.80    9.60
   6   1   2   40.70    8.30
   6   1   2   24.70    8.40
  -7  -1  -2    0.60    9.80
  -7  -1  -2   16.70    8.80
  -7  -1  -2   17.40    8.60
  -7  -1  -2    9.00    8.70
  -7  -1  -2    4.90    8.60
   7   1   2   25.20   11.60
   7   1   2    3.00    7.90
   7   1   2   11.20    9.40
   9  -2  -2   18.10   16.20
   9  -2  -2   13.10   11.50
  -9   2   2   18.40    7.50
  -9   2   2   33.00    9.20
   8  -2  -2   36.70    9.60
   8  -2  -2   30.80    8.20
  -8   2   2   34.90    6.70
  -8   2   2   41.70    9.00
  -8   2   2   42.30    9.20
   7  -2  -2  102.89    9.30
   7  -2  -2   88.09    8.60
  -7   2   2   99.49    8.20
  -7   2   2  108.49    9.70
  -7   2   2   86.79    9.30
   6  -2  -2  -11.00    6.00
   6  -2  -2    5.00    6.20
  -6   2   2   -0.90    5.80
  -6   2   2    0.10    6.20
  -6   2   2    2.00    4.30
   5  -2  -2  472.35   12.80
   5  -2  -2  476.45   13.10
  -5   2   2  486.95   13.10
  -5   2   2  476.85   10.30
  -5   2   2  473.95   12.70
   4  -2  -2 1222.18   23.10
   4  -2  -2 1200.78   22.80
  -4   2   2 1174.48   22.80
  -4   2   2 1200.58   23.00
   3  -2  -2  807.02   16.20
   3  -2  -2  797.82   15.90
  -3   2   2  798.22   16.20
  -3   2   2  773.32   23.00
  -3   2   2  814.02   16.10
   2  -2  -2   69.69    5.20
   2  -2  -2   68.89    5.30
   2  -2  -2   81.29    5.10
  -2   2   2   69.19    5.20
  -2   2   2   74.29    5.30
   1  -2  -2  846.82   16.60
   1  -2  -2  834.82   15.50
   1  -2  -2  839.92   15.40
  -1   2   2  855.11   15.60
  -1   2   2  860.61   15.60
   0  -2  -2   13.50    4.10
   0  -2  -2   18.60    3.30
   0  -2  -2   18.10    3.40
   0   2   2   18.90    3.40
   0   2   2   16.20    4.10
  -1  -2  -2  179.38    7.00
  -1  -2  -2  193.18    9.10
  -1  -2  -2  188.38    6.30
   1   2   2  190.08    8.60
   1   2   2  194.98    7.10
   1   2   2  195.38    6.90
  -2  -2  -2  136.89    7.10
  -2  -2  -2  136.19    8.90
  -2  -2  -2  141.59    7.20
  -2  -2  -2  136.39    6.60
   2   2   2  126.59    8.20
   2   2   2  141.19    7.00
   2   2   2  147.09    8.00
  -3  -2  -2  239.78    9.90
  -3  -2  -2  231.58   10.40
  -3  -2  -2  231.78    9.00
  -3  -2  -2  216.88    8.70
   3   2   2  218.18   10.40
   3   2   2  232.98    9.20
   3   2   2  225.38    8.90
  -4  -2  -2  273.87   12.80
  -4  -2  -2  262.47   10.80
  -4  -2  -2  239.88   13.00
  -4  -2  -2  255.77   10.20
  -4  -2  -2  249.48   11.90
   4   2   2  233.08   10.60
   4   2   2  249.18   11.10
   4   2   2  236.28   12.20
  -5  -2  -2  340.37   16.00
  -5  -2  -2  361.46   13.30
  -5  -2  -2  333.07   14.50
  -5  -2  -2  349.57   14.50
  -5  -2  -2  333.67   12.50
  -5  -2  -2  342.47   12.70
   5   2   2  350.06   15.50
   5   2   2  345.17   13.60
   5   2   2  329.87   13.00
  -6  -2  -2    2.40    7.20
  -6  -2  -2    6.90   16.40
  -6  -2  -2   19.00    8.50
  -6  -2  -2   15.00    8.50
  -6  -2  -2   -4.00    7.00
  -6  -2  -2    7.30    7.40
   6   2   2   -2.10    7.10
   6   2   2  -12.90    7.70
  -7  -2  -2   -5.20    7.70
  -7  -2  -2   -7.80   10.80
  -7  -2  -2   13.70   10.60
  -7  -2  -2    6.30    7.80
  -7  -2  -2   14.00    9.40
  -7  -2  -2    6.40    9.30
   7   2   2   -3.40    9.70
   7   2   2   16.40   20.70
   9  -3  -2    1.30   11.80
  -9   3   2    8.90    6.20
  -9   3   2   -0.40    9.00
   8  -3  -2   89.49    9.50
   8  -3  -2  110.29   10.70
  -8   3   2   78.49    9.60
  -8   3   2   91.49    8.20
  -8   3   2   90.79   11.20
   7  -3  -2   47.00    7.90
   7  -3  -2   49.00    8.20
  -7   3   2   53.09    5.60
  -7   3   2   37.20    9.10
  -7   3   2   65.49    9.00
   6  -3  -2    6.80    6.80
   6  -3  -2   -0.40    6.80
  -6   3   2    2.10    7.10
  -6   3   2    2.00    6.30
   5  -3  -2   91.49    7.90
   5  -3  -2  103.49    8.70
  -5   3   2  101.79   10.30
  -5   3   2  104.49    8.30
  -5   3   2   96.69    8.50
   4  -3  -2  153.58    8.10
   4  -3  -2  145.69    7.60
  -4   3   2  164.38    8.00
  -4   3   2  150.58    9.60
  -4   3   2  156.88    8.00
   3  -3  -2  699.83   15.00
   3  -3  -2  686.23   14.60
   3  -3  -2  703.03   14.90
  -3   3   2  699.93   14.80
  -3   3   2  691.23   17.30
  -3   3   2  704.63   14.90
   2  -3  -2 1001.80   19.00
   2  -3  -2 1052.79   19.80
   2  -3  -2 1040.80   19.20
  -2   3   2 1011.00   19.60
  -2   3   2 1033.60   20.40
  -2   3   2 1038.00   19.10
   1  -3  -2   36.40    3.80
   1  -3  -2   33.20    6.00
   1  -3  -2   21.50    5.10
   1  -3  -2   24.60    3.50
   1  -3  -2   29.20    3.90
  -1   3   2   28.10    3.90
  -1   3   2   27.80    4.40
  -1   3   2   29.40    3.90
   0  -3  -2  606.14   13.20
   0  -3  -2  623.14   15.10
   0  -3  -2  610.44   12.30
   0  -3  -2  601.84   12.10
   0   3   2  612.34   12.50
   0   3   2  622.04   12.30
   0   3   2  591.04   14.40
  -1  -3  -2   13.30    3.80
  -1  -3  -2   16.00    5.50
  -1  -3  -2   16.50    5.30
  -1  -3  -2   15.40    4.00
  -1  -3  -2   13.30    4.80
   1   3   2   12.60    3.70
   1   3   2   16.80    3.90
   1   3   2   10.20    5.40
   1   3   2   14.60    5.70
  -2  -3  -2  323.97   11.00
  -2  -3  -2  318.07    9.10
  -2  -3  -2  323.37    8.80
  -2  -3  -2  306.37    9.80
  -2  -3  -2  323.67   11.20
   2   3   2  301.47   11.60
   2   3   2  320.97    9.10
   2   3   2  315.97    9.00
  -3  -3  -2   91.49    7.10
  -3  -3  -2   71.29    7.30
  -3  -3  -2   80.59    7.60
  -3  -3  -2   91.19    7.70
  -3  -3  -2   83.19    8.40
   3   3   2   69.69    7.60
   3   3   2   82.09    6.60
   3   3   2   93.59    7.90
  -4  -3  -2  110.79   11.10
  -4  -3  -2  110.79    8.70
  -4  -3  -2  123.59   12.60
  -4  -3  -2  111.39   11.20
   4   3   2  125.59    9.90
   4   3   2  103.89    9.40
   4   3   2  117.39   11.40
  -5  -3  -2  240.98   13.90
  -5  -3  -2  247.38   14.30
  -5  -3  -2  245.08   13.90
  -5  -3  -2  262.37   12.10
   5   3   2  263.17   12.70
   5   3   2  258.27   12.10
  -6  -3  -2   32.00    8.10
  -6  -3  -2   12.50    6.90
  -6  -3  -2   17.10    9.10
  -6  -3  -2    3.00    8.90
  -6  -3  -2    8.30    9.90
  -6  -3  -2    7.00    7.00
   6   3   2    6.00    8.00
   6   3   2   20.20   11.60
   6   3   2   13.80    7.50
   9  -4  -2   -5.10   10.70
  -9   4   2   -0.10    5.60
  -9   4   2   -9.20   15.50
  -9   4   2   11.80    9.00
   8  -4  -2   92.19   10.90
   8  -4  -2   75.59   10.00
  -8   4   2   72.89   10.20
  -8   4   2   86.69   10.90
  -8   4   2   92.09    7.40
   7  -4  -2   22.60    7.70
   7  -4  -2   20.20    7.90
  -7   4   2   27.40    7.90
  -7   4   2   25.00    4.70
  -7   4   2   19.90    7.50
   6  -4  -2   35.10    7.20
   6  -4  -2   39.60    8.20
  -6   4   2   53.19   10.50
  -6   4   2   42.60    7.50
  -6   4   2   54.99   10.90
   5  -4  -2   -1.60    5.50
   5  -4  -2   -3.10    6.00
  -5   4   2    3.60    6.80
  -5   4   2    0.00    5.50
  -5   4   2   -8.60    5.20
   4  -4  -2  159.38    9.10
   4  -4  -2  153.18    7.70
   4  -4  -2  163.28    8.70
  -4   4   2  151.78    8.20
  -4   4   2  167.48    8.30
  -4   4   2  162.18   11.00
   3  -4  -2   42.20    5.40
   3  -4  -2   39.20    4.90
   3  -4  -2   40.60    5.00
  -3   4   2   32.70    6.60
  -3   4   2   40.60    5.20
  -3   4   2   39.10    4.90
   2  -4  -2 2951.40   49.20
   2  -4  -2 2934.71   49.20
   2  -4  -2 2998.50   50.59
   2  -4  -2 2862.91   51.09
  -2   4   2 2948.70   50.39
  -2   4   2 2989.20   49.30
   1  -4  -2  557.74   14.70
   1  -4  -2  527.85   14.40
   1  -4  -2  558.44   11.80
   1  -4  -2  522.15   12.80
   1  -4  -2  537.05   11.30
   1  -4  -2  530.65   11.60
  -1   4   2  556.04   13.60
  -1   4   2  541.95   11.50
  -1   4   2  546.15   11.70
   0  -4  -2 1985.30   34.20
   0  -4  -2 1902.11   32.60
   0  -4  -2 1952.70   32.80
   0  -4  -2 1929.01   36.00
   0  -4  -2 1954.60   34.80
   0   4   2 1934.51   32.70
   0   4   2 1959.90   35.70
   0   4   2 1906.91   33.90
   0   4   2 1896.21   35.30
  -1  -4  -2   61.49    6.40
  -1  -4  -2   56.19    6.50
  -1  -4  -2   60.99    4.60
  -1  -4  -2   59.39    6.10
  -1  -4  -2   65.19    4.60
   1   4   2   60.79    4.70
   1   4   2   66.79    4.60
   1   4   2   59.89    6.80
   1   4   2   50.39    6.50
   1   4   2   65.49    7.40
   1   4   2   64.99    6.00
  -2  -4  -2    2.80    5.30
  -2  -4  -2    2.90    4.10
  -2  -4  -2   -6.10    5.50
   2   4   2    2.40    6.10
   2   4   2    5.10    4.20
   2   4   2    8.30    4.20
   2   4   2   -3.20    5.80
  -3  -4  -2   10.30    4.90
  -3  -4  -2    5.40    7.10
  -3  -4  -2   -1.90    6.00
  -3  -4  -2    7.10    7.90
   3   4   2    2.20    5.20
   3   4   2   -1.00    6.50
   3   4   2    4.10    7.30
   3   4   2    6.20    5.20
  -4  -4  -2  224.58   10.20
  -4  -4  -2  220.38    9.80
  -4  -4  -2  233.88   12.30
  -4  -4  -2  198.98   13.40
  -4  -4  -2  230.48   13.30
   4   4   2  218.98   13.30
   4   4   2  208.18   10.40
   4   4   2  236.68   10.90
  -5  -4  -2   17.80    7.00
  -5  -4  -2   14.90    8.90
  -5  -4  -2   21.40    9.00
  -5  -4  -2   16.30    8.30
   5   4   2    7.60    7.20
   5   4   2    2.90    6.60
   5   4   2   21.10    9.40
  -6  -4  -2    1.80    9.80
  -6  -4  -2   13.70   10.40
  -6  -4  -2    2.60    4.80
  -6  -4  -2    8.60    8.90
  -6  -4  -2   12.50   10.60
   6   4   2    2.90   11.60
   6   4   2   22.10    8.30
   6   4   2   -5.40    7.20
   8  -5  -2   31.00    8.70
   8  -5  -2   26.00   17.30
  -8   5   2   56.19   11.40
  -8   5   2   30.80    8.10
   7  -5  -2  133.69   12.50
   7  -5  -2  147.39   12.40
  -7   5   2  151.68   13.40
  -7   5   2  139.09   11.40
   6  -5  -2  481.05   15.30
   6  -5  -2  540.35   16.30
  -6   5   2  558.24   23.20
  -6   5   2  500.25   24.70
   5  -5  -2   85.89    8.20
   5  -5  -2   82.89    7.30
   5  -5  -2   78.29    8.20
  -5   5   2   83.49    7.80
  -5   5   2   83.09   10.60
  -5   5   2   83.09    8.00
   4  -5  -2    4.00    4.70
   4  -5  -2    6.50    5.60
   4  -5  -2   -4.10    5.00
  -4   5   2    1.50    5.20
  -4   5   2   -0.20    5.00
  -4   5   2    1.30    7.00
   3  -5  -2   -5.60    4.00
   3  -5  -2   -4.60    4.90
   3  -5  -2    9.30    8.30
  -3   5   2    4.50    4.40
  -3   5   2   -1.00    6.30
  -3   5   2    0.00    4.50
   2  -5  -2 1102.69   20.60
   2  -5  -2 1090.49   23.70
   2  -5  -2 1154.18   23.10
   2  -5  -2 1110.89   20.80
   2  -5  -2 1115.99   23.80
   2  -5  -2 1152.18   21.10
  -2   5   2 1110.19   22.80
  -2   5   2 1108.69   20.90
  -2   5   2 1105.59   26.30
  -2   5   2 1098.79   21.90
   1  -5  -2  173.98   10.30
   1  -5  -2  154.88    6.40
   1  -5  -2  171.78    7.30
   1  -5  -2  176.18    8.50
   1  -5  -2  170.48    6.80
   1  -5  -2  161.78   10.50
  -1   5   2  168.48    8.90
  -1   5   2  166.28    6.80
  -1   5   2  168.48    7.20
   0  -5  -2  137.79    8.80
   0  -5  -2  131.69    6.20
   0  -5  -2  128.59    8.00
   0  -5  -2  120.39    5.80
   0  -5  -2  128.79   10.10
   0   5   2  129.89    7.70
   0   5   2  134.19    6.30
   0   5   2  126.19   10.00
   0   5   2  122.49    8.60
  -1  -5  -2  178.58   11.30
  -1  -5  -2  174.18    9.60
  -1  -5  -2  177.78    6.90
  -1  -5  -2  187.18    6.90
  -1  -5  -2  184.88   10.40
   1   5   2  173.58    9.40
   1   5   2  186.38    9.70
   1   5   2  175.78   10.90
   1   5   2  178.98   11.30
   1   5   2  185.08    7.40
   1   5   2  179.28    7.00
   1   5   2  175.88   10.10
  -2  -5  -2   43.80    8.20
  -2  -5  -2   34.20    6.70
  -2  -5  -2   39.30    5.00
  -2  -5  -2   51.89    5.00
   2   5   2   43.00    5.50
   2   5   2   45.90    7.00
   2   5   2   43.20    5.10
   2   5   2   43.00    7.90
   2   5   2   35.60    7.90
  -3  -5  -2  121.09   10.70
  -3  -5  -2  121.99   11.50
  -3  -5  -2  135.89    8.00
   3   5   2  128.19   12.10
   3   5   2  140.49   12.10
   3   5   2  114.89   12.90
   3   5   2  117.49    8.70
   3   5   2  122.09    8.50
  -4  -5  -2   12.70    5.60
  -4  -5  -2   28.00    8.10
  -4  -5  -2    9.90    6.80
  -4  -5  -2   12.90    8.20
   4   5   2   29.60    6.40
   4   5   2   14.50    6.10
   4   5   2   12.90    8.90
   4   5   2   18.60   10.90
   4   5   2   16.30    8.00
  -5  -5  -2  228.28   14.10
  -5  -5  -2  202.38   14.90
  -5  -5  -2  162.78   13.50
   5   5   2  204.18   11.00
   5   5   2  172.28   11.40
   8  -6  -2   72.19   10.00
   8  -6  -2   92.69   11.00
  -8   6   2   55.59    9.20
   7  -6  -2   -6.90    8.10
   7  -6  -2   -1.10    7.30
  -7   6   2   -2.40    7.00
  -7   6   2    5.40    8.90
  -7   6   2  -26.90   16.20
   6  -6  -2    3.40    7.60
   6  -6  -2    7.60    7.00
  -6   6   2  -10.00   12.10
  -6   6   2    1.60   13.40
  -6   6   2   -0.70    6.10
   5  -6  -2  269.57   11.50
   5  -6  -2  280.57   12.00
   5  -6  -2  280.97   13.50
  -5   6   2  264.57   15.10
  -5   6   2  281.67   12.50
  -5   6   2  305.77   20.20
   4  -6  -2   89.59    7.20
   4  -6  -2  100.79    7.60
   4  -6  -2  112.29    8.90
  -4   6   2   97.09    8.90
  -4   6   2  107.29    9.50
  -4   6   2  102.99   13.90
   3  -6  -2  398.06   11.00
   3  -6  -2  398.76   10.40
   3  -6  -2  385.56   14.90
   3  -6  -2  381.36   13.50
  -3   6   2  390.66   11.60
  -3   6   2  401.56   16.90
  -3   6   2  405.76   11.40
   2  -6  -2   48.40    7.60
   2  -6  -2   59.39    6.00
   2  -6  -2   55.79    5.20
   2  -6  -2   54.39    5.10
   2  -6  -2   54.79    8.20
  -2   6   2   62.79    5.60
  -2   6   2   51.49    8.70
  -2   6   2   63.99    5.70
  -2   6   2   50.79    6.90
   1  -6  -2  191.58    8.60
   1  -6  -2  186.58    7.50
   1  -6  -2  188.58    7.00
   1  -6  -2  190.68   12.10
   1  -6  -2  190.58   11.60
   1  -6  -2  195.18    9.80
  -1   6   2  194.88    7.50
  -1   6   2  193.38    8.10
  -1   6   2  184.78   10.00
   0  -6  -2  135.99   10.20
   0  -6  -2  116.29   11.00
   0  -6  -2  128.69    9.00
   0   6   2  125.89    9.20
   0   6   2  133.49   12.20
   0   6   2  121.29    9.80
  -1  -6  -2   62.59    8.40
  -1  -6  -2   45.10    6.90
   1   6   2   46.40    7.30
   1   6   2   63.09    7.90
   1   6   2   44.00    8.90
   1   6   2   50.49    8.60
   1   6   2   57.39    7.60
  -2  -6  -2  120.69   11.30
  -2  -6  -2   99.99   10.00
   2   6   2  117.89   11.50
   2   6   2  103.59   10.20
  -3  -6  -2   59.89    9.30
  -3  -6  -2   53.09    8.80
   3   6   2   65.79   10.20
   3   6   2   61.49   13.90
   3   6   2   46.60   13.40
  -4  -6  -2   30.50    9.10
  -4  -6  -2   26.80    8.80
   4   6   2   22.70   13.80
   4   6   2   35.10   10.00
   4   6   2   23.30    5.90
   8  -7  -2   -7.10    9.20
   8  -7  -2    7.20    9.00
  -8   7   2   -8.50    7.90
  -8   7   2   -1.70   11.60
   7  -7  -2   35.70    9.30
   7  -7  -2   27.90    8.60
   7  -7  -2   27.20    8.30
  -7   7   2   23.00    8.30
  -7   7   2   26.40   10.10
  -7   7   2    6.90   19.70
   6  -7  -2   51.09    8.40
   6  -7  -2   35.60    8.60
  -6   7   2   22.30   14.30
  -6   7   2   46.40   15.50
  -6   7   2   34.10    7.80
   5  -7  -2   15.10   13.80
   5  -7  -2    7.00    5.50
   5  -7  -2   16.90    6.70
  -5   7   2   30.90   12.30
  -5   7   2   25.30    6.70
  -5   7   2   26.00    7.60
   4  -7  -2  140.29    9.80
   4  -7  -2  167.88   14.80
   4  -7  -2  147.59    9.30
   4  -7  -2  153.28   11.90
  -4   7   2  148.59   10.50
  -4   7   2  139.39   17.00
   3  -7  -2  261.07   13.20
   3  -7  -2  250.37    9.80
   3  -7  -2  275.47   15.20
   3  -7  -2  262.07   10.00
   3  -7  -2  256.47    9.90
   3  -7  -2  265.37   14.00
  -3   7   2  257.87   16.50
  -3   7   2  272.57   10.50
  -3   7   2  242.28   10.70
   2  -7  -2  422.56   16.10
   2  -7  -2  404.36   10.90
   2  -7  -2  431.76   12.80
   2  -7  -2  429.46   11.30
  -2   7   2  412.66   11.60
  -2   7   2  401.86   18.30
  -2   7   2  410.06   11.60
  -2   7   2  409.76   14.90
   1  -7  -2  206.98   11.10
   1  -7  -2  196.28   16.60
   1  -7  -2  193.38    7.70
   1  -7  -2  188.68   14.90
  -1   7   2  200.48    8.40
  -1   7   2  206.38   12.30
  -1   7   2  186.58   13.60
   0  -7  -2   49.60    7.00
   0  -7  -2   47.40    7.60
   0  -7  -2   49.30    8.40
   0   7   2   40.80    7.60
   0   7   2   28.40    7.70
   0   7   2   74.69    8.40
   0   7   2   52.29    7.80
   0   7   2   53.99   11.00
  -1  -7  -2   15.50    8.70
  -1  -7  -2   19.60    7.00
  -1  -7  -2   17.90    7.50
   1   7   2    7.00    7.10
   1   7   2    7.00    7.80
  -2  -7  -2  136.49   11.90
  -2  -7  -2  140.99   12.90
   2   7   2  156.48   13.30
   2   7   2  160.28   15.00
  -3  -7  -2   50.59   10.00
  -3  -7  -2   47.70    8.90
   3   7   2   46.40   12.20
   3   7   2   38.10   11.30
   3   7   2   51.69   17.80
   3   7   2   56.49   11.40
  -4  -7  -2   13.90    9.40
  -4  -7  -2   24.40    9.00
   4   7   2   27.00   12.40
   4   7   2   12.40   12.80
   4   7   2   14.40   10.50
   7  -8  -2   -1.00    7.80
   7  -8  -2   -7.70    8.60
   7  -8  -2   16.00    8.40
  -7   8   2   -7.90    9.40
  -7   8   2    0.60    8.30
   6  -8  -2    5.40    8.20
   6  -8  -2   10.10    7.50
  -6   8   2   20.60   14.40
  -6   8   2   10.00    6.90
   5  -8  -2   11.20    7.90
   5  -8  -2   14.80    6.80
  -5   8   2    1.60    7.50
  -5   8   2   -4.20    6.20
  -5   8   2   11.10    7.40
   4  -8  -2   34.10    9.50
   4  -8  -2   26.50    6.40
   4  -8  -2   51.19    6.90
   4  -8  -2   37.60    8.80
   4  -8  -2   36.00    8.40
  -4   8   2   39.60    6.70
  -4   8   2   21.50    6.60
  -4   8   2   48.80    7.70
   3  -8  -2   20.30    5.50
   3  -8  -2   34.00    8.40
   3  -8  -2   19.30    5.90
   3  -8  -2   15.00    9.40
  -3   8   2    5.80    5.10
  -3   8   2   20.90    6.50
   2  -8  -2  132.09    8.10
   2  -8  -2  115.19    8.00
   2  -8  -2  102.99   10.90
   2  -8  -2  137.99   12.80
   2  -8  -2  126.09   10.50
  -2   8   2  134.89    9.10
  -2   8   2  122.99    8.90
   1  -8  -2    2.70    8.70
   1  -8  -2    1.20    6.80
   1  -8  -2    7.10    8.50
  -1   8   2    3.00    3.90
  -1   8   2    1.00    6.70
   0  -8  -2    6.10    7.70
   0  -8  -2   -1.40    7.60
   0   8   2   -0.90    7.70
   0   8   2    4.20   10.00
   0   8   2   -7.90   12.90
  -1  -8  -2   16.60    7.40
  -1  -8  -2   26.00    8.10
   1   8   2   29.90    9.30
   1   8   2   18.80   10.10
   1   8   2   46.70   11.80
   1   8   2   40.30   15.50
  -2  -8  -2   18.60    8.40
  -2  -8  -2    2.80    7.60
   2   8   2    3.20   10.50
   2   8   2  -11.70   14.80
   2   8   2   20.50   11.10
   2   8   2    5.00    9.70
   2   8   2  -11.70   18.40
  -3  -8  -2   16.60   13.40
  -3  -8  -2   16.00    9.40
   3   8   2  -16.80   12.80
   3   8   2   40.60   12.20
   3   8   2    9.10   11.10
   3   8   2    6.30    9.70
   3   8   2    1.50   10.60
   6  -9  -2    7.70    8.60
   6  -9  -2   14.80    8.20
   6  -9  -2    6.50    7.60
  -6   9   2   14.80   21.70
  -6   9   2    9.10    7.20
  -6   9   2   15.50   15.50
   5  -9  -2   14.90    9.10
   5  -9  -2    9.10    8.30
   5  -9  -2    6.40    6.60
   5  -9  -2   -4.90   10.10
   5  -9  -2   -3.30    7.30
  -5   9   2   -6.10    7.90
  -5   9   2   -4.80    6.40
  -5   9   2   23.20   16.80
   4  -9  -2   19.10    6.10
   4  -9  -2   16.00    9.60
   4  -9  -2   22.70    8.60
   4  -9  -2   16.40    8.60
  -4   9   2   29.30    7.70
  -4   9   2   18.00    6.50
  -4   9   2   25.70   13.10
   3  -9  -2   23.00    8.90
   3  -9  -2   15.60    5.50
   3  -9  -2   19.10    6.10
   3  -9  -2   18.90    9.30
  -3   9   2   16.50   11.40
  -3   9   2   19.90    6.40
  -3   9   2   18.80    8.50
   2  -9  -2   16.30    9.40
   2  -9  -2   12.50    8.60
   1  -9  -2   55.89    8.70
   1  -9  -2   49.10    9.50
  -1   9   2   41.20    8.90
  -1   9   2   45.20    9.30
  -1   9   2   58.99    9.10
  -1   9   2   49.10   11.40
   0  -9  -2   -2.30    8.50
   0  -9  -2   -3.10    7.90
   0   9   2   11.10   10.30
   0   9   2    4.60   10.00
   0   9   2    7.30    8.40
   0   9   2    3.00    8.80
   0   9   2   -4.70    9.80
  -1  -9  -2    3.40    8.50
   1   9   2    2.40    8.80
   1   9   2   13.70    8.50
   1   9   2   10.70   11.10
   1   9   2   -7.30   10.00
   1   9   2    0.10   11.40
   5 -10  -2    9.50    9.90
   5 -10  -2   17.60   11.10
   5 -10  -2   -0.40    6.40
   5 -10  -2   21.20    8.80
   5 -10  -2    3.00    9.50
  -5  10   2   78.79   22.40
  -5  10   2    3.50    7.20
  -5  10   2    8.50    8.40
   4 -10  -2   23.10    7.80
   4 -10  -2    5.50    2.60
   4 -10  -2   14.00    9.70
   4 -10  -2   33.20   12.60
  -4  10   2   13.40    6.90
  -4  10   2   28.70   17.30
  -4  10   2   19.60    7.50
   3 -10  -2   -5.30    8.30
   3 -10  -2    4.60    2.00
  -3  10   2    0.10    6.40
  -3  10   2    5.60    6.40
  -3  10   2   11.00   12.90
   2 -10  -2   28.70    9.00
  -2  10   2   28.80   11.70
  -2  10   2   26.60    9.30
  -2  10   2   42.60   12.40
   1 -10  -2   20.80    9.20
  -1  10   2   16.20    8.90
  -1  10   2  -10.60    9.50
  -1  10   2   24.40   12.30
  -1  10   2   38.30   10.10
  -1  10   2   22.20   11.80
   0 -10  -2   27.20   10.70
   0  10   2   42.70   12.80
   0  10   2   49.99   14.00
   0  10   2   48.70   13.00
   0  10   2   56.79   10.80
   0  10   2   49.40   11.60
   1  11  -3    4.50    8.50
   1  11  -3  -11.10   11.90
   1  11  -3   14.50    9.40
   1  11  -3    0.50   13.10
   1  11  -3    7.30    7.10
   1  11  -3    5.60   11.00
   0  11  -3   -2.00    6.20
   0  11  -3   28.90    9.30
   0  11  -3  -10.10   12.20
   0  11  -3   13.80   10.10
   0  11  -3   18.30   11.20
   0  11  -3   10.50   11.40
  -1  11  -3   21.40    8.90
  -1  11  -3   30.40    7.20
  -1  11  -3   29.80    9.70
  -1  11  -3   18.80   13.40
  -1  11  -3   31.90   12.80
  -1  11  -3   33.70    9.10
   1 -11   3   37.90    9.90
   1 -11   3   44.50   10.40
  -2  11  -3   17.70    9.10
  -2  11  -3   34.00    8.90
  -2  11  -3   17.40    6.90
  -2  11  -3   16.90   14.90
  -2  11  -3   22.50   11.60
   2 -11   3   23.30    9.80
   2 -11   3   19.90    8.90
  -3  11  -3   52.39    8.90
  -3  11  -3    4.50   18.00
  -3  11  -3   59.79   13.90
  -3  11  -3   50.49    7.20
  -3  11  -3   45.90   12.60
  -3  11  -3   30.40    7.30
   3 -11   3   62.69    8.20
   3 -11   3   44.30   10.60
   3 -11   3   38.00   11.60
  -4  11  -3  -65.39   25.90
   3  10  -3   28.20   16.60
   3  10  -3   35.70   11.30
   3  10  -3    7.50   12.90
   3  10  -3    0.80   11.70
   3  10  -3    3.30   17.40
   3  10  -3   19.70   21.60
   3  10  -3   26.10   14.60
   3  10  -3   13.70   11.40
   3  10  -3   22.00    7.60
   2  10  -3   63.79   10.70
   2  10  -3  103.69   11.60
   2  10  -3   74.59   11.70
   2  10  -3   89.89   13.40
   2  10  -3   54.59   10.10
   2  10  -3   70.09   12.70
   2  10  -3   88.49   11.00
   2  10  -3   78.69   13.10
   1  10  -3    4.90    8.30
   1  10  -3    2.20   11.20
   1  10  -3   -0.80    8.30
   1  10  -3   -5.60   10.40
   1  10  -3    0.70    7.90
   1  10  -3   -2.70    6.10
   1  10  -3    8.10   10.10
   0  10  -3   30.40   11.30
   0  10  -3   25.70   11.90
   0  10  -3   48.60    8.70
   0  10  -3   30.30    8.80
   0  10  -3   21.10    7.20
   0  10  -3   17.30    7.40
   0 -10   3   30.60    8.80
  -1  10  -3    2.60    6.50
  -1  10  -3  -10.30   11.70
  -1  10  -3   14.40    7.20
  -1  10  -3   13.20    7.50
  -1  10  -3   12.60    8.90
   1 -10   3   -6.00    7.70
   1 -10   3    8.80    8.70
  -2  10  -3  102.29    8.00
  -2  10  -3  101.99    9.80
  -2  10  -3   99.39    9.50
  -2  10  -3   83.99   12.30
  -2  10  -3  118.59    9.40
   2 -10   3  102.99    8.80
   2 -10   3   87.99   13.60
   2 -10   3   83.99   10.50
   2 -10   3  115.29   11.10
  -3  10  -3   40.80    6.80
  -3  10  -3   45.40    7.60
  -3  10  -3   15.50   16.20
  -3  10  -3   34.50   10.80
   3 -10   3   47.50   11.90
   3 -10   3   39.00    7.20
   3 -10   3   25.60    9.50
   3 -10   3   37.20    9.90
  -4  10  -3   13.40   10.70
  -4  10  -3    4.20    7.10
  -4  10  -3   13.70    8.30
   4 -10   3    1.40    6.50
   4 -10   3    5.10    8.00
   4 -10   3    0.70    8.90
   4 -10   3   -3.40   10.50
   4 -10   3    6.60   11.00
  -5  10  -3   45.30   14.60
  -5  10  -3   32.10    8.50
  -5  10  -3   44.10    9.90
   5 -10   3   40.20   13.60
   5 -10   3   45.50    8.60
   5 -10   3   33.50   10.60
   5 -10   3   35.70    9.60
   4   9  -3   71.89   14.10
   4   9  -3   49.99   14.10
   4   9  -3   54.69   14.10
   4   9  -3   81.99   12.70
   4   9  -3   65.79   12.70
   4   9  -3   45.90    8.50
   4   9  -3   50.09   11.00
   3   9  -3   52.69   12.50
   3   9  -3   79.79   11.30
   3   9  -3   58.99    8.90
   3   9  -3   72.29   10.40
   3   9  -3   47.20   10.30
   3   9  -3   56.49   12.00
   3   9  -3   51.39   11.10
   3   9  -3   67.09   11.90
   3   9  -3   56.79   10.60
   2   9  -3    2.40    8.90
   2   9  -3    9.60   10.50
   2   9  -3    2.80    7.50
   2   9  -3    0.20    6.00
   2   9  -3   12.70    9.40
   2   9  -3    9.40    8.70
   2   9  -3    0.70    8.00
   2   9  -3    5.50   10.00
   2   9  -3   13.90    8.80
   1   9  -3  156.58   10.60
   1   9  -3  128.89   12.90
   1   9  -3  137.39   14.10
   1   9  -3  144.89   13.10
   1   9  -3  154.68   12.50
   1   9  -3  148.59   16.60
   1   9  -3  138.59   15.50
   0   9  -3   47.60    6.70
   0   9  -3   43.20   10.40
   0   9  -3   60.09   12.10
   0   9  -3   46.30    9.30
   0   9  -3   55.99    9.10
   0   9  -3   60.59    8.40
   0  -9   3   56.29    9.10
   0  -9   3   52.59   16.20
  -1   9  -3   11.30    6.90
  -1   9  -3    4.80    5.80
  -1   9  -3   -5.50    6.20
   1  -9   3    6.40    9.40
   1  -9   3    3.00    7.70
  -2   9  -3   47.60    6.10
  -2   9  -3   57.09    7.40
  -2   9  -3   56.69    6.80
   2  -9   3   64.09    6.30
   2  -9   3   53.79   11.40
   2  -9   3   71.59   10.50
   2  -9   3   62.59    5.90
   2  -9   3   44.00    8.80
  -3   9  -3   36.60    6.70
  -3   9  -3   31.70    7.30
  -3   9  -3   44.10    6.90
   3  -9   3   52.19    7.30
   3  -9   3   40.00    9.60
   3  -9   3   33.60    8.70
   3  -9   3   35.70    6.50
   3  -9   3   43.50   12.10
  -4   9  -3    9.60    7.80
  -4   9  -3  -13.60    6.80
   4  -9   3   -3.70    9.70
   4  -9   3    6.30    8.80
   4  -9   3   16.70    6.90
   4  -9   3  -12.20    8.60
  -5   9  -3    9.10    7.70
  -5   9  -3   18.20   15.00
   5  -9   3   18.30    7.90
   5  -9   3   22.70    8.50
   5  -9   3   26.90   11.40
  -6   9  -3   25.20    9.50
  -6   9  -3   48.80   20.10
  -6   9  -3   30.90   10.70
   6  -9   3   33.40    9.20
   6  -9   3   30.60   12.30
   5   8  -3  141.29   17.00
   5   8  -3  143.99   22.50
   5   8  -3  194.78   16.80
   5   8  -3  149.29   14.90
   5   8  -3  176.58   17.50
   5   8  -3  152.28   17.10
   4   8  -3    2.30   12.00
   4   8  -3   -6.40    8.40
   4   8  -3    6.60   10.40
   4   8  -3    8.00    8.70
   4   8  -3   11.70    9.20
   4   8  -3    2.40    8.20
   3   8  -3   26.80   10.80
   3   8  -3   21.90    7.90
   3   8  -3   11.40    8.20
   3   8  -3   15.70    9.10
   3   8  -3   14.40   10.10
   3   8  -3   14.50    7.70
   3   8  -3   20.10    8.50
   3   8  -3   18.70    8.70
   2   8  -3  184.18   11.80
   2   8  -3  201.68   13.10
   2   8  -3  202.98   13.60
   2   8  -3  203.38   15.80
   2   8  -3  199.68   15.30
   2   8  -3  210.18   14.10
   2   8  -3  219.98   14.00
   2   8  -3  172.68   10.70
   2   8  -3  196.98   14.10
   1   8  -3  112.79   10.50
   1   8  -3   82.99    9.00
   1   8  -3   94.49    8.20
   1   8  -3   98.99    9.60
   1   8  -3   75.69    9.70
   1   8  -3  103.39   12.20
   1   8  -3   85.69   11.60
   0   8  -3  211.98   11.30
   0   8  -3  224.18   15.30
   0   8  -3  215.18   16.60
   0   8  -3  209.88   13.10
   0   8  -3  223.48   12.90
   0   8  -3  224.28   10.80
   0   8  -3  229.28   13.00
   0  -8   3  234.98   13.00
   0  -8   3  247.88   17.30
   0  -8   3  221.98   12.40
  -1   8  -3   59.29    7.30
  -1   8  -3   65.49   11.50
  -1   8  -3   63.89   10.20
  -1   8  -3   74.79    6.10
  -1   8  -3   76.49    5.70
  -1   8  -3   56.99    6.80
   1  -8   3   75.89   14.30
   1  -8   3   62.79    6.10
   1  -8   3   72.89    5.50
   1  -8   3   85.19    9.00
  -2   8  -3   21.80    9.40
  -2   8  -3   23.30    5.60
  -2   8  -3   17.60    5.80
  -2   8  -3    4.20    8.60
   2  -8   3    4.10    7.70
   2  -8   3   18.90    5.20
   2  -8   3   12.40    9.90
   2  -8   3   22.90    8.10
  -3   8  -3   -1.40    6.50
  -3   8  -3  -21.60   11.20
  -3   8  -3   -4.00    8.70
   3  -8   3  -13.40    5.70
   3  -8   3   -2.00    5.60
   3  -8   3    5.50    9.30
   3  -8   3    0.70    8.40
  -4   8  -3   -9.10    7.20
  -4   8  -3   -1.10    6.80
  -4   8  -3    9.80    9.50
   4  -8   3    4.70    6.40
   4  -8   3   -2.00    9.50
  -5   8  -3    0.90   10.60
  -5   8  -3   21.10   11.20
  -5   8  -3   18.40    8.10
   5  -8   3   13.40    7.70
   5  -8   3   10.40   10.10
   5  -8   3    2.20    7.70
  -6   8  -3   -8.60    8.40
  -6   8  -3    4.10    9.70
  -6   8  -3   19.20   14.10
   6  -8   3   23.20    9.20
   6  -8   3    3.30    8.40
   6  -8   3   11.50   11.00
   6   7  -3   75.29   11.70
   6   7  -3  114.49   12.50
   6   7  -3   91.79   14.70
   6   7  -3   61.19   10.30
  -6  -7   3   69.19   10.90
  -6  -7   3   78.19   12.40
   5   7  -3   21.00   10.00
   5   7  -3   10.80    8.00
   5   7  -3   28.00    9.20
   5   7  -3   23.90    9.10
   5   7  -3   20.30    9.10
  -5  -7   3    9.30    9.00
  -5  -7   3   19.20    9.20
   4   7  -3    6.90    7.90
   4   7  -3    1.70    7.50
   4   7  -3    1.40    9.30
   4   7  -3   -6.40   13.10
   4   7  -3   -5.80    7.30
  -4  -7   3    0.30    8.40
  -4  -7   3   -1.20    9.40
   3   7  -3   27.00    8.50
   3   7  -3   34.90    9.10
   3   7  -3   20.40    9.70
   3   7  -3   34.50    8.20
   3   7  -3   23.20    7.70
   3   7  -3   15.80    9.50
   3   7  -3   38.50    9.70
   2   7  -3  289.97   13.00
   2   7  -3  282.07   15.70
   2   7  -3  343.77   22.30
   2   7  -3  309.17   16.90
   2   7  -3  290.57   18.20
   2   7  -3  287.37   13.20
   2   7  -3  279.97   15.10
   2   7  -3  270.77   11.50
   2   7  -3  291.87   13.20
   1   7  -3  317.07   13.30
   1   7  -3  351.16   13.70
   1   7  -3  325.27   12.40
   1   7  -3  309.47   13.50
   1   7  -3  343.87   11.70
   1   7  -3  328.47   15.40
   1   7  -3  341.37   16.10
   1   7  -3  320.37   11.40
  -1  -7   3  317.57   12.90
  -1  -7   3  331.07   16.40
   0   7  -3  336.67   13.30
   0   7  -3  343.97   13.40
   0   7  -3  362.16   11.80
   0   7  -3  365.46   12.40
   0   7  -3  353.86   16.90
   0   7  -3  366.46   15.40
   0  -7   3  366.96   13.00
   0  -7   3  355.16   16.70
   0  -7   3  359.86   13.30
  -1   7  -3  113.19   13.70
  -1   7  -3  134.99    7.30
  -1   7  -3  104.79   11.80
  -1   7  -3  135.99    7.60
   1  -7   3  122.49   13.20
   1  -7   3  119.29    6.40
   1  -7   3  132.69    7.00
   1  -7   3  145.89   11.10
   1  -7   3  129.19   10.20
  -2   7  -3  752.12   16.50
  -2   7  -3  707.73   21.60
  -2   7  -3  846.22   31.50
  -2   7  -3  725.03   16.50
   2  -7   3  716.93   23.10
   2  -7   3  739.93   19.10
   2  -7   3  741.33   16.00
   2  -7   3  706.53   19.50
   2  -7   3  736.03   16.10
  -3   7  -3  164.38   10.60
  -3   7  -3  167.98   14.10
  -3   7  -3  188.28   10.50
   3  -7   3  183.08    9.80
   3  -7   3  184.58   15.50
   3  -7   3  169.88    9.50
  -4   7  -3    9.70    7.40
  -4   7  -3   24.70   10.00
  -4   7  -3   15.40    6.80
   4  -7   3    6.80    6.40
   4  -7   3   19.90   10.00
   4  -7   3   31.50    6.90
  -5   7  -3   11.30   11.30
  -5   7  -3    2.60    7.50
  -5   7  -3   -2.50    8.00
   5  -7   3    6.80    7.40
   5  -7   3    0.60   10.00
  -6   7  -3    4.60    9.60
  -6   7  -3   -4.10    7.70
  -6   7  -3  -23.80   21.00
   6  -7   3    1.60    7.60
   6  -7   3   -0.10   10.30
   6  -7   3    1.90   10.20
  -7   7  -3   11.60   11.10
  -7   7  -3   13.00    7.60
   7  -7   3   16.30   11.10
   7  -7   3   21.40    8.90
   7   6  -3   10.90   11.40
   7   6  -3   11.20    9.90
   7   6  -3   14.50   17.90
   7   6  -3   20.20    6.40
  -7  -6   3   24.20   10.20
  -7  -6   3   13.50   12.30
   6   6  -3   17.10    9.00
   6   6  -3   37.20    9.60
   6   6  -3   31.20    9.50
  -6  -6   3   37.00   10.10
  -6  -6   3   37.10   11.00
   5   6  -3   29.90    9.00
   5   6  -3   28.50    7.90
  -5  -6   3   25.90    8.80
  -5  -6   3   20.70    9.00
   4   6  -3  976.80   23.10
   4   6  -3 1034.70   23.30
   4   6  -3 1025.20   25.40
   4   6  -3 1019.20   24.30
   4   6  -3 1054.49   26.60
   4   6  -3  967.70   24.80
  -4  -6   3 1026.10   31.50
  -4  -6   3 1024.40   25.70
   3   6  -3  159.08   11.00
   3   6  -3  153.18   12.80
   3   6  -3  126.19   14.60
   3   6  -3  143.39   10.20
   3   6  -3  130.49   12.40
   3   6  -3  138.59   13.10
   3   6  -3  136.19   11.00
   3   6  -3  170.58   13.10
   3   6  -3  102.69   10.70
  -3  -6   3  145.69   12.60
  -3  -6   3  134.99   12.40
  -3  -6   3  140.99   11.80
   2   6  -3  107.49    9.60
   2   6  -3  107.79    9.20
   2   6  -3  103.89   10.50
   2   6  -3  116.99   11.20
   2   6  -3  105.89    8.20
   2   6  -3  125.89   10.30
   2   6  -3  115.09    7.80
   2   6  -3  120.09    9.30
   2   6  -3  112.29   11.40
  -2  -6   3  118.09   11.30
   1   6  -3   62.89    5.90
   1   6  -3   68.69    6.90
   1   6  -3   64.69    8.60
   1   6  -3   71.69    6.10
   1   6  -3   62.09    7.50
   1   6  -3   70.39    6.60
   1   6  -3   61.09    8.30
   1   6  -3   66.79    7.70
  -1  -6   3   67.49    8.70
  -1  -6   3   73.19    6.80
  -1  -6   3   64.09    8.40
   0   6  -3  473.05   16.80
   0   6  -3  440.86   13.90
   0   6  -3  458.95   14.20
   0   6  -3  493.85   12.50
   0   6  -3  444.46   15.70
   0   6  -3  476.45   10.30
   0   6  -3  477.35   10.10
   0  -6   3  481.25   16.80
   0  -6   3  465.85   13.20
   0  -6   3  467.45    9.90
   0  -6   3  498.65   13.80
   0  -6   3  487.75   16.30
  -1   6  -3  252.77   12.80
  -1   6  -3  250.07    8.20
  -1   6  -3  240.28   14.40
  -1   6  -3  246.48    8.40
   1  -6   3  241.78    8.00
   1  -6   3  246.48   13.60
   1  -6   3  248.18   10.60
   1  -6   3  249.38   11.20
   1  -6   3  253.47    7.90
  -2   6  -3    1.40    7.50
  -2   6  -3   -2.10    4.90
  -2   6  -3    4.40    4.80
   2  -6   3   -3.40    7.70
   2  -6   3   -4.50    4.50
   2  -6   3    5.50    4.70
  -3   6  -3   46.20    8.70
  -3   6  -3   52.19    6.60
  -3   6  -3   54.49    6.70
   3  -6   3   55.89    6.30
   3  -6   3   43.30    9.70
  -4   6  -3   58.29    7.90
  -4   6  -3   64.19    9.90
  -4   6  -3   68.99   10.00
   4  -6   3   50.99   10.40
   4  -6   3   59.69    8.00
   4  -6   3   63.99    7.40
  -5   6  -3   38.20    8.30
  -5   6  -3   36.10    9.90
  -5   6  -3   28.80    7.80
   5  -6   3   19.40    7.60
  -6   6  -3    2.60    7.70
  -6   6  -3   -2.80    9.00
  -6   6  -3   -0.20   11.50
   6  -6   3   -7.40    8.30
   6  -6   3    5.90    7.70
   6  -6   3    8.80   10.40
  -7   6  -3   19.50    9.90
   7  -6   3   17.10    9.20
   7  -6   3   12.90   10.00
   7  -6   3   15.50   11.30
   7   5  -3   13.30    7.60
   7   5  -3   20.70    9.50
   7   5  -3    9.80    6.30
  -7  -5   3   19.90    8.60
  -7  -5   3   23.30    9.90
  -7  -5   3    8.60    2.10
  -7  -5   3   14.80   11.20
   6   5  -3  255.57   10.50
  -6  -5   3  271.77   10.00
  -6  -5   3  284.87    9.90
  -6  -5   3  255.77   15.70
  -6  -5   3  270.77   16.50
   5   5  -3  132.39    7.70
   5   5  -3  126.49    7.70
   5   5  -3  118.59   10.70
   5   5  -3  128.09   11.40
  -5  -5   3  133.29   13.70
  -5  -5   3  128.59   13.70
  -5  -5   3  125.49    7.50
   4   5  -3   15.10    7.10
   4   5  -3    9.70    7.50
   4   5  -3   13.60    5.70
   4   5  -3    6.40    6.90
  -4  -5   3    5.40    7.80
  -4  -5   3    2.80    7.10
  -4  -5   3    8.20    7.40
   3   5  -3    2.10    4.90
   3   5  -3    1.90    3.90
   3   5  -3    0.80    6.40
   3   5  -3    3.90    6.40
   3   5  -3   -3.30    7.20
   3   5  -3   -4.00    4.70
  -3  -5   3   -4.10    6.40
  -3  -5   3   -7.40    6.00
  -3  -5   3   -2.80    5.90
   2   5  -3   93.99    7.20
   2   5  -3   98.59    7.50
   2   5  -3   91.99    9.90
   2   5  -3   86.99   10.00
   2   5  -3   82.89    8.10
   2   5  -3   83.59    9.40
   2   5  -3   95.59    7.90
   2   5  -3   88.09    9.00
  -2  -5   3   85.59   10.20
  -2  -5   3   85.09    9.70
  -2  -5   3   97.79   10.00
  -2  -5   3   90.89    9.30
   1   5  -3    3.10    5.50
   1   5  -3   -3.00    4.90
   1   5  -3    0.70    6.30
   1   5  -3    6.30    5.30
   1   5  -3   -3.00    4.50
   1   5  -3    1.90    5.90
  -1  -5   3   -3.20    6.10
  -1  -5   3   -4.00    6.80
  -1  -5   3    0.50    4.70
   0   5  -3  180.28   12.30
   0   5  -3  168.78    6.40
   0   5  -3  186.08    6.60
   0   5  -3  178.58    7.20
   0   5  -3  165.98    9.40
   0   5  -3  175.58   10.80
   0  -5   3  174.48    9.10
   0  -5   3  158.18   11.40
   0  -5   3  167.18    6.10
   0  -5   3  165.18   10.90
   0  -5   3  168.98    8.30
   0  -5   3  168.18    6.20
  -1   5  -3   48.60    4.80
  -1   5  -3   45.70    7.20
  -1   5  -3   47.40    4.80
  -1   5  -3   52.59    8.90
   1  -5   3   48.00    4.70
   1  -5   3   41.70    8.10
   1  -5   3   50.39    7.40
   1  -5   3   53.39    4.70
  -2   5  -3   89.29    7.20
  -2   5  -3   98.29    9.60
  -2   5  -3  110.59    7.30
   2  -5   3   99.59    7.20
   2  -5   3   96.79   11.50
   2  -5   3   81.79    9.70
   2  -5   3   98.19    7.10
  -3   5  -3  114.79    8.50
  -3   5  -3  117.19    8.60
  -3   5  -3  130.79   10.40
   3  -5   3  123.39   12.40
   3  -5   3  133.39    7.90
   3  -5   3  116.19    8.40
  -4   5  -3   74.79    9.30
  -4   5  -3   68.69    8.20
  -4   5  -3   66.69    7.80
   4  -5   3   77.49    8.10
   4  -5   3   74.19    7.60
   4  -5   3   63.89   10.30
  -5   5  -3  107.89   10.80
  -5   5  -3   96.29    9.80
  -5   5  -3   94.79    9.70
   5  -5   3  106.79    9.70
   5  -5   3   98.59   11.80
   5  -5   3   88.39    9.30
  -6   5  -3   12.20    8.50
  -6   5  -3   13.70    9.00
   6  -5   3   -6.80   17.00
   6  -5   3   -9.80    7.80
   6  -5   3  -11.80    7.50
  -7   5  -3   -4.70    9.10
  -7   5  -3    1.90   12.80
   7  -5   3   -7.20   10.10
   7  -5   3   -0.30   10.20
   7  -5   3    0.60    8.50
   8   4  -3    5.90    8.10
   8   4  -3    9.80    7.30
  -8  -4   3   -2.70    8.20
  -8  -4   3    9.60   10.40
  -8  -4   3    1.60    3.70
  -8  -4   3    2.10    8.00
   7   4  -3   17.10    7.20
   7   4  -3   20.30   10.50
   7   4  -3   22.90    6.60
  -7  -4   3   31.70    7.70
  -7  -4   3   10.10   10.70
  -7  -4   3   10.20    9.80
  -7  -4   3   20.30    6.40
   6   4  -3    4.00    6.40
   6   4  -3    1.10    5.70
   6   4  -3    3.90    6.50
  -6  -4   3   -0.60    5.40
  -6  -4   3    3.60    8.70
  -6  -4   3   -4.20    7.00
  -6  -4   3  -10.70    8.90
  -6  -4   3   -3.50    5.20
   5   4  -3   -3.20    4.80
   5   4  -3    4.60    6.80
   5   4  -3    5.10    4.90
  -5  -4   3    3.90    4.60
  -5  -4   3    6.20    6.20
  -5  -4   3    0.90    4.70
  -5  -4   3    5.20    7.80
  -5  -4   3   -1.50    7.00
  -5  -4   3   -0.40    9.10
   4   4  -3   64.59    4.90
   4   4  -3   49.10    6.20
   4   4  -3   71.79    7.80
   4   4  -3   62.99    5.90
   4   4  -3   63.99    6.10
  -4  -4   3   53.59    7.50
  -4  -4   3   69.09    8.20
  -4  -4   3   73.79    5.50
  -4  -4   3   67.59    8.00
  -4  -4   3   58.19    5.40
   3   4  -3  120.79   10.30
   3   4  -3  115.89    7.40
   3   4  -3  112.49    9.90
   3   4  -3  113.09    7.70
   3   4  -3  122.09    7.40
   3   4  -3  114.29    5.50
   3   4  -3  119.09    9.30
   3   4  -3  116.59    5.40
  -3  -4   3  106.59    4.90
  -3  -4   3  135.49    9.60
  -3  -4   3  119.99    9.80
  -3  -4   3  113.19    9.40
   2   4  -3   -0.50    4.20
   2   4  -3    1.10    4.50
   2   4  -3    2.20    4.10
   2   4  -3   -0.20    2.70
   2   4  -3    1.90    5.90
   2   4  -3    0.50    5.80
   2   4  -3   -2.10    2.90
   2   4  -3   -2.10    4.80
   2   4  -3    2.50    6.00
  -2  -4   3   -5.10    5.20
  -2  -4   3   -3.10    5.60
  -2  -4   3   -2.00    5.10
  -2  -4   3   -0.30    5.90
   1   4  -3  938.41   16.90
   1   4  -3  965.40   18.50
   1   4  -3  938.01   20.30
   1   4  -3  949.40   21.70
   1   4  -3  949.01   16.90
   1   4  -3  943.61   20.30
   1   4  -3  963.40   21.60
  -1  -4   3  978.30   20.40
  -1  -4   3  939.31   16.90
  -1  -4   3  939.31   16.80
  -1  -4   3  949.60   21.50
  -1  -4   3  970.10   18.90
  -1  -4   3  945.21   21.50
   0   4  -3  159.78    8.70
   0   4  -3  158.98   10.10
   0   4  -3  155.58    6.50
   0   4  -3  162.08    6.50
   0   4  -3  153.18    6.20
   0  -4   3  149.49   11.00
   0  -4   3  154.48    6.20
   0  -4   3  144.09    9.90
   0  -4   3  161.58    7.20
   0  -4   3  152.28    6.20
  -1   4  -3  345.07   12.50
  -1   4  -3  334.97    9.50
  -1   4  -3  332.47   10.40
   1  -4   3  339.67   13.80
   1  -4   3  355.96    9.50
   1  -4   3  319.77   12.50
   1  -4   3  334.17    9.20
  -2   4  -3  250.67    9.10
  -2   4  -3  248.18    9.00
  -2   4  -3  233.88   10.90
   2  -4   3  257.37    9.10
   2  -4   3  244.48   11.20
   2  -4   3  235.98   12.70
   2  -4   3  231.28    8.70
  -3   4  -3   26.60    5.50
  -3   4  -3   29.80    6.70
  -3   4  -3   29.00    5.30
   3  -4   3   27.60    7.40
   3  -4   3   24.40    5.20
   3  -4   3   36.70    6.00
  -4   4  -3    0.00    7.10
  -4   4  -3  -11.30    5.60
  -4   4  -3   -3.70    6.00
   4  -4   3    3.20    7.90
   4  -4   3   -2.90    5.80
  -5   4  -3   -1.60   12.50
  -5   4  -3   -1.10    7.20
   5  -4   3   -3.00    7.50
   5  -4   3   -0.90    9.10
  -6   4  -3   52.59    9.90
  -6   4  -3   46.10    9.40
  -6   4  -3   62.69    7.10
   6  -4   3   64.29    9.70
   6  -4   3   55.69    8.80
   6  -4   3   57.79   11.40
  -7   4  -3    8.10    9.40
  -7   4  -3   22.40    9.10
   7  -4   3    7.40   12.50
   7  -4   3    4.20    9.20
   7  -4   3   -5.80   15.90
   8   3  -3    5.10    7.30
   8   3  -3   -0.10    8.10
  -8  -3   3   -4.00   11.70
  -8  -3   3   10.30    7.20
  -8  -3   3   -1.10    7.30
  -8  -3   3    7.00    9.10
  -8  -3   3    2.40   12.40
   7   3  -3   46.20    7.90
   7   3  -3   31.20    7.20
   7   3  -3   52.69    7.70
  -7  -3   3   41.60   12.10
  -7  -3   3   38.60    7.90
  -7  -3   3   58.59   11.50
  -7  -3   3   61.79    7.40
   6   3  -3   88.39    8.20
   6   3  -3   91.79    7.50
   6   3  -3   82.19    7.30
  -6  -3   3   88.69    8.70
  -6  -3   3   96.39   11.10
  -6  -3   3   86.69   13.50
  -6  -3   3  104.69    9.90
  -6  -3   3   86.89    7.20
  -6  -3   3  100.69    8.50
   5   3  -3   70.69    7.40
   5   3  -3   54.49    5.90
   5   3  -3   72.49    6.00
  -5  -3   3   64.59    7.50
  -5  -3   3   66.39    9.70
  -5  -3   3   68.29    5.70
  -5  -3   3   74.39    9.50
  -5  -3   3   73.79    7.40
  -5  -3   3   59.19    5.90
   4   3  -3   46.80    5.90
   4   3  -3   52.29    4.80
   4   3  -3   46.30    5.10
   4   3  -3   40.20    4.50
  -4  -3   3   47.80    6.90
  -4  -3   3   29.00    6.90
  -4  -3   3   42.40    4.50
  -4  -3   3   42.70    4.40
  -4  -3   3   44.50    7.50
   3   3  -3 1284.17   23.70
   3   3  -3 1255.17   22.10
   3   3  -3 1247.48   22.10
   3   3  -3 1239.08   22.70
  -3  -3   3 1262.37   25.50
  -3  -3   3 1260.97   25.90
  -3  -3   3 1240.38   25.40
  -3  -3   3 1221.98   22.00
  -3  -3   3 1256.37   22.10
  -3  -3   3 1258.67   23.90
   2   3  -3 2377.46   43.00
   2   3  -3 2451.55   43.90
   2   3  -3 2423.76   41.40
   2   3  -3 2431.16   40.00
   2   3  -3 2445.56   40.10
  -2  -3   3 2433.26   42.60
  -2  -3   3 2436.66   40.00
  -2  -3   3 2450.65   43.20
  -2  -3   3 2379.86   39.90
  -2  -3   3 2425.16   42.80
  -2  -3   3 2406.96   43.60
   1   3  -3  601.44   14.00
   1   3  -3  602.54   11.80
   1   3  -3  537.35   14.90
   1   3  -3  601.14   15.30
   1   3  -3  583.84   14.00
   1   3  -3  602.74   11.70
  -1  -3   3  615.14   11.70
  -1  -3   3  578.04   15.00
  -1  -3   3  609.24   11.60
  -1  -3   3  615.74   14.20
  -1  -3   3  599.34   12.50
  -1  -3   3  614.64   15.40
   0   3  -3   41.70    6.00
   0   3  -3   47.40    4.30
   0   3  -3   46.00    5.10
   0   3  -3   35.70    3.90
   0  -3   3   38.80    6.20
   0  -3   3   47.90    6.70
   0  -3   3   38.80    3.80
   0  -3   3   46.60    4.00
  -1   3  -3   16.60    6.10
  -1   3  -3   15.60    4.50
  -1   3  -3   10.00    4.20
   1  -3   3   14.30    4.10
   1  -3   3   15.90    6.30
   1  -3   3    5.20    4.00
   1  -3   3   20.90    6.90
  -2   3  -3   50.79    5.50
  -2   3  -3   60.89    5.40
  -2   3  -3   62.69    8.50
   2  -3   3   60.89    5.40
   2  -3   3   59.89    5.40
   2  -3   3   57.49    7.00
  -3   3  -3    5.10    5.00
  -3   3  -3   12.00    4.90
   3  -3   3   11.40    5.50
   3  -3   3    6.00    5.50
   3  -3   3    4.10    4.90
  -4   3  -3   17.90    6.30
  -4   3  -3   23.20    6.60
   4  -3   3    6.30    6.10
   4  -3   3   10.60    5.90
   4  -3   3   33.00    9.20
  -5   3  -3   43.20    8.20
  -5   3  -3   34.10    8.00
   5  -3   3   44.80   10.80
   5  -3   3   35.60    8.70
   5  -3   3   21.30    7.50
  -6   3  -3    7.90    8.00
  -6   3  -3    2.80    6.40
  -6   3  -3    9.70    8.50
   6  -3   3   -8.10    7.80
   6  -3   3   -7.80    8.00
   6  -3   3   -1.40   10.40
  -7   3  -3    4.40    9.70
  -7   3  -3    6.70    7.10
  -7   3  -3    3.00    9.10
   7  -3   3   -3.30   10.40
   7  -3   3   14.10    5.10
   7  -3   3   -2.10    8.20
   7  -3   3    3.30   10.30
   8   2  -3   29.50    7.90
   8   2  -3   33.70    8.80
  -8  -2   3   23.40    7.80
  -8  -2   3   20.00   12.60
  -8  -2   3   31.50    7.80
   7   2  -3  150.28   10.70
   7   2  -3  143.09   11.30
   7   2  -3  127.59   11.20
  -7  -2   3  142.49   10.50
  -7  -2   3  147.09   17.50
  -7  -2   3  126.69   11.70
   6   2  -3   20.40    6.30
   6   2  -3   16.10    6.30
   6   2  -3   15.30    6.10
  -6  -2   3   20.80    5.70
  -6  -2   3   24.00    6.50
  -6  -2   3   16.50    6.30
   5   2  -3   19.00    5.10
   5   2  -3   20.00    5.10
   5   2  -3   27.40    5.60
  -5  -2   3   14.70    5.20
  -5  -2   3   23.70    4.80
  -5  -2   3   13.40    6.40
  -5  -2   3   32.60    9.10
  -5  -2   3   12.20    5.70
   4   2  -3  166.38    7.20
   4   2  -3  163.98    7.40
   4   2  -3  166.88    7.50
   4   2  -3  159.48    8.00
  -4  -2   3  180.38   11.30
  -4  -2   3  174.18    9.60
  -4  -2   3  148.89    7.20
  -4  -2   3  152.18    6.80
   3   2  -3  668.23   13.60
   3   2  -3  679.93   14.10
   3   2  -3  672.73   13.60
  -3  -2   3  673.33   16.40
  -3  -2   3  667.43   13.50
  -3  -2   3  679.53   16.90
  -3  -2   3  682.43   13.60
   2   2  -3    2.80    3.30
   2   2  -3    1.40    3.00
   2   2  -3    2.80    5.10
  -2  -2   3   -2.00    3.10
  -2  -2   3   -1.00    4.40
  -2  -2   3   -0.40    5.00
  -2  -2   3    5.50    4.50
  -2  -2   3    0.20    2.90
  -2  -2   3    3.30    5.10
   1   2  -3 1817.42   30.70
   1   2  -3 1821.12   32.00
   1   2  -3 1843.42   30.70
   1   2  -3 1776.92   31.90
  -1  -2   3 1814.62   33.50
  -1  -2   3 1775.82   30.60
  -1  -2   3 1883.11   32.30
  -1  -2   3 1852.51   32.10
   0   2  -3   55.69    5.00
   0   2  -3   42.60    7.10
   0   2  -3   45.40    5.40
   0  -2   3   57.89    4.30
   0  -2   3   51.09    4.20
  -1   2  -3 2839.62   47.40
  -1   2  -3 2899.01   47.50
   1  -2   3 2747.93   47.20
   1  -2   3 2885.71   48.70
   1  -2   3 2763.12   49.00
  -2   2  -3  527.65   12.90
  -2   2  -3  527.35   12.70
   2  -2   3  540.95   13.00
   2  -2   3  518.15   12.70
   2  -2   3  515.95   13.30
  -3   2  -3    1.70    4.80
  -3   2  -3    4.10    5.20
   3  -2   3   -0.70    5.40
   3  -2   3   -3.40    3.50
   3  -2   3    2.70    5.40
  -4   2  -3  144.29   10.00
  -4   2  -3  135.09    9.50
   4  -2   3  143.79    7.80
   4  -2   3  138.19   10.20
   4  -2   3  159.78   10.10
  -5   2  -3   57.49    8.10
  -5   2  -3   65.79    7.90
  -5   2  -3   64.59    7.90
   5  -2   3   66.99   10.60
   5  -2   3   57.69    6.70
   5  -2   3   55.49   12.70
  -6   2  -3   -6.20    8.30
  -6   2  -3   -4.20    6.60
  -6   2  -3   -1.40    8.90
   6  -2   3    0.70    7.50
   6  -2   3    0.50    8.40
   6  -2   3    2.20    6.80
  -7   2  -3   19.80    9.40
  -7   2  -3   20.90    9.30
  -7   2  -3   19.40    9.30
   7  -2   3   25.60    9.40
   7  -2   3   11.80   12.10
   7  -2   3   16.90   11.30
   7  -2   3   21.60    8.80
   8   1  -3    7.20    7.60
  -8  -1   3    6.10    8.10
  -8  -1   3   12.00    7.20
  -8  -1   3    7.90    7.50
   7   1  -3   24.50    7.40
   7   1  -3   29.60    7.30
   7   1  -3   27.20    7.10
  -7  -1   3    5.20    4.80
  -7  -1   3   25.20    6.80
  -7  -1   3   38.60    7.30
   6   1  -3   36.40    6.30
   6   1  -3   36.60    6.70
   6   1  -3   35.60    6.60
  -6  -1   3   38.50    6.40
  -6  -1   3   31.50    6.10
  -6  -1   3   43.40    7.60
  -6  -1   3   35.80    6.10
   5   1  -3  843.52   18.00
   5   1  -3  871.11   18.10
   5   1  -3  815.72   17.80
  -5  -1   3  876.21   17.60
  -5  -1   3  854.41   18.10
  -5  -1   3  840.72   17.90
   4   1  -3  748.93   15.80
   4   1  -3  782.42   15.80
   4   1  -3  751.62   15.20
  -4  -1   3  747.43   15.60
   3   1  -3  325.17    8.10
   3   1  -3  303.47    8.70
   3   1  -3  315.97    8.70
  -3  -1   3  319.77    8.70
  -3  -1   3  315.27    8.60
   2   1  -3  221.48    6.70
  -2  -1   3  235.18   10.20
  -2  -1   3  226.68    6.60
  -2  -1   3  220.08    6.90
   1   1  -3  355.26    8.40
   1   1  -3  351.16    8.70
   1   1  -3  348.37    8.50
  -1  -1   3  351.96    8.80
  -1  -1   3  342.07    9.20
  -1  -1   3  348.97    8.70
  -1  -1   3  346.47    8.30
   0   1  -3 2203.98   37.20
   0   1  -3 2259.07   37.70
   0  -1   3 2284.37   37.20
   0  -1   3 2287.27   37.80
   0  -1   3 2188.08   37.60
  -1   1  -3 1017.10   19.10
  -1   1  -3 1001.70   17.90
  -1   1  -3  971.50   18.80
   1  -1   3 1014.50   19.00
   1  -1   3  969.80   18.80
  -2   1  -3   87.79    6.40
  -2   1  -3   71.29    5.60
   2  -1   3   87.29    6.20
   2  -1   3   82.69    7.10
   2  -1   3   77.39    7.20
  -3   1  -3  295.87   10.20
  -3   1  -3  309.17   10.70
   3  -1   3  312.97   10.80
   3  -1   3  298.27   10.60
   3  -1   3  308.07    9.40
  -4   1  -3  254.07   11.50
   4  -1   3  270.27   11.60
   4  -1   3  258.87   10.40
   4  -1   3  266.07   11.40
  -5   1  -3   34.00    7.60
  -5   1  -3   33.00    7.70
   5  -1   3   46.10    8.10
   5  -1   3   46.10    7.20
   5  -1   3   50.69    8.80
  -6   1  -3  233.48   14.40
  -6   1  -3  231.48   12.60
   6  -1   3  213.48   16.50
   6  -1   3  214.08   13.30
  -7   1  -3   29.80    9.30
  -7   1  -3   28.30    9.80
  -7   1  -3   17.40    8.50
   7  -1   3    6.10    8.20
   7  -1   3   37.70   10.10
   7  -1   3   29.50   10.70
   9   0  -3   13.20   14.60
   9   0  -3  -13.40    9.80
  -9   0   3    2.40    8.60
  -9   0   3    9.50    7.60
   8   0  -3   39.60    8.20
   8   0  -3   50.79    9.40
  -8   0   3   43.50   10.30
  -8   0   3   44.80    8.40
  -8   0   3   37.90    7.30
   7   0  -3  297.77   12.00
   7   0  -3  302.27   13.40
   7   0  -3  276.07   13.10
  -7   0   3  306.67   11.40
   6   0  -3   -7.40    5.90
   6   0  -3    6.60    6.10
   6   0  -3   -3.80    5.20
  -6   0   3    7.10    6.20
  -6   0   3   -2.60    4.90
  -6   0   3   10.30    5.50
   5   0  -3  846.32   18.10
   5   0  -3  859.21   17.40
   5   0  -3  841.72   18.30
  -5   0   3  828.32   17.90
  -5   0   3  853.31   18.20
  -5   0   3  879.41   16.80
   4   0  -3   68.19    5.90
   4   0  -3   63.59    5.60
  -4   0   3   66.99    5.70
  -4   0   3   56.59    5.00
   3   0  -3 3443.96   56.19
   3   0  -3 3329.07   55.99
   3   0  -3 3359.46   54.79
  -3   0   3 3372.36   56.09
   2   0  -3  247.58    8.40
   2   0  -3  245.88    7.20
  -2   0   3  257.87    7.30
  -2   0   3  261.37    7.50
   1   0  -3  289.47    7.90
   1   0  -3  287.37    7.70
  -1   0   3  296.07    8.00
  -1   0   3  287.97    7.70
  -1   0   3  289.47    7.20
   0   0  -3  544.35   11.80
   0   0   3  569.44   11.70
  -1   0  -3 3640.94   59.19
  -1   0  -3 3474.65   58.89
  -1   0  -3 3636.54   59.19
   1   0   3 3521.85   58.89
   1   0   3 3508.45   58.99
   1   0   3 3592.14   59.09
  -2   0  -3  174.68    8.50
  -2   0  -3  179.88    8.00
   2   0   3  175.88    7.90
   2   0   3  181.48    8.30
   2   0   3  190.58    8.40
  -3   0  -3   23.70    5.00
  -3   0  -3   21.90    5.60
   3   0   3   20.00    4.90
   3   0   3   26.70    5.80
   3   0   3   26.10    5.50
  -4   0  -3  326.97   12.60
  -4   0  -3  315.77   11.70
  -4   0  -3  320.27   13.10
   4   0   3  312.87   12.10
   4   0   3  333.87   12.70
   4   0   3  344.97   12.50
  -5   0  -3  122.99   11.50
  -5   0  -3  147.79   12.00
   5   0   3  130.49   11.90
   5   0   3  129.09   11.20
   5   0   3  117.29    9.60
  -6   0  -3   22.40    8.30
  -6   0  -3   31.30    8.90
  -6   0  -3   10.40    7.90
   6   0   3    9.30    7.80
   6   0   3   16.60    8.50
   6   0   3    9.80    9.10
  -7   0  -3   -3.50    8.60
  -7   0  -3   -5.00    8.70
   7   0   3  -12.40   10.50
   9  -1  -3   16.60   10.20
  -9   1   3   -3.10    8.00
  -9   1   3   -5.30    6.70
  -9   1   3   14.10   11.80
   8  -1  -3   -7.70    7.50
   8  -1  -3   -3.60    8.40
  -8   1   3    2.50    8.40
  -8   1   3    6.70    6.10
   7  -1  -3  317.97   16.60
   7  -1  -3  356.16   14.30
   7  -1  -3  382.36   11.80
  -7   1   3  346.57   13.90
  -7   1   3  343.37   11.10
   6  -1  -3   24.20    6.80
   6  -1  -3   22.20    5.00
   6  -1  -3   18.20    6.30
  -6   1   3   19.90    6.00
  -6   1   3   21.50    6.30
  -6   1   3   27.00    4.70
   5  -1  -3    1.40    5.00
   5  -1  -3    0.80    4.60
  -5   1   3    8.30    4.90
  -5   1   3   11.80    5.20
   4  -1  -3    1.00    4.40
   4  -1  -3    6.80    4.60
  -4   1   3    5.60    4.30
  -4   1   3    3.30    4.30
   3  -1  -3  160.38    7.50
   3  -1  -3  164.68    7.10
  -3   1   3  154.78    7.20
  -3   1   3  156.88    7.30
   2  -1  -3 1095.89   20.20
   2  -1  -3 1082.99   19.90
  -2   1   3 1104.59   20.10
  -2   1   3 1092.19   20.00
   1  -1  -3  994.90   18.40
   1  -1  -3  992.20   18.50
   1  -1  -3 1017.50   18.40
  -1   1   3  998.70   18.40
  -1   1   3 1006.30   18.60
   0  -1  -3  471.55   10.80
   0  -1  -3  464.15   11.70
   0  -1  -3  463.65   10.70
   0   1   3  446.86   10.50
   0   1   3  450.85   10.70
   0   1   3  480.15   10.90
  -1  -1  -3  647.24   14.70
  -1  -1  -3  636.34   13.80
  -1  -1  -3  607.24   13.50
   1   1   3  631.24   13.70
   1   1   3  609.84   14.50
   1   1   3  644.84   13.90
  -2  -1  -3  569.64   13.30
  -2  -1  -3  594.44   14.00
   2   1   3  590.14   13.60
   2   1   3  580.74   14.40
   2   1   3  587.44   13.60
  -3  -1  -3  126.99    8.10
  -3  -1  -3  107.39    8.80
   3   1   3  109.79    8.60
   3   1   3  113.59    8.60
   3   1   3  109.19    8.70
  -4  -1  -3   -0.60    6.40
  -4  -1  -3    1.80    6.00
  -4  -1  -3   -6.30    7.50
   4   1   3   -6.90    6.50
   4   1   3   -2.30    6.40
   4   1   3   -6.20    6.40
  -5  -1  -3   -2.20    4.10
  -5  -1  -3   11.60    7.70
  -5  -1  -3   12.10    7.30
   5   1   3    7.60    7.20
   5   1   3   11.40    7.40
   5   1   3   16.50    8.00
  -6  -1  -3   61.39   15.60
  -6  -1  -3   38.50    8.90
  -6  -1  -3   39.80    9.00
   6   1   3   33.60    8.60
   6   1   3   54.39   16.70
   9  -2  -3    3.30    9.40
   9  -2  -3    4.60   10.20
  -9   2   3    3.20    6.10
  -9   2   3    3.90    8.30
  -9   2   3  -10.90   10.40
   8  -2  -3  215.58   13.50
   8  -2  -3  190.08   14.30
  -8   2   3  181.78   13.80
  -8   2   3  186.38    9.20
  -8   2   3  186.78   13.00
   7  -2  -3  265.27   13.20
   7  -2  -3  273.87   13.20
  -7   2   3  269.27   13.00
  -7   2   3  265.47    8.90
  -7   2   3  233.88   12.60
   6  -2  -3   -4.00    5.70
   6  -2  -3   -0.90    6.30
  -6   2   3    0.80    6.60
  -6   2   3   -2.40    6.10
  -6   2   3    0.80    3.70
   5  -2  -3  112.79    8.60
   5  -2  -3   95.49    7.90
  -5   2   3  104.89    8.40
  -5   2   3  104.59    7.90
   4  -2  -3  476.85   12.30
   4  -2  -3  449.76   11.80
  -4   2   3  477.15   12.20
  -4   2   3  453.55   12.00
   3  -2  -3  387.86   10.30
   3  -2  -3  381.26    9.40
   3  -2  -3  404.96   10.70
  -3   2   3  384.36   10.40
  -3   2   3  385.36   10.40
   2  -2  -3   90.49    6.40
   2  -2  -3   88.89    5.70
  -2   2   3   95.69    6.30
  -2   2   3   95.19    6.50
  -2   2   3   92.19    9.80
   1  -2  -3 1227.88   22.20
   1  -2  -3 1213.58   23.00
   1  -2  -3 1258.17   22.40
  -1   2   3 1210.88   22.20
  -1   2   3 1252.47   22.40
   0  -2  -3  329.27   11.20
   0  -2  -3  334.27    9.20
   0  -2  -3  340.47    9.50
   0   2   3  340.57   10.30
   0   2   3  337.17    9.40
  -1  -2  -3   49.00    5.20
  -1  -2  -3   47.10    6.20
   1   2   3   54.59    6.10
   1   2   3   57.19    5.20
   1   2   3   52.09    5.20
   1   2   3   54.09    6.10
  -2  -2  -3  737.83   15.00
  -2  -2  -3  744.23   15.80
  -2  -2  -3  739.93   16.10
   2   2   3  753.72   16.00
   2   2   3  755.12   16.10
   2   2   3  751.92   17.80
  -3  -2  -3   74.09    6.40
  -3  -2  -3   94.29    8.90
  -3  -2  -3   76.19    8.40
  -3  -2  -3  100.19    9.10
   3   2   3   71.39    7.70
   3   2   3   84.49    7.00
   3   2   3   82.89    7.00
  -4  -2  -3  148.29   12.50
  -4  -2  -3  136.19   11.10
  -4  -2  -3  127.39    9.80
  -4  -2  -3  130.49   10.70
   4   2   3  119.39   15.00
   4   2   3  141.39   11.20
  -5  -2  -3    5.60    7.90
  -5  -2  -3   -0.60    8.30
  -5  -2  -3   17.30    7.50
   5   2   3    7.80    7.90
   5   2   3   -1.90    7.60
   5   2   3   11.90    7.10
  -6  -2  -3  128.69   13.50
  -6  -2  -3   98.39   14.70
  -6  -2  -3   91.99    9.90
  -6  -2  -3   89.19   10.80
  -6  -2  -3   96.19   10.20
   6   2   3  104.19   10.60
   6   2   3  100.99   13.20
   6   2   3  107.29   10.00
   9  -3  -3   -5.30    9.30
   9  -3  -3   11.80   15.10
  -9   3   3   -3.00    8.10
  -9   3   3    5.00   11.50
  -9   3   3   -6.50    5.20
   8  -3  -3    0.80    8.10
   8  -3  -3   15.90    7.80
  -8   3   3    0.80    7.50
  -8   3   3    9.90    8.20
  -8   3   3   -7.40    4.40
   7  -3  -3   -5.90    7.30
   7  -3  -3    9.70    6.90
  -7   3   3   -1.90    7.50
  -7   3   3    9.20    7.70
   6  -3  -3    1.60    6.60
   6  -3  -3   -4.30    6.10
  -6   3   3    0.40    6.80
  -6   3   3   -7.30    5.70
   5  -3  -3  102.99    7.60
   5  -3  -3   89.89    8.60
  -5   3   3   74.99    6.70
  -5   3   3   76.19    6.60
  -5   3   3   77.99    9.90
   4  -3  -3    4.40    4.50
   4  -3  -3    2.30    4.60
   4  -3  -3   -2.00    4.10
  -4   3   3    5.30    5.70
  -4   3   3    2.30    4.50
  -4   3   3    1.90    4.50
   3  -3  -3  515.05   12.00
   3  -3  -3  517.55   12.40
   3  -3  -3  501.05   12.10
  -3   3   3  500.95   12.20
  -3   3   3  499.65   12.20
   2  -3  -3  316.37    7.30
   2  -3  -3  318.77    9.30
   2  -3  -3  318.27   11.10
   2  -3  -3  317.47    9.00
  -2   3   3  322.67    9.30
  -2   3   3  306.77    9.20
  -2   3   3  308.07    9.30
   1  -3  -3    0.10    4.10
   1  -3  -3    0.40    5.30
   1  -3  -3    4.80    5.20
   1  -3  -3    3.00    3.70
  -1   3   3    2.40    4.40
  -1   3   3   -2.70    4.30
  -1   3   3    0.50    4.60
   0  -3  -3  490.85   11.20
   0  -3  -3  491.95   11.50
   0  -3  -3  493.75   14.00
   0   3   3  497.65   11.60
   0   3   3  477.65   13.10
   0   3   3  479.65   11.50
  -1  -3  -3  902.71   17.90
  -1  -3  -3  876.41   17.70
  -1  -3  -3  907.81   20.70
   1   3   3  915.01   20.80
   1   3   3  883.91   20.00
   1   3   3 1004.10   22.90
   1   3   3  890.11   18.00
  -2  -3  -3    4.10    4.70
  -2  -3  -3    3.20    5.10
  -2  -3  -3   -1.00    6.00
   2   3   3    4.40    5.90
   2   3   3   -4.50    4.70
   2   3   3   -1.70    6.10
   2   3   3    9.00    5.00
  -3  -3  -3   78.39   10.40
  -3  -3  -3   92.59    8.80
  -3  -3  -3   99.39    8.50
   3   3   3   91.19    7.50
   3   3   3   92.89    7.40
  -4  -3  -3   -1.40    7.10
  -4  -3  -3    0.00    6.10
  -4  -3  -3   -7.20    6.30
  -4  -3  -3   13.10    6.40
  -4  -3  -3   -2.60    7.30
   4   3   3   -3.70    6.50
   4   3   3    0.10    6.70
   4   3   3    0.00    7.80
  -5  -3  -3   33.50    7.60
  -5  -3  -3   20.60    8.70
  -5  -3  -3   21.20    9.00
  -5  -3  -3   28.50    8.50
  -5  -3  -3   22.10    7.50
   5   3   3   39.10    7.90
   5   3   3   25.40    8.20
  -6  -3  -3   15.10    8.00
  -6  -3  -3   -2.90    9.80
  -6  -3  -3   32.80   11.80
  -6  -3  -3   32.60    9.00
  -6  -3  -3    9.20   10.00
   6   3   3   28.70    8.50
   6   3   3   16.50    9.40
   9  -4  -3    2.50    9.80
   9  -4  -3   11.10   11.00
  -9   4   3    6.70   11.20
  -9   4   3    0.20    7.90
   8  -4  -3   53.29   10.00
   8  -4  -3   44.70    9.20
  -8   4   3   57.59   10.30
  -8   4   3   46.80    9.30
   7  -4  -3   51.99    8.10
   7  -4  -3   43.70    8.40
  -7   4   3   48.00    8.30
  -7   4   3   32.80    7.70
   6  -4  -3   -4.90    6.80
   6  -4  -3   -3.10    6.10
  -6   4   3    2.50    8.00
  -6   4   3   -6.30    7.10
  -6   4   3    3.30    8.90
   5  -4  -3    8.60    5.90
   5  -4  -3    8.10    5.80
  -5   4   3   13.50    6.10
  -5   4   3   14.40    7.40
  -5   4   3    9.00    5.70
   4  -4  -3  147.19    8.60
   4  -4  -3  155.38    8.70
   4  -4  -3  129.19    7.70
  -4   4   3  141.89   11.80
  -4   4   3  163.28    8.50
  -4   4   3  138.29    8.60
   3  -4  -3    3.90    4.00
   3  -4  -3   -2.00    4.70
   3  -4  -3    6.80    4.70
  -3   4   3    7.10    4.50
  -3   4   3   -3.10    4.50
   2  -4  -3  396.86   10.40
   2  -4  -3  375.56   12.70
   2  -4  -3  369.96    9.90
   2  -4  -3  374.46    8.80
  -2   4   3  381.16   10.30
  -2   4   3  382.86   10.30
  -2   4   3  385.76   11.10
   1  -4  -3  101.59    6.40
   1  -4  -3   94.49    6.10
   1  -4  -3   87.59    6.60
   1  -4  -3   99.89    9.60
   1  -4  -3  105.29    9.20
  -1   4   3   99.69    7.00
  -1   4   3   87.39    6.90
  -1   4   3   83.59    7.50
   0  -4  -3   76.29    7.70
   0  -4  -3   70.29    6.10
   0  -4  -3   72.09    5.50
   0  -4  -3   74.09    6.20
   0   4   3   76.79    5.60
   0   4   3   68.99    7.20
   0   4   3   76.69    5.60
  -1  -4  -3  541.65   15.50
  -1  -4  -3  558.84   14.70
  -1  -4  -3  531.95   12.50
  -1  -4  -3  548.35   12.80
  -1  -4  -3  557.14   16.40
   1   4   3  546.25   12.70
   1   4   3  517.05   15.50
   1   4   3  551.74   16.60
   1   4   3  544.55   13.00
  -2  -4  -3   18.40    7.00
  -2  -4  -3   23.50    5.50
  -2  -4  -3   16.40    6.80
  -2  -4  -3   22.50    5.60
   2   4   3   10.70   12.00
   2   4   3   10.70    5.50
  -3  -4  -3   59.19    6.60
  -3  -4  -3   73.49    7.40
  -3  -4  -3   46.40    8.10
  -3  -4  -3   51.29    8.60
   3   4   3   56.49    7.00
   3   4   3   49.99    8.70
   3   4   3   54.89    7.00
   3   4   3   65.79    9.30
  -4  -4  -3  560.64   16.10
  -4  -4  -3  546.45   18.40
  -4  -4  -3  532.05   18.30
  -4  -4  -3  520.15   15.30
   4   4   3  555.04   15.70
   4   4   3  570.54   15.70
  -5  -4  -3   16.80    7.70
  -5  -4  -3    3.60    8.80
  -5  -4  -3   19.80    7.30
  -5  -4  -3   13.00    9.70
  -5  -4  -3   20.00    8.00
   5   4   3   -4.30    7.70
   5   4   3   18.00    7.70
   5   4   3   31.70   11.30
   8  -5  -3    1.40    7.90
   8  -5  -3    9.20   10.60
  -8   5   3   -0.20    9.70
  -8   5   3    3.10    7.70
   7  -5  -3  161.28   12.40
   7  -5  -3  169.28   12.80
  -7   5   3  166.88   12.10
  -7   5   3  164.78   13.70
  -7   5   3  167.58   21.80
   6  -5  -3  441.76   15.20
   6  -5  -3  462.35   15.10
  -6   5   3  448.16   17.20
  -6   5   3  435.56   14.80
  -6   5   3  490.95   22.60
   5  -5  -3    4.10    6.40
   5  -5  -3   -1.20    6.10
   5  -5  -3   -2.10    5.80
  -5   5   3    0.90    5.90
  -5   5   3    4.30    8.70
  -5   5   3   -1.70    6.20
   4  -5  -3   19.70    5.90
   4  -5  -3   36.50    6.10
  -4   5   3   24.70    5.60
  -4   5   3   26.50    8.30
  -4   5   3   26.40    6.20
   3  -5  -3  145.79    9.50
   3  -5  -3  145.09    7.70
   3  -5  -3  154.78   11.80
   3  -5  -3  161.88    8.30
  -3   5   3  158.28    8.40
  -3   5   3  151.88    8.30
   2  -5  -3  155.38    8.80
   2  -5  -3  144.29    7.80
   2  -5  -3  143.89   10.80
   2  -5  -3  142.89   10.80
   2  -5  -3  151.98    6.50
   2  -5  -3  148.49    7.40
  -2   5   3  134.29    7.90
  -2   5   3  148.29    9.30
  -2   5   3  146.79    7.90
   1  -5  -3   48.80    7.10
   1  -5  -3   46.20    7.50
   1  -5  -3   53.59    5.20
   1  -5  -3   50.29    6.80
   1  -5  -3   54.49    5.50
   1  -5  -3   50.59    4.80
  -1   5   3   56.39    5.50
  -1   5   3   61.29    5.40
  -1   5   3   53.49    6.40
   0  -5  -3   29.10    4.50
   0  -5  -3   20.70    6.70
   0  -5  -3   31.00    7.20
   0  -5  -3   34.40    6.00
   0  -5  -3   37.20    5.20
   0   5   3   31.70    5.20
   0   5   3   27.50    4.90
   0   5   3   24.30    6.10
   0   5   3   31.30    7.20
   0   5   3   27.60    5.40
  -1  -5  -3   21.00    5.00
  -1  -5  -3   24.80    6.80
  -1  -5  -3   19.70    7.60
  -1  -5  -3   27.60    5.10
  -1  -5  -3   15.80    8.10
   1   5   3   13.30    8.10
   1   5   3   19.90    5.10
   1   5   3   14.20    5.90
  -2  -5  -3  141.49   11.40
  -2  -5  -3  137.19    8.80
  -2  -5  -3  154.98   12.10
  -2  -5  -3  133.39   12.30
   2   5   3  137.29   13.60
   2   5   3  148.59    8.90
   2   5   3  130.89   12.50
   2   5   3  127.69    8.90
  -3  -5  -3  451.05   17.00
  -3  -5  -3  445.86   13.30
  -3  -5  -3  478.45   16.80
  -3  -5  -3  461.55   13.00
   3   5   3  470.95   19.40
   3   5   3  451.05   19.10
  -4  -5  -3    0.30    5.10
  -4  -5  -3    4.70    9.10
  -4  -5  -3   -5.70    8.50
   4   5   3   16.70   11.70
   4   5   3   11.90    6.90
   4   5   3   -4.50    6.50
   4   5   3    3.20    9.60
  -5  -5  -3    3.70    9.40
  -5  -5  -3   22.00   10.00
  -5  -5  -3   17.60    8.20
   5   5   3   10.40    7.80
   5   5   3   12.70   13.90
   5   5   3   59.59   14.40
   8  -6  -3    5.00    8.40
   8  -6  -3    9.90    8.50
   8  -6  -3    2.00    8.80
  -8   6   3    1.00    8.00
  -8   6   3    9.40   10.10
   7  -6  -3    0.00    7.00
   7  -6  -3   13.10    8.20
   7  -6  -3    4.70    9.00
  -7   6   3    1.70   16.10
  -7   6   3    9.20    8.70
  -7   6   3    7.30    7.80
   6  -6  -3    9.20    7.40
   6  -6  -3   24.10    7.40
  -6   6   3   13.60    6.70
  -6   6   3   18.80   13.30
  -6   6   3   19.30    8.70
   5  -6  -3   14.60    6.90
   5  -6  -3   20.60    6.80
   5  -6  -3   15.20    6.50
  -5   6   3   28.60    7.70
  -5   6   3   20.10   10.60
  -5   6   3   12.60    6.30
   4  -6  -3  131.69    9.70
   4  -6  -3  140.19   11.10
   4  -6  -3  125.89    8.70
  -4   6   3  127.29   15.60
  -4   6   3  123.89    9.50
  -4   6   3  138.59   10.10
   3  -6  -3 1296.87   25.20
   3  -6  -3 1301.57   24.70
   3  -6  -3 1290.27   28.50
   3  -6  -3 1294.27   29.70
  -3   6   3 1288.67   42.70
  -3   6   3 1290.77   25.30
  -3   6   3 1299.57   25.20
   2  -6  -3   39.60    6.50
   2  -6  -3   27.90    5.60
   2  -6  -3   19.10    7.90
   2  -6  -3   25.80    4.80
   2  -6  -3   39.80    8.20
  -2   6   3   35.80    5.60
  -2   6   3   27.90    6.80
  -2   6   3   26.40    5.70
   1  -6  -3   20.20    6.80
   1  -6  -3   14.00    5.60
   1  -6  -3   21.00    5.10
   1  -6  -3   19.70    7.60
   1  -6  -3   14.70    8.20
   1  -6  -3   15.80    4.70
  -1   6   3   15.30    5.10
  -1   6   3   15.30   10.90
   0  -6  -3  177.18    8.40
   0  -6  -3  157.28   10.20
   0  -6  -3  183.98   13.00
   0  -6  -3  174.68    7.90
   0  -6  -3  176.98   11.70
   0   6   3  173.38    8.60
   0   6   3  184.88    9.00
   0   6   3  156.08   11.00
   0   6   3  175.88   10.40
   0   6   3  171.68   13.10
   0   6   3  178.48   10.80
  -1  -6  -3   60.69    9.00
  -1  -6  -3   56.09    5.70
  -1  -6  -3   41.80    9.40
  -1  -6  -3   63.69    5.80
  -1  -6  -3   71.39   13.40
   1   6   3   50.69    7.20
   1   6   3   53.29    5.90
   1   6   3   45.80    8.80
   1   6   3   69.99    6.40
   1   6   3   44.90    7.50
  -2  -6  -3   -0.90    4.90
  -2  -6  -3   -9.70    4.90
  -2  -6  -3    7.40    7.30
  -2  -6  -3    2.00    7.60
   2   6   3   -0.80    5.30
  -3  -6  -3    1.30    7.10
  -3  -6  -3    0.30    8.30
  -3  -6  -3   13.90    6.20
  -3  -6  -3    3.20    2.10
   3   6   3   27.60   10.20
   3   6   3    0.90    9.00
   3   6   3   11.40    6.00
   3   6   3   -4.20   10.50
   3   6   3   14.60    6.20
  -4  -6  -3  110.09   11.80
  -4  -6  -3  130.79   18.30
  -4  -6  -3  134.09   11.30
   4   6   3  154.08   17.30
   4   6   3  136.69   10.70
   4   6   3  123.29   14.40
   4   6   3  140.09   10.50
   8  -7  -3   16.50    9.00
   8  -7  -3   10.30    9.30
  -8   7   3    6.30    8.20
  -8   7   3  -23.60   11.20
   7  -7  -3   15.80    8.10
   7  -7  -3   26.90    8.40
   7  -7  -3   28.40    8.60
  -7   7   3   33.30   19.20
  -7   7   3   20.10    9.60
  -7   7   3   19.00    7.80
   6  -7  -3    7.20    7.40
   6  -7  -3   13.30    7.70
   6  -7  -3   11.80    7.00
  -6   7   3   27.20    8.90
  -6   7   3   12.50    6.80
  -6   7   3   38.90   15.20
   5  -7  -3  126.89   10.80
   5  -7  -3  142.99   17.50
  -5   7   3  101.19    9.90
  -5   7   3  107.89    9.40
  -5   7   3  136.09   15.40
   4  -7  -3  141.29    9.70
   4  -7  -3  145.49    9.90
   4  -7  -3  136.29   14.00
   4  -7  -3  147.69   13.90
  -4   7   3  149.69   10.30
  -4   7   3  138.39   18.00
  -4   7   3  144.79   10.80
   3  -7  -3  108.49   10.40
   3  -7  -3  110.29    8.70
   3  -7  -3  117.59   10.70
   3  -7  -3  118.29    9.20
   3  -7  -3  108.09   10.30
  -3   7   3  117.29    9.80
  -3   7   3  117.59    9.50
  -3   7   3  111.29   15.60
   2  -7  -3  182.58   14.30
   2  -7  -3  189.08   11.10
   2  -7  -3  193.28    9.30
   2  -7  -3  198.78   14.00
   2  -7  -3  211.88    9.00
  -2   7   3  191.88   12.20
  -2   7   3  190.68   14.80
  -2   7   3  196.88   10.20
   1  -7  -3   79.49   10.30
   1  -7  -3  107.59    9.30
   1  -7  -3   92.99    8.10
   1  -7  -3   89.29    7.70
   1  -7  -3   72.89   10.10
  -1   7   3   66.09    8.20
  -1   7   3   88.79   10.30
  -1   7   3   95.19    6.80
   0  -7  -3  102.79    9.90
   0  -7  -3   74.89    9.80
   0  -7  -3  100.79   10.00
   0   7   3  114.89   11.10
   0   7   3  102.09    8.40
   0   7   3  103.59   11.20
  -1  -7  -3   24.20    8.70
  -1  -7  -3   18.50    7.10
  -1  -7  -3   28.70    8.40
   1   7   3   21.60    7.70
   1   7   3   18.90    8.80
  -2  -7  -3   75.69    9.90
  -2  -7  -3   66.69    9.70
   2   7   3   61.29   10.40
   2   7   3   75.29   11.90
   2   7   3   60.69    9.40
  -3  -7  -3   14.60   16.30
  -3  -7  -3   10.70    8.00
   3   7   3   -3.20    8.70
   3   7   3    6.60   12.90
   3   7   3   26.50   11.30
   3   7   3   20.30   11.40
   7  -8  -3   18.10    8.70
   7  -8  -3   15.90    8.70
  -7   8   3   49.10   37.10
  -7   8   3   22.10   10.70
   6  -8  -3   -1.40    7.30
   6  -8  -3    3.80    7.50
   6  -8  -3    4.60    7.60
  -6   8   3   -5.40    8.70
  -6   8   3    9.00    7.00
   5  -8  -3   -1.10    6.80
   5  -8  -3   -3.00    7.70
   5  -8  -3   -9.10    9.20
   5  -8  -3   -0.30    6.30
  -5   8   3    6.10    7.50
  -5   8   3    8.20    6.40
   4  -8  -3   -0.80    5.90
   4  -8  -3   -0.60    9.00
   4  -8  -3   -3.00    8.30
  -4   8   3    3.40    7.00
  -4   8   3   -5.20    6.30
   3  -8  -3  118.99   12.80
   3  -8  -3  114.69   11.90
   3  -8  -3  117.79   13.50
   3  -8  -3  117.09    9.60
   3  -8  -3  114.09    9.20
  -3   8   3  130.29   10.30
  -3   8   3  101.29    9.80
   2  -8  -3    1.50    7.80
   2  -8  -3    7.00    6.80
   2  -8  -3   -3.40    8.60
   2  -8  -3    2.00    5.20
   2  -8  -3   -1.20    5.40
  -2   8   3    2.70    5.80
  -2   8   3  -11.20   11.00
   1  -8  -3   25.80    7.90
   1  -8  -3   36.20    9.00
  -1   8   3   24.30    5.70
  -1   8   3   41.20    7.90
   0  -8  -3    4.30    6.50
   0  -8  -3   -3.90    7.50
   0  -8  -3   -4.10    8.00
   0   8   3    4.50    7.10
   0   8   3   29.30   14.70
   0   8   3    9.40    8.30
   0   8   3   21.20   11.40
  -1  -8  -3    7.00    8.50
  -1  -8  -3   14.10    7.60
  -1  -8  -3    1.30    8.70
   1   8   3   16.10    8.50
   1   8   3    3.10   13.80
  -2  -8  -3    0.30    8.50
   2   8   3   17.90   11.40
   2   8   3    9.80    8.50
   2   8   3   15.70   11.50
   6  -9  -3   -4.20    8.40
   6  -9  -3    5.60    8.90
   6  -9  -3    8.90    7.50
   6  -9  -3    4.00   11.80
  -6   9   3   52.99   27.50
  -6   9   3    0.30    9.60
  -6   9   3   15.30   12.70
   5  -9  -3   11.70    8.70
   5  -9  -3   27.50    9.70
   5  -9  -3   31.50   12.40
   5  -9  -3   20.10    9.50
   5  -9  -3    8.60    7.00
  -5   9   3   17.90    8.60
  -5   9   3    4.30    7.20
  -5   9   3   33.30   18.40
   4  -9  -3   -1.60    8.70
   4  -9  -3    8.60    9.90
   4  -9  -3    4.40    6.90
   4  -9  -3   -4.40    6.00
  -4   9   3   -4.10    7.10
  -4   9   3   10.50    6.80
  -4   9   3   18.90   14.50
   3  -9  -3   22.40    9.20
   3  -9  -3   23.90   10.00
   3  -9  -3   32.60    7.10
  -3   9   3   21.00    7.00
  -3   9   3   28.20    7.00
  -3   9   3   41.70   12.90
   2  -9  -3   35.40   10.10
   2  -9  -3   35.00   10.20
   2  -9  -3   34.00    6.00
   2  -9  -3   21.50    7.70
  -2   9   3   21.30    6.20
  -2   9   3   16.00    8.80
  -2   9   3   30.90   19.70
  -2   9   3   38.30    9.30
   1  -9  -3    2.50    8.40
   1  -9  -3   12.30    7.90
  -1   9   3   15.80   12.30
  -1   9   3   33.30    9.20
  -1   9   3    5.60    8.40
   0  -9  -3    4.50   16.20
   0  -9  -3    4.80    8.30
   0   9   3    5.20   11.10
   0   9   3   27.40    9.20
   0   9   3    9.00   14.80
   0   9   3    0.90    8.00
   4 -10  -3    9.20    8.20
  -4  10   3   18.10   19.10
  -4  10   3   -4.80    6.70
   3 -10  -3   25.70   10.70
   3 -10  -3   26.40    7.70
   3 -10  -3   18.80   15.30
  -3  10   3   31.80   16.20
  -3  10   3   18.90    7.50
  -3  10   3   18.60   11.80
   2 -10  -3   20.30   11.20
   2 -10  -3    6.30   11.50
  -2  10   3   32.50   10.10
   2  11  -4    8.60    7.60
   2  11  -4    3.20   10.80
   2  11  -4  -18.10   12.70
   2  11  -4   -4.50   10.10
   2  11  -4   13.50   12.70
   2  11  -4    6.10    9.40
   2  11  -4    7.50   13.00
   1  11  -4  -22.20   11.60
   1  11  -4   16.50   12.20
   1  11  -4   -3.30    9.50
   1  11  -4    9.10    7.50
   1  11  -4   14.10   10.00
   1  11  -4  -13.30   12.80
   1  11  -4   -0.40    8.60
   0  11  -4   49.80   10.30
   0  11  -4   23.00    8.10
   0  11  -4   10.30   13.50
   0  11  -4   19.60    8.20
   0  11  -4   36.80    9.40
   0  11  -4   23.30   11.50
   0 -11   4   25.70    9.20
  -1  11  -4   -1.30   11.10
  -1  11  -4  -19.90   13.30
  -1  11  -4   -1.40    6.90
  -1  11  -4    0.40    8.80
  -1  11  -4    8.70    7.60
  -1  11  -4   -4.80    8.90
   1 -11   4   10.00    9.00
   1 -11   4    9.00    9.20
  -2  11  -4   14.40    6.90
  -2  11  -4   16.60   10.60
  -2  11  -4   37.60    9.00
  -2  11  -4   27.60    6.80
  -2  11  -4   28.90    6.20
  -2  11  -4   22.60    8.70
   2 -11   4   32.80   11.00
   2 -11   4   25.80   21.10
   2 -11   4   40.00    9.80
  -3  11  -4   15.70   11.70
  -3  11  -4   46.70    8.70
  -3  11  -4   30.50    7.30
  -3  11  -4   50.79    8.50
  -3  11  -4   27.80    9.20
   3 -11   4   42.40   10.50
   3 -11   4   34.30    8.50
   3 -11   4   51.49   13.50
   3 -11   4   29.10   10.10
   3  10  -4   47.30   11.90
   3  10  -4   85.19   12.60
   3  10  -4   65.79   10.50
   3  10  -4   69.19   13.30
   3  10  -4   53.29    8.90
   3  10  -4   65.19   16.00
   3  10  -4   34.40   13.30
   3  10  -4   62.29   12.80
   2  10  -4    8.20    8.50
   2  10  -4   -7.50   11.30
   2  10  -4   -1.10   12.10
   2  10  -4   -0.30    8.70
   2  10  -4    2.30   10.10
   2  10  -4   -0.40    7.50
   2  10  -4    1.80    9.50
   1  10  -4   -2.40   11.70
   1  10  -4   11.50    7.10
   1  10  -4   19.10   11.50
   1  10  -4    1.10    9.40
   1  10  -4   -2.90    8.10
   1  10  -4    3.90    8.20
   1  10  -4    7.70    8.40
   0  10  -4  121.89   12.80
   0  10  -4  122.09   13.30
   0  10  -4  127.59   10.70
   0  10  -4  105.09   15.70
   0  10  -4  113.19   14.60
   0  10  -4  162.08   13.20
   0 -10   4  124.59   13.40
  -1  10  -4  248.18   12.40
  -1  10  -4  273.77   14.30
  -1  10  -4  243.98   21.50
  -1  10  -4  272.97   15.30
   1 -10   4  303.87   15.30
   1 -10   4  276.47   15.50
   1 -10   4  291.77   20.20
  -2  10  -4    5.10    7.50
  -2  10  -4  -28.50   16.30
  -2  10  -4   -3.90    9.50
  -2  10  -4   14.90    8.10
  -2  10  -4   -2.30    6.80
  -2  10  -4    1.10    5.90
   2 -10   4   11.40   10.70
   2 -10   4   15.30    8.50
   2 -10   4    5.00    8.50
   2 -10   4    6.50    6.30
   2 -10   4    6.40    4.20
  -3  10  -4  103.39    9.00
  -3  10  -4   78.89   13.30
  -3  10  -4   67.69    7.90
  -3  10  -4   93.59    9.30
   3 -10   4   56.19   12.50
   3 -10   4   71.19   10.60
   3 -10   4   64.79   10.50
   3 -10   4   63.49    7.20
   3 -10   4   88.69    8.90
  -4  10  -4    0.80   11.00
  -4  10  -4   14.00    7.70
  -4  10  -4    0.20    8.40
   4 -10   4  -16.70   14.80
   4 -10   4    6.80    6.90
   4 -10   4    4.20   11.20
   4 -10   4    5.50    8.30
   4 -10   4  -22.60   10.10
   4   9  -4  -22.00   11.40
   4   9  -4   -4.90   10.30
   4   9  -4   12.40    6.80
   4   9  -4    2.10    9.90
   4   9  -4   10.20    8.60
   4   9  -4   10.90   10.00
   3   9  -4  171.58   17.90
   3   9  -4  202.48   13.80
   3   9  -4  165.28   11.70
   3   9  -4  184.38   16.50
   3   9  -4  176.28   15.60
   3   9  -4  182.78   18.30
   3   9  -4  209.58   15.50
   3   9  -4  230.48   16.50
   2   9  -4   29.60    9.10
   2   9  -4   26.10    8.10
   2   9  -4   23.30    9.20
   2   9  -4   21.70    8.60
   2   9  -4    3.00    9.70
   2   9  -4   28.20   11.10
   2   9  -4   22.10    5.60
   2   9  -4   17.10   11.30
   1   9  -4   35.80    9.60
   1   9  -4   62.49    8.50
   1   9  -4   41.80    8.70
   1   9  -4   43.80   10.80
   1   9  -4   52.59    9.40
   1   9  -4   51.79    6.50
   1   9  -4   50.29   12.10
  -1  -9   4   50.19    8.70
   0   9  -4    7.80   11.10
   0   9  -4   -0.10    5.70
   0   9  -4    5.80    6.70
   0  -9   4   12.40   10.00
   0  -9   4   -8.40    6.80
   0  -9   4    9.80    8.00
  -1   9  -4   19.20    5.20
  -1   9  -4   -2.50    8.00
  -1   9  -4   27.20    5.60
  -1   9  -4    8.40    6.80
   1  -9   4   14.50    4.50
   1  -9   4   24.30    8.20
   1  -9   4   12.70   10.10
   1  -9   4    9.70    7.90
  -2   9  -4  138.79   11.10
  -2   9  -4  132.59   11.00
  -2   9  -4  162.18   11.00
   2  -9   4  135.89    9.40
   2  -9   4  136.29   16.70
   2  -9   4  133.39   13.80
   2  -9   4  133.89    8.50
   2  -9   4  140.79   13.40
  -3   9  -4  164.48   11.90
  -3   9  -4  161.78   11.10
   3  -9   4  151.88   14.90
   3  -9   4  164.48   10.10
   3  -9   4  167.28   17.60
   3  -9   4  179.78   14.70
  -4   9  -4   56.69    8.30
  -4   9  -4   52.79    9.10
   4  -9   4   47.00   11.90
   4  -9   4   40.00    8.30
   4  -9   4   34.50    7.50
  -5   9  -4   60.09   10.40
  -5   9  -4   57.29    9.40
   5  -9   4   42.70    9.70
   5  -9   4   21.20    8.40
   5  -9   4   56.69   12.70
   5   8  -4   10.00    8.00
   5   8  -4    9.10   10.20
   5   8  -4   11.60    7.80
   5   8  -4   12.20   10.20
   5   8  -4   -6.80   21.10
  -5  -8   4   13.80   10.00
  -5  -8   4    7.60    9.70
   4   8  -4    6.50    8.60
   4   8  -4   12.00    9.00
   4   8  -4  -10.50   12.60
   4   8  -4  -20.60   11.30
   4   8  -4    4.80    7.50
   4   8  -4   10.40    8.80
   3   8  -4   60.19   11.00
   3   8  -4   47.10    9.40
   3   8  -4   69.59    9.30
   3   8  -4   47.90   11.80
   3   8  -4   61.59    9.10
   3   8  -4   52.09   10.10
   3   8  -4   56.19    9.20
   3   8  -4   50.29   11.60
   2   8  -4  619.64   22.50
   2   8  -4  611.34   20.30
   2   8  -4  691.73   23.30
   2   8  -4  625.84   20.30
   2   8  -4  695.83   21.80
   2   8  -4  615.74   17.60
   2   8  -4  620.44   21.00
   1   8  -4   -0.10    6.20
   1   8  -4    1.70    5.80
   1   8  -4   15.40    6.40
   1   8  -4    4.50    9.80
   1   8  -4    7.30    9.60
   1   8  -4   -3.50    6.80
   1   8  -4    2.10    7.10
  -1  -8   4    2.90    9.40
  -1  -8   4   11.30    7.10
   0   8  -4   28.70    7.00
   0   8  -4   28.40   11.60
   0   8  -4   10.60    4.70
   0   8  -4   17.90    5.30
   0   8  -4    0.50    5.90
   0   8  -4   15.00    6.80
   0  -8   4   18.90   18.30
   0  -8   4   15.00    7.20
   0  -8   4   16.50    7.40
  -1   8  -4   22.40    5.70
  -1   8  -4   13.50    7.20
  -1   8  -4    4.70    9.90
  -1   8  -4   10.00    5.30
  -1   8  -4   25.80    9.80
   1  -8   4   16.40    7.40
   1  -8   4   25.20    5.20
   1  -8   4   26.40   10.40
   1  -8   4   38.10   15.20
   1  -8   4   30.60    4.90
  -2   8  -4   92.49    8.00
  -2   8  -4   74.29   11.30
  -2   8  -4   66.79    7.20
   2  -8   4   62.49    6.50
   2  -8   4   75.89    9.00
   2  -8   4   59.29    9.20
   2  -8   4   67.79   11.20
   2  -8   4   61.69   11.30
  -3   8  -4   50.09   10.40
  -3   8  -4   72.69    8.30
  -3   8  -4   55.29    7.70
   3  -8   4   47.30   10.70
   3  -8   4   61.29    7.40
   3  -8   4   54.49    7.10
  -4   8  -4   23.50   10.60
  -4   8  -4   21.20    7.60
  -4   8  -4   19.50    8.20
   4  -8   4   22.90   10.60
   4  -8   4   20.30    7.20
  -5   8  -4    1.70    8.70
  -5   8  -4    4.30   12.30
  -5   8  -4    4.60    7.90
   5  -8   4    3.40    7.60
   5  -8   4   -5.30   12.30
   5  -8   4    8.30   11.20
  -6   8  -4   22.60   10.60
  -6   8  -4   16.20   17.30
   6  -8   4   16.60   11.20
   6  -8   4   18.60    8.50
   6   7  -4   51.09   11.80
   6   7  -4   52.09   10.60
   6   7  -4   66.59   11.20
   6   7  -4   49.00    9.10
  -6  -7   4   75.89   11.70
  -6  -7   4   66.59   11.80
   5   7  -4    2.70    8.80
   5   7  -4    7.50    8.80
   5   7  -4    4.90    9.00
   5   7  -4   -5.30   10.50
   5   7  -4   12.20    6.90
   5   7  -4   14.00    8.50
  -5  -7   4   19.80    9.50
  -5  -7   4   22.20    9.20
   4   7  -4  285.47   14.60
   4   7  -4  289.47   18.60
   4   7  -4  278.67   14.70
   4   7  -4  262.47   17.20
   4   7  -4  242.88   17.60
  -4  -7   4  269.37   15.50
  -4  -7   4  289.37   16.30
  -4  -7   4  277.47   16.20
   3   7  -4  111.19   11.40
   3   7  -4  123.49   14.20
   3   7  -4  101.59    9.00
   3   7  -4   94.89   10.90
   3   7  -4  113.09   14.90
   3   7  -4   96.99   11.90
   3   7  -4   92.19   10.40
   3   7  -4  123.39   12.00
  -3  -7   4   97.99   13.40
   2   7  -4   28.50    5.90
   2   7  -4   49.00    7.90
   2   7  -4   39.20    8.20
   2   7  -4   36.20    9.90
   2   7  -4   40.20    7.80
   2   7  -4   42.60    7.50
   2   7  -4   36.80    8.50
  -2  -7   4   36.40    9.30
  -2  -7   4   38.10    9.50
   1   7  -4   40.80    9.90
   1   7  -4   10.20   12.70
   1   7  -4   32.90    6.50
   1   7  -4   27.60   10.20
   1   7  -4    7.20    9.70
  -1  -7   4   45.40    9.50
  -1  -7   4   28.60    6.60
  -1  -7   4   21.90    8.60
   0   7  -4   42.90    4.60
   0   7  -4   44.00    8.70
   0   7  -4   37.90    6.80
   0   7  -4   33.80    6.30
   0   7  -4   53.49    6.30
   0   7  -4   48.20   10.10
   0  -7   4   38.80    7.30
   0  -7   4   48.60    6.80
   0  -7   4   45.40    4.50
   0  -7   4   37.50    8.90
   0  -7   4   43.70    9.00
   0  -7   4   44.30    4.70
  -1   7  -4   24.60    6.30
  -1   7  -4   35.80    5.40
  -1   7  -4   30.50    8.40
  -1   7  -4   24.30    6.70
   1  -7   4   39.50    5.20
   1  -7   4   22.70    8.60
   1  -7   4   27.40    8.70
   1  -7   4   31.30    5.20
   1  -7   4   30.80    6.80
   1  -7   4   32.20    7.50
  -2   7  -4   11.40    8.50
  -2   7  -4   15.70    5.90
  -2   7  -4   26.20    6.40
   2  -7   4   14.70    5.60
   2  -7   4   19.50    6.10
   2  -7   4    7.50    8.90
  -3   7  -4  181.78   11.40
  -3   7  -4  164.98   16.90
   3  -7   4  176.88   10.40
   3  -7   4  159.58   16.20
   3  -7   4  179.18   10.40
  -4   7  -4  -10.20    6.80
   4  -7   4    5.60    6.80
   4  -7   4    1.10    9.60
  -5   7  -4   62.49    9.30
  -5   7  -4   56.99   23.40
  -5   7  -4   82.59   10.30
   5  -7   4   58.19   11.20
   5  -7   4   52.69   11.60
  -6   7  -4   -1.00    8.10
  -6   7  -4    4.80   10.10
   6  -7   4   16.30    8.40
   6  -7   4   -4.10    9.60
   6  -7   4   21.60   11.30
   7   6  -4   -1.60    9.50
   7   6  -4    3.30    7.90
   7   6  -4    4.40    5.90
   7   6  -4   -4.60    6.00
  -7  -6   4    3.10   10.20
  -7  -6   4   14.50   12.00
   6   6  -4   11.50    8.70
   6   6  -4    9.30    7.40
  -6  -6   4   -0.30   10.50
  -6  -6   4    5.60    9.10
   5   6  -4   19.10    7.60
  -5  -6   4   20.60    9.30
  -5  -6   4   13.40    8.60
  -5  -6   4   14.20    8.60
   4   6  -4    4.20    7.30
   4   6  -4   -4.20    6.20
   4   6  -4    3.40    3.90
   4   6  -4   -8.50    8.80
   4   6  -4    6.00    5.80
  -4  -6   4    4.10    7.90
  -4  -6   4   -1.60    9.40
  -4  -6   4    1.00    8.40
   3   6  -4  130.39   10.20
   3   6  -4  118.89   13.40
   3   6  -4  135.59   13.70
   3   6  -4  101.79   16.50
   3   6  -4  127.19   18.40
   3   6  -4  129.99   10.20
   3   6  -4  124.09   13.90
   3   6  -4  133.59   13.20
  -3  -6   4  131.89   11.90
  -3  -6   4  120.19   12.30
  -3  -6   4  121.79   12.50
   2   6  -4    5.10    8.10
   2   6  -4   -6.10    7.60
   2   6  -4    5.60    6.70
   2   6  -4    0.50    3.90
   2   6  -4    0.80    5.30
   2   6  -4  -11.10    6.50
   2   6  -4   -2.50    5.30
  -2  -6   4    0.80    7.20
  -2  -6   4   -0.60    7.10
  -2  -6   4    3.00    6.40
   1   6  -4  278.27   11.90
   1   6  -4  307.17   15.10
   1   6  -4  293.17   11.80
   1   6  -4  277.07   10.50
   1   6  -4  268.97    7.70
   1   6  -4  280.87    8.00
   1   6  -4  275.37   13.90
  -1  -6   4  295.87   14.30
  -1  -6   4  281.57   11.10
  -1  -6   4  301.57   13.90
   0   6  -4  327.07    9.10
   0   6  -4  306.27   12.40
   0   6  -4  352.96   10.00
   0   6  -4  329.97   12.50
   0   6  -4  330.77   14.20
   0  -6   4  328.77    8.90
   0  -6   4  326.57   11.90
   0  -6   4  314.67    8.80
   0  -6   4  325.97   14.30
   0  -6   4  301.97   15.00
   0  -6   4  339.77   10.80
  -1   6  -4  314.57    9.90
  -1   6  -4  310.27   14.20
  -1   6  -4  325.87   10.20
  -1   6  -4  296.67   12.00
   1  -6   4  312.37    9.70
   1  -6   4  309.87   14.20
   1  -6   4  293.07   15.30
   1  -6   4  328.67    9.80
   1  -6   4  317.47   11.00
  -2   6  -4    4.70    7.90
  -2   6  -4   15.70    5.70
  -2   6  -4    2.40    5.20
   2  -6   4   -2.60    5.00
   2  -6   4    1.20    7.60
   2  -6   4   11.00    7.90
   2  -6   4    2.50    5.10
  -3   6  -4   19.20    6.70
  -3   6  -4    1.80    8.20
  -3   6  -4    8.40    6.40
   3  -6   4    2.50    6.00
   3  -6   4    6.10    5.70
   3  -6   4    9.40    8.90
  -4   6  -4  125.49   10.90
  -4   6  -4  128.49   10.10
  -4   6  -4  125.39   15.10
   4  -6   4  104.09   15.00
   4  -6   4   89.39    8.50
  -5   6  -4    7.30    7.50
  -5   6  -4   17.40    8.30
  -5   6  -4   -8.40   11.30
   5  -6   4    5.40    9.90
   5  -6   4   -5.30    7.30
  -6   6  -4   65.99    9.60
  -6   6  -4   78.69   10.90
   6  -6   4   69.39   12.40
   6  -6   4   72.99    9.50
   6  -6   4   69.19   11.30
   7   5  -4    8.20    9.00
   7   5  -4    5.10    6.60
   7   5  -4   13.60    7.50
   7   5  -4   17.10    6.40
  -7  -5   4   21.70   11.60
  -7  -5   4    8.30    9.70
  -7  -5   4    5.50    2.70
   6   5  -4    5.90    5.60
   6   5  -4    5.90    7.30
  -6  -5   4    6.40    9.90
  -6  -5   4    9.20    5.40
  -6  -5   4    6.70    5.20
  -6  -5   4    9.60   10.10
  -6  -5   4   12.70    8.30
   5   5  -4  152.48    8.20
   5   5  -4  177.18    8.50
   5   5  -4  150.08   11.00
   5   5  -4  173.78   11.20
   5   5  -4  156.38   10.60
  -5  -5   4  165.88    7.90
  -5  -5   4  149.79   13.50
  -5  -5   4  157.98   14.00
  -5  -5   4  166.28    7.90
  -5  -5   4  170.78   13.00
   4   5  -4  112.49    6.80
   4   5  -4   88.89   11.70
   4   5  -4  113.69    9.30
   4   5  -4  113.59    8.50
   4   5  -4  100.29    6.80
  -4  -5   4  112.39    6.30
  -4  -5   4  104.69   11.40
  -4  -5   4   93.69    9.30
  -4  -5   4   99.79   11.80
   3   5  -4   70.99    6.30
   3   5  -4   58.99    7.90
   3   5  -4   56.09    4.20
   3   5  -4   53.59    6.30
   3   5  -4   55.09    6.20
  -3  -5   4   67.29    8.00
  -3  -5   4   58.99    4.80
  -3  -5   4   68.19    9.20
  -3  -5   4   57.89    7.70
  -3  -5   4   52.79    8.00
   2   5  -4   96.39    7.40
   2   5  -4  104.59   10.80
   2   5  -4   92.49    9.10
   2   5  -4   85.79    9.70
   2   5  -4   92.99    5.50
  -2  -5   4   82.49   10.20
  -2  -5   4   80.59    4.80
  -2  -5   4   77.79   10.00
  -2  -5   4   81.19    6.20
  -2  -5   4   83.69    9.40
  -2  -5   4   74.79    7.50
   1   5  -4  627.94   12.80
   1   5  -4  662.93   13.00
   1   5  -4  652.83   16.60
   1   5  -4  636.44   16.50
   1   5  -4  641.24   18.50
  -1  -5   4  634.94   18.00
  -1  -5   4  662.63   15.10
  -1  -5   4  639.64   12.70
  -1  -5   4  620.64   12.70
  -1  -5   4  619.74   18.20
   0   5  -4   58.19    4.90
   0   5  -4   51.89    8.40
   0   5  -4   45.50    5.80
   0   5  -4   58.69    5.10
   0   5  -4   49.10    6.90
   0  -5   4   57.09    4.70
   0  -5   4   61.39    8.60
   0  -5   4   63.59    4.80
   0  -5   4   50.09    7.50
   0  -5   4   58.29    5.90
  -1   5  -4   53.09    8.50
  -1   5  -4   53.59    5.60
  -1   5  -4   55.69    6.80
  -1   5  -4   62.09    5.60
   1  -5   4   58.29    8.60
   1  -5   4   47.30    8.10
   1  -5   4   56.49    5.30
   1  -5   4   49.10    5.30
  -2   5  -4    2.40    5.00
  -2   5  -4   -6.90    5.10
  -2   5  -4    3.10    7.30
   2  -5   4    0.90    6.90
   2  -5   4   -2.90    7.10
   2  -5   4    3.50    5.00
   2  -5   4    6.50    4.80
  -3   5  -4   -2.40    5.50
  -3   5  -4   -4.60    5.90
  -3   5  -4   -0.30    7.70
   3  -5   4    3.00    8.00
   3  -5   4    0.90    6.10
   3  -5   4    1.60    7.40
   3  -5   4    4.50    5.80
  -4   5  -4    6.40    7.30
  -4   5  -4   11.10    8.80
   4  -5   4    5.00    6.80
   4  -5   4    1.40    6.70
   4  -5   4   -3.30    9.00
  -5   5  -4   -4.60    7.30
  -5   5  -4    0.80    8.50
   5  -5   4   -4.30    6.90
   5  -5   4    7.30    8.20
   5  -5   4   -6.20    9.80
  -6   5  -4   28.70    9.50
  -6   5  -4   17.50    9.50
   6  -5   4   27.30    9.90
   6  -5   4   36.50    9.60
   6  -5   4   29.90   11.10
  -7   5  -4   15.00   11.00
  -7   5  -4   -6.50    9.30
   7  -5   4    2.20   12.50
   7  -5   4    9.90   11.20
   7  -5   4    8.80    8.80
   8   4  -4   15.90   10.00
   8   4  -4   21.40    8.20
   8   4  -4   22.50    7.30
  -8  -4   4   20.50    6.30
  -8  -4   4   27.40    8.40
  -8  -4   4   35.30   22.40
  -8  -4   4   12.10   11.20
   7   4  -4  365.56   12.90
   7   4  -4  387.06   13.40
  -7  -4   4  397.06   15.00
  -7  -4   4  375.46   19.00
  -7  -4   4  364.56   19.90
  -7  -4   4  375.76   12.90
   6   4  -4  288.97   13.80
   6   4  -4  309.97   11.70
   6   4  -4  320.37   13.20
  -6  -4   4  318.97   10.90
  -6  -4   4  312.97   16.80
  -6  -4   4  289.17   17.10
  -6  -4   4  312.97   10.80
  -6  -4   4  306.47   14.20
   5   4  -4   22.90    5.20
   5   4  -4   34.50    5.90
   5   4  -4   36.50    6.30
   5   4  -4   26.30    6.90
   5   4  -4   26.10    5.80
  -5  -4   4   32.60    9.40
  -5  -4   4   32.80    8.20
  -5  -4   4   36.80    5.30
  -5  -4   4   33.80   10.50
  -5  -4   4   26.30    5.00
   4   4  -4   39.70    5.30
   4   4  -4   38.50    4.70
   4   4  -4   39.20    6.10
   4   4  -4   38.20    4.60
   4   4  -4   39.10    5.50
  -4  -4   4   33.60    7.70
  -4  -4   4   45.90    7.70
  -4  -4   4   36.00    4.60
  -4  -4   4   42.80    8.40
  -4  -4   4   42.90    4.50
   3   4  -4   10.20    5.80
   3   4  -4   17.40    4.20
   3   4  -4   15.00    3.90
   3   4  -4   17.10    3.80
   3   4  -4   22.10    4.50
  -3  -4   4   14.70    6.10
  -3  -4   4   18.20    7.20
  -3  -4   4   19.10    5.70
  -3  -4   4   18.20    3.90
  -3  -4   4   13.20    6.80
  -3  -4   4   12.30    3.40
   2   4  -4   -0.30    3.30
   2   4  -4   -3.70    3.90
   2   4  -4    3.20    3.80
   2   4  -4   -0.40    5.50
   2   4  -4    6.00    5.50
  -2  -4   4   -7.50    6.00
  -2  -4   4   -2.60    5.50
  -2  -4   4    2.90    3.90
  -2  -4   4   -4.60    5.60
  -2  -4   4   -4.00    3.10
  -2  -4   4    1.70    5.30
   1   4  -4 1225.68   22.30
   1   4  -4 1218.18   25.00
   1   4  -4 1251.77   25.10
   1   4  -4 1230.28   22.30
   1   4  -4 1252.97   27.00
  -1  -4   4 1256.67   22.20
  -1  -4   4 1235.48   22.30
  -1  -4   4 1267.27   23.20
  -1  -4   4 1241.38   26.70
  -1  -4   4 1225.98   26.60
  -1  -4   4 1276.07   25.10
   0   4  -4   11.50    7.70
   0   4  -4    6.40    5.20
   0   4  -4   16.90    6.80
   0   4  -4    6.30    4.30
   0  -4   4   16.20    4.20
   0  -4   4   13.00    7.20
   0  -4   4    6.40    4.20
   0  -4   4   11.40    6.20
  -1   4  -4  100.29    9.90
  -1   4  -4  100.99    7.50
  -1   4  -4   96.59    7.40
  -1   4  -4   95.89    8.10
   1  -4   4  100.19    9.50
   1  -4   4  106.89   12.10
   1  -4   4  110.99    7.20
   1  -4   4  108.59    7.00
  -2   4  -4   73.39    9.70
  -2   4  -4   55.39    6.10
  -2   4  -4   58.29    6.10
   2  -4   4   65.89    7.90
   2  -4   4   70.89   10.00
   2  -4   4   62.49    6.00
   2  -4   4   59.89    5.80
  -3   4  -4  134.59    9.60
  -3   4  -4  128.89    9.60
   3  -4   4  141.29    9.40
   3  -4   4  136.69   10.70
   3  -4   4  119.29    9.80
   3  -4   4  131.39   14.40
  -4   4  -4  116.19   10.80
   4  -4   4  113.49   10.80
   4  -4   4  136.39   15.90
   4  -4   4  113.09   10.70
  -5   4  -4    0.50    7.70
  -5   4  -4    0.40    7.60
   5  -4   4   10.20   10.80
   5  -4   4    9.70    8.30
   5  -4   4   -3.50    7.90
  -6   4  -4    8.70    7.60
  -6   4  -4    0.60    8.50
  -6   4  -4    9.70    8.80
   6  -4   4   -2.40    8.90
   6  -4   4   10.40    8.80
   6  -4   4    9.50   10.90
  -7   4  -4   76.49   14.00
  -7   4  -4   52.79   10.80
  -7   4  -4   61.09    8.40
   7  -4   4   66.39   13.20
   7  -4   4   40.50   12.50
   7  -4   4   68.89   12.30
   8   3  -4   15.40    9.60
   8   3  -4    5.40    8.00
   8   3  -4    2.20    7.10
  -8  -3   4   -5.80   12.40
  -8  -3   4    8.70    7.10
  -8  -3   4    5.60   11.20
   7   3  -4   43.90    7.30
   7   3  -4   34.60    7.90
   7   3  -4   48.90    7.70
  -7  -3   4   61.49   12.10
  -7  -3   4   49.70   12.90
  -7  -3   4   51.99    8.20
  -7  -3   4   48.60    7.20
   6   3  -4   98.19    9.50
   6   3  -4   92.39    9.00
   6   3  -4   79.09    7.80
  -6  -3   4   95.79    9.10
  -6  -3   4   82.79   10.80
  -6  -3   4   90.39   11.20
  -6  -3   4   82.09    7.00
  -6  -3   4   88.89   11.60
   5   3  -4 1100.69   22.60
   5   3  -4 1085.99   23.10
   5   3  -4 1097.99   21.60
   5   3  -4 1126.89   21.70
  -5  -3   4 1097.59   21.40
  -5  -3   4 1107.69   24.70
  -5  -3   4 1060.19   21.30
  -5  -3   4 1111.49   26.40
  -5  -3   4 1065.79   26.00
   4   3  -4   66.69    6.80
   4   3  -4   66.09    6.20
  -4  -3   4   54.99    4.80
  -4  -3   4   73.09    5.40
  -4  -3   4   63.89    8.00
  -4  -3   4   80.79    8.50
  -4  -3   4   63.79    8.00
   3   3  -4  529.75   12.40
   3   3  -4  514.35   11.60
   3   3  -4  500.45   11.50
  -3  -3   4  516.45   11.50
  -3  -3   4  510.75   14.80
  -3  -3   4  519.05   14.00
  -3  -3   4  541.95   15.60
  -3  -3   4  528.65   14.90
  -3  -3   4  503.65   11.30
   2   3  -4  109.69    6.50
   2   3  -4  124.79    9.10
   2   3  -4  128.29    6.50
  -2  -3   4  123.49    6.20
  -2  -3   4  124.99    9.20
  -2  -3   4  131.39    7.00
  -2  -3   4  122.19    8.80
  -2  -3   4  137.89   10.40
  -2  -3   4  135.79   10.10
  -2  -3   4  121.29    6.00
   1   3  -4   19.50    5.40
   1   3  -4   32.60    5.90
   1   3  -4   25.40    4.50
   1   3  -4   23.20    4.50
  -1  -3   4   23.00    4.10
  -1  -3   4   22.00    4.40
  -1  -3   4   23.10    6.50
  -1  -3   4   18.10    5.40
   0   3  -4  312.97    9.20
   0   3  -4  295.47   10.00
   0   3  -4  306.07    9.20
   0  -3   4  285.77    8.90
   0  -3   4  298.67    9.30
   0  -3   4  285.77   12.20
  -1   3  -4 3339.17   56.49
  -1   3  -4 3341.47   56.59
  -1   3  -4 3402.36   56.59
   1  -3   4 3340.67   56.39
   1  -3   4 3318.87   58.69
   1  -3   4 3436.46   56.59
  -2   3  -4 4856.01   80.79
  -2   3  -4 4824.02   80.69
   2  -3   4 4918.01   82.39
   2  -3   4 4767.12   80.59
   2  -3   4 4937.71   80.79
  -3   3  -4    3.50    5.60
  -3   3  -4    0.90    5.80
   3  -3   4    4.10    5.50
   3  -3   4    3.80    5.90
   3  -3   4    0.00    5.80
  -4   3  -4  171.08   11.30
  -4   3  -4  185.08   11.50
   4  -3   4  154.28   11.50
   4  -3   4  170.78   11.50
  -5   3  -4    4.20    8.00
  -5   3  -4   -0.90    7.70
   5  -3   4    1.30    5.10
   5  -3   4    5.00    8.10
   5  -3   4   -7.30    7.70
  -6   3  -4    4.80    8.40
  -6   3  -4    3.50    8.70
  -6   3  -4   12.90    7.70
   6  -3   4   16.20    4.70
   6  -3   4   36.20   10.20
   6  -3   4   -5.00   11.70
   6  -3   4    2.80    7.60
  -7   3  -4   17.80   10.30
  -7   3  -4   41.10    8.70
   7  -3   4   16.90   12.30
   7  -3   4   11.80   14.20
   7  -3   4    8.60   12.80
   8   2  -4    9.20    7.10
   8   2  -4   42.90    8.80
   8   2  -4   30.30    7.80
  -8  -2   4   23.40   12.70
  -8  -2   4   33.60    8.10
  -8  -2   4   33.90    9.80
   7   2  -4   25.70    6.90
   7   2  -4   25.40    7.20
   7   2  -4   28.40    7.20
  -7  -2   4   18.30   12.00
  -7  -2   4   31.40    8.00
  -7  -2   4   21.60    6.90
   6   2  -4   44.20    6.70
   6   2  -4   42.70    6.80
   6   2  -4   39.60    6.60
  -6  -2   4   32.90    6.10
  -6  -2   4   48.00    8.90
  -6  -2   4   40.90    6.80
  -6  -2   4   49.70   14.50
   5   2  -4   20.80    5.40
   5   2  -4   32.20    5.10
   5   2  -4   26.30    5.40
  -5  -2   4   35.80    9.30
  -5  -2   4   23.60    4.80
  -5  -2   4   28.20    7.60
  -5  -2   4   21.00    5.20
   4   2  -4   18.00    4.40
   4   2  -4   25.20    4.60
   4   2  -4   27.50    4.50
  -4  -2   4   38.20    7.70
  -4  -2   4   24.70    4.30
  -4  -2   4   31.90    4.80
   3   2  -4  399.96   10.10
   3   2  -4  402.36   10.40
  -3  -2   4  407.66   10.40
  -3  -2   4  413.56   13.50
  -3  -2   4  412.76   10.00
  -3  -2   4  387.36   12.80
   2   2  -4  294.07    8.70
   2   2  -4  291.27   10.60
   2   2  -4  292.77    8.50
  -2  -2   4  286.77   10.40
  -2  -2   4  294.47   10.90
  -2  -2   4  285.97    8.20
  -2  -2   4  295.17    8.70
   1   2  -4  349.07    9.50
   1   2  -4  345.57    9.40
   1   2  -4  344.77    9.90
  -1  -2   4  352.96    9.20
  -1  -2   4  350.26   10.30
   0   2  -4  409.76   11.70
   0   2  -4  409.26   10.70
   0   2  -4  410.86   10.60
   0  -2   4  413.76   12.80
   0  -2   4  391.06   10.40
   0  -2   4  430.56   13.20
  -1   2  -4 1791.22   32.40
  -1   2  -4 1850.41   32.60
  -1   2  -4 1875.21   33.00
   1  -2   4 1844.92   32.60
   1  -2   4 1801.92   32.30
   1  -2   4 1794.62   34.10
  -2   2  -4 3396.86   57.19
   2  -2   4 3333.57   57.79
   2  -2   4 3312.57   56.89
   2  -2   4 3374.36   57.09
  -3   2  -4  541.55   14.70
  -3   2  -4  533.55   14.40
   3  -2   4  522.55   14.60
   3  -2   4  529.05   14.50
   3  -2   4  518.45   14.10
  -4   2  -4    7.20    6.60
  -4   2  -4   -1.40    6.80
   4  -2   4    1.60    7.20
   4  -2   4   -2.40    4.80
   4  -2   4   -3.90    7.40
  -5   2  -4   11.50    7.40
  -5   2  -4   10.20    8.30
   5  -2   4   16.70    6.10
   5  -2   4    6.60    8.10
   5  -2   4   16.00    7.30
  -6   2  -4    7.50    8.40
  -6   2  -4   -9.00    9.90
  -6   2  -4    9.00    8.60
   6  -2   4   -8.00    7.70
   6  -2   4    8.50    7.30
   6  -2   4   -6.60    8.80
  -7   2  -4   76.39    9.60
   7  -2   4   33.50   14.30
   9   1  -4   18.70    9.90
   9   1  -4   20.70   10.80
  -9  -1   4   14.30    9.00
   8   1  -4   13.80    7.40
   8   1  -4   -0.70    7.00
   8   1  -4   -2.80   12.10
  -8  -1   4   -2.10    7.80
  -8  -1   4   -2.70    7.80
   7   1  -4   24.90    7.50
   7   1  -4   17.80    6.70
   7   1  -4   32.50    7.30
  -7  -1   4    6.40    4.60
  -7  -1   4   27.10    8.80
  -7  -1   4   22.00    7.20
   6   1  -4   67.49    7.40
   6   1  -4   49.80    7.20
   6   1  -4   53.39    6.60
  -6  -1   4   54.89    7.10
  -6  -1   4   53.29    6.70
   5   1  -4  807.92   17.60
   5   1  -4  820.22   17.80
   5   1  -4  837.02   16.70
  -5  -1   4  788.42   17.40
  -5  -1   4  827.02   17.80
   4   1  -4  713.93   15.20
   4   1  -4  700.63   14.20
   4   1  -4  698.43   15.00
  -4  -1   4  710.13   15.30
  -4  -1   4  681.83   15.00
   3   1  -4   84.19    6.80
   3   1  -4   89.99    6.40
  -3  -1   4   82.29    6.30
  -3  -1   4  103.09    9.30
   2   1  -4   20.00    4.50
   2   1  -4   18.80    4.40
  -2  -1   4   23.50    5.80
  -2  -1   4   24.10    4.60
  -2  -1   4   21.20    4.10
   1   1  -4   85.49    6.10
   1   1  -4   91.19    6.60
   1   1  -4   85.29    6.50
  -1  -1   4   78.99    6.20
  -1  -1   4   84.39    5.80
  -1  -1   4   85.39    6.70
   0   1  -4   42.00    5.50
   0   1  -4   29.40    3.70
   0  -1   4   25.50    3.80
   0  -1   4   39.40    5.40
   0  -1   4   39.20    5.00
  -1   1  -4 1021.80   19.00
  -1   1  -4 1029.20   20.20
  -1   1  -4  991.20   19.90
   1  -1   4 1010.40   20.00
   1  -1   4  984.50   19.80
  -2   1  -4  362.26   11.10
  -2   1  -4  370.06   11.50
   2  -1   4  347.87    9.80
   2  -1   4  348.97   11.00
   2  -1   4  365.26   11.30
  -3   1  -4    6.20    6.30
  -3   1  -4   18.20    6.30
   3  -1   4   10.70    5.70
   3  -1   4   10.30    5.80
   3  -1   4   12.30    4.80
  -4   1  -4  205.38   11.60
  -4   1  -4  219.18   12.40
   4  -1   4  245.58   14.20
   4  -1   4  231.28   10.60
   4  -1   4  223.18   12.50
  -5   1  -4    9.10    8.30
  -5   1  -4   -0.10    9.40
   5  -1   4    6.50    7.40
   5  -1   4    9.80    6.60
   5  -1   4    1.30    8.40
  -6   1  -4   17.70    9.70
  -6   1  -4   16.70    8.20
  -6   1  -4    9.70    8.90
   6  -1   4   23.50    8.90
   6  -1   4   22.40    9.00
   6  -1   4   20.10    9.70
   9   0  -4   76.59   11.10
  -9   0   4   59.09    9.40
  -9   0   4   72.19   18.00
   8   0  -4    3.70    8.60
   8   0  -4    1.70    7.40
   8   0  -4   -1.50    6.60
  -8   0   4    3.20    7.70
   7   0  -4  144.69   11.90
   7   0  -4  134.39   11.00
   7   0  -4  146.29   10.20
  -7   0   4  147.29   11.60
   6   0  -4  213.38    9.60
   6   0  -4  210.38   10.90
   6   0  -4  203.38   10.70
  -6   0   4  211.88    9.90
  -6   0   4  196.88   11.00
   5   0  -4   82.39    7.70
   5   0  -4   83.19    7.90
  -5   0   4   83.59    8.00
  -5   0   4   75.89    7.30
   4   0  -4  107.99    7.20
   4   0  -4   97.59    7.30
  -4   0   4  107.29    7.10
  -4   0   4  105.69    6.90
   3   0  -4 1887.31   33.30
   3   0  -4 1899.31   33.20
  -3   0   4 1871.31   33.30
  -3   0   4 1917.81   33.30
   2   0  -4  585.44   13.00
   2   0  -4  578.54   12.80
  -2   0   4  573.54   12.80
  -2   0   4  585.94   13.00
   1   0  -4  454.85   11.20
   1   0  -4  472.85   11.30
  -1   0   4  473.75    9.90
  -1   0   4  455.25   11.10
   0   0  -4  857.11   17.50
   0   0  -4  847.62   17.70
   0   0  -4  877.21   17.50
   0   0   4  859.31   17.50
   0   0   4  860.31   16.40
   0   0   4  863.61   17.30
  -1   0  -4  214.08    8.40
  -1   0  -4  195.38    8.70
  -1   0  -4  210.18    9.00
   1   0   4  204.98    8.70
   1   0   4  205.68    8.80
  -2   0  -4  292.97   10.50
  -2   0  -4  271.77    9.70
   2   0   4  272.97    9.90
   2   0   4  294.87   10.40
   2   0   4  277.07   10.10
  -3   0  -4  119.19   10.10
   3   0   4  116.59    9.10
   3   0   4  119.59    9.80
   3   0   4  116.59   10.00
  -4   0  -4   46.50    7.90
  -4   0  -4    8.30    4.50
   4   0   4   43.30    8.10
   4   0   4   28.60    7.40
   4   0   4   26.60    7.20
  -5   0  -4  150.08   13.30
  -5   0  -4  137.29   12.60
   5   0   4  135.69   18.10
   5   0   4  133.09   12.30
   5   0   4  137.89   12.10
  -6   0  -4   37.40   10.20
  -6   0  -4   46.50    9.30
  -6   0  -4   38.20   10.20
   6   0   4   49.60    9.20
   6   0   4   48.00   10.10
   6   0   4   50.19   10.20
   9  -1  -4   10.70   10.10
   9  -1  -4   -9.80   10.00
  -9   1   4   -8.40    9.30
  -9   1   4    2.90    8.50
   8  -1  -4  150.08   13.70
   8  -1  -4  140.19   12.20
   8  -1  -4  156.98   10.40
  -8   1   4  161.08   12.70
  -8   1   4  119.09   12.80
   7  -1  -4   64.89    6.60
   7  -1  -4   63.89    8.00
   7  -1  -4   64.29    8.50
  -7   1   4   71.79    8.50
   6  -1  -4  184.68   10.50
   6  -1  -4  190.18   10.80
  -6   1   4  195.78   10.90
  -6   1   4  197.48   10.40
   5  -1  -4   33.60    5.70
   5  -1  -4   36.70    5.60
  -5   1   4   31.40    5.60
  -5   1   4   31.00    5.90
   4  -1  -4  717.03   15.80
   4  -1  -4  686.53   15.50
  -4   1   4  698.43   15.50
  -4   1   4  717.93   15.70
   3  -1  -4  326.07    9.50
   3  -1  -4  306.77    9.80
  -3   1   4  306.87    9.50
  -3   1   4  307.07    9.80
   2  -1  -4  785.12   16.20
  -2   1   4  762.72   16.10
  -2   1   4  784.42   16.10
   1  -1  -4  101.59    7.00
   1  -1  -4   94.99    7.10
   1  -1  -4   91.99    6.70
  -1   1   4   90.29    7.60
  -1   1   4   98.09    6.90
   0  -1  -4  282.57    9.30
   0  -1  -4  266.67   10.30
   0  -1  -4  293.77    9.40
   0   1   4  275.77    9.30
   0   1   4  275.57    9.40
   0   1   4  290.37    9.20
  -1  -1  -4   64.59    6.40
  -1  -1  -4   68.79    6.10
   1   1   4   60.69    5.70
   1   1   4   62.09    5.90
  -2  -1  -4    4.90    5.30
  -2  -1  -4    2.60    5.10
   2   1   4   -3.20    5.10
   2   1   4   -1.10    5.20
   2   1   4    6.20    5.30
  -3  -1  -4    8.50    6.00
  -3  -1  -4   11.40    6.80
   3   1   4    9.90    6.40
   3   1   4   26.70    6.70
   3   1   4    9.90    6.60
  -4  -1  -4    0.70    7.20
  -4  -1  -4   11.60    8.50
  -4  -1  -4    2.50    6.70
   4   1   4    6.10    7.20
   4   1   4    2.50    7.40
   4   1   4    2.70    7.00
  -5  -1  -4   62.49    9.40
  -5  -1  -4   85.39    9.60
  -5  -1  -4   74.89    9.20
   5   1   4   82.89   10.30
   5   1   4   78.19   10.40
   5   1   4   70.89    9.00
  -6  -1  -4   -0.40    9.20
  -6  -1  -4  -13.30    8.60
  -6  -1  -4    0.40    8.90
   6   1   4   -7.50    8.30
   6   1   4    2.10    9.60
   9  -2  -4   12.50   10.50
   9  -2  -4    0.40    9.20
  -9   2   4   14.80   10.00
  -9   2   4    7.30    8.60
   8  -2  -4    2.60    8.50
   8  -2  -4   -4.30    7.90
  -8   2   4   -2.10    8.00
  -8   2   4   -5.50    7.70
   7  -2  -4   44.40    8.10
   7  -2  -4   27.50    8.00
  -7   2   4   42.00    8.10
  -7   2   4   42.00    7.60
   6  -2  -4  207.58   17.00
   6  -2  -4  199.88   11.30
  -6   2   4  195.28   10.80
  -6   2   4  209.08   11.40
   5  -2  -4  143.49    8.80
   5  -2  -4  159.78    9.30
  -5   2   4  150.78    9.10
  -5   2   4  142.89    9.00
   4  -2  -4  339.17   10.70
   4  -2  -4  326.07   10.20
  -4   2   4  346.07   10.60
  -4   2   4  317.37   10.40
   3  -2  -4  641.64   14.80
   3  -2  -4  654.93   14.50
  -3   2   4  670.63   14.70
  -3   2   4  655.53   14.70
   2  -2  -4  289.97    9.20
   2  -2  -4  312.47   10.50
   2  -2  -4  328.97    9.90
  -2   2   4  321.97    9.80
  -2   2   4  312.27    9.80
  -2   2   4  319.57    8.80
   1  -2  -4   -0.10    4.30
   1  -2  -4   -4.20    5.00
   1  -2  -4   -5.30    4.80
  -1   2   4   -0.20    4.30
  -1   2   4    2.50    4.70
   0  -2  -4 1031.20   20.10
   0  -2  -4 1017.00   21.90
   0   2   4 1036.30   20.90
   0   2   4 1042.00   20.30
   0   2   4 1072.89   20.30
  -1  -2  -4  122.39    8.20
  -1  -2  -4  108.49    8.10
  -1  -2  -4  111.99    9.20
   1   2   4  110.89    7.80
   1   2   4  109.19    8.10
   1   2   4  120.09    8.90
  -2  -2  -4    7.20    5.70
   2   2   4    6.10    6.30
   2   2   4   -2.00    5.60
   2   2   4   -0.80    5.40
  -3  -2  -4  153.88    9.80
  -3  -2  -4  199.48   17.40
  -3  -2  -4  149.49   10.90
   3   2   4  154.58   12.50
   3   2   4  156.28   11.00
   3   2   4  148.99   11.00
  -4  -2  -4   12.40    4.60
  -4  -2  -4   -1.20    6.40
  -4  -2  -4    0.70    7.30
  -4  -2  -4   -2.20    8.20
   4   2   4    6.20    8.00
   4   2   4    2.80    7.40
   4   2   4   -3.90    6.90
  -5  -2  -4   33.10    9.10
  -5  -2  -4   38.20    8.50
  -5  -2  -4   37.80    9.20
  -5  -2  -4   34.90    8.30
   5   2   4   29.00    8.90
   5   2   4   31.60    8.20
   9  -3  -4   20.20   11.30
   9  -3  -4    3.30    8.70
  -9   3   4   15.80   10.60
  -9   3   4   14.90    9.30
   8  -3  -4   10.90    8.00
   8  -3  -4    6.40    8.80
  -8   3   4   12.20    8.40
  -8   3   4   12.10    8.40
   7  -3  -4   22.00    8.20
   7  -3  -4   16.80    8.00
  -7   3   4   24.50    7.80
  -7   3   4   12.40    7.50
   6  -3  -4  280.37   12.20
   6  -3  -4  281.67   12.70
   6  -3  -4  275.37   11.10
  -6   3   4  311.37   15.50
  -6   3   4  289.47   12.40
  -6   3   4  287.07   12.40
   5  -3  -4   45.10    6.30
   5  -3  -4   34.60    6.50
  -5   3   4   46.40    7.90
  -5   3   4   36.50    6.60
  -5   3   4   42.20    6.20
   4  -3  -4   22.60    4.50
   4  -3  -4   23.50    5.10
   4  -3  -4   21.20    5.60
  -4   3   4   19.00    5.10
  -4   3   4   23.90    5.10
   3  -3  -4   21.80    4.50
   3  -3  -4   29.60    5.10
  -3   3   4   18.70    5.00
  -3   3   4   32.50    5.20
   2  -3  -4   -0.80    4.60
   2  -3  -4   -1.60    4.00
   2  -3  -4    6.80    5.40
  -2   3   4   -2.30    4.20
  -2   3   4   -3.30    4.40
  -2   3   4   -2.00    4.40
   1  -3  -4  407.96   10.70
   1  -3  -4  417.76   13.40
   1  -3  -4  406.46   12.60
  -1   3   4  418.96   11.00
   0  -3  -4   23.40    5.20
   0  -3  -4   16.40    6.70
   0  -3  -4   16.60    4.70
   0   3   4   18.60    5.70
   0   3   4   21.20    4.90
   0   3   4   18.70    5.00
  -1  -3  -4  803.92   17.30
  -1  -3  -4  805.22   20.10
   1   3   4  849.02   17.70
   1   3   4  790.72   17.30
   1   3   4  801.22   19.40
  -2  -3  -4   10.30    6.00
  -2  -3  -4   -3.90    8.30
   2   3   4   13.90    7.90
   2   3   4    4.60    6.80
   2   3   4    2.20    6.20
   2   3   4   10.50    6.00
  -3  -3  -4   75.19   10.20
  -3  -3  -4   99.49    8.30
   3   3   4   95.59    8.40
   3   3   4   91.09    8.40
   3   3   4   85.39   10.00
  -4  -3  -4   25.30    7.40
  -4  -3  -4    7.70    8.80
  -4  -3  -4   14.50    9.00
  -4  -3  -4   24.70    6.40
   4   3   4    3.10    5.80
   4   3   4    6.00    7.30
   4   3   4   14.90    7.80
  -5  -3  -4  133.99   13.40
  -5  -3  -4  181.48   13.10
  -5  -3  -4  172.68   15.00
  -5  -3  -4  197.78   12.00
   5   3   4  179.18   13.10
   5   3   4  260.07   20.50
   5   3   4  185.88   13.90
   9  -4  -4   -0.40   10.40
   9  -4  -4  -10.50    8.50
  -9   4   4   20.20   12.30
  -9   4   4    1.60    9.00
   8  -4  -4   -8.40    8.30
   8  -4  -4   -3.40    8.90
  -8   4   4   -0.50    7.50
  -8   4   4   12.00    9.20
   7  -4  -4    5.00    7.10
   7  -4  -4   -2.30    7.50
   7  -4  -4    0.20    6.50
  -7   4   4   -5.90    6.80
  -7   4   4    4.10    7.50
   6  -4  -4   72.29    7.40
   6  -4  -4   75.79    8.30
   6  -4  -4   63.89    7.60
  -6   4   4   61.09    7.90
  -6   4   4   80.59    8.90
  -6   4   4   89.59   11.00
   5  -4  -4  754.82   18.50
   5  -4  -4  723.43   17.80
   5  -4  -4  754.12   17.40
  -5   4   4  747.33   18.40
  -5   4   4  748.33   18.20
  -5   4   4  808.42   23.10
   4  -4  -4  199.88    9.60
   4  -4  -4  208.38    9.10
  -4   4   4  196.28    9.60
  -4   4   4  202.98    9.80
   3  -4  -4    4.70    6.50
   3  -4  -4    5.50    4.60
   3  -4  -4    2.20    5.10
  -3   4   4    5.00    5.00
  -3   4   4    1.60    5.00
  -3   4   4    3.00    5.10
   2  -4  -4   -5.70    4.80
   2  -4  -4    4.00    4.30
   2  -4  -4   -6.20    3.50
   2  -4  -4    0.00    5.90
  -2   4   4    7.90    5.00
  -2   4   4    3.50    4.90
  -2   4   4   -4.60    4.60
   1  -4  -4  426.96   14.20
   1  -4  -4  448.66   12.10
   1  -4  -4  443.26   11.60
   1  -4  -4  428.76   11.20
   1  -4  -4  414.66   14.50
  -1   4   4  441.56   11.70
  -1   4   4  421.46   12.80
   0  -4  -4  141.59   11.10
   0  -4  -4  135.49    9.10
   0  -4  -4  124.09    8.50
   0  -4  -4  129.59    8.00
   0   4   4  119.09    8.10
   0   4   4  121.69    8.50
   0   4   4  126.69   10.70
  -1  -4  -4  324.67   14.60
  -1  -4  -4  329.37   13.00
  -1  -4  -4  307.07   14.60
  -1  -4  -4  357.16   11.40
   1   4   4  317.27   13.50
   1   4   4  353.36   11.50
   1   4   4  342.17   11.60
  -2  -4  -4    4.20    7.30
  -2  -4  -4   10.10    5.90
  -2  -4  -4    4.00    8.20
   2   4   4   22.20    8.00
   2   4   4   11.20    8.20
   2   4   4    8.20    6.20
   2   4   4   16.40    6.50
  -3  -4  -4   -0.30    8.40
  -3  -4  -4   -2.60    6.40
  -3  -4  -4   13.50    7.90
   3   4   4   -9.90    5.50
   3   4   4    1.00    6.80
   3   4   4    3.50    6.90
  -4  -4  -4   14.70    7.30
  -4  -4  -4   14.70    8.60
  -4  -4  -4   10.00    8.50
   4   4   4    7.50    9.80
   4   4   4    4.60    7.20
   4   4   4    5.00    7.90
   4   4   4   11.40   11.30
   8  -5  -4    3.90    8.60
   8  -5  -4   -4.10    8.10
   8  -5  -4    3.70    7.70
  -8   5   4  -12.20    9.10
  -8   5   4    7.90    8.40
   7  -5  -4   50.99    7.70
   7  -5  -4   32.70    8.40
   7  -5  -4   39.30    8.20
  -7   5   4   92.09   15.20
  -7   5   4   49.00    9.50
  -7   5   4   36.60    7.60
   6  -5  -4   57.69    7.20
   6  -5  -4   58.39    8.00
  -6   5   4   55.39    9.10
  -6   5   4   74.79   12.80
  -6   5   4   38.30    7.30
   5  -5  -4   22.10    6.90
   5  -5  -4    5.50    4.50
   5  -5  -4   20.40    6.40
  -5   5   4   12.50    6.90
  -5   5   4   22.10   10.20
  -5   5   4   14.10    6.80
   4  -5  -4  495.65   13.80
   4  -5  -4  509.25   14.50
  -4   5   4  508.65   14.50
  -4   5   4  509.55   14.60
   3  -5  -4  104.89    9.60
   3  -5  -4  107.69    9.00
  -3   5   4  100.39    8.90
  -3   5   4   91.59    8.60
  -3   5   4  111.19    9.60
   2  -5  -4  846.32   21.70
   2  -5  -4  851.71   18.10
   2  -5  -4  874.71   17.40
   2  -5  -4  884.51   21.40
   2  -5  -4  829.22   18.60
  -2   5   4  858.01   18.50
  -2   5   4  855.61   19.80
  -2   5   4  880.21   18.50
   1  -5  -4  106.99    7.60
   1  -5  -4  103.79    9.70
   1  -5  -4  109.19    8.40
   1  -5  -4  107.09    9.80
   1  -5  -4  109.89    8.90
  -1   5   4   92.29    7.70
  -1   5   4  107.99    8.60
  -1   5   4  103.89    9.50
   0  -5  -4   29.50    8.30
   0  -5  -4   28.50    6.60
   0  -5  -4   41.60    6.10
   0   5   4   44.20    6.40
   0   5   4   21.70    6.70
   0   5   4   26.00   10.00
   0   5   4   34.90    6.10
  -1  -5  -4   -1.30    5.20
  -1  -5  -4   -3.40    5.40
  -1  -5  -4    9.10    8.10
  -1  -5  -4   -1.40    7.40
  -1  -5  -4   -0.50    8.00
   1   5   4   -4.70    5.80
   1   5   4   -2.10    5.80
   1   5   4   -4.30    7.10
  -2  -5  -4  217.98   10.60
  -2  -5  -4  222.28   14.00
  -2  -5  -4  198.08   13.20
  -2  -5  -4  207.58   10.70
   2   5   4  206.18   10.90
   2   5   4  199.38   10.80
  -3  -5  -4   10.70   11.30
  -3  -5  -4    6.70    8.30
  -3  -5  -4   13.60    8.70
   3   5   4  -10.30   10.40
   3   5   4   19.50    7.10
   3   5   4   12.40    7.20
   3   5   4   10.20    9.60
  -4  -5  -4    4.30    2.60
  -4  -5  -4    7.70   10.40
  -4  -5  -4    5.30   10.30
  -4  -5  -4   33.60   11.20
   4   5   4   24.90   12.00
   4   5   4    3.00   13.00
   4   5   4   25.10    8.00
   4   5   4    9.20    7.60
   8  -6  -4   -0.70    7.80
   8  -6  -4   10.20    9.40
   8  -6  -4   -1.90    8.60
  -8   6   4    8.20   10.10
  -8   6   4    4.80    8.40
   7  -6  -4   42.40    8.70
   7  -6  -4   27.10    8.60
  -7   6   4   45.40    9.70
  -7   6   4   29.10    8.40
  -7   6   4   99.39   18.60
   6  -6  -4    3.40    6.80
   6  -6  -4    2.90    7.30
  -6   6   4   -3.70    7.60
  -6   6   4   -3.30   12.40
  -6   6   4    8.40    6.60
   5  -6  -4   10.40    3.60
   5  -6  -4   17.30    6.90
   5  -6  -4   18.20    6.90
  -5   6   4   20.10    6.90
  -5   6   4   15.60    7.10
  -5   6   4   20.60   11.10
   4  -6  -4   -3.90    5.50
   4  -6  -4    0.70    6.30
   4  -6  -4   -5.10    8.40
   4  -6  -4    2.60    5.80
  -4   6   4   -0.30    9.80
  -4   6   4  -13.00    6.40
  -4   6   4    0.70    6.20
   3  -6  -4   63.79    7.20
   3  -6  -4   64.69    9.90
   3  -6  -4   81.29    7.70
   3  -6  -4   43.90    6.20
  -3   6   4   63.09    7.20
  -3   6   4   70.09    8.30
  -3   6   4   69.29    7.40
   2  -6  -4   72.19    6.50
   2  -6  -4  104.79    9.00
   2  -6  -4   78.39    6.50
   2  -6  -4   67.59    9.90
  -2   6   4   69.19    7.30
  -2   6   4   91.49    7.60
  -2   6   4   62.19   11.60
   1  -6  -4   52.69    6.00
   1  -6  -4   56.79    8.50
   1  -6  -4   47.30    6.60
   1  -6  -4   34.20    8.40
   1  -6  -4   58.29    6.70
  -1   6   4   54.09    6.50
  -1   6   4   45.90    7.30
  -1   6   4   51.19    6.80
   0  -6  -4   25.10    5.60
   0  -6  -4   16.70    8.20
   0  -6  -4   26.20    7.00
   0  -6  -4   31.20    8.60
   0  -6  -4   17.60    5.70
   0   6   4    9.70    6.20
   0   6   4   11.80    9.10
   0   6   4   20.90    6.60
   0   6   4   13.20    6.20
   0   6   4   23.60    6.80
  -1  -6  -4   13.90    8.20
  -1  -6  -4   11.50    5.80
  -1  -6  -4   19.60    9.20
  -1  -6  -4   11.00    7.70
  -1  -6  -4   11.10    5.80
   1   6   4    7.10    6.00
   1   6   4    5.60   11.90
  -2  -6  -4   34.10    6.20
  -2  -6  -4   47.40    9.70
  -2  -6  -4   46.40    9.00
   2   6   4   33.90    6.80
   2   6   4   44.70   10.30
   2   6   4   34.10    8.30
  -3  -6  -4  161.48   12.00
  -3  -6  -4  162.78   14.30
  -3  -6  -4  130.09   20.80
   3   6   4  180.88   18.10
   3   6   4  162.28   11.20
   3   6   4  170.68   15.40
   7  -7  -4    2.90    7.80
   7  -7  -4   -5.60    7.80
   7  -7  -4    9.10    8.10
  -7   7   4   13.20   10.10
  -7   7   4   10.80    7.40
   6  -7  -4   13.40    7.90
   6  -7  -4    4.70    7.20
   6  -7  -4    9.90    7.80
  -6   7   4   -2.60    6.60
  -6   7   4   40.80   13.10
  -6   7   4    8.50    8.50
   5  -7  -4   -6.00    7.40
   5  -7  -4    0.80   10.00
   5  -7  -4   -7.50    6.70
  -5   7   4   21.00    8.50
  -5   7   4    1.10    7.30
  -5   7   4    8.30    7.00
   4  -7  -4  117.89    8.80
   4  -7  -4  108.29   10.40
   4  -7  -4  105.59   10.90
   4  -7  -4  107.29   11.50
  -4   7   4  116.29   11.10
  -4   7   4  114.19   10.50
   3  -7  -4   46.80    9.50
   3  -7  -4   53.69    6.90
   3  -7  -4   49.50    9.20
   3  -7  -4   44.70    7.00
   3  -7  -4   60.89    7.20
  -3   7   4   57.39    9.00
  -3   7   4   59.39    7.70
  -3   7   4   58.29    7.70
   2  -7  -4   38.50    7.60
   2  -7  -4   26.10    8.60
   2  -7  -4   21.70    6.30
   2  -7  -4   27.10    6.00
   2  -7  -4   30.80    9.20
  -2   7   4   22.70    6.80
  -2   7   4   30.80    6.60
  -2   7   4   24.40    7.30
   1  -7  -4   89.89    9.40
   1  -7  -4   80.89    6.80
   1  -7  -4   91.09    8.20
   1  -7  -4   74.69   10.00
   1  -7  -4   86.89    7.10
  -1   7   4  105.69    8.90
  -1   7   4  124.89   10.80
   0  -7  -4   11.40    6.90
   0  -7  -4    2.50    5.50
   0  -7  -4   11.00    5.20
   0  -7  -4    5.10    8.70
   0  -7  -4    8.70    7.90
   0   7   4    8.30    7.40
   0   7   4   -0.60    7.10
   0   7   4    4.30    7.30
   0   7   4   -1.30   11.70
   0   7   4   -0.90    6.00
   0   7   4   10.60    6.30
  -1  -7  -4    0.40    5.70
  -1  -7  -4   -4.90    8.80
  -1  -7  -4    3.10    1.90
  -1  -7  -4   -4.00    8.10
  -1  -7  -4    5.80    7.40
   1   7   4   -2.40   10.70
   1   7   4    2.60    7.50
   1   7   4   -1.00    6.10
  -2  -7  -4   11.40   10.80
  -2  -7  -4   12.40    8.20
   2   7   4    4.50    8.70
   2   7   4   43.50   12.50
   2   7   4   13.00    6.60
  -7   8   4   92.69   24.50
   6  -8  -4   11.40    7.70
   6  -8  -4   31.80   12.50
   6  -8  -4   31.40    8.80
   6  -8  -4   15.30    8.20
  -6   8   4   22.10    7.70
  -6   8   4   49.50   20.40
  -6   8   4   25.30    9.20
   5  -8  -4    9.30    8.40
   5  -8  -4   -5.30    9.80
   5  -8  -4    6.90    6.90
   5  -8  -4    1.00    9.50
  -5   8   4    3.70    7.00
  -5   8   4    4.70    8.10
  -5   8   4    1.70   15.60
   4  -8  -4   38.50    9.90
   4  -8  -4   30.10    7.20
   4  -8  -4   41.10    7.30
   4  -8  -4   33.40    6.30
   4  -8  -4   37.40    9.70
  -4   8   4   53.29   14.70
  -4   8   4   36.30    7.50
  -4   8   4   30.90    8.00
   3  -8  -4   75.69    7.70
   3  -8  -4   62.49    7.80
   3  -8  -4   60.49   10.20
   3  -8  -4   57.49    9.60
  -3   8   4   53.69    7.60
  -3   8   4   64.89    8.10
  -3   8   4   61.79   13.10
   2  -8  -4   31.40    8.00
   2  -8  -4   34.20    6.70
   2  -8  -4   11.10    4.10
   2  -8  -4   36.00    9.70
   2  -8  -4   27.40    9.70
  -2   8   4   26.20    6.80
  -2   8   4   53.59   13.20
  -2   8   4   22.10    8.30
   1  -8  -4   14.30    8.00
   1  -8  -4   16.20    6.90
   1  -8  -4   12.80    9.50
   1  -8  -4    9.80    5.70
  -1   8   4   21.00    6.40
  -1   8   4    7.40    7.50
  -1   8   4   18.50    6.30
  -1   8   4   27.90    8.50
   0  -8  -4   12.80    7.30
   0  -8  -4   18.10    8.70
   0  -8  -4   12.50    9.10
   0   8   4   25.70    8.50
   0   8   4   14.60    6.10
   0   8   4   18.80    8.90
  -1  -8  -4    2.10    9.50
  -1  -8  -4    7.30    8.00
  -1  -8  -4   -5.40    8.90
   1   8   4   20.50    8.40
   1   8   4    4.20    8.80
   1   8   4  -11.00   12.50
   5  -9  -4    2.00    6.80
   5  -9  -4   21.30    8.70
   5  -9  -4   -0.50    9.60
   5  -9  -4    8.90   11.30
  -5   9   4    6.80    7.40
  -5   9   4   13.20    8.80
  -5   9   4   54.39   21.40
   4  -9  -4   10.50    6.90
   4  -9  -4    6.70    8.90
   4  -9  -4   11.40    6.50
  -4   9   4   30.50   16.30
  -4   9   4   10.20    7.60
  -4   9   4   -2.50    7.70
   3  -9  -4   61.59    8.30
   3  -9  -4   53.59   10.90
   3  -9  -4   40.10   12.00
   3  -9  -4   41.90    7.70
  -3   9   4   63.79   15.40
  -3   9   4   55.69    8.30
  -3   9   4   52.79    8.10
   2  -9  -4   22.00    8.00
   2  -9  -4    2.40    2.10
   2  -9  -4    1.80   15.00
  -2   9   4    3.70   10.10
  -2   9   4   19.00    8.80
  -2   9   4    3.60   11.60
  -2   9   4  -12.80    7.30
   1  -9  -4    5.90    8.90
   1  -9  -4    8.20    8.50
  -1   9   4   13.00    8.90
  -1   9   4    4.80   11.40
  -1   9   4   25.20   10.00
  -1   9   4   19.20    9.00
   2  11  -5   33.30   14.90
   2  11  -5  -34.60   13.20
   2  11  -5    2.80   11.90
   2  11  -5   13.30   10.50
   2  11  -5   25.00   12.20
   2  11  -5    1.90   10.60
   2  11  -5    7.10    7.10
   1  11  -5   11.10    6.00
   1  11  -5   -1.00   11.50
   1  11  -5   -9.10   13.20
   1  11  -5   -1.00    9.70
   1  11  -5   15.00    9.10
   1  11  -5    6.60    9.30
   1  11  -5  -21.00   13.30
   0  11  -5   26.30   12.10
   0  11  -5   24.20    8.90
   0  11  -5   20.30    7.80
   0  11  -5   22.60    8.00
   0  11  -5  -12.00   15.60
   0  11  -5   49.00   10.40
   0 -11   5   31.80   12.20
   0 -11   5   30.10    9.50
  -1  11  -5   13.40    9.40
  -1  11  -5   15.70    8.90
  -1  11  -5   12.50    9.90
  -1  11  -5   -3.20   10.80
  -1  11  -5    0.80    9.10
   1 -11   5    2.80    9.10
   1 -11   5   13.80    8.80
  -2  11  -5   55.89    9.60
  -2  11  -5   42.60   10.40
  -2  11  -5   32.40    6.70
  -2  11  -5   47.50   11.30
  -2  11  -5   31.40   12.90
   2 -11   5   35.60   13.10
   2 -11   5   62.99    8.40
   2 -11   5   52.69   10.60
  -3  11  -5   82.29   14.20
   3  10  -5   16.80   12.60
   3  10  -5   23.20    7.40
   3  10  -5   28.80    9.50
   3  10  -5   11.60   23.00
   3  10  -5   27.60   11.10
   3  10  -5    7.90   10.10
   3  10  -5  -22.70   12.40
   3  10  -5   11.20   11.30
   2  10  -5   15.80   12.70
   2  10  -5   70.69   11.20
   2  10  -5   31.50    8.30
   2  10  -5   21.90   17.40
   2  10  -5   38.80   14.50
   2  10  -5   37.20   16.00
   2  10  -5   57.39   10.00
   1  10  -5    1.80   11.30
   1  10  -5    4.10    6.80
   1  10  -5   23.80    9.10
   1  10  -5    5.30    7.50
   1  10  -5   -2.70   13.30
   1  10  -5   13.00    9.80
   1  10  -5   32.60    9.40
  -1 -10   5   14.40   11.10
  -1 -10   5   16.70    8.50
   0  10  -5   41.50    7.50
   0  10  -5   54.09    9.30
   0  10  -5   42.80   12.20
   0  10  -5   36.90   15.80
   0  10  -5   18.40   14.10
   0  10  -5   27.80   10.60
   0 -10   5   47.00   12.00
   0 -10   5   46.30    8.80
  -1  10  -5  164.08   14.50
  -1  10  -5  174.68    9.30
  -1  10  -5  148.89   14.00
  -1  10  -5  153.18   17.00
  -1  10  -5  158.68   13.50
   1 -10   5  174.28   13.40
   1 -10   5  180.58   18.20
   1 -10   5  149.49   14.40
   1 -10   5  162.98    9.40
  -2  10  -5   39.70   11.20
  -2  10  -5   41.10    7.80
  -2  10  -5   43.20    9.80
  -2  10  -5   56.19   14.90
   2 -10   5   51.39   12.40
   2 -10   5   26.20    6.10
   2 -10   5   25.00    9.70
   2 -10   5   51.09    9.60
  -3  10  -5   -1.00   10.60
  -3  10  -5    9.10    7.20
  -3  10  -5   -5.40    7.80
   3 -10   5   16.20    8.40
   3 -10   5    3.30    6.20
   3 -10   5   -1.90    9.20
   3 -10   5   -6.50    9.70
   3 -10   5   20.50   11.20
  -4  10  -5   -0.70   17.70
  -4  10  -5    9.40    9.30
  -4  10  -5   11.30    8.00
   4 -10   5   -6.70   10.40
   4 -10   5   20.70   14.00
   4 -10   5   -5.10    8.90
   4 -10   5   -2.90    6.90
   4 -10   5    1.60   10.90
   5   9  -5   45.80   13.00
   5   9  -5   41.80   13.00
   5   9  -5   54.09   13.30
   5   9  -5   76.19   15.30
   4   9  -5  236.18   23.60
   4   9  -5  267.37   13.50
   4   9  -5  374.66   18.90
   4   9  -5  338.17   16.80
   4   9  -5  349.27   18.30
   4   9  -5  213.98   22.10
   4   9  -5  281.37   22.20
   3   9  -5    6.90   13.00
   3   9  -5    2.00   10.00
   3   9  -5   14.60    8.60
   3   9  -5    4.30    9.70
   3   9  -5   -5.30    9.40
   3   9  -5   30.20    9.40
   3   9  -5   11.00    6.70
   3   9  -5  -12.70   11.50
   2   9  -5   16.00    8.30
   2   9  -5   14.00    9.00
   2   9  -5   22.20   11.80
   2   9  -5   15.20    5.40
   2   9  -5   19.10   12.50
   2   9  -5   18.60    7.80
   2   9  -5   33.30    9.00
  -2  -9   5   24.30   10.90
   1   9  -5  133.19   13.10
   1   9  -5  115.29   12.10
   1   9  -5  108.89   14.50
   1   9  -5  109.49   15.30
   1   9  -5   94.19    9.70
  -1  -9   5  103.49   10.00
  -1  -9   5  121.89   16.50
   0  -9   5   55.19    8.90
   0  -9   5   41.90    8.50
   0  -9   5   50.19   11.30
  -1   9  -5    4.10    6.70
  -1   9  -5    7.10    6.10
   1  -9   5    5.50    8.80
   1  -9   5   -0.40    5.60
   1  -9   5   -5.30    4.70
   1  -9   5    0.00    9.50
   1  -9   5    7.50    7.80
  -2   9  -5  394.56   13.10
  -2   9  -5  368.26   13.80
   2  -9   5  331.37   19.90
   2  -9   5  357.96   12.00
   2  -9   5  352.66   15.40
   2  -9   5  352.26   16.80
  -3   9  -5   19.80    8.40
  -3   9  -5    9.30    7.40
   3  -9   5    3.00    6.20
   3  -9   5   -1.30   10.30
   3  -9   5   23.50    7.50
   3  -9   5    0.40    9.30
  -4   9  -5    1.20    7.70
  -4   9  -5  -13.30   20.40
  -4   9  -5   17.90   10.70
   4  -9   5   13.60   10.90
   4  -9   5    4.90    7.50
   4  -9   5    0.80    8.20
  -5   9  -5    8.70   10.40
  -5   9  -5  -11.00   17.50
  -5   9  -5    9.90   10.60
   5  -9   5   15.80   14.20
   5  -9   5    3.70    7.90
   5   8  -5    4.70   10.10
   5   8  -5   14.70    8.00
   5   8  -5  -13.60    6.70
   5   8  -5   -5.60    9.20
   5   8  -5   -5.80    9.80
  -5  -8   5   -7.00    9.50
  -5  -8   5    5.00   10.20
   4   8  -5  227.48   12.30
   4   8  -5  241.68   15.00
   4   8  -5  228.48   13.50
   4   8  -5  222.58   17.30
   4   8  -5  244.08   15.50
  -4  -8   5  255.37   17.00
   3   8  -5  112.49   14.00
   3   8  -5  100.39   12.30
   3   8  -5   87.29   13.80
   3   8  -5  105.79   10.00
   3   8  -5  115.89   13.30
  -3  -8   5  112.79   13.70
   2   8  -5    0.00    6.60
   2   8  -5    8.30   11.10
   2   8  -5   11.50   11.10
   2   8  -5   -0.10    7.30
  -2  -8   5    3.60    9.70
  -2  -8   5    0.50    9.70
   1   8  -5  291.57   12.80
   1   8  -5  217.88   15.60
  -1  -8   5  253.97   16.40
  -1  -8   5  273.57   27.60
   0   8  -5  239.88   13.80
   0   8  -5  230.48   12.50
   0   8  -5  243.48    9.00
   0   8  -5  260.47   11.50
   0  -8   5  251.27    9.00
   0  -8   5  254.47   15.50
   0  -8   5  246.38   16.30
   0  -8   5  253.97   17.40
   0  -8   5  264.77   12.40
   0  -8   5  243.18    8.50
  -1   8  -5   14.90    6.20
  -1   8  -5    3.40    5.70
  -1   8  -5    3.40    7.30
  -1   8  -5    3.90    9.50
   1  -8   5    5.90    7.20
   1  -8   5    2.60    9.00
   1  -8   5    5.20    5.50
   1  -8   5   14.70    9.30
   1  -8   5    3.00    8.00
   1  -8   5   11.20    5.10
  -2   8  -5   13.90    7.40
  -2   8  -5   25.50    6.80
  -2   8  -5   19.50    9.50
  -2   8  -5   35.70    7.50
   2  -8   5   39.40    6.50
   2  -8   5   24.50   10.20
   2  -8   5   38.80    6.80
   2  -8   5   43.70    8.20
  -3   8  -5  325.37   14.40
  -3   8  -5  285.07   18.30
  -3   8  -5  284.47   12.90
   3  -8   5  278.87   12.40
   3  -8   5  286.17   19.50
  -4   8  -5   34.10   13.00
  -4   8  -5   33.40    8.50
  -4   8  -5   44.40   12.50
   4  -8   5   41.70    8.20
   4  -8   5   42.50   11.60
   4  -8   5   36.00    8.30
  -5   8  -5   58.79   10.70
  -5   8  -5    4.20   14.60
  -5   8  -5   52.89    9.00
   5  -8   5   39.60    9.20
   5  -8   5   39.20   12.10
   5  -8   5   46.50    8.80
   6   7  -5   -0.40   10.40
   6   7  -5   -6.40    9.10
   6   7  -5    5.50    8.20
  -6  -7   5   12.50   10.60
  -6  -7   5    2.30    9.30
   5   7  -5   55.99   11.20
   5   7  -5   59.29    9.90
   5   7  -5   78.19   10.50
   5   7  -5   38.80    7.50
  -5  -7   5   60.59   10.70
  -5  -7   5   63.49   10.90
  -5  -7   5   36.30    9.50
   4   7  -5   20.90    8.10
   4   7  -5   -1.40    3.90
   4   7  -5   -0.20    8.50
  -4  -7   5    6.30    9.10
  -4  -7   5   11.60    8.40
  -4  -7   5   15.10   10.60
   3   7  -5  750.02   18.90
   3   7  -5  735.83   20.40
   3   7  -5  709.63   19.40
   3   7  -5  740.03   24.20
  -3  -7   5  716.03   21.80
  -3  -7   5  759.42   23.00
   2   7  -5   60.79    7.80
   2   7  -5   45.50    7.60
   2   7  -5   45.80   10.60
   2   7  -5   40.70    7.50
   2   7  -5   48.80    6.50
   2   7  -5   36.90    6.90
  -2  -7   5   46.70    9.70
  -2  -7   5   47.40    7.30
  -2  -7   5   45.80   10.10
   1   7  -5   61.29   11.50
   1   7  -5   70.29    7.30
   1   7  -5   71.99    5.70
   1   7  -5   50.39    7.90
   1   7  -5   59.19    9.10
   1   7  -5   61.69    5.20
  -1  -7   5   60.39    7.70
  -1  -7   5   73.79   11.40
  -1  -7   5   62.49    5.90
  -1  -7   5   68.09   10.20
  -1  -7   5   67.89    6.30
   0   7  -5   42.10    8.70
   0   7  -5   48.30   14.60
   0   7  -5   50.29    5.60
   0   7  -5   40.00    9.70
   0  -7   5   43.90    9.30
   0  -7   5   53.59    8.10
   0  -7   5   68.99    5.90
   0  -7   5   58.89    5.60
   0  -7   5   51.39   10.50
   0  -7   5   50.39    6.60
  -1   7  -5   81.69   11.70
  -1   7  -5   90.19    7.10
  -1   7  -5  113.49    7.80
   1  -7   5   90.09   13.30
   1  -7   5   88.59    9.90
   1  -7   5  112.59   10.90
   1  -7   5  114.29   12.80
  -2   7  -5  490.05   15.00
  -2   7  -5  479.05   19.60
  -2   7  -5  477.35   17.30
  -2   7  -5  472.25   15.00
   2  -7   5  472.15   20.50
   2  -7   5  472.05   13.80
   2  -7   5  462.95   13.80
   2  -7   5  496.15   19.00
  -3   7  -5   21.50   10.70
  -3   7  -5   32.40    7.90
  -3   7  -5   27.50    7.20
   3  -7   5   14.70    6.60
   3  -7   5   23.80   10.10
   3  -7   5   16.00    6.50
  -4   7  -5    3.60    7.60
  -4   7  -5    1.40    7.90
  -4   7  -5  -19.60   11.00
   4  -7   5   -7.30    7.00
   4  -7   5    0.40    9.80
  -5   7  -5   17.10    9.10
  -5   7  -5    7.20    9.40
   5  -7   5   15.20    8.50
   5  -7   5   10.50   11.00
   5  -7   5   -5.30    8.00
  -6   7  -5  -29.00   20.50
  -6   7  -5    7.50   10.10
   6  -7   5   -3.40    9.10
   6  -7   5   18.10   12.10
   7   6  -5   15.20    6.20
   7   6  -5   12.90    9.20
   7   6  -5    0.10    7.30
   7   6  -5    8.70    6.30
  -7  -6   5   19.70   10.00
  -7  -6   5   19.50   19.90
  -7  -6   5   20.10   10.00
   6   6  -5   14.40    7.50
   6   6  -5   12.80    8.10
   6   6  -5    0.20    7.30
   6   6  -5   -0.60    5.40
  -6  -6   5   -2.20    5.10
  -6  -6   5   14.50    9.20
  -6  -6   5    3.90    9.20
  -6  -6   5   11.70    9.80
   5   6  -5   34.30    8.00
   5   6  -5   35.40    5.30
  -5  -6   5   38.10    9.80
  -5  -6   5   37.40   10.30
  -5  -6   5   45.10    9.70
   4   6  -5  472.05   15.00
   4   6  -5  410.26   14.00
   4   6  -5  439.16   15.10
   4   6  -5  457.35   11.20
  -4  -6   5  442.96   17.80
  -4  -6   5  449.06   17.60
  -4  -6   5  421.26   18.00
   3   6  -5   85.29    7.90
   3   6  -5   88.49    9.50
   3   6  -5   86.19    9.20
  -3  -6   5   94.19   11.20
  -3  -6   5   79.19    9.60
  -3  -6   5   69.69    8.90
  -3  -6   5   84.49    9.80
   2   6  -5   26.30    4.40
   2   6  -5   18.50    7.20
   2   6  -5   17.50    7.60
   2   6  -5   30.60   10.30
   2   6  -5   20.30    6.20
   2   6  -5   21.50    4.30
  -2  -6   5   32.80    6.10
  -2  -6   5   20.80    7.90
  -2  -6   5   22.40    7.30
  -2  -6   5   22.10    8.00
  -2  -6   5   28.60    4.00
  -2  -6   5   28.10    4.20
   1   6  -5   92.69    6.90
   1   6  -5   93.99    9.40
   1   6  -5   92.09   11.80
   1   6  -5  109.69    7.50
   1   6  -5  109.89    8.10
   1   6  -5  109.79   10.00
  -1  -6   5  102.89    6.50
  -1  -6   5  108.99    9.40
  -1  -6   5  108.69   11.60
  -1  -6   5   91.99   12.50
  -1  -6   5  102.09    6.60
   0   6  -5  240.38   14.10
   0   6  -5  229.28    9.10
   0   6  -5  218.98   11.40
   0   6  -5  227.28   11.50
   0  -6   5  232.18    8.70
   0  -6   5  227.38    8.50
   0  -6   5  224.08   14.70
   0  -6   5  226.08   13.40
  -1   6  -5   92.19   10.60
  -1   6  -5   95.89    8.70
  -1   6  -5   83.59    9.70
  -1   6  -5   87.69    6.90
   1  -6   5   84.99   10.70
   1  -6   5   86.29    7.60
   1  -6   5   87.99    6.80
   1  -6   5   84.49   11.70
  -2   6  -5   85.29   10.70
  -2   6  -5   83.49    7.50
  -2   6  -5   80.29    7.80
   2  -6   5   72.29   10.50
   2  -6   5   86.59    7.40
   2  -6   5   99.69   11.30
   2  -6   5   92.69    7.50
  -3   6  -5   41.50    7.90
  -3   6  -5   41.10   10.70
  -3   6  -5   34.00    7.50
   3  -6   5   34.20   10.80
   3  -6   5   45.30    9.90
   3  -6   5   45.50    7.80
  -4   6  -5    4.50    7.90
  -4   6  -5    6.00    7.60
   4  -6   5    0.20    7.30
   4  -6   5   -2.20    9.60
  -5   6  -5  -15.60    8.00
  -5   6  -5    2.80    8.70
   5  -6   5    5.20    8.00
   5  -6   5    1.70   10.40
   5  -6   5    2.10    8.00
  -6   6  -5   11.30    9.10
   6  -6   5    4.50    8.70
   6  -6   5    6.40   11.40
   6  -6   5   40.60   10.60
   7   5  -5   17.00    8.00
   7   5  -5    8.80    6.10
   7   5  -5    7.20    7.80
   7   5  -5    7.70    6.90
  -7  -5   5   23.00    9.40
  -7  -5   5   -0.90    4.50
  -7  -5   5   15.40   10.10
  -7  -5   5   11.30    9.80
   6   5  -5   75.59    7.00
   6   5  -5   89.49    8.40
  -6  -5   5   70.49   11.30
  -6  -5   5   67.49    6.50
  -6  -5   5   85.29   12.70
  -6  -5   5   77.89    6.80
  -6  -5   5   79.89   10.40
   5   5  -5  141.29   10.80
   5   5  -5  161.28   10.60
   5   5  -5  157.28    9.00
   5   5  -5  149.39    8.70
   5   5  -5  162.28   10.20
  -5  -5   5  159.98   14.20
  -5  -5   5  161.18   13.20
  -5  -5   5  147.99   14.10
  -5  -5   5  161.48    8.40
   4   5  -5  309.37   11.40
   4   5  -5  301.57    9.60
   4   5  -5  286.97    9.60
  -4  -5   5  294.57   13.70
  -4  -5   5  292.77    9.20
  -4  -5   5  294.87   14.60
  -4  -5   5  285.47    9.00
  -4  -5   5  287.17   14.70
  -4  -5   5  292.97   14.80
   3   5  -5   20.10    7.20
   3   5  -5   22.70    5.40
   3   5  -5   14.20    4.50
   3   5  -5   15.00    5.40
   3   5  -5   11.20    4.20
  -3  -5   5   16.90    7.80
  -3  -5   5   22.20    6.90
  -3  -5   5   13.70    6.80
  -3  -5   5   18.10    4.10
  -3  -5   5   23.10    7.50
   2   5  -5  727.33   18.90
   2   5  -5  715.03   14.90
   2   5  -5  726.03   19.10
   2   5  -5  716.33   14.90
  -2  -5   5  743.83   14.90
  -2  -5   5  717.93   14.60
  -2  -5   5  756.72   16.30
  -2  -5   5  765.22   20.30
  -2  -5   5  738.23   19.00
  -2  -5   5  717.33   20.30
   1   5  -5    9.40    4.40
   1   5  -5    9.50    5.00
   1   5  -5   10.80    6.50
   1   5  -5   14.20    4.70
  -1  -5   5    7.30    4.20
  -1  -5   5   13.50    7.20
  -1  -5   5    8.20    4.10
  -1  -5   5    5.80    5.10
  -1  -5   5   12.90    7.90
   0   5  -5    8.00    8.30
   0   5  -5    6.70    4.60
   0   5  -5    2.60    5.30
   0   5  -5    5.60    5.70
   0  -5   5    4.40    4.40
   0  -5   5    5.90    6.90
   0  -5   5   -0.50    6.90
   0  -5   5    8.10    4.40
  -1   5  -5   56.69    6.90
  -1   5  -5   64.09    9.60
  -1   5  -5   73.59    6.60
  -1   5  -5   60.89    6.40
   1  -5   5   74.89    6.60
   1  -5   5   68.69    5.90
   1  -5   5   67.29    9.80
   1  -5   5   63.59    8.80
  -2   5  -5   21.70    6.00
  -2   5  -5   30.70    6.70
   2  -5   5   18.60    8.30
   2  -5   5   22.40    6.00
   2  -5   5   13.30    9.40
  -3   5  -5   41.00    8.10
  -3   5  -5   41.00    7.70
   3  -5   5   35.20   11.00
   3  -5   5   38.70    7.30
   3  -5   5   40.60    9.30
   3  -5   5   54.59    8.00
  -4   5  -5  -14.20    7.20
  -4   5  -5   17.40    8.00
   4  -5   5   -1.70   11.00
   4  -5   5    9.10    7.20
   4  -5   5    4.40    7.40
  -5   5  -5   31.60    9.00
  -5   5  -5   30.60    8.70
   5  -5   5   30.60   11.10
   5  -5   5   22.00    8.50
   5  -5   5   34.60    9.00
  -6   5  -5   11.30   12.10
  -6   5  -5    3.00    9.10
   6  -5   5    7.70   10.40
   6  -5   5    4.60    9.30
   6  -5   5  -14.60   10.80
   8   4  -5   20.70    8.50
   8   4  -5    2.70    7.80
   8   4  -5   12.40    7.20
  -8  -4   5   11.80    7.00
  -8  -4   5   10.50    8.20
  -8  -4   5  -11.30   12.60
  -8  -4   5    8.60   11.30
  -8  -4   5   23.20    8.20
   7   4  -5   50.49    7.90
   7   4  -5   53.59    7.10
  -7  -4   5   42.70    6.80
  -7  -4   5   61.09    9.60
  -7  -4   5   48.10   11.80
  -7  -4   5   60.39   12.80
   6   4  -5   25.80    6.70
   6   4  -5   35.30    7.30
   6   4  -5   25.40    6.60
   6   4  -5   35.00    7.20
  -6  -4   5   28.30    5.80
  -6  -4   5   48.50   10.70
  -6  -4   5   39.00   10.60
  -6  -4   5   38.10    9.20
   5   4  -5   11.00    5.50
   5   4  -5   18.50    5.60
   5   4  -5    9.80    5.60
  -5  -4   5   12.00    5.40
  -5  -4   5   14.90   15.50
  -5  -4   5   13.30    8.70
   4   4  -5   -2.50    5.00
   4   4  -5    0.40    4.60
  -4  -4   5   -3.60    7.70
  -4  -4   5    0.40    4.20
  -4  -4   5    4.00    4.50
  -4  -4   5   -8.40    7.60
  -4  -4   5    3.70    6.50
   3   4  -5  223.08   11.90
   3   4  -5  238.08    8.40
   3   4  -5  223.08    8.10
  -3  -4   5  238.58    8.60
  -3  -4   5  240.48   11.80
  -3  -4   5  234.38   12.80
  -3  -4   5  217.68   11.70
  -3  -4   5  235.38   11.80
  -3  -4   5  233.68    7.80
   2   4  -5   49.10    5.80
   2   4  -5   43.20    6.40
   2   4  -5   49.80    5.00
   2   4  -5   48.30    7.20
  -2  -4   5   39.70    4.50
  -2  -4   5   44.50    4.80
  -2  -4   5   45.90    6.60
  -2  -4   5   48.50    7.60
  -2  -4   5   41.20    8.30
  -2  -4   5   43.70    7.00
   1   4  -5  860.21   19.70
   1   4  -5  885.41   17.50
   1   4  -5  863.21   17.40
   1   4  -5  874.01   19.80
  -1  -4   5  859.31   17.20
  -1  -4   5  862.41   22.20
  -1  -4   5  847.52   21.60
  -1  -4   5  893.61   17.50
  -1  -4   5  880.61   19.70
   0   4  -5   82.69    8.40
   0   4  -5   73.89    7.80
   0   4  -5   77.09    6.10
   0  -4   5   79.59   10.20
   0  -4   5   93.49   10.10
   0  -4   5   77.49    6.80
   0  -4   5   78.79    5.90
  -1   4  -5    1.00    5.20
  -1   4  -5    3.10    5.00
  -1   4  -5    2.40    5.20
   1  -4   5    1.60    6.40
   1  -4   5    1.70    4.80
   1  -4   5   -2.10    4.50
  -2   4  -5   86.39    7.20
  -2   4  -5   75.69    7.10
   2  -4   5   80.09    7.20
   2  -4   5   96.59    8.40
   2  -4   5   80.59   10.30
  -3   4  -5  114.89   10.70
  -3   4  -5  126.39   11.30
   3  -4   5   99.39   11.50
   3  -4   5  102.79    8.60
   3  -4   5  107.89    8.90
  -4   4  -5   26.80    7.90
  -4   4  -5   27.70    8.20
   4  -4   5   31.30    8.40
   4  -4   5   31.00   10.90
   4  -4   5   40.50    8.00
  -5   4  -5   35.30    9.20
  -5   4  -5   28.00    9.30
   5  -4   5   34.00    8.90
   5  -4   5    3.40   11.90
   5  -4   5   57.49    9.40
  -6   4  -5    4.30    8.70
  -6   4  -5    8.60   10.50
   6  -4   5   11.80    8.90
   6  -4   5  -15.00   12.30
   6  -4   5   12.00   15.10
   8   3  -5   -4.30   12.50
   8   3  -5   -9.40    7.00
   8   3  -5  -10.90    7.70
  -8  -3   5    2.30    7.60
  -8  -3   5  -14.60   12.00
  -8  -3   5   10.90   11.00
  -8  -3   5    3.50    6.80
   7   3  -5    0.40    6.60
   7   3  -5   -2.90    6.80
   7   3  -5   -5.10    6.30
  -7  -3   5    3.80   11.10
  -7  -3   5    3.80    6.20
  -7  -3   5    9.30   10.20
  -7  -3   5   11.00    8.60
   6   3  -5  200.08   10.30
   6   3  -5  180.68   10.50
   6   3  -5  158.48   10.60
  -6  -3   5  178.18   15.30
  -6  -3   5  196.48    9.90
  -6  -3   5  185.08   14.10
  -6  -3   5  179.48   16.20
  -6  -3   5  170.18   10.10
   5   3  -5  122.29    8.80
   5   3  -5  128.29    8.50
   5   3  -5  124.89    8.30
  -5  -3   5  132.09    9.20
  -5  -3   5  125.99   12.60
  -5  -3   5  145.49   13.30
  -5  -3   5  117.39    8.70
  -5  -3   5  166.68   13.90
   4   3  -5   71.59    6.90
   4   3  -5   75.79    7.20
   4   3  -5   78.19    5.80
  -4  -3   5   80.89    8.90
  -4  -3   5   91.89    9.90
  -4  -3   5   75.99    8.10
  -4  -3   5   77.09    6.00
  -4  -3   5   67.19    5.50
   3   3  -5   24.10    4.80
   3   3  -5   18.50    4.50
  -3  -3   5   24.10    4.80
  -3  -3   5   20.20    6.60
  -3  -3   5   25.60    7.40
  -3  -3   5   12.50    6.00
  -3  -3   5   21.70    4.30
  -3  -3   5   21.90    6.00
   2   3  -5 2363.66   43.10
   2   3  -5 2390.36   41.10
   2   3  -5 2396.16   41.20
  -2  -3   5 2374.96   45.20
  -2  -3   5 2483.15   43.50
  -2  -3   5 2449.95   43.30
  -2  -3   5 2391.86   41.10
   1   3  -5  447.56   11.50
   1   3  -5  464.15   13.10
   1   3  -5  455.25   11.70
   1   3  -5  445.76   12.50
  -1  -3   5  474.85   17.00
  -1  -3   5  459.45   15.30
  -1  -3   5  450.75   12.80
  -1  -3   5  441.66   11.30
   0   3  -5  865.71   18.40
   0   3  -5  869.61   17.90
   0   3  -5  859.91   18.50
   0  -3   5  844.02   17.60
   0  -3   5  857.01   21.00
   0  -3   5  883.91   18.00
  -1   3  -5   18.60    5.00
  -1   3  -5    8.60    5.30
  -1   3  -5   13.90    5.50
   1  -3   5   15.30    5.20
   1  -3   5   17.00    5.40
   1  -3   5   15.40    7.20
  -2   3  -5  126.09    8.60
  -2   3  -5  119.89    9.30
  -2   3  -5  125.89    9.60
   2  -3   5  123.79   10.40
   2  -3   5  124.19    8.80
   2  -3   5  130.69    9.20
  -3   3  -5   20.60    7.70
  -3   3  -5   23.00   13.40
   3  -3   5    6.20    7.20
   3  -3   5   18.50    7.10
   3  -3   5   19.70    8.50
  -4   3  -5   68.79   15.80
  -4   3  -5   67.89    8.80
   4  -3   5   60.09    8.30
   4  -3   5   57.39    8.90
  -5   3  -5    8.40    8.50
  -5   3  -5    8.60    8.00
   5  -3   5    1.70    8.10
   5  -3   5   -3.60    8.30
  -6   3  -5   58.19   10.20
  -6   3  -5   47.80    9.90
  -6   3  -5   70.99   11.20
   6  -3   5   68.39   11.40
   6  -3   5   19.50   13.80
   6  -3   5   53.89   10.50
   8   2  -5  117.69   10.90
   8   2  -5  140.79   13.20
   8   2  -5  136.39   11.50
  -8  -2   5  127.79   12.00
  -8  -2   5  128.99   15.90
  -8  -2   5  135.69   12.90
  -8  -2   5  172.58   16.00
   7   2  -5   25.80    7.10
   7   2  -5   -0.80    6.50
   7   2  -5   -5.80    6.80
  -7  -2   5    3.70    6.70
  -7  -2   5   13.20    9.10
  -7  -2   5    6.80    9.90
   6   2  -5   91.59    8.70
   6   2  -5   98.89    8.00
   6   2  -5   91.29    8.50
  -6  -2   5   96.89    8.80
  -6  -2   5  103.29    9.70
  -6  -2   5   88.79   10.80
  -6  -2   5  126.39   13.20
   5   2  -5    2.40    5.10
   5   2  -5   -7.70    4.40
   5   2  -5    0.40    5.10
  -5  -2   5    4.60    4.70
  -5  -2   5    3.00    7.70
  -5  -2   5   -3.90    5.50
   4   2  -5  478.15   11.70
   4   2  -5  485.25   12.30
   4   2  -5  494.75   12.50
  -4  -2   5  488.25   12.50
  -4  -2   5  469.55   15.30
  -4  -2   5  473.05   12.10
   3   2  -5  599.84   13.80
   3   2  -5  625.24   13.60
  -3  -2   5  597.64   13.70
  -3  -2   5  581.74   13.50
  -3  -2   5  592.24   15.80
  -3  -2   5  611.64   16.40
   2   2  -5  684.63   16.20
   2   2  -5  687.13   14.80
   2   2  -5  697.63   15.00
  -2  -2   5  672.23   15.20
  -2  -2   5  692.13   16.60
  -2  -2   5  705.53   16.10
  -2  -2   5  664.33   14.60
   1   2  -5    1.90    4.60
   1   2  -5    2.70    5.20
   1   2  -5    3.50    5.00
  -1  -2   5    1.60    4.70
  -1  -2   5    7.10    4.40
  -1  -2   5   -5.20    4.90
   0   2  -5   -4.00    4.60
   0   2  -5   -9.40    4.60
   0   2  -5   -6.40    3.90
   0  -2   5   -9.30    4.60
   0  -2   5    5.40    4.90
  -1   2  -5 1379.36   26.40
  -1   2  -5 1389.76   26.50
   1  -2   5 1363.26   28.30
   1  -2   5 1407.46   26.50
   1  -2   5 1359.96   26.20
  -2   2  -5   24.00    5.90
  -2   2  -5   25.00    6.40
   2  -2   5   23.20    7.20
   2  -2   5   23.40    6.30
   2  -2   5   17.40    5.50
  -3   2  -5  374.86   14.10
  -3   2  -5  368.16   13.50
   3  -2   5  352.56   13.40
   3  -2   5  406.06   13.90
   3  -2   5  377.46   13.70
  -4   2  -5   35.30    8.40
  -4   2  -5   24.50    7.80
   4  -2   5   44.60    8.60
   4  -2   5   43.00    6.10
   4  -2   5   48.90    8.80
  -5   2  -5   15.70    9.30
  -5   2  -5   36.80    9.00
   5  -2   5   36.70    9.50
   5  -2   5   11.00    8.60
   5  -2   5   37.00    7.20
  -6   2  -5  -15.90   10.60
  -6   2  -5   10.20    9.50
  -6   2  -5   11.10    9.30
   6  -2   5   10.40    3.40
   6  -2   5   14.80   10.40
   6  -2   5    7.80    9.40
   9   1  -5   21.50   13.00
   9   1  -5   10.30    4.90
   9   1  -5   66.79   10.90
  -9  -1   5   24.00   15.50
  -9  -1   5   42.70    9.30
   8   1  -5   46.40    9.30
   8   1  -5   54.09    8.20
   8   1  -5   48.30    8.30
  -8  -1   5   51.99    8.60
  -8  -1   5   49.70    9.10
  -8  -1   5   43.00   10.30
   7   1  -5   23.20    6.90
   7   1  -5   40.90    9.00
   7   1  -5   18.40    6.70
   6   1  -5  887.51   20.20
   6   1  -5  912.51   20.30
  -6  -1   5  881.41   20.00
  -6  -1   5  886.71   20.10
   5   1  -5   12.80    5.20
   5   1  -5    8.40    5.20
   5   1  -5   11.30    4.20
  -5  -1   5    3.30    5.00
  -5  -1   5    9.30    5.70
   4   1  -5  469.85   12.40
   4   1  -5  472.15   12.40
   4   1  -5  478.45   10.90
  -4  -1   5  470.05   12.10
  -4  -1   5  476.75   12.50
  -4  -1   5  465.45   15.00
   3   1  -5   20.90    4.70
   3   1  -5   23.00    4.90
  -3  -1   5   18.00    4.50
  -3  -1   5   26.40    6.30
  -3  -1   5   18.00    4.90
   2   1  -5  148.39    7.90
   2   1  -5  139.09    7.70
  -2  -1   5  145.09    7.50
  -2  -1   5  149.29    8.30
  -2  -1   5  144.79    7.90
   1   1  -5  169.78    8.60
   1   1  -5  169.68    8.50
   1   1  -5  183.68    7.70
  -1  -1   5  172.78    8.40
  -1  -1   5  170.88    9.50
  -1  -1   5  168.08    8.10
   0   1  -5    3.50    5.10
   0   1  -5   -0.30    4.90
   0   1  -5    1.60    3.40
   0  -1   5    1.10    4.80
   0  -1   5    1.80    4.90
  -1   1  -5   16.00    5.40
  -1   1  -5    7.00    4.80
  -1   1  -5    9.80    4.70
   1  -1   5    5.80    5.00
   1  -1   5    5.70    5.60
  -2   1  -5  334.67   11.80
  -2   1  -5  332.77   12.20
   2  -1   5  354.76   12.00
   2  -1   5  338.97   12.00
  -3   1  -5   63.19    7.90
  -3   1  -5   42.20    7.20
   3  -1   5   59.39    8.10
   3  -1   5   43.10    7.60
   3  -1   5   64.29    8.60
   3  -1   5   61.79    6.70
  -4   1  -5   35.30    8.20
   4  -1   5   26.40    8.50
   4  -1   5   36.60    6.80
   4  -1   5   50.59    9.20
  -5   1  -5   42.60    9.70
  -5   1  -5   41.50    8.80
  -5   1  -5   35.60   11.40
   5  -1   5   50.19    8.50
   5  -1   5   28.70    9.40
  -6   1  -5  100.29   11.80
   6  -1   5  102.79   12.20
   9   0  -5    2.00    3.40
   9   0  -5    7.80   10.50
   9   0  -5   24.50   16.10
  -9   0   5    6.60    8.40
   8   0  -5    5.80    6.60
   8   0  -5   19.30    8.80
   8   0  -5   15.10    7.60
  -8   0   5   12.50    9.60
   7   0  -5  101.19    9.80
   7   0  -5   88.99    9.00
  -7   0   5   81.59    8.70
   6   0  -5  330.57   12.60
   6   0  -5  338.87   12.80
  -6   0   5  326.97   12.50
  -6   0   5  319.37   12.00
   5   0  -5   -1.90    5.20
   5   0  -5    1.40    4.90
   5   0  -5    5.70    3.50
  -5   0   5   -0.40    4.90
  -5   0   5    0.00    5.70
   4   0  -5   61.69    6.40
   4   0  -5   67.49    6.40
  -4   0   5   58.69    5.90
  -4   0   5   52.59    5.40
   3   0  -5   66.49    6.30
   3   0  -5   80.89    6.40
  -3   0   5   57.49    5.40
  -3   0   5   61.79    5.70
   2   0  -5    6.10    5.00
   2   0  -5    9.90    4.70
  -2   0   5    1.20    4.90
  -2   0   5   15.30    4.70
  -2   0   5    5.40    4.40
   1   0  -5  615.84   14.30
   1   0  -5  606.24   14.40
  -1   0   5  625.54   14.20
   0   0  -5    7.50    5.10
   0   0  -5   10.80    5.00
   0   0  -5   13.80    5.20
   0   0   5    7.20    4.70
   0   0   5    8.20    4.00
   0   0   5    7.30    4.60
  -1   0  -5   21.00    5.50
  -1   0  -5   24.50    5.60
   1   0   5   23.20    5.60
   1   0   5   28.50    5.70
  -2   0  -5   88.29    9.00
  -2   0  -5  105.49    8.30
   2   0   5   88.39    7.40
   2   0   5  103.09    9.60
  -3   0  -5   -4.00    5.50
  -3   0  -5   -8.20    6.80
   3   0   5    2.40    6.50
   3   0   5   -6.60    7.20
  -4   0  -5  -10.10    8.00
   4   0   5    1.00    7.30
   4   0   5   -2.00    7.10
  -5   0  -5   24.30   14.60
  -5   0  -5   15.10    9.50
   5   0   5   37.80   10.50
   5   0   5   29.20    9.10
   5   0   5   43.70   10.10
   9  -1  -5   -2.40    2.60
   9  -1  -5   13.70   10.10
  -9   1   5    3.70   11.10
  -9   1   5    0.70    8.80
   8  -1  -5   36.80    9.10
   8  -1  -5   40.60    8.80
   8  -1  -5   50.79    7.10
  -8   1   5   42.50    8.80
  -8   1   5   22.70    8.00
   7  -1  -5  194.48   12.10
   7  -1  -5  210.28   12.60
  -7   1   5  199.28   12.00
  -7   1   5  186.78   12.20
   6  -1  -5  219.48   11.30
   6  -1  -5  222.78   11.60
  -6   1   5  202.48   11.20
  -6   1   5  190.08   10.90
   5  -1  -5   20.70    5.90
   5  -1  -5   20.10    5.80
  -5   1   5   16.00    5.30
  -5   1   5   21.00    6.40
   4  -1  -5   51.99    5.50
   4  -1  -5   58.29    6.30
  -4   1   5   64.99    6.40
  -4   1   5   63.89    6.60
   3  -1  -5  185.78    8.80
   3  -1  -5  182.18    8.20
  -3   1   5  209.08    8.90
  -3   1   5  201.68    8.80
   2  -1  -5  300.97   10.10
   2  -1  -5  290.97   10.30
   2  -1  -5  294.07    9.70
  -2   1   5  296.57   10.10
  -2   1   5  292.27    9.90
   1  -1  -5   44.20    5.70
   1  -1  -5   43.10    5.80
  -1   1   5   44.40    5.40
   0  -1  -5  203.38    9.20
   0  -1  -5  201.48    9.90
   0  -1  -5  189.98    8.70
   0   1   5  192.18    9.00
   0   1   5  184.18    9.00
   0   1   5  187.48    8.50
  -1  -1  -5   75.49    6.90
  -1  -1  -5   72.59    7.30
   1   1   5   79.69    6.80
   1   1   5   78.09    6.80
   1   1   5   70.69    6.60
  -2  -1  -5    8.50    6.40
   2   1   5    1.00    6.20
   2   1   5    9.00    6.70
  -3  -1  -5   75.79    7.90
  -3  -1  -5   88.19    8.70
   3   1   5   85.79    8.70
   3   1   5   93.39    9.30
   3   1   5   80.49    8.50
  -4  -1  -5    4.20    8.90
  -4  -1  -5    1.00    8.40
  -4  -1  -5   13.30    8.50
   4   1   5    5.00    7.60
   4   1   5    8.20    8.10
   4   1   5   -1.10    8.50
  -5  -1  -5   -7.40    7.50
  -5  -1  -5    4.60    9.20
  -5  -1  -5    0.60    8.50
  -5  -1  -5   -3.30    8.40
   5   1   5    1.50    9.50
   5   1   5   -1.30    8.10
   5   1   5    0.10    5.70
   9  -2  -5    1.90   12.10
   9  -2  -5    1.60   10.30
  -9   2   5  -11.60   10.30
  -9   2   5    6.80    9.30
   8  -2  -5   32.00    8.30
   8  -2  -5   60.29    9.90
  -8   2   5   40.80    8.90
  -8   2   5   27.00    8.20
   7  -2  -5   19.40    8.00
   7  -2  -5   15.80    7.60
  -7   2   5   13.90    7.30
  -7   2   5    9.30    7.70
   6  -2  -5    9.80    6.70
   6  -2  -5   13.60    6.70
  -6   2   5    5.40    6.20
  -6   2   5   -3.60    6.20
   5  -2  -5    3.00    5.10
   5  -2  -5    4.00    5.60
  -5   2   5   -1.30    5.70
  -5   2   5   -1.20    5.60
   4  -2  -5    4.10    4.90
   4  -2  -5    2.30    5.00
  -4   2   5    2.90    5.70
  -4   2   5   -0.60    5.00
   3  -2  -5   31.70    6.00
   3  -2  -5   24.90    5.10
  -3   2   5   26.50    5.70
  -3   2   5   31.20    5.80
   2  -2  -5  419.06   12.00
   2  -2  -5  412.76   11.30
   2  -2  -5  407.76   11.90
  -2   2   5  413.96   11.80
  -2   2   5  420.46   11.90
   1  -2  -5  593.34   16.30
   1  -2  -5  611.54   14.70
   1  -2  -5  603.44   14.00
  -1   2   5  602.34   14.30
   0  -2  -5   22.30    6.30
   0  -2  -5   20.90    5.70
   0  -2  -5   22.90    5.20
   0   2   5   13.70    5.60
   0   2   5   21.60    5.50
   0   2   5   20.40    5.40
  -1  -2  -5   24.10    6.20
  -1  -2  -5   12.40    6.50
   1   2   5   26.40    6.00
   1   2   5   22.80    6.30
   1   2   5   17.70    6.40
  -2  -2  -5  314.47   12.70
   2   2   5  305.27   12.70
   2   2   5  285.67   13.40
   2   2   5  299.37   13.10
  -3  -2  -5   11.20    7.40
   3   2   5    3.50    8.40
   3   2   5    3.90    7.10
   3   2   5    8.50    7.40
  -4  -2  -5   61.19    8.70
  -4  -2  -5   45.10    8.70
  -4  -2  -5   38.70    9.60
   4   2   5   51.79    9.60
   4   2   5   53.09   10.10
   4   2   5   35.90    8.70
  -5  -2  -5   93.19   11.40
  -5  -2  -5  104.49   10.10
  -5  -2  -5   85.89   10.70
  -5  -2  -5  101.09   10.30
   5   2   5   79.59   11.90
   5   2   5   88.59   11.20
   5   2   5   91.39   14.70
   9  -3  -5   33.40   11.20
   9  -3  -5   15.50    9.40
  -9   3   5   19.10    8.50
  -9   3   5    3.50   12.00
   8  -3  -5   10.70    8.20
   8  -3  -5   23.10    8.60
  -8   3   5   19.30    7.70
  -8   3   5    5.80    9.00
   7  -3  -5   89.69    9.60
   7  -3  -5  118.69   10.60
  -7   3   5   84.09    9.40
  -7   3   5   82.99    8.70
   6  -3  -5  223.28   12.20
   6  -3  -5  232.98   12.00
  -6   3   5  249.58   12.70
  -6   3   5  263.37   17.20
   5  -3  -5    3.90    6.10
   5  -3  -5    8.10    5.60
  -5   3   5    3.70    6.20
  -5   3   5    0.70    6.30
   4  -3  -5   73.39    7.00
   4  -3  -5   76.29    6.90
  -4   3   5   78.09    7.20
  -4   3   5   82.19    7.30
   3  -3  -5  145.79    9.20
   3  -3  -5  149.79    7.90
   3  -3  -5  127.49   10.30
  -3   3   5  132.89    8.80
  -3   3   5  144.49    8.00
  -3   3   5  140.59    8.90
   2  -3  -5   27.80    6.00
   2  -3  -5   21.80    5.10
   2  -3  -5   23.00    6.30
  -2   3   5   22.10    4.80
  -2   3   5   29.20    5.90
  -2   3   5   16.90    5.80
   1  -3  -5    9.90    5.70
   1  -3  -5   -1.80    6.30
   1  -3  -5    7.50    5.00
  -1   3   5    6.00    5.20
   0  -3  -5   55.89    6.90
   0  -3  -5   56.59    7.30
   0  -3  -5   37.80    7.50
   0   3   5   45.10    6.40
   0   3   5   50.89    7.40
   0   3   5   58.69    6.70
  -1  -3  -5   92.09    7.80
  -1  -3  -5   81.69    7.30
  -1  -3  -5   88.49    9.30
   1   3   5   99.39   11.00
   1   3   5  101.89    9.70
   1   3   5  110.99    9.80
  -2  -3  -5  171.58   11.20
  -2  -3  -5  176.68   11.30
   2   3   5  205.98   11.60
   2   3   5  171.98   12.90
   2   3   5  196.68   11.50
  -3  -3  -5   26.20    7.60
  -3  -3  -5   28.40    9.90
   3   3   5   10.80    4.50
   3   3   5   44.70    8.30
   3   3   5   -0.40    7.30
   3   3   5   53.09    8.40
  -4  -3  -5   -5.90    7.50
  -4  -3  -5   24.30    9.20
   4   3   5    9.00    8.80
   4   3   5  -19.90   11.40
   4   3   5    1.60    8.00
   4   3   5    7.20   11.00
   8  -4  -5   14.00   17.80
   8  -4  -5    0.20    7.90
  -8   4   5   -7.60    9.60
  -8   4   5    1.10    7.60
   7  -4  -5    6.50    7.20
   7  -4  -5   12.10    7.70
  -7   4   5   -2.30    7.10
  -7   4   5    9.40    7.90
  -7   4   5   18.50   11.60
   6  -4  -5   48.40    7.70
   6  -4  -5   82.39    9.00
  -6   4   5   91.09   12.60
  -6   4   5   70.19    8.00
  -6   4   5   67.09    9.40
   5  -4  -5  642.24   16.90
   5  -4  -5  669.53   17.50
  -5   4   5  687.13   17.70
   4  -4  -5   65.29    7.30
   4  -4  -5   78.29    7.40
  -4   4   5   63.19    7.10
  -4   4   5   68.69    7.80
   3  -4  -5   -1.40    3.50
   3  -4  -5   -1.10    5.20
   3  -4  -5    8.10    7.30
   3  -4  -5    2.50    6.10
  -3   4   5   11.80    6.20
  -3   4   5    6.10    5.70
  -3   4   5    7.80    6.20
   2  -4  -5   -7.10    4.50
   2  -4  -5   -3.30    6.70
   2  -4  -5    0.30    7.20
   2  -4  -5   15.20    6.00
  -2   4   5   -7.50    5.50
  -2   4   5   -4.60    5.20
  -2   4   5    8.80    5.80
   1  -4  -5   37.80    6.70
   1  -4  -5   28.00    6.40
   1  -4  -5   28.60    7.50
  -1   4   5   28.70    6.50
  -1   4   5   37.80    6.30
   0  -4  -5   38.90    9.20
   0  -4  -5   57.39    7.20
   0  -4  -5   46.10    6.30
   0   4   5   57.59    8.50
   0   4   5   47.40    6.80
   0   4   5   47.20    7.10
  -1  -4  -5   35.50    6.50
  -1  -4  -5   46.80    7.00
  -1  -4  -5   57.49    9.60
   1   4   5   43.40    8.30
   1   4   5   46.80    9.00
   1   4   5   39.50    7.10
  -2  -4  -5   25.60    7.00
  -2  -4  -5   25.50    8.60
  -2  -4  -5   31.80    9.90
  -2  -4  -5    4.80    4.00
   2   4   5   23.60    7.30
   2   4   5   20.90    6.90
   2   4   5   10.80    7.50
  -3  -4  -5   20.20    9.00
  -3  -4  -5   31.20    7.70
  -3  -4  -5   44.50    8.50
  -3  -4  -5   25.40    8.90
   3   4   5   34.00    8.10
   3   4   5   43.70    8.40
   3   4   5   41.00   10.80
  -4  -4  -5  277.87   17.00
  -4  -4  -5  296.17   16.60
  -4  -4  -5  260.67   16.50
  -4  -4  -5  277.07   14.00
   4   4   5  318.57   21.80
   4   4   5  308.77   31.30
   4   4   5  265.67   14.50
   4   4   5  286.07   15.20
   8  -5  -5    3.60    7.20
   8  -5  -5  -15.60    8.50
   8  -5  -5  -12.30    9.00
  -8   5   5   10.30   10.00
  -8   5   5    0.70    7.60
   7  -5  -5   -6.30    7.10
   7  -5  -5    6.80    7.50
   7  -5  -5    0.30    6.40
  -7   5   5   -7.30    6.70
  -7   5   5   17.80   14.10
  -7   5   5    2.40    8.60
   6  -5  -5    8.50    6.60
   6  -5  -5   -8.60    6.80
  -6   5   5   10.60   12.50
  -6   5   5   -6.10    6.60
  -6   5   5    2.80    7.60
   5  -5  -5    7.00    6.90
  -5   5   5   23.50   19.80
  -5   5   5   15.70    7.10
  -5   5   5    3.90    6.50
   4  -5  -5   -7.50    8.40
   4  -5  -5  -19.50    5.40
   4  -5  -5   -3.40    6.70
  -4   5   5   -4.50    6.70
  -4   5   5  -11.80    6.40
   3  -5  -5  252.07    8.20
   3  -5  -5  263.67   11.80
   3  -5  -5  257.77   14.20
   3  -5  -5  250.97   10.80
  -3   5   5  265.37   13.40
  -3   5   5  243.18   11.90
  -3   5   5  267.97   12.00
   2  -5  -5  899.41   19.70
   2  -5  -5  864.91   18.40
   2  -5  -5  861.11   19.10
   2  -5  -5  865.51   23.20
   2  -5  -5  906.31   22.70
  -2   5   5  865.71   19.90
  -2   5   5  834.92   20.70
  -2   5   5  917.71   20.10
   1  -5  -5   41.80    6.80
   1  -5  -5   52.09    6.50
   1  -5  -5   59.59    7.30
   1  -5  -5   48.30    8.60
  -1   5   5   46.60    7.30
  -1   5   5   65.49    7.50
   0  -5  -5    4.30    7.90
   0  -5  -5    2.90    5.80
   0  -5  -5    8.80    7.00
   0  -5  -5   12.90    6.50
   0  -5  -5   10.20    9.20
   0   5   5   22.70    7.50
   0   5   5   15.50    6.50
   0   5   5   16.90    8.70
  -1  -5  -5  127.69   14.00
  -1  -5  -5   93.69    8.90
  -1  -5  -5  125.29   10.10
  -1  -5  -5   96.19   10.70
  -1  -5  -5  111.49    9.80
   1   5   5  114.79   10.60
   1   5   5  116.09    8.60
  -2  -5  -5    1.70    8.00
  -2  -5  -5   -6.50    6.40
  -2  -5  -5   -2.20    8.40
   2   5   5   -4.50    7.00
   2   5   5    0.00    9.30
   2   5   5    2.80    6.90
  -3  -5  -5   12.00   14.60
  -3  -5  -5    2.70    9.50
  -3  -5  -5    3.80    5.90
  -3  -5  -5   21.90   14.90
   3   5   5   30.60    8.00
   3   5   5   26.00    8.70
   8  -6  -5   -6.30   11.10
   8  -6  -5   -1.60    9.20
  -8   6   5    9.10    9.30
  -8   6   5    7.10   13.00
   7  -6  -5   12.60    7.30
   7  -6  -5    5.50    7.80
   7  -6  -5   21.70    8.80
  -7   6   5   22.50   17.50
  -7   6   5    7.30    7.70
  -7   6   5   -0.10    9.40
   6  -6  -5    9.90    7.50
  -6   6   5   13.00    7.40
  -6   6   5   23.90   14.80
  -6   6   5   10.50    8.20
   5  -6  -5   11.20    7.30
   5  -6  -5   11.70    9.90
  -5   6   5   20.30   12.80
  -5   6   5   16.50    8.30
  -5   6   5   22.40    7.20
   4  -6  -5   77.29   10.40
   4  -6  -5  108.79    9.00
  -4   6   5  103.89    9.10
  -4   6   5  104.49    8.60
   3  -6  -5  211.78   11.40
   3  -6  -5  208.18   14.80
   3  -6  -5  215.38   10.90
  -3   6   5  188.28   11.40
  -3   6   5  201.38   12.00
  -3   6   5  192.28   12.00
   2  -6  -5  136.99    8.80
   2  -6  -5  179.38   12.70
   2  -6  -5  141.69   13.60
   2  -6  -5  160.68   13.90
   2  -6  -5  160.38    9.90
   2  -6  -5  151.38   10.60
  -2   6   5  133.99   10.80
  -2   6   5  147.39   10.90
   1  -6  -5   14.70    6.50
   1  -6  -5   17.60    6.30
   1  -6  -5    6.40    5.90
   1  -6  -5    4.40    8.90
   1  -6  -5   10.90    8.00
  -1   6   5    2.20    6.60
  -1   6   5    9.90    5.90
  -1   6   5    9.80    6.60
   0  -6  -5  149.59   14.00
   0  -6  -5   95.19    8.20
   0  -6  -5  111.09   10.70
   0  -6  -5  138.89   11.50
   0   6   5  151.78   10.60
   0   6   5  144.49   10.90
  -1  -6  -5    0.60    7.90
  -1  -6  -5   14.50    9.00
  -1  -6  -5   -0.40    8.50
  -1  -6  -5    8.00    9.80
   1   6   5    2.30    6.80
   1   6   5   14.20   10.30
   1   6   5    5.90    6.90
   1   6   5    9.90    7.50
  -2  -6  -5    2.30    7.60
  -2  -6  -5    5.80   11.90
  -2  -6  -5   -2.20    8.20
   2   6   5    1.90    7.20
   2   6   5    8.80    7.00
   7  -7  -5    5.80    7.80
   7  -7  -5    2.40    7.70
  -7   7   5    9.40   10.40
   6  -7  -5   34.80    8.20
   6  -7  -5   33.20   11.50
   6  -7  -5   17.20    8.00
  -6   7   5   18.80    7.70
  -6   7   5   35.50    9.40
   5  -7  -5   -4.50    9.40
   5  -7  -5    3.30    7.20
   5  -7  -5   -0.20    7.00
  -5   7   5    7.10    8.40
  -5   7   5    5.50    6.90
   4  -7  -5   -1.70    8.80
   4  -7  -5    3.50    6.80
   4  -7  -5    7.80    9.20
   4  -7  -5   -6.80    7.00
   4  -7  -5    7.40    6.80
  -4   7   5   -0.20    6.70
  -4   7   5    0.70    7.40
   3  -7  -5   16.90    6.80
   3  -7  -5    4.20    7.40
   3  -7  -5    0.00    8.90
   3  -7  -5   19.30    9.70
  -3   7   5  -13.30    6.70
  -3   7   5   19.70    7.20
  -3   7   5   16.90    7.20
   2  -7  -5   34.10    8.40
   2  -7  -5   24.50    9.90
   2  -7  -5   35.00    7.20
   2  -7  -5   27.90    6.10
   2  -7  -5   18.20   10.10
  -2   7   5   31.70    7.60
   1  -7  -5   23.50    9.10
   1  -7  -5   21.40    9.50
  -1   7   5   23.50    6.90
  -1   7   5   10.20    7.20
  -1   7   5   16.80    7.10
   0  -7  -5   -5.50    7.30
   0  -7  -5   -1.60    3.40
   0  -7  -5    5.60    8.70
   0  -7  -5    5.90    8.70
   0   7   5    7.40    7.10
   0   7   5   -9.80    6.70
   0   7   5  -24.60   11.70
   0   7   5   11.20    7.40
  -1  -7  -5   -4.20   10.10
  -1  -7  -5   -2.60    7.20
  -1  -7  -5   19.20    8.30
  -1  -7  -5   -6.60   15.80
  -1  -7  -5    3.10    2.10
   1   7   5    1.90    7.00
   1   7   5   -6.20    8.70
   1   7   5    0.20   12.90
   1   7   5   14.40    8.00
   6  -8  -5    7.90    8.70
   6  -8  -5    3.70   12.90
  -6   8   5   55.19   24.10
  -6   8   5    4.50   14.50
  -6   8   5   13.90    9.80
   5  -8  -5   -1.30   10.50
   5  -8  -5    8.10    7.70
   5  -8  -5    6.50   10.10
   5  -8  -5    7.20    7.90
  -5   8   5   -3.00    8.60
  -5   8   5   23.70   20.00
  -5   8   5    6.80    7.60
   4  -8  -5    4.40    7.20
   4  -8  -5   11.20    9.60
   4  -8  -5   13.10    6.90
   4  -8  -5    6.70    9.60
  -4   8   5   18.20    8.20
  -4   8   5   21.00   20.40
  -4   8   5   14.00    7.70
   3  -8  -5    2.80    8.90
   3  -8  -5    4.10    6.50
   3  -8  -5   13.00    7.50
   3  -8  -5    6.40    7.60
   3  -8  -5   10.80    9.70
  -3   8   5    3.70    7.60
  -3   8   5    5.30    8.40
  -3   8   5   26.50   17.60
  -3   8   5    2.20    7.50
   2  -8  -5   11.90    7.10
   2  -8  -5    7.40    5.60
   2  -8  -5    9.80    8.20
   2  -8  -5   12.20    9.80
  -2   8   5   21.00    7.90
  -2   8   5    3.70    8.10
  -2   8   5   15.10    7.60
   1  -8  -5    3.50   15.00
   1  -8  -5   -1.90    1.90
   1  -8  -5    4.80    7.10
   1  -8  -5   -3.20    6.40
   1  -8  -5    1.10    8.60
  -1   8   5    7.50    9.40
  -1   8   5   -3.20    7.80
  -1   8   5   10.50    7.10
  -1   8   5   -0.40    7.30
   0  -8  -5    4.20   10.00
   0  -8  -5    5.90    7.60
   0   8   5   11.00    8.40
   1  11  -6   32.80    9.50
   1  11  -6   32.20   11.10
   1  11  -6   36.80    7.20
   1  11  -6   36.80   13.40
   1  11  -6   11.50   15.90
   1  11  -6   32.30   11.30
  -1 -11   6   42.90   12.70
  -1 -11   6   29.40    9.80
   0  11  -6   37.60   10.60
   0  11  -6   39.20    9.30
   0  11  -6   36.40    8.00
   0  11  -6   12.90   13.00
   0  11  -6   36.00    9.70
   0 -11   6   23.00    9.20
  -1  11  -6   15.10    8.60
  -1  11  -6   -2.80   13.10
  -1  11  -6   16.10    9.20
  -1  11  -6   11.20    9.80
   1 -11   6    2.00   10.70
   1 -11   6    4.80   11.60
   1 -11   6    3.20    8.90
  -2  11  -6   85.49   16.90
   2 -11   6  139.59   18.90
   3  10  -6   -7.00    9.20
   3  10  -6   -9.00    6.30
   3  10  -6  -32.60   14.00
   3  10  -6   21.20   10.80
   3  10  -6   -6.90   10.10
   3  10  -6  -22.10   10.10
   2  10  -6   19.70    9.30
   2  10  -6   22.60    9.60
   2  10  -6   43.70   10.60
   2  10  -6   18.50   10.20
  -2 -10   6   27.80   11.40
   1  10  -6  234.48   23.50
   1  10  -6  197.68   12.30
   1  10  -6  160.88   28.40
   1  10  -6  168.78   24.10
   1  10  -6  247.88   15.50
   1  10  -6  241.58   15.10
  -1 -10   6  222.48   19.30
  -1 -10   6  239.58   14.60
   0  10  -6    3.70    8.10
   0  10  -6   -4.70    8.30
   0  10  -6   -0.40   12.10
   0 -10   6    8.30    8.20
   0 -10   6    7.80   10.40
  -1  10  -6   16.70   14.90
  -1  10  -6   34.00   14.60
  -1  10  -6   19.60   10.00
  -1  10  -6   40.30    7.00
   1 -10   6   22.80    9.20
   1 -10   6   31.00   11.50
  -2  10  -6    8.70   16.80
  -2  10  -6   27.70   15.50
  -2  10  -6   20.50    7.40
  -2  10  -6   29.80    8.20
   2 -10   6   39.10    8.50
   2 -10   6   34.30   12.10
   2 -10   6   13.00    9.60
   2 -10   6   32.30    8.90
   2 -10   6   23.90    6.10
  -3  10  -6  -18.50   22.90
  -3  10  -6   11.50    8.00
  -3  10  -6   -1.40    8.60
  -3  10  -6   18.20    9.40
   3 -10   6    9.10    9.20
   3 -10   6   13.20   12.00
   3 -10   6   -7.80    8.70
   3 -10   6   -1.30    6.50
   5   9  -6   -2.70    7.50
   4   9  -6    9.10   10.20
   4   9  -6  -15.30   10.80
   4   9  -6   -1.60   10.20
   4   9  -6   11.70    8.30
   4   9  -6    7.90    7.40
  -4  -9   6    5.30   11.00
   3   9  -6   11.30   15.00
   3   9  -6   10.40    6.90
   3   9  -6   -4.80   10.30
   3   9  -6   10.20   10.00
   3   9  -6   17.10    9.30
   3   9  -6   21.60    8.70
   3   9  -6   11.90    8.90
  -3  -9   6   19.00   10.80
  -3  -9   6   14.10   10.20
   2   9  -6   14.40    7.90
   2   9  -6   37.30   16.50
   2   9  -6   17.80   13.50
  -2  -9   6   29.50    8.40
  -2  -9   6   30.10   10.90
  -2  -9   6   43.70   11.60
   1   9  -6   92.09   11.80
  -1  -9   6  151.38   12.60
  -1  -9   6  161.28   16.90
  -1  -9   6  117.89   15.40
   0   9  -6   64.59   12.20
   0   9  -6   70.79    7.60
   0  -9   6   74.89    6.40
   0  -9   6   57.69   11.40
   0  -9   6   62.59    9.50
   0  -9   6   75.19   13.00
   0  -9   6   62.29    5.70
  -1   9  -6  145.29   13.70
  -1   9  -6  132.09   10.10
  -1   9  -6  129.19   17.40
   1  -9   6  136.49   15.90
   1  -9   6  160.48   11.80
   1  -9   6  132.79   16.80
   1  -9   6  133.69   13.80
  -2   9  -6   36.80   12.50
  -2   9  -6   42.30    7.60
  -2   9  -6   66.89   10.80
  -2   9  -6   61.39    8.80
   2  -9   6   41.30   12.50
   2  -9   6   31.10    6.60
   2  -9   6   65.79    8.90
   2  -9   6   38.10   10.90
  -3   9  -6   19.80    8.70
  -3   9  -6   27.10    8.00
  -3   9  -6   11.50   14.30
  -3   9  -6   16.60    8.70
   3  -9   6   12.40   10.70
   3  -9   6   15.00    6.80
  -4   9  -6   24.30   10.00
  -4   9  -6  -28.90   15.70
  -4   9  -6    9.90    9.70
   4  -9   6   11.20   19.20
   4  -9   6   11.90    9.10
   4  -9   6   16.00    8.00
   5   8  -6  196.38   16.30
   5   8  -6  145.29   16.70
   5   8  -6  139.69   14.50
   5   8  -6  180.58   13.50
  -5  -8   6  172.78   16.10
  -5  -8   6  170.48   16.10
   4   8  -6    7.10    8.20
   4   8  -6    4.60    9.00
   4   8  -6    2.60    7.20
   4   8  -6   13.30    7.80
  -4  -8   6   -4.80    8.70
  -4  -8   6    1.20   10.30
   3   8  -6  255.27   13.60
   3   8  -6  267.97   14.30
   3   8  -6  279.67   14.80
  -3  -8   6  301.87   28.20
  -3  -8   6  274.47   17.50
   2   8  -6   -6.90   12.00
   2   8  -6   -7.70    7.30
  -2  -8   6    2.60    7.20
  -2  -8   6  -10.50    9.70
  -2  -8   6    8.50    9.70
   1   8  -6   66.09    5.90
   1   8  -6   49.80    8.00
   1   8  -6   45.30    6.70
   1   8  -6   72.29    6.60
   1   8  -6   74.79    7.80
  -1  -8   6   62.89   11.50
  -1  -8   6   62.39    8.60
  -1  -8   6   59.69    5.40
  -1  -8   6   61.69   11.10
   0   8  -6   38.80    6.20
   0   8  -6   31.50    8.00
   0   8  -6   35.00    7.10
   0  -8   6   48.50    5.80
   0  -8   6   40.10   11.00
   0  -8   6   38.30   10.40
   0  -8   6   41.50    7.00
   0  -8   6   28.20   10.50
   0  -8   6   40.40    6.00
  -1   8  -6  197.28   11.70
  -1   8  -6  202.18   11.80
  -1   8  -6  209.88   13.60
  -1   8  -6  190.18   10.40
   1  -8   6  213.98   10.10
   1  -8   6  188.98   17.30
   1  -8   6  215.38   11.80
   1  -8   6  210.48   15.90
   1  -8   6  221.38   10.80
  -2   8  -6   -0.90    7.30
  -2   8  -6   21.00    7.40
  -2   8  -6    2.30    6.60
   2  -8   6   -0.50    7.60
   2  -8   6    3.70    6.20
   2  -8   6    2.50    9.60
   2  -8   6   12.90   10.10
  -3   8  -6    9.00    4.60
  -3   8  -6   10.20    7.40
  -3   8  -6    8.20    8.30
   3  -8   6   11.40   10.60
   3  -8   6   21.70    8.00
   3  -8   6   10.50    6.90
  -4   8  -6   82.69    9.80
  -4   8  -6   92.09   11.20
   4  -8   6   62.69    9.60
   4  -8   6   69.29   13.20
  -5   8  -6    3.40    9.20
   5  -8   6   19.10   21.60
   6   7  -6   66.69   14.80
   6   7  -6   59.19    9.30
   6   7  -6   82.39   12.10
   6   7  -6   92.99   12.50
  -6  -7   6   67.69   11.20
  -6  -7   6   72.49   12.00
  -6  -7   6   71.39   11.50
   5   7  -6  148.59   13.60
   5   7  -6  161.48   14.10
   5   7  -6  136.29   10.90
  -5  -7   6  132.39   15.30
  -5  -7   6  169.18   15.30
  -5  -7   6  172.48   15.20
   4   7  -6    8.30    7.30
  -4  -7   6   15.80    8.90
  -4  -7   6    1.90    9.00
  -4  -7   6   14.20    9.90
  -4  -7   6   14.80    8.90
   3   7  -6    5.90    5.20
   3   7  -6   -2.90    4.90
   3   7  -6   11.10    7.10
   3   7  -6    7.50    4.60
  -3  -7   6    9.20    9.00
  -3  -7   6   12.10    4.50
  -3  -7   6    6.50    8.20
  -3  -7   6   -1.10    9.00
   2   7  -6   22.60    8.70
   2   7  -6   15.70    5.20
   2   7  -6   14.10    8.00
   2   7  -6   19.60    5.10
  -2  -7   6   11.70    6.50
  -2  -7   6   17.10    9.00
  -2  -7   6   14.80    8.90
  -2  -7   6   20.00    4.80
  -2  -7   6   15.30    4.60
   1   7  -6  -14.80    6.70
   1   7  -6    5.40    7.80
   1   7  -6    0.30    5.80
   1   7  -6    0.60    7.10
   1   7  -6    3.70    5.80
   1   7  -6   13.40    5.50
  -1  -7   6    6.00    7.00
  -1  -7   6   10.00    9.90
  -1  -7   6   11.50    4.70
  -1  -7   6    2.10    5.20
  -1  -7   6    9.90    8.90
   0   7  -6   -0.10    6.10
   0   7  -6    8.70    5.80
   0   7  -6   11.40    7.20
   0   7  -6   11.00    9.60
   0  -7   6    1.40   10.80
   0  -7   6    1.40    7.70
   0  -7   6   11.70    5.50
   0  -7   6    8.50   10.00
   0  -7   6   10.10    6.20
  -1   7  -6   38.00    8.00
  -1   7  -6   40.30   10.70
  -1   7  -6   33.60    8.10
  -1   7  -6   36.30    7.20
   1  -7   6   36.30   11.10
   1  -7   6   40.50    6.60
   1  -7   6   25.50    9.80
   1  -7   6   39.10    6.80
  -2   7  -6  228.18   17.00
  -2   7  -6  262.77   14.00
  -2   7  -6  247.08   11.90
  -2   7  -6  262.07   13.00
   2  -7   6  233.98   16.70
   2  -7   6  258.97   12.10
   2  -7   6  224.28   11.20
   2  -7   6  232.08   17.70
  -3   7  -6   -0.90    8.20
  -3   7  -6    5.30    9.00
  -3   7  -6   -3.10    6.90
   3  -7   6    3.10    9.50
   3  -7   6   -1.90    6.70
   3  -7   6   -7.90    9.20
  -4   7  -6   10.60    7.80
  -4   7  -6    3.80    9.00
   4  -7   6   11.20   11.00
   4  -7   6    6.10    7.60
  -5   7  -6   -9.10   11.30
  -5   7  -6   15.60   10.70
   5  -7   6   21.00   11.80
   5  -7   6   -4.30   10.00
   5  -7   6   20.00    9.00
   7   6  -6   11.10    7.90
   7   6  -6   19.20    6.50
   7   6  -6  -17.90    8.10
  -7  -6   6   38.00   10.40
  -7  -6   6   22.80   11.10
  -7  -6   6   17.20    6.70
  -7  -6   6   24.40   12.70
   6   6  -6  138.59   12.00
   6   6  -6  124.49    9.60
   6   6  -6  117.09    9.30
   6   6  -6  131.79   11.30
  -6  -6   6  103.39   11.50
  -6  -6   6   84.39   11.10
  -6  -6   6  128.59   14.50
  -6  -6   6  128.59    8.90
   5   6  -6   46.50    6.00
   5   6  -6   43.80    5.90
  -5  -6   6   38.40    5.50
  -5  -6   6   36.20    9.30
  -5  -6   6   33.90    9.10
  -5  -6   6   41.50    6.00
  -5  -6   6   48.90   11.00
   4   6  -6   44.90    5.80
   4   6  -6   47.20    6.00
   4   6  -6   57.19    7.90
   4   6  -6   36.60    7.30
  -4  -6   6   48.50   10.90
  -4  -6   6   50.79    9.40
  -4  -6   6   54.19    6.10
  -4  -6   6   29.80    8.70
  -4  -6   6   47.80   17.20
   3   6  -6  203.08   10.10
   3   6  -6  201.58    8.90
   3   6  -6  197.28    9.00
   3   6  -6  195.28   13.90
  -3  -6   6  201.68    8.30
  -3  -6   6  202.78   14.40
  -3  -6   6  205.58    8.40
  -3  -6   6  196.88   14.70
  -3  -6   6  195.38   20.50
   2   6  -6   80.79    6.20
   2   6  -6   67.99   14.50
   2   6  -6   78.79   17.30
   2   6  -6   83.09    6.30
  -2  -6   6   73.19   10.10
  -2  -6   6   73.49    7.10
  -2  -6   6   78.99    7.20
  -2  -6   6   79.69   10.90
  -2  -6   6   73.69    5.90
  -2  -6   6   72.39    8.80
   1   6  -6  103.39    7.10
   1   6  -6   86.69    8.00
   1   6  -6   85.59   10.40
   1   6  -6   98.69   11.30
  -1  -6   6   83.29    7.50
  -1  -6   6   92.29    8.10
  -1  -6   6   93.79   12.40
  -1  -6   6   82.19    7.60
  -1  -6   6   77.99   10.40
   0   6  -6   11.00    7.20
   0   6  -6    8.70    6.50
   0   6  -6   12.30    5.70
   0  -6   6    7.90    9.10
   0  -6   6   25.40    9.70
   0  -6   6   13.50    5.60
  -1   6  -6  556.44   15.30
  -1   6  -6  576.34   15.80
  -1   6  -6  570.74   17.60
   1  -6   6  543.65   14.80
   1  -6   6  541.35   26.20
   1  -6   6  580.04   15.10
   1  -6   6  570.54   19.70
  -2   6  -6    7.60    7.10
  -2   6  -6   12.50    6.90
  -2   6  -6   14.40    7.30
   2  -6   6    1.50    6.40
   2  -6   6    0.60    9.00
   2  -6   6    8.10    6.10
   2  -6   6    5.60    8.90
  -3   6  -6    2.20    7.00
  -3   6  -6    5.50   10.10
   3  -6   6   -0.80    9.80
   3  -6   6    5.20    6.90
   3  -6   6    8.80    9.20
  -4   6  -6   44.50    9.00
  -4   6  -6   47.80    9.60
   4  -6   6   46.70    9.10
   4  -6   6   48.70   11.90
   4  -6   6   40.90    8.60
  -5   6  -6   -5.50    8.90
  -5   6  -6   -8.60    9.70
   5  -6   6    8.80    9.10
   5  -6   6   11.90    9.00
   5  -6   6    2.10   11.20
   7   5  -6    7.90    7.50
   7   5  -6   -1.60    6.40
   7   5  -6   -9.60    7.10
   7   5  -6    1.40    7.20
  -7  -5   6   -1.60    9.20
  -7  -5   6   -1.40    6.70
  -7  -5   6   10.90   16.10
  -7  -5   6   -7.30    5.90
  -7  -5   6   -9.50    9.30
   6   5  -6   76.09    7.30
   6   5  -6   68.79    7.50
   6   5  -6   62.09    6.80
  -6  -5   6   81.79    7.00
  -6  -5   6   66.29   10.40
  -6  -5   6   74.59    7.20
  -6  -5   6   78.69   11.00
  -6  -5   6   69.19   10.70
   5   5  -6 1016.20   20.80
   5   5  -6  988.60   22.50
   5   5  -6 1004.50   20.70
  -5  -5   6 1023.90   20.50
  -5  -5   6  977.20   26.20
  -5  -5   6  956.10   20.20
  -5  -5   6 1003.20   26.70
   4   5  -6   -4.90    5.20
   4   5  -6    1.60    9.60
   4   5  -6    2.60    9.30
  -4  -5   6    1.00   15.70
  -4  -5   6    8.60    5.20
  -4  -5   6    4.40    5.60
  -4  -5   6    2.40    7.40
  -4  -5   6    8.30   14.00
  -4  -5   6   -0.80    8.40
   3   5  -6   -2.90    5.10
   3   5  -6    4.60    8.10
   3   5  -6   -2.30    8.10
  -3  -5   6   -0.40    7.50
  -3  -5   6    4.10    4.60
  -3  -5   6   -2.50    8.10
  -3  -5   6   -3.40    6.80
  -3  -5   6    0.10    6.90
   2   5  -6   24.50    5.30
   2   5  -6    6.50    6.10
   2   5  -6   17.00    5.00
   2   5  -6   17.70    8.10
  -2  -5   6   19.80    8.40
  -2  -5   6   11.90    4.50
  -2  -5   6   18.50    8.00
  -2  -5   6   17.40    5.30
  -2  -5   6   13.90    5.00
  -2  -5   6   14.30    6.80
   1   5  -6   90.19    9.60
   1   5  -6   84.49    6.60
   1   5  -6   95.09    8.60
   1   5  -6   80.49    8.20
  -1  -5   6   86.29    9.90
  -1  -5   6   83.19    7.30
  -1  -5   6   75.69    7.30
  -1  -5   6   96.49   10.90
   0   5  -6  312.97   12.50
   0   5  -6  328.27   13.10
   0   5  -6  317.37   11.10
   0  -5   6  321.47   17.20
   0  -5   6  326.87   11.00
   0  -5   6  315.77   15.00
   0  -5   6  306.77   10.40
  -1   5  -6  600.54   15.70
  -1   5  -6  557.04   15.50
  -1   5  -6  568.94   16.50
   1  -5   6  550.64   18.90
   1  -5   6  605.94   15.20
   1  -5   6  556.84   21.70
   1  -5   6  596.74   15.30
  -2   5  -6   17.20    7.30
  -2   5  -6   25.70    7.50
  -2   5  -6   19.40    7.30
   2  -5   6   23.00    8.90
   2  -5   6   17.00    6.30
   2  -5   6   22.40    6.90
  -3   5  -6   40.10    9.10
  -3   5  -6   44.00    8.20
   3  -5   6   44.30    9.70
   3  -5   6   38.90   13.00
   3  -5   6   29.10    8.20
   3  -5   6   41.90    8.60
  -4   5  -6    2.40    8.00
  -4   5  -6   15.40    8.50
   4  -5   6    9.20   12.20
   4  -5   6   24.10    8.00
   4  -5   6   31.90    9.30
   4  -5   6   14.20    8.60
  -5   5  -6    6.80   10.20
  -5   5  -6   16.80    9.20
   5  -5   6   12.10   12.80
   5  -5   6   11.40   11.50
   5  -5   6    1.40    8.10
   8   4  -6   14.20    7.30
   8   4  -6   -7.20    7.90
   8   4  -6    7.60    8.30
  -8  -4   6  -10.10   21.30
  -8  -4   6   13.90    9.10
  -8  -4   6   10.20    8.00
  -8  -4   6    2.80    7.10
  -8  -4   6   -5.90   10.70
   7   4  -6   16.30    7.30
   7   4  -6   -4.80    6.50
   7   4  -6   -4.70    6.70
  -7  -4   6    1.90    6.40
  -7  -4   6   12.20    9.50
  -7  -4   6    7.80   10.50
  -7  -4   6   -1.80    8.40
  -7  -4   6    7.80   10.20
   6   4  -6   29.50    6.80
   6   4  -6   34.50    7.00
   6   4  -6   38.00    7.20
   6   4  -6   28.50    6.30
  -6  -4   6   25.10   10.80
  -6  -4   6   34.70   10.50
  -6  -4   6   26.90    6.30
  -6  -4   6   34.40    6.70
  -6  -4   6   27.90   10.00
   5   4  -6   70.29    7.20
   5   4  -6   67.89    7.00
   5   4  -6   67.29    6.90
  -5  -4   6   56.79    6.20
  -5  -4   6   70.99   11.00
  -5  -4   6   78.29   11.70
  -5  -4   6   56.09    6.60
  -5  -4   6   61.29   10.40
   4   4  -6 1066.39   20.90
   4   4  -6 1022.80   21.60
   4   4  -6 1053.89   21.00
  -4  -4   6 1032.00   20.60
  -4  -4   6  989.80   22.50
  -4  -4   6 1049.70   23.90
  -4  -4   6 1015.10   25.00
  -4  -4   6 1032.20   26.40
  -4  -4   6 1017.40   25.00
   3   4  -6    8.00    4.80
   3   4  -6    1.90    4.90
   3   4  -6    7.60    6.50
  -3  -4   6    5.90    6.90
  -3  -4   6    3.90    8.00
  -3  -4   6    3.30    4.50
  -3  -4   6    4.30    7.10
  -3  -4   6    1.10    7.70
   2   4  -6  269.57   11.80
   2   4  -6  264.37    9.70
   2   4  -6  258.97    9.50
  -2  -4   6  265.37   11.10
  -2  -4   6  263.27    9.00
  -2  -4   6  274.97   14.30
  -2  -4   6  282.27   15.00
  -2  -4   6  266.67   11.90
   1   4  -6   88.89    8.00
   1   4  -6   99.89    9.00
   1   4  -6   93.19    6.90
   1   4  -6   93.99   10.20
  -1  -4   6  101.29   11.60
  -1  -4   6  103.99    7.60
  -1  -4   6  104.09    7.90
  -1  -4   6  102.29    9.40
   0   4  -6    4.10    5.50
   0   4  -6    9.40    5.90
   0   4  -6    3.00    5.10
   0  -4   6    3.70    7.70
   0  -4   6    8.40    5.30
   0  -4   6   -2.90    4.80
  -1   4  -6   23.50    6.40
  -1   4  -6   39.10    6.50
  -1   4  -6   42.20    6.60
   1  -4   6   40.70    6.30
   1  -4   6   45.00    8.50
   1  -4   6   33.40    6.70
  -2   4  -6 1520.75   30.00
  -2   4  -6 1560.54   29.80
  -2   4  -6 1473.95   29.90
   2  -4   6 1474.05   29.60
   2  -4   6 1467.55   29.60
   2  -4   6 1479.95   32.40
  -3   4  -6  851.51   21.60
  -3   4  -6  874.01   21.90
  -3   4  -6  921.31   21.40
   3  -4   6  854.81   22.80
   3  -4   6  839.12   21.30
   3  -4   6  869.91   21.60
  -4   4  -6   74.89   10.60
  -4   4  -6   63.09    9.60
   4  -4   6   63.19    9.60
   4  -4   6   59.29    8.90
  -5   4  -6   47.90    9.70
  -5   4  -6   47.60   13.10
   5  -4   6   16.00    8.50
   5  -4   6   43.00   10.40
   5  -4   6    9.00   14.00
   8   3  -6    8.30    8.10
   8   3  -6   -2.90    6.90
   8   3  -6   -4.90    8.20
  -8  -3   6   -2.40    9.00
  -8  -3   6    8.30    8.00
  -8  -3   6  -27.60   12.40
  -8  -3   6   10.60    7.50
  -8  -3   6    9.80   10.60
   7   3  -6   52.59    7.70
   7   3  -6   55.49    8.10
   7   3  -6   52.39    7.20
  -7  -3   6   45.80    7.60
  -7  -3   6   39.10   12.00
  -7  -3   6   48.00   11.10
  -7  -3   6   31.30   11.40
   6   3  -6   47.70    7.50
   6   3  -6   38.60    6.90
   6   3  -6   44.90    6.60
  -6  -3   6   34.40    6.60
  -6  -3   6   45.10    9.90
  -6  -3   6   47.00    7.20
  -6  -3   6   49.00   11.20
  -6  -3   6   33.10   10.60
   5   3  -6   81.79    7.30
   5   3  -6   68.29    7.00
   5   3  -6   62.99    6.40
  -5  -3   6   53.39    6.30
  -5  -3   6   64.59   10.20
  -5  -3   6   57.29    6.90
  -5  -3   6   54.99   10.60
  -5  -3   6   81.89   11.60
   4   3  -6  289.27   10.40
   4   3  -6  300.17   10.60
  -4  -3   6  307.07   15.70
  -4  -3   6  311.77   13.70
  -4  -3   6  288.07   10.70
  -4  -3   6  307.77   14.40
  -4  -3   6  307.47   10.10
  -4  -3   6  302.67   13.40
   3   3  -6   17.20    5.20
   3   3  -6   18.10    5.10
  -3  -3   6   15.50    5.50
  -3  -3   6   24.70    9.10
  -3  -3   6    7.00    4.50
  -3  -3   6   10.60    7.00
  -3  -3   6   23.50    6.20
   2   3  -6  204.78    9.10
   2   3  -6  192.58   10.30
   2   3  -6  197.28    8.90
  -2  -3   6  196.28    8.40
  -2  -3   6  202.28   10.30
  -2  -3   6  208.68   13.00
  -2  -3   6  201.78   10.40
   1   3  -6    4.50    4.90
   1   3  -6    9.20    5.00
   1   3  -6    5.70    5.60
  -1  -3   6    9.80    7.40
  -1  -3   6   -2.90    5.20
  -1  -3   6    4.00    5.10
  -1  -3   6    7.10    4.50
   0   3  -6   35.30    5.70
   0   3  -6   43.10    6.40
   0   3  -6   43.30    6.70
   0  -3   6   39.50    8.20
   0  -3   6   39.60    5.50
   0  -3   6   46.90    6.80
  -1   3  -6    6.80    6.20
  -1   3  -6    0.80    5.90
  -1   3  -6    5.50    5.60
   1  -3   6    8.20    6.00
   1  -3   6    5.60    6.40
   1  -3   6   -6.50    7.80
  -2   3  -6  506.75   15.60
  -2   3  -6  509.15   15.90
  -2   3  -6  538.25   14.10
   2  -3   6  507.65   15.20
   2  -3   6  505.45   15.30
   2  -3   6  506.35   17.30
  -3   3  -6  889.21   28.40
  -3   3  -6  937.61   22.60
   3  -3   6  953.40   23.50
  -4   3  -6    6.90    8.60
  -4   3  -6    6.90    8.80
   4  -3   6   18.90    7.80
   4  -3   6   23.80    8.30
   4  -3   6   14.80    8.40
  -5   3  -6   11.20   15.20
  -5   3  -6    9.80    8.60
   5  -3   6    5.50    8.80
   5  -3   6    6.60    9.60
   8   2  -6   51.49   15.90
   8   2  -6   44.70    8.00
  -8  -2   6   32.00   10.50
  -8  -2   6   49.80    8.70
  -8  -2   6   28.10   11.40
   7   2  -6   -0.10    6.30
   7   2  -6    0.50    6.80
   7   2  -6    8.10    7.30
  -7  -2   6   -4.10    9.80
  -7  -2   6  -14.20    9.80
  -7  -2   6    2.30    7.30
   6   2  -6   23.60    6.00
   6   2  -6   23.40    6.80
   6   2  -6   27.10    6.80
  -6  -2   6   32.30    7.20
  -6  -2   6   31.20    6.80
  -6  -2   6   31.80    9.50
   5   2  -6  436.86   12.10
   5   2  -6  450.95   13.60
   5   2  -6  457.45   13.50
  -5  -2   6  433.46   16.90
  -5  -2   6  430.26   13.00
  -5  -2   6  463.25   13.60
   4   2  -6  337.77   11.20
   4   2  -6  332.57   11.20
  -4  -2   6  333.77   11.20
  -4  -2   6  341.47   10.60
  -4  -2   6  355.46   13.90
   3   2  -6 1462.55   27.60
   3   2  -6 1469.05   27.50
  -3  -2   6 1465.35   27.60
  -3  -2   6 1447.36   27.30
  -3  -2   6 1496.95   29.10
  -3  -2   6 1490.65   29.60
   2   2  -6  124.09    8.00
   2   2  -6  117.99    8.20
  -2  -2   6   98.49    8.90
  -2  -2   6  109.49    7.20
  -2  -2   6  119.39    8.30
   1   2  -6  121.49    8.40
   1   2  -6  116.39    7.80
   1   2  -6  102.39    8.40
  -1  -2   6  116.99    7.90
  -1  -2   6  124.79    8.20
  -1  -2   6  101.79    8.30
   0   2  -6    3.90    4.00
   0   2  -6    1.90    5.60
   0   2  -6    4.70    6.10
   0  -2   6    9.40    5.20
   0  -2   6   11.20    5.80
  -1   2  -6    0.80    5.80
   1  -2   6    9.00    5.80
   1  -2   6   -1.00    7.70
   1  -2   6   -1.30    5.80
  -2   2  -6   40.80    8.10
  -2   2  -6   44.40    7.40
   2  -2   6   36.10    7.10
   2  -2   6   50.39   12.50
   2  -2   6   41.40    9.10
  -3   2  -6    2.20    7.60
  -3   2  -6    0.20    7.00
   3  -2   6    5.40    7.90
   3  -2   6   10.40    7.40
   3  -2   6   -1.00    8.00
  -4   2  -6   10.10    8.50
  -4   2  -6   15.30    8.70
   4  -2   6    5.60    9.30
   4  -2   6   32.20    8.30
  -5   2  -6   46.90    9.60
  -5   2  -6   85.99   12.10
   5  -2   6   61.19   11.10
   5  -2   6   56.39   10.10
   9   1  -6    2.50   10.10
   9   1  -6    4.80    8.30
   9   1  -6    6.20    3.40
  -9  -1   6    2.50    8.40
  -9  -1   6  -27.20   10.20
   8   1  -6   56.49    8.50
   8   1  -6   71.09    9.80
   8   1  -6   83.89    8.90
  -8  -1   6   80.59    9.40
  -8  -1   6   59.89   13.00
   7   1  -6   -8.10    6.70
   7   1  -6    2.10    7.40
  -7  -1   6   -3.70    7.10
  -7  -1   6   -8.70   11.10
   6   1  -6   16.50    6.70
   6   1  -6   17.90    5.30
   6   1  -6   27.30    7.60
  -6  -1   6   15.10   17.40
  -6  -1   6   10.40    5.00
  -6  -1   6   25.20    7.30
   5   1  -6  153.38    9.90
   5   1  -6  159.28    9.90
   5   1  -6  148.19    7.50
  -5  -1   6  154.48   13.10
  -5  -1   6  146.79    9.00
  -5  -1   6  159.58   10.30
   4   1  -6   71.89    6.30
   4   1  -6   82.69    7.00
  -4  -1   6   84.99    6.80
  -4  -1   6   79.49    7.60
  -4  -1   6   99.19    9.40
   3   1  -6  440.66   12.10
   3   1  -6  419.66   12.20
  -3  -1   6  430.66   13.10
  -3  -1   6  417.96   11.80
  -3  -1   6  421.16   12.20
   2   1  -6 1542.25   29.20
   2   1  -6 1560.44   29.10
  -2  -1   6 1563.14   29.20
  -2  -1   6 1609.44   28.90
  -2  -1   6 1577.94   29.60
   1   1  -6  369.86   11.70
   1   1  -6  391.96   11.90
  -1  -1   6  382.36   10.70
  -1  -1   6  373.66   11.70
  -1  -1   6  369.26   11.50
   0   1  -6   70.09    6.20
   0   1  -6   63.09    6.60
   0   1  -6   65.59    6.50
   0  -1   6   63.99    6.50
   0  -1   6   57.59    6.30
  -1   1  -6   92.09    7.60
  -1   1  -6  103.49    8.60
   1  -1   6   97.79    7.80
   1  -1   6  100.09    8.30
  -2   1  -6    8.40    6.50
  -2   1  -6    1.70    7.00
   2  -1   6   11.90    7.50
   2  -1   6    9.60    7.30
  -3   1  -6   22.60    8.50
  -3   1  -6   20.80    7.40
   3  -1   6   28.60    8.70
   3  -1   6   22.20    7.60
   3  -1   6   30.40    8.30
  -4   1  -6   86.79   10.90
  -4   1  -6  134.89   11.40
   4  -1   6  101.79   10.70
   4  -1   6   99.79    9.90
  -5   1  -6    5.70    9.70
  -5   1  -6    2.70    9.70
   5  -1   6   22.20   10.30
   5  -1   6    8.10    8.40
   9   0  -6   60.29   11.40
   9   0  -6   19.80   13.00
  -9   0   6   16.30    8.90
   8   0  -6   -6.20    7.40
   8   0  -6   -1.20    8.90
   8   0  -6   15.30   12.60
  -8   0   6   -1.90    7.40
   7   0  -6  369.46   14.90
   7   0  -6  350.46   13.90
  -7   0   6  343.67   14.60
   6   0  -6  138.49   11.90
   6   0  -6  145.19   11.00
  -6   0   6  123.39   11.00
  -6   0   6  143.89   10.30
   5   0  -6  124.09    9.60
   5   0  -6  125.69    6.30
   5   0  -6  124.49    9.80
  -5   0   6  126.29    9.90
  -5   0   6  121.19    9.70
   4   0  -6   -2.10    5.30
   4   0  -6   -1.60    5.40
  -4   0   6    0.40    5.60
  -4   0   6    5.80    5.10
   3   0  -6   59.69    6.00
   3   0  -6   58.19    6.30
  -3   0   6   76.09    7.00
  -3   0   6   62.49    6.10
  -3   0   6   58.99    6.00
   2   0  -6   31.20    5.60
   2   0  -6   30.30    5.30
  -2   0   6   29.40    4.70
  -2   0   6   33.40    5.90
  -2   0   6   32.40    5.80
   1   0  -6  107.99    9.00
   1   0  -6  117.69    8.60
  -1   0   6  115.89    8.30
  -1   0   6  106.69    8.60
  -1   0   6  112.69    7.20
   0   0  -6  103.99    9.20
   0   0  -6  104.09    9.40
   0   0  -6  107.39    9.00
   0   0   6  110.59    9.00
   0   0   6  100.89    9.10
  -1   0  -6   21.60    6.40
  -1   0  -6   22.60    6.80
   1   0   6   13.00    6.20
   1   0   6    8.70    5.60
   1   0   6   21.80    7.00
  -2   0  -6   22.70    7.30
   2   0   6   19.00    7.20
   2   0   6    7.20   12.90
  -3   0  -6   -0.50    7.60
   3   0   6    1.70    7.20
   3   0   6   15.50    9.10
  -4   0  -6   11.20   10.10
   4   0   6  -11.80    8.20
   4   0   6   -4.30    9.20
  -5   0  -6   15.10    9.80
  -5   0  -6   -2.50    9.80
   5   0   6   13.90   10.80
   9  -1  -6   30.90   11.10
  -9   1   6    7.00    8.40
   8  -1  -6   -1.90    6.40
   8  -1  -6   -2.90    7.40
   8  -1  -6   12.70    9.50
  -8   1   6   -4.80    8.40
  -8   1   6   10.10    8.10
   7  -1  -6    3.30    7.10
   7  -1  -6    4.90    7.60
  -7   1   6   -0.20    7.60
   6  -1  -6    3.90    6.90
  -6   1   6    7.70    7.30
  -6   1   6    1.60    6.20
   5  -1  -6   94.99    8.40
   5  -1  -6  123.69   10.00
  -5   1   6   90.59   10.00
  -5   1   6   94.49    7.80
   4  -1  -6  146.29    9.50
   4  -1  -6  135.79    8.90
  -4   1   6  141.29    9.20
  -4   1   6  145.49    9.40
   3  -1  -6   -1.10    5.10
   3  -1  -6    3.70    5.70
   3  -1  -6   -1.00    5.00
  -3   1   6    9.50    6.10
  -3   1   6   -3.60    4.80
   2  -1  -6  765.42   17.50
   2  -1  -6  782.72   17.40
  -2   1   6  773.62   17.40
  -2   1   6  762.52   17.70
   1  -1  -6   68.89    6.60
   1  -1  -6   76.69    7.00
  -1   1   6   69.59    6.70
  -1   1   6   74.29    7.10
   0  -1  -6   86.99   10.00
   0  -1  -6   92.79    8.80
   0  -1  -6   81.49    7.40
   0   1   6   95.79    7.70
   0   1   6   89.29    8.40
   0   1   6   92.69    7.70
  -1  -1  -6  298.57   12.60
  -1  -1  -6  307.27   12.80
  -1  -1  -6  315.07   13.40
   1   1   6  297.97   12.30
   1   1   6  316.27   12.40
   1   1   6  323.97   12.60
  -2  -1  -6  296.77   13.50
   2   1   6  255.87   13.30
   2   1   6  264.77   12.90
  -3  -1  -6   -0.40    7.60
   3   1   6   -5.60   10.10
   3   1   6   16.60    7.40
  -4  -1  -6   27.10    8.90
  -4  -1  -6   13.10    9.10
  -4  -1  -6   11.10   10.20
   4   1   6    3.60    8.20
   4   1   6   25.70    9.70
   9  -2  -6  -14.80   12.50
  -9   2   6    6.00    8.60
   8  -2  -6   22.30    8.80
   8  -2  -6   12.20    8.30
  -8   2   6   -2.00    7.50
  -8   2   6   15.60   11.00
   7  -2  -6   16.30    7.20
   7  -2  -6    9.80    7.70
  -7   2   6    2.70    7.60
  -7   2   6    8.70    7.50
   6  -2  -6    4.80    6.30
  -6   2   6    4.40    7.00
  -6   2   6   -2.30   11.50
   5  -2  -6  273.27   12.00
   5  -2  -6  290.77   12.50
  -5   2   6  275.37   12.40
  -5   2   6  267.67   15.80
   4  -2  -6  206.08   10.70
  -4   2   6  196.28   10.60
  -4   2   6  197.38   10.50
   3  -2  -6   48.10    6.90
   3  -2  -6   37.60    5.80
   3  -2  -6   63.29    7.30
  -3   2   6   45.80    6.70
  -3   2   6   38.80    6.40
   2  -2  -6   19.80    5.10
   2  -2  -6   12.70    6.20
   2  -2  -6   10.30    5.60
  -2   2   6   19.20    6.60
  -2   2   6    9.70    5.60
   1  -2  -6    3.60    6.70
   1  -2  -6    4.70    6.10
  -1   2   6   -9.20    5.70
  -1   2   6    4.00    5.80
   0  -2  -6   11.40    6.40
   0  -2  -6   13.00    6.60
   0  -2  -6   17.90    7.50
   0   2   6   21.80    6.80
   0   2   6   27.70    7.00
   0   2   6   17.40    6.50
  -1  -2  -6   -4.40    7.30
  -1  -2  -6    4.10    6.70
  -1  -2  -6    6.40    7.50
   1   2   6    0.30    7.30
   1   2   6    9.90    6.90
   1   2   6    2.90    7.00
  -2  -2  -6   37.60    7.90
   2   2   6   24.50    7.90
   2   2   6   27.50    8.20
   2   2   6   49.30    8.70
  -3  -2  -6    4.40    8.30
   3   2   6   -9.20    8.30
   3   2   6    9.30    6.90
   3   2   6    5.40    7.80
  -4  -2  -6   18.50    9.00
  -4  -2  -6   19.60   10.30
   4   2   6   11.90    9.70
   4   2   6   28.70    9.10
   8  -3  -6    2.90    7.70
   8  -3  -6   11.70    9.00
  -8   3   6    1.30    8.10
  -8   3   6    3.30   11.10
   7  -3  -6    7.60    7.60
   7  -3  -6   -3.00    7.20
  -7   3   6   -9.10    8.70
  -7   3   6    8.60    7.40
   6  -3  -6   19.20    6.90
  -6   3   6   22.90    7.50
  -6   3   6   20.60    7.20
   5  -3  -6  198.78   11.80
   5  -3  -6  180.48   11.30
  -5   3   6  188.18   13.90
   4  -3  -6  424.46   14.30
   4  -3  -6  423.86   13.50
   4  -3  -6  425.66   15.40
  -4   3   6  439.46   14.20
  -4   3   6  425.96   14.30
   3  -3  -6   97.59   10.70
   3  -3  -6  101.09    8.40
   3  -3  -6  101.39    8.50
  -3   3   6  117.99   10.10
  -3   3   6   98.39    8.20
  -3   3   6  110.99    9.90
   2  -3  -6    2.90    6.80
   2  -3  -6   -5.10    6.20
   2  -3  -6    0.70    5.30
  -2   3   6   -1.40    5.40
  -2   3   6    1.40    6.50
  -2   3   6    4.30    6.10
   1  -3  -6   78.09    7.40
   1  -3  -6   75.19    7.80
   1  -3  -6   64.99    8.70
  -1   3   6   76.89    7.90
  -1   3   6   78.29    7.70
   0  -3  -6   33.30    7.40
   0  -3  -6   32.60    8.70
   0  -3  -6   22.80    6.60
   0   3   6   35.10    7.40
   0   3   6   24.60    7.80
  -1  -3  -6   43.80    8.00
  -1  -3  -6   28.80    8.60
  -1  -3  -6   34.10    7.10
   1   3   6   33.50    7.40
   1   3   6   34.30    7.80
   1   3   6   36.10    9.10
  -2  -3  -6   71.99    8.50
   2   3   6   82.99    9.30
   2   3   6   70.69    8.70
   2   3   6   82.49   10.40
  -3  -3  -6    9.70   15.80
  -3  -3  -6    7.00    7.70
  -3  -3  -6   18.50   10.50
   3   3   6   12.30   13.10
   3   3   6    5.60    8.30
   3   3   6    3.20    8.50
   8  -4  -6   16.60    8.30
   8  -4  -6   16.80    9.80
  -8   4   6    8.10    8.60
   7  -4  -6    4.10    7.50
   7  -4  -6    0.10    7.60
  -7   4   6   30.20   13.50
  -7   4   6   -5.40    8.80
  -7   4   6   -7.00    7.30
   6  -4  -6   57.49    7.90
   6  -4  -6   43.70   15.00
  -6   4   6   69.19    9.10
  -6   4   6   62.39    9.60
   5  -4  -6    3.00    6.80
  -5   4   6   14.80    6.90
  -5   4   6    9.00    8.20
   4  -4  -6   11.60    7.00
   4  -4  -6   28.80    8.50
  -4   4   6   18.60    7.10
  -4   4   6   29.60    7.00
   3  -4  -6  447.86   14.50
   3  -4  -6  450.85   11.00
   3  -4  -6  421.96   13.60
   3  -4  -6  440.46   15.80
  -3   4   6  434.16   14.70
  -3   4   6  411.26   13.20
  -3   4   6  407.66   21.00
   2  -4  -6  108.49   10.50
   2  -4  -6   98.29    9.50
   2  -4  -6  127.39    9.60
   2  -4  -6  114.29   10.80
  -2   4   6   93.39    9.70
  -2   4   6  114.09    8.90
   1  -4  -6  439.66   17.30
   1  -4  -6  462.35   14.90
   1  -4  -6  417.66   13.60
  -1   4   6  422.06   14.30
  -1   4   6  422.16   14.10
   0  -4  -6  114.19   11.10
   0  -4  -6  141.59   11.00
   0  -4  -6  114.69    9.60
   0   4   6  124.49   13.50
   0   4   6  141.19   10.90
   0   4   6  120.99   10.90
  -1  -4  -6   33.10    9.90
  -1  -4  -6   26.20    7.50
   1   4   6   36.00    9.00
   1   4   6   14.00    7.60
   1   4   6   37.40    7.80
  -2  -4  -6    8.30   10.50
  -2  -4  -6    1.70    7.60
  -2  -4  -6    9.20    7.20
   2   4   6   -0.70    7.90
   2   4   6    1.10    7.50
  -3  -4  -6   34.30   10.00
  -3  -4  -6   88.99   10.70
  -3  -4  -6   67.49    9.00
   3   4   6   98.99   27.20
   3   4   6   66.49    9.70
   3   4   6   80.59   10.50
   8  -5  -6    8.00   13.20
   8  -5  -6   -4.90    8.00
  -8   5   6   14.10   14.20
   7  -5  -6    0.40    8.60
   7  -5  -6    3.70    7.80
  -7   5   6    1.40    7.40
  -7   5   6   49.80   17.20
  -7   5   6    1.20    9.60
   6  -5  -6   68.59   10.40
  -6   5   6   77.79    8.90
  -6   5   6   93.69   16.70
  -6   5   6   70.99    9.40
   5  -5  -6    1.10    7.40
   5  -5  -6   -6.70    8.70
  -5   5   6   -2.90    7.70
  -5   5   6    3.50    6.80
   4  -5  -6   -3.10    8.50
   4  -5  -6   15.00    7.70
  -4   5   6    9.90    7.10
  -4   5   6   -8.60    7.20
   3  -5  -6    4.10    9.50
   3  -5  -6    1.10    5.40
   3  -5  -6    7.30    4.60
   3  -5  -6   -6.90    7.00
  -3   5   6   -5.30    7.00
  -3   5   6    3.60    6.30
  -3   5   6    3.60    6.90
   2  -5  -6    9.00    8.60
   2  -5  -6   11.80    5.90
   2  -5  -6    6.20    7.30
   2  -5  -6   17.30    6.10
   2  -5  -6    9.40   15.70
  -2   5   6   10.50    6.50
  -2   5   6   18.90    7.50
   1  -5  -6   10.60    7.20
   1  -5  -6    1.20    8.50
   1  -5  -6    4.30    4.00
   1  -5  -6   14.10    7.20
  -1   5   6   27.50    7.30
  -1   5   6    8.00    6.90
  -1   5   6    4.30    6.60
   0  -5  -6    5.70    8.70
   0  -5  -6   15.40    6.80
   0  -5  -6    5.30    7.40
   0   5   6   -0.50    6.30
   0   5   6    7.40    7.30
   0   5   6   21.20    7.40
  -1  -5  -6   -3.90    9.10
  -1  -5  -6   12.50    7.20
  -1  -5  -6    1.80    8.00
  -1  -5  -6   24.90    7.40
  -1  -5  -6   17.60   10.00
   1   5   6   -4.60   18.50
   1   5   6    2.30    7.30
   1   5   6   -8.40    7.40
  -2  -5  -6    3.00    8.40
  -2  -5  -6    7.30   14.90
  -2  -5  -6    6.10    9.20
  -2  -5  -6    6.40    7.50
   2   5   6  -13.70    7.70
   2   5   6   17.70   14.00
   2   5   6    3.00    8.10
   7  -6  -6   -0.10    8.00
   7  -6  -6   -1.30    8.00
  -7   6   6    6.00   10.00
  -7   6   6    0.60    8.10
   6  -6  -6  -11.20   10.50
   6  -6  -6   -5.20    8.60
   6  -6  -6    0.20    7.60
  -6   6   6   -3.30    7.80
  -6   6   6   22.00    9.70
   5  -6  -6    4.10    9.10
   5  -6  -6    5.30    7.80
   5  -6  -6  -10.30    6.60
  -5   6   6   17.40    7.70
  -5   6   6   -0.10    8.20
   4  -6  -6    8.50    7.30
   4  -6  -6    6.90    8.90
   4  -6  -6    3.60    7.70
  -4   6   6  -10.60    8.00
  -4   6   6   -3.00    7.10
   3  -6  -6   66.79   10.20
   3  -6  -6   76.49    7.20
   3  -6  -6   73.59    8.40
   3  -6  -6   59.79   10.80
  -3   6   6   81.59    8.60
  -3   6   6   97.59    9.80
  -3   6   6   65.19    8.40
   2  -6  -6    4.00    7.10
   2  -6  -6    3.30    8.60
   2  -6  -6    5.60    6.00
  -2   6   6   -6.20    6.00
  -2   6   6  -10.80    7.30
   1  -6  -6   21.90    9.50
   1  -6  -6   19.90    7.30
   1  -6  -6   24.30   12.20
   1  -6  -6    9.90    9.40
  -1   6   6   18.40    8.00
  -1   6   6   24.50    7.40
   0  -6  -6   32.40    7.50
   0  -6  -6   27.60    9.10
   0  -6  -6   30.40    8.20
   0  -6  -6   27.60    7.30
   0  -6  -6   31.50   10.20
   0   6   6   24.20    7.90
   0   6   6   31.40    8.40
   0   6   6   37.10   12.90
   0   6   6   45.50    8.10
  -1  -6  -6    2.60    8.20
  -1  -6  -6    0.50   11.60
  -1  -6  -6    1.40    5.30
   1   6   6   -3.50    7.60
   1   6   6   -1.70    7.80
   1   6   6    0.30    7.40
   6  -7  -6   15.80    8.80
   6  -7  -6   28.80    9.30
   6  -7  -6    9.40   10.60
  -6   7   6   88.99   22.40
  -6   7   6   44.90   10.60
  -6   7   6   45.00   10.40
   5  -7  -6   54.19    7.80
   5  -7  -6   49.60   11.10
   5  -7  -6   75.39    9.20
  -5   7   6   53.59    8.60
  -5   7   6   55.19    9.80
  -5   7   6  109.69   21.00
   4  -7  -6   -0.70    8.70
   4  -7  -6    4.00    9.40
   4  -7  -6   -8.60    7.60
   4  -7  -6  -11.10    7.10
  -4   7   6   -2.00    7.50
  -4   7   6    2.40    8.20
   3  -7  -6   29.20   10.20
   3  -7  -6   28.70    8.80
   3  -7  -6   17.70    7.70
   3  -7  -6   22.20    9.60
   3  -7  -6   20.70    7.60
  -3   7   6   18.50    8.40
  -3   7   6   11.10    7.90
   2  -7  -6   13.20    7.20
   2  -7  -6   -7.20    9.10
   2  -7  -6    9.30    7.30
   2  -7  -6   -1.10    8.90
   2  -7  -6    0.50    5.80
  -2   7   6    1.50    6.90
  -2   7   6  -11.30    7.60
   1  -7  -6   28.10    6.70
   1  -7  -6   23.40    9.70
   1  -7  -6   38.70    7.50
   1  -7  -6   48.80   16.30
   1  -7  -6   51.39    8.50
  -1   7   6   59.19    8.20
  -1   7   6   29.00    8.50
  -1   7   6   44.40    8.00
  -1   7   6   52.19    8.90
   0  -7  -6    5.80    9.20
   0  -7  -6   -6.40    7.80
   0  -7  -6   -5.70    9.80
   0  -7  -6    8.80   16.60
   0   7   6    6.70    7.60
   0   7   6    2.70    7.50
   0   7   6   -0.80    7.90
   4  -8  -6   13.70    8.90
   4  -8  -6   -1.00    7.50
   4  -8  -6    0.20    9.00
   4  -8  -6   -2.00    7.30
  -4   8   6   10.00    8.40
  -4   8   6   27.70   19.20
  -4   8   6    1.90    8.90
   3  -8  -6   10.00    8.60
   3  -8  -6   -6.60    7.90
   3  -8  -6    0.70    9.60
   3  -8  -6   10.50    7.50
  -3   8   6   -1.30    8.20
  -3   8   6   12.90    8.50
   3  10  -7   61.09   11.40
   3  10  -7    8.90   12.50
   3  10  -7   35.20   10.10
   3  10  -7   17.20    7.50
   3  10  -7   20.20   11.20
  -3 -10   7   31.40   11.80
   2  10  -7   63.59   10.90
   2  10  -7  103.69   11.30
   2  10  -7   71.09   19.70
   2  10  -7   44.90   15.90
   2  10  -7   62.89    8.40
   2  10  -7   70.29   12.90
  -2 -10   7   94.19   15.70
  -2 -10   7   79.09   10.10
  -2 -10   7   78.09   13.50
   1  10  -7   32.80    9.10
   1  10  -7   -5.20    9.50
   1  10  -7   19.20    8.40
   1  10  -7  -23.00   13.20
  -1 -10   7   14.10   10.60
  -1 -10   7   18.60   11.10
  -1 -10   7   13.80    8.30
   0  10  -7   96.09   17.00
   0  10  -7  114.39    9.40
   0  10  -7  115.59    9.70
   0  10  -7  108.99   15.40
   0  10  -7  104.69   13.20
   0 -10   7  106.49   11.30
   0 -10   7   82.19   13.20
   0 -10   7  128.89   17.00
  -1  10  -7  -21.10   12.10
  -1  10  -7   -6.60    6.60
  -1  10  -7    5.70   15.90
  -1  10  -7    2.50    9.40
   1 -10   7    9.40    7.80
   1 -10   7   14.50    9.50
   1 -10   7   12.10   10.80
   1 -10   7    1.80    3.50
   1 -10   7   15.50    7.90
  -2  10  -7    9.40    8.10
  -2  10  -7    5.50    7.60
  -2  10  -7   17.50   10.70
  -2  10  -7   17.50    8.60
   2 -10   7   21.20    6.90
   2 -10   7   28.70   12.40
   2 -10   7   -5.60   10.30
   2 -10   7    9.10    8.90
   4   9  -7    2.20    9.70
   4   9  -7    0.80    5.80
   4   9  -7  -23.00   10.50
   4   9  -7   -0.40   10.30
   4   9  -7   -2.10   10.30
  -4  -9   7   13.20   11.70
   3   9  -7   63.29   10.60
   3   9  -7   20.80   17.80
   3   9  -7   27.60    9.40
  -3  -9   7   45.10   12.20
  -3  -9   7   39.00   11.50
   2   9  -7  395.56   19.70
   2   9  -7  434.86   16.20
   2   9  -7  412.26   18.80
   2   9  -7  489.95   19.60
  -2  -9   7  434.56   21.00
  -2  -9   7  470.75   16.90
  -2  -9   7  482.75   22.00
   1   9  -7   17.40    9.20
   1   9  -7   20.60    5.80
   1   9  -7   29.70    7.80
   1   9  -7   20.40    6.30
   1   9  -7   12.70    7.90
  -1  -9   7   36.60   12.40
  -1  -9   7    4.50    3.70
  -1  -9   7   24.00   10.70
  -1  -9   7   19.30    5.90
  -1  -9   7   38.70    8.70
   0   9  -7   32.70    6.60
   0   9  -7   26.70   12.80
   0   9  -7   43.10    9.60
   0   9  -7   57.59    8.20
   0   9  -7   29.50    7.70
   0  -9   7   42.70   11.10
   0  -9   7   40.70   11.10
   0  -9   7   48.70    6.50
   0  -9   7   47.30    9.40
  -1   9  -7   83.99   10.90
  -1   9  -7  123.29   10.30
  -1   9  -7   78.19   14.40
  -1   9  -7  156.48   14.10
   1  -9   7  125.89   15.80
   1  -9   7  123.29   11.00
   1  -9   7  113.59    9.70
   1  -9   7  143.49   14.70
   1  -9   7  121.19   10.30
   1  -9   7  125.39   17.60
  -2   9  -7  -11.40   12.40
  -2   9  -7   21.40    9.60
  -2   9  -7   12.00    7.50
  -2   9  -7   22.60    8.60
   2  -9   7   24.30   11.10
   2  -9   7   24.80   11.00
   2  -9   7   21.00    7.80
   2  -9   7   19.00    6.70
   2  -9   7   23.70   10.60
  -3   9  -7    4.60   10.20
  -3   9  -7   -0.90    7.90
  -3   9  -7   -3.00    9.20
   3  -9   7   -1.50    8.70
   3  -9   7   -0.40    7.30
   5   8  -7   17.00    9.40
   5   8  -7   17.90    7.30
   5   8  -7   14.60    8.00
  -5  -8   7   33.30   11.30
  -5  -8   7    4.80   10.20
   4   8  -7   61.29   10.40
   4   8  -7   58.09    8.50
   4   8  -7   23.30   10.20
  -4  -8   7   67.59   19.20
  -4  -8   7   34.50   10.60
  -4  -8   7   45.40   11.70
   3   8  -7   76.49   11.50
   3   8  -7   70.19    7.90
   3   8  -7   87.59   12.30
  -3  -8   7   75.79    6.10
  -3  -8   7   72.99   12.20
  -3  -8   7  113.29   16.00
   2   8  -7   59.79    6.40
   2   8  -7   66.19    6.70
   2   8  -7   60.49    8.40
  -2  -8   7   68.19    5.90
  -2  -8   7   58.09    8.00
  -2  -8   7   54.49   11.10
  -2  -8   7   66.29    6.10
  -2  -8   7   49.40   11.00
   1   8  -7  109.09    8.40
   1   8  -7  114.69    9.40
  -1  -8   7  109.39    8.90
  -1  -8   7   99.59    8.00
  -1  -8   7  113.39   11.70
  -1  -8   7   90.59   12.60
  -1  -8   7  118.19   16.30
   0   8  -7  223.98   13.00
   0   8  -7  188.38   10.80
   0  -8   7  192.48   10.10
   0  -8   7  215.28   17.90
   0  -8   7  195.18   16.00
   0  -8   7  214.78   14.20
   0  -8   7  195.58   10.40
  -1   8  -7   24.50    5.60
  -1   8  -7   10.20    7.50
  -1   8  -7   39.00    7.40
   1  -8   7   41.80   11.00
   1  -8   7   43.90    7.10
   1  -8   7   41.50   11.00
  -2   8  -7   -6.00    8.20
  -2   8  -7    7.50    5.00
  -2   8  -7   -0.40    7.00
   2  -8   7    3.20    6.80
   2  -8   7   -0.50    7.70
   2  -8   7    0.40   10.00
   2  -8   7    6.50   10.40
  -3   8  -7  128.49   11.60
  -3   8  -7   85.09    9.20
   3  -8   7   96.79    9.50
   3  -8   7  126.99   10.80
   3  -8   7  121.39   15.40
   3  -8   7  126.69   15.60
  -4   8  -7   16.30   11.70
  -4   8  -7   13.40   11.20
  -4   8  -7   22.30   15.40
   4  -8   7    7.80    8.40
   6   7  -7   24.60    9.90
   6   7  -7   -1.60    5.90
   6   7  -7   -9.30   10.10
   6   7  -7    8.70    8.00
   6   7  -7    8.30    6.20
  -6  -7   7   18.10   10.70
  -6  -7   7   -6.60   11.50
  -6  -7   7   25.60   17.60
   5   7  -7    2.00    9.20
   5   7  -7    5.40    7.10
   5   7  -7   -0.20    5.60
   5   7  -7    3.60    5.70
   5   7  -7  -17.50    7.70
  -5  -7   7    2.30   10.60
  -5  -7   7    8.40   10.30
  -5  -7   7   11.80   10.40
   4   7  -7   27.60    5.90
   4   7  -7   23.90    7.10
   4   7  -7   21.50    6.40
   4   7  -7    7.70   15.60
  -4  -7   7   23.60    9.80
  -4  -7   7   25.80   11.00
  -4  -7   7   36.50    9.70
  -4  -7   7   18.40    5.10
  -4  -7   7   12.10    5.30
   3   7  -7   17.20    5.60
   3   7  -7    0.60    4.70
   3   7  -7   13.30    5.60
  -3  -7   7   15.70    5.20
  -3  -7   7    1.30    9.80
  -3  -7   7    7.80    9.20
  -3  -7   7   10.40    8.70
  -3  -7   7   10.90    5.10
   2   7  -7    4.00    5.40
   2   7  -7   -1.00    7.90
   2   7  -7    7.70    8.40
   2   7  -7    2.70    6.90
  -2  -7   7    1.50    5.30
  -2  -7   7    4.10    6.90
  -2  -7   7    6.50    9.80
  -2  -7   7    5.40   11.60
  -2  -7   7    8.20    5.20
   1   7  -7   71.99    9.90
   1   7  -7   65.79    9.50
   1   7  -7   56.99    7.00
  -1  -7   7   73.29   12.80
  -1  -7   7   78.49    8.70
  -1  -7   7   77.49   10.80
  -1  -7   7   61.39   11.80
  -1  -7   7   66.19    6.70
   0   7  -7   52.39    9.30
   0   7  -7   61.99    9.10
   0   7  -7   60.19    7.70
   0  -7   7   62.99   11.60
   0  -7   7   58.49    7.10
   0  -7   7   66.89   11.90
   0  -7   7   71.29    7.20
  -1   7  -7  187.18   13.80
  -1   7  -7  183.08   11.30
  -1   7  -7  182.28   13.30
   1  -7   7  192.88   15.70
   1  -7   7  163.38   17.30
   1  -7   7  175.88   11.20
  -2   7  -7   -3.00    7.10
  -2   7  -7  -15.20    7.60
  -2   7  -7    5.00    8.70
   2  -7   7    7.30   10.80
   2  -7   7   -2.30    9.50
   2  -7   7    4.60    6.80
  -3   7  -7   31.60    8.10
  -3   7  -7   23.60    9.10
  -3   7  -7   58.39   10.70
   3  -7   7   12.30    9.00
   3  -7   7   22.30   11.60
   3  -7   7   30.60   10.90
   3  -7   7   31.60   10.20
  -4   7  -7   29.60   11.60
  -4   7  -7   -0.80    8.40
  -4   7  -7   14.80   10.50
   4  -7   7   -1.00    7.90
   4  -7   7   -2.40   11.40
   4  -7   7   -0.60    9.20
   7   6  -7   26.00    7.30
   7   6  -7   27.10    9.50
   7   6  -7   18.80    6.90
   7   6  -7   29.30    8.80
  -7  -6   7   22.90   11.40
  -7  -6   7   13.60   11.50
  -7  -6   7   27.90    7.30
  -7  -6   7   34.90   10.90
   6   6  -7   39.80    7.00
   6   6  -7   33.90    7.80
   6   6  -7   38.70    8.40
   6   6  -7   49.40    7.30
  -6  -6   7   41.90   10.90
  -6  -6   7   29.90    5.70
  -6  -6   7   45.20   10.70
  -6  -6   7   31.20   11.70
   5   6  -7   38.80    7.80
   5   6  -7   39.70    6.60
   5   6  -7   38.60    7.00
  -5  -6   7   57.59   11.50
  -5  -6   7   35.50    9.60
  -5  -6   7   45.90    9.70
  -5  -6   7   44.20    6.20
  -5  -6   7   53.49    9.50
   4   6  -7  105.09    9.10
   4   6  -7  111.29    9.50
   4   6  -7  106.89    9.60
  -4  -6   7  107.79   13.40
  -4  -6   7   91.49   11.20
  -4  -6   7  101.79    8.40
  -4  -6   7  102.49   13.60
  -4  -6   7  111.49   13.60
   3   6  -7   44.90    6.40
   3   6  -7   34.70    8.60
   3   6  -7   56.99    6.60
  -3  -6   7   37.80    5.80
  -3  -6   7   51.89    6.70
  -3  -6   7   47.70   11.80
  -3  -6   7   61.19    6.30
  -3  -6   7   54.79    9.50
  -3  -6   7   42.50    9.80
   2   6  -7  153.18   14.60
   2   6  -7  154.88    9.50
   2   6  -7  156.08    9.80
   2   6  -7  148.39   12.20
  -2  -6   7  154.88   14.70
  -2  -6   7  146.59   13.70
  -2  -6   7  144.39   15.20
  -2  -6   7  148.79   10.50
  -2  -6   7  155.28    8.80
   1   6  -7   72.29    7.70
   1   6  -7   60.79   13.00
   1   6  -7   69.09    7.10
   1   6  -7   51.39   14.70
  -1  -6   7   54.39   10.70
  -1  -6   7   55.89   12.30
  -1  -6   7   75.99    7.10
  -1  -6   7   66.59    6.80
   0   6  -7  447.96   19.70
   0   6  -7  478.85   18.10
   0   6  -7  485.25   16.70
   0  -6   7  476.55   21.80
   0  -6   7  480.75   14.20
   0  -6   7  485.35   14.00
   0  -6   7  482.35   29.50
  -1   6  -7   98.49   15.90
  -1   6  -7  113.69   12.90
  -1   6  -7  120.19   11.00
   1  -6   7  115.19   10.30
   1  -6   7  121.19   14.50
   1  -6   7  133.39   10.20
  -2   6  -7    7.20   12.60
  -2   6  -7   -5.60    7.10
  -2   6  -7   18.20    8.40
   2  -6   7    1.70   11.70
   2  -6   7   -6.10    7.00
  -3   6  -7   13.30    9.80
  -3   6  -7   -5.10    8.50
  -3   6  -7    9.70    7.60
   3  -6   7   -9.10   12.20
   3  -6   7   28.50   18.00
   3  -6   7   -0.50    8.80
  -4   6  -7   39.30   13.50
  -4   6  -7   19.30   10.20
  -4   6  -7   11.90    8.90
   4  -6   7   12.50   13.60
   4  -6   7   39.80   17.80
   4  -6   7   13.00    8.40
   4  -6   7   12.60    9.30
   7   5  -7    7.40    7.10
   7   5  -7   11.50    7.50
   7   5  -7    7.10    9.20
   7   5  -7   10.70    7.30
  -7  -5   7   -0.70    6.40
  -7  -5   7   24.90   10.50
  -7  -5   7   16.70   11.80
  -7  -5   7   12.70    7.40
  -7  -5   7    3.50    9.80
   6   5  -7  226.88   12.10
   6   5  -7  217.78   11.40
  -6  -5   7  238.38   16.70
  -6  -5   7  217.18   10.90
  -6  -5   7  224.48   16.20
  -6  -5   7  231.18   16.90
   5   5  -7   97.59    9.80
   5   5  -7   76.89    7.60
   5   5  -7   74.79    7.50
  -5  -5   7   87.79   10.90
  -5  -5   7   82.49   12.60
  -5  -5   7   77.69    7.90
  -5  -5   7   72.39   10.20
  -5  -5   7   82.59    7.10
   4   5  -7   55.99    6.80
   4   5  -7   55.09    6.80
   4   5  -7   65.19    7.00
  -4  -5   7   55.49    6.30
  -4  -5   7   40.80    9.30
  -4  -5   7   60.29   18.70
  -4  -5   7   53.69    9.40
  -4  -5   7   43.60    9.30
   3   5  -7   47.50    6.70
   3   5  -7   40.00    6.30
  -3  -5   7   34.40    5.70
  -3  -5   7   42.80    8.80
  -3  -5   7   37.60    9.50
  -3  -5   7   46.20   11.80
  -3  -5   7   33.20    6.30
  -3  -5   7   34.00    8.30
   2   5  -7   99.99    7.50
   2   5  -7  110.59    9.30
   2   5  -7   93.59   10.80
  -2  -5   7   94.59   11.60
  -2  -5   7   98.19    8.80
  -2  -5   7  123.39   11.50
  -2  -5   7   98.19    8.30
  -2  -5   7   97.29    9.00
  -2  -5   7   93.09   11.90
   1   5  -7  251.97   11.80
   1   5  -7  263.57   12.70
   1   5  -7  248.08   14.30
   1   5  -7  237.18   10.90
  -1  -5   7  263.17   11.10
  -1  -5   7  229.18   15.50
  -1  -5   7  247.18   17.70
  -1  -5   7  236.78   10.30
   0   5  -7  159.68   13.70
   0   5  -7  141.59   11.10
   0   5  -7  149.99   10.60
   0  -5   7  150.38   10.30
   0  -5   7  148.89   14.30
   0  -5   7  167.38   17.30
   0  -5   7  149.29    9.80
  -1   5  -7   26.10    8.40
  -1   5  -7   33.10    9.60
   1  -5   7   40.70   10.10
   1  -5   7   23.00    6.90
   1  -5   7    5.30    5.10
  -2   5  -7   -5.90    7.20
  -2   5  -7    0.50    7.80
  -2   5  -7   10.30    7.90
   2  -5   7    5.90    6.90
   2  -5   7    2.00    8.70
  -3   5  -7  113.79   10.10
  -3   5  -7  130.09   14.50
  -3   5  -7   94.89   10.00
   3  -5   7  106.39   10.50
   3  -5   7   74.39   14.30
   3  -5   7  115.09   13.90
  -4   5  -7    2.50    9.90
  -4   5  -7    7.80    8.30
   4  -5   7   10.80    8.50
   4  -5   7  -20.60   13.00
   4  -5   7    6.70   16.00
   4  -5   7   11.50    8.90
  -5   5  -7   34.60   12.80
  -5   5  -7   13.30   11.70
   5  -5   7   29.00   15.40
   5  -5   7   -6.40   14.70
   5  -5   7   12.00    9.50
   8   4  -7    3.40   15.10
   8   4  -7    1.30    8.40
   8   4  -7    1.50    7.50
  -8  -4   7   10.50   10.70
  -8  -4   7   12.80    8.50
  -8  -4   7   21.30   12.40
  -8  -4   7   13.80   12.70
  -8  -4   7   13.60    7.60
   7   4  -7   53.89    8.80
   7   4  -7   62.19    8.10
   7   4  -7   88.19    9.30
  -7  -4   7   77.79   12.60
  -7  -4   7   74.39   12.50
  -7  -4   7   69.99   13.40
  -7  -4   7   62.29    8.30
  -7  -4   7   66.69    8.00
   6   4  -7  102.59    8.40
   6   4  -7  116.09   11.10
   6   4  -7  106.59    9.90
  -6  -4   7   91.39   11.80
  -6  -4   7  100.59    8.30
  -6  -4   7   91.09   11.60
  -6  -4   7  111.99   13.70
   5   4  -7   49.60    8.20
   5   4  -7   50.89    7.10
   5   4  -7   27.70    7.70
  -5  -4   7   39.80    9.30
  -5  -4   7   46.80   14.90
  -5  -4   7   39.60    7.00
  -5  -4   7   41.10    6.50
  -5  -4   7   40.20    9.20
   4   4  -7  284.27   11.30
   4   4  -7  284.17   11.40
  -4  -4   7  306.97   17.40
  -4  -4   7  295.67   12.20
  -4  -4   7  272.87   14.50
  -4  -4   7  291.97   14.90
  -4  -4   7  270.27   15.10
  -4  -4   7  285.37   10.80
   3   4  -7  248.98   10.80
   3   4  -7  245.18   10.90
  -3  -4   7  241.78   12.50
  -3  -4   7  249.38   13.10
  -3  -4   7  252.27   16.40
  -3  -4   7  251.37   13.20
  -3  -4   7  240.18   16.00
   2   4  -7   -3.70    6.40
   2   4  -7    0.40    5.80
   2   4  -7   10.70    5.90
  -2  -4   7    3.60    6.70
  -2  -4   7   -2.30    5.70
  -2  -4   7    8.20    8.90
   1   4  -7  306.07   12.50
   1   4  -7  338.67   12.40
   1   4  -7  318.77   11.70
  -1  -4   7  310.67   16.30
  -1  -4   7  314.47   11.90
   0   4  -7  104.09    8.90
   0   4  -7   90.29    8.20
   0   4  -7   86.39    9.50
   0   4  -7  101.49    9.40
   0  -4   7  105.29   12.30
   0  -4   7   77.99    7.30
   0  -4   7   94.29    8.00
  -1   4  -7  442.96   15.90
  -1   4  -7  421.96   14.90
   1  -4   7  420.16   14.30
   1  -4   7  424.76   14.50
   1  -4   7  439.96   18.00
  -2   4  -7  112.19    9.80
  -2   4  -7   79.39    9.20
  -2   4  -7   85.39    9.10
   2  -4   7   83.99    8.80
   2  -4   7  106.99   11.70
   2  -4   7   69.49    8.00
  -3   4  -7   36.30    9.20
  -3   4  -7   30.80    8.90
   3  -4   7   42.00    9.50
   3  -4   7   24.40    8.40
   3  -4   7   13.90    8.00
  -4   4  -7   -8.30    9.00
  -4   4  -7    2.00    8.60
   4  -4   7   11.90    8.80
   4  -4   7  -13.60    8.70
   4  -4   7    3.20    8.80
  -5   4  -7   75.99   13.00
  -5   4  -7   67.69   10.80
   5  -4   7   91.29   11.90
   5  -4   7   98.09   13.50
   8   3  -7   60.99    9.20
   8   3  -7   76.29    9.10
   8   3  -7   84.49   12.40
  -8  -3   7   46.80   18.40
  -8  -3   7   45.50   21.20
  -8  -3   7   74.09    9.80
  -8  -3   7   65.19   12.10
  -8  -3   7   59.99    9.00
   7   3  -7   -4.10    7.00
   7   3  -7    0.50    6.40
   7   3  -7    5.00    7.70
  -7  -3   7   -0.60   10.80
  -7  -3   7   -1.30    7.20
  -7  -3   7   -3.10   11.40
  -7  -3   7    5.40    7.10
  -7  -3   7   13.60   10.70
   6   3  -7  288.17   11.60
   6   3  -7  310.27   13.00
   6   3  -7  280.47   12.50
  -6  -3   7  281.17   16.90
  -6  -3   7  303.67   12.70
  -6  -3   7  253.97   28.30
  -6  -3   7  297.77   17.90
   5   3  -7   11.70    5.60
   5   3  -7   25.50    6.80
  -5  -3   7   15.90    6.70
  -5  -3   7   25.20   11.10
  -5  -3   7   15.40    9.00
  -5  -3   7   28.00    9.60
   4   3  -7   12.70    6.00
   4   3  -7   12.70    6.30
  -4  -3   7    7.00    8.40
  -4  -3   7   13.00    9.80
  -4  -3   7   12.20    5.50
  -4  -3   7   10.30    6.50
  -4  -3   7   14.40    8.10
   3   3  -7  101.49    7.70
   3   3  -7  108.59    8.90
  -3  -3   7  111.49   11.30
  -3  -3   7   84.89   10.70
  -3  -3   7  100.39   10.20
   2   3  -7   67.59    7.50
   2   3  -7   84.99    7.60
   2   3  -7   87.69    7.80
  -2  -3   7   73.49    7.40
  -2  -3   7   70.09    7.70
  -2  -3   7   64.09    6.10
   1   3  -7  168.68   10.10
   1   3  -7  184.48   10.30
   1   3  -7  168.78    9.80
  -1  -3   7  164.48   10.00
  -1  -3   7  168.58    9.60
  -1  -3   7  168.38   14.30
  -1  -3   7  215.98   10.30
   0   3  -7  438.26   14.90
   0   3  -7  460.15   13.60
   0   3  -7  443.46   14.20
   0  -3   7  441.76   14.50
   0  -3   7  464.35   17.10
   0  -3   7  460.35   18.20
  -1   3  -7  224.98   11.00
  -1   3  -7  197.88   12.40
   1  -3   7  224.28   12.30
   1  -3   7  214.28   11.90
   1  -3   7  217.28   15.00
  -2   3  -7  138.59   12.50
  -2   3  -7  141.49   12.20
   2  -3   7  151.18   13.40
   2  -3   7  149.49   14.30
   2  -3   7  128.59   12.60
  -3   3  -7   41.50    8.90
  -3   3  -7   40.50    9.40
   3  -3   7   45.30    8.80
   3  -3   7   37.40    8.60
   3  -3   7   39.50    9.50
  -4   3  -7   80.89   11.50
  -4   3  -7   79.89   10.70
   4  -3   7  114.29   12.30
   4  -3   7   83.69   10.10
   4  -3   7  108.59   11.90
  -5   3  -7   -2.50   10.00
   5  -3   7   -2.20   11.50
   5  -3   7   -1.20   11.90
   8   2  -7   33.00    9.40
   8   2  -7   24.30    8.10
  -8  -2   7   12.00    8.40
  -8  -2   7   22.70    8.80
  -8  -2   7   -2.70   11.80
  -8  -2   7   67.89   12.60
   7   2  -7    6.00    7.80
   7   2  -7    5.50    7.10
   7   2  -7   13.80    5.90
  -7  -2   7   -1.00    7.40
  -7  -2   7    4.80   10.50
  -7  -2   7   10.20    7.90
   6   2  -7   21.10    5.50
   6   2  -7   28.20    7.40
   6   2  -7   18.30    7.00
  -6  -2   7   14.40    7.30
  -6  -2   7    3.70    4.40
  -6  -2   7   13.80   10.10
   5   2  -7 1051.19   26.20
   5   2  -7 1096.19   23.30
   5   2  -7 1077.29   21.70
  -5  -2   7 1076.99   23.20
  -5  -2   7 1039.10   22.90
  -5  -2   7 1094.89   26.40
   4   2  -7   -6.30    5.90
   4   2  -7    1.00    6.20
  -4  -2   7    1.30    5.20
  -4  -2   7   -3.50    5.90
  -4  -2   7   -1.90    6.80
  -4  -2   7    0.10    8.60
   3   2  -7  141.49    9.80
   3   2  -7  145.79    9.50
  -3  -2   7  174.08   10.60
  -3  -2   7  171.98    9.10
  -3  -2   7  151.98   11.50
  -3  -2   7  151.38   10.60
   2   2  -7  157.88    9.70
   2   2  -7  163.48    9.90
  -2  -2   7  170.88    9.20
  -2  -2   7  152.58   10.10
   1   2  -7   10.60    5.90
   1   2  -7    7.70    6.00
   1   2  -7    0.50    5.00
  -1  -2   7    6.50    5.80
  -1  -2   7    6.50    5.30
  -1  -2   7   13.20    6.30
   0   2  -7   98.39    8.00
   0   2  -7  111.39    9.10
   0   2  -7  100.49    7.80
   0   2  -7  130.79    9.70
   0  -2   7  123.19   11.30
   0  -2   7  117.69   10.50
  -1   2  -7   42.70    8.60
   1  -2   7   17.80    7.20
   1  -2   7   45.90    7.60
   1  -2   7   47.60   10.50
  -2   2  -7   29.40    9.50
  -2   2  -7   28.70    7.80
   2  -2   7   36.50    7.90
   2  -2   7   43.10   10.20
   2  -2   7   30.30    8.20
  -3   2  -7   -5.00    7.70
  -3   2  -7   -7.20    8.50
   3  -2   7    6.80    8.90
   3  -2   7    3.90    8.20
   3  -2   7    2.80    8.60
  -4   2  -7   21.80    9.60
  -4   2  -7   27.50   11.10
   4  -2   7   14.60    8.80
   4  -2   7   14.00    9.70
   8   1  -7   27.20    9.80
   8   1  -7   27.00    8.60
  -8  -1   7   25.30   13.50
  -8  -1   7   16.40    8.40
  -8  -1   7   18.90   10.40
   7   1  -7   52.99    8.70
   7   1  -7   50.29    8.70
  -7  -1   7   47.90    8.40
  -7  -1   7   76.29   12.30
   6   1  -7  779.12   16.80
   6   1  -7  744.53   19.60
   6   1  -7  789.52   19.60
  -6  -1   7  770.82   19.70
  -6  -1   7  787.22   23.60
   5   1  -7   96.89    7.30
   5   1  -7  115.69    9.30
   5   1  -7  111.79    8.50
  -5  -1   7  110.49    9.80
  -5  -1   7  120.79   13.10
  -5  -1   7   91.99    8.20
   4   1  -7   11.10    6.40
   4   1  -7   22.30    6.50
  -4  -1   7   12.90    5.80
  -4  -1   7   17.80    7.80
  -4  -1   7   21.50    6.40
   3   1  -7   36.80    6.70
   3   1  -7   17.80    6.10
  -3  -1   7   18.60    6.20
  -3  -1   7   19.70    6.30
  -3  -1   7   20.20    5.60
   2   1  -7    0.00    5.30
   2   1  -7   15.40    6.60
  -2  -1   7    0.10    5.90
  -2  -1   7    5.80    5.50
   1   1  -7   18.30    6.40
   1   1  -7   15.50    6.10
  -1  -1   7   19.20    5.20
  -1  -1   7   19.60    6.20
  -1  -1   7   14.30    6.60
   0   1  -7    7.80    6.50
   0   1  -7   -0.30    6.00
   0  -1   7   -0.20    6.10
   0  -1   7   -9.10    6.20
  -1   1  -7   11.40    7.10
  -1   1  -7    2.50    6.30
   1  -1   7    0.90    8.50
   1  -1   7    3.90    7.20
  -2   1  -7   16.90    7.70
   2  -1   7   -5.80    7.70
   2  -1   7    9.30    8.50
  -3   1  -7   10.90    8.40
  -3   1  -7    5.80    8.40
   3  -1   7    5.80    7.00
   3  -1   7   -7.30    9.00
   3  -1   7   -0.30    8.50
  -4   1  -7    3.50    9.00
  -4   1  -7   10.10    9.30
   4  -1   7   11.80    9.00
   4  -1   7   26.80   10.90
   8   0  -7   40.00    9.50
   8   0  -7   33.60    8.50
  -8   0   7   28.90    9.30
  -8   0   7   33.30    8.60
   7   0  -7   -7.20    7.40
   7   0  -7  -12.00    7.60
   6   0  -7    2.70    7.20
   6   0  -7    9.20    6.90
   6   0  -7    6.40    4.20
  -6   0   7    6.50    6.70
  -6   0   7   13.60    7.40
   5   0  -7  269.87   13.90
   5   0  -7  271.27   12.20
  -5   0   7  264.07   14.60
  -5   0   7  250.67   12.40
  -5   0   7  241.08   12.00
   4   0  -7  212.18   11.30
   4   0  -7  229.58   10.70
  -4   0   7  213.48   11.30
  -4   0   7  238.28   12.50
  -4   0   7  210.48   12.20
   3   0  -7  167.28   10.20
   3   0  -7  154.88    9.70
  -3   0   7  151.68    9.90
  -3   0   7  155.08   10.60
  -3   0   7  149.79    9.50
   2   0  -7  245.58   11.60
   2   0  -7  239.08   11.20
  -2   0   7  235.78   10.90
   1   0  -7   15.70    6.80
  -1   0   7   27.30    6.30
  -1   0   7   26.20    7.10
   0   0  -7   26.00    7.20
   0   0  -7   27.40    7.00
   0   0  -7   12.70    6.90
   0   0   7   30.10    7.10
   0   0   7   20.80    6.80
  -1   0  -7   18.50    8.40
  -1   0  -7   14.80    7.20
  -1   0  -7   20.20    7.70
   1   0   7   15.80    7.30
   1   0   7   25.90    6.30
   1   0   7   15.30   14.60
  -2   0  -7   -5.80    8.10
   2   0   7    3.50    8.20
   2   0   7    4.90    7.40
  -3   0  -7   84.69   11.00
   3   0   7  100.89   10.80
   3   0   7   66.99    8.80
  -4   0  -7   10.90   10.10
   4   0   7    2.80   10.80
   4   0   7    2.20   10.20
   8  -1  -7   -5.60    8.20
   8  -1  -7    1.40    9.50
  -8   1   7    7.20    8.10
  -8   1   7   -5.60    8.60
   7  -1  -7    3.20    7.80
   7  -1  -7   -2.30    7.80
  -7   1   7    5.20    7.90
  -7   1   7    8.20    7.90
   6  -1  -7    1.60    7.00
   6  -1  -7   -2.30    7.50
  -6   1   7    3.50    6.80
   5  -1  -7   39.50    7.10
   5  -1  -7   47.10    7.80
  -5   1   7   29.10    7.30
  -5   1   7   42.40    8.10
   4  -1  -7  175.78   10.40
   4  -1  -7  174.98   11.30
  -4   1   7  166.18   11.30
  -4   1   7  154.38   15.10
   3  -1  -7   76.69    7.80
   3  -1  -7   69.89    6.60
   3  -1  -7   53.49    7.80
  -3   1   7   69.89    8.60
  -3   1   7   60.19    8.00
  -3   1   7   62.49    7.80
   2  -1  -7    1.60    6.50
   2  -1  -7   -7.30    6.10
  -2   1   7    3.90    6.00
   1  -1  -7  125.39   11.30
   1  -1  -7  122.69   11.90
   1  -1  -7  123.99   10.20
  -1   1   7  139.99   10.50
  -1   1   7  126.29   10.50
   0  -1  -7  220.98   12.20
   0  -1  -7  214.18   13.10
   0  -1  -7  149.99   10.40
   0   1   7  209.28   12.20
   0   1   7  193.78   10.80
   0   1   7  194.68   15.10
  -1  -1  -7    5.70    7.80
  -1  -1  -7    8.20    7.40
   1   1   7   -3.70    7.40
   1   1   7    0.00    7.40
   1   1   7    5.60    6.90
  -2  -1  -7   74.29    9.30
   2   1   7   64.89    8.90
   2   1   7   77.99   10.00
   3   1   7   28.30    9.10
   3   1   7   15.00    8.20
   3   1   7   27.60    9.60
  -4  -1  -7  -14.00   11.20
   8  -2  -7   27.30    8.90
   8  -2  -7   28.70    9.70
  -8   2   7   41.60   10.50
  -8   2   7   28.70    8.60
   7  -2  -7    0.00    7.60
   7  -2  -7    0.20    7.70
  -7   2   7   12.20    7.60
  -7   2   7   -3.40    8.40
   6  -2  -7  171.48   11.90
   6  -2  -7  175.58   12.50
  -6   2   7  174.48   12.90
  -6   2   7  183.48   12.60
   5  -2  -7  164.58   11.50
   5  -2  -7  162.08   11.70
  -5   2   7  165.88   12.30
  -5   2   7  129.19   11.10
   4  -2  -7  283.97   13.10
   4  -2  -7  260.27   12.90
   4  -2  -7  278.47   12.10
  -4   2   7  284.27   20.40
  -4   2   7  274.97   13.30
   3  -2  -7  208.58   11.30
   3  -2  -7  195.48   11.70
   3  -2  -7  217.58   11.20
  -3   2   7  206.98   11.90
  -3   2   7  197.58   11.90
   2  -2  -7   91.79    7.80
   2  -2  -7  123.19   11.40
  -2   2   7  109.39   10.50
   1  -2  -7   30.90    5.60
   1  -2  -7   37.70    8.30
   1  -2  -7   26.80    8.70
  -1   2   7   31.50    7.30
  -1   2   7   28.90    8.10
   0  -2  -7   11.20    7.20
   0  -2  -7   15.40    7.90
   0   2   7   13.50    7.30
   0   2   7    7.90    7.40
   0   2   7   22.80    8.00
  -1  -2  -7   -3.80    7.60
  -1  -2  -7    2.00    8.40
   1   2   7    3.60    7.30
   1   2   7   -4.20    7.80
   1   2   7   -8.00    8.40
  -2  -2  -7    7.80    8.40
  -2  -2  -7    3.70    8.10
   2   2   7   11.50   10.00
   2   2   7   20.50    9.10
   2   2   7   13.80    8.10
  -3  -2  -7   70.39   10.20
  -3  -2  -7   70.09   11.10
   3   2   7   89.29   10.90
   3   2   7   81.39   10.00
   8  -3  -7   30.50   10.90
   8  -3  -7   33.60    9.50
  -8   3   7   30.90   10.50
  -8   3   7   32.10    9.60
   7  -3  -7  -10.70    8.20
   7  -3  -7  -13.00    8.30
  -7   3   7    5.90    8.10
  -7   3   7   34.60   13.80
  -7   3   7   -9.10    8.20
   6  -3  -7    5.30    7.70
   6  -3  -7   29.70    7.90
  -6   3   7   25.10    8.30
  -6   3   7   12.60    7.40
   5  -3  -7   56.39    8.20
   5  -3  -7   72.29    9.30
  -5   3   7   57.99    8.10
  -5   3   7   64.09    8.60
   4  -3  -7  117.09   12.20
   4  -3  -7  101.69    9.00
  -4   3   7  117.19   15.70
  -4   3   7   89.29    8.50
   3  -3  -7  104.69   11.40
   3  -3  -7  126.39   11.30
  -3   3   7  129.09   11.70
  -3   3   7  118.29    9.10
  -3   3   7  129.89   11.40
   2  -3  -7   10.90    7.40
   2  -3  -7    8.50    8.40
  -2   3   7   20.80    7.90
   1  -3  -7  102.79    9.70
   1  -3  -7   78.79   10.20
  -1   3   7   75.69    8.40
  -1   3   7   86.59    8.90
   0  -3  -7   21.90    7.60
   0  -3  -7   22.60    9.10
   0   3   7   28.90    7.80
   0   3   7   36.70    8.40
  -1  -3  -7    4.70    7.90
  -1  -3  -7    2.60    8.60
  -1  -3  -7    4.40    7.50
   1   3   7    7.40    8.30
   1   3   7    7.40    7.60
   1   3   7    4.60    8.40
  -2  -3  -7   29.50    9.00
  -2  -3  -7   18.90    8.30
   2   3   7   20.90    8.40
   2   3   7    4.40   15.40
   8  -4  -7    1.00    9.30
   8  -4  -7   31.40   10.70
  -8   4   7   26.90   11.80
  -8   4   7   22.00    9.20
   7  -4  -7   11.20   10.10
   7  -4  -7   -4.20    8.00
  -7   4   7   -1.60    9.10
  -7   4   7   16.60    7.90
   6  -4  -7    6.70    7.90
   6  -4  -7   -7.70    6.70
  -6   4   7    2.90    8.10
  -6   4   7   -5.30    8.20
   5  -4  -7    5.80   15.30
   5  -4  -7    8.20    7.60
  -5   4   7    5.80    7.30
  -5   4   7   13.80    8.00
   4  -4  -7   -2.70    7.60
   4  -4  -7    1.80    7.90
  -4   4   7   -4.60    9.90
  -4   4   7    3.80    6.00
  -4   4   7  -11.00    7.00
   3  -4  -7   35.70    7.90
   3  -4  -7   40.90    8.70
  -3   4   7   72.69    7.40
  -3   4   7   37.00    7.80
  -3   4   7   47.30    9.80
   2  -4  -7  345.77   17.00
   2  -4  -7  396.06   15.10
  -2   4   7  361.46   14.90
   1  -4  -7  275.37   16.10
   1  -4  -7  294.17   13.90
  -1   4   7  302.17   13.90
  -1   4   7  299.97   13.50
   0  -4  -7   32.70    8.20
   0  -4  -7   39.30    8.00
   0  -4  -7   31.50    9.60
   0   4   7   39.00    8.60
   0   4   7   32.70    8.20
   0   4   7   44.20   10.50
  -1  -4  -7   -3.10    8.90
  -1  -4  -7    5.60    7.70
   1   4   7    7.10    7.90
   1   4   7    4.00    8.40
  -2  -4  -7   33.10    9.70
  -2  -4  -7   25.30    8.60
  -2  -4  -7   25.20   10.80
   2   4   7   38.90    9.40
   2   4   7   70.89   13.80
   2   4   7   27.20    9.60
   7  -5  -7    1.50    9.10
   7  -5  -7   -1.50    9.00
  -7   5   7    7.20    8.70
  -7   5   7   40.50   19.80
  -7   5   7   -2.10   10.40
   6  -5  -7   11.20   10.20
   6  -5  -7   11.20    7.60
   6  -5  -7   -0.80    8.00
  -6   5   7    9.30    9.30
  -6   5   7   13.00    7.90
   5  -5  -7    2.40    8.10
   5  -5  -7    4.60    9.00
  -5   5   7   -7.20    7.20
  -5   5   7    0.40    8.70
   4  -5  -7   58.99    9.70
   4  -5  -7   49.30    8.30
   4  -5  -7   36.90    8.40
  -4   5   7   54.69    8.60
  -4   5   7   43.10    7.70
  -4   5   7   47.20   10.80
   3  -5  -7   29.30    8.90
   3  -5  -7   26.00    7.40
   3  -5  -7   12.00    9.40
   3  -5  -7   24.90    5.70
   3  -5  -7   12.20    7.80
  -3   5   7   21.40    8.50
  -3   5   7   27.00    7.90
  -3   5   7   10.10    6.20
   2  -5  -7   86.29    7.90
   2  -5  -7   90.49    8.90
   2  -5  -7   79.49   10.40
   2  -5  -7   97.49    9.60
  -2   5   7   95.59    9.80
  -2   5   7   73.49    8.20
   1  -5  -7  145.19   11.30
   1  -5  -7  167.18   12.50
   1  -5  -7  159.38   14.80
   1  -5  -7  165.68   11.80
  -1   5   7  180.28   13.20
  -1   5   7  190.48   12.60
   0  -5  -7   10.30    7.40
   0  -5  -7   -8.00    8.50
   0  -5  -7    0.00    7.60
   0   5   7    0.60    8.00
   0   5   7    3.10    8.00
  -1  -5  -7   46.50   12.40
  -1  -5  -7   50.59    8.60
  -1  -5  -7   26.00   11.60
  -1  -5  -7   53.89    9.70
  -1  -5  -7   28.70    9.90
   1   5   7   47.70    9.10
   1   5   7   74.39   15.70
   6  -6  -7   15.70    9.00
   6  -6  -7   -6.50   10.00
   6  -6  -7    1.00    8.70
  -6   6   7    5.10   10.40
  -6   6   7   28.10   21.00
  -6   6   7   -1.70    8.90
   5  -6  -7    9.30    9.90
   5  -6  -7   24.40    9.60
   5  -6  -7    5.90    8.20
  -5   6   7   13.90    8.30
  -5   6   7   22.10    9.70
   4  -6  -7   19.20    8.10
   4  -6  -7   27.80    9.50
   4  -6  -7   24.70    9.20
   4  -6  -7   21.70   11.20
  -4   6   7   16.40    8.00
  -4   6   7   13.70   10.50
   3  -6  -7   11.10    8.20
   3  -6  -7    1.60    5.10
   3  -6  -7   11.30    9.20
   3  -6  -7   -3.90    9.20
  -3   6   7   -1.70    8.50
  -3   6   7    1.40    4.30
   2  -6  -7    7.00    9.00
   2  -6  -7    1.50   12.90
   2  -6  -7    3.90    6.50
   2  -6  -7    3.60    7.80
  -2   6   7   11.00    8.60
  -2   6   7    4.00    7.80
   1  -6  -7   12.10    7.60
   1  -6  -7    9.20    7.50
   1  -6  -7  -11.80    9.70
   1  -6  -7   13.40   11.60
   1  -6  -7   -0.90    8.00
  -1   6   7   -0.90    8.50
  -1   6   7    7.40    7.90
  -1   6   7   -6.40    6.80
   0  -6  -7   12.30    8.30
   0  -6  -7   -1.10   12.20
   0   6   7   16.10    8.10
   5  -7  -7   11.20    9.90
   5  -7  -7  -23.60   14.80
   5  -7  -7    1.70   10.90
  -5   7   7    6.80   10.00
  -5   7   7   16.10    9.80
   4  -7  -7    8.30   10.40
   4  -7  -7   -0.80    8.70
   4  -7  -7   -0.40    8.50
   4  -7  -7    3.70    9.90
   4  -7  -7   -1.60    7.80
  -4   7   7   15.40   13.80
  -4   7   7    6.50    9.80
   3  -7  -7   -4.20    9.30
   3  -7  -7    1.70   10.40
   3  -7  -7    1.70    5.40
   3  -7  -7   13.90    8.10
   3  -7  -7    4.60   10.30
   3  -7  -7    8.00    9.00
  -3   7   7    6.60    9.40
  -3   7   7   -9.40    7.50
   2  10  -8   26.40    7.40
   2  10  -8   40.90   11.40
   2  10  -8   47.40   18.80
   2  10  -8   12.30   11.30
  -2 -10   8   36.60   11.50
  -2 -10   8   39.50   12.20
  -2 -10   8   39.40    9.40
   1  10  -8   33.00    6.70
   1  10  -8   29.60    9.30
   1  10  -8   29.10    7.50
   1  10  -8   37.30   11.70
  -1 -10   8   30.20    7.40
  -1 -10   8   37.90   11.80
  -1 -10   8   47.40    9.90
  -1 -10   8   44.10   13.20
   0  10  -8   78.19   12.30
   0  10  -8  106.69   10.10
   0  10  -8   65.59   10.00
   0  10  -8  135.99   10.50
   0 -10   8  107.09   24.40
   0 -10   8  137.59   15.00
   0 -10   8   97.09   14.50
   0 -10   8  107.79    9.90
  -1  10  -8   19.10   11.80
  -1  10  -8   14.10    9.70
  -1  10  -8    0.90    6.90
   1 -10   8   14.50   10.30
   1 -10   8   25.80   12.50
   1 -10   8   13.90    8.80
   1 -10   8   27.70   12.20
   1 -10   8   10.30    5.10
   4   9  -8  -11.00    7.10
   4   9  -8  -17.80   11.70
   4   9  -8   -4.90   10.50
  -4  -9   8   14.20   14.00
  -4  -9   8   10.30   11.10
   3   9  -8   22.20   10.00
   3   9  -8   29.10    7.60
   3   9  -8   46.60   10.10
  -3  -9   8   25.60   12.50
  -3  -9   8   46.30   11.70
   2   9  -8   85.89    7.30
   2   9  -8  126.79   13.00
   2   9  -8   85.89   12.40
   2   9  -8  106.29   10.20
   2   9  -8   72.39   14.20
  -2  -9   8   83.49   12.80
  -2  -9   8   95.19   14.00
  -2  -9   8   93.69    9.90
   1   9  -8   -5.40    6.00
   1   9  -8    5.60    9.30
   1   9  -8   15.80    7.40
   1   9  -8    4.50    9.30
  -1  -9   8    9.50   10.90
  -1  -9   8   -4.40    5.20
  -1  -9   8   -1.60    9.60
  -1  -9   8   -0.30    8.30
   0   9  -8    0.40    7.00
   0   9  -8    0.70    9.70
   0   9  -8   -0.90    6.60
   0   9  -8   -4.20    8.50
   0  -9   8    7.40    7.40
   0  -9   8   -1.10   10.90
   0  -9   8    5.80    6.00
   0  -9   8    3.50    8.90
   0  -9   8    7.10   10.70
  -1   9  -8    9.90    8.30
  -1   9  -8    7.40    7.20
  -1   9  -8   14.90   11.00
   1  -9   8   17.40   12.00
   1  -9   8   12.20   13.60
   1  -9   8    3.90   10.30
   1  -9   8   10.40    6.70
  -2   9  -8   31.70    8.30
  -2   9  -8   47.70   12.60
   2  -9   8   33.10   13.00
   2  -9   8   36.60    7.80
   2  -9   8   36.80   12.50
   5   8  -8   -3.90    7.80
   5   8  -8   28.00    7.30
   5   8  -8    8.80    5.90
  -5  -8   8   17.20   12.20
  -5  -8   8   21.20   12.30
  -5  -8   8   22.80   11.10
   4   8  -8    9.50    6.20
   4   8  -8  -17.90   18.10
   4   8  -8    4.20    6.70
   4   8  -8   -0.30    5.60
  -4  -8   8   22.80   10.70
  -4  -8   8    3.90    1.60
  -4  -8   8   -6.90    9.30
  -4  -8   8   -3.00    3.70
  -4  -8   8    9.70   10.50
   3   8  -8  200.98   13.80
   3   8  -8  183.38    9.90
   3   8  -8  166.68   15.40
  -3  -8   8  191.38   17.10
  -3  -8   8  215.18   17.50
  -3  -8   8  130.89    9.10
   2   8  -8  -18.50   10.60
   2   8  -8   -4.50    7.20
   2   8  -8   -6.30    5.80
   2   8  -8    4.50    6.90
   2   8  -8   -7.70    8.50
  -2  -8   8   -7.10    7.50
  -2  -8   8   -3.00   10.80
  -2  -8   8    8.90    5.70
  -2  -8   8   -4.00    4.40
  -2  -8   8    1.50    9.80
   1   8  -8    2.20    7.40
   1   8  -8    7.80    6.80
  -1  -8   8    6.70   10.90
  -1  -8   8    6.40   10.10
  -1  -8   8    6.50    5.80
  -1  -8   8    1.10    8.10
   0   8  -8  -12.20    6.60
   0   8  -8   14.00    8.60
   0  -8   8   -3.10   11.70
   0  -8   8    1.00    6.10
   0  -8   8    3.60   10.30
   0  -8   8    8.40   10.50
  -1   8  -8   22.70    7.90
   1  -8   8   15.90    8.00
   1  -8   8   10.50    6.90
   1  -8   8   11.80   11.50
   1  -8   8   37.10   10.80
  -2   8  -8   22.40    9.30
  -2   8  -8    7.90    7.80
   2  -8   8    4.00   10.60
   2  -8   8   -1.60   10.20
   2  -8   8    2.00    8.80
   2  -8   8   -6.00    7.40
  -3   8  -8    3.90   10.20
   3  -8   8    1.00   11.10
   3  -8   8   -1.30    7.70
   3  -8   8   15.10   11.10
   6   7  -8    0.20    6.50
   6   7  -8   -3.30   11.00
   6   7  -8   11.00    9.60
   6   7  -8    8.50    8.10
   6   7  -8   -3.60    8.10
  -6  -7   8   11.60   10.60
  -6  -7   8    2.80    9.80
  -6  -7   8   -3.60    6.80
  -6  -7   8    7.70   10.10
   5   7  -8  117.29   11.00
   5   7  -8  111.89   10.10
   5   7  -8  143.39   13.10
  -5  -7   8  137.49   15.80
  -5  -7   8  113.69   13.50
  -5  -7   8  150.18   16.30
  -5  -7   8  150.78   15.10
   4   7  -8   49.40    6.90
   4   7  -8   55.09    7.90
   4   7  -8   47.40    7.20
  -4  -7   8   41.20    6.10
  -4  -7   8   26.90    5.60
  -4  -7   8   52.19   11.80
  -4  -7   8   26.40    9.30
  -4  -7   8   50.49   10.40
   3   7  -8   58.59    7.00
   3   7  -8   72.19    7.60
  -3  -7   8   60.79    7.50
  -3  -7   8   67.89   11.30
  -3  -7   8   90.29   12.20
  -3  -7   8   63.39    7.10
  -3  -7   8   53.69   11.10
  -3  -7   8   55.09   10.20
   2   7  -8  193.08   11.60
   2   7  -8  161.28   10.50
  -2  -7   8  163.78   10.00
  -2  -7   8  149.59   15.80
  -2  -7   8  188.98   17.30
  -2  -7   8  150.48    9.90
  -2  -7   8  170.88   11.90
   1   7  -8   -6.00    7.50
   1   7  -8   -1.20    6.50
   1   7  -8    0.70    7.90
   1   7  -8   -4.20    9.10
  -1  -7   8    0.10    4.90
  -1  -7   8    2.60   10.00
  -1  -7   8   -4.30   10.30
  -1  -7   8   -2.50    6.00
  -1  -7   8   -5.20    7.80
   0   7  -8   40.30    7.80
   0   7  -8   46.60   10.60
   0   7  -8   29.80    8.20
   0   7  -8   43.30    9.20
   0  -7   8   31.50    7.20
   0  -7   8   38.50   11.60
   0  -7   8   30.00   11.80
  -1   7  -8   22.50    8.90
  -1   7  -8   20.70    7.60
  -1   7  -8   36.90   10.90
   1  -7   8   27.40    8.00
   1  -7   8   27.10   10.80
   1  -7   8   19.10    7.30
   1  -7   8   17.10   10.90
  -2   7  -8  107.49   12.20
  -2   7  -8   61.19    9.00
  -2   7  -8   81.39   10.70
   2  -7   8   80.99   12.20
   2  -7   8   49.00   12.20
   2  -7   8   75.19    8.90
  -3   7  -8   76.09   13.30
  -3   7  -8   41.00   10.70
  -3   7  -8   30.10    9.00
   3  -7   8   36.70   12.40
   3  -7   8   35.30    9.00
   3  -7   8   40.70   11.70
   3  -7   8   47.80   10.20
   7   6  -8   12.40   10.10
   7   6  -8    5.30    7.70
   7   6  -8   -5.90    8.40
  -7  -6   8   14.40   10.90
  -7  -6   8    9.70   11.20
  -7  -6   8    5.10   10.00
   6   6  -8   -8.10    6.90
   6   6  -8   -1.90    6.60
   6   6  -8   11.50    6.80
  -6  -6   8   -5.60    6.90
  -6  -6   8   15.30    9.70
  -6  -6   8   -2.40   10.60
  -6  -6   8   -2.10    6.70
  -6  -6   8   -0.80   10.20
   5   6  -8   97.79    8.20
   5   6  -8   73.69    8.00
  -5  -6   8   74.09   10.20
  -5  -6   8   58.59   10.70
  -5  -6   8   65.59   11.90
  -5  -6   8   69.19   13.00
   4   6  -8  262.27   11.60
   4   6  -8  271.17   12.00
  -4  -6   8  252.77   11.00
  -4  -6   8  265.87   15.90
  -4  -6   8  217.48   10.60
  -4  -6   8  253.07   16.00
  -4  -6   8  278.47   16.20
  -4  -6   8  229.18   17.60
   3   6  -8  312.27   12.10
   3   6  -8  281.47   15.80
   3   6  -8  333.57   12.70
  -3  -6   8  306.17   11.60
  -3  -6   8  293.47   11.70
  -3  -6   8  286.77   18.10
  -3  -6   8  310.07   15.80
  -3  -6   8  302.57   18.10
   2   6  -8   82.29    7.80
   2   6  -8   82.69    8.20
   2   6  -8   57.99    9.60
  -2  -6   8   88.99   12.60
  -2  -6   8   80.89    7.80
  -2  -6   8   58.29   13.70
  -2  -6   8   81.09    8.00
  -2  -6   8   68.89    7.20
   1   6  -8   10.40    7.70
   1   6  -8    4.70    9.00
   1   6  -8   10.20    7.90
   1   6  -8    5.00    6.60
  -1  -6   8    7.80    6.60
  -1  -6   8    8.40    6.50
  -1  -6   8    6.30    9.60
  -1  -6   8    1.10   11.80
   0   6  -8   66.89    8.70
   0   6  -8   51.19    7.90
   0   6  -8   82.09   10.20
   0  -6   8   58.99    7.80
   0  -6   8   48.00   11.90
   0  -6   8   60.39   14.40
  -1   6  -8   22.80   10.70
  -1   6  -8    9.00    7.70
  -1   6  -8   15.00    7.70
   1  -6   8   -5.70   12.80
   1  -6   8    3.80    9.50
   1  -6   8    8.20    7.10
  -2   6  -8  151.78   12.90
  -2   6  -8  206.08   18.00
  -2   6  -8  183.68   14.50
   2  -6   8  161.08   18.20
   2  -6   8  125.79   16.80
   2  -6   8  174.78   15.70
  -3   6  -8   60.89    9.90
  -3   6  -8  113.49   13.70
  -3   6  -8   86.99   11.30
   3  -6   8   57.69    9.40
   3  -6   8   72.59   12.10
   3  -6   8   46.30   15.70
   3  -6   8   92.19   11.10
   4  -6   8   12.00   10.30
   4  -6   8  -18.50   16.90
   7   5  -8   21.80    7.80
   7   5  -8    9.20    8.00
   7   5  -8   14.60    7.50
  -7  -5   8   20.10   14.70
  -7  -5   8   10.00   10.30
  -7  -5   8   -4.90    6.70
  -7  -5   8   17.90   11.30
   6   5  -8    6.80    3.90
   6   5  -8    3.80    6.80
   6   5  -8    0.80    7.20
  -6  -5   8    3.90    9.70
  -6  -5   8    1.40   11.80
  -6  -5   8    1.40    9.40
  -6  -5   8    3.70    6.80
  -6  -5   8   -4.80    6.90
   5   5  -8   26.80    7.00
   5   5  -8   18.80    7.30
   5   5  -8   14.70    6.70
  -5  -5   8   31.30    8.80
  -5  -5   8   24.90    9.20
  -5  -5   8   20.20   11.30
  -5  -5   8   21.70    8.80
  -5  -5   8    4.10    5.20
  -5  -5   8   25.20    7.70
   4   5  -8   10.50    6.70
   4   5  -8    9.40    6.80
  -4  -5   8   18.90    9.60
  -4  -5   8   24.00    9.90
  -4  -5   8   13.70    6.30
  -4  -5   8    5.10    8.10
  -4  -5   8   -4.80   11.00
   3   5  -8   78.29    8.10
   3   5  -8   77.89   10.10
   3   5  -8   84.49    8.20
  -3  -5   8   78.69   12.50
  -3  -5   8   75.09    7.60
  -3  -5   8   85.69   13.10
  -3  -5   8   64.59    7.20
  -3  -5   8   82.99   12.70
   2   5  -8   43.30    8.40
   2   5  -8   44.60    8.70
   2   5  -8   36.60    7.30
  -2  -5   8   42.50    6.70
  -2  -5   8   49.50    7.50
  -2  -5   8   48.40   11.90
  -2  -5   8   43.50    8.70
  -2  -5   8   44.10   12.90
   1   5  -8  492.35   15.30
   1   5  -8  526.35   16.20
   1   5  -8  486.05   16.70
  -1  -5   8  487.55   15.00
  -1  -5   8  485.95   20.70
  -1  -5   8  504.95   15.40
   0   5  -8  172.28   11.70
   0   5  -8  180.38   14.10
   0   5  -8  179.08   16.10
   0   5  -8  181.08   12.10
   0  -5   8  171.58   11.60
   0  -5   8  157.38   15.60
  -1   5  -8    5.50    7.30
  -1   5  -8    4.70    9.70
  -1   5  -8   10.70    7.90
   1  -5   8   13.60    7.40
   1  -5   8    4.90   10.00
  -2   5  -8  -11.80    7.60
  -2   5  -8   13.00    9.40
  -2   5  -8    8.50   11.00
   2  -5   8   -6.20    8.70
   2  -5   8    7.90    7.10
   2  -5   8   17.20   10.10
  -3   5  -8  359.86   18.10
  -3   5  -8  349.57   16.80
   3  -5   8  414.66   29.70
   3  -5   8  380.56   16.70
   3  -5   8  371.36   18.40
  -4   5  -8  304.57   19.40
  -4   5  -8  276.37   17.60
   4  -5   8  342.47   20.30
   4  -5   8  197.48   26.90
   4  -5   8  269.27   16.70
   7   4  -8   11.90    8.30
   7   4  -8   30.10    6.50
   7   4  -8    6.70    7.30
  -7  -4   8    4.90   11.90
  -7  -4   8   12.50    9.60
  -7  -4   8    7.20   10.30
  -7  -4   8    4.80    7.30
   6   4  -8   25.40    7.80
   6   4  -8   36.60    7.00
   6   4  -8   31.50    7.50
  -6  -4   8   17.40    9.20
  -6  -4   8   38.70   11.00
  -6  -4   8   36.00   11.00
  -6  -4   8   29.10    7.50
  -6  -4   8   15.70   11.60
   5   4  -8   68.19    8.10
   5   4  -8   72.09    8.00
   5   4  -8   76.09    7.40
  -5  -4   8   74.69   10.40
  -5  -4   8   61.99   11.00
  -5  -4   8   78.79    8.40
  -5  -4   8   71.09   10.70
  -5  -4   8   75.89   13.90
   4   4  -8   30.40    7.30
   4   4  -8   24.30    6.90
  -4  -4   8   30.90   11.30
  -4  -4   8   38.60   11.60
  -4  -4   8   20.10    6.40
  -4  -4   8   38.30    9.70
  -4  -4   8   32.60   10.10
   3   4  -8   68.09    8.00
  -3  -4   8   59.49    9.10
  -3  -4   8   76.89    7.70
  -3  -4   8   61.59   11.70
  -3  -4   8   65.09    7.70
   2   4  -8  123.79   10.90
   2   4  -8  102.09   10.10
   2   4  -8  106.89   11.80
  -2  -4   8  118.69   15.80
  -2  -4   8  100.69   11.60
  -2  -4   8  114.99    9.10
  -2  -4   8  118.89    9.70
   1   4  -8  234.18   12.90
   1   4  -8  220.48   12.50
  -1  -4   8  219.38   12.00
   0   4  -8   90.29    9.40
   0   4  -8   78.69   10.10
   0   4  -8   79.99    8.40
   0  -4   8   86.09    9.00
   0  -4   8   85.09   19.10
  -1   4  -8  -12.20    9.60
  -1   4  -8   -0.90    8.00
  -1   4  -8   -4.50    6.80
   1  -4   8    0.70   10.70
   1  -4   8   -9.10    7.30
   1  -4   8   -7.10    7.20
  -2   4  -8    3.20    8.10
   2  -4   8   12.30   10.10
   2  -4   8    0.50    8.70
   2  -4   8   -4.00    7.60
  -3   4  -8  134.19   12.10
  -3   4  -8  144.59   12.70
   3  -4   8  141.39   14.60
   3  -4   8  119.59   11.60
   3  -4   8  151.68   13.10
  -4   4  -8  217.38   18.50
  -4   4  -8  177.38   15.80
   4  -4   8  175.68   14.30
   4  -4   8  175.98   15.40
   4  -4   8  211.88   15.70
   8   3  -8    4.90    8.70
   8   3  -8    8.30    9.10
   8   3  -8    3.90    9.40
  -8  -3   8  -14.80   11.60
  -8  -3   8    3.50   12.70
  -8  -3   8   -2.90    8.10
  -8  -3   8    8.00    9.00
  -8  -3   8    9.10   13.50
   7   3  -8  226.28   11.40
   7   3  -8  256.67   14.50
   7   3  -8  216.28   12.90
  -7  -3   8  220.48   13.10
  -7  -3   8  208.98   18.70
  -7  -3   8  233.88   17.30
  -7  -3   8  271.97   16.60
  -7  -3   8  200.68   18.80
   6   3  -8    6.20    7.70
   6   3  -8    9.80    5.80
   6   3  -8    6.10    7.20
  -6  -3   8   -0.20    8.60
  -6  -3   8   -9.60   11.30
  -6  -3   8   10.00    7.60
  -6  -3   8   22.20   10.40
   5   3  -8   63.89    7.90
   5   3  -8   67.09    8.10
  -5  -3   8   70.09   10.30
  -5  -3   8   47.90    6.70
  -5  -3   8   61.89    8.40
  -5  -3   8   60.19   10.80
   4   3  -8  150.78   11.50
   4   3  -8  168.08   11.30
  -4  -3   8  165.18   12.80
  -4  -3   8  151.38   12.30
  -4  -3   8  145.99   10.00
  -4  -3   8  158.28   13.30
   3   3  -8  262.27   12.60
   3   3  -8  277.17   12.80
  -3  -3   8  260.77   11.30
  -3  -3   8  259.77   13.10
  -3  -3   8  254.77   13.80
   2   3  -8  177.38   11.10
   2   3  -8  177.78   11.60
  -2  -3   8  167.48   10.20
  -2  -3   8  172.98   11.70
  -2  -3   8  160.38   11.10
   1   3  -8  356.76   13.00
   1   3  -8  321.07   14.00
   1   3  -8  358.06   14.40
  -1  -3   8  360.66   13.50
  -1  -3   8  375.16   13.80
  -1  -3   8  335.57   18.30
   0   3  -8  295.27   17.40
   0   3  -8  288.37   11.80
   0   3  -8  296.57   14.30
   0  -3   8  275.57   17.40
   0  -3   8  285.87   13.00
   0  -3   8  292.37   13.50
  -1   3  -8    7.20    6.20
  -1   3  -8  -14.90    7.40
   1  -3   8   -2.10    8.70
   1  -3   8    2.80   10.30
   1  -3   8  -10.80    7.30
  -2   3  -8   14.60    8.50
   2  -3   8   32.00    8.90
   2  -3   8    8.20   10.40
   2  -3   8   12.50    8.60
  -3   3  -8   -6.30    8.40
  -3   3  -8   11.00    9.70
   3  -3   8   22.10    9.30
   3  -3   8   -1.60    9.60
   3  -3   8   -3.40    9.20
  -4   3  -8    8.60    9.80
  -4   3  -8   38.70   12.60
   4  -3   8   46.60    9.80
   4  -3   8   23.10   13.00
   4  -3   8   30.40   12.20
   8   2  -8   28.30    9.50
   8   2  -8   26.90    8.60
  -8  -2   8   35.80   11.40
  -8  -2   8   -7.80   13.00
  -8  -2   8   18.30   11.30
  -8  -2   8   48.80   10.50
   7   2  -8   11.30    8.30
   7   2  -8    0.60    5.60
   7   2  -8   -0.30    7.40
  -7  -2   8   -7.00    7.50
  -7  -2   8   -3.60    7.30
  -7  -2   8    2.40    9.70
   6   2  -8   29.10    7.50
   6   2  -8   38.40    6.00
   6   2  -8   30.80   10.40
  -6  -2   8   39.20   10.00
  -6  -2   8   28.90   11.50
   5   2  -8   -8.20    6.80
   5   2  -8    2.70    7.00
  -5  -2   8   -1.30    9.40
  -5  -2   8   -1.30    7.00
  -5  -2   8   10.00    8.40
   4   2  -8  222.68   12.10
   4   2  -8  189.28   18.40
  -4  -2   8  210.28   12.90
  -4  -2   8  217.18   12.70
  -4  -2   8  224.48   14.40
   3   2  -8    5.90    6.70
   3   2  -8   -5.60    6.60
  -3  -2   8   11.40    6.80
  -3  -2   8    9.50    6.70
  -3  -2   8    8.50    7.20
   2   2  -8   48.90    7.80
   2   2  -8   49.40    7.70
  -2  -2   8   52.99    7.40
  -2  -2   8   51.99    7.50
  -2  -2   8   44.00    7.60
   1   2  -8   24.20    9.70
   1   2  -8   23.60    7.30
  -1  -2   8   14.50    6.00
  -1  -2   8   15.60    7.10
  -1  -2   8   26.40    7.10
   0   2  -8  505.45   14.80
   0   2  -8  481.15   22.50
   0   2  -8  512.05   16.90
   0  -2   8  488.55   16.40
   0  -2   8  509.15   16.30
  -1   2  -8   63.29    7.50
  -1   2  -8   62.89   10.50
  -1   2  -8   56.69    9.50
   1  -2   8   49.80   12.00
   1  -2   8   57.69    8.50
   1  -2   8   62.49    9.10
  -2   2  -8    2.80    8.90
   2  -2   8    7.50    7.80
   2  -2   8    2.00   10.10
   2  -2   8    8.10    8.90
  -3   2  -8   -8.40    8.60
   3  -2   8   -1.00    9.30
   3  -2   8   -4.00    9.30
   3  -2   8   -2.00    9.30
   4  -2   8   13.90    8.90
   8   1  -8   -9.10    9.60
   8   1  -8   11.80    8.50
  -8  -1   8    0.00    8.90
  -8  -1   8   -4.10    8.50
  -8  -1   8    0.70   12.70
   7   1  -8   55.79    9.30
   7   1  -8   48.40    8.60
  -7  -1   8   60.29   16.00
  -7  -1   8   58.79   12.00
   6   1  -8  380.86   11.40
   6   1  -8  382.06   15.00
   6   1  -8  418.06   15.90
  -6  -1   8  373.36   17.70
  -6  -1   8  393.36   15.10
   5   1  -8  113.19    9.40
   5   1  -8  145.59   12.70
  -5  -1   8  107.69   13.10
  -5  -1   8  128.69   11.70
  -4  -1   8    1.60    7.20
  -4  -1   8   -2.90    7.60
  -4  -1   8   -2.00    6.10
   3   1  -8   19.60    7.80
  -3  -1   8   19.10    7.10
  -3  -1   8   13.20    7.80
  -3  -1   8   18.50    6.30
   2   1  -8   49.60    8.00
   2   1  -8   51.29    7.60
  -2  -1   8   51.99    7.40
  -2  -1   8   47.70    7.20
  -2  -1   8   42.90    7.40
   1   1  -8  425.06   15.10
   1   1  -8  439.16   15.30
  -1  -1   8  453.05   15.10
  -1  -1   8  430.06   14.90
   0   1  -8   35.60    8.70
   0   1  -8   43.40    7.80
   0   1  -8   43.30    8.80
   0  -1   8   42.20    8.40
   0  -1   8   42.40    8.10
  -1   1  -8    8.90    8.50
  -1   1  -8    1.60    7.10
  -1   1  -8  -12.50    7.90
   1  -1   8   -3.70    7.20
   1  -1   8   -9.90    7.50
  -2   1  -8   84.89   10.50
   2  -1   8   75.19   10.40
   2  -1   8   50.69    8.90
  -3   1  -8    3.20    9.40
   3  -1   8   -1.80   10.40
   3  -1   8    9.50    7.50
   3  -1   8   -0.40   10.60
   8   0  -8   25.50   10.60
   8   0  -8   -2.20    8.00
  -8   0   8    1.60   11.90
  -8   0   8   13.00    9.20
  -8   0   8   -0.10    8.70
   7   0  -8  107.59   10.10
   7   0  -8  114.29   10.90
  -7   0   8  104.09    9.90
  -7   0   8  119.29   11.10
  -7   0   8  108.39   13.00
   6   0  -8   10.80    4.50
   6   0  -8   -3.40    7.80
   6   0  -8   12.90    7.90
  -6   0   8    7.30    8.70
  -6   0   8    5.10   12.10
  -6   0   8   20.50    7.80
   5   0  -8   -8.00    7.40
   5   0  -8   12.10    7.90
  -5   0   8   -7.20    8.30
  -5   0   8    5.70    6.80
  -5   0   8    5.80    7.70
   4   0  -8  -10.40    8.90
   4   0  -8   -0.90    7.50
  -4   0   8    8.00    7.40
  -4   0   8    0.10    6.70
  -4   0   8   -2.70    7.50
   3   0  -8    5.70    7.40
   3   0  -8    6.00    7.60
  -3   0   8    3.40    6.70
  -3   0   8    8.60    5.90
   2   0  -8    7.90    7.10
   2   0  -8   19.60    7.70
  -2   0   8    2.00    6.30
  -2   0   8    8.10    6.80
  -2   0   8    7.60    6.90
   1   0  -8   -3.20    6.70
   1   0  -8   10.60    8.30
   1   0  -8    8.80    7.60
  -1   0   8   14.90    7.80
  -1   0   8    5.50    7.60
   0   0  -8  118.69   12.30
   0   0  -8  130.99   12.30
   0   0  -8  118.99   10.30
   0   0   8  137.39   12.60
   0   0   8  125.79   10.50
  -1   0  -8    1.70    7.70
  -1   0  -8    3.30    7.60
   1   0   8    6.30    7.90
   1   0   8   -0.80    6.30
   1   0   8    5.20    8.00
  -2   0  -8    0.10    8.50
  -2   0  -8    3.90   12.10
   2   0   8    6.50    9.10
   2   0   8    6.90    9.20
   2   0   8    0.50    8.00
  -3   0  -8   87.09   10.90
   3   0   8   76.39   12.80
   3   0   8   89.39   12.40
   3   0   8  128.99   12.40
   8  -1  -8   64.69   10.90
   8  -1  -8   49.99   10.10
  -8   1   8   60.79   11.70
  -8   1   8   43.70    9.20
   7  -1  -8   66.09   10.20
   7  -1  -8   54.89    8.70
  -7   1   8   55.89    9.30
   6  -1  -8   46.10    9.20
   6  -1  -8   46.40    8.90
  -6   1   8   37.30    8.40
  -6   1   8   32.00    8.30
   5  -1  -8   42.80    8.30
  -5   1   8   52.79    8.90
  -5   1   8   53.69    8.40
  -5   1   8   49.99    9.50
   4  -1  -8  173.28   14.50
   4  -1  -8  142.99   12.00
  -4   1   8  160.08   12.30
  -4   1   8  163.58   11.60
  -4   1   8  162.18   12.70
   3  -1  -8   83.09    9.10
   3  -1  -8   63.09    8.30
  -3   1   8   79.59    8.60
   2  -1  -8   27.10    7.90
   2  -1  -8   16.80    7.50
  -2   1   8   17.60    7.50
  -2   1   8   21.90    7.60
   1  -1  -8   27.40    8.10
   1  -1  -8    7.80    6.10
   1  -1  -8   19.20    8.40
  -1   1   8    4.20    7.50
  -1   1   8   17.80    7.30
   0  -1  -8   22.10    8.20
   0  -1  -8   12.90    8.50
   0   1   8   10.70    8.20
   0   1   8   20.30    8.00
   0   1   8   27.10    7.30
  -1  -1  -8    4.00    9.10
  -1  -1  -8   -1.60    9.90
   1   1   8    8.90    7.60
   1   1   8   -0.80    9.10
   1   1   8    0.90    7.70
  -2  -1  -8   35.50   10.00
  -2  -1  -8   46.90    9.80
   2   1   8   23.50    8.60
   2   1   8   62.29   10.60
   2   1   8   54.19   10.40
   8  -2  -8   28.40   10.40
   8  -2  -8   -0.30    8.60
  -8   2   8    3.80    8.70
  -8   2   8    5.90   11.00
   7  -2  -8   80.19    9.90
   7  -2  -8   65.59    9.70
  -7   2   8   75.89   10.80
  -7   2   8   87.09   11.40
   6  -2  -8   30.70    8.80
   6  -2  -8   19.30    8.70
  -6   2   8   33.70    8.60
  -6   2   8   31.80    7.90
   5  -2  -8    5.30    8.00
   5  -2  -8    1.70    8.40
   5  -2  -8    5.60    7.30
  -5   2   8   -1.50    7.70
  -5   2   8   -0.70    7.70
   4  -2  -8  203.78   12.10
   4  -2  -8  205.88   14.50
   4  -2  -8  191.48   12.30
  -4   2   8  203.38   13.40
  -4   2   8  187.38   11.70
  -4   2   8  203.48   12.70
   3  -2  -8  219.18   12.90
   3  -2  -8  168.98   11.90
   3  -2  -8  222.58   11.80
  -3   2   8  236.88   13.40
   2  -2  -8  107.89   10.80
   2  -2  -8   90.29    9.80
  -2   2   8   86.99    8.70
  -2   2   8  111.99    9.80
   1  -2  -8   27.50    8.60
   1  -2  -8   22.20    8.50
  -1   2   8   22.00    8.30
  -1   2   8   31.40    7.90
   0  -2  -8   43.10    9.60
   0  -2  -8   45.80    8.60
   0   2   8   64.29    9.20
   0   2   8   58.79    9.80
   0   2   8   61.39    9.10
  -1  -2  -8   38.00   14.90
  -1  -2  -8   36.10    9.20
  -1  -2  -8   38.30    9.80
   1   2   8   51.19    9.60
   1   2   8   59.69   10.20
   1   2   8   42.00    9.00
  -2  -2  -8   -1.00    9.60
  -2  -2  -8   14.80    8.90
   2   2   8   12.30   11.30
   2   2   8    6.90   10.20
   8  -3  -8    2.90    9.70
   8  -3  -8   -2.50   10.70
  -8   3   8    6.40   10.50
  -8   3   8   -2.60    8.90
   7  -3  -8    2.30    8.30
   7  -3  -8    7.20    8.90
  -7   3   8   -4.30    9.90
  -7   3   8    7.00    8.20
   6  -3  -8   -5.80    8.50
   6  -3  -8    7.80    8.10
  -6   3   8    0.80    7.70
  -6   3   8  -16.10    8.50
   5  -3  -8  228.48   13.50
   5  -3  -8  209.38   13.70
   5  -3  -8  216.68   14.20
  -5   3   8  206.48   13.30
  -5   3   8  215.58   14.50
   4  -3  -8   32.80    8.00
   4  -3  -8   18.50   10.30
  -4   3   8   23.40    9.10
  -4   3   8   11.30    8.30
   3  -3  -8   11.40    7.90
   3  -3  -8   26.50    8.80
  -3   3   8   18.40    5.90
  -3   3   8   29.50    8.40
   2  -3  -8  172.18   14.90
   2  -3  -8  173.28   13.30
  -2   3   8  152.58   12.30
  -2   3   8  176.08   13.10
   1  -3  -8   56.79    8.50
   1  -3  -8   87.69   10.30
   1  -3  -8   63.99   10.60
  -1   3   8   84.89   10.40
  -1   3   8   64.49    8.80
   0  -3  -8  103.49   11.50
   0  -3  -8  132.79   18.40
   0  -3  -8  109.39   10.00
   0   3   8  110.89   10.50
   0   3   8  125.69   12.40
   0   3   8  134.89   11.50
  -1  -3  -8   15.30    9.70
  -1  -3  -8   -0.10    8.80
  -1  -3  -8    1.90    9.20
   1   3   8    6.20    6.20
   1   3   8   15.40    9.50
   1   3   8    3.40    8.40
   7  -4  -8   47.30    9.60
   7  -4  -8   56.19   11.00
  -7   4   8   33.90   13.80
  -7   4   8   39.70    9.60
   6  -4  -8   24.10    9.80
   6  -4  -8    9.20    8.30
   6  -4  -8    8.10    8.60
  -6   4   8   10.90    9.40
  -6   4   8   16.30    8.00
   5  -4  -8    6.40    8.90
   5  -4  -8   -3.40    8.00
  -5   4   8   -5.10    7.60
  -5   4   8    4.70    9.10
   4  -4  -8    7.90   12.30
   4  -4  -8    5.70    4.50
   4  -4  -8   12.20    9.50
  -4   4   8   15.10    6.40
  -4   4   8    1.60    8.70
  -4   4   8   19.80    8.10
   3  -4  -8   -4.10    7.90
   3  -4  -8   -8.10    9.30
   3  -4  -8    7.60    8.40
  -3   4   8  -17.30   10.70
  -3   4   8    6.40    9.00
   2  -4  -8   16.70    9.60
   2  -4  -8    7.50    8.70
   2  -4  -8   16.40    7.90
  -2   4   8   22.00    6.70
  -2   4   8   21.20    8.80
  -2   4   8   22.60    8.10
   1  -4  -8   43.80   11.20
   1  -4  -8   53.49    9.20
   1  -4  -8   49.80    9.90
  -1   4   8   43.00    9.10
  -1   4   8   52.79   10.20
   0  -4  -8    1.00    9.40
   0  -4  -8    3.40    8.40
   0  -4  -8    0.10    8.40
   0   4   8   -8.60    9.20
   0   4   8    7.80    8.30
   6  -5  -8   -7.00    9.40
   6  -5  -8   17.20    9.90
   6  -5  -8   -0.50   10.20
  -6   5   8   -4.20   10.10
  -6   5   8    8.80   10.70
   5  -5  -8   19.30    9.50
   5  -5  -8   44.70    9.70
   5  -5  -8    4.20    8.40
  -5   5   8   15.40   10.10
  -5   5   8    7.20    8.40
   4  -5  -8   18.50    4.70
   4  -5  -8    2.80    8.10
   4  -5  -8   21.70    9.10
   4  -5  -8   -7.90   15.20
  -4   5   8    4.70   10.00
  -4   5   8    2.30    6.80
  -4   5   8   20.60    8.90
   3  -5  -8    6.80    9.80
   3  -5  -8  -10.40    8.40
   3  -5  -8   -8.50    5.50
   3  -5  -8    8.60    8.00
  -3   5   8    0.90    9.10
  -3   5   8    0.40    6.50
   2  -5  -8   13.50    8.10
   2  -5  -8    3.50   10.30
   2  -5  -8    3.00    8.90
  -2   5   8    5.40    9.50
  -2   5   8    5.70    8.00
   1  -5  -8    4.50   11.00
   1  -5  -8    5.80    8.60
   1  -5  -8    6.10    7.70
   1  -5  -8   -4.20    8.20
  -1   5   8   -0.40    7.20
  -1   5   8    9.30    8.70
  -1   5   8    4.00   14.60
   4  -6  -8   77.99   12.10
   4  -6  -8   84.49   11.30
  -4   6   8   97.99   11.60
   3  -6  -8    2.70   10.30
   3  -6  -8    7.50    5.70
   3  -6  -8  -11.10    8.60
  -3   6   8   -2.80    7.90
  -3   6   8  -14.00    9.60
   3   9  -9   26.40    9.90
   3   9  -9   18.80    6.40
   3   9  -9   25.20   13.10
   3   9  -9   -0.10   10.10
  -3  -9   9   23.80   11.50
  -3  -9   9   41.50   12.90
  -3  -9   9   26.50    7.80
   2   9  -9   16.10   13.00
   2   9  -9   76.89    8.60
   2   9  -9   37.50   10.00
   2   9  -9   49.00    7.60
  -2  -9   9   65.99    8.40
  -2  -9   9   63.69   12.90
  -2  -9   9   89.49   19.00
  -2  -9   9   47.80    9.20
   1   9  -9   55.59   18.10
   1   9  -9   49.10    8.10
   1   9  -9   65.09    9.60
  -1  -9   9   50.69   10.00
  -1  -9   9   50.59    6.80
  -1  -9   9   66.69   13.10
   0   9  -9   -1.10   12.60
   0   9  -9    9.40    7.70
   0   9  -9    6.40    9.80
   0  -9   9   -4.60    9.60
   0  -9   9   -4.70    6.20
   0  -9   9    3.30    8.60
  -1   9  -9   20.20   15.10
  -1   9  -9   19.90   10.50
   1  -9   9   12.60    7.40
   1  -9   9    3.40   11.40
   1  -9   9   30.90   12.50
  -5  -8   9    8.70   10.10
   4   8  -9   22.30    6.90
   4   8  -9    4.00   11.80
   4   8  -9   30.40    8.00
   4   8  -9   34.60    7.70
  -4  -8   9   33.60   11.60
  -4  -8   9   46.60    7.60
  -4  -8   9   31.40   13.90
  -4  -8   9   44.20   11.70
   3   8  -9   14.70   10.00
   3   8  -9   32.10    7.60
   3   8  -9   24.20    7.10
  -3  -8   9   13.70    5.50
  -3  -8   9   30.00    7.50
  -3  -8   9   26.20   12.60
  -3  -8   9   27.30   10.90
  -3  -8   9   34.70    7.70
   2   8  -9  -10.20    6.60
   2   8  -9   15.10    8.70
   2   8  -9    0.00    7.70
  -2  -8   9   17.20   10.50
  -2  -8   9   15.10   10.90
  -2  -8   9    2.90   14.00
  -2  -8   9   15.10    7.30
  -2  -8   9   -2.10    6.10
   1   8  -9   13.80    7.40
   1   8  -9    8.30   11.40
   1   8  -9   13.10    8.80
   1   8  -9   10.30    8.60
  -1  -8   9    6.30    6.40
  -1  -8   9   11.60    7.80
  -1  -8   9    5.80    9.90
  -1  -8   9    4.80    8.40
  -1  -8   9   13.80   11.20
   0   8  -9   16.90    9.80
   0   8  -9   22.00   10.00
   0   8  -9    9.00    7.70
   0  -8   9    8.40   11.20
   0  -8   9   16.70    6.80
   0  -8   9   15.20   10.70
   0  -8   9   17.10   14.30
  -1   8  -9   -0.80    9.20
  -1   8  -9    8.70    8.10
   1  -8   9    3.60    9.00
   1  -8   9   -2.10   10.50
   1  -8   9  -11.80    7.10
   1  -8   9  -12.60   19.70
  -2   8  -9    6.20    9.10
  -2   8  -9   21.40   11.20
   2  -8   9   20.20   12.70
   2  -8   9   23.70    8.80
   2  -8   9   21.40   11.40
   5   7  -9   13.80    7.40
   5   7  -9   11.80    7.50
   5   7  -9   -0.50    6.90
  -5  -7   9   10.30   10.70
  -5  -7   9    9.40   11.20
  -5  -7   9    2.80    3.70
  -5  -7   9   -0.90    7.10
  -5  -7   9   15.90   16.40
   4   7  -9    2.30    6.60
   4   7  -9    6.20    7.10
  -4  -7   9   -3.70   10.30
  -4  -7   9    8.90    9.00
  -4  -7   9    7.20    9.70
  -4  -7   9   -0.10    5.90
  -4  -7   9    4.40    6.80
   3   7  -9   -1.60    6.50
   3   7  -9   -1.00   10.60
   3   7  -9   15.00    7.90
  -3  -7   9    0.20   11.90
  -3  -7   9    7.40    6.60
  -3  -7   9   15.50   12.30
  -3  -7   9    5.40   10.50
  -3  -7   9    0.90    6.20
   2   7  -9    7.90    7.70
   2   7  -9   16.00    7.30
  -2  -7   9    3.50    6.40
  -2  -7   9    3.90    7.50
  -2  -7   9   15.40    7.90
  -2  -7   9   14.70   10.50
  -2  -7   9   12.40   10.80
   1   7  -9   48.80    9.30
   1   7  -9   17.90    5.60
   1   7  -9   31.50    7.90
  -1  -7   9   29.90    7.40
  -1  -7   9   32.50    7.90
  -1  -7   9   22.30   12.10
  -1  -7   9   42.50   12.10
   0   7  -9   24.40   12.40
   0   7  -9   40.70   10.50
   0   7  -9   35.20    8.20
   0   7  -9   12.20    5.70
   0  -7   9   19.20    7.60
   0  -7   9   47.10   12.80
   0  -7   9   19.40   13.70
   0  -7   9   25.10    8.20
  -1   7  -9   99.19   15.60
  -1   7  -9   49.10    8.90
   1  -7   9   54.09   11.80
   1  -7   9   47.50   14.50
   1  -7   9   40.00    8.50
   1  -7   9   48.90    9.40
  -2   7  -9   46.90   16.30
  -2   7  -9    1.20    9.30
   2  -7   9    8.80   23.70
   2  -7   9    9.20    8.40
   2  -7   9   33.00   11.50
   2  -7   9   22.80   10.30
   6   6  -9   -7.40    6.90
   6   6  -9   -5.60    7.50
   6   6  -9   10.60    6.90
  -6  -6   9   18.90   10.10
  -6  -6   9    5.00   11.90
   5   6  -9    4.80    7.50
   5   6  -9    7.60    7.20
   5   6  -9   16.70    6.70
  -5  -6   9   23.20    9.40
  -5  -6   9    7.60   12.20
  -5  -6   9    4.60    7.10
  -5  -6   9    7.80   10.10
  -5  -6   9   16.90    9.50
   4   6  -9  309.97   14.00
   4   6  -9  288.97   12.90
  -4  -6   9  279.07   12.20
  -4  -6   9  296.27   19.80
  -4  -6   9  329.97   29.20
  -4  -6   9  284.87   16.60
  -4  -6   9  297.17   17.00
   3   6  -9   -8.60    6.80
   3   6  -9   -1.90    7.00
   3   6  -9   13.60    7.80
  -3  -6   9   -0.50   10.40
  -3  -6   9    3.80    8.50
  -3  -6   9    4.70    6.50
  -3  -6   9    0.30   10.60
   2   6  -9   21.50    7.40
   2   6  -9   33.50    8.10
   2   6  -9   25.30    9.00
  -2  -6   9   20.20    7.50
  -2  -6   9   14.20    7.30
  -2  -6   9   13.80   12.40
  -2  -6   9   27.80   11.60
   1   6  -9  125.09   10.70
   1   6  -9   74.79    8.60
   1   6  -9   98.79   10.30
  -1  -6   9   79.49   15.20
  -1  -6   9  114.89   12.30
  -1  -6   9   88.59   13.40
  -1  -6   9   82.49    8.60
   0   6  -9  177.48   16.00
   0   6  -9  136.89   12.30
   0   6  -9  164.88   12.40
   0   6  -9  142.09   13.60
   0  -6   9  136.39   16.60
   0  -6   9  129.59   16.50
   0  -6   9  159.78   12.10
   0  -6   9  133.19   11.50
  -1   6  -9   46.40    9.80
  -1   6  -9   53.19    9.60
  -1   6  -9   40.40   22.50
   1  -6   9   36.50   11.70
   1  -6   9   51.29    9.40
   1  -6   9   11.60   14.90
  -2   6  -9   45.50    9.70
  -2   6  -9    8.30   11.10
  -2   6  -9   69.39   11.20
   2  -6   9   14.70   14.60
   2  -6   9   41.70    9.70
   2  -6   9   47.20   11.50
   2  -6   9   62.99   10.80
   7   5  -9   25.40    7.80
   7   5  -9   40.50    9.30
   7   5  -9   24.10    8.30
  -7  -5   9   31.30   12.70
  -7  -5   9   24.20   12.00
  -7  -5   9   57.09    9.30
  -7  -5   9   26.20   13.20
  -7  -5   9   20.60    8.30
   6   5  -9   53.69    8.10
   6   5  -9   46.00    8.90
  -6  -5   9   29.90   10.00
  -6  -5   9   23.50    9.90
  -6  -5   9   30.60    8.40
  -6  -5   9   42.10   14.10
   5   5  -9    1.30    7.20
   5   5  -9    5.70    7.60
   5   5  -9    4.20    3.60
  -5  -5   9    2.90    9.30
  -5  -5   9   -8.80    8.70
  -5  -5   9   -7.70    6.90
  -5  -5   9    8.30    9.00
  -5  -5   9  -10.90   11.70
   4   5  -9   73.69    8.70
   4   5  -9  106.79    9.40
  -4  -5   9   73.49   12.90
  -4  -5   9   75.69    8.30
  -4  -5   9   77.19   14.30
  -4  -5   9   89.49   10.90
   3   5  -9  282.97   13.60
   3   5  -9  247.98   12.40
  -3  -5   9  233.58   18.70
  -3  -5   9  249.88   12.40
  -3  -5   9  257.57   15.50
  -3  -5   9  241.68   21.00
   2   5  -9  148.49   12.60
   2   5  -9  117.59   17.90
   2   5  -9  116.69   11.40
  -2  -5   9  132.59   11.80
  -2  -5   9  117.89   15.00
  -2  -5   9  123.69   14.60
   1   5  -9    9.30    7.60
   1   5  -9    0.60   10.60
   1   5  -9   12.70    7.30
  -1  -5   9   14.60    7.60
  -1  -5   9   -4.40   10.60
   0   5  -9    5.70    9.80
   0   5  -9    6.90    8.40
   0   5  -9   12.30    7.90
   0  -5   9    7.20   11.10
   0  -5   9   11.70    8.10
  -1   5  -9   38.70    8.80
  -1   5  -9   22.20    9.30
   1  -5   9   13.80    8.40
   1  -5   9   21.60   11.40
   1  -5   9    0.50    8.00
  -2   5  -9   30.50   15.40
  -2   5  -9   13.90    8.60
   2  -5   9   17.00    9.90
   2  -5   9   13.80   10.90
   2  -5   9   -5.80    7.30
   3  -5   9   17.50   10.30
   3  -5   9    5.30    9.00
   7   4  -9   28.90    8.20
   7   4  -9   46.30   17.00
  -7  -4   9   22.50   14.00
  -7  -4   9   35.20   10.60
  -7  -4   9   39.30    8.40
  -7  -4   9   43.00    9.10
  -7  -4   9   43.50   21.50
   6   4  -9    5.50    7.90
   6   4  -9   -7.70    6.20
   6   4  -9   -1.80    7.30
  -6  -4   9    7.20    9.40
  -6  -4   9   -2.10    7.80
  -6  -4   9   -6.50   12.50
  -6  -4   9   11.10    9.00
  -6  -4   9   12.30    8.00
   5   4  -9   49.00    7.90
   5   4  -9   60.99    8.80
  -5  -4   9   37.70    7.90
  -5  -4   9   33.60   11.50
  -5  -4   9   41.60   10.40
  -5  -4   9   30.80   12.50
  -5  -4   9   62.09    9.20
  -5  -4   9   38.60   10.40
   4   4  -9  159.28   12.00
   4   4  -9  176.18   13.20
  -4  -4   9  161.48   14.00
  -4  -4   9  205.28   17.10
  -4  -4   9  177.68   18.40
   3   4  -9  104.49    9.60
   3   4  -9  111.59   11.50
  -3  -4   9  100.99    9.30
  -3  -4   9   77.39   12.80
  -3  -4   9   81.69   11.20
   2   4  -9   90.79    8.80
   2   4  -9   85.59   10.10
   2   4  -9   92.39    9.50
  -2  -4   9   79.49   13.50
  -2  -4   9  117.59   11.10
  -2  -4   9   85.09    9.20
   1   4  -9    3.50    7.30
   1   4  -9    9.20    8.30
   1   4  -9    1.60    7.40
  -1  -4   9   19.50   12.00
  -1  -4   9   -0.60    7.20
   0   4  -9    0.20    8.70
   0   4  -9   14.90    8.30
   0   4  -9   13.90    6.90
   0  -4   9    6.30    8.30
   0  -4   9    6.30   11.80
   0  -4   9   12.20   13.30
  -1   4  -9  120.19   11.30
  -1   4  -9   79.99    9.70
  -1   4  -9   91.19   12.40
   1  -4   9  119.39   14.00
   1  -4   9   89.29    9.50
   1  -4   9   73.49    9.80
  -2   4  -9   10.20    9.00
   2  -4   9    8.90   10.90
   2  -4   9    0.40   17.20
   2  -4   9    9.50    8.10
  -3   4  -9  116.59   12.70
   3  -4   9   75.69   11.10
   3  -4   9  130.19   14.00
   3  -4   9  130.59   15.60
   7   3  -9   11.60    8.20
   7   3  -9    8.40    9.00
   7   3  -9   13.00    6.90
  -7  -3   9  -16.20   13.40
  -7  -3   9   19.90    8.30
  -7  -3   9    4.00   10.00
  -7  -3   9   14.80   12.90
  -7  -3   9    9.80    8.10
   6   3  -9    6.00    7.60
   6   3  -9   10.70    6.40
   6   3  -9   21.00    8.70
  -6  -3   9   18.70    8.30
  -6  -3   9   15.00    8.00
  -6  -3   9   -4.10   12.90
  -6  -3   9    5.70    8.90
  -6  -3   9    9.60   10.30
   5   3  -9   76.99    8.90
   5   3  -9   93.59   18.00
  -5  -3   9  104.19   11.60
  -5  -3   9   78.59    9.50
  -5  -3   9   96.79   12.00
   4   3  -9  194.48   15.80
   4   3  -9  167.78   12.40
  -4  -3   9  164.48   13.30
  -4  -3   9  178.28   14.30
   3   3  -9   36.40    8.30
  -3  -3   9   27.00    7.70
  -3  -3   9   26.20    8.30
   2   3  -9  272.07   13.50
   2   3  -9  288.17   14.30
  -2  -3   9  269.27   13.30
  -2  -3   9  282.77   13.40
   1   3  -9  145.59   14.00
   1   3  -9  132.79   11.70
   1   3  -9  136.39   10.90
  -1  -3   9  125.89   12.20
  -1  -3   9  129.19   11.40
  -1  -3   9  141.69   17.30
   0   3  -9   29.70    8.70
   0   3  -9   24.50    6.70
   0   3  -9   11.30    9.50
   0  -3   9   21.50    8.30
   0  -3   9   18.50    8.40
   0  -3   9   20.70   11.60
  -1   3  -9   17.50   10.20
  -1   3  -9   21.20    8.50
   1  -3   9   12.00   11.70
   1  -3   9   10.70    8.20
   1  -3   9    9.80    9.60
  -2   3  -9   -4.50    9.60
   2  -3   9   34.80   13.10
   2  -3   9   -4.40    7.90
   2  -3   9   -7.30   11.00
  -3   3  -9    5.60    9.70
   3  -3   9   -2.60   15.90
   3  -3   9   -1.30   11.70
   3  -3   9   -3.20   10.20
   8   2  -9   46.20   11.20
   8   2  -9   32.40    9.00
  -8  -2   9    0.30   13.30
  -8  -2   9   52.99    9.60
   7   2  -9   12.20    8.30
   7   2  -9    8.50    8.90
   7   2  -9    5.30    3.40
  -7  -2   9   19.10    9.20
  -7  -2   9   15.40   11.30
  -7  -2   9   16.10    8.70
  -7  -2   9   12.90   12.90
   6   2  -9   67.89    7.00
   6   2  -9   51.89    9.30
   6   2  -9   44.40    8.50
  -6  -2   9   70.89   11.10
  -6  -2   9   63.49    9.40
  -6  -2   9   55.79   12.10
   5   2  -9  365.86   15.40
   5   2  -9  332.27   14.40
  -5  -2   9  333.47   14.90
  -5  -2   9  350.56   17.00
  -5  -2   9  335.57   17.30
   4   2  -9  253.07   14.00
   4   2  -9  215.88   12.60
  -4  -2   9  218.08   14.70
  -4  -2   9  252.77   13.20
   3   2  -9   50.79    8.60
   3   2  -9   56.19    8.40
  -3  -2   9   44.00    8.30
  -3  -2   9   38.50    8.50
   2   2  -9  167.08   12.70
   2   2  -9  186.08   13.40
  -2  -2   9  171.38   12.00
  -2  -2   9  186.78   11.60
  -2  -2   9  175.88   12.80
   1   2  -9   47.60    9.50
   1   2  -9   52.79    8.70
  -1  -2   9   56.79    9.20
  -1  -2   9   58.69    9.00
   0   2  -9   32.10    7.80
   0   2  -9   38.40    9.30
   0   2  -9   27.20    8.40
   0  -2   9   31.20    9.50
   0  -2   9   30.80    8.90
  -1   2  -9    5.10    9.50
  -1   2  -9  -16.60    8.10
  -1   2  -9   -2.20    7.00
   1  -2   9    1.90    9.10
   1  -2   9  -21.30   11.30
   1  -2   9    0.30    9.00
  -2   2  -9   14.40    9.60
  -2   2  -9    6.70   11.30
   2  -2   9  -14.20   10.30
   2  -2   9  -11.50   11.10
   2  -2   9    4.80    8.40
   8   1  -9   21.80   10.60
   8   1  -9   12.00    9.70
  -8  -1   9    3.10   10.80
  -8  -1   9    4.40    8.60
   7   1  -9   41.00    9.70
   7   1  -9   47.50    8.90
  -7  -1   9   27.90    9.30
  -7  -1   9   47.60   10.00
  -7  -1   9   52.19   12.30
   6   1  -9    7.30    8.30
   6   1  -9   26.30    5.60
   6   1  -9   14.40    8.60
  -6  -1   9   13.40   10.30
  -6  -1   9   20.20    8.80
  -6  -1   9   26.70    8.20
   5   1  -9   21.30    8.10
   5   1  -9   30.90    8.50
  -5  -1   9   20.10    8.10
  -5  -1   9   23.60    8.80
  -5  -1   9   13.60   10.60
   4   1  -9   27.00    8.70
   4   1  -9   22.40    7.50
  -4  -1   9   18.80    9.50
  -4  -1   9   35.10    8.00
  -4  -1   9   30.10    7.80
   3   1  -9   12.80    8.20
   3   1  -9   -3.40    7.40
  -3  -1   9    4.20    7.80
  -3  -1   9    7.70    7.90
   2   1  -9   29.10    8.60
   2   1  -9   48.30    8.80
  -2  -1   9   41.70    8.10
  -2  -1   9   45.20    7.30
  -2  -1   9   31.50    8.00
   1   1  -9  351.16   15.60
   1   1  -9  355.86   15.10
   1   1  -9  350.36   15.80
  -1  -1   9  375.46   15.60
  -1  -1   9  340.47   15.20
   0   1  -9   -0.10    7.50
   0   1  -9  -19.20    8.60
   0   1  -9   -1.70    7.70
   0  -1   9   -6.50    9.10
   0  -1   9    7.30    8.40
  -1   1  -9    2.70    8.50
  -1   1  -9    3.20   10.50
  -1   1  -9   -1.60    7.80
   1  -1   9    6.90    9.00
   1  -1   9    1.70    9.60
  -2   1  -9    0.60    9.80
  -2   1  -9  -24.80   10.90
   2  -1   9    2.90    8.50
   2  -1   9   -5.80   10.20
   8   0  -9   13.80   12.00
   8   0  -9   18.50   11.10
  -8   0   9    8.80    9.00
  -8   0   9   -4.30   11.10
   7   0  -9    8.40    9.10
   7   0  -9    2.30    8.30
  -7   0   9   -3.80   10.70
  -7   0   9   10.00    8.60
  -7   0   9    7.30    9.60
   6   0  -9   13.70    8.00
   6   0  -9   15.00    8.50
   6   0  -9    8.70    2.10
  -6   0   9    8.10    9.20
  -6   0   9  -10.00    7.70
  -6   0   9   -0.90    9.40
   5   0  -9   39.60    9.30
   5   0  -9   31.60    8.30
  -5   0   9   31.60    9.20
  -5   0   9   29.50    9.10
  -5   0   9   19.30    8.30
   4   0  -9   22.40    7.90
   4   0  -9   16.90    7.60
  -4   0   9   16.70    7.40
  -4   0   9   28.50    8.20
  -4   0   9   23.50    9.10
   3   0  -9   20.60    8.20
   3   0  -9   16.20    8.80
  -3   0   9   11.30    7.60
  -3   0   9   17.10    7.80
   2   0  -9  113.39   10.80
   2   0  -9  119.09   10.70
  -2   0   9  123.09   10.40
  -2   0   9  119.99   10.50
   1   0  -9   48.20    8.90
   1   0  -9   66.59    9.10
   1   0  -9   64.89    9.50
  -1   0   9   52.69    8.90
  -1   0   9   51.99    8.90
   0   0  -9   60.99    9.40
   0   0  -9   48.20    9.30
   0   0  -9   68.49    9.50
   0   0   9   55.09    9.80
   0   0   9   53.19    8.90
  -1   0  -9    9.90    9.80
  -1   0  -9   54.09   17.10
  -1   0  -9   12.90    9.40
   1   0   9    5.20   10.40
   1   0   9    6.20    8.20
  -2   0  -9   12.50   10.10
   2   0   9    6.10   11.00
   2   0   9    4.90   15.30
  -8   1   9   -2.50   12.30
   7  -1  -9   48.50    9.30
   7  -1  -9   50.29   10.40
  -7   1   9   53.49   10.00
  -7   1   9   52.79   10.80
  -7   1   9   36.90   12.00
   6  -1  -9  -10.90    8.90
   6  -1  -9    1.80    8.40
  -6   1   9  -13.40   15.50
  -6   1   9    4.90    7.90
  -6   1   9   -1.00    8.90
   5  -1  -9   34.20    8.60
   5  -1  -9   32.20    9.20
  -5   1   9   55.19    9.80
  -5   1   9   63.79   10.40
  -5   1   9   53.09    9.40
   4  -1  -9  103.09    9.60
   4  -1  -9  111.69   10.70
  -4   1   9  137.39   10.60
  -4   1   9  147.09   13.30
  -4   1   9  129.59   11.10
   3  -1  -9  136.19   11.40
   3  -1  -9  137.89   13.00
  -3   1   9  123.89   10.50
   2  -1  -9   -5.60    8.70
   2  -1  -9   -3.50    8.90
   2  -1  -9    3.40    7.80
  -2   1   9   15.80    8.10
  -2   1   9    1.60    8.00
   1  -1  -9  189.98   14.10
   1  -1  -9  195.48   14.90
   1  -1  -9  179.88   14.00
  -1   1   9  203.48   13.50
  -1   1   9  208.88   14.80
   0  -1  -9   14.40   14.50
   0  -1  -9    3.70    8.60
   0  -1  -9    3.30    8.70
   0   1   9    0.00    8.00
   0   1   9   -3.80    8.80
  -1  -1  -9   15.00   10.20
  -1  -1  -9   12.40    9.20
  -1  -1  -9    1.50    9.30
   1   1   9   32.10   10.90
   1   1   9    0.00    4.40
   1   1   9    3.10    8.50
   7  -2  -9   81.19   11.20
   7  -2  -9   68.39   10.60
  -7   2   9   77.59   10.80
  -7   2   9   85.09   12.60
   6  -2  -9   -9.60    7.90
   6  -2  -9   -1.40    8.30
   6  -2  -9  -12.30   14.30
  -6   2   9  -22.50   11.20
  -6   2   9   13.50    8.50
  -6   2   9    6.20    9.50
   5  -2  -9   -6.20    8.30
   5  -2  -9    8.00    8.70
   5  -2  -9    5.20    7.80
  -5   2   9   -2.60    7.90
  -5   2   9   -1.00    8.60
  -5   2   9    4.80    8.40
   4  -2  -9   32.90    9.10
   4  -2  -9   31.60    8.90
   4  -2  -9   29.40    7.70
  -4   2   9   41.10    9.60
  -4   2   9   40.00    7.10
  -4   2   9   38.10    9.40
   3  -2  -9   47.70    9.20
   3  -2  -9   26.00    8.70
  -3   2   9   16.40    5.80
  -3   2   9   29.40    9.70
   2  -2  -9   -2.40    8.70
   2  -2  -9    2.50    8.50
   2  -2  -9   -0.60    7.90
  -2   2   9   -1.90    8.10
  -2   2   9    4.20    8.40
   1  -2  -9  159.68   15.10
   1  -2  -9  194.08   14.50
   1  -2  -9  148.59   19.20
  -1   2   9  138.69   13.10
  -1   2   9  204.78   15.40
   0  -2  -9   10.40    9.40
   0  -2  -9    6.00    9.30
   0  -2  -9   12.50    8.80
   0   2   9   -2.00    9.80
   0   2   9   12.50    9.10
  -1  -2  -9    0.40    9.60
  -1  -2  -9    7.50   10.00
   1   2   9    7.70    9.00
   1   2   9   -6.00    8.00
   1   2   9   -1.30   10.70
   7  -3  -9   -4.30    8.60
   7  -3  -9    4.50   12.80
  -7   3   9   -8.00   11.20
  -7   3   9   15.50   11.90
   6  -3  -9   -2.50    8.60
   6  -3  -9    4.70    9.30
   6  -3  -9   -0.60    9.70
  -6   3   9   -7.60   10.40
  -6   3   9   -2.10    8.10
   5  -3  -9    5.50    9.10
   5  -3  -9   14.00    9.10
   5  -3  -9   14.30    9.20
  -5   3   9   -4.30    8.50
  -5   3   9   -2.90    8.60
  -5   3   9   14.20    9.40
   4  -3  -9   -9.10    8.20
   4  -3  -9    0.80    7.60
   4  -3  -9   -4.30   14.30
  -4   3   9    1.70    8.60
  -4   3   9   -4.00    9.00
   3  -3  -9    6.90   13.00
   3  -3  -9   26.70    9.40
   3  -3  -9    3.80    9.60
  -3   3   9   11.40    9.90
  -3   3   9   16.10    5.90
   2  -3  -9   -5.20    8.60
   2  -3  -9    4.40    7.90
   2  -3  -9   -2.30    8.80
  -2   3   9  -12.60    8.00
  -2   3   9    6.10    9.30
   1  -3  -9  123.49   11.20
   1  -3  -9  167.88   15.90
   1  -3  -9  123.99   11.40
  -1   3   9  151.28   12.90
  -1   3   9  100.79   10.40
   0  -3  -9  188.98   15.20
   0  -3  -9  205.78   16.80
   0   3   9  183.28   16.30
   0   3   9  179.68   14.80
   6  -4  -9    2.20    9.60
   6  -4  -9   -5.90    8.50
  -6   4   9   -4.70   12.20
  -6   4   9    5.60   14.10
   5  -4  -9  -18.80    8.20
   5  -4  -9    6.70    9.00
   5  -4  -9   -1.20    8.60
  -5   4   9   -5.90    8.20
  -5   4   9  -14.80   10.00
   4  -4  -9    2.80    8.50
   4  -4  -9   10.50    9.50
   4  -4  -9   -4.60    5.00
   4  -4  -9    1.70    8.20
  -4   4   9  -10.70    9.70
  -4   4   9    1.60    2.50
   3  -4  -9   11.40    9.20
   3  -4  -9   11.90   10.00
   3  -4  -9    6.00    9.10
  -3   4   9   18.80    6.90
  -3   4   9   20.30   10.30
   2  -4  -9   14.30    9.10
   2  -4  -9   31.20   10.70
   2  -4  -9   36.20   10.40
  -2   4   9    2.10   14.70
  -2   4   9   39.70   10.60
   3   8 -10   79.29   10.00
   3   8 -10   57.79    8.40
   3   8 -10   53.69   14.40
  -3  -8  10   61.79   12.80
  -3  -8  10   53.79   14.40
  -3  -8  10   84.09    9.80
  -3  -8  10   66.89    8.40
  -3  -8  10   59.39    7.80
   2   8 -10    9.90    9.40
   2   8 -10    5.60   10.80
   2   8 -10   -1.50    7.40
  -2  -8  10    4.30   11.70
  -2  -8  10   11.30   12.50
  -2  -8  10   -1.70    8.30
  -2  -8  10    6.80    8.40
  -2  -8  10    1.20    6.60
   1   8 -10   -1.00    9.80
   1   8 -10   -1.20    8.00
   1   8 -10    4.80    9.80
  -1  -8  10    6.50   13.90
  -1  -8  10   -1.80    6.90
  -1  -8  10   -4.80   12.20
  -1  -8  10  -20.60    8.80
  -1  -8  10    6.80    8.80
   0   8 -10   16.50   11.00
   0   8 -10   27.80   10.40
   0   8 -10  -26.20   17.00
   0  -8  10   16.80    8.00
   0  -8  10   14.90   16.00
   0  -8  10   18.10   12.30
   5   7 -10    5.60    8.40
   5   7 -10   -8.90    7.40
   5   7 -10   14.60    7.60
  -5  -7  10    1.70    5.40
  -5  -7  10   20.10    8.40
  -5  -7  10    1.40   12.90
  -5  -7  10   15.20   11.30
  -5  -7  10   12.40   10.50
   4   7 -10   50.69    8.40
   4   7 -10   65.09    9.70
  -4  -7  10   53.89    9.00
  -4  -7  10   56.19   11.80
  -4  -7  10   50.19    7.80
  -4  -7  10   47.50   16.90
  -4  -7  10   70.69   13.10
   3   7 -10   52.99    8.40
   3   7 -10   83.99   10.20
   3   7 -10   72.39   13.40
  -3  -7  10   65.59   14.30
  -3  -7  10   66.89   13.40
  -3  -7  10   75.19   11.10
  -3  -7  10   58.69    8.20
   2   7 -10   57.99    8.70
   2   7 -10   98.09   10.70
   2   7 -10   40.20   16.20
  -2  -7  10   52.79   13.40
  -2  -7  10   77.99    9.20
  -2  -7  10   64.99    8.50
  -2  -7  10   62.69   13.70
  -2  -7  10   68.89    9.70
   1   7 -10   11.60   10.10
   1   7 -10   -0.50    7.70
  -1  -7  10    8.50    7.80
  -1  -7  10  -11.20   13.30
  -1  -7  10   11.30   11.00
  -1  -7  10    2.20    8.50
   0   7 -10   25.30    8.80
   0   7 -10   26.10   11.10
   0  -7  10    8.40    9.60
   0  -7  10   15.80   11.70
   0  -7  10    0.60   23.20
   0  -7  10   14.90    9.60
  -1   7 -10   17.80    9.70
  -1   7 -10   32.20   13.80
   1  -7  10    6.30   15.20
   1  -7  10   23.80   12.20
   1  -7  10   12.70    8.20
   5   6 -10   14.90    7.90
   5   6 -10    6.00    7.00
   5   6 -10    7.80    8.40
  -5  -6  10   18.20   11.00
  -5  -6  10   12.10   14.00
  -5  -6  10    4.40    6.90
  -5  -6  10   16.40   10.20
  -5  -6  10   10.00    8.20
   4   6 -10    2.40    7.50
   4   6 -10   -5.60    8.30
  -4  -6  10   22.20   13.30
  -4  -6  10   23.50   10.40
  -4  -6  10   -5.20    6.90
  -4  -6  10   -0.40   10.90
   3   6 -10    5.50    7.70
   3   6 -10   39.80    9.40
  -3  -6  10   18.70   12.60
  -3  -6  10   23.60    7.90
  -3  -6  10    6.80   13.00
  -3  -6  10   29.50    9.50
  -3  -6  10   28.40   13.30
   2   6 -10   24.40    9.90
   2   6 -10   20.40   16.30
   2   6 -10   24.90    8.00
  -2  -6  10   45.80    8.90
  -2  -6  10   11.70   14.30
  -2  -6  10   32.70   14.00
   1   6 -10   11.00   10.80
   1   6 -10    9.00    8.70
   1   6 -10    4.30    8.00
  -1  -6  10   -3.80    7.50
  -1  -6  10   -2.30   11.10
  -1  -6  10    4.30    9.70
  -1  -6  10  -30.70   14.00
   0   6 -10   49.00   10.20
   0   6 -10   38.40   11.60
   0   6 -10   43.60    9.50
   0  -6  10    9.80   15.90
   0  -6  10   50.59    9.50
   0  -6  10   56.09   10.70
   0  -6  10   46.60   12.50
  -1   6 -10   18.60    9.60
  -1   6 -10   19.20   10.90
  -1   6 -10   10.60   13.50
   1  -6  10   26.50   12.80
   1  -6  10   12.30   11.90
   1  -6  10   17.50    9.30
   1  -6  10  -17.00   17.20
   6   5 -10    1.10   10.70
   6   5 -10    9.10    7.20
   6   5 -10    5.10    7.70
  -6  -5  10    8.40    8.70
  -6  -5  10    4.90   12.30
  -6  -5  10   11.70   10.30
  -6  -5  10   -8.00   12.80
  -6  -5  10   16.10   10.20
   5   5 -10   20.10    7.90
   5   5 -10   10.20    8.90
  -5  -5  10   -3.00    8.00
  -5  -5  10   -0.60   12.00
  -5  -5  10    5.10    9.30
  -5  -5  10    5.90   13.10
  -5  -5  10   21.30    9.30
   4   5 -10   29.80   11.10
   4   5 -10   12.60    8.20
  -4  -5  10    1.10   14.00
  -4  -5  10  -20.20   12.80
  -4  -5  10    6.00    8.90
  -4  -5  10   12.70    9.30
  -4  -5  10   10.20    7.50
   3   5 -10   91.99   12.70
   3   5 -10   76.49    9.00
  -3  -5  10   78.19    8.90
  -3  -5  10   78.89   10.40
  -3  -5  10   87.89   15.40
  -3  -5  10   78.49    9.30
   2   5 -10   84.39    9.30
   2   5 -10   94.49   10.80
   2   5 -10   92.99   11.80
  -2  -5  10   69.59   14.80
  -2  -5  10  123.29   10.70
  -2  -5  10   76.49    9.40
   1   5 -10   62.69   11.70
   1   5 -10   44.50    9.10
  -1  -5  10   60.59   15.00
  -1  -5  10   55.79    9.30
   0   5 -10   34.40    9.80
   0   5 -10   72.99   10.20
   0   5 -10   58.49   12.00
   0  -5  10   50.19   13.60
   0  -5  10   68.49   10.30
   0  -5  10   63.99   10.60
  -1   5 -10   52.49   10.00
  -1   5 -10   71.69   13.70
   1  -5  10   50.69   11.20
   1  -5  10   43.00    9.30
   1  -5  10   45.10   12.50
   6   4 -10   48.40    8.80
   6   4 -10   70.79   10.20
  -6  -4  10   53.19   11.50
  -6  -4  10   40.00   10.50
  -6  -4  10   51.99    9.60
  -6  -4  10   53.69   11.00
  -6  -4  10   23.00   15.10
  -6  -4  10   65.29   10.50
   5   4 -10   12.30    9.00
   5   4 -10   10.70    8.10
  -5  -4  10   -3.50   12.30
  -5  -4  10  -28.50   21.80
  -5  -4  10   10.90    9.40
  -5  -4  10   19.40   11.50
  -5  -4  10   18.30    8.90
   4   4 -10   36.40    9.40
   4   4 -10   29.10    8.50
  -4  -4  10   30.10    9.40
  -4  -4  10   14.10   13.60
  -4  -4  10   21.40    8.40
  -4  -4  10   28.80    8.50
   3   4 -10   33.90    8.30
   3   4 -10   47.90    9.60
  -3  -4  10   40.60    9.10
  -3  -4  10   33.80   14.40
  -3  -4  10   28.60    8.00
   2   4 -10   31.40    9.40
   2   4 -10   41.00    8.50
  -2  -4  10   43.00   14.50
  -2  -4  10   33.90   13.30
   1   4 -10   19.60   10.00
   1   4 -10   30.40    8.50
   1   4 -10   27.80    8.50
  -1  -4  10   27.50    8.50
  -1  -4  10   25.10   12.90
  -1  -4  10   41.10    9.50
   0   4 -10  145.49   13.90
   0   4 -10  158.08   13.10
   0  -4  10  136.49   13.30
   0  -4  10  159.58   18.30
  -1   4 -10    5.20   12.90
  -1   4 -10    1.50    8.80
   1  -4  10   -4.30   10.40
   1  -4  10    0.10    8.40
   1  -4  10   -1.20   11.80
   7   3 -10   18.20   10.50
   7   3 -10   10.90   10.40
   7   3 -10   26.60    4.90
  -7  -3  10   13.90    9.50
  -7  -3  10   -5.50   14.90
  -7  -3  10   11.70   11.40
  -7  -3  10  -19.20   14.60
   6   3 -10    6.30    7.90
   6   3 -10   14.30    6.70
   6   3 -10   16.90    9.40
  -6  -3  10    4.90   10.30
  -6  -3  10    2.80    9.40
  -6  -3  10  -34.10   13.10
  -6  -3  10    0.50   10.20
  -6  -3  10   10.70    9.50
   5   3 -10  277.87   14.00
   5   3 -10  317.47   16.90
  -5  -3  10  290.37   15.70
  -5  -3  10  293.87   16.90
   4   3 -10   14.90    9.90
   4   3 -10   16.80    8.10
  -4  -3  10   14.10    8.70
   3   3 -10   94.29   10.70
   3   3 -10   82.79    9.80
  -3  -3  10   80.69    9.90
  -3  -3  10   81.39    9.80
  -3  -3  10   56.49   10.50
   2   3 -10    9.80    9.60
   2   3 -10   14.60    8.20
  -2  -3  10    8.70    8.00
  -2  -3  10    0.40    7.30
  -2  -3  10   -0.60    7.60
   1   3 -10    6.30    9.50
   1   3 -10    5.30    8.00
   1   3 -10   -4.70    7.00
  -1  -3  10  -27.40   11.40
  -1  -3  10   -3.50    9.00
  -1  -3  10  -10.50    7.60
   0   3 -10   10.40   10.40
   0   3 -10    3.20    9.20
   0  -3  10   16.30    8.60
   0  -3  10   -9.70   11.90
   0  -3  10   13.00   12.20
  -1   3 -10   12.80   13.40
  -1   3 -10   16.60   10.00
   1  -3  10    7.80   12.90
   1  -3  10   16.30   10.30
   1  -3  10   18.70    8.90
   7   2 -10  -13.90   10.40
   7   2 -10   21.60    4.70
  -7  -2  10   10.20    9.80
  -7  -2  10    3.90    9.10
  -7  -2  10  -11.20   11.60
   6   2 -10   -1.30    8.60
   6   2 -10   23.10   10.10
   6   2 -10   15.70    8.30
  -6  -2  10   17.30    8.90
  -6  -2  10    2.50   10.40
  -6  -2  10    5.00    8.40
  -6  -2  10   -1.00    9.00
   5   2 -10   31.20    9.50
   5   2 -10   29.00    8.30
  -5  -2  10   31.60   11.20
  -5  -2  10   37.40   11.50
  -5  -2  10   36.60    9.70
  -5  -2  10   32.70   10.30
   4   2 -10  140.39   13.40
   4   2 -10  137.89   11.60
  -4  -2  10  140.69   12.40
  -4  -2  10  128.29   13.40
  -4  -2  10  119.99   10.70
   3   2 -10    3.40    7.90
   3   2 -10    3.30    8.60
  -3  -2  10   15.80    9.00
  -3  -2  10    2.90    7.50
  -3  -2  10   28.00    8.10
   2   2 -10   30.40    8.50
   2   2 -10    9.40    9.10
  -2  -2  10   24.00    8.20
  -2  -2  10   29.20    7.40
  -2  -2  10   18.30    8.40
   1   2 -10    8.00    9.20
   1   2 -10   -2.50    7.90
   1   2 -10    4.70   10.00
  -1  -2  10   -3.20    8.90
  -1  -2  10    5.30    9.10
   0   2 -10  161.48   12.80
   0   2 -10  164.18   15.00
   0   2 -10  148.19   14.00
   0  -2  10  131.09   12.50
   0  -2  10  110.59   10.80
  -1   2 -10    3.90    9.60
  -1   2 -10   -0.80   12.30
   1  -2  10  -19.00   12.70
   1  -2  10  -10.30    8.30
   1  -2  10    4.20   10.70
   7   1 -10   21.30   10.70
   7   1 -10   11.60    2.20
  -7  -1  10   -8.30   12.90
  -7  -1  10   13.20    8.80
  -7  -1  10    9.60   10.10
   6   1 -10   16.80    8.90
   6   1 -10    5.90    9.60
  -6  -1  10   16.20    9.40
  -6  -1  10    6.80    9.40
  -6  -1  10  -13.00   10.80
  -6  -1  10    5.50    9.10
   5   1 -10   32.10    8.50
   5   1 -10   52.79   10.50
  -5  -1  10   47.80    9.60
  -5  -1  10   28.40   10.00
  -5  -1  10   25.10   10.90
  -5  -1  10   24.30    9.00
   4   1 -10   34.80    8.90
   4   1 -10   77.59   11.10
  -4  -1  10   40.40   11.90
  -4  -1  10   51.89    9.30
  -4  -1  10   46.30    8.20
   3   1 -10   14.40    9.10
   3   1 -10   31.70    8.90
  -3  -1  10   32.80    8.60
  -3  -1  10   22.20    8.30
  -3  -1  10   23.60    9.40
   2   1 -10   13.00    8.30
   2   1 -10   17.20    9.90
  -2  -1  10   -2.20    8.90
  -2  -1  10    9.50    6.60
  -2  -1  10   -1.30    7.50
   1   1 -10   19.60    9.80
   1   1 -10   11.60    8.40
   1   1 -10   15.10    8.80
  -1  -1  10    4.80    9.60
  -1  -1  10   12.30    9.40
   0   1 -10  -10.90    9.60
   0   1 -10    4.70    8.20
   0   1 -10   -3.00    8.60
   0  -1  10    0.70    7.90
   0  -1  10   -0.60   10.10
  -1   1 -10   11.50    9.70
  -1   1 -10  -38.50   18.20
  -1   1 -10   -1.10    8.90
   1  -1  10   21.10   12.70
   1  -1  10   27.60   18.30
   7   0 -10   47.60   17.00
  -7   0  10   72.49   16.60
  -7   0  10   65.99   12.10
  -7   0  10   55.19   10.90
   6   0 -10   12.20   10.40
   6   0 -10   -3.20    8.70
  -6   0  10    3.00    9.00
  -6   0  10   10.90    9.50
  -6   0  10   16.50    9.50
   5   0 -10   14.50    8.90
   5   0 -10    8.70    8.20
  -5   0  10   11.80    9.90
  -5   0  10   -1.20    9.30
  -5   0  10   24.90    8.40
   4   0 -10   -2.20    9.10
   4   0 -10  -12.50    8.80
  -4   0  10   -5.60    8.50
  -4   0  10   16.20    6.80
  -4   0  10   19.40    9.20
   3   0 -10  313.17   15.80
   3   0 -10  319.07   17.30
  -3   0  10  294.97   15.00
  -3   0  10  305.27   14.00
  -3   0  10  346.77   17.00
   2   0 -10   -4.20    8.80
   2   0 -10    5.90    9.10
   2   0 -10    8.60    9.60
  -2   0  10    1.20    8.80
  -2   0  10   -4.80    9.40
   1   0 -10    2.00    8.50
   1   0 -10    3.30   10.50
   1   0 -10   -4.10    8.70
  -1   0  10    0.80    9.40
  -1   0  10    5.90    8.30
   0   0 -10    7.90    9.20
   0   0 -10    4.60   10.70
   0   0 -10    7.00    9.20
   0   0  10   12.80   10.40
   0   0  10   11.00    9.00
   7  -1 -10   10.30   11.60
  -7   1  10   -1.40   10.30
  -7   1  10   -0.20    9.00
   6  -1 -10   32.40   10.20
   6  -1 -10   23.00   11.40
  -6   1  10   11.50    9.20
  -6   1  10   19.10   10.20
  -6   1  10   14.40   11.50
   5  -1 -10   -7.70    7.80
  -5   1  10  -11.50    8.80
  -5   1  10    8.70    7.90
  -5   1  10   -5.30   10.60
   4  -1 -10   62.69   10.60
   4  -1 -10   81.19   14.90
  -4   1  10   68.99   10.70
   3  -1 -10   -7.40    8.70
  -3   1  10    2.80    7.60
  -3   1  10   -8.30    9.10
  -3   1  10   -5.20    7.70
   2  -1 -10  238.48   16.40
   2  -1 -10  227.28   15.20
   2  -1 -10  212.98   16.10
  -2   1  10  219.78   14.40
  -2   1  10  248.98   17.10
   1  -1 -10   62.69   11.10
   1  -1 -10   71.59   10.80
   1  -1 -10   55.79   10.20
  -1   1  10   47.00    9.30
  -1   1  10   72.39   11.90
   0  -1 -10    3.40    9.20
   0  -1 -10   14.00   10.00
   0   1  10   21.50   11.40
   0   1  10    8.90    9.30
   6  -2 -10    2.30   10.40
   6  -2 -10   13.80    9.10
   6  -2 -10   -1.30    8.80
  -6   2  10    3.00   10.90
  -6   2  10    4.60   11.90
  -6   2  10  -11.60    8.80
   5  -2 -10    6.00    9.40
   5  -2 -10   15.20    9.70
  -5   2  10   26.30   14.30
  -5   2  10   17.20    8.00
  -5   2  10    9.50   10.10
   4  -2 -10   53.69   10.50
   4  -2 -10   50.19   11.20
  -4   2  10   46.10   10.70
   3  -2 -10   -1.00   10.10
   3  -2 -10   22.50    9.90
   3  -2 -10    9.80    9.50
  -3   2  10   15.70    8.90
  -3   2  10    7.20    2.40
  -3   2  10   -0.90   10.50
   2  -2 -10   63.09   11.00
   2  -2 -10   63.69   11.40
   2  -2 -10   53.19   10.20
  -2   2  10   79.59   11.90
  -2   2  10   65.79   11.30
   1  -2 -10   72.09   11.30
   1  -2 -10   50.09    9.90
  -1   2  10   58.79   10.60
  -1   2  10   89.49   13.20
   5  -3 -10    6.50    9.50
   5  -3 -10    8.00    9.40
  -5   3  10    2.80   10.10
  -5   3  10   10.20   19.80
   4  -3 -10    2.50   10.10
  -4   3  10    4.00   11.10
   3  -3 -10    0.90   10.10
   3  -3 -10   -0.20   10.10
  -3   3  10    1.40   11.50
  -3   3  10   15.10   10.10
  -3  -7  11   46.70   14.10
  -3  -7  11   51.89   15.40
   2   7 -11   34.50   12.30
   2   7 -11   67.89   11.70
  -2  -7  11   51.59   14.50
  -2  -7  11   49.40   16.40
  -2  -7  11   15.70   19.00
   4   6 -11   29.20   10.50
   4   6 -11    3.40   14.00
  -4  -6  11    8.80   14.20
  -4  -6  11   15.50   11.20
  -4  -6  11   19.20   14.70
  -4  -6  11   17.10    9.60
  -4  -6  11    9.40    7.90
   3   6 -11   -1.60    8.90
   3   6 -11   25.90   10.80
  -3  -6  11  -18.60   14.50
  -3  -6  11    6.20   10.50
  -3  -6  11   12.30   13.30
  -3  -6  11   -3.60    9.40
   2   6 -11   13.30   13.50
   2   6 -11  -18.90    8.30
   2   6 -11    7.80   10.90
  -2  -6  11   16.30    8.70
  -2  -6  11   13.20   20.90
  -2  -6  11    6.20   10.90
  -2  -6  11  -16.60   15.20
   1   6 -11   49.00    9.60
   1   6 -11   98.59   13.60
   1   6 -11   58.79   11.70
  -1  -6  11   53.79   24.20
  -1  -6  11   76.19   10.60
   5   5 -11   14.10   15.80
   5   5 -11   16.50   10.00
  -5  -5  11  -21.80   12.70
  -5  -5  11  -16.00   14.60
  -5  -5  11    6.40    9.90
   4   5 -11   40.60   10.90
   4   5 -11   12.00    8.50
  -4  -5  11   25.50   10.50
  -4  -5  11   11.90    9.10
  -4  -5  11   37.10    9.80
  -4  -5  11   -1.00   22.30
  -4  -5  11  -23.80   15.00
   3   5 -11   54.19    9.10
   3   5 -11   68.39   11.90
  -3  -5  11   75.29   10.90
  -3  -5  11   57.89   10.00
  -3  -5  11   47.20   19.40
  -3  -5  11   64.59    9.70
   2   5 -11   10.60    8.40
   2   5 -11   15.60   11.10
  -2  -5  11   -0.90   14.30
  -2  -5  11   -4.40    8.50
  -2  -5  11    0.20    9.40
   1   5 -11    3.40   10.10
   1   5 -11    5.80   12.50
  -1  -5  11    5.20   11.60
  -1  -5  11   10.40   14.00
  -1  -5  11    3.50    8.80
   0   5 -11   11.60    7.10
   0  -5  11   56.99   15.10
   5   4 -11   -8.10   10.50
   5   4 -11   16.00   11.20
  -5  -4  11    4.40   10.10
  -5  -4  11    0.30   24.40
  -5  -4  11    5.50    9.50
   4   4 -11  173.48   13.60
   4   4 -11  264.67   17.90
  -4  -4  11  186.28   13.80
  -4  -4  11  165.18   20.90
  -4  -4  11  204.68   15.70
  -4  -4  11  183.38   15.20
   3   4 -11  103.69   12.60
   3   4 -11   82.59   10.30
  -3  -4  11   52.69   14.70
  -3  -4  11   87.59   10.30
  -3  -4  11   70.99   10.10
  -3  -4  11   95.39   11.20
   2   4 -11    3.10    8.30
   2   4 -11   -9.30   10.50
  -2  -4  11  -29.20   12.10
  -2  -4  11   -9.80    8.20
  -2  -4  11    3.90    9.30
   1   4 -11   30.30    9.50
   1   4 -11   26.30   11.90
  -1  -4  11   17.80   14.30
  -1  -4  11   50.59   11.50
  -1  -4  11   21.50    9.40
   0   4 -11    4.90   13.40
   0  -4  11    0.90   14.10
   0  -4  11   16.40    9.40
   6   3 -11   -4.90   10.70
   6   3 -11    7.50    8.50
  -6  -3  11   -0.20   10.20
  -6  -3  11    7.00    9.20
   5   3 -11   14.60    9.60
   5   3 -11   21.30   11.50
  -5  -3  11   11.90    9.70
  -5  -3  11   -4.10    9.10
  -5  -3  11   19.50    9.60
   4   3 -11  113.99   12.50
   4   3 -11   82.49   10.10
  -4  -3  11   90.09   10.90
  -4  -3  11   77.59    9.90
  -4  -3  11   79.89   11.50
   3   3 -11   58.39   10.00
   3   3 -11   81.79   12.80
  -3  -3  11   70.09   10.40
  -3  -3  11   57.49    9.70
  -3  -3  11   67.99   10.50
   2   3 -11    9.30   10.70
   2   3 -11    6.50    8.50
  -2  -3  11  -10.10   13.40
  -2  -3  11   22.00   10.30
  -2  -3  11   17.10    8.90
   1   3 -11   73.29    9.10
   1   3 -11   60.29   11.00
  -1  -3  11   62.79   12.40
  -1  -3  11   54.49   11.00
  -1  -3  11   31.70   14.30
   0   3 -11    2.10   12.80
   0   3 -11  -14.50   14.50
   0  -3  11   45.80   19.20
   0  -3  11   -7.40   14.40
   6   2 -11   -0.20   10.90
   6   2 -11   -7.10    9.20
  -6  -2  11   -4.30   10.30
  -6  -2  11    8.30    9.60
  -6  -2  11    0.70    9.90
   5   2 -11   27.20   12.00
   5   2 -11   17.80    9.30
  -5  -2  11    9.10    9.60
  -5  -2  11   10.70    9.60
  -5  -2  11   25.50    8.90
   4   2 -11   17.40    9.60
   4   2 -11   22.40   11.20
  -4  -2  11   11.50    8.80
  -4  -2  11   24.70   10.00
  -4  -2  11   28.10    9.40
   3   2 -11   -9.30   11.20
   3   2 -11    4.20    8.30
  -3  -2  11   21.80    8.40
  -3  -2  11    4.30    9.40
  -3  -2  11    2.30    8.20
   2   2 -11    4.30   20.80
   2   2 -11  -22.10    9.10
  -2  -2  11    2.20   10.70
  -2  -2  11    3.40    9.50
   1   2 -11   16.00   10.10
   1   2 -11   28.50    9.00
   1   2 -11    3.80   12.50
  -1  -2  11   12.00    9.40
  -1  -2  11    6.30   10.70
   6   1 -11   28.40   15.30
   6   1 -11   31.70   12.60
  -6  -1  11   19.80   10.10
  -6  -1  11   38.30   10.00
  -6  -1  11   23.80   11.50
   5   1 -11   21.80    9.40
   5   1 -11   50.09   22.90
  -5  -1  11   41.50   11.20
  -5  -1  11   35.20    8.80
  -5  -1  11   36.10   10.60
   4   1 -11   42.30   21.60
   4   1 -11   27.40   10.00
  -4  -1  11   26.10    9.60
  -4  -1  11   28.20   10.90
  -4  -1  11   34.80    9.40
   3   1 -11   24.60    9.30
   3   1 -11   33.20   14.80
  -3  -1  11   23.40    8.00
  -3  -1  11   19.70   10.20
  -3  -1  11    4.50    8.50
   2   1 -11   14.40   12.00
   2   1 -11   -7.60    9.10
   2   1 -11   17.30    9.20
  -2  -1  11   10.40    9.20
  -2  -1  11   -3.00   10.10
   1   1 -11   64.09   10.80
   1   1 -11   89.79   10.70
   1   1 -11  101.59   14.90
  -1  -1  11  119.89   13.40
  -1  -1  11   86.79   15.20
   5   0 -11   18.60   12.00
   5   0 -11   15.90    9.80
  -5   0  11  -15.10    9.90
  -5   0  11    2.60   11.30
  -5   0  11   18.90    7.90
   4   0 -11   46.30   12.80
   4   0 -11   27.40    9.80
  -4   0  11   23.10   15.60
  -4   0  11    7.90    8.50
  -4   0  11   22.50   10.90
   3   0 -11   31.50   10.40
   3   0 -11   44.30   12.30
  -3   0  11   43.40    7.90
  -3   0  11   31.00   10.30
  -3   0  11   50.39   11.80
   2   0 -11   40.70   11.00
   2   0 -11   39.80   10.70
   2   0 -11   27.00   13.50
  -2   0  11   45.80   11.20
  -2   0  11   45.30   12.80
   4  -1 -11   14.10    9.90
  -4   1  11   -3.30   14.30
  -4   1  11    6.10   11.80
   0   0   0    0.00    0.00
_computing_structure_solution     'SHELXT 2014/5 (Sheldrick, 2014)'
;
_shelx_hkl_checksum              43209
_shelx_res_file
;
TITL UMD2025F_a.res in P-1
    umd2025f_a.res
    created by SHELXL-2018/3 at 10:55:23 on 12-Mar-2020
REM Old TITL UMD2025F in P-1
REM SHELXT solution in P-1
REM R1 0.138, Rweak 0.014, Alpha 0.038, Orientation as input
REM Formula found by SHELXT: C13 N2 O3
REM COLORLESS BLOCK
CELL 0.71073 7.7363 9.7146 9.7854 105.524 110.554 97.167
ZERR 2 0.001 0.0012 0.0013 0.004 0.004 0.004
LATT 1
SFAC C H N O
UNIT 26 32 4 6
EQIV $1 1+X,+Y,+Z
EQIV $2 1+X,1+Y,+Z
EQIV $3 1-X,-Y,1-Z
DFIX 0.87 0.01 N2 H2b N2 H2a N1 H1a
DFIX 0.88 0.01 O1 H1
L.S. 10
PLAN  1
SIZE 0.03 0.19 0.24
TEMP 24
CONF
HTAB O1 O3
HTAB N1 O2_$2
HTAB N2 O3_$1
HTAB N2 O2_$3
BOND $H
LIST 6
HTAB 2
MORE -1
fmap 2
acta
OMIT -6 -6 6
OMIT -3 -7 2
OMIT -4 -7 4
OMIT -2 -8 4
OMIT -1 -1 1
REM <olex2.extras>
REM <HklSrc "%.\\UMD2025F_a.hkl">
REM </olex2.extras>
WGHT    0.042800    0.103100
EXTI    0.034868
FVAR       1.52374
O1    4    0.710207    0.241707    0.730740    11.00000    0.04805    0.04287 =
         0.06239    0.01350    0.02776   -0.00094
N1    3    1.102535    0.682903    0.820246    11.00000    0.05100    0.03470 =
         0.05002    0.01613    0.01940    0.00330
N2    3    1.175485    0.138355    0.458201    11.00000    0.03690    0.04759 =
         0.03366    0.01785    0.01110    0.01350
C1    1    0.903361    0.474058    0.779757    11.00000    0.03424    0.03851 =
         0.03064    0.01447    0.00940    0.00701
C2    1    0.753662    0.392032    0.796847    11.00000    0.03756    0.04074 =
         0.03532    0.01334    0.01149    0.00487
C3    1    0.659729    0.464971    0.877481    11.00000    0.04291    0.06261 =
         0.04772    0.02115    0.02325    0.01065
AFIX  43
H3    2    0.559823    0.411333    0.888131    11.00000   -1.20000
AFIX   0
C4    1    0.711661    0.618825    0.944055    11.00000    0.06094    0.05893 =
         0.04857    0.01667    0.03037    0.02300
AFIX  43
H4    2    0.644580    0.664964    0.997328    11.00000   -1.20000
AFIX   0
C5    1    0.858279    0.702974    0.932828    11.00000    0.06249    0.04079 =
         0.04093    0.01304    0.01994    0.01691
AFIX  43
H5    2    0.893452    0.804937    0.978251    11.00000   -1.20000
AFIX   0
C6    1    0.952356    0.628510    0.850041    11.00000    0.04187    0.03930 =
         0.03477    0.01658    0.01140    0.00794
C7    1    1.145504    0.567789    0.731336    11.00000    0.04335    0.04749 =
         0.04678    0.01987    0.02169    0.00668
AFIX  43
H7    2    1.240746    0.577663    0.694858    11.00000   -1.20000
AFIX   0
C8    1    1.029051    0.437363    0.704221    11.00000    0.03688    0.04169 =
         0.03630    0.01621    0.01395    0.00850
C9    1    1.032683    0.286578    0.615854    11.00000    0.04304    0.04252 =
         0.04570    0.01440    0.02006    0.00842
AFIX  23
H9A   2    0.906459    0.236367    0.536418    11.00000   -1.20000
H9B   2    1.066169    0.230581    0.685761    11.00000   -1.20000
AFIX   0
C10   1    1.172868    0.290825    0.540743    11.00000    0.03869    0.04209 =
         0.03894    0.01700    0.01317    0.01020
AFIX  23
H10A  2    1.137504    0.343594    0.467796    11.00000   -1.20000
H10B  2    1.299028    0.342809    0.619295    11.00000   -1.20000
AFIX   0
C11   1    1.305471    0.131667    0.377439    11.00000    0.05758    0.07403 =
         0.05272    0.02910    0.03067    0.02807
AFIX 137
H11A  2    1.293563    0.030805    0.321818    11.00000   -1.50000
H11B  2    1.434183    0.174879    0.451983    11.00000   -1.50000
H11C  2    1.273049    0.184976    0.306086    11.00000   -1.50000
AFIX   0
C12   1    0.343433    0.021136    0.805026    11.00000    0.03303    0.02722 =
         0.02944    0.01064    0.00856    0.00411
C13   1    0.507309    0.015665    0.940802    11.00000    0.02870    0.03854 =
         0.03427    0.01542    0.00970    0.00426
AFIX  43
H13   2    0.628166    0.035974    0.941097    11.00000   -1.20000
AFIX   0
O2    4    0.178360   -0.031962    0.787335    11.00000    0.02969    0.04939 =
         0.04290    0.02331    0.00597    0.00136
O3    4    0.384488    0.079318    0.716747    11.00000    0.03993    0.06058 =
         0.04124    0.03218    0.01140    0.00568
H1    2    0.612838    0.202517    0.744502    11.00000    0.07443
H1A   2    1.140973    0.776021    0.839179    11.00000    0.06863
H2A   2    1.215664    0.095543    0.529808    11.00000    0.05360
H2B   2    1.058586    0.092609    0.388909    11.00000    0.05368
HKLF 4
REM  UMD2025F_a.res in P-1
REM wR2 = 0.0983, GooF = S = 1.106, Restrained GooF = 1.107 for all data
REM R1 = 0.0391 for 1774 Fo > 4sig(Fo) and 0.0619 for all 2365 data
REM 181 parameters refined using 4 restraints
END
WGHT      0.0428      0.1031
REM Instructions for potential hydrogen bonds
EQIV $5 -x+2, -y+1, -z+1
HTAB C10 N1_$5
EQIV $6 -x+2, -y, -z+1
HTAB C11 O1_$6
HTAB C11 O1_$1
HTAB O1 O3
HTAB N1 O2_$2
HTAB N2 O3_$1
HTAB N2 O2_$3
REM Highest difference peak  0.151,  deepest hole -0.147,  1-sigma level  0.033
Q1    1   0.8731  0.4294  0.8131  11.00000  0.05    0.15
;
_shelx_res_checksum              45808
loop_
_space_group_symop_operation_xyz
'x, y, z'
'-x, -y, -z'
loop_
_atom_site_type_symbol
_atom_site_label
_atom_site_fract_x
_atom_site_fract_y
_atom_site_fract_z
_atom_site_U_iso_or_equiv
_atom_site_adp_type
_atom_site_calc_flag
_atom_site_occupancy
_atom_site_disorder_assembly
_atom_site_disorder_group
O O1 0.71021(18) 0.24171(13) 0.73074(16) 0.0516(4) Uani d 1 . .
N N1 1.1025(2) 0.68290(16) 0.82025(18) 0.0458(4) Uani d 1 . .
N N2 1.1755(2) 0.13836(16) 0.45820(17) 0.0390(4) Uani d 1 . .
C C1 0.9034(2) 0.47406(17) 0.77976(18) 0.0351(4) Uani d 1 . .
C C2 0.7537(2) 0.39203(18) 0.79685(19) 0.0391(4) Uani d 1 . .
C C3 0.6597(3) 0.4650(2) 0.8775(2) 0.0492(5) Uani d 1 . .
H H3 0.559823 0.411333 0.888131 0.059 Uiso calc 1 . .
C C4 0.7117(3) 0.6188(2) 0.9441(2) 0.0532(5) Uani d 1 . .
H H4 0.644580 0.664964 0.997328 0.064 Uiso calc 1 . .
C C5 0.8583(3) 0.7030(2) 0.9328(2) 0.0480(5) Uani d 1 . .
H H5 0.893452 0.804937 0.978251 0.058 Uiso calc 1 . .
C C6 0.9524(2) 0.62851(18) 0.85004(19) 0.0391(4) Uani d 1 . .
C C7 1.1455(3) 0.56779(19) 0.7313(2) 0.0444(4) Uani d 1 . .
H H7 1.240746 0.577663 0.694858 0.053 Uiso calc 1 . .
C C8 1.0291(2) 0.43736(18) 0.70422(19) 0.0379(4) Uani d 1 . .
C C9 1.0327(3) 0.28658(18) 0.6159(2) 0.0434(4) Uani d 1 . .
H H9A 0.906459 0.236367 0.536418 0.052 Uiso calc 1 . .
H H9B 1.066169 0.230581 0.685761 0.052 Uiso calc 1 . .
C C10 1.1729(2) 0.29082(18) 0.5407(2) 0.0398(4) Uani d 1 . .
H H10A 1.137504 0.343594 0.467796 0.048 Uiso calc 1 . .
H H10B 1.299028 0.342809 0.619295 0.048 Uiso calc 1 . .
C C11 1.3055(3) 0.1317(2) 0.3774(2) 0.0561(5) Uani d 1 . .
H H11A 1.293563 0.030805 0.321818 0.084 Uiso calc 1 . .
H H11B 1.434183 0.174879 0.451983 0.084 Uiso calc 1 . .
H H11C 1.273049 0.184976 0.306086 0.084 Uiso calc 1 . .
C C12 0.3434(2) 0.02114(16) 0.80503(17) 0.0311(4) Uani d 1 . .
C C13 0.5073(2) 0.01566(17) 0.94080(18) 0.0344(4) Uani d 1 . .
H H13 0.628166 0.035974 0.941097 0.041 Uiso calc 1 . .
O O2 0.17836(15) -0.03196(13) 0.78734(13) 0.0423(3) Uani d 1 . .
O O3 0.38449(16) 0.07932(13) 0.71675(14) 0.0461(3) Uani d 1 . .
H H1 0.613(2) 0.203(2) 0.745(3) 0.074(7) Uiso d 1 . .
H H1A 1.141(3) 0.7760(12) 0.839(2) 0.069(7) Uiso d 1 . .
H H2A 1.216(3) 0.0955(19) 0.5298(18) 0.054(6) Uiso d 1 . .
H H2B 1.0586(16) 0.0926(19) 0.3889(18) 0.054(6) Uiso d 1 . .
loop_
_atom_site_aniso_label
_atom_site_aniso_U_11
_atom_site_aniso_U_22
_atom_site_aniso_U_33
_atom_site_aniso_U_12
_atom_site_aniso_U_13
_atom_site_aniso_U_23
O1 0.0481(8) 0.0429(7) 0.0624(9) -0.0009(6) 0.0278(7) 0.0135(6)
N1 0.0510(9) 0.0347(8) 0.0500(9) 0.0033(7) 0.0194(8) 0.0161(7)
N2 0.0369(8) 0.0476(9) 0.0337(8) 0.0135(7) 0.0111(7) 0.0178(7)
C1 0.0342(9) 0.0385(9) 0.0306(9) 0.0070(7) 0.0094(7) 0.0145(7)
C2 0.0376(9) 0.0407(9) 0.0353(9) 0.0049(7) 0.0115(8) 0.0133(7)
C3 0.0429(10) 0.0626(12) 0.0477(11) 0.0107(9) 0.0233(9) 0.0212(9)
C4 0.0609(12) 0.0589(12) 0.0486(12) 0.0230(10) 0.0304(10) 0.0167(9)
C5 0.0625(12) 0.0408(10) 0.0409(10) 0.0169(9) 0.0199(9) 0.0130(8)
C6 0.0419(9) 0.0393(9) 0.0348(9) 0.0079(7) 0.0114(8) 0.0166(7)
C7 0.0433(10) 0.0475(10) 0.0468(11) 0.0067(8) 0.0217(9) 0.0199(8)
C8 0.0369(9) 0.0417(9) 0.0363(9) 0.0085(7) 0.0139(8) 0.0162(7)
C9 0.0430(10) 0.0425(10) 0.0457(10) 0.0084(8) 0.0201(9) 0.0144(8)
C10 0.0387(9) 0.0421(9) 0.0389(10) 0.0102(7) 0.0132(8) 0.0170(7)
C11 0.0576(12) 0.0740(14) 0.0527(12) 0.0281(10) 0.0307(10) 0.0291(10)
C12 0.0330(9) 0.0272(8) 0.0294(8) 0.0041(6) 0.0086(7) 0.0106(6)
C13 0.0287(8) 0.0385(9) 0.0343(9) 0.0043(7) 0.0097(7) 0.0154(7)
O2 0.0297(6) 0.0494(7) 0.0429(7) 0.0014(5) 0.0060(5) 0.0233(6)
O3 0.0399(7) 0.0606(8) 0.0412(7) 0.0057(6) 0.0114(6) 0.0322(6)
loop_
_atom_type_symbol
_atom_type_description
_atom_type_scat_dispersion_real
_atom_type_scat_dispersion_imag
_atom_type_scat_source
C C 0.0033 0.0016 'International Tables Vol C Tables 4.2.6.8 and 6.1.1.4'
H H 0.0000 0.0000 'International Tables Vol C Tables 4.2.6.8 and 6.1.1.4'
N N 0.0061 0.0033 'International Tables Vol C Tables 4.2.6.8 and 6.1.1.4'
O O 0.0106 0.0060 'International Tables Vol C Tables 4.2.6.8 and 6.1.1.4'
loop_
_geom_angle_atom_site_label_1
_geom_angle_atom_site_label_2
_geom_angle_atom_site_label_3
_geom_angle_site_symmetry_1
_geom_angle_site_symmetry_3
_geom_angle
_geom_angle_publ_flag
C2 O1 H1 . . 109.6(15) ?
C6 N1 C7 . . 108.98(14) ?
C6 N1 H1A . . 121.5(15) ?
C7 N1 H1A . . 128.2(15) ?
C10 N2 H2A . . 106.9(13) ?
C10 N2 H2B . . 107.9(13) ?
C11 N2 C10 . . 114.20(14) ?
C11 N2 H2A . . 107.5(13) ?
C11 N2 H2B . . 108.4(13) ?
H2A N2 H2B . . 112.1(18) ?
C2 C1 C6 . . 117.87(15) ?
C2 C1 C8 . . 134.53(15) ?
C6 C1 C8 . . 107.60(14) ?
O1 C2 C1 . . 117.25(15) ?
O1 C2 C3 . . 123.67(15) ?
C3 C2 C1 . . 119.08(16) ?
C2 C3 H3 . . 119.4 ?
C2 C3 C4 . . 121.20(17) ?
C4 C3 H3 . . 119.4 ?
C3 C4 H4 . . 119.1 ?
C5 C4 C3 . . 121.82(18) ?
C5 C4 H4 . . 119.1 ?
C4 C5 H5 . . 121.6 ?
C4 C5 C6 . . 116.76(17) ?
C6 C5 H5 . . 121.6 ?
N1 C6 C1 . . 107.08(15) ?
N1 C6 C5 . . 129.66(16) ?
C5 C6 C1 . . 123.26(16) ?
N1 C7 H7 . . 124.7 ?
C8 C7 N1 . . 110.51(15) ?
C8 C7 H7 . . 124.7 ?
C1 C8 C9 . . 127.04(14) ?
C7 C8 C1 . . 105.81(15) ?
C7 C8 C9 . . 127.14(16) ?
C8 C9 H9A . . 109.1 ?
C8 C9 H9B . . 109.1 ?
C8 C9 C10 . . 112.38(13) ?
H9A C9 H9B . . 107.9 ?
C10 C9 H9A . . 109.1 ?
C10 C9 H9B . . 109.1 ?
N2 C10 C9 . . 110.39(13) ?
N2 C10 H10A . . 109.6 ?
N2 C10 H10B . . 109.6 ?
C9 C10 H10A . . 109.6 ?
C9 C10 H10B . . 109.6 ?
H10A C10 H10B . . 108.1 ?
N2 C11 H11A . . 109.5 ?
N2 C11 H11B . . 109.5 ?
N2 C11 H11C . . 109.5 ?
H11A C11 H11B . . 109.5 ?
H11A C11 H11C . . 109.5 ?
H11B C11 H11C . . 109.5 ?
O2 C12 C13 . . 118.55(13) ?
O2 C12 O3 . . 124.96(14) ?
O3 C12 C13 . . 116.49(14) ?
C12 C13 H13 . . 117.6 ?
C13 C13 C12 2_657 . 124.77(19) ?
C13 C13 H13 2_657 . 117.6 ?
loop_
_geom_bond_atom_site_label_1
_geom_bond_atom_site_label_2
_geom_bond_site_symmetry_2
_geom_bond_distance
_geom_bond_publ_flag
O1 C2 . 1.372(2) ?
O1 H1 . 0.870(10) ?
N1 C6 . 1.372(2) ?
N1 C7 . 1.376(2) ?
N1 H1A . 0.863(10) ?
N2 C10 . 1.492(2) ?
N2 C11 . 1.479(2) ?
N2 H2A . 0.892(9) ?
N2 H2B . 0.885(9) ?
C1 C2 . 1.408(2) ?
C1 C6 . 1.411(2) ?
C1 C8 . 1.438(2) ?
C2 C3 . 1.373(3) ?
C3 H3 . 0.9300 ?
C3 C4 . 1.402(3) ?
C4 H4 . 0.9300 ?
C4 C5 . 1.368(3) ?
C5 H5 . 0.9300 ?
C5 C6 . 1.393(3) ?
C7 H7 . 0.9300 ?
C7 C8 . 1.362(2) ?
C8 C9 . 1.498(2) ?
C9 H9A . 0.9700 ?
C9 H9B . 0.9700 ?
C9 C10 . 1.511(2) ?
C10 H10A . 0.9700 ?
C10 H10B . 0.9700 ?
C11 H11A . 0.9600 ?
C11 H11B . 0.9600 ?
C11 H11C . 0.9600 ?
C12 C13 . 1.499(2) ?
C12 O2 . 1.2488(18) ?
C12 O3 . 1.2553(18) ?
C13 C13 2_657 1.311(3) ?
C13 H13 . 0.9300 ?
loop_
_geom_hbond_atom_site_label_D
_geom_hbond_atom_site_label_H
_geom_hbond_atom_site_label_A
_geom_hbond_site_symmetry_A
_geom_hbond_distance_DH
_geom_hbond_distance_HA
_geom_hbond_distance_DA
_geom_hbond_angle_DHA
_geom_hbond_publ_flag
O1 H1 O3 . 0.870(10) 1.894(12) 2.7399(16) 163(2) yes
N1 H1A O2 1_665 0.863(10) 2.073(12) 2.8854(18) 157(2) yes
N2 H2A O3 1_655 0.892(9) 1.899(12) 2.7349(18) 155.3(18) yes
N2 H2B O2 2_656 0.885(9) 1.910(11) 2.7715(19) 164.0(18) yes
loop_
_geom_torsion_atom_site_label_1
_geom_torsion_atom_site_label_2
_geom_torsion_atom_site_label_3
_geom_torsion_atom_site_label_4
_geom_torsion_site_symmetry_1
_geom_torsion_site_symmetry_2
_geom_torsion_site_symmetry_3
_geom_torsion_site_symmetry_4
_geom_torsion
_geom_torsion_publ_flag
O1 C2 C3 C4 . . . . 179.30(17) ?
N1 C7 C8 C1 . . . . 0.79(19) ?
N1 C7 C8 C9 . . . . -178.45(16) ?
C1 C2 C3 C4 . . . . -0.7(3) ?
C1 C8 C9 C10 . . . . 175.12(15) ?
C2 C1 C6 N1 . . . . 178.79(14) ?
C2 C1 C6 C5 . . . . -1.0(2) ?
C2 C1 C8 C7 . . . . -179.45(18) ?
C2 C1 C8 C9 . . . . -0.2(3) ?
C2 C3 C4 C5 . . . . -0.5(3) ?
C3 C4 C5 C6 . . . . 0.8(3) ?
C4 C5 C6 N1 . . . . -179.84(17) ?
C4 C5 C6 C1 . . . . -0.1(3) ?
C6 N1 C7 C8 . . . . -1.3(2) ?
C6 C1 C2 O1 . . . . -178.63(14) ?
C6 C1 C2 C3 . . . . 1.4(2) ?
C6 C1 C8 C7 . . . . -0.02(18) ?
C6 C1 C8 C9 . . . . 179.22(16) ?
C7 N1 C6 C1 . . . . 1.23(18) ?
C7 N1 C6 C5 . . . . -179.00(18) ?
C7 C8 C9 C10 . . . . -5.8(3) ?
C8 C1 C2 O1 . . . . 0.7(3) ?
C8 C1 C2 C3 . . . . -179.26(18) ?
C8 C1 C6 N1 . . . . -0.74(18) ?
C8 C1 C6 C5 . . . . 179.47(16) ?
C8 C9 C10 N2 . . . . 178.34(14) ?
C11 N2 C10 C9 . . . . 178.49(15) ?
O2 C12 C13 C13 . . . 2_657 -13.3(3) ?
O3 C12 C13 C13 . . . 2_657 167.0(2) ?

_cod_database_fobs_code 2243331
