#------------------------------------------------------------------------------
#$Date: 2020-06-06 08:28:45 +0300 (Sat, 06 Jun 2020) $
#$Revision: 252979 $
#$URL: file:///home/coder/svn-repositories/cod/cif/2/24/34/2243421.cif $
#------------------------------------------------------------------------------
#
# This file is available in the Crystallography Open Database (COD),
# http://www.crystallography.net/. The original data for this entry
# were provided by IUCr Journals, http://journals.iucr.org/.
#
# The file may be used within the scientific community so long as
# proper attribution is given to the journal article from which the
# data were obtained.
#
data_2243421
loop_
_publ_author_name
'Assoumatine, Tokour\'e'
'Stoeckli-Evans, Helen'
_publ_section_title
;
 Crystal structures of [(\m~2~-L1)dibromidodicopper(II)] dibromide and
 poly[[(\m~2~-L1)diiodidodicopper(I)]-di-\m-iodido-dicopper(I)], where L1
 is 2,5,8,11,14,17-hexathia-[9.9](2,6,3,5)-pyrazinophane
;
_journal_issue                   7
_journal_name_full               'Acta Crystallographica Section E'
_journal_page_first              984
_journal_page_last               989
_journal_paper_doi               10.1107/S2056989020007161
_journal_volume                  76
_journal_year                    2020
_chemical_formula_iupac          '[Cu2 Br2 (C16 H24 N2 S6)] Br2'
_chemical_formula_moiety         'C16 H24 Br2 Cu2 N2 S6 2+, 2(Br -)'
_chemical_formula_sum            'C16 H24 Br4 Cu2 N2 S6'
_chemical_formula_weight         883.45
_chemical_name_systematic
'[\m~2~-2,5,8,11,14,17-Hexathia-[9.9](2,6,3,5)-pyrazinophane]bis[bromidocopper(II)] dibromide'
_space_group_crystal_system      triclinic
_space_group_IT_number           2
_space_group_name_Hall           '-P 1'
_space_group_name_H-M_alt        'P -1'
_atom_sites_solution_hydrogens   geom
_atom_sites_solution_primary     direct
_atom_sites_solution_secondary   difmap
_audit_creation_method           SHELXL-2018/3
_cell_angle_alpha                71.842(12)
_cell_angle_beta                 74.702(12)
_cell_angle_gamma                72.694(12)
_cell_formula_units_Z            1
_cell_length_a                   7.2090(7)
_cell_length_b                   8.1422(8)
_cell_length_c                   12.3904(14)
_cell_measurement_reflns_used    5000
_cell_measurement_temperature    223(2)
_cell_measurement_theta_max      25.8
_cell_measurement_theta_min      2.71
_cell_volume                     647.93(13)
_computing_cell_refinement
;
CELL in <i>IPDS-I</i> (Stoe & Cie, 1997)
;
_computing_data_collection
;
EXPOSE in <i>IPDS-I</i> (Stoe & Cie, 1997)
;
_computing_data_reduction
;
INTEGRATE in <i>IPDS-I</i> (Stoe & Cie, 1997)
;
_computing_molecular_graphics
;
Mercury (Macrae <i>et al.</i>,  2020)
;
_computing_publication_material
;
<i>SHELXL2018/3</i> (Sheldrick, 2015), PLATON (Spek, 2020) and
publcif (Westrip, 2010)
;
_computing_structure_refinement
;
<i>SHELXL2018/3</i> (Sheldrick, 2015)
;
_computing_structure_solution
;
SHELXS97 (Sheldrick, 2008)
;
_diffrn_ambient_temperature      223(2)
_diffrn_detector                 'image plate'
_diffrn_measured_fraction_theta_full 0.938
_diffrn_measured_fraction_theta_max 0.931
_diffrn_measurement_device       '1 circle goniometer'
_diffrn_measurement_device_type  'STOE IPDS 1'
_diffrn_measurement_method       '\f rotation'
_diffrn_radiation_monochromator  'plane graphite'
_diffrn_radiation_source         'fine-focus sealed tube'
_diffrn_radiation_type           MoK\a
_diffrn_radiation_wavelength     0.71073
_diffrn_reflns_av_R_equivalents  0.0762
_diffrn_reflns_av_unetI/netI     0.0828
_diffrn_reflns_limit_h_max       8
_diffrn_reflns_limit_h_min       -8
_diffrn_reflns_limit_k_max       9
_diffrn_reflns_limit_k_min       -9
_diffrn_reflns_limit_l_max       15
_diffrn_reflns_limit_l_min       -15
_diffrn_reflns_number            5057
_diffrn_reflns_theta_full        25.242
_diffrn_reflns_theta_max         25.810
_diffrn_reflns_theta_min         2.708
_exptl_absorpt_coefficient_mu    8.302
_exptl_absorpt_correction_T_max  1.0000
_exptl_absorpt_correction_T_min  0.4214
_exptl_absorpt_correction_type   multi-scan
_exptl_absorpt_process_details
;
(MULABS; Spek, 2020)
;
_exptl_crystal_colour            brown
_exptl_crystal_density_diffrn    2.264
_exptl_crystal_description       plate
_exptl_crystal_F_000             428
_exptl_crystal_size_max          0.200
_exptl_crystal_size_mid          0.200
_exptl_crystal_size_min          0.030
_refine_diff_density_max         1.648
_refine_diff_density_min         -1.673
_refine_ls_extinction_method     none
_refine_ls_goodness_of_fit_ref   1.006
_refine_ls_hydrogen_treatment    constr
_refine_ls_matrix_type           full
_refine_ls_number_parameters     106
_refine_ls_number_reflns         2320
_refine_ls_number_restraints     0
_refine_ls_restrained_S_all      1.006
_refine_ls_R_factor_all          0.0696
_refine_ls_R_factor_gt           0.0600
_refine_ls_shift/su_max          0.000
_refine_ls_shift/su_mean         0.000
_refine_ls_structure_factor_coef Fsqd
_refine_ls_weighting_details
'w=1/[\s^2^(Fo^2^)+(0.1019P)^2^] where P=(Fo^2^+2Fc^2^)/3'
_refine_ls_weighting_scheme      calc
_refine_ls_wR_factor_gt          0.1485
_refine_ls_wR_factor_ref         0.1529
_reflns_number_gt                1843
_reflns_number_total             2320
_reflns_threshold_expression     'I > 2\s(I)'
_cod_data_source_file            pk2634sup1.cif
_cod_data_source_block           I
_cod_database_code               2243421
_shelx_space_group_comment
;
The symmetry employed for this shelxl refinement is uniquely defined
by the following loop, which should always be used as a source of
symmetry information in preference to the above space-group names.
They are only intended as comments.
;
_shelx_estimated_absorpt_t_min   0.288
_shelx_estimated_absorpt_t_max   0.789
_shelx_hkl_file
;
   8   4  -1   32.68    8.41
  -8  -4   1   18.23    8.56
  -8  -4   1   25.71   12.39
  -8  -3   1    6.01    9.24
  -8  -3   1    7.00    8.84
   8   3  -1   12.08    8.66
  -8  -3   2   76.96    9.64
   8   3  -2   63.74    8.85
  -8  -3   2   75.30    9.06
   8   2  -1  121.88   14.08
  -8  -2   1  100.54   10.65
  -8  -2   1   85.49   10.32
   8   2  -2  490.21   20.37
  -8  -2   2  495.05   20.22
  -8  -2   2  506.30   21.10
  -8  -1   1  140.65   11.96
  -8  -1   1  163.36   16.80
   8   1  -1  131.25   11.46
  -8  -1   2   49.84   16.13
   8   1  -2   61.71   14.72
  -8  -1   2   93.11   15.08
  -8   0   1   19.79   17.64
  -8   0   1   52.48   16.26
   8   0  -1   33.89   11.23
  -8   1   0  103.65   20.99
  -7  -6   1    1.78   11.87
  -7  -6   1    1.01    8.42
  -7  -6   2  160.06   10.09
  -7  -5   1    5.44   10.22
  -7  -5   1    4.92    7.21
   7   5  -1    3.53    7.28
  -7  -5   2  114.92   10.92
   7   5  -2  104.63   10.65
  -7  -5   2  111.67   10.86
  -7  -5   3   52.69    8.52
   7   5  -3   59.77    8.42
  -7  -5   3   62.08    8.60
  -7  -4   1   32.02    9.15
  -7  -4   1   20.35    6.39
   7   4  -1   21.17    6.35
  -7  -4   2  132.25   10.89
   7   4  -2   99.67    7.72
  -7  -4   2  139.98   11.13
  -7  -4   3   13.82    9.75
   7   4  -3   12.51    9.73
  -7  -4   3   25.39   10.19
   7   4  -4   -2.76   11.24
  -7  -4   4   -1.26   11.21
  -7  -4   4  -12.85   11.85
  -7  -3   1  234.04   11.54
   7   3  -1  240.17   11.73
  -7  -3   1  182.65    8.75
  -7  -3   2  265.73   10.02
   7   3  -2  332.49   13.38
  -7  -3   2  350.58   13.94
  -7  -3   3   74.34    7.84
  -7  -3   3   93.80   10.32
   7   3  -3   94.77   10.23
  -7  -3   4  248.91   13.13
  -7  -3   4  204.09    9.52
   7   3  -4  245.36   12.93
   7   3  -5   11.95   11.74
  -7  -3   5   -8.26    9.02
  -7  -2   1  148.40    8.63
  -7  -2   1  207.83   11.63
   7   2  -1  181.75   11.39
  -7  -2   2  320.21   14.04
  -7  -2   2  305.97   13.19
   7   2  -2  301.85   13.38
   7   2  -3   54.67    6.67
  -7  -2   3   88.40   11.01
  -7  -2   3   55.11    6.83
   7   2  -4   31.30   10.29
  -7  -2   4   28.70   11.49
   7   2  -5    9.52   12.10
  -7  -2   5   12.92    9.33
  -7  -1   1    0.23   10.40
   7   1  -1   -1.33   10.10
  -7  -1   1   -1.43   10.57
  -7  -1   2  190.22   12.02
   7   1  -2  177.58   11.60
  -7  -1   2  175.37   12.32
   7   1  -3   14.54    6.67
  -7  -1   3    8.12   10.77
  -7  -1   4   18.69   12.53
   7   1  -4   25.51   11.17
  -7  -1   5  121.93   11.11
   7   1  -5  152.92   14.50
  -7   0   1   20.86    8.17
  -7   0   1   30.01   12.07
   7   0  -1   45.80   11.04
  -7   0   2  223.08   13.98
  -7   0   2  175.53   10.60
   7   0  -2  222.16   13.53
  -7   0   3   40.26   13.92
   7   0  -3   45.79   12.18
  -7   0   4  307.17   16.97
   7   0  -4  390.72   18.01
   7   0  -5   -4.38   14.89
  -7   0   5   -7.92   11.30
  -7   1   0   54.40   14.40
   7  -1   0   84.16   13.07
  -7   1   0   80.52   13.30
   7  -1  -1   -4.43    8.33
  -7   1   1    0.81   12.08
  -7   1   1   -4.70   13.69
   7  -1  -2   48.56    9.64
  -7   1   2   37.73   15.80
  -7   1   2   52.82    9.79
  -7   1   3   87.95   16.14
   7  -1  -3  130.11   14.65
  -7   1   4   27.95   17.57
   7  -1  -4   43.96   15.72
   7  -1  -5  348.97   16.92
  -7   1   5  284.97   15.33
  -7   2   0  372.12   22.33
   7  -2   0  354.43   21.85
  -7   2   0  193.17   21.88
   7  -2  -1    5.62   14.13
  -7   2   1   -2.77   18.01
  -7   2   1    6.66   14.43
  -7   2   2   17.03   10.20
   7  -2  -2   23.18   14.08
  -7   2   2   12.85   17.83
   7  -2  -3   67.00   16.25
  -7   2   3   42.09   19.96
   7  -2  -4  316.94   22.01
  -7   2   4  222.52   22.02
  -7   3   0   14.33   18.96
  -7   3   0    3.24   23.89
  -7   3   1    9.65   20.06
  -7   3   1    6.71   17.56
   7  -3  -1    2.66   17.10
   7  -3  -2  197.04   20.93
  -7   3   2  152.46   24.09
  -7   3   2  200.99   21.53
  -6  -7   1   23.36    7.63
  -6  -7   1   33.99   11.36
  -6  -7   2    2.22   12.12
  -6  -7   2    6.09    9.18
   6   6  -1    1.10    6.45
  -6  -6   1    6.06    6.52
  -6  -6   1    3.19    6.78
  -6  -6   2   81.31   10.95
   6   6  -2   88.70   10.97
  -6  -6   2   69.74    7.97
  -6  -6   3   48.97   10.76
  -6  -6   3   32.18   11.01
   6   6  -3   33.74    7.62
  -6  -6   4  327.27   15.73
   6   6  -4  297.08   15.31
  -6  -6   4  351.77   15.93
  -6  -5   1    1.02    7.95
   6   5  -1   -0.57    7.98
  -6  -5   1   12.42    7.89
  -6  -5   2  102.07    9.75
  -6  -5   2  102.79    9.67
   6   5  -2  103.52    9.69
  -6  -5   3    0.93    6.27
  -6  -5   3  -14.91    8.97
   6   5  -3   -8.38    8.91
   6   5  -4   -4.76   10.32
  -6  -5   4   22.28   10.21
  -6  -5   4    7.90   10.20
   6   5  -5   57.56   12.60
  -6  -5   5   64.71   12.55
  -6  -5   5   49.94    8.98
   6   4  -1   74.21    6.08
  -6  -4   1   67.44    6.02
  -6  -4   1   77.86    6.26
  -6  -4   2  658.59   18.49
   6   4  -2  866.12   24.22
  -6  -4   2  933.59   26.07
   6   4  -3   -0.15    5.92
  -6  -4   3    6.32    8.49
  -6  -4   3    5.11    8.62
  -6  -4   4   31.45    6.32
  -6  -4   4   46.91    8.81
   6   4  -4   35.12    8.76
  -6  -4   5   28.30   10.45
   6   4  -5   32.25   10.39
  -6  -4   6  280.60   15.04
   6   4  -6  191.46   10.57
  -6  -3   1  212.97    8.94
  -6  -3   1  170.19    6.81
   6   3  -1  153.25    6.41
  -6  -3   2  143.08    8.64
   6   3  -2  121.85    8.49
  -6  -3   2  141.95    8.66
  -6  -3   3   61.40    7.74
  -6  -3   3   53.58    5.59
   6   3  -3   63.15    7.52
  -6  -3   4  266.79   11.82
   6   3  -4  242.88   11.27
  -6  -3   5    0.17    9.12
   6   3  -5    4.50    8.77
  -6  -3   6    8.04   11.14
   6   3  -6   11.37   10.81
  -6  -3   7  177.05   14.46
   6   3  -7  120.79   10.22
  -6  -2   1  105.20    7.47
  -6  -2   1  100.93    7.51
   6   2  -1   93.61    7.36
  -6  -2   2  437.64   12.30
  -6  -2   2  577.55   18.00
   6   2  -2  529.40   16.59
  -6  -2   3   37.75    7.90
   6   2  -3   20.69    5.17
   6   2  -4   93.04    8.03
  -6  -2   4   90.01    8.61
   6   2  -5   95.72    9.51
  -6  -2   5   91.89   10.15
  -6  -2   6   90.88   11.96
   6   2  -6   99.35   11.48
  -6  -2   7    2.72    9.65
   6   2  -7    8.59   13.48
  -6  -1   1   78.42    7.69
  -6  -1   1   62.20    5.52
   6   1  -1   61.16    5.52
  -6  -1   2  171.68    7.22
   6   1  -2  219.61    9.88
   6   1  -3   58.41    5.82
  -6  -1   3   72.53    8.85
  -6  -1   4  841.78   21.23
   6   1  -4 1043.06   31.32
   6   1  -5   -5.24    6.83
  -6  -1   5    1.13   10.31
   6   1  -6    8.31   11.82
  -6  -1   6   15.41   12.15
   6   1  -7   87.82   13.95
  -6  -1   7   73.92   12.81
  -6   0   1    5.67    7.37
  -6   0   1   11.44    7.46
   6   0  -1   -1.09    7.26
  -6   0   2   27.53    8.70
   6   0  -2   19.21    8.61
  -6   0   3    6.70    9.25
   6   0  -3    3.70    8.25
  -6   0   4   85.19   10.00
   6   0  -4   79.99    9.28
  -6   0   5   71.86    8.42
   6   0  -5  114.49   11.47
  -6   0   6  182.46   10.64
   6   0  -6  282.98   15.75
   6   0  -7  529.10   21.21
  -6   0   7  355.75   13.34
  -6   1   0  600.77   22.85
   6  -1   0  726.74   25.70
  -6   1   0  759.09   27.05
   6  -1  -1   19.47    9.56
  -6   1   1    8.92    9.96
  -6   1   1   10.34   10.91
  -6   1   2  112.90   12.07
   6  -1  -2  153.26   11.23
  -6   1   3  161.41    9.57
   6  -1  -3  170.18    9.33
  -6   1   4  217.01   14.57
   6  -1  -4  318.52   15.53
  -6   1   5    9.99    8.83
   6  -1  -5   30.05   11.93
   6  -1  -6  259.70   16.75
  -6   1   6  174.54   15.27
  -6   1   7   93.37   11.79
   6  -1  -7  107.25   12.93
  -6   2   0    8.98   10.81
   6  -2   0    9.28   13.26
  -6   2   0    2.46   13.19
   6  -2  -1  112.75   11.63
  -6   2   1   66.54   13.27
  -6   2   1  108.58   12.18
  -6   2   2  403.16   19.79
   6  -2  -2  482.78   20.73
  -6   2   3   13.52   14.24
   6  -2  -3   22.52   11.79
  -6   2   4   41.61   10.20
   6  -2  -4   68.16   12.77
  -6   2   5    0.04   15.60
   6  -2  -5    7.73   14.80
  -6   2   6  193.27   17.02
   6  -2  -6  244.72   18.06
   6  -2  -7  161.81   19.74
  -6   2   7  134.82   17.81
  -6   3   0  213.78   17.17
   6  -3   0  192.96   16.03
  -6   3   0  226.46   23.76
  -6   3   1  114.96   14.36
  -6   3   1   95.82   16.57
   6  -3  -1  120.97   16.77
  -6   3   2  303.83   21.65
   6  -3  -2  392.99   24.94
   6  -3  -3   72.17   13.65
  -6   3   3   41.11   16.36
  -6   3   4    2.64   16.52
   6  -3  -4   11.13   14.55
  -6   3   5   72.74   16.89
   6  -3  -5  107.79   16.45
   6  -3  -6   60.34   19.20
  -6   3   6   31.87   18.50
  -6   4   0  140.74   38.57
  -6   4   1   42.96   19.45
   6  -4  -1   33.54   18.40
  -6   4   1   34.20   20.24
   6  -4  -2   20.71   17.01
  -6   4   2   21.68   14.93
  -6   4   3    5.12   20.84
   6  -4  -3   -6.15   15.38
  -6   4   4  272.79   25.31
   6  -4  -4  283.48   24.54
  -5  -8   1   52.66   13.92
  -5  -8   1   46.02    8.73
  -5  -8   2  160.59   14.70
  -5  -8   2  119.55    9.72
  -5  -7   1   99.57   10.69
  -5  -7   1   82.10    9.69
  -5  -7   2  271.64   13.10
  -5  -7   2  275.60   13.96
  -5  -7   3   16.25   10.91
  -5  -7   3   26.73   11.62
   5   7  -3   15.01    7.72
  -5  -7   4   51.88    9.80
  -5  -7   4   58.19   13.10
   5   7  -4   69.15   13.01
  -5  -6   1  137.13    7.00
   5   6  -1  133.84    6.99
  -5  -6   1  127.47    7.35
  -5  -6   2   36.90    6.31
  -5  -6   2   53.92    8.90
   5   6  -2   33.47    8.88
   5   6  -3   89.55    7.12
  -5  -6   3   98.50    7.26
  -5  -6   3   85.87    7.47
   5   6  -4   -1.57   10.75
  -5  -6   4   -0.96    7.90
  -5  -6   4    4.24   10.79
   5   6  -5   10.60   12.63
  -5  -6   5   12.86   12.83
  -5  -6   5    5.42   12.74
   5   5  -1  180.04    8.50
  -5  -5   1  134.06    6.40
  -5  -5   1  174.24    8.58
  -5  -5   2  256.92    9.25
  -5  -5   2  317.53   11.96
   5   5  -2  230.11    8.63
  -5  -5   3  127.37    8.94
   5   5  -3   97.70    6.45
  -5  -5   3   94.96    6.52
   5   5  -4  248.28   11.79
  -5  -5   4  253.49   12.09
  -5  -5   4  249.87   11.97
  -5  -5   5   50.32   10.41
  -5  -5   5   52.93    9.83
   5   5  -5   41.77   10.41
   5   5  -6  164.09    9.44
  -5  -5   6  217.25   12.94
  -5  -5   6  182.64    9.73
  -5  -5   7  107.98   10.34
  -5  -4   1  178.09    8.50
   5   4  -1  190.11    8.61
  -5  -4   1  179.61    8.62
  -5  -4   2  812.39   22.24
   5   4  -2  819.69   22.53
  -5  -4   2  870.34   24.09
  -5  -4   3  174.39    8.54
   5   4  -3  180.80    8.50
  -5  -4   3  137.92    6.44
   5   4  -4   88.78    6.28
  -5  -4   4   89.28    6.28
  -5  -4   5   19.09    9.15
   5   4  -5    5.93    6.41
   5   4  -6   39.15    7.15
  -5  -4   6   47.54    7.16
  -5  -4   7  166.20   13.08
   5   4  -7  133.61    9.27
   5   3  -1    7.55    5.29
  -5  -3   1    1.47    5.41
  -5  -3   1    2.40    5.25
  -5  -3   2  290.47    9.23
  -5  -3   2  404.04   12.77
   5   3  -2  384.70   12.18
  -5  -3   3   18.35    6.17
   5   3  -3    9.73    4.35
  -5  -3   4   75.16    5.25
   5   3  -4   92.83    7.06
   5   3  -5  567.63   17.52
  -5  -3   5  610.79   18.56
  -5  -3   6   26.37    6.95
   5   3  -6   39.50    9.59
   5   3  -7   56.97   11.64
  -5  -3   7   49.42    8.53
   5   3  -8  118.16   14.07
  -5  -3   8   92.51   10.61
   5   2  -1   84.88    4.76
  -5  -2   1  112.32    6.42
  -5  -2   1   93.21    4.98
  -5  -2   2  288.73    9.38
   5   2  -2  300.10    9.77
   5   2  -3   28.34    4.37
  -5  -2   3   35.23    6.53
   5   2  -4  910.86   24.19
  -5  -2   4 1298.91   32.30
  -5  -2   5   39.24    6.06
   5   2  -5   35.78    5.74
   5   2  -6   42.43    6.13
  -5  -2   6   47.46    6.31
  -5  -2   7   99.17    8.08
   5   2  -7   94.98    7.91
  -5  -2   8    5.02   12.34
   5   2  -8    6.57   12.22
  -5  -2   9   16.89   10.19
   5   2  -9    7.94   10.24
   5   1  -1  246.11    9.14
  -5  -1   1  229.40    8.51
   5   1  -2    9.52    3.59
  -5  -1   2    8.04    3.74
   5   1  -3  228.16    8.20
  -5  -1   3  342.96   10.87
  -5  -1   4   52.53    5.42
   5   1  -4   53.84    5.05
  -5  -1   5  851.12   20.28
   5   1  -5  763.11   19.94
   5   1  -6   99.59    7.17
  -5  -1   6  109.40    7.25
  -5  -1   7  226.63   12.37
   5   1  -7  198.74    9.45
  -5  -1   8    1.87   12.69
   5   1  -8   28.53   12.84
  -5  -1   9  141.56   11.27
   5   1  -9  122.70   11.18
  -5   0   1   21.67    6.14
   5   0  -1   25.06    5.84
   5   0  -2  240.64    9.62
  -5   0   2  205.73    7.71
  -5   0   3  310.91   11.65
   5   0  -3  318.16   11.99
   5   0  -4  321.09   11.98
  -5   0   4  261.67    9.18
   5   0  -5   24.97    7.57
  -5   0   5   18.93    7.85
   5   0  -6  171.45   11.01
  -5   0   6  126.94   10.29
   5   0  -7  100.88   12.17
  -5   0   7   80.63    8.27
  -5   0   8    4.81    7.93
   5   0  -8    0.75    9.54
  -5   0   9   68.27   14.07
   5   0  -9   68.35   14.88
   5  -1   0   10.50    6.46
  -5   1   0   15.39    6.56
  -5   1   0   12.69    7.00
   5  -1  -1   38.49    6.51
  -5   1   1   42.87    7.48
   5  -1  -2  404.96   14.96
  -5   1   2  383.31   14.66
   5  -1  -3  248.25   11.14
  -5   1   3  207.27   11.09
   5  -1  -4  269.23   11.62
  -5   1   4  207.03   10.87
   5  -1  -5   12.36    6.94
  -5   1   5    6.93    7.23
   5  -1  -6    3.74   10.42
  -5   1   6    2.85   10.06
  -5   1   7  118.52   12.60
   5  -1  -7  150.43   13.56
  -5   1   8   45.73    9.88
   5  -1  -8   75.37   14.63
  -5   1   9   27.41   14.94
   5  -1  -9   35.54   16.51
   5  -2   0  162.28   10.82
  -5   2   0  107.77   14.14
  -5   2   0  181.75   11.38
   5  -2  -1   81.24    8.92
  -5   2   1   53.68   10.75
  -5   2   2  407.35   16.90
   5  -2  -2  645.52   23.46
   5  -2  -3   35.34    8.60
  -5   2   3   16.26   10.05
  -5   2   4    1.84   11.39
   5  -2  -4    6.61   10.49
   5  -2  -5  186.29   12.84
  -5   2   5  121.61    9.35
  -5   2   6   64.36    8.37
   5  -2  -6   66.65    9.87
  -5   2   7  220.18   14.52
   5  -2  -7  194.49   11.48
   5  -2  -8   14.20   15.46
  -5   2   8   11.28   13.78
  -5   2   9  205.36   16.91
   5  -2  -9  174.72   13.59
   5  -3   0    6.43   10.55
  -5   3   0    4.66   11.30
  -5   3   0    3.77   10.98
   5  -3  -1  228.04   13.59
  -5   3   1  215.38   14.70
  -5   3   2  422.66   20.91
   5  -3  -2  559.47   26.13
  -5   3   3  130.29   13.58
   5  -3  -3  168.26   13.22
   5  -3  -4  356.28   17.51
  -5   3   4  255.63   15.33
   5  -3  -5  237.53   16.48
  -5   3   5  174.22   15.24
  -5   3   6   15.83   13.38
   5  -3  -6   20.86   10.19
  -5   3   7  145.21   15.86
   5  -3  -7  132.47   12.67
   5  -3  -8  118.34   19.35
  -5   3   8  112.10   16.10
  -5   4   0   64.16   22.48
  -5   4   0   52.16   19.79
   5  -4  -1    1.84   12.81
  -5   4   1    1.92   12.04
   5  -4  -2   31.83   10.83
  -5   4   2   32.75   12.91
   5  -4  -3    1.08   12.69
  -5   4   3   -2.33   12.62
   5  -4  -4   14.56   13.64
  -5   4   4    7.62   12.97
   5  -4  -5  216.59   13.96
  -5   4   5  206.72   13.50
  -5   4   6    3.73   15.05
   5  -4  -6    5.59   11.83
   5  -4  -7   35.35   19.50
  -5   4   7   26.40   16.97
   5  -5  -1    2.47   27.06
  -5   5   1    1.23   33.71
  -5   5   2  301.04   36.32
   5  -5  -2  262.74   25.61
  -5   5   3   10.94   13.56
   5  -5  -3    5.07   13.55
  -5   5   4  121.24   16.82
   5  -5  -4  112.31   16.58
   5  -5  -5   29.79   17.63
  -5   5   5   27.79   16.81
   5  -5  -6   -4.77   18.82
  -5   5   6    8.55   17.19
   5  -6  -2    3.10   30.36
  -4  -8   1   12.27    7.88
  -4  -8   1   17.46   12.02
  -4  -8   2   44.13    8.60
  -4  -8   2   43.41   11.58
  -4  -8   3   -6.37    9.43
  -4  -8   3    0.51   13.60
  -4  -7   1    1.11    8.21
  -4  -7   1    4.75    6.46
  -4  -7   2  176.66   11.60
  -4  -7   2  151.92   10.74
   4   7  -3   23.90    9.73
  -4  -7   3   30.46    9.64
  -4  -7   3   24.79    7.25
  -4  -7   4    2.19   11.18
  -4  -7   4    1.13   11.51
   4   7  -4    2.10    7.81
  -4  -7   5   23.04   13.69
   4   7  -5   28.78    9.47
  -4  -7   5   32.51   13.40
  -4  -6   1    8.80    6.60
  -4  -6   1   -1.79    5.31
  -4  -6   2  827.81   20.82
  -4  -6   2  763.55   18.11
   4   6  -2  759.68   19.37
   4   6  -3   -2.25    5.73
  -4  -6   3   -5.76    8.05
  -4  -6   3    0.29    8.64
  -4  -6   4   59.61    6.93
  -4  -6   4   46.85   10.17
   4   6  -4   42.79    6.97
  -4  -6   5  107.69    7.78
   4   6  -5  121.61    8.74
  -4  -6   5  131.41   11.46
   4   6  -6  284.70   15.42
  -4  -6   6  230.58   10.37
  -4  -6   6  286.21   11.97
  -4  -5   1  214.17    8.17
   4   5  -1  207.90    7.98
  -4  -5   1  165.92    6.44
  -4  -5   2  251.64    8.29
  -4  -5   2  319.21   10.73
   4   5  -2  303.83   10.39
   4   5  -3  241.89    9.40
  -4  -5   3  258.28    9.78
  -4  -5   3  210.88    7.67
  -4  -5   4  620.55   18.36
  -4  -5   4  450.56   12.20
   4   5  -4  586.79   17.52
  -4  -5   5   -9.42    5.85
   4   5  -5   -4.61    5.70
  -4  -5   5    7.47    8.21
   4   5  -6    2.11    9.72
  -4  -5   6    1.44   10.20
  -4  -5   7   72.18    8.92
   4   5  -7   66.99    8.83
  -4  -5   8  237.93   16.25
   4   5  -8  193.42   11.87
   4   4  -1   44.29    5.76
  -4  -4   1   54.77    5.89
  -4  -4   1   63.17    6.01
   4   4  -2 2186.22   53.37
  -4  -4   2 2268.28   56.54
  -4  -4   2 1731.42   42.04
   4   4  -3   15.02    6.45
  -4  -4   3   18.64    6.75
  -4  -4   4   73.99    7.19
   4   4  -4   65.87    7.00
  -4  -4   5 1045.23   26.62
   4   4  -5  984.04   26.03
  -4  -4   6   49.69    8.68
   4   4  -6   35.65    8.63
   4   4  -7   29.56   10.16
  -4  -4   7   28.29    7.42
  -4  -4   8   10.52   12.62
   4   4  -8   -5.17   12.10
  -4  -4   9  576.49   20.53
   4   4  -9  441.75   15.76
  -4  -3   1  247.19    8.16
  -4  -3   1  196.71    6.60
   4   3  -1  189.26    6.31
  -4  -3   2   34.96    4.15
   4   3  -2   38.59    4.11
   4   3  -3   55.72    5.62
  -4  -3   3   44.01    4.17
  -4  -3   4 1682.29   44.90
   4   3  -4 1572.55   40.74
   4   3  -5  104.30    5.82
  -4  -3   5  158.89    8.38
  -4  -3   6   68.10    9.02
   4   3  -6   46.28    6.24
   4   3  -7   36.06    6.46
  -4  -3   7   44.61    6.58
  -4  -3   8  -11.17    7.90
   4   3  -8   -0.65    7.51
   4   3  -9   -0.60   12.42
  -4  -3   9    2.58   12.89
  -4  -2   1   26.77    4.37
   4   2  -1   22.45    3.20
   4   2  -2  133.69    5.09
  -4  -2   2  172.58    6.58
  -4  -2   3   60.24    5.58
   4   2  -3   36.48    3.92
  -4  -2   4   73.94    4.69
   4   2  -4   67.08    4.56
  -4  -2   5   44.91    5.25
   4   2  -5   54.14    7.12
   4   2  -6  115.24    6.44
  -4  -2   6  168.79    9.03
   4   2  -7 1002.24   24.24
  -4  -2   7 1023.51   25.23
  -4  -2   8    0.82   10.94
   4   2  -8    9.72    7.50
  -4  -2   9   56.70    9.29
   4   2  -9   54.15   12.68
   4   2 -10    3.65   14.32
  -4  -2  10    4.33   14.89
  -4  -1   1  348.29    9.76
   4   1  -1  460.23   13.13
   4   1  -2  788.68   20.55
  -4  -1   2 1073.68   26.21
   4   1  -3  315.13    9.26
  -4  -1   3  348.36    9.88
  -4  -1   4  104.27    5.31
   4   1  -4  132.84    6.85
   4   1  -5    0.32    5.79
  -4  -1   5   -2.46    6.02
   4   1  -6  230.77    7.99
  -4  -1   6  332.09   11.23
  -4  -1   7  111.16    6.45
   4   1  -7  103.15    7.26
  -4  -1   8   35.98    9.58
   4   1  -8   38.92    9.61
  -4  -1   9   79.94    8.35
   4   1  -9   74.42    8.30
  -4  -1  10   12.58   12.88
   4   1 -10    2.86    9.05
   4   0  -1    2.14    4.31
  -4   0   1   -0.11    4.46
  -4   0   2  870.11   22.66
   4   0  -2 1079.40   30.02
   4   0  -3  378.43   11.18
  -4   0   3  408.31   11.54
  -4   0   4    8.01    6.35
   4   0  -4    4.91    4.12
  -4   0   5    3.92    4.58
   4   0  -5    5.19    6.17
   4   0  -6  664.38   16.95
  -4   0   6  611.12   15.73
  -4   0   7  247.22    8.69
   4   0  -7  323.06   11.53
   4   0  -8    3.20    6.81
  -4   0   8    0.35    6.69
   4   0  -9   33.33    8.23
  -4   0   9   36.53    8.14
   4   0 -10   31.05    9.37
  -4   0  10   33.65   13.04
  -4   0  11  351.02   17.03
   4   0 -11  342.90   17.06
   4  -1   0  143.14    7.27
  -4   1   0  136.61    7.90
   4  -1  -1  186.00    8.19
  -4   1   1  177.10    8.73
   4  -1  -2  900.18   26.97
  -4   1   2  880.33   24.91
  -4   1   3   85.54    6.22
   4  -1  -3  113.72    7.36
   4  -1  -4    4.73    6.38
  -4   1   4   -2.00    7.08
   4  -1  -5  312.24   11.18
  -4   1   5  207.44    7.95
   4  -1  -6  344.06   12.64
  -4   1   6  267.01    9.42
   4  -1  -7  282.27   12.09
  -4   1   7  235.99   10.85
   4  -1  -8   34.37    7.36
  -4   1   8   34.18    7.34
   4  -1  -9  848.41   22.43
  -4   1   9  897.60   23.42
  -4   1  10    0.10    8.99
   4  -1 -10    1.95   13.45
   4  -1 -11   -2.17   15.13
  -4   1  11   -6.61   14.19
  -4   2   0  708.61   25.00
   4  -2   0 1039.08   32.41
   4  -2  -1   14.58    6.45
  -4   2   1   11.71    8.25
   4  -2  -2  247.74   10.77
  -4   2   2  167.34   10.37
   4  -2  -3    3.03    6.72
  -4   2   3    3.66    7.82
   4  -2  -4  452.88   13.99
  -4   2   4  463.20   15.29
   4  -2  -5   15.02    6.50
  -4   2   5   12.23    9.41
   4  -2  -6   12.73    9.21
  -4   2   6   23.39    9.11
   4  -2  -7    9.08    7.57
  -4   2   7   14.14   10.59
   4  -2  -8   46.80    8.09
  -4   2   8   63.87    7.90
   4  -2  -9   48.45    9.13
  -4   2   9   55.13    8.59
  -4   2  10   62.89    9.31
   4  -2 -10   61.79   14.35
   4  -2 -11  117.03   11.66
  -4   2  11  117.19   10.79
  -4   3   0    4.15    8.38
   4  -3   0    2.52    8.29
   4  -3  -1    2.82    6.82
  -4   3   1    4.98    7.37
   4  -3  -2   55.55    7.73
  -4   3   2   45.72    8.52
  -4   3   3   76.76   10.22
   4  -3  -3   94.83   10.00
  -4   3   4   22.63    9.48
   4  -3  -4   23.46    9.82
  -4   3   5  729.02   22.39
   4  -3  -5  704.47   20.95
   4  -3  -6   23.49   11.80
  -4   3   6   13.06    7.84
  -4   3   7   10.26   10.78
   4  -3  -7    3.11   11.75
  -4   3   8   34.35    8.86
   4  -3  -8   29.23    9.75
  -4   3   9  371.02   14.49
   4  -3  -9  433.96   19.53
   4  -3 -10   19.77   12.03
  -4   3  10   25.48   14.74
  -4   4   0 1353.60   70.12
   4  -4   0 1322.21   55.16
  -4   4   0 1440.29   60.88
   4  -4  -1  383.63   20.55
  -4   4   1  362.30   21.49
  -4   4   2   44.55    8.67
   4  -4  -2   47.97    9.63
   4  -4  -3   -3.33    9.75
  -4   4   3   -1.54    8.44
  -4   4   4 1152.45   44.29
   4  -4  -4 1224.83   42.35
  -4   4   5   10.34   10.55
   4  -4  -5    9.34    8.77
  -4   4   6  101.72   11.46
   4  -4  -6  100.63   13.32
   4  -4  -7  520.89   21.80
  -4   4   7  477.48   19.68
   4  -4  -8   16.85   16.30
  -4   4   8   25.47   13.83
   4  -4  -9   37.13   16.10
  -4   4   9   39.96    9.86
  -4   4  10    1.29   15.18
   4  -4 -10   -4.99   12.60
  -4   5   1   48.41   14.97
   4  -5  -1   54.36   17.51
  -4   5   2   92.41   13.77
   4  -5  -2   86.07   14.62
  -4   5   3    1.67   11.94
   4  -5  -3    1.36   11.44
   4  -5  -4   29.06   14.34
  -4   5   4   35.00   10.86
   4  -5  -5   73.92   18.39
  -4   5   5   62.04   12.37
  -4   5   6  119.26   13.64
   4  -5  -6  113.52   15.87
   4  -5  -7  189.77   14.40
  -4   5   7  252.12   17.74
   4  -5  -8   -0.97   13.53
  -4   5   8   -7.19   15.31
   4  -5  -9    8.94   13.33
   4  -6  -2   51.02   17.78
  -4   6   2   59.67   18.46
  -4   6   3  130.37   20.04
   4  -6  -3  118.90   19.95
   4  -6  -4   21.56   18.47
  -4   6   4   25.65   13.28
  -4   6   5   66.46   14.28
   4  -6  -5   57.17   16.43
  -4   6   6  186.91   22.44
   4  -6  -6  122.74   20.50
  -4   6   7   34.85   16.46
   4  -6  -7   19.05   19.30
   4  -7  -3   46.92   18.60
  -4   7   3   82.93   24.46
  -3  -9   1    7.22   10.54
  -3  -9   1    7.84   13.76
  -3  -8   1   86.27   11.54
  -3  -8   1   85.80   11.21
  -3  -8   2   37.19   12.07
  -3  -8   2   37.58   12.64
  -3  -8   3  114.80   13.32
  -3  -8   3   71.39    8.98
  -3  -8   4   -3.18   14.72
  -3  -8   4    0.90   13.76
  -3  -7   1  266.80   11.77
  -3  -7   1  213.39    9.25
  -3  -7   2  680.17   20.13
  -3  -7   2  681.89   20.30
  -3  -7   3  298.28   11.49
  -3  -7   3  344.86   14.30
  -3  -7   4   19.68    7.36
  -3  -7   4   20.33   10.35
   3   7  -4   31.49   11.12
  -3  -7   5    8.90   11.87
   3   7  -5    6.71    8.55
  -3  -7   5    3.67   11.98
  -3  -7   6  384.16   19.68
   3   7  -6  355.22   19.15
  -3  -7   6  308.31   14.29
  -3  -6   1  290.61   10.69
  -3  -6   1  344.31   11.67
  -3  -6   2  445.73   11.76
  -3  -6   2  540.22   15.30
   3   6  -2  527.04   14.99
  -3  -6   3  732.45   18.38
  -3  -6   3  698.01   19.65
   3   6  -3  586.73   16.23
   3   6  -4  161.42    9.86
  -3  -6   4  176.26    9.94
  -3  -6   4  181.58   10.04
   3   6  -5   20.27    7.14
  -3  -6   5   18.77    7.07
  -3  -6   5   16.58    7.28
  -3  -6   6    2.83   11.53
   3   6  -6    2.05    8.12
  -3  -6   6    1.39   12.07
   3   6  -7   53.27   14.34
  -3  -6   7   66.92   10.27
  -3  -6   7   73.38   15.02
   3   5  -1   21.29    4.13
  -3  -5   1   28.84    4.07
  -3  -5   1   26.37    4.55
  -3  -5   2  307.61    8.43
   3   5  -2  372.61   10.73
  -3  -5   2  378.97   10.88
   3   5  -3   81.99    7.13
  -3  -5   3   93.96    7.74
  -3  -5   3   84.67    7.19
  -3  -5   4  334.60   10.41
   3   5  -4  245.82    8.68
  -3  -5   4  296.80   10.88
  -3  -5   5  458.27   13.48
   3   5  -5  436.48   15.01
   3   5  -6  203.56   10.84
  -3  -5   6  233.10   10.91
   3   5  -7  316.52   14.43
  -3  -5   7  349.60   14.27
  -3  -5   8   44.74   13.41
   3   5  -8   34.08   12.42
  -3  -4   1    1.46    3.29
   3   4  -1    5.53    4.24
  -3  -4   1    1.69    3.03
  -3  -4   2  142.90    5.74
   3   4  -2  122.89    5.33
  -3  -4   2  175.83    7.64
  -3  -4   3   54.27    6.01
   3   4  -3   43.73    5.54
   3   4  -4  805.15   20.83
  -3  -4   4  885.99   20.11
   3   4  -5  384.42   12.51
  -3  -4   5  408.52   11.97
   3   4  -6  267.71   11.16
  -3  -4   6  279.05   10.25
   3   4  -7   43.16    6.50
  -3  -4   7   57.38    9.66
   3   4  -8   10.82    7.47
  -3  -4   8    1.99    7.94
   3   4  -9   -1.93   12.40
  -3  -4   9   -7.08   13.39
   3   4 -10   -3.31   10.26
   3   3  -1  601.35   16.88
  -3  -3   1  440.05   12.56
  -3  -3   1  495.48   14.32
  -3  -3   2  339.87   10.43
   3   3  -2  324.93   10.08
  -3  -3   3   54.04    4.90
   3   3  -3   44.48    3.54
  -3  -3   4   70.28    4.76
   3   3  -4   90.48    6.22
   3   3  -5  547.16   13.97
  -3  -3   5  781.05   19.13
  -3  -3   6  273.29   10.24
   3   3  -6  191.38    7.56
  -3  -3   7  321.94   11.30
   3   3  -7  310.03   11.73
   3   3  -8    9.03    9.34
  -3  -3   8   14.82    6.68
  -3  -3   9  183.09   12.66
   3   3  -9  186.13   12.33
   3   3 -10  137.95   13.52
  -3  -3  10  141.68   14.06
   3   2  -1  295.96    9.49
  -3  -2   1  388.10   12.15
   3   2  -2 1085.04   28.86
  -3  -2   2 1530.86   40.11
   3   2  -3  354.53   10.18
  -3  -2   3  500.65   14.16
  -3  -2   4  587.33   15.60
   3   2  -4  570.26   14.81
   3   2  -5   -1.10    5.96
  -3  -2   5    3.12    4.18
  -3  -2   6  163.78    6.50
   3   2  -6  213.73    8.42
   3   2  -7  432.62   12.51
  -3  -2   7  436.23   12.93
   3   2  -8   32.74    6.81
  -3  -2   8   45.34    9.65
  -3  -2   9  111.62    7.68
   3   2  -9  145.66   11.02
  -3  -2  10   30.96   12.16
   3   2 -10   31.53   11.68
  -3  -2  11   31.64   10.76
   3   2 -11   32.62   10.11
   3   1  -1  249.75    8.47
  -3  -1   1  259.67    8.54
   3   1  -2  257.32    8.05
  -3  -1   2  351.14   10.78
   3   1  -3  470.75   12.90
  -3  -1   3  375.13   10.54
  -3  -1   4  476.79   12.14
   3   1  -4  480.25   12.12
  -3  -1   5  231.11    8.81
   3   1  -5  164.01    6.34
   3   1  -6   10.08    6.36
  -3  -1   6   15.04    4.56
   3   1  -7  438.68   12.33
  -3  -1   7  327.53    9.57
  -3  -1   8  113.52    8.73
   3   1  -8   92.52    6.13
  -3  -1   9   35.11    6.85
   3   1  -9   45.55    9.49
  -3  -1  10  280.43   13.44
   3   1 -10  301.72   13.17
  -3  -1  11    8.62   12.60
   3   1 -11    2.87    8.63
  -3   0   1    0.63    3.48
   3   0  -1    0.27    3.38
   3   0  -2  519.14   14.93
  -3   0   2  552.35   16.01
   3   0  -3  155.51    6.63
  -3   0   3  128.10    5.59
  -3   0   4   50.50    4.48
   3   0  -4   78.13    5.70
  -3   0   5  257.95    7.62
   3   0  -5  355.23   10.54
  -3   0   6  315.29   10.03
   3   0  -6  331.42   10.21
   3   0  -7  339.13    9.11
  -3   0   7  360.01    9.57
   3   0  -8   27.44    5.70
  -3   0   8   21.30    5.94
   3   0  -9  723.07   16.82
  -3   0   9  779.95   18.06
  -3   0  10    7.23    7.88
   3   0 -10    7.06   10.91
   3   0 -11   18.84   12.10
  -3   0  11    8.78   12.45
  -3   0  12  -14.55   13.91
   3   0 -12    2.75   13.38
  -3   1   0  268.27   11.57
   3  -1   0  258.14   10.24
   3  -1  -1  529.96   17.34
  -3   1   1  538.76   17.59
  -3   1   2 2303.16   57.31
   3  -1  -2 2330.66   64.62
   3  -1  -3  606.79   17.21
  -3   1   3  509.26   14.94
  -3   1   4  863.91   20.69
   3  -1  -4 1038.96   25.04
  -3   1   5  351.22   11.62
   3  -1  -5  290.44    9.09
   3  -1  -6  132.18    8.03
  -3   1   6  128.97    8.43
   3  -1  -7  247.87    8.68
  -3   1   7  276.73    8.60
   3  -1  -8  184.17    7.66
  -3   1   8  266.15   11.00
  -3   1   9   38.94    7.20
   3  -1  -9   40.08   10.05
   3  -1 -10  438.77   15.47
  -3   1  10  422.83   15.32
  -3   1  11  196.58   13.69
   3  -1 -11  204.42   13.56
  -3   1  12   14.36    9.55
   3  -1 -12   16.60   13.39
  -3   2   0    0.18    7.91
   3  -2   0    1.38    5.94
  -3   2   1   68.47    7.83
   3  -2  -1   95.74    6.62
  -3   2   2  163.80    9.35
   3  -2  -2  245.58   10.13
  -3   2   3   21.88    6.69
   3  -2  -3   33.82    6.16
   3  -2  -4    2.37    6.75
  -3   2   4    3.07    6.19
  -3   2   5 1272.11   30.34
   3  -2  -5  974.45   24.13
   3  -2  -6  121.76    8.51
  -3   2   6  114.63    8.71
  -3   2   7  185.88    8.51
   3  -2  -7  206.31   10.84
  -3   2   8  210.17   10.64
   3  -2  -8  156.01    7.81
  -3   2   9   98.49   10.59
   3  -2  -9   99.89   10.92
  -3   2  10   24.24    8.09
   3  -2 -10   33.69   11.60
   3  -2 -11  410.92   16.55
  -3   2  11  311.85   12.24
   3  -2 -12   17.95    9.68
  -3   2  12   15.78    9.47
  -3   3   0  504.99   21.07
   3  -3   0  470.09   18.89
   3  -3  -1   43.51    6.31
  -3   3   1   46.44    6.10
  -3   3   2  738.40   24.88
   3  -3  -2  813.50   25.53
  -3   3   3   20.18    7.53
   3  -3  -3   21.98    8.38
  -3   3   4  515.16   17.04
   3  -3  -4  443.11   14.21
   3  -3  -5    2.49    5.73
  -3   3   5   -1.17    5.16
   3  -3  -6  127.97   10.75
  -3   3   6  120.62    9.87
  -3   3   7  254.23   11.85
   3  -3  -7  216.16    9.58
  -3   3   8  100.64   11.02
   3  -3  -8  123.92   11.86
  -3   3   9   97.93   10.82
   3  -3  -9  129.03   11.70
   3  -3 -10   10.23   12.16
  -3   3  10   15.91   11.20
  -3   3  11    7.06    8.80
   3  -3 -11   13.37   13.17
  -3   3  12   72.41   14.01
   3  -3 -12   65.17   10.38
   3  -4   0  107.38   14.84
  -3   4   0  106.26   14.27
  -3   4   1 1097.15   39.88
   3  -4  -1 1018.65   38.81
   3  -4  -2  211.63   12.64
  -3   4   2  212.71   11.47
  -3   4   3   51.24    7.02
   3  -4  -3   56.28    9.39
   3  -4  -4   96.97   11.53
  -3   4   4  103.38    9.29
  -3   4   5  127.45    9.61
   3  -4  -5  107.47    8.57
  -3   4   6  394.83   13.78
   3  -4  -6  375.56   13.51
  -3   4   7  351.39   15.02
   3  -4  -7  429.41   17.53
  -3   4   8  109.61   10.82
   3  -4  -8  115.47    9.28
  -3   4   9    8.21   11.45
   3  -4  -9   11.15    9.39
  -3   4  10   14.35    9.13
   3  -4 -10   17.29   10.29
  -3   4  11   89.67   15.29
   3  -4 -11  110.94   16.53
  -3   5   1  637.26   31.39
   3  -5  -1  634.95   32.93
   3  -5  -2   22.96   13.32
  -3   5   2   21.95   10.78
   3  -5  -3  925.73   35.00
  -3   5   3 1040.71   43.68
   3  -5  -4    2.39   10.93
  -3   5   4    8.07    9.60
   3  -5  -5    9.44   12.91
  -3   5   5    3.21    9.50
  -3   5   6  394.67   18.10
   3  -5  -6  297.10   14.12
  -3   5   7  382.12   16.86
   3  -5  -7  408.67   18.52
  -3   5   8   34.78   11.61
   3  -5  -8   24.69   14.46
  -3   5   9   72.20    9.94
   3  -5  -9   88.19   16.59
  -3   5  10   56.09   11.07
   3  -5 -10   99.44   17.92
   3  -6  -1   -1.10   16.07
  -3   6   1    2.13   17.08
   3  -6  -1   -2.23   18.41
   3  -6  -2  434.62   28.99
  -3   6   2  475.93   30.15
  -3   6   3   29.81   10.02
   3  -6  -3   23.90   15.87
  -3   6   4  130.07   14.16
   3  -6  -4  100.02   17.11
   3  -6  -5    2.50   15.28
  -3   6   5   -5.90   11.29
  -3   6   6    0.49    8.00
   3  -6  -6  -15.33   15.34
  -3   6   7   -2.70   12.22
   3  -6  -7   15.03   15.95
   3  -6  -8    3.42   16.81
  -3   6   8    0.62   13.38
   3  -6  -9    5.16   19.03
  -3   6   9   12.50   15.75
  -3   7   2   84.28   22.54
   3  -7  -2   81.54   21.27
   3  -7  -2   59.41   20.55
   3  -7  -3   16.79   18.80
  -3   7   3   23.28   13.61
  -3   7   4   26.69   15.74
   3  -7  -4   17.63   20.09
  -3   7   5  168.67   17.27
   3  -7  -5   96.81   18.34
   3  -7  -6   -0.04   18.48
  -3   7   6    4.86   13.72
  -3   7   7  124.38   16.91
   3  -7  -7   94.07   20.31
  -2  -9   1   81.97   11.70
  -2  -9   1   68.79   14.81
  -2  -8   1   37.97   12.09
  -2  -8   1   34.95   10.78
  -2  -8   2  666.59   24.13
  -2  -8   2  733.06   27.00
  -2  -8   3   -5.27    9.69
  -2  -8   3    5.26   12.31
  -2  -8   4   -0.26   14.75
  -2  -8   4    0.60   15.88
  -2  -7   1  176.75    8.92
  -2  -7   1  251.66   12.79
  -2  -7   2    6.42    9.87
  -2  -7   2    7.37    6.43
  -2  -7   3  104.91    7.64
  -2  -7   3  154.86   11.39
  -2  -7   4  680.27   24.47
  -2  -7   4  711.42   23.13
   2   7  -5  149.00   14.79
  -2  -7   5  166.58   14.24
  -2  -7   5  157.64   11.09
  -2  -7   6    3.99   15.09
   2   7  -6    0.11   10.84
  -2  -7   6   -7.59   15.90
  -2  -6   1  140.82    7.85
  -2  -6   1  125.22    6.20
  -2  -6   2 1271.55   32.33
  -2  -6   2 1252.74   30.32
  -2  -6   3  250.93   10.67
   2   6  -3  230.61   10.48
  -2  -6   3  250.55   10.45
  -2  -6   4    2.30    8.85
  -2  -6   4    4.51    8.79
   2   6  -4    1.62    8.86
   2   6  -5  515.36   18.18
  -2  -6   5  541.88   18.63
  -2  -6   5  547.43   18.46
  -2  -6   6    6.96   10.39
  -2  -6   6   10.51   11.32
   2   6  -6    4.96    7.38
  -2  -6   7   27.60   12.47
  -2  -6   7   21.19   13.91
   2   6  -7   27.74    8.93
  -2  -6   8   -3.70   10.62
  -2  -6   8   -5.53   16.94
   2   6  -8   -5.42   15.16
  -2  -5   1    2.89    5.90
  -2  -5   1    2.37    6.30
   2   5  -2   11.49    4.09
  -2  -5   2   14.86    5.67
  -2  -5   2   11.02    6.22
  -2  -5   3   40.14    5.81
   2   5  -3   31.58    4.26
  -2  -5   3   37.56    6.28
  -2  -5   4 1428.62   36.44
   2   5  -4 1311.23   33.73
  -2  -5   4 1104.18   24.88
  -2  -5   5   51.18    7.86
   2   5  -5   41.05    7.23
   2   5  -6  112.09    7.44
  -2  -5   6  137.06   10.57
   2   5  -7   40.44    7.82
  -2  -5   7   45.30   11.81
  -2  -5   8   -2.97   13.28
   2   5  -8   17.84   12.48
   2   5  -9   39.39   14.80
  -2  -5   9   27.33   11.67
  -2  -4   1    0.24    4.39
   2   4  -1   -0.51    3.05
  -2  -4   1    2.90    3.35
  -2  -4   2  174.56    5.95
  -2  -4   2  165.83    5.66
   2   4  -2  190.35    6.90
   2   4  -3  395.82   10.92
  -2  -4   3  402.41    9.89
   2   4  -4   -2.96    5.52
  -2  -4   4    0.12    4.16
  -2  -4   5  152.22    7.68
   2   4  -5  141.64    7.42
   2   4  -6   39.22    5.28
  -2  -4   6   49.73    7.98
   2   4  -7  845.50   25.21
  -2  -4   7  908.43   24.30
   2   4  -8    1.98    6.68
  -2  -4   8   -0.97   10.04
  -2  -4   9   65.55   12.24
   2   4  -9   65.46   11.57
   2   4 -10   -2.17   14.86
  -2  -4  10   -1.03   15.21
  -2  -3   1  257.29    8.65
  -2  -3   1  257.17    8.61
   2   3  -1  244.41    8.24
  -2  -3   2 1529.47   37.33
   2   3  -2 1450.29   37.51
  -2  -3   3  176.68    6.87
   2   3  -3  177.08    6.88
   2   3  -4  539.24   14.44
  -2  -3   4  578.26   14.71
   2   3  -5    5.07    5.99
  -2  -3   5    7.52    4.30
   2   3  -6  223.54    7.84
  -2  -3   6  290.81   10.00
  -2  -3   7  480.45   14.31
   2   3  -7  457.16   14.54
   2   3  -8  144.20   10.52
  -2  -3   8  100.69    7.63
   2   3  -9  201.11   11.46
  -2  -3   9  136.21    8.29
   2   3 -10   12.78   11.78
  -2  -3  10   10.96    8.28
  -2  -3  11   23.60   15.65
   2   3 -11   18.81   14.59
  -2  -2   1   22.08    2.83
   2   2  -1   20.59    2.82
  -2  -2   2 1280.42   34.60
   2   2  -2 1648.30   45.14
  -2  -2   3 1160.23   29.71
   2   2  -3 1129.68   28.43
  -2  -2   4   62.01    5.26
   2   2  -4   59.31    5.34
   2   2  -5    5.82    3.48
  -2  -2   5    4.63    4.95
  -2  -2   6  468.49   11.62
   2   2  -6  673.30   16.02
   2   2  -7 1115.46   23.74
  -2  -2   7 1563.20   31.96
   2   2  -8   16.64    7.70
  -2  -2   8   18.59    7.80
  -2  -2   9   32.38    9.56
   2   2  -9   19.65    9.56
   2   2 -10  294.46   11.38
  -2  -2  10  270.28   10.79
   2   2 -11  175.23   13.50
  -2  -2  11  141.93   13.77
   2   2 -12    2.92   13.75
  -2  -2  12  -12.80   14.66
   2   1  -1   12.90    2.76
  -2  -1   1   12.44    2.71
  -2  -1   2 1420.25   39.19
   2   1  -2 1335.52   36.06
  -2  -1   3  204.51    7.05
   2   1  -3  273.84    8.96
  -2  -1   4   74.60    5.67
   2   1  -4   52.18    4.08
  -2  -1   5  520.25   12.56
   2   1  -5  543.52   12.84
  -2  -1   6  358.54    9.92
   2   1  -6  367.88    9.92
  -2  -1   7   72.56    6.91
   2   1  -7   61.54    5.06
  -2  -1   8   15.97    5.65
   2   1  -8   13.68    5.60
  -2  -1   9 1143.76   24.59
   2   1  -9 1207.12   25.77
   2   1 -10  172.84    8.12
  -2  -1  10  216.04   11.03
   2   1 -11   85.86   10.89
  -2  -1  11   60.51    7.89
   2   1 -12   37.00   11.73
  -2  -1  12   36.54   12.16
   2   0  -1    3.93    3.60
  -2   0   1    2.87    2.73
   2   0  -2 1179.45   33.98
  -2   0   2  940.17   26.94
  -2   0   3  252.38    8.81
   2   0  -3  182.74    6.64
  -2   0   4 1423.01   31.92
   2   0  -4 1418.35   32.34
  -2   0   5   44.86    6.00
   2   0  -5   39.50    4.19
  -2   0   6    5.75    5.43
   2   0  -6    2.25    5.20
  -2   0   7  114.87    7.76
   2   0  -7   81.60    5.60
   2   0  -8    8.01    6.65
  -2   0   8   19.17    6.68
  -2   0   9  189.71    9.63
   2   0  -9  190.29    9.47
  -2   0  10    9.23    9.29
   2   0 -10   15.45    6.34
  -2   0  11   79.93    8.00
   2   0 -11  103.86   11.00
  -2   0  12  467.27   16.75
   2   0 -12  479.67   16.86
   2   0 -13   -7.76    8.90
  -2   0  13   -4.86    9.05
   2  -1   0  134.69    7.91
  -2   1   0  122.33    8.41
  -2   1   1  205.56    9.85
   2  -1  -1  203.62    9.01
  -2   1   2  832.95   21.83
   2  -1  -2  864.90   24.90
  -2   1   3    4.56    4.86
   2  -1  -3    3.62    4.53
   2  -1  -4   -0.17    4.12
  -2   1   4    0.40    6.05
  -2   1   5 2667.31   50.15
   2  -1  -5 3455.80   65.04
  -2   1   6  272.01    9.20
   2  -1  -6  264.92    8.94
   2  -1  -7   74.72    5.71
  -2   1   7   77.78    5.99
   2  -1  -8  120.02    6.08
  -2   1   8  119.39    6.12
   2  -1  -9  276.30    9.02
  -2   1   9  362.13   12.11
   2  -1 -10   66.10    7.04
  -2   1  10   90.56    9.89
  -2   1  11  129.74    8.55
   2  -1 -11  211.37   12.01
   2  -1 -12  189.54    9.87
  -2   1  12  187.57    9.93
  -2   1  13   15.38    8.78
   2  -1 -13   -2.00   12.42
  -2   2   1  190.27    9.82
   2  -2  -1  198.68    9.90
  -2   2   2  103.36    7.27
   2  -2  -2  108.60    7.28
  -2   2   3  137.98    7.28
   2  -2  -3  172.30    9.08
  -2   2   4 1705.36   38.20
   2  -2  -4 1666.64   37.16
  -2   2   5  322.51    9.75
   2  -2  -5  332.24   10.02
  -2   2   6    2.52    4.29
   2  -2  -6    9.68    7.01
   2  -2  -7 1732.07   34.37
  -2   2   7 1367.50   27.39
   2  -2  -8    2.41    5.19
  -2   2   8   11.44    7.16
  -2   2   9   14.15    5.95
   2  -2  -9   17.77    8.44
  -2   2  10   -9.29    9.57
   2  -2 -10    5.53    9.47
   2  -2 -11  387.31   14.66
  -2   2  11  342.28   14.05
  -2   2  12  167.45    9.61
   2  -2 -12  171.32    9.76
   2  -2 -13   41.33   12.70
  -2   2  13   21.36    9.07
   2  -3   0  207.26   15.00
  -2   3   0  223.05   13.37
  -2   3   1  376.37   15.20
   2  -3  -1  289.82   14.29
   2  -3  -2  758.16   23.26
  -2   3   2  981.05   32.22
   2  -3  -3   83.72    8.17
  -2   3   3   90.51    6.73
  -2   3   4   14.67    4.16
   2  -3  -4   15.25    4.95
  -2   3   5  132.10    7.52
   2  -3  -5  137.61    8.55
  -2   3   6   45.94    5.43
   2  -3  -6   48.83    6.22
  -2   3   7  465.52   12.78
   2  -3  -7  658.26   17.57
  -2   3   8    5.71    8.40
   2  -3  -8   22.22    9.13
   2  -3  -9  122.53    9.76
  -2   3   9   99.97    8.92
  -2   3  10   77.76   10.16
   2  -3 -10   81.87    7.71
  -2   3  11  124.08   11.46
   2  -3 -11  125.16   11.81
  -2   3  12  100.28   12.47
   2  -3 -12  114.92   12.54
  -2   3  13   -0.03    9.35
   2  -3 -13   -9.86   13.12
   2  -4   0  757.98   30.76
  -2   4   0  973.33   34.05
  -2   4   1   51.90    7.80
   2  -4  -1   30.84    9.63
  -2   4   2  864.56   26.74
   2  -4  -2  468.42   17.54
   2  -4  -3  257.52   13.18
  -2   4   3  366.40   13.97
  -2   4   4    5.11    6.15
   2  -4  -4    6.03    8.74
   2  -4  -5  591.36   18.66
  -2   4   5  581.61   18.59
   2  -4  -6  141.34    9.99
  -2   4   6  123.40    6.65
  -2   4   7  172.37   10.00
   2  -4  -7  156.55    8.81
   2  -4  -8   12.11    9.79
  -2   4   8    6.46    7.94
  -2   4   9  281.27   10.76
   2  -4  -9  407.91   15.62
   2  -4 -10    6.61    8.62
  -2   4  10  -21.69   10.61
   2  -4 -11    5.67    8.44
  -2   4  11   16.93    7.89
  -2   4  12   -8.95   12.74
   2  -4 -12   -1.44   12.80
   2  -5   0   10.55    9.39
   2  -5   0    6.03   13.19
  -2   5   1  623.83   24.44
   2  -5  -1  324.24   18.62
   2  -5  -2  758.18   28.16
  -2   5   2 1393.95   45.37
  -2   5   3  442.14   16.55
   2  -5  -3  254.86   13.85
  -2   5   4  275.47   12.00
   2  -5  -4  190.43   11.97
   2  -5  -5   20.77    7.80
  -2   5   5   24.62    7.92
  -2   5   6   12.98    5.39
   2  -5  -6    3.90   10.55
   2  -5  -7  254.41   13.41
  -2   5   7  248.03   11.68
   2  -5  -8   -6.51   12.13
  -2   5   8   -6.00    9.50
   2  -5  -9   80.50   10.29
  -2   5   9   79.64   11.08
   2  -5 -10  235.68   11.85
  -2   5  10  217.47   10.66
   2  -5 -11   55.48   14.56
  -2   5  11   44.72    9.27
   2  -5 -12    8.11   15.65
  -2   5  12   -4.11   14.97
   2  -6   0  146.09   14.95
   2  -6   0   87.64   17.91
   2  -6  -1   37.00   10.37
   2  -6  -1   20.27   13.99
  -2   6   1   34.81    9.07
   2  -6  -2  571.28   27.69
  -2   6   2  953.90   39.21
   2  -6  -3  108.60   14.99
  -2   6   3  186.65   11.97
  -2   6   4   73.54    7.07
   2  -6  -4   50.72   11.61
  -2   6   5  617.75   25.29
   2  -6  -5  431.42   20.56
  -2   6   6  291.98   15.01
   2  -6  -6  243.80   15.97
  -2   6   7    1.97    6.63
   2  -6  -7   11.99    8.84
   2  -6  -8   37.34   14.90
  -2   6   8   44.85   11.34
   2  -6  -9  886.29   29.25
  -2   6   9  777.20   26.18
   2  -6 -10    5.22   15.98
  -2   6  10    3.22    9.35
   2  -6 -11   75.24   17.96
  -2   6  11   48.59   15.71
   2  -7   0  270.17   24.97
   2  -7   0  157.56   28.18
   2  -7  -1   48.64   14.06
   2  -7  -1   18.64   21.39
   2  -7  -2  147.75   14.67
   2  -7  -2   76.32   17.53
  -2   7   2  152.37   16.19
   2  -7  -3   -1.28   14.61
  -2   7   3    4.04   11.31
   2  -7  -4   67.68   16.45
  -2   7   4  120.54   13.22
  -2   7   5   58.69   11.78
   2  -7  -5   38.33   16.05
  -2   7   6   -6.88   11.01
   2  -7  -6    2.43   15.51
  -2   7   7    7.00   12.56
   2  -7  -7   13.34   17.49
  -2   7   8   32.50   12.69
   2  -7  -8   14.38   17.50
  -2   7   9    5.05   10.26
   2  -7  -9    3.89   13.70
   2  -8  -1   -0.48   20.75
   2  -8  -1    1.10   22.55
   2  -8  -2   16.63   17.19
   2  -8  -2    4.91   20.92
   2  -8  -3   51.42   22.25
  -2   8   3  114.74   19.48
   2  -8  -3  114.77   18.47
   2  -8  -4    5.92   18.16
  -2   8   4   32.26   16.24
   2  -8  -5   59.73   23.77
  -2   8   5   96.92   15.55
  -2   8   6   21.32   14.60
   2  -8  -6    8.08   20.80
  -2   8   7   48.48   14.72
   2  -8  -7   29.58   20.87
  -1  -9   1  142.29   17.08
  -1  -9   1  155.60   17.56
  -1  -8   1  580.12   23.17
  -1  -8   1  591.86   26.86
  -1  -8   2   28.23   12.14
  -1  -8   2   17.57   11.57
  -1  -8   3  203.52   16.11
  -1  -8   3  225.91   18.07
  -1  -8   4  336.65   23.83
  -1  -8   4  290.32   20.51
  -1  -7   1  201.53   11.35
  -1  -7   1  220.94   13.14
  -1  -7   2   17.31    9.38
  -1  -7   2   23.79   10.45
  -1  -7   3    1.07   10.48
  -1  -7   3   -5.65    9.52
  -1  -7   4  439.36   20.38
  -1  -7   4  367.31   18.33
  -1  -7   5   72.71   14.68
  -1  -7   5   69.92   14.58
  -1  -7   6   41.47   16.85
  -1  -7   6   61.34   15.58
   1   7  -6   39.57   15.69
  -1  -6   1   44.42    6.83
  -1  -6   1   48.24    7.47
  -1  -6   2  393.78   13.48
  -1  -6   2  363.32   13.36
  -1  -6   3   51.54    8.70
  -1  -6   3   41.04    8.00
  -1  -6   4  318.90   14.53
   1   6  -4  335.43   15.07
  -1  -6   4  391.35   15.93
  -1  -6   5  106.18   10.70
  -1  -6   5   93.97   10.85
   1   6  -5   87.03   10.75
   1   6  -6  119.97   12.70
  -1  -6   6  141.38   12.75
  -1  -6   6  115.82   13.52
  -1  -6   7   69.88   13.66
   1   6  -7   53.76    9.92
  -1  -6   7   62.14   15.59
  -1  -6   8    1.53   18.33
   1   6  -8    2.50   15.69
  -1  -6   8   -9.54   15.62
  -1  -5   1  103.72    7.01
  -1  -5   1  111.83    7.96
  -1  -5   2  252.79    9.55
  -1  -5   2  267.67   10.36
  -1  -5   3   31.35    6.31
   1   5  -3   30.85    6.38
  -1  -5   3   26.12    6.39
  -1  -5   4  177.11    9.35
   1   5  -4  169.70    9.40
  -1  -5   4  173.82    9.26
   1   5  -5  907.24   27.11
  -1  -5   5  929.71   27.43
  -1  -5   5  838.99   24.50
  -1  -5   6  168.93    9.22
   1   5  -6  214.49   12.03
   1   5  -7  543.81   20.94
  -1  -5   7  547.08   19.39
   1   5  -8   78.20    8.81
  -1  -5   8   91.79   13.69
  -1  -5   9   13.85   11.09
   1   5  -9    5.34   13.52
  -1  -4   1    4.31    4.83
   1   4  -1    3.99    4.81
  -1  -4   1    6.31    4.84
   1   4  -2 1606.98   37.46
  -1  -4   2 1711.33   39.67
  -1  -4   2 1771.90   36.94
   1   4  -3  174.61    7.04
  -1  -4   3  182.65    7.22
  -1  -4   3  191.92    7.56
   1   4  -4  316.06   10.73
  -1  -4   4  338.23   11.69
   1   4  -5   55.33    6.30
  -1  -4   5   62.30    6.86
   1   4  -6  138.95    8.98
  -1  -4   6   98.77    7.06
   1   4  -7  176.41    9.96
  -1  -4   7  173.80   10.35
  -1  -4   8  183.09    9.64
   1   4  -8  229.29   10.36
  -1  -4   9  366.17   16.71
   1   4  -9  382.29   17.05
   1   4 -10    4.09   13.39
  -1  -4  10   12.49   14.83
  -1  -4  11    0.14   17.58
   1   4 -11   -1.66   11.35
  -1  -3   1    9.55    2.78
   1   3  -1    9.63    3.53
  -1  -3   1   10.79    3.61
  -1  -3   2  409.41   11.73
   1   3  -2  301.31    9.47
   1   3  -3  476.64   14.05
  -1  -3   3  492.03   13.93
  -1  -3   4  387.31   12.18
   1   3  -4  325.86   10.00
  -1  -3   5   88.65    6.11
   1   3  -5   94.83    6.64
   1   3  -6    1.45    6.37
  -1  -3   6    3.97    6.51
  -1  -3   7  523.63   16.18
   1   3  -7  569.10   17.47
  -1  -3   8  353.44   13.02
   1   3  -8  396.06   14.20
  -1  -3   9  199.25   12.01
   1   3  -9  173.35    9.00
  -1  -3  10  337.02   15.52
   1   3 -10  243.59   11.46
  -1  -3  11  131.36   14.86
   1   3 -11  130.35   13.99
   1   2  -1    1.07    2.46
  -1  -2   1    1.41    3.76
   1   2  -2 1729.86   48.79
  -1  -2   2 2282.71   59.66
  -1  -2   3  228.70    8.18
   1   2  -3  241.88    8.38
  -1  -2   4   35.60    3.86
   1   2  -4   49.16    5.50
  -1  -2   5 1273.56   30.95
   1   2  -5  998.00   23.69
  -1  -2   6  108.32    6.43
   1   2  -6   99.22    5.17
   1   2  -7   36.05    4.87
  -1  -2   7   36.75    6.78
  -1  -2   8   -2.63    8.04
   1   2  -8   -4.05    7.78
  -1  -2   9  662.06   17.60
   1   2  -9  767.02   21.11
  -1  -2  10  215.31   11.77
   1   2 -10  223.70   11.83
  -1  -2  11   66.06    8.40
   1   2 -11   65.27    8.16
   1   2 -12   12.06    8.48
  -1  -2  12    3.78    8.97
  -1  -1   1  737.95   24.45
   1   1  -1  702.37   23.48
   1   1  -2 2713.82   76.46
  -1  -1   2 2611.37   76.23
  -1  -1   3 1132.98   32.13
   1   1  -3 1598.18   43.31
  -1  -1   4 3033.48   71.95
   1   1  -4 3267.73   75.99
  -1  -1   5  154.77    7.09
   1   1  -5  108.58    5.37
   1   1  -6  284.75    9.06
  -1  -1   6  242.99    8.42
  -1  -1   7   -4.28    6.65
   1   1  -7    1.23    6.46
   1   1  -8  192.08    8.58
  -1  -1   8  119.35    6.04
  -1  -1   9   41.52    8.23
   1   1  -9   49.20    7.96
  -1  -1  10  278.56   12.26
   1   1 -10  214.29    9.04
   1   1 -11  246.42   12.35
  -1  -1  11  249.03   12.26
  -1  -1  12   20.66    8.45
   1   1 -12   30.17   11.40
  -1  -1  13   18.04   13.26
   1   1 -13    5.01    9.12
   1   0  -1  220.22   10.03
  -1   0   1  210.65    9.86
   1   0  -2  250.87    9.81
  -1   0   2  323.83   12.18
   1   0  -3   10.05    4.88
  -1   0   3    6.71    4.86
  -1   0   4  173.85    7.45
   1   0  -4  124.37    5.66
  -1   0   5 1562.54   33.17
   1   0  -5 1631.26   33.66
  -1   0   6  338.79   10.28
   1   0  -6  236.20    7.52
  -1   0   7  907.04   19.01
   1   0  -7  959.35   19.70
   1   0  -8   72.83    5.49
  -1   0   8   68.00    5.54
  -1   0   9  234.55    9.65
   1   0  -9  166.74    7.29
  -1   0  10    5.47    5.45
   1   0 -10    0.77    7.53
  -1   0  11  296.34   11.93
   1   0 -11  228.85    8.96
  -1   0  12   57.85   10.12
   1   0 -12   60.91   10.05
  -1   0  13    4.55    7.61
   1   0 -13   -7.81   10.74
  -1   1   0 1876.58   58.20
   1  -1   0 2090.74   68.10
  -1   1   1   40.14    5.64
   1  -1  -1   46.38    5.78
   1  -1  -2 1639.05   39.37
  -1   1   2 1934.38   45.38
  -1   1   3  456.18   13.77
   1  -1  -3  470.78   14.14
   1  -1  -4  245.02    9.11
  -1   1   4  228.00    8.73
  -1   1   5   36.67    5.54
   1  -1  -5   33.15    5.45
   1  -1  -6  608.60   14.02
  -1   1   6  589.12   13.65
  -1   1   7   88.28    6.78
   1  -1  -7   92.28    6.78
  -1   1   8  230.04    9.43
   1  -1  -8  168.43    7.00
  -1   1   9  483.14   13.08
   1  -1  -9  377.01   10.07
   1  -1 -10   22.10    7.70
  -1   1  10   27.41    7.76
   1  -1 -11   32.22    9.00
  -1   1  11   33.17    8.88
  -1   1  12  136.29    8.06
   1  -1 -12  214.63   11.56
  -1   1  13   73.24    8.09
   1  -1 -13  109.58   11.44
  -1   1  14    5.72    8.33
  -1   2   0    2.15    5.56
   1  -2   0    4.70    6.28
   1  -2  -1 1229.79   35.93
  -1   2   1 1305.59   41.20
  -1   2   2 2350.78   67.39
   1  -2  -2 2208.72   53.96
  -1   2   3  492.61   15.16
   1  -2  -3  367.40   11.78
   1  -2  -4    2.24    3.58
  -1   2   4   -0.45    4.64
  -1   2   5   37.52    6.23
   1  -2  -5   39.19    6.64
  -1   2   6  196.54    8.16
   1  -2  -6  165.84    6.72
   1  -2  -7  886.75   18.41
  -1   2   7 1007.30   20.98
  -1   2   8  173.76    6.98
   1  -2  -8  260.75    9.72
  -1   2   9   67.52    5.58
   1  -2  -9   97.99    7.61
  -1   2  10  108.70    8.63
   1  -2 -10  127.57    8.85
  -1   2  11  457.83   14.55
   1  -2 -11  455.62   14.62
  -1   2  12   39.65    7.36
   1  -2 -12   41.29    7.48
  -1   2  13  111.34   11.67
   1  -2 -13   94.93    8.55
  -1   2  14  291.75   14.98
   1  -2 -14  232.82   11.31
  -1   3   0 2914.31   80.96
   1  -3   0 2519.82   76.13
  -1   3   1 1792.56   49.34
   1  -3  -1 1545.24   46.02
   1  -3  -2 1822.56   49.46
  -1   3   2 1911.44   53.59
   1  -3  -3 2394.49   58.62
  -1   3   3 2401.02   67.54
   1  -3  -4    9.74    6.53
  -1   3   4   11.07    5.02
   1  -3  -5  283.98    9.18
  -1   3   5  359.61   11.36
   1  -3  -6  488.91   12.38
  -1   3   6  539.09   13.51
  -1   3   7  831.29   19.33
   1  -3  -7  699.18   15.80
  -1   3   8  401.75   10.46
   1  -3  -8  539.39   13.90
  -1   3   9  166.92    9.24
   1  -3  -9  144.13    7.31
   1  -3 -10  179.23    9.68
  -1   3  10  121.43    6.56
  -1   3  11   15.14    9.27
   1  -3 -11    5.71    9.55
   1  -3 -12  109.28    8.43
  -1   3  12  131.48   11.33
   1  -3 -13  425.44   16.43
  -1   3  13  433.43   16.34
  -1   3  14    6.93    8.92
   1  -4   0  190.80   10.57
   1  -4   0  165.51    9.51
  -1   4   0  194.94   10.69
   1  -4  -1    2.62    5.80
  -1   4   1    4.10    6.86
   1  -4  -2  690.04   21.60
  -1   4   2  789.02   22.80
   1  -4  -3  236.53   10.55
  -1   4   3  253.00    9.98
  -1   4   4  250.20    9.65
   1  -4  -4  237.55   10.34
  -1   4   5   20.44    5.00
   1  -4  -5   14.17    6.42
  -1   4   6   40.47    6.46
   1  -4  -6   32.98    5.69
   1  -4  -7   76.39    6.01
  -1   4   7   86.07    7.35
   1  -4  -8    0.59    8.14
  -1   4   8   -4.77    7.27
   1  -4  -9   -1.70    8.70
  -1   4   9    1.97    5.47
   1  -4 -10  335.02   11.09
  -1   4  10  271.44    9.81
   1  -4 -11   29.76   10.92
  -1   4  11   27.93    6.66
   1  -4 -12   21.32    8.02
  -1   4  12   21.08   11.03
   1  -4 -13  126.42   13.84
  -1   4  13  111.78   13.94
   1  -5   0  200.39   11.49
   1  -5   0  193.46   12.47
  -1   5   0  199.74   11.71
   1  -5  -1  129.89   10.95
  -1   5   1  125.50    9.13
   1  -5  -2   10.37    7.77
  -1   5   2   13.56    8.73
  -1   5   3  765.68   22.43
   1  -5  -3  711.79   22.27
  -1   5   4  108.17    8.05
   1  -5  -4  100.13    7.09
   1  -5  -5  308.51   12.59
  -1   5   5  328.41   12.19
   1  -5  -6   28.47    5.95
  -1   5   6   33.92    6.42
   1  -5  -7  310.34   11.25
  -1   5   7  402.42   14.60
   1  -5  -8    4.33    6.68
  -1   5   8   12.13    7.63
   1  -5  -9  332.42   14.52
  -1   5   9  307.97   11.52
   1  -5 -10    2.64   10.75
  -1   5  10   -0.72    9.43
   1  -5 -11   90.17    9.37
  -1   5  11   79.53    8.67
   1  -5 -12  141.40   14.57
  -1   5  12   93.83    9.72
  -1   5  13    4.43   10.55
   1  -5 -13   -1.54   10.89
   1  -6   0  912.39   35.79
   1  -6   0  961.00   35.14
   1  -6  -1   46.64   11.84
   1  -6  -1   50.31    8.36
  -1   6   1   47.85    9.00
  -1   6   2   84.40    9.46
   1  -6  -2   80.40   10.41
   1  -6  -3  154.04   11.61
  -1   6   3  166.87   10.71
  -1   6   4  422.69   15.91
   1  -6  -4  393.17   16.42
   1  -6  -5  232.41   13.04
  -1   6   5  256.31   12.01
  -1   6   6  111.39    7.09
   1  -6  -6  115.90   11.05
  -1   6   7  203.18   11.24
   1  -6  -7  208.29   12.91
   1  -6  -8  274.37   14.46
  -1   6   8  292.28   13.50
   1  -6  -9   60.81    8.64
  -1   6   9   75.45    9.81
  -1   6  10  117.51    8.97
   1  -6 -10  119.11   14.12
  -1   6  11  179.48   11.05
   1  -6 -11  193.21   16.36
   1  -6 -12   81.09   17.09
  -1   6  12   59.11   15.34
   1  -7   0  116.74   13.67
   1  -7   0  105.42   15.22
   1  -7  -1  285.99   17.87
   1  -7  -1  308.67   18.13
   1  -7  -2    9.29   11.63
   1  -7  -2   14.43   11.27
  -1   7   2   14.00    9.82
  -1   7   3  148.76   11.91
   1  -7  -3  136.92   13.66
   1  -7  -4   -0.02   12.14
  -1   7   4    9.67    9.81
   1  -7  -5  914.70   31.88
  -1   7   5  995.60   36.10
   1  -7  -6  179.25   14.31
  -1   7   6  196.31   12.44
   1  -7  -7   39.99   10.39
  -1   7   7   53.22    7.98
  -1   7   8  688.22   26.26
   1  -7  -8  622.11   23.10
   1  -7  -9    7.40   16.22
  -1   7   9   20.16    8.52
  -1   7  10   -0.50    8.63
   1  -7 -10    3.07   16.14
  -1   7  11  302.02   17.97
   1  -7 -11  253.86   20.14
   1  -8   0  220.16   25.13
   1  -8   0  255.00   21.02
   1  -8  -1  194.65   17.76
   1  -8  -1  153.67   17.58
   1  -8  -2   34.53   11.24
   1  -8  -2   23.09   17.51
  -1   8   2   28.20   11.97
   1  -8  -3   51.94   14.70
   1  -8  -3   54.44   11.04
  -1   8   3   53.60   11.71
   1  -8  -4  231.43   18.05
  -1   8   4  228.94   16.48
   1  -8  -5   54.14   15.32
  -1   8   5   55.72   11.76
   1  -8  -6   16.47   12.23
  -1   8   6   42.09   12.70
   1  -8  -7  160.56   18.37
  -1   8   7  205.65   15.52
  -1   8   8   15.03   12.90
   1  -8  -8  -10.92   13.93
   1  -8  -9   74.81   19.93
  -1   8   9  112.32   14.90
   1  -9  -2   72.86   17.26
   1  -9  -2   58.99   24.95
   1  -9  -3   12.69   20.09
   1  -9  -3   18.21   18.30
  -1   9   3   18.69   19.19
  -1   9   4   32.49   15.08
   1  -9  -4   29.91   14.29
   1  -9  -4   19.79   20.52
   1  -9  -5   10.77   20.19
  -1   9   5    7.59   14.54
   0  -9   1   39.26   15.80
   0  -9   1   32.90   17.42
   0  -8   1  213.76   15.34
   0  -8   1  215.15   18.72
   0  -8   2  215.83   19.01
   0  -8   2  260.50   21.21
   0  -8   3    8.86   12.65
   0  -8   3    6.14   17.84
   0  -8   4   14.27   17.67
   0  -8   4    5.83   17.68
   0  -7   1   29.24   12.30
   0  -7   1   24.72    9.87
   0  -7   2   57.12   10.42
   0  -7   2   60.70   12.99
   0  -7   3    6.85   10.72
   0  -7   3   -1.10   11.36
   0  -7   4  431.15   23.20
   0  -7   4  496.50   28.19
   0  -7   5   24.25   14.03
   0  -7   5   15.27   15.98
   0  -7   6   -5.73   18.83
   0  -7   6    5.12   16.10
   0  -6   1   19.43   10.32
   0  -6   1   14.67    7.89
   0  -6   2   10.81    8.09
   0  -6   2   13.59    8.44
   0  -6   3  190.19   11.82
   0  -6   3  152.65   10.58
   0  -6   4    5.77   10.50
   0  -6   4   -7.66   10.74
   0  -6   5  117.91   13.20
   0  -6   5  141.71   12.64
   0   6  -6   91.98   16.02
   0  -6   6   98.21   13.38
   0  -6   6   88.47   18.05
   0  -6   7  590.04   29.04
   0  -6   7  799.84   37.66
   0   6  -7  746.65   37.06
   0  -6   8   15.35   19.59
   0  -6   8   16.47   16.42
   0   6  -8   14.83   16.44
   0  -5   1   61.90    7.18
   0  -5   1   69.30    7.77
   0  -5   2 1036.09   30.25
   0  -5   2  863.39   25.89
   0  -5   3  170.30    9.29
   0  -5   3  230.38   10.97
   0   5  -4   93.13    9.63
   0  -5   4  102.40    9.50
   0  -5   4   84.03    9.39
   0  -5   5    2.68    7.96
   0   5  -5    6.04    9.88
   0  -5   5    2.47    9.12
   0   5  -6  387.18   17.47
   0  -5   6  355.27   16.93
   0  -5   6  386.14   17.02
   0   5  -7   46.02   10.25
   0  -5   7   39.46   12.48
   0  -5   8  155.80   12.25
   0   5  -8  238.20   16.36
   0   5  -9  373.67   22.88
   0  -5   9  399.39   22.91
   0  -5  10   14.53   19.40
   0   5 -10   12.66   16.90
   0  -4   1  121.70    7.43
   0  -4   1   92.34    6.48
   0  -4   2 2165.57   55.62
   0  -4   2 1857.56   47.73
   0  -4   3 1143.28   34.42
   0   4  -3 1268.03   33.37
   0  -4   3 1350.34   34.65
   0  -4   4   17.37    6.65
   0   4  -4   13.94    6.09
   0   4  -5  177.63    8.95
   0  -4   5  172.51    9.78
   0   4  -6  279.86   12.43
   0  -4   6  250.58   12.42
   0   4  -7  908.73   30.50
   0  -4   7  790.18   24.23
   0   4  -8  132.38    9.20
   0  -4   8  149.78   13.26
   0   4  -9    7.43   11.84
   0  -4   9    4.26   14.15
   0   4 -10  230.45   17.48
   0  -4  10  277.31   19.25
   0   4 -11   61.13   17.20
   0  -4  11   87.12   19.01
   0  -3   1  677.88   17.87
   0  -3   1  765.30   22.02
   0   3  -2 2299.77   57.80
   0  -3   2 2337.27   61.22
   0  -3   2 2469.56   61.97
   0   3  -3   92.43    5.89
   0  -3   3   90.51    6.33
   0   3  -4  175.51    7.84
   0  -3   4  158.10    8.00
   0   3  -5 1861.50   50.16
   0  -3   5 1555.45   42.61
   0  -3   6   89.54    6.36
   0   3  -6  147.66    8.56
   0  -3   7  160.25    9.26
   0   3  -7  174.99    9.24
   0  -3   8   19.50    6.73
   0   3  -8   31.37    8.44
   0  -3   9  531.05   16.97
   0   3  -9  626.45   21.32
   0  -3  10  178.89   14.73
   0   3 -10  125.00   12.95
   0  -3  11  181.91   16.45
   0   3 -11  130.22   14.86
   0  -3  12  -16.99   17.36
   0   3 -12    3.86   11.08
   0  -2   1    2.33    3.94
   0  -2   1    2.31    3.76
   0   2  -1    1.36    3.75
   0   2  -2  524.72   18.09
   0  -2   2  532.98   17.96
   0  -2   3   35.44    4.39
   0   2  -3   41.05    4.47
   0  -2   4 1265.57   35.91
   0   2  -4 1437.08   39.05
   0  -2   5  433.07   13.20
   0   2  -5  711.17   20.51
   0  -2   6   77.49    5.27
   0   2  -6  119.62    7.09
   0  -2   7  120.57    6.81
   0   2  -7  135.78    6.85
   0  -2   8  175.14    9.44
   0   2  -8  125.13    6.63
   0  -2   9    6.05    9.08
   0   2  -9    7.03    7.97
   0   2 -10    3.31    6.78
   0  -2  10    5.80   10.75
   0  -2  11   10.56    8.65
   0   2 -11   10.64    7.77
   0  -2  12  309.70   14.09
   0   2 -12  328.50   14.31
   0  -2  13   23.69   15.79
   0  -1   1 1071.92   35.16
   0   1  -1 1014.88   36.27
   0  -1   2  137.81    7.40
   0   1  -2  163.07    8.60
   0  -1   3    1.60    4.77
   0   1  -3    3.17    4.53
   0  -1   4  201.68    8.56
   0   1  -4  236.83    9.09
   0   1  -5 2431.77   56.35
   0  -1   5 1660.72   38.52
   0  -1   6  246.94    9.57
   0   1  -6  242.22    9.22
   0  -1   7  772.25   19.35
   0   1  -7  503.24   13.84
   0  -1   8   94.67    8.19
   0   1  -8   64.65    5.47
   0  -1   9  624.40   18.11
   0   1  -9  626.11   18.82
   0  -1  10   44.48    6.19
   0   1 -10   47.31    7.93
   0  -1  11  220.06   12.07
   0   1 -11  172.22    8.60
   0   1 -12  324.72   14.96
   0  -1  12  236.90   10.95
   0   1 -13   17.53   12.31
   0  -1  13   12.59   12.73
   0   0   2   14.99    3.81
   0   0  -2   20.95    4.81
   0   0   3 1378.87   33.93
   0   0  -3 2098.95   48.83
   0   0   4 1096.56   26.56
   0   0  -4 1180.65   27.95
   0   0   5 1125.58   25.82
   0   0  -5 1153.42   26.08
   0   0   6    7.96    6.16
   0   0  -6    3.94    4.23
   0   0   7 1704.87   35.38
   0   0  -7 1227.39   26.04
   0   0   8   66.08    7.92
   0   0  -8   43.85    5.39
   0   0   9   18.02    7.23
   0   0  -9   13.42    4.75
   0   0  10    6.85    8.14
   0   0 -10    5.33    5.39
   0   0  11  484.48   15.93
   0   0 -11  371.14   12.20
   0   0  12  951.13   27.59
   0   0 -12  726.44   21.97
   0   0  13   -6.66   11.72
   0   0 -13   -2.12    7.92
   0   0  14   31.49   13.31
   0   0 -14   25.19   12.66
   0  -1   0  504.79   21.23
   0   1   0  521.18   21.74
   0   1   1  681.13   24.65
   0  -1  -1  641.98   23.76
   0  -1  -2 1422.31   45.30
   0   1   2 1332.50   43.15
   0  -1  -3 1660.96   44.95
   0   1   3 1196.13   33.26
   0   1   4   74.89    6.22
   0  -1  -4   74.24    6.12
   0   1   5  626.41   16.18
   0  -1  -5  593.58   15.61
   0   1   6   95.85    6.88
   0  -1  -6   68.69    5.01
   0   1   7  402.59   10.51
   0  -1  -7  518.08   13.09
   0   1   8   54.14    4.66
   0  -1  -8   55.63    4.55
   0   1   9   36.07    7.14
   0  -1  -9   35.77    7.02
   0   1  10   84.40    8.71
   0  -1 -10   99.57    8.44
   0   1  11  144.77    7.04
   0  -1 -11  204.27    9.61
   0   1  12   26.55    9.10
   0  -1 -12   31.41    6.35
   0   1  13    3.13   10.04
   0  -1 -13    2.23    9.99
   0   1  14  332.19   13.39
   0  -1 -14  368.92   13.99
   0   2   0 3980.25  100.21
   0   2   1  219.45   10.03
   0  -2  -1  238.53   10.50
   0   2   2 1539.68   43.21
   0  -2  -2 1526.22   44.04
   0   2   3  466.24   14.91
   0  -2  -3  559.56   17.57
   0   2   4  545.18   16.22
   0  -2  -4  573.46   16.74
   0   2   5  532.57   14.23
   0  -2  -5  696.34   17.96
   0   2   6   11.34    5.54
   0  -2  -6    7.99    4.06
   0   2   7  929.23   20.37
   0  -2  -7  708.17   16.04
   0   2   8   68.45    6.63
   0  -2  -8   62.84    7.32
   0   2   9  345.32    9.39
   0  -2  -9  546.09   13.65
   0  -2 -10    5.86    7.93
   0   2  10    0.84    8.08
   0   2  11    6.72    7.70
   0  -2 -11    2.91    7.75
   0  -2 -12   15.29    6.38
   0   2  12    3.21    9.15
   0  -2 -13   55.26   10.59
   0   2  13   57.60   10.48
   0  -2 -14   72.12    9.56
   0   2  14   68.06    9.36
   0  -3   0  568.00   16.84
   0   3   0  519.37   15.96
   0  -3   0  523.08   16.54
   0  -3  -1  756.51   22.21
   0   3   1  760.65   22.55
   0   3   2 1884.47   48.21
   0  -3  -2 1964.40   50.74
   0   3   3 1130.20   29.01
   0  -3  -3 1222.40   31.95
   0  -3  -4  160.84    6.79
   0   3   4  147.60    6.27
   0  -3  -5   12.41    5.39
   0   3   5    9.99    4.77
   0  -3  -6   38.23    5.79
   0   3   6   38.89    5.29
   0  -3  -7  661.91   14.93
   0   3   7  844.80   18.87
   0  -3  -8  125.42    6.36
   0   3   8  169.27    8.22
   0  -3  -9  128.77    7.89
   0   3   9   86.75    5.67
   0  -3 -10  693.89   16.97
   0   3  10  438.86   11.46
   0  -3 -11   60.75    9.15
   0   3  11   35.95    5.89
   0  -3 -12   -2.15    9.36
   0   3  12    1.47    9.20
   0  -3 -13  101.14   11.30
   0   3  13   94.55   11.20
   0  -3 -14  264.49   12.06
   0   3  14  320.87   15.30
   0  -4   0  334.15   11.88
   0  -4   0  343.28   11.69
   0   4   0  322.67   11.69
   0   4   1  511.58   16.27
   0  -4  -1  511.21   16.35
   0  -4  -2 1493.31   39.40
   0   4   2 1561.90   40.97
   0   4   3  324.48   10.91
   0  -4  -3  291.63    9.76
   0  -4  -4  715.52   19.10
   0   4   4  711.04   18.96
   0  -4  -5 2587.84   57.63
   0   4   5 2438.09   57.79
   0  -4  -6  291.86    9.52
   0   4   6  285.89    9.08
   0  -4  -7   17.37    5.14
   0   4   7   23.11    6.26
   0  -4  -8   71.61    5.62
   0   4   8   87.21    7.09
   0  -4  -9 2044.01   39.62
   0   4   9 2080.75   42.05
   0  -4 -10   11.91    6.00
   0   4  10   13.91    8.00
   0  -4 -11   31.79    7.11
   0   4  11   34.32    9.59
   0  -4 -12  343.39   11.77
   0   4  12  417.24   15.11
   0  -4 -13    7.00    8.97
   0   4  13   -3.71    8.91
   0  -4 -14   -1.67   14.49
   0   4  14    4.10   14.30
   0  -5   0 1052.43   29.15
   0  -5   0 1051.63   28.78
   0   5   1  271.84   10.65
   0  -5  -1  279.97   10.90
   0  -5  -1  287.42   10.76
   0   5   2  839.26   23.43
   0  -5  -2  958.94   27.02
   0   5   3   32.16    5.83
   0  -5  -3   29.69    6.02
   0  -5  -4 1076.81   28.15
   0   5   4 1158.04   30.10
   0  -5  -5  173.03    9.04
   0   5   5  157.24    6.93
   0  -5  -6  119.78    8.39
   0   5   6  102.46    5.62
   0  -5  -7  280.45    9.06
   0   5   7  288.43   10.36
   0  -5  -8    5.96    6.33
   0   5   8    8.21    7.36
   0  -5  -9   26.73    8.73
   0   5   9    4.56    5.47
   0  -5 -10   13.12    7.18
   0   5  10    0.93    9.34
   0  -5 -11   13.61   10.36
   0   5  11   10.93    6.71
   0  -5 -12  200.39   13.19
   0   5  12  205.39   12.64
   0  -5 -13    8.79   13.38
   0   5  13   12.02   12.99
   0  -6   0  181.60    9.66
   0  -6   0  186.44    9.95
   0   6   1   97.59    8.04
   0  -6  -1   97.10    8.03
   0  -6  -1   98.97    8.31
   0   6   2    4.03    7.04
   0  -6  -2    3.52    7.18
   0   6   3   12.96    7.01
   0  -6  -3    7.55    5.16
   0   6   4   15.45    7.12
   0  -6  -4    9.19    7.34
   0   6   5  977.62   27.28
   0  -6  -5  972.47   26.64
   0   6   6   41.49    8.15
   0  -6  -6   46.85    9.33
   0  -6  -7  391.04   14.27
   0   6   7  352.46   13.13
   0  -6  -8  330.43   12.93
   0   6   8  284.03   11.63
   0  -6  -9   46.59    7.92
   0   6   9   50.49    8.94
   0  -6 -10   88.18    8.40
   0   6  10   89.57    7.23
   0  -6 -11   93.29   13.12
   0   6  11  105.47   11.38
   0  -6 -12   63.29   14.65
   0   6  12   56.44    9.51
   0  -6 -13   15.73   16.37
   0   6  13   12.48   15.03
   0  -7   0  750.27   27.91
   0  -7   0  910.93   34.65
   0  -7  -1   12.00    7.64
   0  -7  -1    2.50    8.64
   0  -7  -2    7.31    8.68
   0   7   2    8.05    8.21
   0  -7  -2    9.33    7.64
   0   7   3 1766.72   52.95
   0  -7  -3 1722.08   53.01
   0   7   4  573.59   18.44
   0  -7  -4  623.20   21.24
   0   7   5   46.56    8.80
   0  -7  -5   48.36    6.72
   0  -7  -6  230.68   13.22
   0   7   6  225.65   12.35
   0  -7  -7  715.34   20.72
   0   7   7  735.65   24.05
   0   7   8  292.84   13.17
   0  -7  -8  307.81   14.77
   0  -7  -9    2.84    9.35
   0   7   9    3.41    9.99
   0  -7 -10   90.64   13.93
   0   7  10   94.94   10.88
   0  -7 -11   49.51   15.45
   0   7  11   39.75    8.73
   0  -7 -12   57.06   12.66
   0   7  12   85.14   14.73
   0  -8   0    9.62   13.87
   0  -8   0    3.95   11.50
   0  -8  -1  129.71   13.62
   0  -8  -1  123.71   12.52
   0   8   2  803.14   36.44
   0  -8  -2  800.12   35.57
   0  -8  -2  753.31   33.96
   0  -8  -3  191.13   14.98
   0  -8  -3  175.22   12.56
   0   8   3  180.44   13.20
   0  -8  -4  261.85   16.28
   0   8   4  238.86   15.01
   0  -8  -5   46.45   12.84
   0   8   5   37.28   11.85
   0   8   6   10.19   11.34
   0  -8  -6    2.30    9.13
   0  -8  -7  331.16   17.14
   0   8   7  288.23   13.13
   0  -8  -8   18.54   15.60
   0   8   8   26.31    8.81
   0  -8  -9   -0.47   11.17
   0   8   9    0.86   11.83
   0   8  10   36.46   13.52
   0  -8 -10   31.69   13.03
   0  -9   0  134.87   17.81
   0  -9   0  111.77   18.02
   0  -9  -1   15.68   18.77
   0  -9  -1    8.51   15.60
   0  -9  -2   37.49   13.99
   0  -9  -2   42.22   12.61
   0  -9  -3  210.23   18.02
   0  -9  -3  224.41   19.24
   0   9   3  225.39   17.91
   0  -9  -4    0.28   11.75
   0  -9  -4   -2.22   14.32
   0   9   4    6.49   12.06
   0  -9  -5  154.90   16.54
   0   9   5  155.02   14.94
   0   9   6   41.71   14.62
   0  -9  -6   31.47   17.10
   0  -9  -7  116.08   18.30
   0   9   7  138.67   16.10
   0  -9  -8   26.63   18.15
   0   9   8   23.60   14.56
   1  -8   1   15.28   17.37
   1  -8   1    7.75   18.94
   1  -8   2  109.38   20.52
   1  -8   2  102.85   22.35
   1  -8   3    4.57   21.10
   1  -8   3    1.84   19.85
   1  -7   1  167.14   17.09
   1  -7   1  182.67   16.40
   1  -7   2  124.83   17.23
   1  -7   2  114.08   13.26
   1  -7   3   12.70   14.83
   1  -7   3    9.24   16.47
   1  -7   4  207.25   22.36
   1  -7   4  155.27   21.49
   1  -7   5  122.43   19.93
   1  -7   5   72.46   21.44
   1  -7   6  259.84   39.17
   1  -7   6  326.25   41.45
   1  -6   1   64.26   11.98
   1  -6   1   61.23   11.14
   1  -6   2  574.52   27.60
   1  -6   2  560.92   25.91
   1  -6   3  356.48   20.18
   1  -6   3  344.60   19.21
   1  -6   4   15.23   12.53
   1  -6   4   18.48   11.97
   1  -6   5   11.72   12.96
   1  -6   5    6.63   12.86
   1  -6   6  306.22   25.03
   1  -6   6  231.13   23.59
   1  -6   7   10.91   20.65
   1  -6   7   20.56   14.09
   1  -6   8   65.30   17.19
   1  -6   8   45.96   18.78
  -1   6  -8   61.22   17.21
   1  -5   1   -1.08    6.56
   1  -5   1    2.48    7.55
   1  -5   2  107.95   10.50
   1  -5   2  103.07   10.26
   1  -5   3  428.02   18.98
   1  -5   3  526.36   21.61
   1  -5   4  540.69   22.54
   1  -5   4  478.20   22.43
  -1   5  -5  177.92   14.62
   1  -5   5  113.17   12.59
   1  -5   5  200.17   14.42
  -1   5  -6  117.75   14.71
   1  -5   6   82.68   14.44
   1  -5   6  122.90   12.29
   1  -5   7   17.70   13.75
   1  -5   7   17.83   10.45
  -1   5  -7   25.37   12.81
  -1   5  -8  107.15   14.14
   1  -5   8  107.35   16.71
  -1   5  -9  342.20   25.48
   1  -5   9  353.11   26.34
   1  -4   1    6.20    6.15
   1  -4   1    7.52    7.46
   1  -4   2 1465.77   48.32
   1  -4   2 1451.84   42.73
   1  -4   3    1.83    7.29
   1  -4   3    1.16    7.25
  -1   4  -4    6.91    7.22
   1  -4   4    8.07   10.35
   1  -4   4   11.32    7.03
  -1   4  -5 1545.56   48.87
   1  -4   5 1321.87   39.97
  -1   4  -6    1.88    7.96
   1  -4   6    2.56   11.10
  -1   4  -7  120.78   10.49
   1  -4   7  126.80   13.01
  -1   4  -8   21.06   10.42
   1  -4   8   22.58   13.69
  -1   4  -9  481.16   25.33
   1  -4   9  572.24   27.14
  -1   4 -10   78.25   15.73
   1  -4  10   94.43   17.86
  -1   4 -11   24.79   17.57
   1  -4  11   37.37   18.70
   1  -3   1 1678.48   45.24
   1  -3   1 1796.25   54.56
   1  -3   2   12.78    7.00
   1  -3   2    8.17    6.02
   1  -3   3  273.56   11.14
   1  -3   3  232.09   12.46
  -1   3  -3  262.21   11.29
  -1   3  -4 3565.15   97.65
   1  -3   4 2452.04   63.54
  -1   3  -5  275.32   12.74
   1  -3   5  215.28   11.91
   1  -3   6  421.30   17.71
  -1   3  -6  376.27   14.64
   1  -3   7   -2.63    9.27
  -1   3  -7   -7.55    6.90
   1  -3   8   10.03    7.90
  -1   3  -8    6.52    8.72
  -1   3  -9  124.48   12.02
   1  -3   9  108.60   10.48
   1  -3  10  440.23   21.50
  -1   3 -10  337.13   18.43
   1  -3  11  523.95   25.66
  -1   3 -11  472.09   24.06
   1  -3  12   71.32   18.81
  -1   3 -12   41.07   12.18
   1  -2   1 1877.72   62.42
   1  -2   1 2005.16   65.51
  -1   2  -2    4.53    4.45
   1  -2   2    4.00    6.19
  -1   2  -3  330.92   13.43
   1  -2   3  283.55   14.11
   1  -2   4  317.67   13.84
  -1   2  -4  437.51   16.60
   1  -2   5  899.36   26.07
  -1   2  -5  909.94   27.83
  -1   2  -6  141.69    7.94
   1  -2   6  158.28    9.80
   1  -2   7  512.65   16.04
  -1   2  -7  637.10   19.92
   1  -2   8    5.76    8.74
  -1   2  -8    3.12    6.84
   1  -2   9  307.65   14.34
  -1   2  -9  250.04   11.90
   1  -2  10   25.71   12.38
  -1   2 -10   24.23    7.11
   1  -2  11  271.75   16.88
  -1   2 -11  242.71   14.67
   1  -2  12  132.08   16.56
  -1   2 -12   92.34   14.06
   1  -2  13   39.88   18.08
  -1   2 -13   36.16   15.00
   1  -1   2 2413.77   72.99
  -1   1  -2 2480.90   71.57
   1  -1   3   22.46    6.24
  -1   1  -3   22.76    6.93
   1  -1   4  265.31   11.55
  -1   1  -4  250.19   10.75
   1  -1   5  276.89   11.48
  -1   1  -5  347.85   12.85
   1  -1   6   57.16    7.41
  -1   1  -6   46.97    4.96
  -1   1  -7   94.51    7.03
   1  -1   7   98.98    8.01
   1  -1   8  109.52    9.48
  -1   1  -8  118.95    8.47
   1  -1   9  161.43   10.10
  -1   1  -9  142.93    8.59
  -1   1 -10   20.23    8.16
   1  -1  10   38.65    9.90
   1  -1  11   50.50   11.63
  -1   1 -11   48.18    9.58
   1  -1  12  356.22   17.21
  -1   1 -12  242.23   11.55
   1  -1  13  276.07   17.59
  -1   1 -13  265.60   15.61
   1   0   0  437.74   18.23
  -1   0   0  573.48   22.22
   1   0   1  284.83   14.06
  -1   0  -1  308.14   14.85
   1   0   2  945.95   31.46
  -1   0  -2  755.24   26.30
  -1   0  -3 1408.39   42.09
   1   0   3 2084.80   61.12
   1   0   4   53.31    5.81
  -1   0  -4   34.30    4.16
   1   0   5  124.36    6.26
  -1   0  -5  164.58    7.65
   1   0   6  296.27   10.95
  -1   0  -6  246.05    8.68
  -1   0  -7 1305.25   31.31
   1   0   7 1117.76   27.65
   1   0   8   87.38    8.60
  -1   0  -8   87.15    7.85
   1   0   9   30.74    8.01
  -1   0  -9   35.89    7.10
   1   0  10  377.18   14.12
  -1   0 -10  378.59   13.48
   1   0  11  203.10    9.13
  -1   0 -11  212.95    9.58
   1   0  12   10.93   10.63
  -1   0 -12    6.29    9.13
  -1   0 -13   19.66    8.40
   1   0  13   18.59   13.41
  -1   0 -14  513.83   21.74
   1   0  14  361.62   15.89
   1   1   0   10.09    2.24
  -1  -1   0   11.17    2.28
  -1  -1   0   11.47    2.31
   1   1   1 1001.54   31.60
  -1  -1  -1 1018.03   31.77
   1   1   2 1397.89   43.54
  -1  -1  -2 1893.49   58.03
   1   1   3  631.46   20.35
  -1  -1  -3  909.81   28.14
  -1  -1  -4   10.03    3.02
   1   1   4   15.18    4.25
  -1  -1  -5  998.39   26.45
   1   1   5 1009.39   26.64
  -1  -1  -6 1464.09   33.81
   1   1   6  954.78   23.06
   1   1   7  999.33   23.22
  -1  -1  -7  957.87   21.90
   1   1   8  584.98   14.40
  -1  -1  -8  765.70   17.75
   1   1   9 1085.35   25.15
  -1  -1  -9 1235.58   26.86
   1   1  10   43.03    8.21
  -1  -1 -10   31.97    7.80
   1   1  11   43.38    8.90
  -1  -1 -11   38.78    5.93
  -1  -1 -12    1.71    6.74
   1   1  12   -5.27   10.27
  -1  -1 -13  318.31   14.47
   1   1  13  324.33   15.29
  -1  -1 -14   14.96   12.09
   1   1  14   10.21    9.34
  -1  -2   0 1275.36   36.00
  -1  -2   0 1380.59   39.22
   1   2   0 1520.46   42.65
   1   2   0 1369.74   38.83
  -1  -2  -1   11.97    4.65
   1   2   1   11.65    4.82
  -1  -2  -2 3802.49  106.50
   1   2   2 3497.00   97.71
   1   2   3  527.19   16.71
  -1  -2  -3  715.66   22.03
   1   2   4  293.34   10.28
  -1  -2  -4  243.65    8.57
  -1  -2  -5   53.69    4.57
   1   2   5   51.90    4.54
  -1  -2  -6   40.02    5.37
   1   2   6   24.91    3.93
   1   2   7  372.37   10.90
  -1  -2  -7  382.99   10.93
  -1  -2  -8   53.29    5.84
   1   2   8   42.31    4.48
  -1  -2  -9   94.65    7.54
   1   2   9  102.30    7.76
  -1  -2 -10  673.57   15.71
   1   2  10  512.80   12.59
  -1  -2 -11  126.44    6.87
   1   2  11  161.85    9.72
  -1  -2 -12  265.97    9.85
   1   2  12  235.03    9.63
  -1  -2 -13   63.40   11.48
   1   2  13   42.62    8.49
  -1  -2 -14   22.11   12.69
   1   2  14   17.11    9.25
  -1  -3   0  581.32   15.71
  -1  -3   0  583.82   16.32
   1   3   0  558.20   15.49
  -1  -3  -1   60.23    4.33
   1   3   1   64.64    5.52
  -1  -3  -1   74.38    5.32
  -1  -3  -2  176.24    6.82
   1   3   2  163.90    6.58
   1   3   3 1127.40   29.64
  -1  -3  -3 1191.30   31.34
   1   3   4   11.22    2.94
  -1  -3  -4   13.45    2.98
   1   3   5 2167.65   54.28
  -1  -3  -5 2300.03   57.16
  -1  -3  -6   -1.87    4.88
   1   3   6    0.20    4.74
  -1  -3  -7  474.63   12.92
   1   3   7  474.67   12.80
  -1  -3  -8  363.33   10.71
   1   3   8  340.74    9.93
  -1  -3  -9  324.33    9.18
   1   3   9  283.35    8.54
  -1  -3 -10   11.26    5.76
   1   3  10   11.60    5.87
  -1  -3 -11  299.33    9.21
   1   3  11  277.68    9.09
  -1  -3 -12   92.42   10.17
   1   3  12   69.04    7.28
  -1  -3 -13   14.40   11.45
   1   3  13   13.05   11.62
  -1  -3 -14   35.66    9.39
   1   3  14   24.59    9.55
  -1  -4   0 1902.05   40.41
  -1  -4   0 2233.03   52.57
  -1  -4  -1  467.74   13.43
   1   4   1  446.27   13.29
  -1  -4  -1  427.77   12.01
   1   4   2  456.37   13.58
  -1  -4  -2  472.66   13.52
  -1  -4  -3  175.08    7.61
   1   4   3  155.36    6.25
   1   4   4 2756.03   61.21
  -1  -4  -4 2784.08   62.73
   1   4   5   79.88    5.66
  -1  -4  -5   74.59    5.85
  -1  -4  -6  220.20    7.90
   1   4   6  205.89    7.48
  -1  -4  -7 1059.88   24.03
   1   4   7 1267.96   29.53
  -1  -4  -8    7.85    6.43
   1   4   8   -0.61    6.11
   1   4   9  204.49    8.56
  -1  -4  -9  170.60    6.85
  -1  -4 -10  177.96    7.65
   1   4  10  230.72   10.09
  -1  -4 -11   60.14    6.37
   1   4  11   70.68    8.67
  -1  -4 -12  282.14   12.22
   1   4  12  272.19   12.13
  -1  -4 -13   71.28    8.53
   1   4  13   98.50   12.10
  -1  -4 -14    6.25    9.24
   1   4  14    3.04   13.10
  -1  -5   0  287.61    9.72
  -1  -5   0  285.32    9.94
  -1  -5  -1 2319.75   52.82
  -1  -5  -1 2526.93   58.14
   1   5   1 2141.95   49.67
  -1  -5  -2   78.21    6.23
   1   5   2   74.66    6.35
   1   5   3   95.12    5.24
  -1  -5  -3  101.27    6.61
  -1  -5  -4  585.30   15.73
   1   5   4  490.80   13.02
   1   5   5 1712.02   38.63
  -1  -5  -5 1745.10   39.28
   1   5   6  474.84   13.18
  -1  -5  -6  426.91   11.32
  -1  -5  -7  947.70   21.82
   1   5   7  879.71   21.32
  -1  -5  -8  789.74   18.59
   1   5   8  718.76   18.10
  -1  -5  -9    3.09    5.78
   1   5   9    3.02    5.14
  -1  -5 -10    7.03    5.85
   1   5  10    7.17    5.30
  -1  -5 -11  110.25    7.84
   1   5  11   99.16    7.39
  -1  -5 -12  207.98   12.96
   1   5  12  147.51    9.15
  -1  -5 -13   31.81    9.53
   1   5  13   29.43   13.18
  -1  -5 -14   42.02   15.38
   1   5  14   27.38   15.28
  -1  -6   0 1452.71   39.39
  -1  -6   0 1646.97   41.68
  -1  -6  -1   50.56    7.19
  -1  -6  -1   38.87    6.98
   1   6   1   42.67    7.26
   1   6   2   78.07    7.70
  -1  -6  -2   75.97    5.65
  -1  -6  -2   83.27    7.71
   1   6   3  708.05   19.97
  -1  -6  -3  719.87   20.24
   1   6   4   40.49    5.35
  -1  -6  -4   44.49    7.21
   1   6   5  224.48    9.58
  -1  -6  -5  221.03    9.55
   1   6   6  129.89    6.33
  -1  -6  -6  153.08    8.29
  -1  -6  -7  171.75    9.66
   1   6   7  168.68    9.01
  -1  -6  -8   -0.03    5.71
   1   6   8    1.83    6.96
  -1  -6  -9  269.36    9.35
   1   6   9  241.54    8.67
  -1  -6 -10   34.13    7.38
   1   6  10   29.11    6.19
  -1  -6 -11   27.70    8.51
   1   6  11   22.76   10.42
  -1  -6 -12   -3.72   12.10
   1   6  12    5.39    7.65
  -1  -6 -13   -8.06    9.88
   1   6  13  -15.95   12.99
  -1  -7   0  166.65   10.23
  -1  -7   0  213.58   11.47
  -1  -7  -1  177.73   10.30
  -1  -7  -1  210.77   11.05
   1   7   2  323.86   11.85
  -1  -7  -2  368.41   13.80
  -1  -7  -2  354.44   12.19
  -1  -7  -3  199.21   10.43
   1   7   3  182.02    8.47
  -1  -7  -3  194.67   10.63
   1   7   4    9.44    8.45
  -1  -7  -4    6.52    8.33
   1   7   5   54.81    8.71
  -1  -7  -5   42.31    8.48
   1   7   6   52.88    6.28
  -1  -7  -6   67.59    8.62
  -1  -7  -7   33.94    7.11
   1   7   7   33.23    8.66
   1   7   8   33.31    8.80
  -1  -7  -8   35.46   10.27
   1   7   9   13.25    8.42
  -1  -7  -9   16.36   10.38
  -1  -7 -10  104.23    9.41
   1   7  10   88.61    7.64
  -1  -7 -11   69.86   13.63
   1   7  11   60.46    8.26
  -1  -7 -12   32.18   10.42
   1   7  12   37.25   12.13
  -1  -8   0   23.57   10.84
  -1  -8   0   22.23    8.30
  -1  -8  -1   11.73    8.96
  -1  -8  -1   13.00    6.99
   1   8   2  592.29   23.64
  -1  -8  -2  598.98   23.26
  -1  -8  -2  594.91   20.97
  -1  -8  -3  177.26   11.26
   1   8   3  188.34   11.99
  -1  -8  -3  174.12    9.57
   1   8   4  337.83   14.88
  -1  -8  -4  339.95   14.94
  -1  -8  -4  302.59   11.80
   1   8   5  326.63   14.59
  -1  -8  -5  321.66   14.37
   1   8   6  210.43   12.47
  -1  -8  -6  212.49   12.21
  -1  -8  -7   83.83   12.02
   1   8   7   74.85    8.52
  -1  -8  -8    3.97   11.71
   1   8   8    4.08    7.57
  -1  -8  -9  662.74   23.13
   1   8   9  585.89   21.45
  -1  -8 -10  192.38   11.85
   1   8  10  168.19   10.12
  -1  -8 -11   84.27   17.13
   1   8  11   55.60   13.27
  -1  -9   0   39.65   14.18
  -1  -9   0   51.01   14.96
  -1  -9  -1  242.37   16.89
  -1  -9  -1  269.76   18.38
  -1  -9  -2   45.53   12.04
  -1  -9  -2   45.41   12.94
  -1  -9  -3   30.71   11.48
   1   9   3   29.77   11.90
  -1  -9  -3   27.09   12.66
   1   9   4  160.14   11.15
  -1  -9  -4  171.06   14.60
  -1  -9  -4  175.27   13.94
   1   9   5  112.95   10.24
  -1  -9  -5  122.18   13.18
  -1  -9  -5  133.96   13.82
  -1  -9  -6   16.94   12.98
   1   9   6   18.83   12.90
  -1  -9  -7   10.05   13.37
   1   9   7   21.55   13.00
  -1  -9  -8   43.73   15.78
   1   9   8   56.87   14.71
  -1  -9  -9    8.17   11.44
   1   9   9   11.02   14.02
   2  -6   7  210.58   39.56
   2  -6   7  169.22   43.58
   2  -5   5  499.62   37.68
   2  -5   5  353.42   34.51
   2  -5   6    1.98   17.87
   2  -5   6   -0.62   13.65
   2  -5   7  180.62   20.33
   2  -5   7   93.13   18.79
  -2   5  -8    9.71   16.74
   2  -5   8    5.06   18.15
   2  -5   8    7.99   16.62
  -2   5  -9  182.83   26.17
   2  -5   9  103.72   21.67
   2  -5   9  202.88   26.31
   2  -4   5  119.34   16.50
   2  -4   5  188.50   16.48
   2  -4   6  115.02   14.65
   2  -4   6  206.85   15.08
  -2   4  -6  187.70   15.19
   2  -4   7   -0.24   11.90
  -2   4  -7    7.05   12.43
   2  -4   8   40.63   12.62
  -2   4  -8   68.87   13.86
  -2   4  -9    1.81   12.47
   2  -4   9    0.45   17.07
  -2   4 -10   54.84   18.83
   2  -4  10   32.93   16.08
  -2   3  -4   61.51   11.78
   2  -3   4   43.73   11.00
   2  -3   4   62.26   10.60
  -2   3  -5  755.73   28.53
   2  -3   5  549.81   24.97
  -2   3  -6  129.42   11.14
   2  -3   6   96.96   11.89
   2  -3   7  222.35   14.53
  -2   3  -7  298.74   15.95
   2  -3   8   15.75   10.35
  -2   3  -8   23.02   11.08
   2  -3   9  121.82   14.10
  -2   3  -9  148.16   15.74
  -2   3 -10   79.20   14.08
   2  -3  10   84.37   15.69
  -2   3 -11  286.10   21.63
   2  -3  11  237.12   21.17
   2  -3  12   63.83   19.02
  -2   3 -12   59.77   18.51
   2  -2   4  270.69   14.33
  -2   2  -4  318.79   16.29
  -2   2  -5  174.36   10.06
   2  -2   5  205.30   12.04
  -2   2  -6   20.81    7.49
   2  -2   6   28.29   10.22
   2  -2   7 1339.23   41.86
  -2   2  -7 1346.53   40.87
   2  -2   8   95.24   11.22
  -2   2  -8   99.05   10.01
  -2   2  -9   16.42    8.84
   2  -2   9    9.78   10.52
  -2   2 -10   54.91   11.01
   2  -2  10   41.43   13.10
  -2   2 -11   92.96   13.22
   2  -2  11   79.32   15.74
  -2   2 -12  678.79   33.71
   2  -2  12  447.29   21.97
  -2   2 -13   29.93   16.35
   2  -2  13   45.41   19.83
  -2   1  -1  220.07   11.91
   2  -1   1  207.35   11.24
  -2   1  -1  177.50   11.13
  -2   1  -2  590.35   22.86
  -2   1  -2  738.21   28.37
   2  -1   3  496.33   19.47
  -2   1  -3  388.55   17.20
  -2   1  -4    8.39    5.99
   2  -1   4    9.88    4.77
  -2   1  -5  330.93   13.37
   2  -1   5  411.53   15.44
  -2   1  -6  225.98   10.47
   2  -1   6  235.20   10.65
  -2   1  -7  937.88   27.11
   2  -1   7 1078.37   31.36
  -2   1  -8   55.59    8.12
   2  -1   8   63.22    8.58
  -2   1  -9    0.57    8.67
   2  -1   9   -2.72    9.99
  -2   1 -10  526.32   19.30
   2  -1  10  303.12   12.43
  -2   1 -11   41.47    9.99
   2  -1  11   45.78   12.69
  -2   1 -12    6.52    7.89
   2  -1  12    1.02   14.93
  -2   1 -13   18.59   12.69
   2  -1  13   18.59   17.12
   2   0   0 2377.09   71.54
  -2   0   0 2410.09   70.38
  -2   0  -1  119.07    6.75
  -2   0  -1  105.15    6.11
   2   0   1  149.70    7.76
  -2   0  -2  656.92   21.18
  -2   0  -2  666.25   20.85
   2   0   2  637.17   20.16
  -2   0  -3 1012.66   29.77
   2   0   3 1062.82   30.88
  -2   0  -4   73.48    5.58
   2   0   4   91.44    6.30
  -2   0  -5  439.47   14.91
   2   0   5  482.06   15.99
  -2   0  -6   73.52    5.37
   2   0   6  120.99    7.59
  -2   0  -7  357.48   12.33
   2   0   7  467.99   15.18
  -2   0  -8   50.07    7.65
   2   0   8   53.30    8.29
  -2   0  -9 1069.97   28.58
   2   0   9 1094.82   29.64
  -2   0 -10  131.33    7.70
   2   0  10  163.94   11.44
  -2   0 -11   58.59   10.24
   2   0  11   53.61   12.08
  -2   0 -12   69.50   11.16
   2   0  12   72.42   12.62
  -2   0 -13   11.15   12.58
   2   0  13    3.37   15.55
  -2   0 -14   26.84   10.20
   2   0  14   57.54   19.04
   2   1   0  705.06   23.28
  -2  -1   0  918.88   30.12
  -2  -1  -1  158.51    6.74
   2   1   1  248.96    9.62
  -2  -1  -1  183.08    7.57
   2   1   1  178.66    7.35
  -2  -1  -2 4383.19  111.70
   2   1   2 4214.65  108.14
  -2  -1  -3 1603.98   43.96
   2   1   3 1104.38   30.05
   2   1   4  296.32   10.48
  -2  -1  -4  300.76   10.35
   2   1   5   66.80    4.27
  -2  -1  -5   60.01    4.03
  -2  -1  -6  500.43   14.78
   2   1   6  502.23   15.03
  -2  -1  -7  598.27   16.61
   2   1   7  387.75   11.65
  -2  -1  -8  101.22    6.87
   2   1   8  107.43    7.26
  -2  -1  -9   11.03    5.18
   2   1   9   14.61    7.77
  -2  -1 -10  702.05   19.69
   2   1  10  807.52   22.63
  -2  -1 -11   47.81    8.80
   2   1  11   46.68    9.87
  -2  -1 -12  120.88    8.47
   2   1  12  103.88    9.03
  -2  -1 -13   33.51   11.89
   2   1  13   16.35   13.99
  -2  -1 -14  434.51   18.77
   2   1  14  438.99   20.55
  -2  -2   0   62.95    4.67
   2   2   0   61.73    4.52
  -2  -2   0   58.15    4.55
  -2  -2  -1  969.95   26.32
  -2  -2  -1 1402.36   37.50
   2   2   1 1020.55   28.04
  -2  -2  -2 6000.86  151.64
   2   2   2 7227.12  183.38
  -2  -2  -3  523.99   15.44
   2   2   3  488.58   14.58
   2   2   4  701.62   19.79
  -2  -2  -4  758.45   21.47
   2   2   5 4538.85  111.95
  -2  -2  -5 4751.07  116.03
   2   2   6   24.04    5.12
  -2  -2  -6   18.73    3.61
  -2  -2  -7   26.93    5.24
   2   2   7   23.26    5.35
  -2  -2  -8  271.49    8.94
   2   2   8  269.67    9.21
   2   2   9 1237.79   28.34
  -2  -2  -9 1249.24   27.44
  -2  -2 -10   67.03    7.72
   2   2  10   81.06    8.00
  -2  -2 -11   27.06    8.83
   2   2  11   20.90    6.55
  -2  -2 -12  242.02   12.32
   2   2  12  156.54    9.41
  -2  -2 -13    1.36    8.64
   2   2  13    9.92   13.04
  -2  -2 -14   18.69   13.91
   2   2  14   32.23   15.12
  -2  -2 -15   -7.73   11.17
   2   2  15   10.86   17.35
  -2  -3   0 2105.77   51.91
   2   3   0 1991.92   49.93
  -2  -3   0 2103.92   53.05
   2   3   1  207.51    7.66
  -2  -3  -1  206.78    7.56
  -2  -3  -1  213.88    7.65
  -2  -3  -2  139.82    5.66
  -2  -3  -2  165.03    6.23
   2   3   2  155.31    6.04
  -2  -3  -3    2.50    2.84
   2   3   3    1.88    2.82
  -2  -3  -4 1261.10   32.79
   2   3   4  876.30   23.24
   2   3   5   53.46    5.35
  -2  -3  -5   42.67    4.00
   2   3   6    0.92    4.81
  -2  -3  -6    2.31    4.73
  -2  -3  -7  486.26   13.22
   2   3   7  350.77    9.98
  -2  -3  -8  384.85   11.06
   2   3   8  349.81   10.29
  -2  -3  -9  102.48    5.79
   2   3   9  135.04    7.98
  -2  -3 -10   33.24    6.10
   2   3  10   32.67    5.07
  -2  -3 -11   -5.46    8.44
   2   3  11    0.00    6.18
  -2  -3 -12  124.26   11.01
   2   3  12  111.67   11.27
  -2  -3 -13    4.88    8.50
   2   3  13    3.71   12.46
  -2  -3 -14   86.98   14.24
   2   3  14   65.42   14.85
  -2  -3 -15   17.60   16.30
   2   3  15   25.80   12.02
  -2  -4   0  527.69   13.36
  -2  -4   0  510.85   13.44
  -2  -4  -1 1061.74   24.66
   2   4   1 1242.02   27.73
  -2  -4  -1  949.50   21.42
  -2  -4  -2   30.18    3.94
   2   4   2   29.50    3.97
  -2  -4  -2   25.42    3.80
  -2  -4  -3  425.89   12.05
   2   4   3  423.03   12.05
  -2  -4  -4   32.36    5.25
   2   4   4   26.58    5.24
  -2  -4  -5 1014.92   25.16
   2   4   5  779.98   19.32
   2   4   6   10.35    4.74
  -2  -4  -6    6.52    3.44
   2   4   7  771.25   20.05
  -2  -4  -7  832.01   21.41
  -2  -4  -8   53.62    6.36
   2   4   8   38.37    4.58
  -2  -4  -9  167.91    6.62
   2   4   9  206.24    8.53
   2   4  10  143.60    9.03
  -2  -4 -10  146.33    9.06
  -2  -4 -11    9.63    5.78
   2   4  11    7.51    5.84
  -2  -4 -12  209.35   11.52
   2   4  12  215.44   11.63
  -2  -4 -13    5.49    8.45
   2   4  13    6.04    8.55
  -2  -4 -14   98.37   10.18
   2   4  14   84.97   10.37
   2   4  15   15.27   11.52
  -2  -5   0 2544.79   56.58
  -2  -5   0 3003.43   61.54
  -2  -5  -1  545.94   13.71
   2   5   1  523.09   13.52
  -2  -5  -1  519.19   13.52
  -2  -5  -2   96.51    6.23
   2   5   2   87.16    6.33
  -2  -5  -2   86.56    4.69
  -2  -5  -3 3165.45   65.30
   2   5   3 3275.31   70.03
   2   5   4   34.52    5.74
  -2  -5  -4   19.87    5.31
  -2  -5  -5   13.97    5.15
   2   5   5   14.13    5.06
  -2  -5  -6  213.99    7.29
   2   5   6  204.44    7.02
   2   5   7  720.58   18.13
  -2  -5  -7  580.38   14.77
  -2  -5  -8  359.82   10.27
   2   5   8  429.47   12.50
  -2  -5  -9   39.59    5.50
   2   5   9   47.42    7.29
  -2  -5 -10  365.90   12.33
   2   5  10  337.77   11.63
  -2  -5 -11  112.40    7.63
   2   5  11  123.41    9.87
  -2  -5 -12  198.86    8.91
   2   5  12  246.54   11.71
  -2  -5 -13  138.46    9.19
   2   5  13  118.57    8.99
  -2  -5 -14   43.54   14.62
   2   5  14   30.94   13.93
  -2  -6   0   84.71    7.22
  -2  -6   0   82.40    7.13
  -2  -6  -1   11.84    6.65
  -2  -6  -1   14.96    4.65
  -2  -6  -2 1897.01   41.45
  -2  -6  -2 1876.01   43.05
   2   6   2 1879.24   43.17
  -2  -6  -3 1140.86   27.60
  -2  -6  -3 1114.72   25.60
   2   6   3 1100.35   26.87
   2   6   4   18.12    6.84
  -2  -6  -4   13.11    6.72
   2   6   5   60.19    6.96
  -2  -6  -5   52.34    6.86
   2   6   6    5.20    4.46
  -2  -6  -6   -0.27    6.35
  -2  -6  -7  301.62    8.98
   2   6   7  305.83    9.01
   2   6   8  139.66    8.01
  -2  -6  -8  132.01    8.44
  -2  -6  -9   73.60    7.95
   2   6   9   61.29    5.28
   2   6  10  397.77   13.49
  -2  -6 -10  447.49   14.72
  -2  -6 -11  328.68   10.83
   2   6  11  358.34   12.95
   2   6  12   20.13    7.35
  -2  -6 -12   11.72    7.90
  -2  -6 -13    8.53   13.12
   2   6  13    9.81    8.97
  -2  -6 -14  441.26   19.10
   2   6  14  468.30   18.81
  -2  -7   0  128.78    9.13
  -2  -7   0  129.34    9.55
  -2  -7  -1   15.92    8.13
  -2  -7  -1    9.16    5.52
   2   7   2   78.13    8.51
  -2  -7  -2   78.58    8.24
  -2  -7  -2   79.73    8.65
  -2  -7  -3  751.41   20.88
  -2  -7  -3  765.62   19.79
   2   7   3  747.98   21.09
  -2  -7  -4  137.20    9.21
  -2  -7  -4  134.93    9.25
   2   7   4  106.76    6.96
   2   7   5  195.20    8.29
  -2  -7  -5  208.88    8.31
   2   7   6   88.44    8.68
  -2  -7  -6   88.35    8.49
   2   7   7  683.50   18.74
  -2  -7  -7  839.07   22.68
   2   7   8   17.04    6.18
  -2  -7  -8   15.82    6.51
  -2  -7  -9  130.14   10.07
   2   7   9  117.05    9.10
   2   7  10   97.91    7.47
  -2  -7 -10  155.75   11.69
   2   7  11   12.62    9.36
  -2  -7 -11    0.75   10.91
  -2  -7 -12   48.85   12.96
   2   7  12   32.34    8.10
  -2  -7 -13   -3.92   15.28
   2   7  13    8.91   13.67
  -2  -8   0   95.54   11.55
  -2  -8   0  108.66    9.54
  -2  -8  -1   26.78    9.83
  -2  -8  -1   17.25    8.99
  -2  -8  -2  229.86   12.58
  -2  -8  -2  216.14   11.47
  -2  -8  -3    9.70    9.67
   2   8   3    2.33    9.32
  -2  -8  -3    0.22    6.38
   2   8   4   51.89    7.19
  -2  -8  -4   62.79    9.66
  -2  -8  -4   72.90   10.04
  -2  -8  -5  151.34    8.34
  -2  -8  -5  176.15    8.87
   2   8   5  177.36   11.61
   2   8   6    3.35    9.75
  -2  -8  -6   -4.62    9.33
   2   8   7   24.10    9.70
  -2  -8  -7   28.22    6.58
   2   8   8    4.84   10.52
  -2  -8  -8    1.18   10.63
  -2  -8  -9   14.61   10.74
   2   8   9    8.46    7.06
  -2  -8 -10  309.66   15.59
   2   8  10  284.92   14.22
  -2  -8 -11   14.43   13.83
   2   8  11   10.48    7.68
   2   8  12   35.12    9.17
  -2  -8 -12   42.62   10.99
  -2  -9   0   75.18   12.64
  -2  -9   0   66.98   10.20
  -2  -9  -1  233.80   15.56
  -2  -9  -1  271.06   13.96
  -2  -9  -2    3.63   11.34
  -2  -9  -2   -9.36    9.26
  -2  -9  -3   13.11   11.26
  -2  -9  -3   14.76   12.87
   2   9   4   47.09   11.80
  -2  -9  -4   35.76   11.14
  -2  -9  -4   44.88   12.06
   2   9   5  944.91   29.02
  -2  -9  -5 1007.10   31.30
  -2  -9  -5 1054.67   33.20
  -2  -9  -6   69.03   12.88
   2   9   6   48.86    9.61
  -2  -9  -6   63.70   12.68
   2   9   7    7.67   12.92
  -2  -9  -7    9.21   12.17
   2   9   8  397.85   18.14
  -2  -9  -8  426.41   17.83
  -2  -9  -9  204.73   15.84
   2   9   9  156.75   11.39
  -2  -9 -10   84.75   11.08
   2   9  10  102.73   13.96
  -3   4  -8   52.40   19.44
   3  -4   8   55.88   24.06
   3  -4   8   56.64   19.43
   3  -4   9   28.79   19.49
  -3   4  -9   30.63   19.34
  -3   4 -10    4.22   19.23
   3  -4  10    5.67   21.75
  -3   3  -6   17.14   18.87
   3  -3   6   11.86   14.99
  -3   3  -7  147.56   16.27
   3  -3   7  130.95   14.62
   3  -3   8  251.79   20.36
  -3   3  -8  237.03   21.58
   3  -3   9  130.83   16.34
  -3   3  -9  181.48   20.24
  -3   3 -10    6.82   17.36
   3  -3  10   -1.56   13.76
   3  -3  11    4.26   17.64
  -3   3 -11    2.89   22.30
  -3   2  -1  182.25   14.11
  -3   2  -1  225.77   13.48
   3  -2   1  193.06   11.53
   3  -2   5   70.48   11.51
  -3   2  -5   61.13   13.05
  -3   2  -6  118.63   11.95
   3  -2   6  165.01   13.90
   3  -2   7 1451.04   52.94
  -3   2  -7 1599.78   56.87
   3  -2   8    9.70   11.87
  -3   2  -8   12.58    9.30
   3  -2   9    9.15   11.53
  -3   2  -9   -0.02   11.25
   3  -2  10  335.78   20.89
  -3   2 -10  504.25   26.11
   3  -2  11   41.79   14.55
  -3   2 -11   44.65   13.63
   3  -2  12   -2.20   16.49
  -3   2 -12    4.33   17.03
  -3   1  -1  191.61    8.87
  -3   1  -1  167.79    8.92
   3  -1   1  216.30    9.78
  -3   1  -2 1850.66   54.46
  -3   1  -2 1900.06   55.61
  -3   1  -3 1501.77   43.95
  -3   1  -3 1584.21   47.35
   3  -1   4  209.95   11.36
  -3   1  -4  137.96    9.05
  -3   1  -5  689.05   23.60
   3  -1   5  758.79   24.63
   3  -1   6 1174.66   35.93
  -3   1  -6  689.46   23.23
   3  -1   7   12.98    7.92
  -3   1  -7   14.71    9.54
   3  -1   8  529.45   20.32
  -3   1  -8  556.21   20.29
  -3   1  -9  879.32   31.53
   3  -1   9  825.97   31.07
  -3   1 -10   98.82   11.91
   3  -1  10   80.48   12.56
  -3   1 -11   29.12   11.53
   3  -1  11   18.81   12.32
   3  -1  12   -0.30   14.80
  -3   1 -12   -2.21   12.81
   3  -1  13   91.98   14.89
  -3   1 -13  171.27   18.07
   3   0   0  485.72   14.80
  -3   0   0  451.36   13.90
  -3   0  -1   19.69    2.91
   3   0   1   31.27    4.40
  -3   0  -1   31.07    4.45
  -3   0  -2  962.32   26.96
  -3   0  -2 1196.67   32.27
   3   0   3 1081.83   29.48
  -3   0  -3 1120.77   32.31
  -3   0  -3 1135.01   30.87
   3   0   4  570.37   18.46
  -3   0  -4  520.63   17.05
   3   0   5   40.92    6.41
  -3   0  -5   36.01    5.88
  -3   0  -6  222.64    9.98
   3   0   6  276.34   11.15
  -3   0  -7    3.72    7.33
   3   0   7    3.27    7.45
  -3   0  -8   -1.52    7.47
   3   0   8   -5.39    7.65
  -3   0  -9   94.87    9.80
   3   0   9   78.83    7.69
  -3   0 -10  105.35   10.02
   3   0  10  114.89   11.02
  -3   0 -11   56.94   11.05
   3   0  11   62.24   12.51
  -3   0 -12  408.15   18.75
   3   0  12  309.00   18.45
  -3   0 -13    5.70    9.67
   3   0  13   -0.70   17.19
   3   0  14   50.49   14.83
  -3   0 -14   76.95   16.06
   3   1   0  110.88    5.49
  -3  -1   0   96.78    5.14
  -3  -1  -1  334.03   10.05
  -3  -1  -1  207.95    7.34
   3   1   1  317.13    9.72
  -3  -1  -2  444.08   12.88
   3   1   2  453.67   13.19
  -3  -1  -2  526.91   14.81
  -3  -1  -3  499.31   14.47
   3   1   3  515.03   14.78
  -3  -1  -3  556.53   15.94
  -3  -1  -4   52.27    5.06
   3   1   4   56.98    5.25
  -3  -1  -5 2561.01   64.96
   3   1   5 2554.74   63.87
   3   1   6  128.96    6.22
  -3  -1  -6  169.21    7.82
  -3  -1  -7 1134.67   31.21
   3   1   7 1033.10   28.90
  -3  -1  -8   89.74    8.06
   3   1   8   84.03    8.01
  -3  -1  -9  100.36    8.58
   3   1   9  110.66    8.68
  -3  -1 -10    7.30    8.97
   3   1  10    6.07    9.45
  -3  -1 -11   81.56    8.52
   3   1  11  118.20   10.79
  -3  -1 -12   36.10   10.91
   3   1  12   24.23    8.65
  -3  -1 -13    3.93    8.79
   3   1  13    1.55   14.60
  -3  -1 -14    9.96   15.33
   3   1  14    7.53   12.20
  -3  -2   0 3559.94   95.04
   3   2   0 2959.25   78.85
  -3  -2   0 3103.96   83.68
  -3  -2  -1    2.81    2.55
  -3  -2  -1    4.42    3.80
   3   2   1    4.65    3.76
  -3  -2  -2  300.88    9.28
   3   2   2  232.96    7.50
  -3  -2  -2  332.98   10.24
  -3  -2  -3   47.58    4.67
   3   2   3   48.23    4.67
  -3  -2  -3   53.18    4.96
  -3  -2  -4 1882.23   44.07
   3   2   4 1836.78   42.62
  -3  -2  -5  247.68    8.19
   3   2   5  246.66    8.14
   3   2   6   16.76    3.96
  -3  -2  -6   21.74    5.22
   3   2   7 1594.64   39.53
  -3  -2  -7 1177.13   28.25
  -3  -2  -8   86.50    7.34
   3   2   8   82.80    7.45
  -3  -2  -9   67.32    7.51
   3   2   9   61.41    7.50
   3   2  10  155.38   10.40
  -3  -2 -10  122.43    7.48
  -3  -2 -11  315.38   10.94
   3   2  11  286.72   10.98
  -3  -2 -12  496.46   17.25
   3   2  12  340.80   13.02
  -3  -2 -13   82.79   13.25
   3   2  13   83.25   14.28
  -3  -2 -14  108.21   15.36
   3   2  14  101.27   16.96
  -3  -3   0    4.06    4.43
   3   3   0    2.23    4.47
  -3  -3   0    0.85    4.47
  -3  -3  -1 2003.14   48.51
  -3  -3  -1 2831.16   69.08
  -3  -3  -2 2637.82   61.70
   3   3   2 2691.71   63.64
  -3  -3  -2 2976.73   69.75
  -3  -3  -3   17.90    3.65
   3   3   3   19.46    3.77
  -3  -3  -3   24.32    5.34
  -3  -3  -4  542.47   14.06
   3   3   4  704.24   17.90
  -3  -3  -5  684.82   17.41
   3   3   5  493.85   12.78
  -3  -3  -6  211.59    6.99
   3   3   6  287.47    9.21
   3   3   7 1509.64   34.90
  -3  -3  -7 1576.15   36.31
   3   3   8  790.80   19.99
  -3  -3  -8  851.26   20.51
  -3  -3  -9   37.04    6.58
   3   3   9   28.64    4.84
  -3  -3 -10   11.17    5.72
   3   3  10   -0.17    8.32
  -3  -3 -11  459.12   14.25
   3   3  11  302.30   10.48
  -3  -3 -12  280.94   10.76
   3   3  12  252.94   10.72
  -3  -3 -13  162.90   10.19
   3   3  13  185.17   14.52
  -3  -3 -14  223.69   12.29
   3   3  14  231.06   13.04
  -3  -3 -15   46.24   12.48
   3   3  15   46.89   13.25
  -3  -4   0 1657.50   37.92
   3   4   0 2101.81   48.58
  -3  -4   0 2180.23   50.80
  -3  -4  -1   15.62    4.68
  -3  -4  -1   17.03    4.86
   3   4   2  569.02   14.84
  -3  -4  -2  437.82   11.52
  -3  -4  -2  559.07   14.48
  -3  -4  -3  566.56   14.38
   3   4   3  602.28   15.22
  -3  -4  -3  760.29   18.85
   3   4   4  172.16    7.21
  -3  -4  -4  181.43    7.35
  -3  -4  -5  808.98   19.91
   3   4   5  783.55   19.43
  -3  -4  -6    8.63    3.59
   3   4   6   15.31    4.95
  -3  -4  -7  564.20   14.60
   3   4   7  738.27   18.91
   3   4   8    5.11    5.80
  -3  -4  -8    2.43    5.87
  -3  -4  -9   36.71    6.16
   3   4   9   29.23    4.46
  -3  -4 -10   -1.01    5.24
   3   4  10    2.13    7.49
   3   4  11   30.11    8.20
  -3  -4 -11   26.94    5.69
  -3  -4 -12  135.69   10.84
   3   4  12  127.06   10.95
  -3  -4 -13    7.80    8.67
   3   4  13   20.42   12.36
  -3  -4 -14    7.05    9.85
   3   4  14    6.55   14.62
  -3  -4 -15   40.39   12.04
   3   4  15   53.70   17.67
  -3  -5   0  199.13    8.19
  -3  -5   0  194.19    7.83
  -3  -5  -1  103.20    6.96
  -3  -5  -1  106.52    6.62
  -3  -5  -2  301.20    8.21
   3   5   2  306.42    8.44
  -3  -5  -2  374.64   10.29
   3   5   3  216.84    7.69
  -3  -5  -3  221.43    7.70
  -3  -5  -3  224.24    7.61
  -3  -5  -4   52.97    5.37
   3   5   4   53.20    5.39
   3   5   5  133.13    5.96
  -3  -5  -5  174.59    7.89
  -3  -5  -6    2.94    4.31
   3   5   6   -0.93    6.13
  -3  -5  -7  163.22    7.72
   3   5   7  158.33    7.48
  -3  -5  -8  170.73    7.78
   3   5   8  162.39    7.57
   3   5   9    9.87    6.78
  -3  -5  -9    7.90    4.91
  -3  -5 -10  530.54   14.80
   3   5  10  671.21   18.65
  -3  -5 -11   52.85    6.63
   3   5  11   69.83    9.22
   3   5  12   34.83    6.81
  -3  -5 -12   46.49   10.22
  -3  -5 -13  187.69   12.36
   3   5  13  139.41   12.50
  -3  -5 -14  202.32   14.53
   3   5  14  123.68   10.66
  -3  -6   0    4.47    6.31
  -3  -6   0    2.07    6.37
  -3  -6  -1  398.53   10.73
  -3  -6  -1  481.22   13.16
  -3  -6  -2  805.39   18.88
   3   6   2  797.44   18.91
  -3  -6  -2  629.28   14.88
  -3  -6  -3  234.27    7.41
  -3  -6  -3  287.03    9.63
   3   6   3  290.57    9.77
  -3  -6  -4   52.33    4.83
   3   6   4   47.73    4.86
  -3  -6  -4   44.68    4.83
   3   6   5 1197.16   26.40
  -3  -6  -5 1011.61   22.37
   3   6   6  311.85    8.93
  -3  -6  -6  342.52    9.57
   3   6   7  119.74    8.17
  -3  -6  -7  137.25    8.42
   3   6   8   -2.38    4.96
  -3  -6  -8    2.72    5.05
  -3  -6  -9 1372.14   35.48
   3   6   9 1251.91   32.33
  -3  -6 -10    1.51    5.96
   3   6  10    0.84    5.72
   3   6  11  213.70   10.35
  -3  -6 -11  211.22   10.83
  -3  -6 -12  120.54    8.25
   3   6  12   99.97    7.82
   3   6  13    5.31   12.26
  -3  -6 -13   12.64   12.19
  -3  -6 -14   75.96   10.65
   3   6  14   94.07   15.36
  -3  -7   0  495.56   15.77
  -3  -7   0  442.02   13.32
  -3  -7  -1   75.55    6.09
  -3  -7  -1   85.72    7.99
  -3  -7  -2   70.81    7.94
  -3  -7  -2   71.52    7.88
  -3  -7  -3  112.69    6.50
  -3  -7  -3  105.06    6.29
   3   7   3  105.41    6.52
   3   7   4  146.30    7.05
  -3  -7  -4  177.37    9.13
  -3  -7  -4  130.37    6.81
  -3  -7  -5  233.26   10.10
  -3  -7  -5  248.59   10.11
   3   7   5  244.12   10.29
   3   7   6  474.62   13.98
  -3  -7  -6  379.96   10.86
   3   7   7    7.65    5.34
  -3  -7  -7   10.42    5.27
   3   7   8   97.37    6.97
  -3  -7  -8  116.53    7.12
   3   7   9   97.51    8.75
  -3  -7  -9  103.48    9.07
  -3  -7 -10  488.43   16.31
   3   7  10  451.88   15.34
  -3  -7 -11  202.43   11.84
   3   7  11  146.00    8.07
   3   7  12   45.46    8.06
  -3  -7 -12   82.98   11.82
   3   7  13  122.86   13.89
  -3  -7 -13  141.78   14.44
  -3  -8   0   39.51   10.98
  -3  -8   0   37.99   11.20
  -3  -8  -1   47.10    6.45
  -3  -8  -1   43.64   10.44
  -3  -8  -2  155.84   10.53
  -3  -8  -2  138.32   10.10
  -3  -8  -3  262.87   12.08
  -3  -8  -3  227.93   11.07
   3   8   3  201.57    9.12
   3   8   4   64.36    9.75
  -3  -8  -4   71.70    7.13
  -3  -8  -4   63.65    6.81
   3   8   5  596.72   17.06
  -3  -8  -5  697.11   20.22
  -3  -8  -5  727.62   20.65
  -3  -8  -6   58.47    9.47
   3   8   6   45.71    7.05
   3   8   7   18.01    9.39
  -3  -8  -7   16.33    6.34
   3   8   8  309.66   13.52
  -3  -8  -8  298.85   13.10
   3   8   9   78.77    7.65
  -3  -8  -9   81.38    7.61
  -3  -8 -10   18.68    8.20
   3   8  10   28.07    7.72
  -3  -8 -11  108.62    8.74
   3   8  11  108.82   11.34
  -3  -8 -12   34.38    9.48
   3   8  12   18.21   12.28
  -3  -9   0   91.47   15.87
  -3  -9   0  111.13   14.59
  -3  -9  -1  241.93   14.77
  -3  -9  -1  265.82   16.05
  -3  -9  -2   65.69   11.82
  -3  -9  -2   72.02    9.55
  -3  -9  -3   10.16    8.10
  -3  -9  -3   19.83   12.63
   3   9   4  101.11   12.80
  -3  -9  -4   95.71   12.38
  -3  -9  -4  110.40   13.21
  -3  -9  -5   -1.00   11.99
   3   9   5   12.98   12.35
  -3  -9  -5   22.67   12.48
  -3  -9  -6   36.74   12.41
   3   9   6   46.87   12.85
  -3  -9  -6   53.49   12.35
  -3  -9  -7  127.78    9.73
   3   9   7  167.42   13.87
  -3  -9  -7  113.50    9.32
   3   9   8   12.57   12.60
  -3  -9  -8   20.13   11.69
   3   9   9   14.22    9.66
  -3  -9  -9    8.31   13.20
  -3  -9 -10   24.92   13.17
   3   9  10   11.28    9.31
  -4   3  -9   48.13   20.39
   4  -3   9   51.57   17.82
  -4   3 -10   99.61   21.81
   4  -3  10  109.32   22.62
   4  -2   1    0.88    8.31
  -4   2  -1    1.61    8.54
  -4   2  -1    1.04    8.17
  -4   2  -2  434.06   21.92
  -4   2  -2  271.68   20.49
  -4   2  -6    0.93   14.66
  -4   2  -6    3.39   15.94
   4  -2   7   61.67   11.25
  -4   2  -7   56.35   14.94
   4  -2   8   14.08   12.90
  -4   2  -8   10.52   14.43
  -4   2  -9  254.39   21.75
   4  -2   9  230.62   17.44
   4  -2  10  247.83   23.14
  -4   2 -10  235.06   23.90
   4  -2  11   99.98   21.09
  -4   2 -11   99.48   18.15
   4  -2  12    0.81   22.11
  -4   2 -12    4.34   18.20
  -4   1  -1  144.16    8.87
  -4   1  -1  145.28    7.79
   4  -1   1  151.18    7.64
  -4   1  -2  210.96   10.37
  -4   1  -2  168.82    8.74
  -4   1  -3 1239.04   39.07
  -4   1  -3  990.03   31.29
  -4   1  -4  720.56   25.70
  -4   1  -4  729.34   26.23
  -4   1  -5   58.29    9.57
  -4   1  -5   56.73    7.98
   4  -1   5   69.60    9.48
   4  -1   6  425.96   17.86
  -4   1  -6  347.59   17.20
  -4   1  -7    2.42   11.37
   4  -1   7    2.37   10.91
  -4   1  -8   11.35    9.49
   4  -1   8   14.02    9.39
   4  -1   9   12.20   11.19
  -4   1  -9    8.17   11.44
   4  -1  10  229.23   16.17
  -4   1 -10  229.16   16.16
   4  -1  11   85.72   14.77
  -4   1 -11  106.20   14.87
   4  -1  12   50.89   16.43
  -4   1 -12   54.74   15.44
   4  -1  13   52.56   18.88
  -4   1 -13   51.24   17.31
   4   0   0  314.89   10.33
  -4   0   0  288.85    9.85
   4   0   1 1230.75   25.92
  -4   0  -1 1262.86   26.86
  -4   0  -1 1084.82   29.28
  -4   0  -2  947.96   26.79
  -4   0  -2 1067.56   27.56
  -4   0  -3   14.61    5.24
  -4   0  -3   19.00    6.07
  -4   0  -4    8.70    5.35
  -4   0  -4   10.26    5.75
   4   0   4    9.73    5.35
  -4   0  -5 2467.26   65.17
   4   0   5 2954.20   77.24
  -4   0  -5 2435.58   65.44
   4   0   6  243.21   11.36
  -4   0  -6  235.30   11.17
  -4   0  -7  120.75    9.02
   4   0   7  135.01    9.45
  -4   0  -8  182.21   11.61
   4   0   8  183.12   11.74
   4   0   9  960.38   33.20
  -4   0  -9  764.47   26.06
   4   0  10    7.13   11.26
  -4   0 -10    0.60   11.04
   4   0  11   27.33   11.68
  -4   0 -11   23.11    7.73
   4   0  12  394.41   22.30
  -4   0 -12  393.26   20.67
   4   0  13   11.36   17.63
  -4   0 -13   25.24   15.55
   4   1   0 1890.84   43.85
  -4  -1   0 2133.48   49.55
  -4  -1   0 2496.41   61.03
  -4  -1  -1   74.21    5.44
   4   1   1   81.21    5.74
  -4  -1  -1   62.58    4.31
  -4  -1  -2  108.61    6.62
  -4  -1  -2   94.10    5.86
   4   1   3  100.57    6.16
  -4  -1  -3   96.29    6.16
  -4  -1  -3  112.57    7.09
   4   1   4  410.03   12.70
  -4  -1  -4  308.24   10.18
  -4  -1  -4  389.83   12.29
  -4  -1  -5    3.74    4.01
   4   1   5    6.36    5.77
   4   1   6   -0.35    5.81
  -4  -1  -6   -0.78    5.42
   4   1   7   62.80    8.02
  -4  -1  -7   61.03    7.43
  -4  -1  -8  113.54    8.35
   4   1   8  112.33    8.63
   4   1   9   56.22    9.46
  -4  -1  -9   43.28    6.83
   4   1  10  219.21   10.13
  -4  -1 -10  219.29    9.91
   4   1  11   55.08   11.54
  -4  -1 -11   46.09   11.44
   4   1  12  216.86   16.12
  -4  -1 -12  154.56   10.76
   4   1  13    6.33   16.12
  -4  -1 -13  -11.41   14.91
   4   1  14    7.76   13.68
  -4  -1 -14   -1.18   17.12
   4   2   0   84.85    5.43
  -4  -2   0   88.23    5.54
  -4  -2   0   60.47    3.88
  -4  -2  -1  369.92   10.37
   4   2   1  539.18   13.51
  -4  -2  -1  561.12   13.87
  -4  -2  -2  114.34    6.29
  -4  -2  -2  104.44    5.77
  -4  -2  -3  669.45   16.07
  -4  -2  -3  767.84   17.73
   4   2   3  922.37   21.55
  -4  -2  -4  143.51    7.27
  -4  -2  -4  124.24    6.73
   4   2   4  125.83    6.69
   4   2   5  889.63   22.59
  -4  -2  -5  970.48   24.23
   4   2   6   74.82    6.50
  -4  -2  -6   76.49    6.21
   4   2   7  338.89   12.14
  -4  -2  -7  347.45   11.93
  -4  -2  -8  144.76    8.25
   4   2   8  138.64    8.73
  -4  -2  -9  183.33    8.27
   4   2   9  244.65   11.17
  -4  -2 -10  142.25   10.09
   4   2  10  128.87   10.02
  -4  -2 -11  123.29   11.57
   4   2  11  104.65   11.49
   4   2  12  120.42   12.20
  -4  -2 -12  115.48   13.00
   4   2  13   10.26   13.87
  -4  -2 -13   15.97   14.13
   4   2  14  250.82   15.95
  -4  -2 -14  341.01   20.25
  -4  -3   0 1318.91   32.26
   4   3   0 1349.40   33.25
  -4  -3   0 1418.66   34.95
  -4  -3  -1   43.05    3.65
   4   3   1   53.76    5.25
  -4  -3  -1   61.65    5.37
  -4  -3  -2 1134.04   26.39
  -4  -3  -2  968.41   22.50
   4   3   3 2095.28   45.46
  -4  -3  -3 2009.85   43.08
  -4  -3  -3 1617.72   34.93
  -4  -3  -4   44.97    4.19
   4   3   4   68.55    5.72
  -4  -3  -4   64.90    6.06
   4   3   5  272.90    8.86
  -4  -3  -5  292.42    9.25
   4   3   6   78.82    6.20
  -4  -3  -6   81.68    6.20
   4   3   7  515.64   13.70
  -4  -3  -7  723.07   18.77
  -4  -3  -8  886.02   22.70
   4   3   8  866.29   22.75
   4   3   9  129.26    8.70
  -4  -3  -9  139.14    8.94
  -4  -3 -10  160.79    9.62
   4   3  10  166.75    9.91
  -4  -3 -11   37.61    7.25
   4   3  11   47.67   10.19
  -4  -3 -12  131.46    8.74
   4   3  12  151.11   11.86
   4   3  13  150.83   14.37
  -4  -3 -13  175.60   14.05
   4   3  14   25.29   16.08
  -4  -3 -14   28.86   10.82
  -4  -4   0    0.88    4.06
   4   4   0    0.01    3.91
  -4  -4   0    2.33    3.95
  -4  -4  -1    4.00    3.32
  -4  -4  -1    6.18    3.34
  -4  -4  -2  588.22   15.38
  -4  -4  -2  631.75   16.42
   4   4   3 1627.11   37.88
  -4  -4  -3 1560.64   35.83
  -4  -4  -3 1676.58   38.77
   4   4   4  114.26    6.13
  -4  -4  -4  100.21    6.01
  -4  -4  -4  113.30    6.31
  -4  -4  -5    1.25    4.53
   4   4   5    0.98    4.51
   4   4   6    6.31    6.50
  -4  -4  -6    7.35    6.54
   4   4   7  950.74   21.92
  -4  -4  -7 1049.98   24.23
   4   4   8    6.34    4.56
  -4  -4  -8    9.28    4.49
  -4  -4  -9  218.37    9.56
   4   4   9  191.59    9.45
  -4  -4 -10  914.38   22.52
   4   4  10 1089.30   28.05
  -4  -4 -11   21.12    9.26
   4   4  11    2.25    6.78
  -4  -4 -12    2.57   10.47
   4   4  12    5.65    6.85
   4   4  13   65.49   12.70
  -4  -4 -13   61.78    8.67
   4   4  14  221.03   16.52
  -4  -4 -14  252.81   15.96
  -4  -5   0  172.41    7.77
  -4  -5   0  156.11    7.24
  -4  -5  -1   39.10    4.50
  -4  -5  -1   51.84    6.01
  -4  -5  -2   75.45    6.42
  -4  -5  -2   86.91    6.45
  -4  -5  -3 1416.73   33.56
  -4  -5  -3 1492.33   35.38
   4   5   3 1442.86   34.41
  -4  -5  -4   26.94    6.17
  -4  -5  -4   26.95    6.09
   4   5   4   29.69    6.11
  -4  -5  -5  435.88   12.43
  -4  -5  -5  414.10   11.95
   4   5   5  429.15   12.26
   4   5   6  239.33    7.77
  -4  -5  -6  240.40    7.78
   4   5   7  221.25    7.45
  -4  -5  -7  235.88    7.73
   4   5   8    6.24    5.23
  -4  -5  -8    7.47    5.29
   4   5   9  498.32   14.49
  -4  -5  -9  399.09   11.46
   4   5  10    2.17    7.70
  -4  -5 -10   -4.14    8.42
   4   5  11   14.23    6.34
  -4  -5 -11   20.71    8.71
   4   5  12   92.58    8.15
  -4  -5 -12  137.33   11.26
   4   5  13   40.05   13.04
  -4  -5 -13   31.07    8.90
   4   5  14   11.33   15.84
  -4  -5 -14   17.35   10.52
  -4  -6   0   84.55    6.09
  -4  -6   0   99.83    7.49
  -4  -6  -1    7.27    7.19
  -4  -6  -1    0.26    6.58
  -4  -6  -2  661.25   17.00
  -4  -6  -2  643.33   16.96
   4   6   3  140.29    7.31
  -4  -6  -3  138.48    7.11
  -4  -6  -3  116.01    6.04
  -4  -6  -4   12.31    6.47
  -4  -6  -4   12.18    5.88
   4   6   4    5.79    6.01
  -4  -6  -5  167.62    7.15
  -4  -6  -5  234.49    9.71
   4   6   5  188.43    7.45
  -4  -6  -6  158.88    7.01
   4   6   6  148.49    6.89
   4   6   7   -1.29    7.22
  -4  -6  -7    5.36    7.35
   4   6   8   28.45    7.17
  -4  -6  -8   19.14    5.34
   4   6   9   40.07    8.31
  -4  -6  -9   37.28    8.62
   4   6  10  114.61    9.01
  -4  -6 -10  135.92    9.41
  -4  -6 -11    6.89    9.74
   4   6  11   15.12    9.45
  -4  -6 -12   96.71    7.75
   4   6  12   88.35    7.71
   4   6  13   -3.73   12.17
  -4  -6 -13   -5.24   11.88
   4   6  14   20.81   14.88
  -4  -6 -14   12.26   14.39
  -4  -7   0  116.39    9.84
  -4  -7   0  106.10    8.95
  -4  -7  -1  350.00   12.84
  -4  -7  -1  335.27   12.18
  -4  -7  -2   23.49    7.26
  -4  -7  -2   21.94    4.95
  -4  -7  -3    0.04    4.77
   4   7   3    7.29    5.03
  -4  -7  -3   -2.18    6.96
   4   7   4    8.40    7.15
  -4  -7  -4    4.27    5.06
  -4  -7  -4    7.94    7.06
   4   7   5 1331.84   30.46
  -4  -7  -5 1281.84   29.40
  -4  -7  -5 1447.57   33.01
  -4  -7  -6   35.53    5.33
  -4  -7  -6   33.96    5.45
   4   7   6   43.66    8.35
  -4  -7  -7   12.58    6.19
   4   7   7    1.99    6.29
   4   7   8  494.82   13.87
  -4  -7  -8  525.04   14.69
   4   7   9   20.92    8.40
  -4  -7  -9   22.64    6.06
   4   7  10    9.88    9.29
  -4  -7 -10   12.90    9.65
   4   7  11  114.40    7.43
  -4  -7 -11  112.38    7.84
  -4  -7 -12  405.45   15.98
   4   7  12  357.71   14.95
  -4  -7 -13    8.24    9.08
   4   7  13    6.82    8.98
  -4  -8   0  603.04   20.23
  -4  -8   0  607.06   19.20
  -4  -8  -1   94.22   10.93
  -4  -8  -1   89.65    7.58
  -4  -8  -2   10.08    7.17
  -4  -8  -2   18.01    7.01
  -4  -8  -3  400.57   13.90
  -4  -8  -3  388.05   13.57
   4   8   4  312.72   12.43
  -4  -8  -4  336.40   12.54
  -4  -8  -4  335.56   12.61
  -4  -8  -5   31.48    8.52
  -4  -8  -5   28.52    9.40
   4   8   5   32.97    8.73
  -4  -8  -6    9.95    9.32
  -4  -8  -6    2.88    7.03
   4   8   6    5.30    7.18
  -4  -8  -7  586.21   17.29
  -4  -8  -7  586.28   17.70
   4   8   7  577.70   17.42
  -4  -8  -8   89.71    7.44
   4   8   8   80.48    7.72
   4   8   9    7.87    9.74
  -4  -8  -9   -7.03    9.74
   4   8  10    4.13   10.67
  -4  -8 -10    1.64   10.81
   4   8  11  -10.10   11.32
  -4  -8 -11   -0.69    8.76
  -4  -8 -12   40.23    9.02
   4   8  12   29.02   12.28
  -4  -9   0  137.15   14.49
  -4  -9   0  149.10   14.76
  -4  -9  -1  387.27   18.39
  -4  -9  -1  400.94   17.78
  -4  -9  -2   24.28    8.26
  -4  -9  -2   38.54    8.43
  -4  -9  -3    5.37    7.87
  -4  -9  -3    2.47    8.25
  -4  -9  -4   44.95    8.22
  -4  -9  -4   49.37    8.52
  -4  -9  -5   74.65    8.58
  -4  -9  -5   87.35    8.91
   4   9   5   88.25   12.30
  -4  -9  -6   16.75   11.58
  -4  -9  -6   10.98    8.27
   4   9   6   10.44   11.90
  -4  -9  -7   31.94   11.84
   4   9   7   42.27   12.11
  -4  -9  -7   38.22    8.19
  -4  -9  -8   88.63   11.88
   4   9   8   67.38    8.92
  -4  -9  -8   87.29   12.43
  -4  -9  -9  105.88   13.23
   4   9   9  130.04   14.00
   4   9  10   49.48   12.93
  -5   3  -1  199.66   18.95
  -5   3  -1  174.96   18.47
   5  -2   1  164.01   12.98
  -5   2  -1   92.88   14.04
  -5   2  -1  172.99   13.43
  -5   2  -2   69.00   14.28
  -5   2  -2  106.61   12.44
  -5   2  -3  214.70   23.17
  -5   2  -3  293.39   22.05
  -5   2  -8   31.04   20.37
  -5   2  -8   32.40   25.98
  -5   2  -9    1.25   15.15
   5  -2   9    1.88   15.21
  -5   2  -9    1.38   19.59
  -5   2 -10  125.12   21.80
  -5   2 -10  129.58   25.40
   5  -2  10  156.53   25.25
   5  -2  11   14.13   20.49
  -5   2 -11   10.14   26.55
   5  -1   1  303.86   12.39
  -5   1  -1  310.43   12.73
  -5   1  -1  263.33   12.37
  -5   1  -2   12.30    8.98
  -5   1  -2    9.00    6.72
  -5   1  -3  306.42   15.22
  -5   1  -3  265.81   14.12
  -5   1  -4   45.38    9.18
  -5   1  -4   38.17    7.77
  -5   1  -5  322.83   16.56
  -5   1  -5  319.76   18.40
  -5   1  -6    3.24    8.20
  -5   1  -6    5.97   10.50
  -5   1  -7  596.89   30.78
   5  -1   7  634.78   31.50
  -5   1  -7  458.52   23.71
  -5   1  -8    9.78   11.96
  -5   1  -8    8.48   14.08
   5  -1   8    8.48    9.71
   5  -1   9  179.52   16.97
  -5   1  -9  111.89   15.02
   5  -1  10    9.16   13.03
  -5   1 -10   13.38   14.09
  -5   1 -11   20.34   19.74
   5  -1  11   19.91   15.56
  -5   1 -12   41.24   22.82
   5  -1  12   38.04   18.70
   5   0   0 1714.61   44.27
  -5   0   0 1714.96   45.46
  -5   0   0 2519.98   64.35
  -5   0  -1   29.37    5.08
   5   0   1   44.16    6.77
  -5   0  -1   31.55    6.44
  -5   0  -2   26.07    7.25
  -5   0  -2   27.13    6.55
  -5   0  -3  178.32    9.43
  -5   0  -3  200.26   10.33
  -5   0  -4  276.70   11.91
  -5   0  -4  287.32   12.62
  -5   0  -5    9.99    6.67
  -5   0  -5    7.62    7.06
  -5   0  -6   13.69    7.64
   5   0   6   17.46    8.90
  -5   0  -6   11.50    8.41
  -5   0  -7  510.07   22.41
  -5   0  -7  423.89   17.87
   5   0   7  430.79   17.90
   5   0   8  106.11   10.17
  -5   0  -8   93.66   10.04
  -5   0  -9  133.35   12.83
   5   0   9  172.89   13.49
  -5   0 -10   73.48   12.92
   5   0  10   87.63   13.26
  -5   0 -11   99.32   14.34
   5   0  11  115.48   14.92
  -5   0 -12  599.15   32.18
   5   0  12  670.65   37.18
   5   0  13   -2.81   18.28
   5   1   0  339.30   10.04
  -5  -1   0  394.19   11.32
  -5  -1   0  359.92   10.49
  -5  -1  -1 1043.98   23.34
   5   1   1  986.99   22.08
  -5  -1  -1  961.60   25.10
  -5  -1  -2 1141.38   30.02
  -5  -1  -2  885.43   19.88
  -5  -1  -3  415.93   12.61
  -5  -1  -3  474.74   13.66
  -5  -1  -4  459.20   15.25
  -5  -1  -4  390.43   13.08
  -5  -1  -5  519.59   16.33
  -5  -1  -5  561.21   18.06
   5   1   5  381.53   12.30
  -5  -1  -6  152.56    8.88
   5   1   6  166.78    9.18
  -5  -1  -6  173.60    9.39
  -5  -1  -7 1019.51   30.55
   5   1   7  818.23   24.08
   5   1   8  575.70   20.03
  -5  -1  -8  562.70   19.78
  -5  -1  -9  126.54   10.17
   5   1   9  161.66   11.18
  -5  -1 -10    9.26   10.66
   5   1  10   12.52   11.03
  -5  -1 -11  289.46   17.10
   5   1  11  318.99   18.48
  -5  -1 -12    1.49   15.01
   5   1  12    9.68   15.09
   5   1  13  108.51   19.04
  -5  -1 -13  111.05   18.13
   5   2   0  686.61   16.95
  -5  -2   0  708.06   17.50
  -5  -2   0  624.85   16.27
  -5  -2  -1   10.30    4.20
   5   2   1   16.69    6.17
  -5  -2  -1   13.42    4.44
  -5  -2  -2  338.68   10.05
  -5  -2  -2  279.61    9.70
  -5  -2  -3  266.16    8.45
  -5  -2  -3  409.21   11.54
  -5  -2  -4   46.61    4.95
   5   2   4   69.29    6.90
  -5  -2  -4   80.46    7.61
  -5  -2  -5  170.30    8.96
  -5  -2  -5  105.29    5.99
   5   2   5  148.31    8.24
  -5  -2  -6   -0.60    6.94
  -5  -2  -6    2.95    7.07
   5   2   6   -0.46    5.00
   5   2   7  780.63   22.34
  -5  -2  -7  731.13   21.30
   5   2   8  262.07   12.24
  -5  -2  -8  253.01   11.36
   5   2   9  203.11   11.44
  -5  -2  -9  172.22   10.01
  -5  -2 -10   -3.23   10.06
   5   2  10    1.53   10.71
  -5  -2 -11    6.08   10.63
   5   2  11    7.53   10.65
  -5  -2 -12    4.31   12.59
   5   2  12    8.57   12.82
   5   2  13    0.71   15.29
  -5  -2 -13   -4.55   15.18
   5   3   0  204.25    8.00
  -5  -3   0  216.80    8.25
  -5  -3   0  204.72    7.85
  -5  -3  -1  469.79   12.86
   5   3   1  368.80    9.91
  -5  -3  -1  383.73   10.17
  -5  -3  -2  328.91    9.26
  -5  -3  -2  508.45   12.84
  -5  -3  -3  227.62    8.42
  -5  -3  -3  262.08    9.01
  -5  -3  -4  103.00    5.46
   5   3   4  151.97    7.50
  -5  -3  -4  119.44    5.92
  -5  -3  -5   39.30    5.10
  -5  -3  -5   45.08    6.81
   5   3   5   49.17    6.86
  -5  -3  -6   -0.98    6.81
  -5  -3  -6   -0.81    6.99
   5   3   6    0.50    6.82
   5   3   7  385.62   11.71
  -5  -3  -7  550.16   15.96
   5   3   8   46.10    9.00
  -5  -3  -8   50.56    8.45
   5   3   9    9.91    8.73
  -5  -3  -9   10.39    7.85
   5   3  10  492.31   16.23
  -5  -3 -10  698.37   21.32
  -5  -3 -11   10.36    9.85
   5   3  11   15.48   10.22
  -5  -3 -12  130.28   12.66
   5   3  12   78.33    9.41
   5   3  13   14.84   14.68
  -5  -3 -13   12.33   10.30
   5   3  14   31.71   12.73
  -5  -3 -14   32.44   17.45
   5   4   0   15.16    4.06
  -5  -4   0   11.98    4.21
  -5  -4   0   21.46    5.65
  -5  -4  -1  258.96    8.97
  -5  -4  -1  209.50    7.24
  -5  -4  -2  438.17   12.44
  -5  -4  -2  489.41   13.60
  -5  -4  -3  255.62    8.89
  -5  -4  -3  286.38    9.55
  -5  -4  -4  567.03   14.37
   5   4   4  468.74   11.84
  -5  -4  -4  657.64   15.75
  -5  -4  -5 1127.30   23.71
  -5  -4  -5 1379.34   29.64
   5   4   5 1432.71   30.72
  -5  -4  -6  152.42    6.42
  -5  -4  -6  170.00    6.78
   5   4   6  157.69    6.53
  -5  -4  -7    2.93    8.32
   5   4   7   -0.97    5.85
   5   4   8   80.27    8.89
  -5  -4  -8   62.17    6.34
   5   4   9 1404.62   36.33
  -5  -4  -9 1438.69   36.05
   5   4  10   41.37    9.93
  -5  -4 -10   50.13    9.47
  -5  -4 -11   11.51    6.57
   5   4  11   20.37    9.69
  -5  -4 -12  214.34   13.05
   5   4  12  170.68   13.16
  -5  -4 -13    1.67   13.17
   5   4  13    2.66   13.88
   5   4  14   11.71   16.81
  -5  -4 -14    7.97   11.31
  -5  -5   0  559.12   15.71
   5   5   0  533.57   15.37
  -5  -5   0  551.41   15.90
  -5  -5  -1   51.74    5.22
  -5  -5  -1   49.61    5.30
  -5  -5  -2   37.75    5.12
  -5  -5  -2   40.37    5.21
  -5  -5  -3   57.78    6.13
  -5  -5  -3   74.59    6.89
  -5  -5  -4  780.10   19.67
   5   5   4  811.77   20.71
  -5  -5  -4  844.62   21.60
  -5  -5  -5   73.64    8.07
  -5  -5  -5   50.07    5.50
   5   5   5   54.58    5.63
  -5  -5  -6  684.14   17.54
   5   5   6  509.69   12.98
  -5  -5  -6  454.14   11.93
  -5  -5  -7  262.41   10.53
   5   5   7  251.43   10.05
   5   5   8    5.09    7.67
  -5  -5  -8   14.13    7.90
   5   5   9  245.13   11.50
  -5  -5  -9  183.82    8.52
   5   5  10  242.82   11.45
  -5  -5 -10  265.32   11.61
   5   5  11   30.39   10.63
  -5  -5 -11   20.07    7.49
  -5  -5 -12  151.80    8.72
   5   5  12  181.22   12.40
  -5  -5 -13   92.38   12.78
   5   5  13   77.93   13.59
   5   5  14   44.37   15.91
  -5  -6   0  200.84   10.29
  -5  -6   0  192.06    9.85
  -5  -6  -1  264.78    8.89
  -5  -6  -1  345.58   11.77
  -5  -6  -2  161.06    8.40
  -5  -6  -2  138.39    6.41
  -5  -6  -3   71.86    5.37
  -5  -6  -3   75.84    5.48
  -5  -6  -4    1.06    4.63
   5   6   4    2.62    4.81
  -5  -6  -4    5.33    4.77
  -5  -6  -5  981.63   25.69
  -5  -6  -5  881.48   23.16
   5   6   5  945.56   24.81
   5   6   6    0.25    5.04
  -5  -6  -6   -4.05    5.01
  -5  -6  -6    0.98    7.23
  -5  -6  -7  239.89    9.73
  -5  -6  -7  194.86    7.65
   5   6   7  246.93    9.94
   5   6   8  182.96   10.25
  -5  -6  -8  201.47   10.74
   5   6   9   50.44    6.43
  -5  -6  -9   54.96    6.70
   5   6  10  139.06    8.27
  -5  -6 -10  166.15    8.69
   5   6  11    3.81    6.99
  -5  -6 -11   -4.06    7.15
  -5  -6 -12   69.08   11.73
   5   6  12   55.01    8.42
  -5  -6 -13   13.54   13.38
   5   6  13   16.25    9.71
  -5  -7   0  593.58   18.32
  -5  -7   0  620.25   18.57
  -5  -7  -1  139.74    7.45
  -5  -7  -1  164.93    9.48
  -5  -7  -2    2.34    5.77
  -5  -7  -2    4.82    7.64
  -5  -7  -3  349.86   12.36
  -5  -7  -3  373.85   12.84
  -5  -7  -4   96.71    8.51
  -5  -7  -4   95.05    8.57
   5   7   4   89.10    8.75
  -5  -7  -5    3.36    5.66
  -5  -7  -5   -3.41    8.04
   5   7   5    9.40    5.55
  -5  -7  -6    7.16    5.70
  -5  -7  -6   -1.86    5.99
   5   7   6    4.02    8.18
  -5  -7  -7  175.83    7.96
  -5  -7  -7  169.65    7.98
   5   7   7  190.92    8.16
  -5  -7  -8   55.64    9.63
   5   7   8   33.14    6.09
   5   7   9   23.15    9.72
  -5  -7  -9   13.43   10.13
   5   7  10   -3.97    9.60
  -5  -7 -10    0.90    6.96
   5   7  11    6.94    7.62
  -5  -7 -11    6.74   11.04
   5   7  12  135.50   13.17
  -5  -7 -12  135.90   13.43
  -5  -8   0    1.21    7.37
  -5  -8   0   -5.14   12.09
  -5  -8  -1  250.99   13.78
  -5  -8  -1  231.32   12.42
  -5  -8  -2  276.48   12.60
  -5  -8  -2  249.59    9.63
  -5  -8  -3  263.61    9.73
  -5  -8  -3  317.41   12.98
  -5  -8  -4  216.29    9.01
  -5  -8  -4  207.30    8.88
   5   8   5   16.27    9.46
  -5  -8  -5   24.37    9.16
  -5  -8  -5    4.43    6.64
  -5  -8  -6    1.79    6.61
  -5  -8  -6   -2.63    9.41
   5   8   6    2.32    6.68
   5   8   7  355.72   11.51
  -5  -8  -7  308.82   10.69
  -5  -8  -7  355.43   11.72
  -5  -8  -8  115.79    7.77
   5   8   8  115.28    7.94
  -5  -8  -8  160.60   12.17
  -5  -8  -9    3.09    7.65
   5   8   9    4.84    7.70
   5   8  10  150.03    9.00
  -5  -8 -10  166.42    9.29
   5   8  11  219.46   10.87
  -5  -8 -11  305.78   15.23
  -5  -9  -1    7.73    9.49
  -5  -9  -2   91.13    9.13
  -5  -9  -2   95.28    9.92
  -5  -9  -3  315.73   15.84
  -5  -9  -3  334.78   15.08
  -5  -9  -4   17.27   11.68
  -5  -9  -4   27.15    8.44
  -5  -9  -5   99.26   11.97
  -5  -9  -5   84.95    8.95
  -5  -9  -6   31.65    7.85
  -5  -9  -6   57.67   11.69
   5   9   6   75.00   12.04
  -5  -9  -7   74.61    9.23
  -5  -9  -7  106.25   12.84
   5   9   7   94.64   13.22
   5   9   8   13.91   12.84
  -5  -9  -8   10.45   12.63
  -5  -9  -8    8.39   12.42
  -5  -9  -9    4.18    8.87
   5   9   9    5.41    8.96
  -5  -9  -9    4.77    8.75
  -6   3  -1   51.48   18.39
  -6   3  -1   58.48   19.14
  -6   2  -1 1246.61   43.74
  -6   2  -1  650.36   31.70
  -6   2  -2   36.74   16.83
  -6   2  -2   62.48   13.80
  -6   2  -3    7.76   19.17
  -6   2  -3   13.94   13.98
   6  -1   1   41.18    8.93
  -6   1  -1   25.46    9.38
  -6   1  -1   37.84    9.15
  -6   1  -2  106.80   10.25
  -6   1  -2   98.80   12.21
  -6   1  -3    0.85    8.69
  -6   1  -3    0.07    8.71
  -6   1  -4   32.07   12.47
  -6   1  -4   27.03   13.18
  -6   1  -5   11.67   11.88
  -6   1  -5   20.09   13.05
  -6   1  -6   24.92   14.13
  -6   1  -6   24.66   13.17
  -6   1  -7   76.77   15.76
  -6   1  -7   61.33   16.79
  -6   1  -8   54.42   14.41
  -6   1  -8   45.61   17.76
  -6   1  -9    0.33   14.56
  -6   1  -9    1.24   16.99
  -6   1 -10   21.74   17.25
   6  -1  10   23.62   17.35
  -6   1 -10   22.47   24.64
   6   0   0   32.98    8.06
  -6   0   0   42.76    8.23
  -6   0   0   37.67    7.96
   6   0   1  318.14   13.23
  -6   0  -1  332.21   13.69
  -6   0  -1  286.79   12.48
  -6   0  -2   10.14    8.53
  -6   0  -2   11.04    8.05
  -6   0  -3  276.81   14.53
  -6   0  -3  213.55   11.83
  -6   0  -4   10.45   10.42
  -6   0  -4    7.71   10.33
  -6   0  -5  763.32   29.87
  -6   0  -5  714.74   29.06
  -6   0  -6   20.57    9.67
  -6   0  -6   14.62    9.69
  -6   0  -7  143.18   12.16
  -6   0  -7  133.33   12.15
  -6   0  -8  108.52   11.94
  -6   0  -8   93.59   11.17
   6   0   8  108.39   11.43
   6   0   9   -0.13   11.22
  -6   0  -9   -3.61   11.16
  -6   0  -9    1.55   12.22
  -6   0 -10   94.34   15.13
  -6   0 -10   80.02   15.98
   6   0  10  102.00   15.22
  -6   0 -11   23.41   17.61
   6   0  11   23.28   16.75
   6   1   0  325.47   12.03
  -6  -1   0  339.66   12.46
  -6  -1   0  236.48    8.83
   6   1   1   14.26    7.70
  -6  -1  -1   10.92    7.84
  -6  -1  -1    6.14    7.53
  -6  -1  -2  246.12   11.17
  -6  -1  -2  226.28   10.82
  -6  -1  -3  729.78   21.84
  -6  -1  -3  682.32   21.73
  -6  -1  -4   12.14    8.18
  -6  -1  -4   15.46    8.68
  -6  -1  -5   15.61    7.96
  -6  -1  -5   19.20    8.64
  -6  -1  -6   98.70    9.12
  -6  -1  -6  111.94    9.77
  -6  -1  -7  123.87   10.43
  -6  -1  -7  127.72   11.26
   6   1   7  128.01   11.04
   6   1   8  595.94   24.36
  -6  -1  -8  536.24   22.94
  -6  -1  -8  574.85   24.28
  -6  -1  -9  424.54   20.70
  -6  -1  -9  452.61   21.26
   6   1   9  549.28   24.07
  -6  -1 -10    9.40   11.90
   6   1  10   30.11   12.62
   6   1  11   25.66   15.13
  -6  -1 -11   21.75   14.44
  -6  -1 -12    4.70   17.10
   6   1  12   14.40   17.49
   6   2   0   93.84    6.03
  -6  -2   0  102.57    6.14
  -6  -2   0  128.48    7.98
   6   2   1    0.71    7.46
  -6  -2  -1    5.70    7.50
  -6  -2  -1    4.71    5.04
  -6  -2  -2  284.94    9.26
  -6  -2  -2  367.28   12.67
  -6  -2  -3  734.78   20.84
  -6  -2  -3  585.00   14.85
  -6  -2  -4    6.88    7.60
  -6  -2  -4   13.04    8.32
  -6  -2  -5   45.37    8.77
  -6  -2  -5   36.04    7.96
  -6  -2  -6  124.27    9.11
  -6  -2  -6   94.45    7.23
   6   2   6  129.13    9.17
  -6  -2  -7  235.18   11.44
  -6  -2  -7  176.33    8.72
   6   2   7  238.43   11.59
  -6  -2  -8   24.24   10.26
   6   2   8   23.98   10.34
  -6  -2  -8   24.52    9.71
  -6  -2  -9   14.42    9.46
   6   2   9   10.06   10.86
  -6  -2 -10  725.54   27.30
   6   2  10  612.22   22.38
  -6  -2 -11    4.68    8.14
   6   2  11   -1.59   12.93
  -6  -2 -12  140.70   15.52
   6   2  12  145.91   16.58
   6   2  13   12.68   12.76
  -6  -3   0  166.01    8.47
   6   3   0  115.88    6.12
  -6  -3   0  164.64    8.13
   6   3   1    5.57    5.25
  -6  -3  -1    7.54    5.34
  -6  -3  -1   12.99    7.01
  -6  -3  -2  153.91    6.92
  -6  -3  -2  233.19    9.68
  -6  -3  -3  901.92   23.22
  -6  -3  -3  752.18   15.84
  -6  -3  -4   84.07    8.18
  -6  -3  -4   98.37    8.58
  -6  -3  -5  960.19   22.73
  -6  -3  -5  628.02   17.23
   6   3   5  669.27   18.13
   6   3   6   42.93    8.22
  -6  -3  -6   43.08    8.16
  -6  -3  -6   53.54    8.77
   6   3   7  147.74    9.70
  -6  -3  -7  139.70    9.75
  -6  -3  -7   94.01    7.15
  -6  -3  -8   15.85    7.45
   6   3   8   13.41    7.48
  -6  -3  -8   19.99   10.13
  -6  -3  -9  134.52   10.77
   6   3   9  127.05   11.68
   6   3  10    5.66   12.41
  -6  -3 -10    6.57   10.88
  -6  -3 -11   40.91    7.97
   6   3  11   49.23   12.84
  -6  -3 -12   16.97   13.01
   6   3  12   -3.49   14.61
  -6  -3 -13    0.80   15.76
   6   3  13    6.17   17.11
   6   4   0   71.92    5.48
  -6  -4   0   81.33    5.59
  -6  -4   0   63.46    5.34
  -6  -4  -1   85.02    5.64
  -6  -4  -1  118.67    8.06
  -6  -4  -2  172.91    8.50
  -6  -4  -2  174.93    8.86
  -6  -4  -3   70.17    7.34
  -6  -4  -3   81.86    7.85
  -6  -4  -4  187.82    7.36
  -6  -4  -4  283.79   10.00
  -6  -4  -5   10.42    7.90
  -6  -4  -5    5.55    5.27
   6   4   5   13.88    7.45
  -6  -4  -6  101.25    6.56
  -6  -4  -6  116.83    6.78
   6   4   6  138.94    9.03
   6   4   7   87.63    6.57
  -6  -4  -7   78.41    6.57
  -6  -4  -7  120.39    9.36
  -6  -4  -8  203.32    9.42
  -6  -4  -8  295.18   13.10
   6   4   8  279.10   12.97
  -6  -4  -9    7.22    9.79
   6   4   9    7.93    7.23
   6   4  10  143.17   13.00
  -6  -4 -10  125.22   12.09
   6   4  11    1.15   11.85
  -6  -4 -11    8.10   10.70
  -6  -4 -12   90.90    9.55
   6   4  12  129.49   14.84
  -6  -4 -13   22.38   10.47
   6   4  13   27.95   11.43
   6   5   0  123.97    6.98
  -6  -5   0  142.03    7.25
  -6  -5   0  108.36    6.78
  -6  -5  -1  569.05   15.78
  -6  -5  -1  676.97   18.31
  -6  -5  -2   -1.73    6.70
  -6  -5  -2    2.38    7.70
  -6  -5  -3   52.35    7.00
  -6  -5  -3   52.76    7.44
  -6  -5  -4  356.41   11.61
  -6  -5  -4  409.28   12.34
  -6  -5  -5  930.61   20.56
  -6  -5  -5 1137.47   26.94
   6   5   5 1173.22   27.99
  -6  -5  -6   22.70    9.38
  -6  -5  -6   13.45    6.45
   6   5   6   14.51    6.37
   6   5   7  340.09   12.77
  -6  -5  -7  338.53   12.83
  -6  -5  -7  363.62   13.19
  -6  -5  -8  351.38   13.41
  -6  -5  -8  289.78   10.29
   6   5   8  366.83   13.64
  -6  -5  -9    9.91    9.73
   6   5   9    7.99    9.58
   6   5  10   11.45   11.21
  -6  -5 -10    7.71    7.83
   6   5  11   43.56   12.26
  -6  -5 -11   41.07   11.66
   6   5  12  300.44   16.58
  -6  -5 -12  376.36   16.41
  -6  -5 -13   75.67   14.82
   6   5  13   81.23   15.88
  -6  -6   0 1149.99   30.92
  -6  -6   0 1092.06   28.95
  -6  -6  -1   10.85    8.14
  -6  -6  -1    9.52    5.85
  -6  -6  -2   17.38    7.93
  -6  -6  -2   12.24    5.84
  -6  -6  -3  526.54   16.72
  -6  -6  -3  565.84   17.86
  -6  -6  -4    8.47    5.52
  -6  -6  -4    8.81    5.71
  -6  -6  -5   10.53    5.82
  -6  -6  -5   10.57    7.94
   6   6   5    7.89    5.76
   6   6   6    2.33    8.38
  -6  -6  -6   13.38    8.27
  -6  -6  -6    5.22    6.09
  -6  -6  -7  215.80   10.59
  -6  -6  -7  190.10    8.37
   6   6   7  230.82   10.73
  -6  -6  -8   70.73   10.14
   6   6   8   83.42   10.25
  -6  -6  -8   74.08    8.09
  -6  -6  -9    6.10    7.40
  -6  -6  -9    9.12   10.77
   6   6   9   -3.45    7.36
  -6  -6 -10    4.76   10.69
   6   6  10   -3.98    7.54
   6   6  11   29.24   12.21
  -6  -6 -11   40.13   12.19
   6   6  12  117.72   10.68
  -6  -6 -12  123.02   10.51
  -6  -7   0   20.24    7.42
  -6  -7   0   13.86   11.19
  -6  -7  -1  255.75    9.89
  -6  -7  -1  323.33   13.19
  -6  -7  -2   94.63    9.91
  -6  -7  -2   88.98    7.08
  -6  -7  -3   69.31    9.24
  -6  -7  -3   47.28    6.59
  -6  -7  -4    6.12    6.23
  -6  -7  -4   12.62    6.26
  -6  -7  -5  184.39   10.85
  -6  -7  -5  181.30   10.44
  -6  -7  -6   48.27    9.37
  -6  -7  -6   37.82    6.98
   6   7   6   56.67    9.48
  -6  -7  -7    9.72    9.43
  -6  -7  -7   20.44    9.73
   6   7   7   16.61    9.56
   6   7   8  302.77   12.99
  -6  -7  -8  300.89   12.96
  -6  -7  -8  331.99   13.69
  -6  -7  -9   57.72    8.20
   6   7   9   43.76    8.26
  -6  -7  -9   55.05    8.43
  -6  -7 -10   47.79   11.73
   6   7  10   25.07    8.08
   6   7  11   31.24   13.10
  -6  -7 -11   54.40   13.23
  -6  -8   0  103.06    8.99
  -6  -8   0  118.68   13.75
  -6  -8  -1   21.19    9.05
  -6  -8  -1    7.16    8.29
  -6  -8  -2   12.31   10.75
  -6  -8  -2   12.31    7.04
  -6  -8  -3  147.69    8.53
  -6  -8  -3  192.00   11.56
  -6  -8  -4   21.81    9.86
  -6  -8  -4   10.66   10.05
  -6  -8  -5  101.85   10.70
  -6  -8  -5  115.68   10.74
  -6  -8  -6   10.07    7.19
  -6  -8  -6   16.88   10.12
   6   8   6   23.59   10.15
   6   8   7  212.62   12.37
  -6  -8  -7  214.95   12.23
  -6  -8  -7  159.83    9.04
  -6  -8  -8    4.79   10.57
  -6  -8  -8   14.63    7.59
   6   8   8   -2.20   10.73
  -6  -8  -9    3.45   12.13
   6   8   9    5.99   12.36
  -6  -8  -9   13.20   12.48
  -6  -8 -10    4.20   12.43
   6   8  10   17.74   12.47
  -6  -8 -10   19.17   12.63
  -7   3  -1   64.48   26.57
  -7   3  -1   73.71   27.28
  -7   2  -1   46.87   15.94
  -7   2  -1   23.30   22.80
  -7   2  -2    2.80   18.33
  -7   2  -2    1.39   18.87
  -7   2  -3    1.49   26.60
  -7   2  -3    5.91   19.33
  -7   1  -1  125.74   14.15
  -7   1  -1   95.82   14.88
  -7   1  -2  334.45   18.73
  -7   1  -2  268.14   19.62
  -7   1  -3  114.64   16.68
  -7   1  -3   81.43   17.72
  -7   1  -4   94.25   16.38
  -7   1  -4   77.79   17.61
  -7   1  -5   70.37   17.21
  -7   1  -5   75.85   15.94
  -7   1  -6   48.84   17.20
  -7   1  -6   47.04   18.38
  -7   1  -7  474.75   58.06
  -7   1  -7  411.52   43.32
  -7   1  -8   67.91   30.00
  -7   1  -8   68.56   24.10
  -7   0   0  377.92   17.81
   7   0   0  349.45   16.95
  -7   0   0  319.44   16.47
  -7   0  -1    7.16   10.12
  -7   0  -1    3.87    7.39
  -7   0  -2   74.59   11.19
  -7   0  -2   70.16   10.96
  -7   0  -3  411.92   18.31
  -7   0  -3  357.87   18.19
  -7   0  -4    4.49   11.91
  -7   0  -4   -2.95   11.17
  -7   0  -5   34.21   11.94
  -7   0  -5   40.42   14.86
  -7   0  -6   19.83   11.44
  -7   0  -6   20.85   11.80
  -7   0  -7   85.07   13.15
  -7   0  -7   77.51   12.71
  -7   0  -8  101.22   17.40
  -7   0  -8   84.63   15.14
  -7   0  -9   92.74   16.53
  -7   0  -9  134.55   23.60
  -7   0 -10   30.02   17.27
  -7   0 -10   29.18   18.20
  -7  -1   0    4.75    9.54
   7   1   0   13.88    6.59
  -7  -1   0   15.88    9.23
   7   1   1  137.71   11.04
  -7  -1  -1   97.69    8.17
  -7  -1  -1  138.81   10.85
  -7  -1  -2  441.48   17.30
  -7  -1  -2  390.32   16.50
  -7  -1  -3  310.52   14.67
  -7  -1  -3  313.60   15.09
  -7  -1  -4    5.28   10.17
  -7  -1  -4    7.48    9.87
  -7  -1  -5    3.37    9.81
  -7  -1  -5   11.80   10.06
  -7  -1  -6   82.37   11.87
  -7  -1  -6   87.05   11.82
  -7  -1  -7   47.92   11.22
  -7  -1  -7   63.53   11.83
  -7  -1  -8   18.88   10.43
  -7  -1  -8   16.32   10.95
  -7  -1  -9   41.05   12.50
  -7  -1  -9   29.11   12.51
   7   1   9   28.09   12.41
  -7  -1 -10  169.31   18.77
  -7  -1 -10  185.99   18.71
   7   1  10  179.12   17.63
   7   2   0   -1.40    6.14
  -7  -2   0   -7.99    8.87
  -7  -2   0   -0.59    8.61
   7   2   1  153.38    8.32
  -7  -2  -1  172.89    8.78
  -7  -2  -1  172.64    8.61
  -7  -2  -2  614.57   19.50
  -7  -2  -2  593.69   19.71
  -7  -2  -3   63.56    7.29
  -7  -2  -3   79.82   10.22
  -7  -2  -4  105.51   10.64
  -7  -2  -4  119.06   10.83
  -7  -2  -5 1372.42   42.86
  -7  -2  -5 1391.14   41.06
  -7  -2  -6   -8.68    9.31
  -7  -2  -6   -1.90   10.23
  -7  -2  -7   20.70   10.58
  -7  -2  -7   17.43   11.78
  -7  -2  -8   78.93   11.58
   7   2   8   84.94   11.53
  -7  -2  -8   91.78   12.14
  -7  -2  -9  188.15   11.78
   7   2   9  289.77   16.66
  -7  -2  -9  279.80   16.70
   7   2  10   19.85   13.78
  -7  -2 -10   22.20   13.64
  -7  -2 -10   38.12   12.35
  -7  -2 -11   58.89   14.76
  -7  -2 -11   53.86   16.72
   7   2  11   48.15   16.65
   7   3   0  423.44   14.67
  -7  -3   0  459.31   15.52
  -7  -3   0  432.32   14.49
  -7  -3  -1   42.84    6.67
  -7  -3  -1   51.03    6.39
  -7  -3  -2   47.59    6.72
  -7  -3  -2   58.94    9.08
  -7  -3  -3   35.52    9.02
  -7  -3  -3   25.55    9.35
  -7  -3  -4  417.80   15.11
  -7  -3  -4  455.78   14.78
  -7  -3  -5   30.36    9.97
  -7  -3  -5   30.17    9.39
  -7  -3  -6  236.06   10.22
  -7  -3  -6  399.45   15.39
  -7  -3  -7   97.86   10.22
   7   3   7  108.36   10.29
  -7  -3  -7   88.69    7.90
  -7  -3  -8   72.96   11.61
  -7  -3  -8   72.03   12.21
   7   3   8   46.91    8.45
  -7  -3  -9   57.07   11.97
  -7  -3  -9   34.94    8.24
   7   3   9   35.66    8.48
  -7  -3 -10  257.73   16.75
   7   3  10  257.27   16.64
  -7  -3 -10  251.20   15.70
  -7  -3 -11  122.14   17.34
   7   3  11  132.74   17.15
  -7  -3 -11  115.79   14.81
   7   4   0   91.45   10.09
  -7  -4   0   93.84   10.26
  -7  -4   0   94.56    9.87
  -7  -4  -1  680.60   19.33
  -7  -4  -1  594.91   17.26
  -7  -4  -2    2.35    6.22
  -7  -4  -2    0.21    8.54
  -7  -4  -3  111.06    7.12
  -7  -4  -3  124.07    7.30
  -7  -4  -4   25.56    8.54
  -7  -4  -4   31.55    8.97
  -7  -4  -5  362.92   13.76
  -7  -4  -5  391.77   12.78
  -7  -4  -6   19.31    8.98
  -7  -4  -6   15.73    9.55
  -7  -4  -7   98.95    8.61
   7   4   7  132.79   11.22
  -7  -4  -7  159.71   12.55
  -7  -4  -8   26.79    8.19
   7   4   8   44.99   11.48
  -7  -4  -8   50.01   11.73
  -7  -4  -9  159.53   13.12
  -7  -4  -9  184.47   13.26
   7   4   9  127.79    9.40
  -7  -4 -10   70.95   14.25
   7   4  10   69.18   14.19
  -7  -4 -10   78.02   13.14
  -7  -4 -11   10.16   11.27
   7   4  11   13.62   15.03
  -7  -4 -11    5.33   13.20
   7   4  12  106.26   12.65
  -7  -5   0  481.09   14.04
  -7  -5   0  438.44   13.11
  -7  -5  -1   22.55    9.79
  -7  -5  -1   21.97    9.44
  -7  -5  -2   13.82    6.78
  -7  -5  -2    3.85    9.93
  -7  -5  -3  175.64   11.02
  -7  -5  -3  140.04    8.23
  -7  -5  -4    2.99    6.69
  -7  -5  -4   -7.13    7.09
  -7  -5  -5   33.07    7.48
  -7  -5  -5   52.29    9.37
  -7  -5  -6   78.54   10.53
  -7  -5  -6   59.08    7.83
  -7  -5  -7   99.15   11.15
   7   5   7  109.72   11.17
  -7  -5  -7  113.88   11.63
  -7  -5  -8    7.13   11.05
   7   5   8    0.07   11.03
  -7  -5  -8   13.86    7.99
  -7  -5  -9    2.67    9.12
  -7  -5  -9   -3.23    9.09
   7   5   9    8.73    9.03
  -7  -5 -10   -5.86   13.42
   7   5  10   -2.42   13.26
  -7  -5 -10  -11.90   12.70
  -7  -5 -11   11.56   11.14
   7   5  11   18.48   15.58
  -7  -5 -11   26.99   14.19
  -7  -6   0   55.34    7.84
  -7  -6   0   60.46   10.92
  -7  -6  -1   86.40   11.21
  -7  -6  -1   59.98    7.89
  -7  -6  -2  218.09   11.18
  -7  -6  -2  156.78    8.46
  -7  -6  -3  297.37   10.89
  -7  -6  -3  344.79   11.91
  -7  -6  -4   39.98    6.61
  -7  -6  -4   32.47    7.02
  -7  -6  -5   31.77    9.69
  -7  -6  -5   23.99    9.57
  -7  -6  -6  -12.47    9.71
  -7  -6  -6    8.73    9.83
  -7  -6  -7  282.55   12.69
   7   6   7  269.38   12.74
  -7  -6  -7  215.27    9.34
  -7  -6  -8  118.97    9.34
   7   6   8  126.21    9.24
  -7  -6  -8  117.04    9.51
  -7  -6  -9   99.58   12.96
  -7  -6  -9   72.14    9.18
   7   6   9   79.13   12.77
  -7  -6 -10  540.37   20.79
   7   6  10  517.90   20.31
  -7  -6 -10  391.47   14.92
  -7  -6 -11  335.20   17.88
   7   6  11  295.44   17.44
  -7  -6 -11  328.28   17.29
  -7  -7   0    0.03    8.49
  -7  -7  -1   13.25    8.55
  -7  -7  -1   17.47    8.55
  -7  -7  -2  137.98   11.46
  -7  -7  -2  150.65   12.37
  -7  -7  -3  252.24   12.99
  -7  -7  -3  224.45   10.22
  -7  -7  -4    9.06   10.16
  -7  -7  -4    6.76    7.35
  -7  -7  -5  150.20    8.83
  -7  -7  -5  124.73    8.38
  -7  -7  -6  133.12   11.38
  -7  -7  -6  120.82    8.43
  -7  -7  -7  110.62   11.41
  -7  -7  -7  124.23   11.83
   7   7   7  100.05   11.55
  -7  -7  -8   54.37    8.23
  -7  -7  -8   59.09    9.44
   7   7   8   53.79    8.26
  -7  -7  -9  152.01   14.14
  -7  -7  -9  168.57   14.52
   7   7   9  161.20   14.08
   7   7  10   40.10   13.60
  -7  -7 -10   50.13   13.67
  -7  -7 -10   40.72    9.82
  -7  -8  -4   71.96    8.63
  -7  -8  -4   85.75   11.79
  -7  -8  -5   32.14   11.52
  -7  -8  -5   46.10    8.31
  -7  -8  -6   12.79   11.45
  -7  -8  -6   11.19   11.55
  -7  -8  -7   97.82    9.05
   7   8   7  111.05    9.35
  -8   1  -1   15.92   17.55
  -8   1  -1   11.74   19.50
  -8   1  -2  111.85   26.04
  -8   1  -2  202.94   24.52
  -8   1  -3  447.09   36.27
  -8   1  -3  233.11   27.43
  -8   1  -4   50.75   18.39
  -8   1  -4   27.68   19.93
   8   0   0    6.34   11.25
  -8   0   0   -2.73   17.15
  -8   0   0   12.22   16.36
  -8   0  -1    1.33   16.51
  -8   0  -1   -1.55   15.79
  -8   0  -2   25.06   14.83
  -8   0  -2   19.08   14.87
  -8   0  -3  550.97   31.94
  -8   0  -3  668.04   29.39
  -8   0  -4   18.22   15.89
  -8   0  -4   16.58   15.30
  -8   0  -5   -4.10   16.44
  -8   0  -5    2.44   19.20
  -8   0  -6  184.21   23.19
  -8   0  -6  165.59   21.09
   8   1   0   -1.53   13.35
  -8  -1   0   17.68   13.39
  -8  -1   0    7.15    9.46
  -8  -1  -1   48.29   13.95
  -8  -1  -1   38.58   13.59
  -8  -1  -2   97.95   14.36
  -8  -1  -2   81.93   13.97
  -8  -1  -3  148.64   15.23
  -8  -1  -3  139.56   14.70
  -8  -1  -4    0.85    9.77
  -8  -1  -4    1.92    9.34
  -8  -1  -5  312.49   19.38
  -8  -1  -5  254.04   18.75
  -8  -1  -6    3.48   13.84
  -8  -1  -6    4.28   12.90
  -8  -1  -7  129.94   17.16
  -8  -1  -7  146.22   17.89
  -8  -1  -8   -0.14   13.89
  -8  -1  -8   -6.75   14.65
   8   2   0  151.66   13.40
  -8  -2   0  137.75   13.61
  -8  -2   0  141.02   13.51
  -8  -2  -1   18.96   12.56
  -8  -2  -1   15.94    9.15
  -8  -2  -2   19.25   12.76
  -8  -2  -2    3.12   12.56
  -8  -2  -3    2.84   12.98
  -8  -2  -3   10.49   12.62
  -8  -2  -4    5.79   12.91
  -8  -2  -4    4.25   12.68
  -8  -2  -5   -1.11   13.23
  -8  -2  -5    2.60   12.54
  -8  -2  -6   23.59   12.47
  -8  -2  -6   45.21   13.59
  -8  -2  -7    1.51    8.44
  -8  -2  -7   15.01   13.23
  -8  -2  -8   61.74   10.21
  -8  -2  -8  112.91   16.03
  -8  -2  -9    6.91   13.66
  -8  -2  -9    4.66   14.46
   8   3   0    0.19   11.33
  -8  -3   0   -1.71   11.47
  -8  -3   0    2.71   11.60
  -8  -3  -1  514.37   19.52
  -8  -3  -1  513.22   19.25
  -8  -3  -2  119.03    9.82
  -8  -3  -2  162.86   13.33
  -8  -3  -3   93.04    9.46
  -8  -3  -3  136.88   13.25
  -8  -3  -4  160.46   13.79
  -8  -3  -4  119.86    9.84
  -8  -3  -5  149.76   10.43
  -8  -3  -5  168.97   10.68
  -8  -3  -6   24.25   12.08
  -8  -3  -6   26.96    9.17
  -8  -3  -7  120.32   13.07
  -8  -3  -7  138.09   14.43
  -8  -3  -8  114.17    9.98
  -8  -3  -8  184.79   15.93
  -8  -3  -9   11.80   14.16
  -8  -3  -9  -10.83   14.85
  -8  -4   0  299.10   12.54
  -8  -4   0  383.15   16.70
  -8  -4  -1    6.60   11.30
  -8  -4  -1   -4.18   11.32
  -8  -4  -2   53.72   12.08
  -8  -4  -2   56.02   12.01
  -8  -4  -3  240.59   10.95
  -8  -4  -3  322.85   15.08
  -8  -4  -4   12.76   11.70
  -8  -4  -4   12.84    8.27
  -8  -4  -5    5.60    8.57
  -8  -4  -5   14.49   11.84
  -8  -4  -6    3.74    8.25
  -8  -4  -6   -2.65   12.29
  -8  -4  -7  216.78   14.32
  -8  -4  -7  165.28   10.54
  -8  -4  -8  128.54   14.24
  -8  -4  -8  137.87   15.16
  -8  -4  -9   -0.68   10.31
  -8  -4  -9   -8.56   14.83
   8   4   9    7.25   10.15
  -8  -5   0   10.15   12.25
  -8  -5   0    9.02    8.51
  -8  -5  -1  222.05   14.09
  -8  -5  -1  210.80   13.93
  -8  -5  -2   27.81    9.11
  -8  -5  -2   31.78   11.94
  -8  -5  -3   17.01    8.12
  -8  -5  -3   30.26   11.26
  -8  -5  -4   22.27   11.61
  -8  -5  -4   40.98   11.59
  -8  -5  -5  137.51    9.12
  -8  -5  -5  190.58   13.20
  -8  -5  -6   -2.96   11.75
  -8  -5  -6    3.31   11.80
  -8  -5  -7   33.83    8.90
  -8  -5  -7   61.38   13.23
  -8  -5  -8  318.53   17.40
  -8  -5  -8  346.33   17.39
  -8  -5  -9    0.61   10.35
  -8  -5  -9    9.23   10.19
   8   5   9   13.03   10.22
  -8  -6  -2   19.39   12.36
  -8  -6  -2    0.01   12.30
  -8  -6  -3  343.07   15.91
  -8  -6  -3  350.60   15.94
  -8  -6  -4    6.22   12.48
  -8  -6  -4    2.74   12.44
  -8  -6  -5   80.49   12.99
  -8  -6  -5   79.13   12.93
  -8  -6  -6   63.64    9.61
  -8  -6  -6   99.97   13.23
  -8  -6  -7  132.30   14.03
  -8  -6  -7  126.99   13.76
  -8  -6  -8    8.61    9.94
  -8  -6  -8   21.54    9.66
;
_shelx_hkl_checksum              40759
_shelx_res_file
;
TITL TA6CUII   IPDS  -50DEGC
    G:\I_ta6cu2_010220\mulabs\ta6cu2_pl.res
    created by SHELXL-2018/3 at 15:35:18 on 08-May-2020
CELL  0.71073  7.20900  8.14220 12.39040 71.84200 74.70200 72.69400
ZERR 1  0.00070  0.00080  0.00140  0.01200  0.01200  0.01200
LATT 1
SFAC C H BR CU N S
UNIT 16 24 4 2 2 6
TEMP -50
SIZE    0.0300    0.2000    0.2000
L.S. 11
FMAP 2
PLAN 20
ACTA
CONF
BOND $H
EADP C5 C2 C1 N1
EADP C8 c4 c6
HTAB
WGHT    0.101900
FVAR       0.43698
BR1   3    0.193068    0.198266    0.453996    11.00000    0.02697    0.03348 =
         0.02669    0.01138   -0.00432   -0.01156
CU1   4    0.388398    0.358709    0.294767    11.00000    0.01939    0.00845 =
         0.01940   -0.00131   -0.00321   -0.00364
S1    6    0.166966    0.637880    0.285282    11.00000    0.02155    0.01716 =
         0.02015   -0.00525   -0.00128    0.00184
S2    6    0.611512    0.463852    0.363097    11.00000    0.02810    0.01155 =
         0.02235   -0.00602   -0.00947   -0.00282
S3    6    0.648072    0.111994    0.273134    11.00000    0.02697    0.00511 =
         0.01948    0.00048   -0.00851   -0.00252
N1    5    0.454646    0.443875    0.118409    11.00000    0.02231    0.00649 =
         0.02193   -0.00526   -0.00883   -0.00337
C1    1    0.592220    0.338054    0.057331    11.00000    0.02231    0.00649 =
         0.02193   -0.00526   -0.00883   -0.00337
C2    1    0.361775    0.604619    0.062827    11.00000    0.02231    0.00649 =
         0.02193   -0.00526   -0.00883   -0.00337
C3    1    0.205403    0.722930    0.129546    11.00000    0.02882    0.01210 =
         0.01444   -0.00584   -0.00715    0.00822
AFIX  23
H3A   2    0.080095    0.744824    0.104611    11.00000   -1.20000
H3B   2    0.240502    0.837592    0.109580    11.00000   -1.20000
AFIX   0
C4    1    0.304162    0.756145    0.327019    11.00000    0.03106    0.01145 =
         0.02232   -0.00473   -0.01008   -0.00151
AFIX  23
H4A   2    0.262709    0.883424    0.290981    11.00000   -1.20000
H4B   2    0.267942    0.739951    0.411020    11.00000   -1.20000
AFIX   0
C5    1    0.530280    0.697839    0.293979    11.00000    0.02231    0.00649 =
         0.02193   -0.00526   -0.00883   -0.00337
AFIX  23
H5A   2    0.592228    0.768345    0.318918    11.00000   -1.20000
H5B   2    0.570091    0.717761    0.209820    11.00000   -1.20000
AFIX   0
C6    1    0.827961    0.383573    0.262362    11.00000    0.03106    0.01145 =
         0.02232   -0.00473   -0.01008   -0.00151
AFIX  23
H6A   2    0.808898    0.438922    0.182395    11.00000   -1.20000
H6B   2    0.945536    0.410333    0.272072    11.00000   -1.20000
AFIX   0
C7    1    0.850602    0.180884    0.291796    11.00000    0.02429    0.01093 =
         0.03499   -0.00416   -0.01967    0.00181
AFIX  23
H7A   2    0.867485    0.130400    0.372431    11.00000   -1.20000
H7B   2    0.971846    0.130109    0.243159    11.00000   -1.20000
AFIX   0
C8    1    0.690417    0.157350    0.117347    11.00000    0.03106    0.01145 =
         0.02232   -0.00473   -0.01008   -0.00151
AFIX  23
H8A   2    0.833237    0.139237    0.087755    11.00000   -1.20000
H8B   2    0.644904    0.070380    0.097392    11.00000   -1.20000
AFIX   0
BR2   3    0.216526    0.207724    0.023980    11.00000    0.02470    0.02102 =
         0.03849   -0.01273   -0.00414   -0.00730
HKLF 4
REM  TA6CUII   IPDS  -50DEGC
REM wR2 = 0.1529, GooF = S = 1.006, Restrained GooF = 1.006 for all data
REM R1 = 0.0600 for 1843 Fo > 4sig(Fo) and 0.0696 for all 2320 data
REM 106 parameters refined using 0 restraints
END
WGHT      0.1037      0.0000
REM Instructions for potential hydrogen bonds
EQIV $2 -x, -y+1, -z
HTAB C3 Br2_$2
EQIV $3 x, y+1, z
HTAB C3 Br2_$3
EQIV $4 -x+1, -y+1, -z+1
HTAB C4 S2_$4
HTAB C5 S3_$3
EQIV $1 -x+1, -y+1, -z
HTAB C5 Br2_$1
EQIV $5 x+1, y, z
HTAB C6 Br1_$5
HTAB C6 S1_$5
HTAB C7 Br1_$5
EQIV $6 -x+1, -y, -z+1
HTAB C7 Br1_$6
HTAB C7 Br2_$5
HTAB C8 Br2_$5
EQIV $7 -x+1, -y, -z
HTAB C8 Br2_$7
REM Highest difference peak  1.648,  deepest hole -1.673,  1-sigma level  0.282
Q1    1   0.2721  0.2578  0.3774  11.00000  0.05    1.65
Q2    1   0.1362  0.1736  0.1012  11.00000  0.05    1.59
Q3    1   0.4514  0.3960  0.2161  11.00000  0.05    1.32
Q4    1   0.2995  0.2554 -0.0565  11.00000  0.05    1.28
Q5    1   0.0999  0.1734  0.5356  11.00000  0.05    1.26
Q6    1   0.4069  0.3649  0.2046  11.00000  0.05    1.22
Q7    1   0.7136  0.1374  0.1931  11.00000  0.05    1.12
Q8    1   0.1908  0.6690  0.2026  11.00000  0.05    1.06
Q9    1   0.3415  0.1674  0.0640  11.00000  0.05    0.96
Q10   1   0.3190  0.1658  0.5045  11.00000  0.05    0.92
Q11   1   0.2504  0.4068  0.2412  11.00000  0.05    0.90
Q12   1   0.6930  0.5212  0.2851  11.00000  0.05    0.89
Q13   1   0.7482  0.4459  0.3027  11.00000  0.05    0.83
Q14   1   0.4072  0.7596  0.3004  11.00000  0.05    0.82
Q15   1   0.0739  0.6031  0.3554  11.00000  0.05    0.80
Q16   1   0.5633  0.4202  0.4376  11.00000  0.05    0.79
Q17   1   0.6229  0.2101  0.1200  11.00000  0.05    0.77
Q18   1   0.1076  0.7659  0.5261  11.00000  0.05    0.77
Q19   1   0.0711  0.2425  0.0061  11.00000  0.05    0.76
Q20   1   0.5280  0.3235  0.3281  11.00000  0.05    0.75
;
_shelx_res_checksum              67553
loop_
_space_group_symop_operation_xyz
'x, y, z'
'-x, -y, -z'
loop_
_atom_site_type_symbol
_atom_site_label
_atom_site_fract_x
_atom_site_fract_y
_atom_site_fract_z
_atom_site_U_iso_or_equiv
_atom_site_adp_type
_atom_site_calc_flag
_atom_site_occupancy
_atom_site_disorder_assembly
_atom_site_disorder_group
Br Br1 0.19307(12) 0.19827(12) 0.45400(7) 0.0328(3) Uani d 1 . .
Cu Cu1 0.38840(13) 0.35871(11) 0.29477(7) 0.0163(3) Uani d 1 . .
S S1 0.1670(3) 0.6379(2) 0.28528(15) 0.0215(4) Uani d 1 . .
S S2 0.6115(3) 0.4639(2) 0.36310(15) 0.0197(4) Uani d 1 . .
S S3 0.6481(3) 0.1120(2) 0.27313(15) 0.0175(4) Uani d 1 . .
N N1 0.4546(9) 0.4439(7) 0.1184(5) 0.0156(7) Uani d 1 . .
C C1 0.5922(11) 0.3381(9) 0.0573(6) 0.0156(7) Uani d 1 . .
C C2 0.3618(10) 0.6046(9) 0.0628(6) 0.0156(7) Uani d 1 . .
C C3 0.2054(11) 0.7229(9) 0.1295(6) 0.0202(16) Uani d 1 . .
H H3A 0.080095 0.744824 0.104611 0.024 Uiso calc 1 . .
H H3B 0.240502 0.837592 0.109580 0.024 Uiso calc 1 . .
C C4 0.3042(11) 0.7561(10) 0.3270(6) 0.0213(9) Uani d 1 . .
H H4A 0.262709 0.883424 0.290981 0.026 Uiso calc 1 . .
H H4B 0.267942 0.739951 0.411020 0.026 Uiso calc 1 . .
C C5 0.5303(11) 0.6978(9) 0.2940(6) 0.0156(7) Uani d 1 . .
H H5A 0.592228 0.768345 0.318918 0.019 Uiso calc 1 . .
H H5B 0.570091 0.717761 0.209820 0.019 Uiso calc 1 . .
C C6 0.8280(12) 0.3836(9) 0.2624(6) 0.0213(9) Uani d 1 . .
H H6A 0.808898 0.438922 0.182395 0.026 Uiso calc 1 . .
H H6B 0.945536 0.410333 0.272072 0.026 Uiso calc 1 . .
C C7 0.8506(11) 0.1809(9) 0.2918(7) 0.0223(16) Uani d 1 . .
H H7A 0.867485 0.130400 0.372431 0.027 Uiso calc 1 . .
H H7B 0.971846 0.130109 0.243159 0.027 Uiso calc 1 . .
C C8 0.6904(12) 0.1574(9) 0.1173(6) 0.0213(9) Uani d 1 . .
H H8A 0.833237 0.139237 0.087755 0.026 Uiso calc 1 . .
H H8B 0.644904 0.070380 0.097392 0.026 Uiso calc 1 . .
Br Br2 0.21653(11) 0.20772(10) 0.02398(7) 0.0267(3) Uani d 1 . .
loop_
_atom_site_aniso_label
_atom_site_aniso_U_11
_atom_site_aniso_U_22
_atom_site_aniso_U_33
_atom_site_aniso_U_12
_atom_site_aniso_U_13
_atom_site_aniso_U_23
Br1 0.0270(5) 0.0335(5) 0.0267(5) -0.0116(4) -0.0043(3) 0.0114(3)
Cu1 0.0194(5) 0.0085(5) 0.0194(5) -0.0036(4) -0.0032(4) -0.0013(3)
S1 0.0215(10) 0.0172(10) 0.0201(9) 0.0018(8) -0.0013(7) -0.0053(7)
S2 0.0281(10) 0.0115(9) 0.0223(9) -0.0028(8) -0.0095(8) -0.0060(7)
S3 0.0270(10) 0.0051(8) 0.0195(8) -0.0025(8) -0.0085(7) 0.0005(6)
N1 0.0223(18) 0.0065(15) 0.0219(16) -0.0034(14) -0.0088(13) -0.0053(12)
C1 0.0223(18) 0.0065(15) 0.0219(16) -0.0034(14) -0.0088(13) -0.0053(12)
C2 0.0223(18) 0.0065(15) 0.0219(16) -0.0034(14) -0.0088(13) -0.0053(12)
C3 0.029(4) 0.012(4) 0.014(3) 0.008(3) -0.007(3) -0.006(3)
C4 0.031(3) 0.011(2) 0.022(2) -0.002(2) -0.0101(19) -0.0047(17)
C5 0.0223(18) 0.0065(15) 0.0219(16) -0.0034(14) -0.0088(13) -0.0053(12)
C6 0.031(3) 0.011(2) 0.022(2) -0.002(2) -0.0101(19) -0.0047(17)
C7 0.024(4) 0.011(4) 0.035(4) 0.002(3) -0.020(3) -0.004(3)
C8 0.031(3) 0.011(2) 0.022(2) -0.002(2) -0.0101(19) -0.0047(17)
Br2 0.0247(4) 0.0210(4) 0.0385(5) -0.0073(4) -0.0041(3) -0.0127(3)
loop_
_atom_type_symbol
_atom_type_description
_atom_type_scat_dispersion_real
_atom_type_scat_dispersion_imag
_atom_type_scat_source
C C 0.0033 0.0016 'International Tables Vol C Tables 4.2.6.8 and 6.1.1.4'
H H 0.0000 0.0000 'International Tables Vol C Tables 4.2.6.8 and 6.1.1.4'
Br Br -0.2901 2.4595 'International Tables Vol C Tables 4.2.6.8 and 6.1.1.4'
Cu Cu 0.3201 1.2651 'International Tables Vol C Tables 4.2.6.8 and 6.1.1.4'
N N 0.0061 0.0033 'International Tables Vol C Tables 4.2.6.8 and 6.1.1.4'
S S 0.1246 0.1234 'International Tables Vol C Tables 4.2.6.8 and 6.1.1.4'
loop_
_geom_angle_atom_site_label_1
_geom_angle_atom_site_label_2
_geom_angle_atom_site_label_3
_geom_angle_site_symmetry_1
_geom_angle_site_symmetry_3
_geom_angle
_geom_angle_publ_flag
N1 Cu1 S1 . . 85.26(18) y
N1 Cu1 S3 . . 85.38(18) y
S3 Cu1 S1 . . 168.54(7) y
N1 Cu1 Br1 . . 145.45(15) y
S1 Cu1 Br1 . . 96.48(6) y
S3 Cu1 Br1 . . 94.97(6) y
N1 Cu1 S2 . . 104.48(15) y
S1 Cu1 S2 . . 88.79(7) y
S3 Cu1 S2 . . 87.17(7) y
Br1 Cu1 S2 . . 110.05(6) y
C3 S1 C4 . . 102.4(3) ?
C3 S1 Cu1 . . 98.5(2) ?
C4 S1 Cu1 . . 101.4(3) ?
C6 S2 C5 . . 104.4(3) ?
C6 S2 Cu1 . . 93.8(2) ?
C5 S2 Cu1 . . 96.5(2) ?
C7 S3 C8 . . 100.9(4) ?
C7 S3 Cu1 . . 101.0(2) ?
C8 S3 Cu1 . . 97.8(3) ?
C1 N1 C2 . . 119.4(6) ?
C1 N1 Cu1 . . 119.9(5) ?
C2 N1 Cu1 . . 120.7(5) ?
N1 C1 C2 . 2_665 120.2(7) ?
N1 C1 C8 . . 119.9(6) ?
C2 C1 C8 2_665 . 119.9(6) ?
N1 C2 C1 . 2_665 120.4(6) ?
N1 C2 C3 . . 120.1(6) ?
C1 C2 C3 2_665 . 119.5(7) ?
C2 C3 S1 . . 115.3(5) ?
C2 C3 H3A . . 108.4 ?
S1 C3 H3A . . 108.4 ?
C2 C3 H3B . . 108.4 ?
S1 C3 H3B . . 108.4 ?
H3A C3 H3B . . 107.5 ?
C5 C4 S1 . . 115.1(5) ?
C5 C4 H4A . . 108.5 ?
S1 C4 H4A . . 108.5 ?
C5 C4 H4B . . 108.5 ?
S1 C4 H4B . . 108.5 ?
H4A C4 H4B . . 107.5 ?
C4 C5 S2 . . 109.4(4) ?
C4 C5 H5A . . 109.8 ?
S2 C5 H5A . . 109.8 ?
C4 C5 H5B . . 109.8 ?
S2 C5 H5B . . 109.8 ?
H5A C5 H5B . . 108.3 ?
C7 C6 S2 . . 105.4(5) ?
C7 C6 H6A . . 110.7 ?
S2 C6 H6A . . 110.7 ?
C7 C6 H6B . . 110.7 ?
S2 C6 H6B . . 110.7 ?
H6A C6 H6B . . 108.8 ?
C6 C7 S3 . . 115.5(5) ?
C6 C7 H7A . . 108.4 ?
S3 C7 H7A . . 108.4 ?
C6 C7 H7B . . 108.4 ?
S3 C7 H7B . . 108.4 ?
H7A C7 H7B . . 107.5 ?
C1 C8 S3 . . 115.4(5) ?
C1 C8 H8A . . 108.4 ?
S3 C8 H8A . . 108.4 ?
C1 C8 H8B . . 108.4 ?
S3 C8 H8B . . 108.4 ?
H8A C8 H8B . . 107.5 ?
loop_
_geom_bond_atom_site_label_1
_geom_bond_atom_site_label_2
_geom_bond_site_symmetry_2
_geom_bond_distance
_geom_bond_publ_flag
Cu1 N1 . 2.046(6) y
Cu1 S1 . 2.346(2) y
Cu1 S2 . 2.4549(18) y
Cu1 S3 . 2.333(2) y
Cu1 Br1 . 2.3672(11) y
S1 C3 . 1.811(7) ?
S1 C4 . 1.822(7) ?
S2 C6 . 1.815(8) ?
S2 C5 . 1.814(7) ?
S3 C7 . 1.802(7) ?
S3 C8 . 1.808(7) ?
N1 C1 . 1.342(9) ?
N1 C2 . 1.340(9) ?
C1 C2 2_665 1.394(10) ?
C1 C8 . 1.482(11) ?
C2 C3 . 1.497(9) ?
C3 H3A . 0.9800 ?
C3 H3B . 0.9800 ?
C4 C5 . 1.536(10) ?
C4 H4A . 0.9800 ?
C4 H4B . 0.9800 ?
C5 H5A . 0.9800 ?
C5 H5B . 0.9800 ?
C6 C7 . 1.542(9) ?
C6 H6A . 0.9800 ?
C6 H6B . 0.9800 ?
C7 H7A . 0.9800 ?
C7 H7B . 0.9800 ?
C8 H8A . 0.9800 ?
C8 H8B . 0.9800 ?
loop_
_geom_hbond_atom_site_label_D
_geom_hbond_atom_site_label_H
_geom_hbond_atom_site_label_A
_geom_hbond_site_symmetry_A
_geom_hbond_distance_DH
_geom_hbond_distance_HA
_geom_hbond_distance_DA
_geom_hbond_angle_DHA
_geom_hbond_publ_flag
C6 H6B S1 1_655 0.98 2.85 3.753(9) 154 yes
C5 H5A S3 1_565 0.98 2.81 3.634(8) 143 yes
C3 H3A Br2 2_565 0.98 2.86 3.814(8) 165 yes
C3 H3B Br2 1_565 0.98 2.83 3.770(7) 160 yes
C5 H5B Br2 2_665 0.98 2.87 3.821(7) 164 yes
C7 H7B Br2 1_655 0.98 2.82 3.646(8) 142 yes
C8 H8A Br2 1_655 0.98 2.84 3.769(9) 159 yes
C8 H8B Br2 2_655 0.98 2.89 3.713(7) 142 yes
loop_
_geom_torsion_atom_site_label_1
_geom_torsion_atom_site_label_2
_geom_torsion_atom_site_label_3
_geom_torsion_atom_site_label_4
_geom_torsion_site_symmetry_1
_geom_torsion_site_symmetry_2
_geom_torsion_site_symmetry_3
_geom_torsion_site_symmetry_4
_geom_torsion
_geom_torsion_publ_flag
C2 N1 C1 C2 . . . 2_665 0.2(10) ?
Cu1 N1 C1 C2 . . . 2_665 -179.9(4) ?
C2 N1 C1 C8 . . . . -177.6(5) ?
Cu1 N1 C1 C8 . . . . 2.3(8) ?
C1 N1 C2 C1 . . . 2_665 -0.2(10) ?
Cu1 N1 C2 C1 . . . 2_665 179.9(4) ?
C1 N1 C2 C3 . . . . 178.9(6) ?
Cu1 N1 C2 C3 . . . . -1.0(8) ?
N1 C2 C3 S1 . . . . 3.6(8) ?
C1 C2 C3 S1 2_665 . . . -177.3(5) ?
C4 S1 C3 C2 . . . . 99.9(5) ?
Cu1 S1 C3 C2 . . . . -3.8(5) ?
C3 S1 C4 C5 . . . . -71.0(6) ?
Cu1 S1 C4 C5 . . . . 30.4(6) ?
S1 C4 C5 S2 . . . . -59.9(6) ?
C6 S2 C5 C4 . . . . 148.0(5) ?
Cu1 S2 C5 C4 . . . . 52.4(4) ?
C5 S2 C6 C7 . . . . -158.1(5) ?
Cu1 S2 C6 C7 . . . . -60.3(5) ?
S2 C6 C7 S3 . . . . 62.3(6) ?
C8 S3 C7 C6 . . . . 74.9(6) ?
Cu1 S3 C7 C6 . . . . -25.4(6) ?
N1 C1 C8 S3 . . . . -11.6(8) ?
C2 C1 C8 S3 2_665 . . . 170.6(5) ?
C7 S3 C8 C1 . . . . -89.9(6) ?
Cu1 S3 C8 C1 . . . . 13.0(5) ?

_cod_database_fobs_code 2243421
