#------------------------------------------------------------------------------
#$Date: 2020-07-01 08:32:32 +0300 (Wed, 01 Jul 2020) $
#$Revision: 253605 $
#$URL: file:///home/coder/svn-repositories/cod/cif/2/24/34/2243459.cif $
#------------------------------------------------------------------------------
#
# This file is available in the Crystallography Open Database (COD),
# http://www.crystallography.net/. The original data for this entry
# were provided by IUCr Journals, http://journals.iucr.org/.
#
# The file may be used within the scientific community so long as
# proper attribution is given to the journal article from which the
# data were obtained.
#
data_2243459
loop_
_publ_author_name
'Nashawi, Asma'
'Lawson, Christopher P.'
'Abdel-Sattar, M. Omar'
'ter Horst, Joop H.'
'Coxon, Geoffrey D.'
'Kennedy, Alan R.'
_publ_section_title
;
 Synthesis and crystal structures of
 3-hydroxy-2,4-dimethyl-2<i>H</i>-thiophen-5-one and
 3-hydroxy-4-methyl-2<i>H</i>-thiophen-5-one
;
_journal_coeditor_code           LH5954
_journal_issue                   7
_journal_name_full               'Acta Crystallographica Section E'
_journal_page_first              1158
_journal_page_last               1162
_journal_paper_doi               10.1107/S2056989020008269
_journal_volume                  76
_journal_year                    2020
_chemical_formula_iupac          'C5 H6 O2 S'
_chemical_formula_moiety         'C5 H6 O2 S'
_chemical_formula_sum            'C5 H6 O2 S'
_chemical_formula_weight         130.16
_chemical_name_systematic
;
3-Hydroxy-4-methyl-2<i>H</i>-thiophen-5-one
;
_space_group_crystal_system      monoclinic
_space_group_IT_number           14
_space_group_name_Hall           '-P 2ybc'
_space_group_name_H-M_alt        'P 1 21/c 1'
_atom_sites_solution_hydrogens   mixed
_audit_creation_method           SHELXL-2014/7
_cell_angle_alpha                90
_cell_angle_beta                 103.728(7)
_cell_angle_gamma                90
_cell_formula_units_Z            4
_cell_length_a                   4.1054(3)
_cell_length_b                   22.9727(13)
_cell_length_c                   6.1928(5)
_cell_measurement_reflns_used    1968
_cell_measurement_temperature    100(2)
_cell_measurement_theta_max      31.3560
_cell_measurement_theta_min      5.1810
_cell_volume                     567.37(7)
_computing_cell_refinement
;
CrysalisPro (Rigaku OD, 2019)
;
_computing_data_collection
;
CrysalisPro (Rigaku OD, 2019)
;
_computing_data_reduction
;
CrysalisPro (Rigaku OD, 2019)
;
_computing_molecular_graphics
;
Mercury (Macrae <i>et al.</i>,  2020) and ORTEP-3 for WIndows (Farrugia,
2012)
;
_computing_publication_material
;
SHELXL2014 (Sheldrick, 2015)
;
_computing_structure_refinement
;
SHELXL2014 (Sheldrick, 2015)
;
_computing_structure_solution
;
SIR92 (Altomare <i>et al.</i>,  1994)
;
_diffrn_ambient_temperature      100(2)
_diffrn_measured_fraction_theta_full 0.999
_diffrn_measured_fraction_theta_max 0.993
_diffrn_measurement_device_type  'Rigaku XtaLAB AFC12'
_diffrn_measurement_method       '\w scans'
_diffrn_radiation_type           MoK\a
_diffrn_radiation_wavelength     0.71073
_diffrn_reflns_av_R_equivalents  0.0261
_diffrn_reflns_av_unetI/netI     0.0115
_diffrn_reflns_limit_h_max       5
_diffrn_reflns_limit_h_min       -5
_diffrn_reflns_limit_k_max       29
_diffrn_reflns_limit_k_min       -29
_diffrn_reflns_limit_l_max       8
_diffrn_reflns_limit_l_min       -8
_diffrn_reflns_number            2121
_diffrn_reflns_theta_full        26.000
_diffrn_reflns_theta_max         27.499
_diffrn_reflns_theta_min         3.501
_diffrn_source                   'rotating anode'
_diffrn_standards_decay_%        0
_diffrn_standards_interval_count 0
_diffrn_standards_interval_time  0
_diffrn_standards_number         0
_exptl_absorpt_coefficient_mu    0.464
_exptl_absorpt_correction_T_max  1.00000
_exptl_absorpt_correction_T_min  0.76618
_exptl_absorpt_correction_type   multi-scan
_exptl_absorpt_process_details
;
(CrysAlisPro; Rigaku OD, 2019)
;
_exptl_crystal_colour            colourless
_exptl_crystal_density_diffrn    1.524
_exptl_crystal_description       needle
_exptl_crystal_F_000             272
_exptl_crystal_size_max          0.120
_exptl_crystal_size_mid          0.020
_exptl_crystal_size_min          0.010
_refine_diff_density_max         0.426
_refine_diff_density_min         -0.334
_refine_ls_extinction_method     none
_refine_ls_goodness_of_fit_ref   1.192
_refine_ls_hydrogen_treatment    mixed
_refine_ls_matrix_type           full
_refine_ls_number_parameters     79
_refine_ls_number_reflns         2121
_refine_ls_number_restraints     0
_refine_ls_restrained_S_all      1.192
_refine_ls_R_factor_all          0.0560
_refine_ls_R_factor_gt           0.0500
_refine_ls_shift/su_max          0.000
_refine_ls_shift/su_mean         0.000
_refine_ls_structure_factor_coef Fsqd
_refine_ls_weighting_details
'w=1/[\s^2^(Fo^2^)+(0.0078P)^2^+1.3568P] where P=(Fo^2^+2Fc^2^)/3'
_refine_ls_weighting_scheme      calc
_refine_ls_wR_factor_gt          0.1090
_refine_ls_wR_factor_ref         0.1132
_reflns_number_gt                1955
_reflns_number_total             2121
_reflns_threshold_expression     'I > 2\s(I)'
_cod_data_source_file            lh5954sup1.cif
_cod_data_source_block           5
_cod_original_sg_symbol_H-M      'P 21/c'
_cod_database_code               2243459
_shelx_space_group_comment
;
The symmetry employed for this shelxl refinement is uniquely defined
by the following loop, which should always be used as a source of
symmetry information in preference to the above space-group names.
They are only intended as comments.
;
_shelx_hkl_file
;
   0   0   2 745.647 4.94785  -2
   0   0   2 745.647 4.94785   1
   0   0   4 276.043 9.31410  -2
   0   0   4 276.043 9.31410   1
   0   0   6 3626.43 29.6007  -2
   0   0   6 3626.43 29.6007   1
   0  -1   1 5106.65 6.04292  -2
   0   1   1 5106.65 6.04292   1
   0  -1   2 12.1055 3.56847  -2
   0   1   2 12.1055 3.56847   1
   0  -1   3 1867.03 8.65332  -2
   0   1   3 1867.03 8.65332   1
   0   1   4 2050.05 12.0322  -2
   0  -1   4 2050.05 12.0322   1
   0   1   5 325.738 7.48899  -2
   0  -1   5 325.738 7.48899   1
   0   1   6 944.112 16.8157  -2
   0  -1   6 944.112 16.8157   1
   0  -1   7 124.775 15.3743  -2
   0   1   7 124.775 15.3743   1
   0  -2  -1 934.310 3.28994  -2
   0   2  -1 934.310 3.28994   1
   0   2   2 10620.5 14.4602  -2
   0  -2   2 10620.5 14.4602   1
   0   2   3 4589.67 12.6355  -2
   0  -2   3 4589.67 12.6355   1
   0  -2   4 90.5688 6.99457  -2
   0   2   4 90.5688 6.99457   1
   0  -2  -5 1762.32 9.75580  -2
   0   2  -5 1762.32 9.75580   1
   0   2   6 138.307 13.2848  -2
   0  -2   6 138.307 13.2848   1
   0  -2   7-19.0371 12.8351  -2
   0   2   7-19.0371 12.8351   1
   0  -3   1 6989.98 7.32104  -2
   0   3   1 6989.98 7.32104   1
   0   3   2 3567.12 8.33840  -2
   0  -3   2 3567.12 8.33840   1
   0   3   3 32.8087 6.11098  -2
   0  -3   3 32.8087 6.11098   1
   0   3  -4 2942.19 11.4000  -2
   0  -3  -4 2942.19 11.4000   1
   0   3  -5 202.199 6.81150  -2
   0  -3  -5 202.199 6.81150   1
   0   3  -6 1866.66 20.4024  -2
   0  -3  -6 1866.66 20.4024   1
   0  -3  -7 82.5523 13.3946  -2
   0   3  -7 82.5523 13.3946   1
   0  -4   0 20770.7 14.3632  -2
   0   4   0 20770.7 14.3632   1
   0   4   1 352.311 3.37015  -2
   0  -4   1 352.311 3.37015   1
   0   4   2 916.319 5.28464  -2
   0  -4   2 916.319 5.28464   1
   0   4  -3 3482.38 11.3238  -2
   0  -4  -3 3482.38 11.3238   1
   0   4   4 609.833 7.38653  -2
   0  -4   4 609.833 7.38653   1
   0  -4  -5 5054.69 13.8037  -2
   0   4  -5 5054.69 13.8037   1
   0  -4   6 320.728 13.4057  -2
   0   4   6 320.728 13.4057   1
   0   4  -7 132.552 13.4850  -2
   0  -4  -7 132.552 13.4850   1
   0   5   1 3830.80 8.11519  -2
   0  -5   1 3830.80 8.11519   1
   0  -5  -2 3921.68 8.61222  -2
   0   5  -2 3921.68 8.61222   1
   0   5  -3 2664.24 10.2311  -2
   0  -5  -3 2664.24 10.2311   1
   0  -5  -4 2055.22 9.76902  -2
   0   5  -4 2055.22 9.76902   1
   0   5  -5 174.547 7.46019  -2
   0  -5  -5 174.547 7.46019   1
   0   5   6 7.92782 9.85437  -2
   0  -5   6 7.92782 9.85437   1
   0  -5  -7 336.477 11.3676  -2
   0   5  -7 336.477 11.3676   1
   0  -6   0 242.634 4.05933  -2
   0   6   0 242.634 4.05933   1
   0   6  -1 634.608 4.48926  -2
   0  -6  -1 634.608 4.48926   1
   0  -6   2 445.984 4.98527  -2
   0   6   2 445.984 4.98527   1
   0  -6  -3 2383.79 9.72082  -2
   0   6  -3 2383.79 9.72082   1
   0  -6   4 13.9378 4.87956  -2
   0   6   4 13.9378 4.87956   1
   0  -6   5 2854.00 10.9420  -2
   0   6   5 2854.00 10.9420   1
   0   6  -6 84.3860 12.7148  -2
   0  -6  -6 84.3860 12.7148   1
   0   6  -7 438.039 13.3608  -2
   0  -6  -7 438.039 13.3608   1
   0   7   1 16443.1 18.9508  -2
   0  -7   1 16443.1 18.9508   1
   0  -7  -2 12.0121 4.74523  -2
   0   7  -2 12.0121 4.74523   1
   0  -7   3 948.673 6.29664  -2
   0   7   3 948.673 6.29664   1
   0   7  -4 1069.39 7.77807  -2
   0  -7  -4 1069.39 7.77807   1
   0   7   5 243.453 9.10121  -2
   0  -7   5 243.453 9.10121   1
   0  -7   6 671.677 13.0823  -2
   0   7   6 671.677 13.0823   1
   0  -7   7 1393.36 14.2629  -2
   0   7   7 1393.36 14.2629   1
   0  -8   0 3467.06 10.2957  -2
   0   8   0 3467.06 10.2957   1
   0  -8   1 3396.56 6.65764  -2
   0   8   1 3396.56 6.65764   1
   0   8   2 558.795 5.50592  -2
   0  -8   2 558.795 5.50592   1
   0  -8  -3 5822.26 14.3418  -2
   0   8  -3 5822.26 14.3418   1
   0   8  -4 1057.27 7.49087  -2
   0  -8  -4 1057.27 7.49087   1
   0   8  -5 122.710 8.34433  -2
   0  -8  -5 122.710 8.34433   1
   0  -8   6 55.8267 10.3246  -2
   0   8   6 55.8267 10.3246   1
   0   8  -7 1265.82 15.8428  -2
   0  -8  -7 1265.82 15.8428   1
   0   9   1 8827.39 9.44933  -2
   0  -9   1 8827.39 9.44933   1
   0  -9  -2 3639.63 9.04688  -2
   0   9  -2 3639.63 9.04688   1
   0   9   3 998.901 6.85948  -2
   0  -9   3 998.901 6.85948   1
   0   9   4 9381.66 24.9962  -2
   0  -9   4 9381.66 24.9962   1
   0   9   5 1667.26 10.4387  -2
   0  -9   5 1667.26 10.4387   1
   0  -9   6 42.4824 10.1503  -2
   0   9   6 42.4824 10.1503   1
   0  -9  -7 394.407 11.1485  -2
   0   9  -7 394.407 11.1485   1
   0  10   0 2447.73 7.10686  -2
   0 -10   0 2447.73 7.10686   1
   0 -10  -1 8433.89 8.92064  -2
   0  10  -1 8433.89 8.92064   1
   0  10   2 5039.98 10.6243  -2
   0 -10   2 5039.98 10.6243   1
   0  10   3 465.269 5.66224  -2
   0 -10   3 465.269 5.66224   1
   0  10   4 370.790 6.79025  -2
   0 -10   4 370.790 6.79025   1
   0  10  -5 532.336 7.33030  -2
   0 -10  -5 532.336 7.33030   1
   0  10  -6 100.954 11.4620  -2
   0 -10  -6 100.954 11.4620   1
   0  10   7 201.551 13.0430  -2
   0 -10   7 201.551 13.0430   1
   0  11  -1 2017.88 5.38375  -2
   0 -11  -1 2017.88 5.38375   1
   0 -11  -2 5353.41 11.5178  -2
   0  11  -2 5353.41 11.5178   1
   0  11  -3 672.850 6.15139  -2
   0 -11  -3 672.850 6.15139   1
   0 -11  -4 1690.19 9.84125  -2
   0  11  -4 1690.19 9.84125   1
   0 -11   5 80.4870 7.65652  -2
   0  11   5 80.4870 7.65652   1
   0 -11   6 1350.07 16.7879  -2
   0  11   6 1350.07 16.7879   1
   0  11   7 27.9191 12.2456  -2
   0 -11   7 27.9191 12.2456   1
   0  12   0 3202.26 8.62935  -2
   0 -12   0 3202.26 8.62935   1
   0 -12   1 1235.26 4.77019  -2
   0  12   1 1235.26 4.77019   1
   0  12   2 6299.85 11.8923  -2
   0 -12   2 6299.85 11.8923   1
   0 -12   3 2.51694 5.29300  -2
   0  12   3 2.51694 5.29300   1
   0  12  -4 73.1996 7.09500  -2
   0 -12  -4 73.1996 7.09500   1
   0  12   5 330.782 13.0324  -2
   0 -12   5 330.782 13.0324   1
   0 -12  -6 1485.18 15.5972  -2
   0  12  -6 1485.18 15.5972   1
   0  12   7 84.0552 12.6532  -2
   0 -12   7 84.0552 12.6532   1
   0  13  -1 4479.73 8.45115  -2
   0 -13  -1 4479.73 8.45115   1
   0  13   2 449.495 4.78111  -2
   0 -13   2 449.495 4.78111   1
   0 -13  -3 535.365 5.47805  -2
   0  13  -3 535.365 5.47805   1
   0 -13  -4 240.519 5.83894  -2
   0  13  -4 240.519 5.83894   1
   0  13   5 1351.74 11.8724  -2
   0 -13   5 1351.74 11.8724   1
   0 -13  -6 2022.93 22.9464  -2
   0  13  -6 2022.93 22.9464   1
   0 -13   7 140.448 12.9277  -2
   0  13   7 140.448 12.9277   1
   0  14   0 2995.79 9.00988  -2
   0 -14   0 2995.79 9.00988   1
   0 -14   1 1542.66 5.45120  -2
   0  14   1 1542.66 5.45120   1
   0  14   2 992.733 5.82269  -2
   0 -14   2 992.733 5.82269   1
   0 -14   3 63.0626 5.17147  -2
   0  14   3 63.0626 5.17147   1
   0  14  -4 999.555 7.25359  -2
   0 -14  -4 999.555 7.25359   1
   0 -14  -5 1268.26 11.8415  -2
   0  14  -5 1268.26 11.8415   1
   0 -14   6 923.423 13.8172  -2
   0  14   6 923.423 13.8172   1
   0  15   1 466.199 4.35846  -2
   0 -15   1 466.199 4.35846   1
   0  15  -2 395.355 4.70745  -2
   0 -15  -2 395.355 4.70745   1
   0  15  -3 1432.83 7.56364  -2
   0 -15  -3 1432.83 7.56364   1
   0 -15   4 590.962 6.42449  -2
   0  15   4 590.962 6.42449   1
   0 -15   5 62.0829 8.81935  -2
   0  15   5 62.0829 8.81935   1
   0  15   6 64.1147 10.1098  -2
   0 -15   6 64.1147 10.1098   1
   0 -16   0 2520.63 9.14454  -2
   0  16   0 2520.63 9.14454   1
   0 -16   1 457.872 4.52849  -2
   0  16   1 457.872 4.52849   1
   0  16  -2-1.23501 3.96758  -2
   0 -16  -2-1.23501 3.96758   1
   0  16  -3 6279.54 13.3196  -2
   0 -16  -3 6279.54 13.3196   1
   0  16  -4 12.0487 6.81708  -2
   0 -16  -4 12.0487 6.81708   1
   0  16  -5 1347.16 12.2309  -2
   0 -16  -5 1347.16 12.2309   1
   0  16  -6 119.314 12.5737  -2
   0 -16  -6 119.314 12.5737   1
   0 -17   1 763.405 5.41789  -2
   0  17   1 763.405 5.41789   1
   0 -17  -2 231.320 4.90948  -2
   0  17  -2 231.320 4.90948   1
   0  17  -3 533.473 5.86938  -2
   0 -17  -3 533.473 5.86938   1
   0  17  -4 7.82596 5.77339  -2
   0 -17  -4 7.82596 5.77339   1
   0 -17  -5 228.117 8.14108  -2
   0  17  -5 228.117 8.14108   1
   0 -17   6 37.2650 18.4615  -2
   0  17   6 37.2650 18.4615   1
   0 -18   0 773.228 6.75672  -2
   0  18   0 773.228 6.75672   1
   0  18   1 4720.38 9.95635  -2
   0 -18   1 4720.38 9.95635   1
   0  18  -2 26.3769 6.47212  -2
   0 -18  -2 26.3769 6.47212   1
   0 -18  -3 1874.80 8.39829  -2
   0  18  -3 1874.80 8.39829   1
   0  18   4 575.993 6.99265  -2
   0 -18   4 575.993 6.99265   1
   0 -18   5 2192.26 13.5178  -2
   0  18   5 2192.26 13.5178   1
   0  18  -6 216.207 20.0822  -2
   0 -18  -6 216.207 20.0822   1
   0 -19  -1 2627.63 8.96954  -2
   0  19  -1 2627.63 8.96954   1
   0  19  -2 997.391 7.27070  -2
   0 -19  -2 997.391 7.27070   1
   0  19  -3 607.474 6.44044  -2
   0 -19  -3 607.474 6.44044   1
   0 -19  -4 38.7578 6.73210  -2
   0  19  -4 38.7578 6.73210   1
   0 -19  -5 519.783 8.79367  -2
   0  19  -5 519.783 8.79367   1
   0 -19   6 177.051 20.5279  -2
   0  19   6 177.051 20.5279   1
   0 -20   0 3268.22 13.6640  -2
   0  20   0 3268.22 13.6640   1
   0 -20   1 10.6263 3.72680  -2
   0  20   1 10.6263 3.72680   1
   0  20  -2 1057.64 7.48681  -2
   0 -20  -2 1057.64 7.48681   1
   0 -20  -3 162.681 5.41237  -2
   0  20  -3 162.681 5.41237   1
   0  20  -4 25.4468 6.73801  -2
   0 -20  -4 25.4468 6.73801   1
   0 -20   5 178.385 8.76645  -2
   0  20   5 178.385 8.76645   1
   0  21  -1 1552.75 6.93486  -2
   0 -21  -1 1552.75 6.93486   1
   0  21  -2 1341.68 9.28846  -2
   0 -21  -2 1341.68 9.28846   1
   0 -21  -3 90.1695 5.94890  -2
   0  21  -3 90.1695 5.94890   1
   0  21   4 218.596 6.08755  -2
   0 -21   4 218.596 6.08755   1
   0  21  -5 75.9474 8.78106  -2
   0 -21  -5 75.9474 8.78106   1
   0 -22   0 904.673 9.56782  -2
   0  22   0 904.673 9.56782   1
   0 -22   1 2039.50 8.84805  -2
   0  22   1 2039.50 8.84805   1
   0 -22  -2 2951.04 12.6422  -2
   0  22  -2 2951.04 12.6422   1
   0 -22  -3 67.9286 6.07228  -2
   0  22  -3 67.9286 6.07228   1
   0  22  -4 52.1481 8.25730  -2
   0 -22  -4 52.1481 8.25730   1
   0 -22   5-9.25195 7.86960  -2
   0  22   5-9.25195 7.86960   1
   0 -23   1-0.36673 4.91412  -2
   0  23   1-0.36673 4.91412   1
   0 -23  -2 171.477 6.61102  -2
   0  23  -2 171.477 6.61102   1
   0 -23  -3 116.044 6.40556  -2
   0  23  -3 116.044 6.40556   1
   0 -23   4 2030.64 11.5193  -2
   0  23   4 2030.64 11.5193   1
   0 -24   0 1420.04 14.7871  -2
   0  24   0 1420.04 14.7871   1
   0 -24   1 62.8684 5.51743  -2
   0  24   1 62.8684 5.51743   1
   0 -24  -2 103.710 6.53206  -2
   0  24  -2 103.710 6.53206   1
   0 -24  -3 26.6059 6.10934  -2
   0  24  -3 26.6059 6.10934   1
   0 -24  -4 411.121 7.52930  -2
   0  24  -4 411.121 7.52930   1
   0  25  -1 780.175 7.60621  -2
   0 -25  -1 780.175 7.60621   1
   0  25  -2 528.418 8.50676  -2
   0 -25  -2 528.418 8.50676   1
   0 -25  -3 226.222 7.00436  -2
   0  25  -3 226.222 7.00436   1
   0  25  -4 2142.85 13.2126  -2
   0 -25  -4 2142.85 13.2126   1
   0 -26   0 315.384 11.4002  -2
   0  26   0 315.384 11.4002   1
   0  26  -1 65.4435 6.13936  -2
   0 -26  -1 65.4435 6.13936   1
   0 -26   2 402.806 9.16515  -2
   0  26   2 402.806 9.16515   1
   0 -26  -3 328.868 7.57203  -2
   0  26  -3 328.868 7.57203   1
   0 -27  -1 1153.80 11.6840  -2
   0  27  -1 1153.80 11.6840   1
   0 -27  -2 240.488 7.16618  -2
   0  27  -2 240.488 7.16618   1
   0 -27  -3 256.530 7.52504  -2
   0  27  -3 256.530 7.52504   1
   0 -28   0 604.285 12.8592  -2
   0  28   0 604.285 12.8592   1
   0 -28  -1 172.963 7.28985  -2
   0  28  -1 172.963 7.28985   1
   0 -28   2 8.63215 6.15075  -2
   0  28   2 8.63215 6.15075   1
   0 -29  -1 1100.73 11.7517  -2
   0  29  -1 1100.73 11.7517   1
   1   0  -8 46.9267 14.6078   1
  -1   0   6 1161.15 11.1756   1
  -1   0   4 101.299 6.50049   1
  -1   0   2 2847.71 9.99834   1
  -1   0   0 4866.58 12.6662   1
   1   0   2 2298.68 7.38117   1
  -1   0  -4 771.575 8.12461   1
  -1   0  -6 896.484 16.5758   1
   1   1  -8 161.359 10.9153   1
   1   1  -7 45.2221 9.76569   1
  -1   1   6 1357.03 7.36599   1
  -1  -1   5-6.16002 4.84296   1
   1  -1  -4 27.3473 4.46624   1
   1  -1  -3 260.320 3.42216   1
  -1   1   2 552.041 3.47962   1
  -1  -1   1 8798.21 11.3307   1
  -1   1   0 4082.04 6.88611   1
  -1  -1  -1 15.1642 2.10135   1
   1   1   2 6819.91 8.14824   1
  -1   1  -3 455.081 3.76945   1
   1  -1   4 1022.79 5.40941   1
   1  -1   5 991.643 10.3178   1
   1  -1   6 104.795 14.4531   1
   1   1   7-32.8505 11.8265   1
   1  -2  -8 80.3734 10.6084   1
   1   2  -7 72.9018 9.71534   1
  -1  -2   6 766.313 8.07450   1
  -1  -2   5 6.72168 4.47119   1
  -1  -2   4 976.458 5.29986   1
  -1  -2   3 3091.88 7.92108   1
  -1  -2   2 1958.36 4.91149   1
  -1   2   1 5015.38 6.11429   1
  -1  -2   0 440.429 2.50231   1
  -1   2  -1 409.064 2.78632   1
   1   2   2 858.173 4.06981   1
   1   2   3 10.0485 2.66095   1
  -1   2  -4 451.967 4.79521   1
   1   2   5 401.439 7.97659   1
  -1  -2  -6 209.372 11.6746   1
  -1   2  -7 71.9178 10.3825   1
   1  -3  -7 58.6938 9.85664   1
   1  -3  -6 442.569 7.14790   1
  -1  -3   5 1025.44 5.75245   1
  -1  -3   4 378.688 3.87304   1
  -1   3   3 1091.87 5.29429   1
   1  -3  -2 1855.33 4.83913   1
  -1  -3   1 23300.7 20.7880   1
  -1  -3   0 7580.73 6.62208   1
   1   3   1 486.642 3.17556   1
   1   3   2 1.14088 3.68710   1
  -1   3  -3 2103.21 6.97043   1
  -1   3  -4 629.932 4.80315   1
  -1  -3  -5 1622.80 13.5225   1
   1   3   6 85.6276 11.0341   1
  -1  -3  -7 209.920 19.2821   1
   1   4  -7 1054.54 13.2116   1
  -1  -4   6 30.7178 9.04030   1
  -1  -4   5 80.4612 4.58187   1
   1  -4  -4 2612.59 7.17386   1
  -1   4   3 73.5472 3.43156   1
  -1  -4   2 213.014 3.36570   1
   1   4  -1 17066.4 15.3864   1
  -1   4   0 270.212 2.32402   1
   1   4   1 480.919 3.48004   1
  -1   4  -2 18.1279 3.79157   1
   1   4   3 1947.86 6.75715   1
  -1   4  -4 295.840 5.57738   1
   1  -4   5 70.0192 5.55228   1
  -1  -4  -6 184.255 9.64490   1
  -1  -4  -7 194.127 20.1101   1
   1   5  -7 139.571 10.3180   1
  -1  -5   6 93.5155 7.74960   1
   1   5  -5 1747.98 8.38392   1
   1   5  -4 9.29078 3.19376   1
  -1  -5   3 1831.44 8.45497   1
  -1  -5   2 883.268 3.42427   1
   1   5  -1 144.018 3.63514   1
  -1   5   0 2006.34 3.92486   1
  -1  -5  -1 3.12444 2.97141   1
  -1  -5  -2 729.008 4.65616   1
  -1  -5  -3 991.804 6.23387   1
  -1   5  -4 907.648 6.39511   1
  -1  -5  -5 13.0547 5.32051   1
   1   5   6 312.258 9.91141   1
  -1  -5  -7 1232.90 36.8026   1
   1   6  -7 604.754 11.8419   1
  -1  -6   6 56.9024 5.25550   1
   1   6  -5 3527.39 8.62582   1
  -1  -6   4 97.1567 4.47057   1
   1   6  -3 259.341 4.82731   1
   1   6  -2 3139.71 5.50694   1
   1   6  -1 4909.92 9.75016   1
  -1   6   0 628.283 2.51353   1
  -1   6  -1 12967.0 11.3697   1
   1   6   2 1476.18 10.4712   1
  -1   6  -3 1997.51 8.30738   1
  -1  -6  -4 929.834 7.72904   1
   1  -6   5-4.38438 5.74773   1
  -1  -6  -6 32.0573 9.28128   1
  -1   6  -7 417.865 16.4857   1
   1   7  -7 849.668 12.5672   1
  -1  -7   6 596.725 6.64430   1
  -1   7   5 185.789 5.42668   1
  -1  -7   4 519.632 4.63349   1
   1   7  -3 1617.36 6.88209   1
   1   7  -2 2766.16 5.10731   1
  -1   7   1 135.054 4.10849   1
  -1  -7   0 1000.53 3.08800   1
  -1   7  -1 5.32986 3.15625   1
  -1  -7  -2 180.603 3.74746   1
  -1   7  -3 23.7900 4.53092   1
   1   7   4 110.147 5.14170   1
  -1  -7  -5 713.344 6.41137   1
   1  -7   6 53.5036 9.17239   1
  -1   7  -7 180.879 15.3160   1
   1   8  -7 404.758 11.0949   1
   1   8  -6 256.988 9.34098   1
   1  -8  -5 123.551 7.08286   1
   1  -8  -4 257.496 4.44683   1
  -1  -8   3 65.8287 3.15452   1
   1   8  -2 1870.30 4.44486   1
  -1   8   1 122.208 3.78980   1
  -1   8   0 254.615 2.55347   1
   1  -8   1 8596.14 11.0428   1
   1  -8   2 160.763 3.84222   1
  -1  -8  -3 2331.64 7.50645   1
   1   8   4 281.476 5.98439   1
  -1   8  -5 41.4850 5.91602   1
  -1   8  -6 219.181 9.63007   1
  -1   8  -7 64.4481 15.9625   1
   1   9  -7 24.8207 9.62453   1
   1   9  -6 71.5459 5.49472   1
   1  -9  -5 202.908 4.78778   1
  -1   9   4 11.1538 4.32593   1
  -1  -9   3 1234.17 4.58273   1
   1  -9  -2 1508.65 3.96097   1
  -1   9   1 751.966 4.62151   1
  -1  -9   0 43.7226 3.25352   1
   1   9   1 165.813 3.81540   1
  -1  -9  -2 2975.99 7.81674   1
  -1  -9  -3 496.668 4.97134   1
  -1  -9  -4 26.5036 4.65492   1
   1  -9   5 1267.51 9.59596   1
   1   9   6 26.5812 8.13384   1
   1  10  -7 193.388 10.2559   1
   1 -10  -6 320.499 6.23208   1
  -1 -10   5 378.332 6.29569   1
  -1 -10   4 620.933 5.11782   1
  -1 -10   3 71.6927 3.05194   1
  -1 -10   2 9760.97 7.96769   1
  -1 -10   1 59.8383 3.17291   1
   1  10   0 483.269 3.68111   1
   1 -10   1 11.6866 3.36488   1
   1  10   2 36.2422 4.18455   1
  -1  10  -3 6.59282 3.67047   1
  -1  10  -4 5105.60 12.1881   1
  -1  10  -5 62.2192 6.06196   1
   1 -10   6 610.627 12.0801   1
   1  11  -7 425.267 11.1457   1
   1 -11  -6-2.46014 5.49048   1
  -1  11   5 230.638 5.39154   1
  -1  11   4 16.8265 4.41467   1
   1 -11  -3 824.477 4.12388   1
   1  11  -2 186.117 2.82724   1
  -1 -11   1 2.39543 2.06747   1
  -1 -11   0 786.056 5.00636   1
  -1 -11   1 826.849 8.71241  -2
   1  11   0 826.849 8.71241   1
  -1  11  -1 36.1713 3.38465   1
   1 -11   2 1003.45 4.71949   1
   1  11   3 217.168 3.98622   1
  -1  11  -4 436.003 5.16130   1
  -1 -11  -5 10.3827 5.80169   1
  -1  11  -6 3.53348 11.6099   1
   1 -12  -7 29.2952 14.8002   1
  -1 -12   6 14.5080 6.47119   1
   1 -12  -5-9.10018 6.03226   1
  -1 -12   4 5155.56 9.72364   1
   1  12  -3 140.590 3.18478   1
  -1 -12   2 438.026 2.77001   1
   1  12  -1 36.1187 2.32148   1
   1 -12   0 1680.97 6.30322   1
  -1 -12   1 1778.21 11.7761  -2
   1  12   0 1778.21 11.7761   1
   1  12   1 87.3695 3.30757   1
   1 -12   2 1148.50 5.34445   1
  -1 -12  -3 1443.45 6.03483   1
   1  12   4 749.674 5.80859   1
  -1  12  -5 57.3141 6.43488   1
  -1 -12  -6 1027.55 10.4117   1
   1 -13  -7 20.1727 14.6483   1
   1  13  -6 874.061 7.97876   1
   1  13  -5 85.3764 6.77490   1
  -1 -13   4 71.3275 4.10186   1
   1  13  -3 683.270 3.55080   1
  -1  13   2 195.384 2.39013   1
  -1 -13   1 52.1649 2.70508   1
   1 -13   0 5465.10 10.2102   1
  -1 -13   1 5752.47 19.5107  -2
   1  13   0 5752.47 19.5107   1
   1 -13   1 663.566 3.89909   1
   1 -13   2 1401.97 5.43603   1
   1 -13   3 1400.80 5.95026   1
  -1  13  -4 161.464 4.34140   1
   1  13   5 17.4844 7.11201   1
   1 -13   6-9.42661 8.43959   1
   1 -14  -7 249.435 16.1418   1
  -1  14   6 526.995 9.58301   1
   1 -14  -5 55.8786 4.87775   1
  -1 -14   4 276.882 4.58252   1
  -1 -14   3 3.82491 2.88548   1
   1 -14  -2 515.064 3.19582   1
  -1  14   1 1000.70 6.48635   1
   1 -14   0 1361.69 7.23192   1
  -1 -14   1 2178.48 15.2118  -2
   1  14   0 2178.48 15.2118   1
   1 -14   1 734.076 4.50698   1
  -1 -14   2 1197.25 12.2045  -2
   1  14   1 1197.25 12.2045   1
   1 -14   2 159.703 3.54804   1
   1 -14   3 137.402 4.00309   1
   1 -14   4 0.71169 4.62987   1
  -1  14  -5 84.3146 8.33505   1
   1 -14   6 332.158 13.3196   1
   1  15  -6 1038.00 9.45723   1
   1 -15  -5 876.521 6.55193   1
   1 -15  -4 17.8818 4.67823   1
  -1 -15   3 2052.38 5.07060   1
  -1 -15   2 62.4036 3.21186   1
  -1  15   1 707.971 7.06905   1
  -1  15   0 3126.35 15.5950  -2
   1 -15  -1 3126.35 15.5950   1
   1 -15   0 3509.82 8.44070   1
  -1 -15   1 4057.61 19.8521  -2
   1  15   0 4057.61 19.8521   1
  -1 -15  -1 297.998 3.81060   1
   1  15   2 1856.32 6.75746   1
   1 -15   3 25.6515 4.27239   1
  -1  15  -4 73.3503 5.97315   1
  -1  15  -5 1090.06 9.13790   1
  -1  16   6 115.729 11.5738   1
   1 -16  -5 118.046 5.10504   1
  -1 -16   4 9.89334 3.34836   1
   1  16  -3 232.871 3.68394   1
  -1 -16  -2 166.631 6.94477  -2
   1  16  -3 166.631 6.94477   1
   1  16  -2 8.60192 3.48514   1
  -1  16  -1 1903.57 10.1962  -2
   1 -16  -2 1903.57 10.1962   1
  -1 -16   1 516.327 4.02111   1
  -1  16   0 545.862 10.7224  -2
   1 -16  -1 545.862 10.7224   1
  -1  16   0 18.3333 3.18200   1
  -1 -16   1 376.365 12.5840  -2
   1  16   0 376.365 12.5840   1
   1 -16   1 2843.23 9.49551   1
   1  16  -2 2927.75 12.4375  -2
  -1 -16  -1 2927.75 12.4375   1
  -1  16  -2 27.5454 3.91856   1
  -1  16  -3 31.8364 3.90873   1
  -1 -16  -4 35.5789 5.59492   1
  -1  16  -5 49.1011 7.48925   1
   1 -17  -6 158.977 8.49823   1
   1  17  -5 740.154 10.0425   1
  -1  17   4 10.7370 3.76291   1
  -1  17   3 1166.66 23.4375   1
  -1 -17  -2 1074.24 7.27005  -2
   1  17  -3 1074.24 7.27005   1
   1  17  -2 6.33958 3.82343   1
  -1  17  -1 40.9995 6.81500  -2
   1 -17  -2 40.9995 6.81500   1
  -1  17   1 1868.58 10.0806   1
   1  17   0 1905.85 10.8140  -2
  -1 -17   1 1905.85 10.8140   1
   1  17   0 143.491 4.04407   1
  -1 -17   1 1468.80 10.6034  -2
   1  17   0 1468.80 10.6034   1
  -1 -17  -1 49.7757 4.83773   1
  -1 -17   2 76.8541 6.72429  -2
   1  17   1 76.8541 6.72429   1
   1 -17   2 3.22791 4.12356   1
  -1 -17   3 842.049 25.0192  -2
   1  17   2 842.049 25.0192   1
  -1  17  -3 11.2732 4.25625   1
   1  17   4 51.7664 7.52429   1
   1  17   5 2291.30 13.4034   1
   1 -18  -6 152.760 11.1851   1
   1 -18  -5 43.9428 5.98614   1
  -1 -18   4 12.0123 5.54883   1
  -1  18  -3 211.879 6.89296  -2
   1 -18  -4 211.879 6.89296   1
  -1  18   3 10.1155 18.1829   1
   1  18   2 265.389 5.77461  -2
  -1 -18   3 265.389 5.77461   1
  -1  18   2 30.6853 4.70951   1
  -1 -18  -1 2181.03 15.5712  -2
   1  18  -2 2181.03 15.5712   1
  -1  18   1 145.309 3.87170   1
   1  18   0 848.179 9.49974  -2
  -1 -18   1 848.179 9.49974   1
   1 -18   0 944.561 5.73610   1
  -1 -18   1 943.793 13.9233  -2
   1  18   0 943.793 13.9233   1
  -1  18  -1 2746.20 11.0995   1
   1  18  -2 2888.07 11.2104  -2
  -1 -18  -1 2888.07 11.2104   1
   1 -18   2 382.346 6.63906   1
  -1  18   3 497.500 17.0110  -2
   1 -18   2 497.500 17.0110   1
   1 -18   3 336.755 4.56841   1
  -1 -18  -4 17.2101 7.31200   1
  -1  18  -5 59.0508 7.43589   1
   1  19  -6 338.390 11.8000   1
   1 -19  -5 299.548 7.10673   1
  -1 -19   4 28.6064 5.71752   1
  -1 -19  -3 671.774 8.48751  -2
   1  19  -4 671.774 8.48751   1
  -1  19   3 1033.39 25.8031   1
  -1 -19  -2 2014.06 8.82804  -2
   1  19  -3 2014.06 8.82804   1
  -1  19   2 76.8096 4.86833   1
   1  19   1 328.016 6.69220  -2
  -1 -19   2 328.016 6.69220   1
  -1  19   1 462.555 4.76225   1
  -1  19   0 1885.37 14.3376  -2
   1 -19  -1 1885.37 14.3376   1
   1 -19   0 2033.58 8.29744   1
   1  19  -1 2401.77 11.7870  -2
  -1 -19   0 2401.77 11.7870   1
   1 -19   1 330.393 6.08254   1
  -1 -19   2 375.192 9.51033  -2
   1  19   1 375.192 9.51033   1
   1 -19   2 1641.06 9.47061   1
  -1 -19   3 2418.26 11.6892  -2
   1  19   2 2418.26 11.6892   1
   1 -19   3 1156.33 6.63471   1
  -1 -19   4 1154.93 29.3446  -2
   1  19   3 1154.93 29.3446   1
  -1  19  -4 9.94985 7.17667   1
  -1  19  -5 388.929 8.64285   1
   1  20  -5 4.56726 7.91201   1
   1  20  -4 700.637 13.6595   1
   1 -20   3 1175.67 10.5790  -2
  -1  20   4 1175.67 10.5790   1
   1 -20   2 117.848 5.44266  -2
  -1  20   3 117.848 5.44266   1
   1  20  -2 12.4121 4.60418   1
   1  20   1 80.8643 7.62672  -2
  -1 -20   2 80.8643 7.62672   1
   1  20  -1 1076.54 14.3569   1
   1  20   0 1342.08 8.91262  -2
  -1 -20   1 1342.08 8.91262   1
  -1  20   0 426.296 7.27236   1
  -1 -20   1 1172.12 8.23937  -2
   1  20   0 1172.12 8.23937   1
  -1  20  -1 65.7367 5.95058   1
   1  20  -2 48.7379 7.91587  -2
  -1 -20  -1 48.7379 7.91587   1
  -1 -20  -2 78.6783 7.28438   1
   1  20  -3 93.4991 10.4314  -2
  -1 -20  -2 93.4991 10.4314   1
   1 -20   3 919.007 7.76115   1
  -1 -20   4 1441.69 11.6774  -2
   1  20   3 1441.69 11.6774   1
   1  20   4 45.3778 7.34917   1
  -1  21   5 88.4478 7.12001   1
  -1  21  -4 332.686 7.60558  -2
   1 -21  -5 332.686 7.60558   1
  -1  21   4 0.98000 20.9509   1
  -1 -21  -3 27.5657 5.19090  -2
   1  21  -4 27.5657 5.19090   1
  -1 -21  -2 692.192 6.93106  -2
   1  21  -3 692.192 6.93106   1
   1  21  -2 14.1208 4.76162   1
  -1  21  -1 80.1575 7.78216  -2
   1 -21  -2 80.1575 7.78216   1
  -1  21   1 41.6522 6.48559   1
  -1 -21   0 1150.69 10.6831  -2
   1  21  -1 1150.69 10.6831   1
   1 -21   0 1523.72 9.29551   1
  -1  21   1 1657.80 12.4032  -2
   1 -21   0 1657.80 12.4032   1
  -1  21  -1 85.4656 6.12836   1
   1  21  -2 83.9789 8.95866  -2
  -1 -21  -1 83.9789 8.95866   1
   1 -21   2 521.138 8.01161   1
  -1 -21   3 744.462 12.3518  -2
   1  21   2 744.462 12.3518   1
   1  21   3 65.3409 5.64592   1
  -1 -21   4 76.0979 10.9679  -2
   1  21   3 76.0979 10.9679   1
  -1  21  -4 459.073 8.14523   1
  -1  22   5 623.811 26.3192   1
  -1  22  -4 1306.81 13.4857  -2
   1 -22  -5 1306.81 13.4857   1
  -1 -22  -3 1015.05 14.9554  -2
   1  22  -4 1015.05 14.9554   1
   1 -22   2 218.417 5.88871  -2
  -1  22   3 218.417 5.88871   1
  -1  22   2 1901.09 11.4554   1
   1  22   1 2154.80 18.9941  -2
  -1 -22   2 2154.80 18.9941   1
  -1  22   1 89.1954 4.82696   1
  -1  22   0 153.609 7.77667  -2
   1 -22  -1 153.609 7.77667   1
  -1  22   0 54.5887 6.81924   1
  -1 -22   1 73.5420 11.0041  -2
   1  22   0 73.5420 11.0041   1
  -1  22  -1 45.3896 6.18661   1
   1  22  -2 1508.70 10.9009  -2
  -1 -22  -1 1508.70 10.9009   1
   1 -22   2 70.2867 6.97672   1
  -1 -22   3 173.936 10.6938  -2
   1  22   2 173.936 10.6938   1
  -1  22  -3 88.0662 7.20019   1
  -1 -22   4 797.259 13.7251  -2
   1  22   3 797.259 13.7251   1
  -1  22  -4 1214.36 10.9297   1
  -1 -22   5 1556.24 34.7666  -2
   1  22   4 1556.24 34.7666   1
  -1 -23  -4 118.410 10.7159  -2
   1  23  -5 118.410 10.7159   1
  -1 -23  -3-8.48217 5.17743  -2
   1  23  -4-8.48217 5.17743   1
   1 -23   2 359.448 6.39776  -2
  -1  23   3 359.448 6.39776   1
  -1  23   2 812.942 7.42849   1
   1 -23   1 861.482 9.80314  -2
  -1  23   2 861.482 9.80314   1
   1  23  -1 91.6038 4.91600   1
  -1  23   0 192.905 8.24978  -2
   1 -23  -1 192.905 8.24978   1
  -1  23   0 116.372 7.15896   1
  -1  23   1 167.108 11.8174  -2
   1 -23   0 167.108 11.8174   1
   1 -23   1 6.18395 6.17917   1
  -1 -23   2 667.476 9.27335  -2
   1  23   1 667.476 9.27335   1
   1 -23   2 439.126 8.38899   1
  -1 -23   3 482.343 11.7374  -2
   1  23   2 482.343 11.7374   1
  -1  23  -3 7.12232 6.97271   1
  -1 -23   4 74.3423 27.4589  -2
   1  23   3 74.3423 27.4589   1
  -1  23  -4 38.9830 7.23521   1
  -1 -23   5 153.648 28.7023  -2
   1  23   4 153.648 28.7023   1
   1 -24   3 711.947 14.9661  -2
  -1  24   4 711.947 14.9661   1
  -1 -24  -2 136.688 5.00087  -2
   1  24  -3 136.688 5.00087   1
  -1  24   2 1423.41 9.74948   1
   1 -24   1 1485.78 11.5514  -2
  -1  24   2 1485.78 11.5514   1
   1  24  -1 41.8961 5.90181   1
   1 -24   0 71.9760 10.3951  -2
  -1  24   1 71.9760 10.3951   1
   1 -24   0 62.1274 6.53175   1
   1  24  -1 102.276 9.45748  -2
  -1 -24   0 102.276 9.45748   1
   1 -24   1 62.1014 8.14943   1
  -1 -24   2 1151.44 9.07889  -2
   1  24   1 1151.44 9.07889   1
   1 -24   2 152.765 9.24095   1
   1 -24  -3 169.984 11.3709  -2
  -1  24  -2 169.984 11.3709   1
  -1  24  -3 1.46748 6.92743   1
  -1 -24   4 604.322 31.6747  -2
   1  24   3 604.322 31.6747   1
   1 -25   3 247.652 30.1012  -2
  -1  25   4 247.652 30.1012   1
   1 -25   2 1354.47 13.6664  -2
  -1  25   3 1354.47 13.6664   1
  -1  25   2 635.197 7.71246   1
  -1  25  -1 706.134 10.5577  -2
   1 -25  -2 706.134 10.5577   1
  -1  25   1 14.1014 5.08825   1
  -1 -25   0 102.903 9.16857  -2
   1  25  -1 102.903 9.16857   1
  -1  25   0 124.837 7.49288   1
  -1 -25   1 135.305 7.37119  -2
   1  25   0 135.305 7.37119   1
  -1  25  -1 55.9504 7.28749   1
  -1 -25   2 567.088 9.77638  -2
   1  25   1 567.088 9.77638   1
   1 -25   2 648.270 11.2669   1
  -1 -25   3 1319.46 16.8630  -2
   1  25   2 1319.46 16.8630   1
  -1  25  -3 34.2002 10.2461   1
   1 -25  -4 158.921 12.2992  -2
  -1  25  -3 158.921 12.2992   1
  -1 -26  -2 163.022 11.7836  -2
   1  26  -3 163.022 11.7836   1
   1  26  -2 91.8576 6.32526   1
  -1 -26  -1 772.919 11.0777  -2
   1  26  -2 772.919 11.0777   1
  -1  26   1 225.092 9.69306   1
   1 -26   0 485.161 12.8136  -2
  -1  26   1 485.161 12.8136   1
  -1  26   0 331.266 10.3423   1
  -1 -26   1 497.866 7.88137  -2
   1  26   0 497.866 7.88137   1
   1 -26   1 1043.79 12.1632   1
  -1 -26   2 1086.76 9.23622  -2
   1  26   1 1086.76 9.23622   1
  -1  26  -2 43.0259 9.58921   1
  -1 -26   3 89.1861 13.7350  -2
   1  26   2 89.1861 13.7350   1
   1 -27   2 269.330 16.8969  -2
  -1  27   3 269.330 16.8969   1
   1  27  -2 17.2706 5.34443   1
   1 -27   1 59.0991 8.59263  -2
  -1  27   2 59.0991 8.59263   1
  -1 -27   0 352.543 12.8880  -2
   1  27  -1 352.543 12.8880   1
  -1  27   0 387.682 11.0238   1
  -1 -27   1 398.697 7.61868  -2
   1  27   0 398.697 7.61868   1
   1 -27   1 62.1520 9.01763   1
  -1 -27   2 156.681 8.05422  -2
   1  27   1 156.681 8.05422   1
  -1  27  -2 71.8678 10.0501   1
  -1 -27   3 182.178 15.0288  -2
   1  27   2 182.178 15.0288   1
   1 -28   1 322.933 12.6167  -2
  -1  28   2 322.933 12.6167   1
   1  28  -1 945.999 9.85945   1
  -1  28   0 1169.21 12.9034  -2
   1 -28  -1 1169.21 12.9034   1
  -1 -28   1 889.542 12.4525  -2
   1  28   0 889.542 12.4525   1
  -1  28  -1 387.633 10.5032   1
   1 -28  -2 384.530 10.6002  -2
  -1  28  -1 384.530 10.6002   1
  -1 -29   0 648.332 14.2076  -2
   1  29  -1 648.332 14.2076   1
   1 -29   0 103.777 20.1939   1
  -1 -29   1 470.790 13.2035  -2
   1  29   0 470.790 13.2035   1
  -2   0   6 1468.20 10.5089   1
  -2   0   4 1684.59 7.76582   1
  -2   0   2 18.9596 2.83790   1
  -2   0   0 856.596 7.23874   1
   2   0   2 7659.57 15.1910   1
  -2   0  -4 1829.34 12.5683   1
  -2   0  -6 95.7743 11.3877   1
   2   1  -7 349.318 7.98485   1
  -2   1   6 340.776 8.34424   1
  -2   1   5 9.15242 4.12323   1
  -2  -1   4 2029.17 5.82844   1
  -2  -1   3-1.21462 2.48018   1
   2  -1  -2 189.438 2.45000   1
  -2   1   1 943.615 4.59940   1
  -2  -1   0 36.9046 3.71690   1
   2   1   1 207.827 4.22732   1
  -2   1  -2 71.9853 4.60133   1
   2  -1   3 513.837 5.19786   1
  -2  -1  -4 6.51117 5.29186   1
  -2   1  -5 53.5048 7.22537   1
  -2   1  -6 984.499 11.4518   1
   2   2  -7 132.076 7.27364   1
   2   2  -6 1495.10 7.37261   1
  -2  -2   5 612.835 5.32650   1
  -2   2   4 9.09792 3.06325   1
   2  -2  -3 5.66770 2.49947   1
  -2  -2   2 769.628 3.44876   1
  -2   2   1 1928.51 3.94448   1
  -2  -2   0 2913.71 7.26206   1
   2   2   1 47.7967 2.15294   1
   2  -2   2 1942.54 6.12675   1
  -2   2  -3 380.377 4.92337   1
  -2   2  -4 452.107 5.64303   1
  -2   2  -5 282.390 7.94716   1
  -2   2  -6 76.5888 11.4549   1
  -2  -3   7 543.721 13.6734   1
   2  -3  -6 242.700 5.52680   1
  -2  -3   5 208.022 3.95273   1
   2  -3  -4 356.375 3.55468   1
  -2  -3   3 458.753 3.25966   1
   2  -3  -2 6777.05 7.09267   1
  -2   3   1 82.3340 3.89087   1
   2  -3   0 1328.59 3.86213   1
  -2   3  -1 3283.35 6.33438   1
   2   3   2 35.8455 3.05541   1
   2   3   3 20.5359 4.20922   1
   2  -3   4 1489.74 7.14873   1
   2   3   5 147.620 7.82246   1
  -2  -3  -6 151.777 9.42908   1
  -2   4   7 150.081 7.32810   1
  -2  -4   6 30.0135 4.69733   1
   2  -4  -5 12.1436 4.36146   1
  -2   4   4 28.5981 3.18156   1
  -2   4   3 4005.64 6.62886   1
  -2  -4   2 576.226 2.98779   1
  -2   4   1 4025.41 6.07445   1
   2   4   0 180.050 2.76573   1
   2  -4   1 197.608 3.26802   1
  -2   4  -2 7.30227 2.62786   1
   2   4   3 16.0594 4.36962   1
   2   4   4 27.5190 4.95265   1
   2  -4   5 1279.61 8.95479   1
   2  -4   6 35.5229 8.99738   1
  -2  -5   7 471.678 14.1926   1
  -2  -5   6 22.1240 4.28143   1
   2  -5  -5 379.906 4.07634   1
  -2  -5   4 26.5344 2.79710   1
  -2   5   3 112.660 2.79505   1
  -2   5   2 1255.46 3.50619   1
  -2  -5   1 8.16462 2.45662   1
  -2  -5   0 1332.58 4.01928   1
  -2  -5  -1 5421.02 8.11455   1
  -2   5  -2 118.659 3.28248   1
  -2  -5  -3 544.478 4.18411   1
   2   5   4 649.390 6.31655   1
   2   5   5 211.779 6.80904   1
  -2  -5  -6 6.70210 9.15978   1
  -2  -6   7 63.3193 6.01436   1
  -2   6   6 307.044 4.72536   1
   2  -6  -5 26.3637 3.43559   1
   2  -6  -4 215.939 3.10161   1
   2  -6  -3 4856.71 10.9900   1
  -2   6   2 2384.13 4.77812   1
  -2   6   1 1502.40 4.19332   1
  -2  -6   0 1057.88 3.82956   1
   2  -6   1 303.672 3.05390   1
   2   6   2 346.987 3.65676   1
  -2   6  -3 936.487 5.26446   1
   2  -6   4 27.7232 4.79826   1
  -2   6  -5 480.194 8.90349   1
   2  -6   6 15.3842 10.4911   1
   2  -7  -7 462.695 8.27324   1
  -2  -7   6 142.630 4.30028   1
  -2  -7   5 668.280 5.04802   1
   2  -7  -4 27.6505 2.55975   1
   2   7  -3 1453.38 5.26791   1
  -2  -7   2 4433.54 6.44051   1
  -2  -7   1 2517.27 5.26906   1
   2  -7   0 14.5022 2.37134   1
  -2  -7  -1 34.6901 2.74880   1
  -2   7  -2 4.62452 3.42401   1
   2  -7   3 5672.70 12.7430   1
   2  -7   4 590.527 6.05305   1
   2   7   5 51.7740 7.93084   1
   2  -7   6 44.6796 10.9211   1
  -2   8   7 63.2845 5.83884   1
  -2  -8   6 3.16705 4.90137   1
  -2   8   5 1731.08 5.90890   1
  -2   8   4 67.0859 2.85777   1
  -2  -8   3 53.0699 2.78256   1
   2  -8  -2 618.088 5.61648   1
  -2  -8   1 48.7548 2.23863   1
  -2  -8   0 19.2462 2.39053   1
   2  -8   1 76.5918 3.65528   1
  -2   8  -2 601.360 4.06687   1
  -2   8  -3 48.2841 4.06942   1
  -2   8  -4 20.2188 5.74513   1
   2  -8   5 29.8608 8.04671   1
  -2   8  -6 2.04686 12.5543   1
  -2  -9   7 93.7781 5.80950   1
  -2  -9   6 14.8090 4.13987   1
  -2  -9   5 1148.06 4.79952   1
  -2   9   4 972.733 5.52988   1
   2  -9  -3 46.8982 2.72050   1
  -2   9   2 1405.65 7.33591   1
  -2  -9   1 192.592 3.31625   1
   2  -9   0 2983.26 5.74984   1
   2   9   1 1117.04 4.53323   1
  -2   9  -2 6.18393 3.83495   1
  -2  -9  -3 783.726 6.23116   1
   2   9   4 187.508 6.64965   1
   2   9   5 490.869 8.11089   1
  -2   9  -6 1267.29 13.1608   1
  -2  10   7 70.9221 5.58001   1
  -2 -10   6 440.586 4.88282   1
  -2  10   5 34.3538 4.43085   1
  -2  10   4 159.718 3.92390   1
  -2 -10   3 150.379 6.52110   1
   2 -10  -2 1143.73 7.10476   1
  -2 -10   1 4.86462 2.78178   1
  -2  10   0 291.161 3.07498   1
  -2  10  -1 547.607 3.80281   1
   2 -10   2 664.274 5.12919   1
  -2 -10  -3 51.7212 4.60786   1
   2 -10   4 594.390 7.72196   1
  -2  10  -5 48.3749 6.50282   1
   2  10   6 8.13194 10.5684   1
  -2  11   7 12.5543 5.32445   1
   2  11  -6 262.567 5.21737   1
  -2 -11   5 7.07625 4.37876   1
  -2  11   4 584.841 5.55400   1
  -2 -11   3 0.38653 6.24886   1
  -2  11   2 1255.78 7.20119   1
  -2  11   1 103.892 2.75339   1
  -2  11   0 626.941 3.99240   1
  -2  11  -1 80.8415 3.41971   1
  -2 -11  -2 648.552 5.85437   1
  -2 -11  -3 271.165 4.78492   1
  -2 -11  -4 666.070 12.3593   1
  -2  11  -5 21.4901 6.16232   1
  -2 -12   7 288.833 6.70485   1
  -2 -12   6 786.551 10.2090   1
  -2 -12   5 21.5727 1.74507   1
  -2 -12   4 908.612 10.2638   1
   2 -12  -3 82.9863 6.91680   1
   2 -12  -2 2.18356 4.08989   1
  -2  12   1 1475.00 6.61336   1
  -2  12   0 2815.70 6.50745   1
  -2  12  -1 44.8667 3.85193   1
  -2  12  -2 1657.42 7.33427   1
   2 -12   3 133.376 4.69609   1
  -2  12  -4 719.261 7.92523   1
   2 -12   5 20.4788 6.86876   1
  -2  13   7 194.378 14.1052   1
  -2  13   6 165.902 8.31758   1
  -2 -13   5 282.675 5.33959   1
  -2 -13   4 469.507 11.1283   1
   2 -13  -3 390.333 8.18632   1
  -2 -13   2 1344.29 6.93428   1
  -2  13   1 83.9539 2.77165   1
  -2  13   0 719.906 4.04535   1
   2 -13   1 1008.59 5.63396   1
   2 -13   2 96.5853 4.47989   1
   2 -13   3 854.760 5.89799   1
  -2  13  -4 522.247 9.40510   1
  -2  13  -5 49.6883 7.07249   1
   2 -14  -6 326.402 9.00427   1
  -2  14   5-11.3959 17.6606   1
  -2  14   4 706.383 10.5061   1
   2 -14  -3 1036.93 8.26785   1
  -2  14   2 59.7309 4.98019   1
  -2 -14   1 51.9266 3.04130   1
  -2  14   0 1214.15 5.19758   1
  -2  14  -1 451.508 4.67410   1
   2 -14   2 622.265 5.10309   1
   2 -14   3 290.634 4.92419   1
   2 -14   4 921.518 9.05464   1
  -2  14  -5 77.4270 7.21685   1
   2  15  -6 24.8136 8.05120   1
  -2  15   5 586.768 21.5024   1
  -2 -15   4 822.602 13.6083   1
  -2 -15   3 67.2647 5.78747   1
  -2  15   2-2.36486 4.71009   1
  -2 -15   1 618.204 4.37404   1
   2  15   0 1682.97 6.07533   1
   2  15   1 986.710 5.54148   1
   2  15   2 1184.19 6.00466   1
   2 -15   3 284.341 5.12242   1
  -2  15  -4 43.4113 9.21788   1
   2  15   5 151.422 7.45554   1
  -2 -16   6 51.4686 8.13513   1
  -2  16   5 891.288 23.8024   1
  -2 -16   4 28.5528 10.9245   1
  -2 -16   3 234.879 6.36934   1
  -2 -16   2 5.10235 5.33153   1
  -2  16   1 6284.76 19.5974   1
   2  16   0 19.6294 3.37231   1
  -2  16  -1 255.072 5.90652   1
   2  16   2 23.3901 4.89043   1
   2  16   3 531.090 5.44338   1
  -2  16  -4 259.532 8.35709   1
  -2  16  -5 705.836 12.3660   1
  -2  17   6 71.4207 21.1754   1
  -2  17   5 249.841 21.3612   1
  -2  17   4 46.4173 9.16482   1
  -2 -17   3 55.7573 6.13046   1
   2 -17  -2 63.7613 5.65909   1
   2  17  -1 619.805 5.14051   1
  -2  17   0 555.583 5.89772   1
  -2 -17  -1 108.501 4.86870   1
  -2 -17  -2 766.076 5.49700   1
   2  17   3 257.034 5.34622   1
   2  17   4 70.2714 7.79332   1
  -2  17  -5 447.543 13.1446   1
  -2  18   6 29.1386 21.9892   1
  -2  18   5 395.360 23.3235   1
  -2  18   4 159.731 10.0433   1
   2  18  -3 809.215 12.5056   1
   2 -18  -2 12.8558 7.03077   1
  -2  18   1 1232.39 10.4180   1
  -2 -18   0 71.6395 3.06650   1
  -2  18  -1 613.129 4.69757   1
   2  18   2 0.22055 5.33540   1
  -2  18  -3 92.2352 5.31374   1
   2  18   4 268.963 8.55284   1
  -2  19   5 262.845 23.4774   1
   2  19  -4 238.239 10.7624   1
  -2  19   3 6.24411 9.53952   1
  -2 -19   2 51.3532 7.38382   1
  -2  19   1 124.227 4.27665   1
   2  19   0 226.166 3.38186   1
   2  19   1 785.746 5.04108   1
  -2  19  -2 65.3529 5.35192   1
  -2  19  -3 465.264 6.46499   1
  -2  19  -4 88.3796 7.97365   1
  -2  20   5 54.2228 22.0887   1
   2  20  -4 48.6560 10.0312   1
   2  20  -3 481.118 11.8827   1
  -2  20   2 13.5160 7.90209   1
  -2  20   1 5.11206 3.79840   1
   2  20   0 312.283 3.59800   1
  -2 -20  -1 65.6425 4.32486   1
   2  20   2 197.580 5.05736   1
  -2  20  -3 33.4088 6.13701   1
   2  20   4 783.547 10.1250   1
  -2  21   5 414.850 24.9569   1
   2  21  -4 417.191 11.9993   1
  -2  21   3 289.491 9.18019   1
  -2  21   2 271.306 9.85316   1
  -2  21   1 7.94221 4.65768   1
  -2 -21   0 154.730 2.64451   1
   2  21   1 1042.05 6.60182   1
   2  21   2 61.9440 7.17007   1
   2  21   3 604.850 9.30183   1
   2  21   4 203.023 8.34009   1
  -2  22   5 14.6581 23.2141   1
   2  22  -4 315.029 12.0473   1
  -2  22   3 106.419 9.38524   1
  -2  22   2 9.21197 8.36423   1
  -2  22   1 12.0773 4.94941   1
   2  22   0 866.684 4.40017   1
   2  22   1 98.0426 4.43558   1
   2  22   2 800.223 6.77213   1
   2  22   3 5.07462 7.32246   1
  -2  23   4 311.861 14.1383   1
  -2  23   3 57.4404 9.50019   1
  -2  23   2 1072.89 12.0846   1
   2  23  -1-13.0212 8.73513   1
   2  23   0 762.750 7.66730   1
  -2  23  -1 119.760 4.53464   1
  -2  23  -2 30.9384 5.30220   1
   2  23   3 150.558 7.91316   1
  -2  24   4 516.016 15.3453   1
   2  24  -3 3.68207 9.46755   1
  -2  24   2 312.240 9.94889   1
  -2  24   1 53.8262 9.24592   1
   2  24   0 101.464 3.01643   1
  -2  24  -1 11.5765 6.64475   1
   2  24   2 978.353 7.92149   1
  -2  25   3 609.928 16.0152   1
  -2  25   2 1630.82 14.4172   1
   2  25  -1 611.412 11.6091   1
  -2  25   0 60.2330 4.05355   1
  -2  25  -1 186.850 13.4480   1
  -2  25  -2 71.1090 7.57338   1
  -2  26   3 584.717 29.7300   1
  -2  26   2 31.8406 13.4475   1
  -2  26   1 155.389 10.1628   1
  -2  26   0-14.7315 13.8681   1
   2  26   1 34.3899 6.65977   1
  -2  27   1-11.9291 13.8671   1
  -2  27   0 7.18873 14.4945   1
   3   0   4 424.226 9.64349  -2
  -3   0   6 424.226 9.64349   1
   3   0   2 2747.08 12.2940  -2
  -3   0   4 2747.08 12.2940   1
   3   0   0 2346.49 8.58199  -2
  -3   0   2 2346.49 8.58199   1
   3   0  -2 2553.46 10.1378  -2
  -3   0   0 2553.46 10.1378   1
   3   0  -4 2234.94 13.1277  -2
  -3   0  -2 2234.94 13.1277   1
   3   0  -6 389.038 14.8870  -2
  -3   0  -4 389.038 14.8870   1
  -3   1  -5 590.962 8.89580  -2
   3  -1  -7 590.962 8.89580   1
   3   1   4 1597.70 8.45430  -2
  -3  -1   6 1597.70 8.45430   1
   3   1   3-24.4344 8.50886  -2
  -3  -1   5-24.4344 8.50886   1
   3  -1   2 694.598 7.45633  -2
  -3   1   4 694.598 7.45633   1
   3   1   1 477.297 4.20615  -2
  -3  -1   3 477.297 4.20615   1
   3  -1   0 1701.50 5.44840  -2
  -3   1   2 1701.50 5.44840   1
  -3  -1   1 259.531 4.08051   1
   3  -1  -1 624.059 6.01226  -2
  -3   1   1 624.059 6.01226   1
   3   1  -2 1852.19 6.48378  -2
  -3  -1   0 1852.19 6.48378   1
   3   1  -3 538.277 7.57188  -2
  -3  -1  -1 538.277 7.57188   1
   3   1  -4 639.680 6.82821  -2
  -3  -1  -2 639.680 6.82821   1
   3  -1   3-5.74804 5.62827   1
   3  -1  -5 67.1314 7.96686  -2
  -3   1  -3 67.1314 7.96686   1
   3  -1  -6 1374.27 11.2683  -2
  -3   1  -4 1374.27 11.2683   1
  -3   1   7 233.748 11.0923  -2
   3  -1   5 233.748 11.0923   1
  -3   2  -5 664.849 9.10975  -2
   3  -2  -7 664.849 9.10975   1
   3   2   4 17.7616 12.8479  -2
  -3  -2   6 17.7616 12.8479   1
   3   2   3 525.403 6.42745  -2
  -3  -2   5 525.403 6.42745   1
   3  -2   2 486.941 5.90070  -2
  -3   2   4 486.941 5.90070   1
   3  -2   1 312.949 5.28220  -2
  -3   2   3 312.949 5.28220   1
   3  -2   0 1519.06 5.29056  -2
  -3   2   2 1519.06 5.29056   1
  -3  -2   1 574.259 5.04979   1
   3   2  -1 1185.28 7.11137  -2
  -3  -2   1 1185.28 7.11137   1
   3   2  -2 1643.28 6.19872  -2
  -3  -2   0 1643.28 6.19872   1
   3   2  -3 403.328 5.51103  -2
  -3  -2  -1 403.328 5.51103   1
   3  -2  -4 469.372 6.51224  -2
  -3   2  -2 469.372 6.51224   1
   3   2   3 420.098 9.96152   1
   3   2  -5 559.094 8.19393  -2
  -3  -2  -3 559.094 8.19393   1
  -3  -2   6 5.34724 7.94411  -2
   3   2   4 5.34724 7.94411   1
  -3   2   7 426.108 11.7644  -2
   3  -2   5 426.108 11.7644   1
  -3  -3  -5 407.332 17.2441  -2
   3   3  -7 407.332 17.2441   1
   3   3   4 110.847 7.17411  -2
  -3  -3   6 110.847 7.17411   1
   3  -3   3 55.5074 7.62881  -2
  -3   3   5 55.5074 7.62881   1
   3   3   2 3305.63 9.40489  -2
  -3  -3   4 3305.63 9.40489   1
   3   3   1 1857.99 6.51827  -2
  -3  -3   3 1857.99 6.51827   1
   3   3   0 183.587 4.89328  -2
  -3  -3   2 183.587 4.89328   1
  -3  -3   1 1280.38 7.35268   1
   3   3  -1 2702.43 8.02748  -2
  -3  -3   1 2702.43 8.02748   1
   3  -3  -2 206.556 4.80212  -2
  -3   3   0 206.556 4.80212   1
   3  -3  -3 2308.80 8.08912  -2
  -3   3  -1 2308.80 8.08912   1
   3  -3   2 1442.05 5.64039   1
   3  -3  -4 3655.57 12.3577  -2
  -3   3  -2 3655.57 12.3577   1
  -3   3   5-19.3044 7.69627  -2
   3  -3   3-19.3044 7.69627   1
  -3   3   6 38.5917 9.04393  -2
   3  -3   4 38.5917 9.04393   1
  -3   3   7 498.082 11.9879  -2
   3  -3   5 498.082 11.9879   1
  -3  -4  -5 269.085 7.88212  -2
   3   4  -7 269.085 7.88212   1
   3   4   4-9.11176 8.82016  -2
  -3  -4   6-9.11176 8.82016   1
   3  -4   3 1400.21 7.57568  -2
  -3   4   5 1400.21 7.57568   1
   3   4   2 714.563 5.68062  -2
  -3  -4   4 714.563 5.68062   1
  -3   4   3 287.765 6.62706   1
  -3   4  -1 972.770 5.37201  -2
   3  -4  -3 972.770 5.37201   1
  -3   4   2 331.551 6.03105   1
  -3   4   0 471.325 4.20557  -2
   3  -4  -2 471.325 4.20557   1
  -3   4   1 12.1656 5.52309   1
   3   4  -1 4.19430 4.95148  -2
  -3  -4   1 4.19430 4.95148   1
  -3   4   2 478.933 5.21738  -2
   3  -4   0 478.933 5.21738   1
   3  -4  -3 1234.73 6.86421  -2
  -3   4  -1 1234.73 6.86421   1
   3  -4   2 515.660 9.10640   1
   3  -4  -4 824.733 7.30403  -2
  -3   4  -2 824.733 7.30403   1
   3   4   3 581.726 11.7978   1
   3  -4  -5 1265.29 9.93300  -2
  -3   4  -3 1265.29 9.93300   1
   3  -4  -6 23.3878 9.10746  -2
  -3   4  -4 23.3878 9.10746   1
   3  -4  -7 234.120 11.6880  -2
  -3   4  -5 234.120 11.6880   1
  -3  -5  -5 332.707 7.86372  -2
   3   5  -7 332.707 7.86372   1
   3  -5   4 261.989 10.0329  -2
  -3   5   6 261.989 10.0329   1
  -3   5  -3 629.322 7.80188  -2
   3  -5  -5 629.322 7.80188   1
   3   5   2 21.6817 6.02288  -2
  -3  -5   4 21.6817 6.02288   1
  -3   5   3 158.408 6.06286   1
  -3   5  -1 490.047 5.20043  -2
   3  -5  -3 490.047 5.20043   1
  -3   5   2 21.4848 4.64114   1
  -3   5   0 275.010 4.16845  -2
   3  -5  -2 275.010 4.16845   1
  -3   5   1 1486.96 13.8235   1
   3   5  -1 2629.94 5.83386  -2
  -3  -5   1 2629.94 5.83386   1
  -3   5   2 336.734 4.41985  -2
   3  -5   0 336.734 4.41985   1
   3  -5   1 366.869 2.86637   1
   3  -5  -3 592.985 7.20843  -2
  -3   5  -1 592.985 7.20843   1
   3  -5  -4 70.6903 9.05345  -2
  -3   5  -2 70.6903 9.05345   1
  -3  -5   5 639.245 7.65750  -2
   3   5   3 639.245 7.65750   1
   3  -5  -6 255.208 13.0275  -2
  -3   5  -4 255.208 13.0275   1
   3  -5  -7 563.825 13.6455  -2
  -3   5  -5 563.825 13.6455   1
  -3  -6  -5 627.507 8.13052  -2
   3   6  -7 627.507 8.13052   1
  -3   6  -4 219.216 5.93193  -2
   3  -6  -6 219.216 5.93193   1
  -3   6  -3 2519.45 12.0135  -2
   3  -6  -5 2519.45 12.0135   1
  -3   6  -2 25.2376 6.84030  -2
   3  -6  -4 25.2376 6.84030   1
  -3   6   3 2283.37 10.1153   1
  -3   6  -1 2924.76 7.44226  -2
   3  -6  -3 2924.76 7.44226   1
  -3   6   2 216.419 5.00244   1
   3   6   0 241.170 3.88537  -2
  -3  -6   2 241.170 3.88537   1
  -3   6   1 48.2198 6.77040   1
   3   6  -1 40.8190 4.86756  -2
  -3  -6   1 40.8190 4.86756   1
  -3  -6   0 40.2950 5.26192   1
  -3  -6   2 201.227 4.69496  -2
   3   6   0 201.227 4.69496   1
   3  -6  -3 2700.72 9.52540  -2
  -3   6  -1 2700.72 9.52540   1
   3   6   2 2.75935 9.62731   1
   3   6  -4 24.0688 5.84058  -2
  -3  -6  -2 24.0688 5.84058   1
  -3  -6   5 2781.33 10.7233  -2
   3   6   3 2781.33 10.7233   1
  -3   6   6 168.240 10.1799  -2
   3  -6   4 168.240 10.1799   1
   3   6  -7 691.839 11.5365  -2
  -3  -6  -5 691.839 11.5365   1
  -3  -7  -5 113.146 10.1492  -2
   3   7  -7 113.146 10.1492   1
   3   7   4 283.315 5.81746  -2
  -3  -7   6 283.315 5.81746   1
   3   7   3 151.886 7.94312  -2
  -3  -7   5 151.886 7.94312   1
  -3   7  -2 397.864 7.81502  -2
   3  -7  -4 397.864 7.81502   1
  -3  -7   3 2015.17 7.17111   1
   3   7   1 2343.42 10.4847  -2
  -3  -7   3 2343.42 10.4847   1
  -3   7   2 438.666 5.22151   1
   3   7   0 622.947 4.34379  -2
  -3  -7   2 622.947 4.34379   1
  -3  -7   1 243.839 10.5178   1
  -3   7   1 339.262 4.04500  -2
   3  -7  -1 339.262 4.04500   1
  -3  -7   0 235.497 7.30979   1
   3   7  -2 652.817 5.76187  -2
  -3  -7   0 652.817 5.76187   1
   3  -7  -3 2012.55 7.97098  -2
  -3   7  -1 2012.55 7.97098   1
   3   7   2 219.245 11.7527   1
   3  -7  -4 405.102 8.25917  -2
  -3   7  -2 405.102 8.25917   1
  -3  -7   5 203.816 7.27211  -2
   3   7   3 203.816 7.27211   1
  -3   7   6 447.132 10.7824  -2
   3  -7   4 447.132 10.7824   1
  -3   7   7 87.5395 9.50894  -2
   3  -7   5 87.5395 9.50894   1
  -3  -8  -5 544.844 11.4394  -2
   3   8  -7 544.844 11.4394   1
   3   8   4 95.6937 5.13027  -2
  -3  -8   6 95.6937 5.13027   1
   3   8   3 1139.99 10.1502  -2
  -3  -8   5 1139.99 10.1502   1
   3   8   2 550.423 7.30158  -2
  -3  -8   4 550.423 7.30158   1
   3   8   1 684.777 6.92202  -2
  -3  -8   3 684.777 6.92202   1
  -3   8   2 120.193 3.98838   1
   3   8   0 387.230 6.14306  -2
  -3  -8   2 387.230 6.14306   1
   3   8  -1 146.868 3.71579  -2
  -3  -8   1 146.868 3.71579   1
  -3  -8   0 361.256 9.02400   1
   3  -8  -2 406.240 4.83761  -2
  -3   8   0 406.240 4.83761   1
   3  -8  -3 538.379 5.58399  -2
  -3   8  -1 538.379 5.58399   1
   3  -8  -4 626.317 6.54442  -2
  -3   8  -2 626.317 6.54442   1
  -3  -8   5 1232.80 7.99039  -2
   3   8   3 1232.80 7.99039   1
  -3   8   6 88.0599 10.3250  -2
   3  -8   4 88.0599 10.3250   1
  -3   8   7 482.798 11.3236  -2
   3  -8   5 482.798 11.3236   1
   3   9   4 463.500 12.5897  -2
  -3  -9   6 463.500 12.5897   1
   3   9   3 158.444 10.4825  -2
  -3  -9   5 158.444 10.4825   1
   3   9   2 631.373 5.09515  -2
  -3  -9   4 631.373 5.09515   1
  -3   9  -1 1789.57 8.72604  -2
   3  -9  -3 1789.57 8.72604   1
  -3   9   2 150.486 5.86595   1
   3   9   0 955.644 7.41192  -2
  -3  -9   2 955.644 7.41192   1
  -3   9   1 1385.00 6.11792  -2
   3  -9  -1 1385.00 6.11792   1
  -3  -9   0 1127.51 12.3040   1
  -3   9   2 1122.54 6.10624  -2
   3  -9   0 1122.54 6.10624   1
   3  -9  -3 1447.09 7.06972  -2
  -3   9  -1 1447.09 7.06972   1
  -3  -9   4 597.647 7.42181  -2
   3   9   2 597.647 7.42181   1
  -3  -9   5 174.296 6.65199  -2
   3   9   3 174.296 6.65199   1
  -3   9   6 405.480 11.6049  -2
   3  -9   4 405.480 11.6049   1
   3  10   4 378.119 10.8747  -2
  -3 -10   6 378.119 10.8747   1
   3  10   3 283.881 9.66076  -2
  -3 -10   5 283.881 9.66076   1
  -3 -10   4 186.073 2.34070   1
   3  10   2 610.989 8.73445  -2
  -3 -10   4 610.989 8.73445   1
  -3  10  -1 367.511 7.42357  -2
   3 -10  -3 367.511 7.42357   1
  -3  10   0 3439.70 10.1707  -2
   3 -10  -2 3439.70 10.1707   1
  -3  10   1 83.8263 9.50514  -2
   3 -10  -1 83.8263 9.50514   1
   3  10  -2 3014.42 7.42006  -2
  -3 -10   0 3014.42 7.42006   1
   3 -10  -3 281.936 6.09399  -2
  -3  10  -1 281.936 6.09399   1
  -3 -10   4 727.735 6.21277  -2
   3  10   2 727.735 6.21277   1
  -3  10   5 307.996 8.85096  -2
   3 -10   3 307.996 8.85096   1
   3  10  -6 336.258 14.0666  -2
  -3 -10  -4 336.258 14.0666   1
   3  11   4 711.159 14.3325  -2
  -3 -11   6 711.159 14.3325   1
   3  11   3 298.979 9.92950  -2
  -3 -11   5 298.979 9.92950   1
   3  11   2 1048.64 9.68410  -2
  -3 -11   4 1048.64 9.68410   1
  -3  11  -1 625.793 7.44695  -2
   3 -11  -3 625.793 7.44695   1
  -3  11   0 351.825 8.59908  -2
   3 -11  -2 351.825 8.59908   1
  -3 -11   1 1294.77 9.33450   1
   3  11  -1 2315.29 8.55585  -2
  -3 -11   1 2315.29 8.55585   1
   3  11   0 12.1513 7.15913   1
  -3  11   2 303.167 5.66266  -2
   3 -11   0 303.167 5.66266   1
   3 -11  -3 504.666 5.60573  -2
  -3  11  -1 504.666 5.60573   1
  -3 -11   4 1197.40 6.97288  -2
   3  11   2 1197.40 6.97288   1
   3 -11  -5 446.696 10.7875  -2
  -3  11  -3 446.696 10.7875   1
  -3  11   6 590.950 13.3544  -2
   3 -11   4 590.950 13.3544   1
   3  12   4 75.6648 10.3034  -2
  -3 -12   6 75.6648 10.3034   1
   3  12   3 48.1122 11.3984  -2
  -3 -12   5 48.1122 11.3984   1
  -3 -12  -2 89.8366 9.50882  -2
   3  12  -4 89.8366 9.50882   1
  -3  12  -1 239.208 6.97617  -2
   3 -12  -3 239.208 6.97617   1
  -3  12   0 3493.09 11.9753  -2
   3 -12  -2 3493.09 11.9753   1
   3  12  -1 270.743 8.44056  -2
  -3 -12   1 270.743 8.44056   1
   3  12   0 1333.10 11.1102   1
  -3  12   2 3144.37 10.1531  -2
   3 -12   0 3144.37 10.1531   1
   3 -12  -3 188.673 6.99436  -2
  -3  12  -1 188.673 6.99436   1
  -3 -12   4 53.2052 6.93157  -2
   3  12   2 53.2052 6.93157   1
   3 -12  -5 88.8102 10.8690  -2
  -3  12  -3 88.8102 10.8690   1
  -3 -12   6 176.876 13.6455  -2
   3  12   4 176.876 13.6455   1
   3  13   4 1272.66 18.7561  -2
  -3 -13   6 1272.66 18.7561   1
   3 -13   3 108.186 10.7517  -2
  -3  13   5 108.186 10.7517   1
   3 -13   2 1259.65 10.7388  -2
  -3  13   4 1259.65 10.7388   1
  -3  13  -1 239.544 7.14870  -2
   3 -13  -3 239.544 7.14870   1
   3 -13   0 531.123 7.82679  -2
  -3  13   2 531.123 7.82679   1
  -3  13   1 1053.92 9.18667   1
   3  13  -1 2024.47 10.2073  -2
  -3 -13   1 2024.47 10.2073   1
   3  13  -2 415.835 6.88110  -2
  -3 -13   0 415.835 6.88110   1
   3 -13  -3 233.655 7.33247  -2
  -3  13  -1 233.655 7.33247   1
  -3 -13   4 1605.89 9.07987  -2
   3  13   2 1605.89 9.07987   1
  -3  13   5 63.8515 12.1903  -2
   3 -13   3 63.8515 12.1903   1
  -3  13   6 1405.34 13.9728  -2
   3 -13   4 1405.34 13.9728   1
   3  14   4 92.3957 15.1486  -2
  -3 -14   6 92.3957 15.1486   1
   3  14   3 675.618 11.5677  -2
  -3 -14   5 675.618 11.5677   1
   3 -14   2 346.458 10.5227  -2
  -3  14   4 346.458 10.5227   1
  -3  14  -1 75.6671 8.05084  -2
   3 -14  -3 75.6671 8.05084   1
  -3  14   0 388.430 7.81581  -2
   3 -14  -2 388.430 7.81581   1
   3  14  -1 119.439 8.89013  -2
  -3 -14   1 119.439 8.89013   1
  -3  14   2 407.032 6.80987  -2
   3 -14   0 407.032 6.80987   1
   3 -14  -3 71.7521 8.62871  -2
  -3  14  -1 71.7521 8.62871   1
  -3 -14   4 262.106 8.43280  -2
   3  14   2 262.106 8.43280   1
  -3  14   5 776.892 13.7952  -2
   3 -14   3 776.892 13.7952   1
  -3  14   6 57.7305 12.3255  -2
   3 -14   4 57.7305 12.3255   1
   3  15   4 599.701 17.4228  -2
  -3 -15   6 599.701 17.4228   1
   3  15   3 52.2044 9.82179  -2
  -3 -15   5 52.2044 9.82179   1
   3 -15   2 661.864 13.1337  -2
  -3  15   4 661.864 13.1337   1
  -3  15  -1 831.897 11.8524  -2
   3 -15  -3 831.897 11.8524   1
  -3  15   0 617.617 8.41402  -2
   3 -15  -2 617.617 8.41402   1
   3  15  -1 1738.77 9.43864  -2
  -3 -15   1 1738.77 9.43864   1
  -3  15   2 510.639 6.97190  -2
   3 -15   0 510.639 6.97190   1
   3 -15  -3 978.123 7.32565  -2
  -3  15  -1 978.123 7.32565   1
  -3 -15   4 746.058 9.94424  -2
   3  15   2 746.058 9.94424   1
   3 -15  -5 40.1534 11.7678  -2
  -3  15  -3 40.1534 11.7678   1
  -3  15   6 647.275 12.3108  -2
   3 -15   4 647.275 12.3108   1
   3 -16   3 985.309 16.1092  -2
  -3  16   5 985.309 16.1092   1
   3 -16   2 216.619 11.7985  -2
  -3  16   4 216.619 11.7985   1
  -3  16  -1 1003.44 14.1874  -2
   3 -16  -3 1003.44 14.1874   1
  -3  16   0 39.3123 11.8641  -2
   3 -16  -2 39.3123 11.8641   1
   3  16  -1 64.2594 7.02948  -2
  -3 -16   1 64.2594 7.02948   1
   3  16   0-3.73545 5.59961   1
  -3  16   2 53.3217 8.24043  -2
   3 -16   0 53.3217 8.24043   1
   3  16  -3 1214.03 8.19756  -2
  -3 -16  -1 1214.03 8.19756   1
  -3 -16   4 217.171 8.49370  -2
   3  16   2 217.171 8.49370   1
   3 -16  -5 1061.56 17.3069  -2
  -3  16  -3 1061.56 17.3069   1
   3 -17   3 135.152 26.9639  -2
  -3  17   5 135.152 26.9639   1
   3 -17   2 87.8366 14.6448  -2
  -3  17   4 87.8366 14.6448   1
   3 -17   1 914.500 18.4112  -2
  -3  17   3 914.500 18.4112   1
  -3  17   0 84.1834 12.4903  -2
   3 -17  -2 84.1834 12.4903   1
  -3  17   1 628.209 5.45121   1
  -3  17   1 1407.79 11.0334  -2
   3 -17  -1 1407.79 11.0334   1
   3  17   0 20.1492 5.26806   1
  -3  17   2 79.5021 7.06721  -2
   3 -17   0 79.5021 7.06721   1
   3  17   1 517.701 8.95478   1
   3  17  -3 914.637 10.7016  -2
  -3 -17  -1 914.637 10.7016   1
  -3 -17   4 95.0326 8.81807  -2
   3  17   2 95.0326 8.81807   1
   3 -17  -5 104.483 11.8937  -2
  -3  17  -3 104.483 11.8937   1
   3 -18   3 1229.75 33.1546  -2
  -3  18   5 1229.75 33.1546   1
   3 -18   2 145.842 15.4164  -2
  -3  18   4 145.842 15.4164   1
   3 -18   1 586.585 17.7683  -2
  -3  18   3 586.585 17.7683   1
  -3  18   0 18.7973 9.08733  -2
   3 -18  -2 18.7973 9.08733   1
  -3  18   1 39.2240 3.87550   1
  -3  18   1 108.712 10.0540  -2
   3 -18  -1 108.712 10.0540   1
   3  18   0-3.02726 4.78659   1
  -3  18   2 33.9386 7.32644  -2
   3 -18   0 33.9386 7.32644   1
   3  18   1 620.100 9.20361   1
   3  18  -3 748.527 10.0832  -2
  -3 -18  -1 748.527 10.0832   1
  -3 -18   4 191.461 12.3399  -2
   3  18   2 191.461 12.3399   1
   3 -18  -5 1046.11 14.7337  -2
  -3  18  -3 1046.11 14.7337   1
   3 -19   3 210.750 28.2536  -2
  -3  19   5 210.750 28.2536   1
   3 -19   2 260.859 16.9999  -2
  -3  19   4 260.859 16.9999   1
   3 -19   1 236.872 16.1853  -2
  -3  19   3 236.872 16.1853   1
   3 -19   0 514.421 14.3008  -2
  -3  19   2 514.421 14.3008   1
  -3  19   1 3015.13 16.1253  -2
   3 -19  -1 3015.13 16.1253   1
   3  19   0 78.7502 3.70365   1
  -3  19   2 440.336 7.60908  -2
   3 -19   0 440.336 7.60908   1
   3  19   1 38.9604 6.82614   1
  -3  19   3 211.650 10.0286  -2
   3 -19   1 211.650 10.0286   1
  -3 -19   4 350.837 8.08796  -2
   3  19   2 350.837 8.08796   1
   3 -19  -5 247.850 12.2708  -2
  -3  19  -3 247.850 12.2708   1
   3 -20   2 327.492 17.7453  -2
  -3  20   4 327.492 17.7453   1
   3 -20   1 99.9367 12.8509  -2
  -3  20   3 99.9367 12.8509   1
   3 -20   0 774.780 17.2136  -2
  -3  20   2 774.780 17.2136   1
   3  20  -1 27.8974 11.6061  -2
  -3 -20   1 27.8974 11.6061   1
   3  20  -2 593.812 20.1305  -2
  -3 -20   0 593.812 20.1305   1
   3  20   1 32.3453 6.65766   1
   3 -20  -3 98.1163 9.16286  -2
  -3  20  -1 98.1163 9.16286   1
   3 -20  -4 316.324 11.5170  -2
  -3  20  -2 316.324 11.5170   1
   3 -21   2 774.684 20.0257  -2
  -3  21   4 774.684 20.0257   1
   3 -21   1 909.917 33.6460  -2
  -3  21   3 909.917 33.6460   1
   3 -21   0 60.9158 14.4813  -2
  -3  21   2 60.9158 14.4813   1
   3 -21  -1-3.10382 14.5661  -2
  -3  21   1-3.10382 14.5661   1
   3 -21  -2 38.1894 17.8688  -2
  -3  21   0 38.1894 17.8688   1
   3 -21  -3 916.551 21.4490  -2
  -3  21  -1 916.551 21.4490   1
   3 -21  -4 890.069 21.1766  -2
  -3  21  -2 890.069 21.1766   1
   3 -22   1 590.969 31.9717  -2
  -3  22   3 590.969 31.9717   1
   3 -22   0 1778.90 21.6740  -2
  -3  22   2 1778.90 21.6740   1
   3 -22  -1 6.58857 14.8506  -2
  -3  22   1 6.58857 14.8506   1
   3 -22  -2 1695.31 27.8702  -2
  -3  22   0 1695.31 27.8702   1
   3 -22  -3 441.698 19.3830  -2
  -3  22  -1 441.698 19.3830   1
   3 -23   1 153.753 31.2665  -2
  -3  23   3 153.753 31.2665   1
   3 -23   0 106.835 32.0211  -2
  -3  23   2 106.835 32.0211   1
   3 -23  -1 188.500 21.4866  -2
  -3  23   1 188.500 21.4866   1
   3 -23  -2 121.265 19.1561  -2
  -3  23   0 121.265 19.1561   1
   3 -23  -3 95.1060 17.5660  -2
  -3  23  -1 95.1060 17.5660   1
   3 -24   0 855.646 22.5098  -2
  -3  24   2 855.646 22.5098   1
   3 -24  -1 21.7558 20.1942  -2
  -3  24   1 21.7558 20.1942   1
   3 -24  -2 964.330 24.1568  -2
  -3  24   0 964.330 24.1568   1
  -4   0   6 325.236 9.13239   1
  -4   0   4 960.530 12.4680   1
  -4   0   2 751.782 8.50398   1
  -4   0   0 197.891 7.05429   1
  -4   0  -2 2122.84 18.4649   1
   4  -1   3 67.2368 5.86771  -2
  -4   1   6 67.2368 5.86771   1
   4   1   2 727.125 6.61588  -2
  -4  -1   5 727.125 6.61588   1
   4   1   1 757.326 7.82537  -2
  -4  -1   4 757.326 7.82537   1
   4  -1   0 788.397 7.46549  -2
  -4   1   3 788.397 7.46549   1
  -4   1   2 701.573 7.49428   1
   4  -1  -1 1051.67 9.40241  -2
  -4   1   2 1051.67 9.40241   1
   4  -1  -2 953.378 7.99987  -2
  -4   1   1 953.378 7.99987   1
   4   1  -3 1188.12 7.46359  -2
  -4  -1   0 1188.12 7.46359   1
   4  -1  -4 1005.75 8.72804  -2
  -4   1  -1 1005.75 8.72804   1
   4  -1  -5 630.601 10.5687  -2
  -4   1  -2 630.601 10.5687   1
   4  -1  -6 77.9904 9.44856  -2
  -4   1  -3 77.9904 9.44856   1
   4   2   3 337.148 8.53066  -2
  -4  -2   6 337.148 8.53066   1
   4   2   2 166.391 6.29060  -2
  -4  -2   5 166.391 6.29060   1
   4   2   1 487.803 8.39963  -2
  -4  -2   4 487.803 8.39963   1
   4   2   0-32.0161 8.38651  -2
  -4  -2   3-32.0161 8.38651   1
  -4  -2   2 232.264 6.50127   1
   4  -2  -1 557.062 7.27195  -2
  -4   2   2 557.062 7.27195   1
   4  -2  -2 643.325 7.01080  -2
  -4   2   1 643.325 7.01080   1
   4  -2  -3 33.2273 5.03480  -2
  -4   2   0 33.2273 5.03480   1
   4  -2  -4 469.111 6.83983  -2
  -4   2  -1 469.111 6.83983   1
   4  -2  -5 225.006 8.92993  -2
  -4   2  -2 225.006 8.92993   1
   4  -2  -6 305.111 14.9571  -2
  -4   2  -3 305.111 14.9571   1
   4   3   3 329.343 10.8235  -2
  -4  -3   6 329.343 10.8235   1
   4   3   2 1097.63 10.8911  -2
  -4  -3   5 1097.63 10.8911   1
   4   3   1 253.546 7.96031  -2
  -4  -3   4 253.546 7.96031   1
   4   3   0 611.399 6.35652  -2
  -4  -3   3 611.399 6.35652   1
   4   3  -1 182.488 6.22103  -2
  -4  -3   2 182.488 6.22103   1
   4  -3  -2 137.848 7.89130  -2
  -4   3   1 137.848 7.89130   1
   4  -3  -3 781.172 6.65782  -2
  -4   3   0 781.172 6.65782   1
   4  -3  -4 365.860 8.15422  -2
  -4   3  -1 365.860 8.15422   1
   4  -3  -5 1107.56 12.2965  -2
  -4   3  -2 1107.56 12.2965   1
   4  -3  -6 564.873 11.6628  -2
  -4   3  -3 564.873 11.6628   1
   4   4   3 106.456 11.9737  -2
  -4  -4   6 106.456 11.9737   1
   4   4   2 93.5071 6.34141  -2
  -4  -4   5 93.5071 6.34141   1
   4   4   1 525.614 7.50200  -2
  -4  -4   4 525.614 7.50200   1
   4   4   0 29.4793 8.17971  -2
  -4  -4   3 29.4793 8.17971   1
   4   4  -1 843.982 7.14801  -2
  -4  -4   2 843.982 7.14801   1
   4   4  -2 1153.21 7.89092  -2
  -4  -4   1 1153.21 7.89092   1
   4  -4  -3 75.7891 6.93029  -2
  -4   4   0 75.7891 6.93029   1
   4  -4  -4 752.351 9.24660  -2
  -4   4  -1 752.351 9.24660   1
   4  -4  -5 70.0531 8.67493  -2
  -4   4  -2 70.0531 8.67493   1
   4  -4  -6 70.8168 14.2870  -2
  -4   4  -3 70.8168 14.2870   1
   4   5   3 325.509 11.1880  -2
  -4  -5   6 325.509 11.1880   1
   4   5   2 666.395 12.0363  -2
  -4  -5   5 666.395 12.0363   1
   4   5   1 148.827 6.47217  -2
  -4  -5   4 148.827 6.47217   1
   4   5   0 185.499 4.65951  -2
  -4  -5   3 185.499 4.65951   1
   4   5  -1 68.0992 6.35036  -2
  -4  -5   2 68.0992 6.35036   1
   4   5  -2 125.240 7.66568  -2
  -4  -5   1 125.240 7.66568   1
   4  -5  -3 163.762 6.46046  -2
  -4   5   0 163.762 6.46046   1
   4  -5  -4 163.282 7.47871  -2
  -4   5  -1 163.282 7.47871   1
   4  -5  -5 718.103 15.3681  -2
  -4   5  -2 718.103 15.3681   1
   4  -5  -6 444.747 17.4793  -2
  -4   5  -3 444.747 17.4793   1
   4   6   3 81.8580 13.6900  -2
  -4  -6   6 81.8580 13.6900   1
   4   6   2 163.810 8.99784  -2
  -4  -6   5 163.810 8.99784   1
   4   6   1 599.690 9.67589  -2
  -4  -6   4 599.690 9.67589   1
   4   6   0 715.451 5.40918  -2
  -4  -6   3 715.451 5.40918   1
   4   6  -1 769.119 5.86233  -2
  -4  -6   2 769.119 5.86233   1
   4   6  -2 1008.35 9.13410  -2
  -4  -6   1 1008.35 9.13410   1
   4  -6  -3 637.569 6.52855  -2
  -4   6   0 637.569 6.52855   1
   4  -6  -4 793.173 9.46812  -2
  -4   6  -1 793.173 9.46812   1
   4  -6  -5 82.4436 12.2771  -2
  -4   6  -2 82.4436 12.2771   1
   4  -6  -6 26.5928 14.1392  -2
  -4   6  -3 26.5928 14.1392   1
   4   7   3 271.112 11.1902  -2
  -4  -7   6 271.112 11.1902   1
   4   7   2 380.521 10.1042  -2
  -4  -7   5 380.521 10.1042   1
   4   7   1 124.772 5.28271  -2
  -4  -7   4 124.772 5.28271   1
   4   7   0 1028.76 7.12741  -2
  -4  -7   3 1028.76 7.12741   1
   4   7  -1 248.273 6.24815  -2
  -4  -7   2 248.273 6.24815   1
   4   7  -2 382.774 6.91440  -2
  -4  -7   1 382.774 6.91440   1
   4  -7  -3 1045.20 7.34476  -2
  -4   7   0 1045.20 7.34476   1
   4  -7  -4 82.1174 8.43614  -2
  -4   7  -1 82.1174 8.43614   1
   4  -7  -5 302.750 14.9446  -2
  -4   7  -2 302.750 14.9446   1
   4  -7  -6 489.586 11.5413  -2
  -4   7  -3 489.586 11.5413   1
   4   8   3 392.450 12.7668  -2
  -4  -8   6 392.450 12.7668   1
   4   8   2 98.1768 13.0447  -2
  -4  -8   5 98.1768 13.0447   1
  -4   8  -1 194.288 6.26664  -2
   4  -8  -4 194.288 6.26664   1
   4   8   0 485.925 7.39450  -2
  -4  -8   3 485.925 7.39450   1
  -4   8   1 562.522 5.71210  -2
   4  -8  -2 562.522 5.71210   1
  -4  -8   1 421.514 6.92504   1
  -4   8   2 725.318 5.40887  -2
   4  -8  -1 725.318 5.40887   1
   4  -8  -3 309.565 8.42912  -2
  -4   8   0 309.565 8.42912   1
   4  -8  -4 102.274 11.2774  -2
  -4   8  -1 102.274 11.2774   1
   4  -8  -5 95.6840 12.9053  -2
  -4   8  -2 95.6840 12.9053   1
   4  -8  -6 393.578 11.6780  -2
  -4   8  -3 393.578 11.6780   1
   4   9   3 264.591 14.4038  -2
  -4  -9   6 264.591 14.4038   1
   4   9   2 695.418 14.2721  -2
  -4  -9   5 695.418 14.2721   1
  -4   9  -1 560.137 8.80680  -2
   4  -9  -4 560.137 8.80680   1
  -4   9   0 1976.41 12.3930  -2
   4  -9  -3 1976.41 12.3930   1
   4   9  -1 1436.35 8.00481  -2
  -4  -9   2 1436.35 8.00481   1
   4   9  -2 1092.00 12.3221  -2
  -4  -9   1 1092.00 12.3221   1
   4  -9  -3 1573.48 13.5186  -2
  -4   9   0 1573.48 13.5186   1
   4  -9  -4 518.786 11.4992  -2
  -4   9  -1 518.786 11.4992   1
   4  -9  -5 1007.94 13.3139  -2
  -4   9  -2 1007.94 13.3139   1
   4  -9  -6 476.756 11.6995  -2
  -4   9  -3 476.756 11.6995   1
   4  10   2 479.877 11.6912  -2
  -4 -10   5 479.877 11.6912   1
  -4  10  -1 1104.64 9.65103  -2
   4 -10  -4 1104.64 9.65103   1
   4  10   0 269.142 9.74397  -2
  -4 -10   3 269.142 9.74397   1
   4  10  -1 476.824 4.70827  -2
  -4 -10   2 476.824 4.70827   1
   4  10  -2 365.750 8.32495  -2
  -4 -10   1 365.750 8.32495   1
   4 -10  -3 334.100 6.87252  -2
  -4  10   0 334.100 6.87252   1
   4 -10  -4 997.829 10.0029  -2
  -4  10  -1 997.829 10.0029   1
   4 -10  -5 703.153 12.4839  -2
  -4  10  -2 703.153 12.4839   1
   4  11   2 396.416 9.86545  -2
  -4 -11   5 396.416 9.86545   1
  -4  11  -1 176.773 7.61206  -2
   4 -11  -4 176.773 7.61206   1
   4  11   0 410.405 9.33363  -2
  -4 -11   3 410.405 9.33363   1
   4  11  -1 209.911 7.52063  -2
  -4 -11   2 209.911 7.52063   1
  -4  11   2 209.853 6.31937  -2
   4 -11  -1 209.853 6.31937   1
   4 -11  -3 628.328 15.6126  -2
  -4  11   0 628.328 15.6126   1
   4 -11  -4 132.871 10.3682  -2
  -4  11  -1 132.871 10.3682   1
   4 -11  -5 563.335 15.9845  -2
  -4  11  -2 563.335 15.9845   1
   4  12   2 240.356 9.60312  -2
  -4 -12   5 240.356 9.60312   1
   4  12   1 912.333 13.5746  -2
  -4 -12   4 912.333 13.5746   1
   4  12   0 112.860 7.02314  -2
  -4 -12   3 112.860 7.02314   1
  -4  12   1 564.801 10.9113  -2
   4 -12  -2 564.801 10.9113   1
  -4  12   2 451.416 9.59869  -2
   4 -12  -1 451.416 9.59869   1
   4 -12  -3 101.935 6.21508  -2
  -4  12   0 101.935 6.21508   1
   4 -12  -4 608.461 8.29142  -2
  -4  12  -1 608.461 8.29142   1
   4 -12  -5 379.768 15.0745  -2
  -4  12  -2 379.768 15.0745   1
   4  13   2 168.116 9.55307  -2
  -4 -13   5 168.116 9.55307   1
   4  13   1 791.885 10.9220  -2
  -4 -13   4 791.885 10.9220   1
   4  13   0 1120.79 13.7895  -2
  -4 -13   3 1120.79 13.7895   1
  -4  13   1 37.7176 10.4482  -2
   4 -13  -2 37.7176 10.4482   1
  -4  13   2 37.6357 9.78954  -2
   4 -13  -1 37.6357 9.78954   1
   4 -13  -3 1035.08 9.60855  -2
  -4  13   0 1035.08 9.60855   1
   4 -13  -4 575.282 9.93621  -2
  -4  13  -1 575.282 9.93621   1
   4 -13  -5 233.200 14.4671  -2
  -4  13  -2 233.200 14.4671   1
   4  14   2 82.6302 11.3583  -2
  -4 -14   5 82.6302 11.3583   1
   4  14   1 231.960 11.1204  -2
  -4 -14   4 231.960 11.1204   1
  -4  14   0 263.616 9.51993  -2
   4 -14  -3 263.616 9.51993   1
  -4  14   1 215.175 10.4658  -2
   4 -14  -2 215.175 10.4658   1
  -4  14   2 175.709 11.0363  -2
   4 -14  -1 175.709 11.0363   1
   4 -14  -3 171.669 7.82113  -2
  -4  14   0 171.669 7.82113   1
   4 -14  -4 257.963 11.4289  -2
  -4  14  -1 257.963 11.4289   1
   4 -14  -5 68.7961 24.9624  -2
  -4  14  -2 68.7961 24.9624   1
   4  15   1 125.683 9.78241  -2
  -4 -15   4 125.683 9.78241   1
  -4  15   0 231.403 10.6135  -2
   4 -15  -3 231.403 10.6135   1
  -4  15   1 497.830 12.1418  -2
   4 -15  -2 497.830 12.1418   1
  -4  15   2 392.226 12.6229  -2
   4 -15  -1 392.226 12.6229   1
   4 -15  -3 201.153 7.53839  -2
  -4  15   0 201.153 7.53839   1
   4 -15  -4 134.783 18.7084  -2
  -4  15  -1 134.783 18.7084   1
   4  16   1 410.773 15.0522  -2
  -4 -16   4 410.773 15.0522   1
   4 -16   0 113.470 13.3556  -2
  -4  16   3 113.470 13.3556   1
  -4  16   1 500.922 12.6429  -2
   4 -16  -2 500.922 12.6429   1
  -4  16   2 578.770 13.8446  -2
   4 -16  -1 578.770 13.8446   1
  -4  16   3 111.741 10.8275  -2
   4 -16   0 111.741 10.8275   1
   4 -16  -4 717.874 22.6618  -2
  -4  16  -1 717.874 22.6618   1
   4 -17   1 463.612 18.2212  -2
  -4  17   4 463.612 18.2212   1
   4 -17   0 185.231 16.5626  -2
  -4  17   3 185.231 16.5626   1
  -4  17   1 101.820 11.4517  -2
   4 -17  -2 101.820 11.4517   1
  -4  17   2 112.635 12.1220  -2
   4 -17  -1 112.635 12.1220   1
   4 -17  -3 255.877 18.6800  -2
  -4  17   0 255.877 18.6800   1
   4 -18   0 149.246 16.8067  -2
  -4  18   3 149.246 16.8067   1
   4 -18  -1 412.434 18.3763  -2
  -4  18   2 412.434 18.3763   1
  -4  18   2 565.486 14.7857  -2
   4 -18  -1 565.486 14.7857   1
   4 -18  -3 195.454 18.3452  -2
  -4  18   0 195.454 18.3452   1
   4 -19  -1 56.5245 17.1151  -2
  -4  19   2 56.5245 17.1151   1
   4 -19  -2 72.7027 19.9954  -2
  -4  19   1 72.7027 19.9954   1
   5   0  -2 185.809 15.4966  -2
  -5   0   2 185.809 15.4966   1
  -5   0   0 1118.66 14.8123   1
   5  -1   0 198.134 13.7143  -2
  -5   1   4 198.134 13.7143   1
   5  -1  -1 307.113 12.9023  -2
  -5   1   3 307.113 12.9023   1
   5  -1  -2 474.259 10.6908  -2
  -5   1   2 474.259 10.6908   1
   5  -1  -3 16.9709 9.04006  -2
  -5   1   1 16.9709 9.04006   1
  -5   1   0 298.364 8.15998   1
   5  -2   0 228.761 14.7624  -2
  -5   2   4 228.761 14.7624   1
   5   2  -1-1.59361 14.6791  -2
  -5  -2   3-1.59361 14.6791   1
  -5  -2   2 148.337 8.71535   1
   5  -2  -2 206.214 9.85428  -2
  -5   2   2 206.214 9.85428   1
   5  -2  -3 55.6525 9.33627  -2
  -5   2   1 55.6525 9.33627   1
  -5   2   0 290.917 7.84071   1
   5  -3   0 257.308 15.9951  -2
  -5   3   4 257.308 15.9951   1
   5  -3  -1 149.714 14.6859  -2
  -5   3   3 149.714 14.6859   1
   5  -3  -2 925.517 11.0512  -2
  -5   3   2 925.517 11.0512   1
   5  -3  -3 78.6563 9.00684  -2
  -5   3   1 78.6563 9.00684   1
  -5   3   0 98.1032 7.07206   1
   5  -4   0 40.4647 15.8676  -2
  -5   4   4 40.4647 15.8676   1
   5  -4  -1 630.205 17.9423  -2
  -5   4   3 630.205 17.9423   1
   5  -4  -2 212.050 15.7100  -2
  -5   4   2 212.050 15.7100   1
   5  -4  -3 714.889 10.3593  -2
  -5   4   1 714.889 10.3593   1
  -5   4   0 65.3488 7.08634   1
   5  -5   0 229.242 17.6380  -2
  -5   5   4 229.242 17.6380   1
   5  -5  -1 595.160 18.4380  -2
  -5   5   3 595.160 18.4380   1
   5  -5  -2 51.0903 15.0890  -2
  -5   5   2 51.0903 15.0890   1
   5  -5  -3 438.657 18.7852  -2
  -5   5   1 438.657 18.7852   1
  -5   5   0 20.5696 6.70932   1
   5  -6   0 92.7349 17.4494  -2
  -5   6   4 92.7349 17.4494   1
   5  -6  -1 1215.90 21.2824  -2
  -5   6   3 1215.90 21.2824   1
   5  -6  -2 223.828 15.7398  -2
  -5   6   2 223.828 15.7398   1
   5  -6  -3 1007.36 20.2168  -2
  -5   6   1 1007.36 20.2168   1
  -5   6   0 32.8733 12.1485   1
   5  -7  -1 443.594 18.6266  -2
  -5   7   3 443.594 18.6266   1
   5  -7  -2 452.564 17.1393  -2
  -5   7   2 452.564 17.1393   1
   5  -7  -3 501.937 18.5982  -2
  -5   7   1 501.937 18.5982   1
   5  -8  -1 231.887 18.3174  -2
  -5   8   3 231.887 18.3174   1
   5  -8  -2 266.699 16.8445  -2
  -5   8   2 266.699 16.8445   1
   5  -8  -3 130.100 17.6225  -2
  -5   8   1 130.100 17.6225   1
   5  -9  -1 312.235 19.2397  -2
  -5   9   3 312.235 19.2397   1
   5  -9  -2 408.236 17.9981  -2
  -5   9   2 408.236 17.9981   1
  -5   9   1 285.094 14.9967   1
   5 -10  -2 92.7955 17.1368  -2
  -5  10   2 92.7955 17.1368   1
  -1   0   8-9.55928 13.6894   2
   1   0  -6 903.450 12.4379   2
   1   0  -4 79.8581 4.24184   2
  -1   0   2 2367.37 7.25904   2
   1   0   0 4041.08 7.52338   2
   1   0   2 1684.67 7.40923   2
   1   0   4 536.442 6.55425   2
  -1   0  -6 788.818 15.9890   2
  -1   1   8 58.0509 10.0018   2
   1   1  -7-4.76983 8.54350   2
   1   1  -6 918.458 11.7170   2
  -1   1   5 11.4796 4.98042   2
   1  -1  -4 26.6521 3.18657   2
  -1   1   3 197.411 2.75585   2
  -1   1   2 453.123 3.60823   2
  -1   1   1 6969.40 10.6096   2
   1   1   0 3364.80 5.02398   2
  -1   1  -1 8.32565 2.08931   2
   1   1   2 5252.48 8.15106   2
   1   1   3 346.791 3.30413   2
   1   1   4 786.674 5.19039   2
   1   1   5 786.647 5.71591   2
  -1   1  -6 97.1934 8.76416   2
  -1   1  -7 26.2838 8.85913   2
  -1   2   8 4.55842 8.88747   2
   1   2  -7 14.6658 7.40572   2
   1   2  -6 433.172 10.0480   2
   1  -2  -5 9.01123 4.02160   2
  -1   2   4 761.973 5.40642   2
   1   2  -3 2472.38 6.98695   2
  -1   2   2 1473.07 5.15445   2
  -1   2   1 3977.21 5.89786   2
   1  -2   0 343.740 2.69589   2
   1  -2   1 290.717 2.73238   2
   1   2   2 621.703 4.07964   2
   1   2   3 11.7163 3.01539   2
   1   2   4 337.787 3.84214   2
   1   2   5 337.036 5.19295   2
  -1  -2  -6 277.993 9.51549   2
  -1  -2  -7 100.856 9.26121   2
  -1   3   7-8.71835 10.8682   2
   1   3  -6 178.037 8.96936   2
   1  -3  -5 792.777 5.62060   2
   1  -3  -4 319.279 4.41534   2
   1  -3  -3 846.835 4.03309   2
   1  -3  -2 1488.88 4.41891   2
   1   3  -1 19164.6 20.8123   2
   1  -3   0 6034.12 5.90082   2
  -1   3  -1 353.355 3.07151   2
   1   3   2-3.68611 3.20968   2
  -1   3  -3 1532.92 5.11671   2
  -1   3  -4 506.982 4.77670   2
   1   3   5 1253.14 6.89025   2
  -1  -3  -6 134.068 8.93685   2
   1   4  -7 692.083 10.7496   2
  -1   4   6 1.28957 8.13581   2
   1  -4  -5 38.2762 4.31338   2
  -1   4   4 2043.18 9.81413   2
  -1   4   3 54.0173 4.06303   2
   1  -4  -2 155.709 2.90775   2
   1  -4  -1 13438.8 9.91839   2
   1  -4   0 215.246 2.93717   2
   1   4   1 329.586 3.23447   2
  -1   4  -2 7.70904 3.01574   2
  -1   4  -3 1482.50 5.00545   2
  -1   4  -4 225.192 3.95489   2
  -1   4  -5 17.5178 6.29102   2
  -1  -4  -6 196.409 9.12906   2
  -1  -4  -7 141.877 13.1783   2
   1   5  -7 90.8619 8.81956   2
  -1   5   6 52.3734 6.55877   2
   1  -5  -5 1300.38 10.2704   2
   1  -5  -4 1.34920 3.52159   2
   1  -5  -3 1598.66 8.50667   2
   1  -5  -2 687.344 4.65529   2
   1  -5  -1 112.481 2.43114   2
   1  -5   0 1554.24 5.33580   2
  -1  -5  -1 2.53442 2.05687   2
  -1   5  -2 526.904 3.82675   2
  -1   5  -3 717.658 4.15930   2
  -1   5  -4 687.095 4.89251   2
   1   5   5 3.00078 5.43942   2
  -1  -5  -6 290.952 9.46527   2
  -1  -5  -7 892.274 17.3510   2
   1   6  -7 399.662 10.1277   2
   1   6  -6 14.5532 5.15168   2
   1  -6  -5 2472.66 10.8171   2
   1  -6  -4 81.3908 4.27752   2
   1  -6  -3 222.612 5.15954   2
   1  -6  -2 2501.20 5.77924   2
   1  -6  -1 3966.30 5.34748   2
   1   6   0 476.364 3.54296   2
   1   6   1 9648.67 10.2420   2
  -1   6  -2 1068.58 4.33346   2
  -1   6  -3 1533.63 5.96496   2
  -1   6  -4 734.004 5.06323   2
   1   6   5 6.36310 4.55839   2
  -1  -6  -6 36.9157 8.31166   2
  -1  -6  -7 308.195 13.8573   2
   1   7  -7 559.700 11.3486   2
   1  -7  -6 385.896 6.45487   2
   1  -7  -5 144.182 4.45703   2
   1  -7  -4 415.190 5.29152   2
   1   7  -3 1324.30 6.03186   2
  -1   7   2 2293.86 6.10833   2
   1  -7  -1 111.307 2.15028   2
   1   7   0 734.257 4.25774   2
  -1  -7  -1 11.1136 2.34190   2
  -1   7  -2 136.433 2.87426   2
   1   7   3 11.0924 3.05651   2
  -1   7  -4 100.403 3.59535   2
  -1   7  -5 532.048 5.66579   2
  -1  -7  -6 40.2906 8.31461   2
   1  -8  -7 236.893 9.51732   2
   1  -8  -6 174.811 6.82912   2
   1  -8  -5 108.243 4.14526   2
   1  -8  -4 207.001 4.32282   2
   1  -8  -3 40.4919 3.25897   2
  -1   8   2 1570.21 5.94337   2
  -1  -8   1 80.1785 4.30718   2
   1   8   0 194.702 2.48122   2
   1   8   1 5996.89 7.15598   2
  -1   8  -2 109.964 2.56813   2
   1   8   3 1763.23 6.00045   2
  -1   8  -4 224.448 4.61661   2
  -1   8  -5 39.0284 4.53090   2
  -1   8  -6 188.726 9.06991   2
  -1   9   7 7.45616 7.81431   2
   1  -9  -6 37.9094 6.11938   2
   1  -9  -5 166.963 3.99822   2
   1  -9  -4 8.53483 3.81894   2
   1  -9  -3 1022.06 6.25801   2
  -1   9   2 1259.23 5.93462   2
  -1  -9   1 549.042 3.60911   2
  -1   9   0 27.1265 2.11406   2
   1   9   1 110.595 2.69911   2
  -1   9  -2 2180.08 5.79931   2
   1   9   3 348.516 3.93562   2
  -1   9  -4-3.31809 4.89336   2
  -1   9  -5 905.178 7.60981   2
  -1   9  -6 24.4127 8.30865   2
   1  10  -7 113.428 9.48256   2
   1 -10  -6 206.115 9.13917   2
   1 -10  -5 329.898 5.00868   2
   1 -10  -4 498.335 4.61173   2
   1  10  -3 48.8799 3.21429   2
  -1  10   2 7814.26 14.8919   2
  -1  10   1 50.9971 2.95654   2
  -1  10   0 362.865 2.25021   2
  -1  10  -1 3.97789 2.28428   2
  -1  10  -2 25.6003 2.19743   2
   1  10   3 5.21108 3.36344   2
  -1  10  -4 3845.14 12.2629   2
  -1  10  -5 54.1933 4.77416   2
  -1  10  -6 522.010 10.5570   2
   1 -11  -7 272.077 10.2795   2
  -1  11   6 1.51133 5.86748   2
   1 -11  -5 182.426 4.40617   2
  -1  11   4 22.2387 4.21596   2
  -1  11   3 669.368 4.43522   2
  -1  11   2 165.699 3.52214   2
  -1  11   1-4.46265 3.18963   2
   1  11   0 594.889 2.96745   2
  -1 -11  -1 8.68116 1.72320   2
  -1  11  -2 713.794 3.12255   2
   1  11   3 161.573 3.44691   2
  -1  11  -4 321.585 5.44500   2
   1  11   5 5.56573 5.29172   2
  -1  11  -6 18.4889 8.40342   2
   1  12  -7-3.50713 7.36205   2
   1 -12  -6 14.0533 6.03597   2
  -1  12   5 4.42563 4.59160   2
   1  12  -4 4266.99 11.5377   2
  -1  12   3 99.2974 3.14645   2
  -1 -12   2 347.551 3.19979   2
  -1  12   1 35.5988 3.22434   2
   1 -12   0 1289.70 3.95783   2
   1  12   1 62.9076 1.81663   2
   1  12   2 755.747 3.62623   2
   1  12   3 1017.27 5.03680   2
   1  12   4 505.857 5.55812   2
   1  12   5 38.4414 5.20497   2
  -1  12  -6 730.847 14.0725   2
  -1  13   7 3.55215 9.14026   2
   1 -13  -6 650.806 8.81629   2
   1  13  -5 45.6329 3.78973   2
   1  13  -4 39.5023 3.69251   2
  -1  13   3 586.969 4.29012   2
  -1 -13   2 166.557 3.63836   2
   1 -13  -1 47.6231 3.03038   2
   1 -13   0 4101.64 6.83896   2
   1  13   1 470.130 2.74002   2
   1  13   2 955.256 4.87783   2
   1  13   3 971.486 4.94484   2
   1 -13   4 134.332 4.87600   2
  -1 -13  -5 31.7390 5.94705   2
  -1  13  -6 23.9217 8.34258   2
   1  14  -7 124.056 12.8051   2
   1 -14  -6 399.827 10.1558   2
   1  14  -5 32.7479 5.01987   2
  -1  14   4 210.791 3.87917   2
  -1 -14   3 1.87564 3.32979   2
  -1  14   2 392.725 3.73631   2
   1 -14  -1 762.251 4.54466   2
   1 -14   0 1025.58 4.04774   2
   1  14   1 523.773 3.19443   2
   1  14   2 108.432 3.69666   2
   1  14   3 102.620 4.28400   2
  -1  14  -4 7.06597 3.92989   2
  -1  14  -5 95.2917 5.71434   2
  -1  14  -6 192.701 11.6114   2
   1 -15  -6 783.310 11.7165   2
   1  15  -5 720.680 6.68975   2
   1 -15  -4 11.4730 3.78967   2
  -1  15   3 1677.82 6.45912   2
  -1  15   2 39.1624 3.05590   2
   1 -15  -1 511.473 4.30136   2
   1  15   0 2600.13 6.25490   2
   1  15   1 210.403 3.44055   2
   1  15   2 1301.30 6.72324   2
  -1  15  -3 26.7739 5.95691   2
  -1  15  -4 26.9626 4.08227   2
  -1  15  -5 833.827 12.9976   2
   1 -16  -6 70.1536 8.68018   2
  -1 -16   5 67.2192 8.44615   2
   1 -16  -4 0.93040 3.79919   2
  -1  16   3 189.080 4.02603   2
  -1 -16   2-0.27126 3.64275   2
   1 -16  -1 410.301 3.60185   2
   1  16   0 7.07170 2.64581   2
   1  16   1 2108.47 6.76655   2
  -1  16  -2 23.3806 3.28721   2
  -1  16  -3 26.9450 2.71943   2
   1 -16   4 4.48019 5.12868   2
   1 -16   5 27.3835 6.95320   2
  -1  16  -6 40.6458 13.7084   2
   1 -17  -6 130.276 7.36770   2
   1  17  -5 651.011 7.47293   2
   1 -17  -4 10.1612 3.81319   2
  -1  17   3 922.975 5.32683   2
   1  17  -2 5.95786 4.42907   2
   1 -17  -1 1379.53 6.30438   2
   1 -17   0 96.6265 3.28145   2
  -1 -17  -1 33.9812 3.51801   2
   1 -17   2-7.07429 14.1609   2
  -1 -17  -3 10.5819 2.76431   2
  -1  17  -4 34.2729 4.25684   2
  -1  17  -5 1612.15 15.4569   2
  -1 -18   6 120.820 8.88475   2
  -1 -18   5 14.0103 7.05429   2
  -1  18   4 1.96244 3.95521   2
  -1  18   3 13.3877 4.39898   2
  -1  18   2 18.0968 4.80934   2
   1 -18  -1 116.038 3.84277   2
   1 -18   0 686.048 4.60441   2
   1 -18   1 2099.44 7.93439   2
   1 -18   2 269.791 17.6001   2
   1  18   3 244.439 5.47877   2
  -1 -18  -4 24.5461 5.67342   2
  -1  18  -5 37.7831 4.71410   2
   1 -19  -6 279.993 9.76737   2
   1  19  -5 257.977 6.16339   2
  -1  19   4 21.6079 4.45036   2
  -1  19   3 737.577 8.57692   2
  -1  19   2 58.8009 4.97554   2
  -1  19   1 358.805 4.92368   2
   1 -19   0 1475.24 6.67945   2
   1 -19   1 243.625 4.76303   2
   1 -19   2 1225.14 24.2323   2
  -1 -19  -3 805.086 10.9339   2
  -1  19  -4-5.33093 6.64176   2
  -1  19  -5 238.232 9.00134   2
  -1 -20   5 29.7021 6.60594   2
  -1  20   4 567.002 8.02194   2
   1 -20  -3 45.8253 5.92628   2
   1 -20  -2 7.15486 5.40121   2
   1 -20  -1 770.284 7.96201   2
   1 -20   0 302.744 4.80038   2
  -1 -20  -1 42.0196 4.49867   2
  -1 -20  -3 660.232 12.1654   2
  -1 -20  -4 44.7698 5.78221   2
   1 -20   5 21.2610 11.2653   2
   1 -21  -5 85.9083 6.82179   2
   1 -21  -4 9.36483 6.17057   2
  -1  21   3 264.502 6.76590   2
   1 -21  -2 8.46739 5.52757   2
  -1  21   1 48.1869 6.25868   2
   1 -21   0 1156.95 8.95095   2
  -1 -21  -1 57.4533 4.68472   2
   1 -21   3 23.7544 17.8004   2
  -1 -21  -4 282.520 8.33461   2
  -1 -21  -5-9.37318 11.2125   2
   1 -22  -5 530.252 8.56556   2
   1 -22  -4 776.834 9.16469   2
  -1  22   3 128.844 6.53303   2
  -1  22   2 1608.07 14.0373   2
   1 -22  -1 75.1556 6.21790   2
   1 -22   0 37.2594 4.93059   2
   1 -22   1 57.3453 5.04995   2
  -1 -22  -4 822.495 12.3754   2
   1 -23  -5 81.2805 8.96852   2
   1 -23  -4 6.31886 6.29587   2
  -1  23   3 28.0109 6.00832   2
  -1  23   2 734.957 11.4554   2
   1 -23  -1 63.1428 6.13865   2
   1 -23   0 95.1251 4.91678   2
  -1 -23  -1 39.8558 4.89727   2
   1 -24  -4 571.071 8.52312   2
  -1  24   3 16.3940 7.65686   2
  -1  24   2 1091.99 11.1170   2
   1 -24  -1 18.9141 6.11225   2
   1 -24   0 57.5140 6.24533   2
   1 -24   1 109.981 5.77021   2
   1 -25  -4 119.948 9.83283   2
   1 -25  -3 660.086 12.0057   2
  -1  25   2 574.947 11.2408   2
   1 -25  -1-5.92401 6.16952   2
   1 -25   0 98.3629 5.49724   2
   1 -25   1 74.1035 5.13287   2
   1 -26  -3 83.0290 8.67764   2
  -1  26   2 39.1240 7.75231   2
   1 -26  -1 180.823 8.78354   2
   1 -26   0 229.848 8.89164   2
  -1 -26  -1 702.161 7.70296   2
   1 -27  -3 167.661 9.53193   2
  -1  27   2 17.6265 7.88981   2
   1 -27  -1 22.8638 8.15320   2
  -1 -27  -1 44.6861 5.34977   2
   1 -28  -2 0.10657 8.44140   2
  -1 -28   0 145.532 7.69401   2
  -1  29   1 485.465 20.7090   2
   2   0  -6 1040.52 15.9751   2
   2   0  -4 1239.74 7.98531   2
   2   0  -2 14.2346 4.58506   2
  -2   0   0 716.250 3.86539   2
   2   0   2 5713.73 11.9508   2
   2   0   4 1335.71 9.51871   2
   2   0   6 57.8269 7.97480   2
   2  -1  -7 278.168 10.2187   2
   2  -1  -6 249.446 6.96724   2
  -2   1   5 1.52898 4.64398   2
   2  -1  -4 1541.65 6.18692   2
  -2  -1   3 2.10562 2.45176   2
  -2  -1   2 164.815 4.02341   2
   2  -1  -1 736.760 3.50361   2
   2  -1   0 35.6325 1.84897   2
  -2   1  -1 143.651 2.18532   2
   2   1   2 41.3508 2.52736   2
   2   1   3 379.825 3.62202   2
   2   1   4 42.5333 4.87140   2
   2   1   5 48.3963 4.76535   2
  -2  -1  -6 744.492 8.95712   2
   2  -2  -7 114.084 9.24653   2
   2  -2  -6 1005.47 8.52565   2
   2  -2  -5 464.991 4.86844   2
  -2  -2   4 2.62018 3.93216   2
   2  -2  -3-1.04517 2.48877   2
  -2  -2   2 604.337 4.96565   2
   2   2  -1 1513.07 4.20567   2
  -2  -2   0 2363.38 4.68978   2
  -2   2  -1 39.2584 2.28680   2
   2  -2   2 1469.73 4.37470   2
   2   2   3 278.378 3.46733   2
   2   2   4 301.155 6.63519   2
   2   2   5 180.150 6.59648   2
   2   2   6 18.6595 10.5581   2
   2  -3  -7 462.396 8.61985   2
   2  -3  -6 151.134 7.68877   2
   2  -3  -5 172.976 4.13964   2
  -2   3   4 284.177 3.59571   2
  -2  -3   3 353.239 2.94770   2
   2   3  -2 5264.84 8.36945   2
   2   3  -1 35.6401 2.34471   2
   2  -3   0 1056.54 3.43168   2
  -2   3  -1 2656.18 6.07829   2
  -2  -3  -2 28.2544 2.25893   2
   2  -3   3 14.5914 2.89376   2
   2   3   4 1068.36 5.93263   2
   2  -3   5 116.394 4.81088   2
  -2  -3  -6 67.7225 10.7526   2
  -2   4   7 42.0948 6.89608   2
   2  -4  -6 1.32942 5.73422   2
  -2   4   5 13.4674 4.07041   2
  -2  -4   4 24.0942 2.76093   2
  -2   4   3 3198.74 8.44770   2
   2   4  -2 475.140 3.11216   2
   2   4  -1 3107.26 5.68852   2
   2  -4   0 133.816 2.31481   2
  -2   4  -1 156.066 2.17148   2
  -2   4  -2 6.50846 2.15214   2
  -2   4  -3 18.0972 2.75183   2
  -2   4  -4 5.64389 3.84540   2
   2   4   5 887.128 6.87776   2
   2   4   6 4.05036 10.2063   2
   2  -5  -7 393.742 8.36756   2
   2  -5  -6 2.02202 5.09325   2
   2  -5  -5 326.431 4.53517   2
   2  -5  -4 26.0623 2.83640   2
  -2  -5   3 79.6781 2.53912   2
   2   5  -2 983.269 4.13596   2
   2   5  -1 5.01557 2.42815   2
   2  -5   0 1028.58 3.57627   2
  -2  -5  -1 3891.68 8.55282   2
   2  -5   2 84.8352 2.44458   2
   2   5   3 373.612 3.51375   2
   2   5   4 451.497 4.12713   2
   2   5   5 170.448 4.37276   2
  -2  -5  -6 9.59181 6.24806   2
  -2   6   7 39.7331 7.39541   2
   2  -6  -6 221.784 7.12926   2
   2   6  -5 39.6754 3.98561   2
   2  -6  -4 187.928 3.08468   2
  -2   6   3 4048.47 10.1124   2
   2   6  -2 1989.49 4.65690   2
   2   6  -1 1175.12 3.59015   2
   2  -6   0 832.668 3.61054   2
   2   6   1 227.761 3.82029   2
  -2   6  -2 254.301 2.56330   2
   2   6   3 611.704 3.75330   2
   2   6   4 29.8044 3.29036   2
   2   6   5 345.292 4.69312   2
   2   6   6 16.1413 5.18280   2
   2  -7  -7 328.217 8.04796   2
  -2   7   6 77.3373 5.76293   2
   2  -7  -5 526.835 5.06430   2
   2   7  -4 23.4402 3.37463   2
  -2   7   3 1118.61 4.45583   2
  -2  -7   2 3658.85 6.26762   2
   2   7  -1 1946.59 4.20208   2
   2   7   0 12.3636 1.50549   2
   2  -7   1 20.5832 2.07870   2
  -2  -7  -2 4.00421 1.87603   2
   2   7   3 3997.96 7.15027   2
   2   7   4 409.421 4.03344   2
   2   7   5 44.3348 4.68554   2
  -2  -7  -6 21.8932 5.15863   2
  -2  -8   7 22.9622 7.05121   2
  -2   8   6 3.44979 5.73240   2
   2  -8  -5 1298.48 6.84377   2
   2  -8  -4 64.6584 3.42725   2
   2  -8  -3 34.0801 2.85203   2
  -2  -8   2 493.387 3.60676   2
   2   8  -1 29.6814 2.13451   2
   2   8   0 9.14515 3.49478   2
   2  -8   1 51.0452 2.23210   2
  -2  -8  -2 418.009 3.56919   2
   2   8   3 25.0964 2.83775   2
   2   8   4 9.49704 3.70916   2
   2   8   5 27.8427 3.83290   2
   2   8   6 44.5707 5.33331   2
   2  -9  -7 55.8750 6.56147   2
   2  -9  -6-3.58358 5.63033   2
   2  -9  -5 843.779 6.12340   2
  -2   9   4 757.745 5.58847   2
  -2  -9   3 71.8037 3.39875   2
  -2  -9   2 1068.73 4.00632   2
   2   9  -1 149.321 2.32118   2
   2   9   0 2366.65 10.2426   2
   2   9   1 783.911 6.62799   2
  -2   9  -2 6.39938 2.59280   2
   2   9   3 500.907 3.66338   2
   2   9   4 116.804 3.38685   2
  -2  -9  -5 347.262 5.53169   2
  -2  -9  -6 819.438 8.69863   2
  -2  10   7 38.0530 6.98007   2
   2 -10  -6 324.629 6.86673   2
  -2 -10   5 26.2257 5.05982   2
  -2 -10   4 116.275 3.97787   2
  -2 -10   3 126.807 3.26731   2
  -2 -10   2 863.584 4.01117   2
   2 -10  -1 0.66040 2.32251   2
   2  10   0 223.700 3.72552   2
   2  10   1 397.603 5.90306   2
   2  10   2 463.681 7.05051   2
   2  10   3 31.8230 2.23470   2
   2  10   4 406.578 5.19449   2
  -2 -10  -5 26.4262 4.41014   2
   2  10   6 26.6603 5.92668   2
   2 -11  -6 192.068 6.77450   2
   2 -11  -5 6.88512 4.28309   2
  -2  11   4 511.507 7.18158   2
   2 -11  -3 4.44282 3.43893   2
  -2 -11   2 945.555 4.24337   2
  -2  11   1 73.8688 2.35664   2
   2  11   0 483.858 4.42158   2
   2  11   1 63.9062 5.04705   2
   2  11   2 452.113 7.30325   2
   2  11   3 179.032 4.07027   2
   2  11   4 463.531 5.38913   2
  -2 -11  -5 9.54275 4.21578   2
   2 -12  -7 267.554 13.1871   2
   2 -12  -6 544.233 8.43878   2
  -2  12   5 28.9460 4.40338   2
  -2  12   4 702.464 6.58271   2
   2 -12  -3 67.8829 3.73255   2
   2 -12  -2 4.43189 2.83422   2
   2 -12  -1 1094.96 4.73254   2
   2  12   0 2099.30 8.42211   2
  -2  12  -1 26.8212 5.15764   2
  -2  12  -2 1145.04 12.1799   2
   2  12   3 88.4315 4.19205   2
  -2  12  -4 470.403 5.74782   2
  -2 -12  -5 11.5149 4.20355   2
   2 -13  -7 154.725 12.2632   2
   2 -13  -6 117.481 7.05012   2
   2 -13  -5 202.056 4.37081   2
  -2  13   4 361.297 4.67478   2
  -2  13   3 297.980 4.26675   2
  -2 -13   2 992.873 5.19905   2
   2  13  -1 61.1015 2.20156   2
   2  13   0 545.169 4.87099   2
   2  13   1 722.721 6.09403   2
   2  13   2 60.7408 6.43549   2
   2  13   3 524.588 6.12600   2
  -2  13  -4 359.237 7.66522   2
   2 -13   5 22.7493 3.19440   2
   2 -14  -6 268.490 9.25434   2
  -2  14   5 30.9348 4.46237   2
  -2  14   4 527.301 4.66718   2
  -2 -14   3 781.451 5.47572   2
   2  14  -2 48.8375 3.36362   2
  -2  14   1 37.9041 2.21642   2
   2 -14   0 918.160 6.31357   2
   2  14   1 333.140 4.89552   2
   2  14   2 429.221 7.94139   2
   2  14   3 151.046 5.09414   2
  -2 -14  -4 608.137 8.71759   2
  -2  14  -5 28.4020 3.59588   2
   2 -15  -6 12.6524 10.3566   2
  -2  15   5 419.294 5.60005   2
  -2  15   4 591.513 5.25634   2
  -2 -15   3 40.7670 4.20175   2
   2  15  -2 5.68575 3.38871   2
   2 -15  -1 480.302 4.58423   2
   2 -15   0 1301.50 7.26336   2
   2  15   1 724.212 5.93484   2
  -2 -15  -2 817.210 7.58238   2
   2  15   3 197.308 10.7266   2
  -2 -15  -4 32.6016 7.70715   2
   2  15   5 99.2962 10.9622   2
   2 -16  -6 38.9242 10.3863   2
  -2  16   5 720.196 7.95914   2
  -2 -16   4 3.09420 4.72798   2
  -2 -16   3 167.607 4.22892   2
   2  16  -2 15.6964 3.48774   2
   2 -16  -1 4568.86 15.8171   2
   2  16   0 9.77753 5.02113   2
   2  16   1 181.909 5.31303   2
   2  16   2 50.5365 6.44986   2
   2 -16   3 367.017 17.9025   2
   2 -16   4 190.152 17.0508   2
   2  16   5 404.054 12.7825   2
   2 -17  -6 66.2570 8.07433   2
  -2 -17   5 178.041 6.96519   2
  -2 -17   4 43.0119 4.13904   2
  -2 -17   3 43.6826 3.94472   2
   2  17  -2 46.4194 3.06013   2
   2 -17  -1 494.625 4.80738   2
   2  17   0 422.877 7.14413   2
  -2  17  -1 74.8683 5.08141   2
  -2 -17  -2 538.394 8.22364   2
   2 -17   3 159.470 17.5915   2
   2 -17   4 43.7758 16.5993   2
   2  17   5 296.454 16.1126   2
   2 -18  -6 15.6689 12.4061   2
  -2 -18   5 281.108 7.70571   2
   2 -18  -4 122.817 4.37510   2
  -2 -18   3 618.078 4.81360   2
   2  18  -2 4.27333 3.89021   2
   2 -18  -1 912.954 7.75046   2
   2 -18   0 69.1017 8.07002   2
   2  18   1 436.070 6.30344   2
  -2 -18  -2-1.05567 7.57683   2
   2 -18   3 47.0234 8.22752   2
   2 -18   4 198.864 18.7154   2
  -2 -19   5 219.569 7.55504   2
  -2 -19   4 190.767 4.77463   2
   2 -19  -3 17.8938 3.40553   2
   2  19  -2 45.5091 3.06302   2
   2  19  -1 95.6419 3.49378   2
   2  19   0 179.578 5.96930   2
   2 -19   1 552.969 9.37156   2
   2 -19   2 49.5494 8.21800   2
  -2 -19  -3 312.307 9.81862   2
   2 -19   4 56.5844 18.6952   2
  -2 -20   5 45.6095 6.79416   2
   2 -20  -4 24.6938 6.40269   2
  -2 -20   3 366.098 4.91107   2
   2  20  -2-0.94859 3.89365   2
  -2 -20   1 2.42907 1.57797   2
   2 -20   0 245.212 6.41440   2
   2 -20   1 41.5683 8.35672   2
  -2 -20  -2 133.024 9.10784   2
   2 -20   3 4.34462 8.51850   2
   2 -20   4 549.968 23.0782   2
  -2 -21   5 310.846 7.99560   2
  -2 -21   4 322.828 5.71387   2
  -2 -21   3 230.692 4.80927   2
   2 -21  -2 198.182 3.87918   2
  -2 -21   1 5.68535 1.50112   2
   2 -21   0 134.404 7.82745   2
   2 -21   1 806.948 9.99746   2
   2 -21   2 48.4025 7.33437   2
  -2 -21  -3 433.337 11.2863   2
   2 -21   4 134.000 20.0531   2
   2 -22  -5 9.01226 10.0578   2
  -2 -22   4 240.168 5.29610   2
  -2 -22   3 91.5297 4.31675   2
  -2 -22   2 2.11891 5.50280   2
  -2 -22   1 7.14297 1.62826   2
   2 -22   0 877.148 10.6070   2
   2 -22   1 74.2875 7.50036   2
   2 -22   2 560.940 11.7062   2
   2 -22   3 8.94011 19.8332   2
  -2 -23   4 222.475 5.25218   2
   2 -23  -3 44.5721 6.02645   2
   2 -23  -2 661.252 6.85122   2
  -2 -23   1-1.64340 5.09861   2
   2 -23   0 640.609 10.0769   2
   2 -23   1 94.7464 7.76201   2
   2 -23   2 4.27648 7.58916   2
   2 -23   3 87.8540 21.2329   2
  -2 -24   3-1.93035 5.89634   2
  -2 -24   2 215.698 3.22148   2
  -2 -24   1 43.2706 8.64095   2
   2 -24   0 94.6581 8.23956   2
   2 -24   1 10.2295 7.70960   2
   2 -24   2 764.590 15.1297   2
  -2 -25   3 394.167 7.64190   2
  -2 -25   2 965.153 13.7235   2
  -2 -25   1 470.704 11.0045   2
   2 -25   0 90.1908 8.48382   2
   2 -25   1 121.252 8.45164   2
   2 -25   2 82.1689 12.1536   2
  -2 -26   2 20.7780 5.56095   2
  -2 -26   1 113.403 9.45014   2
   2 -26   0 15.0656 8.91976   2
   2 -26   1 31.2798 11.9294   2
   2 -27  -1 7.37337 13.4355   2
   2 -27   0-11.5936 12.1007   2
  -3   1   5 1.71701 4.18107   2
   3   1  -1 197.898 5.60325   2
  -3   2   5 54.8036 5.48688   2
   3   2  -1 406.062 4.31376   2
  -3  -3   5-3.97913 6.97393   2
   3   3  -1 1036.38 5.82578   2
  -3  -4   5 493.770 9.51573   2
  -3   4   4 80.9210 5.25450   2
   3  -4  -1-0.71812 5.05937   2
   3  -4   0 168.029 4.82465   2
   3  -4   1 769.003 7.75191   2
   3  -5  -1 1093.34 11.8813   2
   3  -5   0 261.789 4.92335   2
   3  -5   1 415.882 6.38060   2
   3   6  -2 128.696 4.42708   2
   3  -6  -1 29.2097 5.82950   2
   3  -6   0 29.9095 3.73743   2
   3  -6   1 864.513 7.76817   2
   3   7  -2 340.998 6.58364   2
   3   7  -1 149.997 9.17135   2
   3  -7   0 164.608 3.79444   2
   3  -7   1 319.766 4.51109   2
   3   8  -2 54.1100 6.26647   2
   3  -8   0 208.949 3.43031   2
   3   9  -2 40.7434 7.02177   2
  -3   9  -4 88.5479 3.03850   2
   3  10   2 313.042 2.82203   2
  -3 -11   2 212.940 6.99668   2
   3  11  -1 878.661 7.82489   2
  -3 -12   2 1561.65 11.0439   2
   3 -13  -1 750.626 4.55484   2
  -3 -16   2 15.8108 4.31550   2
  -3 -17   3 424.737 7.62475   2
  -3 -17   2 20.2008 3.51110   2
   3 -17  -1 383.006 3.52578   2
  -3 -18   3 112.467 6.30710   2
  -3 -19   3 169.302 6.30242   2
  -3 -20   3 63.6196 5.67515   2
   4   0  -6 320.410 15.8853   2
   4   0  -4 952.880 11.9961   2
   4   0  -2 662.571 9.32595   2
   4   0   0 128.526 6.39660   2
   4   0   2 1481.37 11.2958   2
   4   1  -1 374.683 4.76830   2
   4   2  -1 271.609 4.84473   2
   4   8  -2 128.604 3.15240   2
   5   0  -4 28.2920 8.86623   2
   5  -1  -4 95.4475 6.48239   2
   5   1  -2 212.236 8.47581   2
   5   1   0 158.989 9.34457   2
   5  -2  -4 53.7995 6.28612   2
   5  -3  -4 205.303 6.99500   2
   5  -4  -4 46.6873 6.32741   2
   5  -5  -4 248.390 7.23054   2
   5   5  -3 362.694 8.96503   2
   5  -6  -4 120.262 11.5248   2
   5  -9  -3 50.0944 12.3728   2
;
_shelx_hkl_checksum              33660
_shelx_res_file
;
    shelx.res created by SHELXL-2014/7
TITL 2019ncsx0429z_twin1_hklf4_a.res in P2(1)/c
CELL  0.71073   4.1054  22.9727   6.1928   90.000  103.728   90.000
ZERR     4.00   0.0003   0.0013   0.0005    0.000    0.007    0.000
LATT   1
SYMM  - X, 1/2 + Y, 1/2 - Z
SFAC  S    O    C    H
UNIT  4 8 20 24
MERG   0
OMIT    -3.00 180.00
EQIV $1 x-1, y, z-1
HTAB  O2 O1_$1
FMAP   2   53   53
PLAN    6
ACTA    52.00
BOND   $H
CONF
LIST   4
L.S.   4
TEMP  -173.00
WGHT    0.007800    1.356800
BASF   0.43192
FVAR       2.16996
S1    1    0.690952    0.705979    0.555582    11.00000    0.02035    0.01491 =
         0.01826    0.00015    0.00210   -0.00166
O1    2    0.861001    0.644860    0.922269    11.00000    0.02873    0.02397 =
         0.01381    0.00067   -0.00048    0.00280
O2    2    0.080805    0.581034    0.279516    11.00000    0.02114    0.01784 =
         0.01875    0.00022   -0.00172   -0.00345
C1    3    0.686220    0.645033    0.730899    11.00000    0.01608    0.01620 =
         0.01723    0.00018    0.00430    0.00515
C2    3    0.460551    0.600315    0.621557    11.00000    0.01823    0.01333 =
         0.01885    0.00164    0.00672    0.00154
C3    3    0.305965    0.615015    0.411661    11.00000    0.01255    0.01385 =
         0.02017   -0.00112    0.00405    0.00135
C4    3    0.396279    0.672569    0.327576    11.00000    0.01773    0.01459 =
         0.01463    0.00123    0.00200    0.00014
AFIX  23
H4A   4    0.194275    0.697241    0.279783    11.00000   -1.20000
H4B   4    0.498676    0.666944    0.199558    11.00000   -1.20000
AFIX   0
C5    3    0.413833    0.545389    0.742279    11.00000    0.02611    0.01566 =
         0.02262    0.00436    0.00696   -0.00058
AFIX 137
H5A   4    0.229289    0.522700    0.651322    11.00000   -1.50000
H5B   4    0.361138    0.555258    0.884158    11.00000   -1.50000
H5C   4    0.620590    0.522370    0.770127    11.00000   -1.50000
AFIX   0
H1H   4    0.002679    0.596925    0.156446    11.00000    0.04540
HKLF 5
REM  2019ncsx0429z_twin1_hklf4_a.res in P2(1)/c
REM R1 =  0.0500 for    1955 Fo > 4sig(Fo)  and  0.0560 for all    2121 data
REM     79 parameters refined using      0 restraints
END
WGHT      0.0079      1.3553
REM Highest difference peak  0.426,  deepest hole -0.334,  1-sigma level  0.088
Q1    1   0.7011  0.6779  0.6718  11.00000  0.05    0.43
Q2    1   0.3478  0.5832  0.6613  11.00000  0.05    0.38
Q3    1   0.6473  0.6135  0.6626  11.00000  0.05    0.38
Q4    1   0.6106  0.7000  0.7208  11.00000  0.05    0.35
Q5    1   0.1250  0.5998  0.3848  11.00000  0.05    0.35
Q6    1   0.4295  0.6034  0.5124  11.00000  0.05    0.34
;
_shelx_res_checksum              25448
loop_
_space_group_symop_operation_xyz
'x, y, z'
'-x, y+1/2, -z+1/2'
'-x, -y, -z'
'x, -y-1/2, z-1/2'
loop_
_atom_site_type_symbol
_atom_site_label
_atom_site_fract_x
_atom_site_fract_y
_atom_site_fract_z
_atom_site_U_iso_or_equiv
_atom_site_adp_type
_atom_site_calc_flag
_atom_site_occupancy
_atom_site_disorder_assembly
_atom_site_disorder_group
S S1 0.6910(2) 0.70598(3) 0.55558(14) 0.0183(2) Uani d 1 . .
O O1 0.8610(6) 0.64486(10) 0.9223(4) 0.0231(6) Uani d 1 . .
O O2 0.0808(6) 0.58103(10) 0.2795(4) 0.0203(5) Uani d 1 . .
C C1 0.6862(8) 0.64503(13) 0.7309(5) 0.0164(7) Uani d 1 . .
C C2 0.4606(8) 0.60031(13) 0.6216(5) 0.0164(7) Uani d 1 . .
C C3 0.3060(8) 0.61502(12) 0.4117(5) 0.0155(6) Uani d 1 . .
C C4 0.3963(8) 0.67257(13) 0.3276(5) 0.0160(6) Uani d 1 . .
H H4A 0.1943 0.6972 0.2798 0.019 Uiso calc 1 . .
H H4B 0.4987 0.6669 0.1996 0.019 Uiso calc 1 . .
C C5 0.4138(10) 0.54539(13) 0.7423(6) 0.0213(7) Uani d 1 . .
H H5A 0.2293 0.5227 0.6513 0.032 Uiso calc 1 . .
H H5B 0.3611 0.5553 0.8842 0.032 Uiso calc 1 . .
H H5C 0.6206 0.5224 0.7701 0.032 Uiso calc 1 . .
H H1H 0.003(12) 0.597(2) 0.156(8) 0.045(14) Uiso d 1 . .
loop_
_atom_site_aniso_label
_atom_site_aniso_U_11
_atom_site_aniso_U_22
_atom_site_aniso_U_33
_atom_site_aniso_U_12
_atom_site_aniso_U_13
_atom_site_aniso_U_23
S1 0.0204(4) 0.0149(3) 0.0183(4) -0.0017(3) 0.0021(3) 0.0002(3)
O1 0.0287(15) 0.0240(11) 0.0138(11) 0.0028(10) -0.0005(10) 0.0007(9)
O2 0.0211(13) 0.0178(10) 0.0187(12) -0.0034(10) -0.0017(10) 0.0002(9)
C1 0.0161(17) 0.0162(14) 0.0172(15) 0.0052(13) 0.0043(12) 0.0002(12)
C2 0.0182(17) 0.0133(13) 0.0189(15) 0.0015(12) 0.0067(13) 0.0016(12)
C3 0.0126(14) 0.0138(13) 0.0202(16) 0.0013(12) 0.0041(13) -0.0011(12)
C4 0.0177(16) 0.0146(13) 0.0146(14) 0.0001(13) 0.0020(12) 0.0012(11)
C5 0.0261(19) 0.0157(14) 0.0226(16) -0.0006(14) 0.0070(15) 0.0044(13)
loop_
_atom_type_symbol
_atom_type_description
_atom_type_scat_dispersion_real
_atom_type_scat_dispersion_imag
_atom_type_scat_source
S S 0.1246 0.1234 'International Tables Vol C Tables 4.2.6.8 and 6.1.1.4'
O O 0.0106 0.0060 'International Tables Vol C Tables 4.2.6.8 and 6.1.1.4'
C C 0.0033 0.0016 'International Tables Vol C Tables 4.2.6.8 and 6.1.1.4'
H H 0.0000 0.0000 'International Tables Vol C Tables 4.2.6.8 and 6.1.1.4'
loop_
_geom_angle_atom_site_label_1
_geom_angle_atom_site_label_2
_geom_angle_atom_site_label_3
_geom_angle_site_symmetry_1
_geom_angle_site_symmetry_3
_geom_angle
_geom_angle_publ_flag
C1 S1 C4 . . 92.33(15) y
C3 O2 H1H . . 111(3) ?
O1 C1 C2 . . 127.8(3) ?
O1 C1 S1 . . 120.2(3) ?
C2 C1 S1 . . 112.0(2) y
C3 C2 C1 . . 112.2(3) y
C3 C2 C5 . . 127.2(3) ?
C1 C2 C5 . . 120.6(3) ?
O2 C3 C2 . . 123.0(3) ?
O2 C3 C4 . . 119.7(3) y
C2 C3 C4 . . 117.2(3) y
C3 C4 S1 . . 106.2(2) y
C3 C4 H4A . . 110.5 ?
S1 C4 H4A . . 110.5 ?
C3 C4 H4B . . 110.5 ?
S1 C4 H4B . . 110.5 ?
H4A C4 H4B . . 108.7 ?
C2 C5 H5A . . 109.5 ?
C2 C5 H5B . . 109.5 ?
H5A C5 H5B . . 109.5 ?
C2 C5 H5C . . 109.5 ?
H5A C5 H5C . . 109.5 ?
H5B C5 H5C . . 109.5 ?
loop_
_geom_bond_atom_site_label_1
_geom_bond_atom_site_label_2
_geom_bond_site_symmetry_2
_geom_bond_distance
_geom_bond_publ_flag
S1 C1 . 1.775(3) y
S1 C4 . 1.799(3) y
O1 C1 . 1.231(4) y
O2 C3 . 1.332(4) y
O2 H1H . 0.84(5) ?
C1 C2 . 1.440(4) y
C2 C3 . 1.347(4) y
C2 C5 . 1.502(4) y
C3 C4 . 1.499(4) y
C4 H4A . 0.9900 ?
C4 H4B . 0.9900 ?
C5 H5A . 0.9800 ?
C5 H5B . 0.9800 ?
C5 H5C . 0.9800 ?
loop_
_geom_hbond_atom_site_label_D
_geom_hbond_atom_site_label_H
_geom_hbond_atom_site_label_A
_geom_hbond_site_symmetry_A
_geom_hbond_distance_DH
_geom_hbond_distance_HA
_geom_hbond_distance_DA
_geom_hbond_angle_DHA
O2 H1H O1 1_454 0.84(5) 1.80(5) 2.629(3) 168(5)
C4 H4B O1 1_554 0.99 2.58 3.552(4) 169.1
loop_
_geom_torsion_atom_site_label_1
_geom_torsion_atom_site_label_2
_geom_torsion_atom_site_label_3
_geom_torsion_atom_site_label_4
_geom_torsion_site_symmetry_1
_geom_torsion_site_symmetry_2
_geom_torsion_site_symmetry_3
_geom_torsion_site_symmetry_4
_geom_torsion
_geom_torsion_publ_flag
C4 S1 C1 O1 . . . . 179.5(3) ?
C4 S1 C1 C2 . . . . -1.2(3) ?
O1 C1 C2 C3 . . . . 179.4(3) ?
S1 C1 C2 C3 . . . . 0.1(4) ?
O1 C1 C2 C5 . . . . 0.5(5) ?
S1 C1 C2 C5 . . . . -178.8(3) ?
C1 C2 C3 O2 . . . . -178.6(3) ?
C5 C2 C3 O2 . . . . 0.3(5) ?
C1 C2 C3 C4 . . . . 1.4(4) ?
C5 C2 C3 C4 . . . . -179.8(3) ?
O2 C3 C4 S1 . . . . 177.8(3) ?
C2 C3 C4 S1 . . . . -2.1(4) ?
C1 S1 C4 C3 . . . . 1.7(2) ?

_cod_database_fobs_code 2243459
