#------------------------------------------------------------------------------
#$Date: 2019-11-03 11:40:42 +0200 (Sun, 03 Nov 2019) $
#$Revision: 221299 $
#$URL: file:///home/coder/svn-repositories/cod/cif/2/24/31/2243174.cif $
#------------------------------------------------------------------------------
#
# This file is available in the Crystallography Open Database (COD),
# http://www.crystallography.net/. The original data for this entry
# were provided by IUCr Journals, http://journals.iucr.org/.
#
# The file may be used within the scientific community so long as
# proper attribution is given to the journal article from which the
# data were obtained.
#
data_2243174
loop_
_publ_author_name
'Squattrito, Philip J.'
'Lambright-Mutthamsetty, Kelly J.'
'Giolando, Patrick A.'
'Kirschbaum, Kristin'
_publ_section_title
;
 Crystal structures of two coordination isomers of copper(II)
 4-sulfobenzoic acid hexahydrate and two mixed silver/potassium
 4-sulfobenzoic acid salts
;
_journal_coeditor_code           MW2148
_journal_issue                   11
_journal_name_full               'Acta Crystallographica Section E'
_journal_page_first              1801
_journal_page_last               1807
_journal_paper_doi               10.1107/S2056989019014610
_journal_volume                  75
_journal_year                    2019
_chemical_formula_iupac          '[Cu (H2 O)6] (C7 H5 O5 S)2'
_chemical_formula_moiety         'Cu H12 O6 2+, 2(C7 H5 O5 S -)'
_chemical_formula_sum            'C14 H22 Cu O16 S2'
_chemical_formula_weight         573.97
_chemical_name_systematic
;
Hexaaquacopper(II) 4-carboxybenzenesulfonate
;
_space_group_crystal_system      triclinic
_space_group_IT_number           2
_space_group_name_Hall           '-P 1'
_space_group_name_H-M_alt        'P -1'
_symmetry_space_group_name_Hall  '-P 1'
_symmetry_space_group_name_H-M   'P -1'
_atom_sites_solution_hydrogens   mixed
_atom_sites_solution_primary     direct
_atom_sites_solution_secondary   difmap
_audit_creation_method           SHELXL-2014/7
_cell_angle_alpha                72.60(3)
_cell_angle_beta                 77.20(3)
_cell_angle_gamma                82.13(3)
_cell_formula_units_Z            1
_cell_length_a                   6.4380(13)
_cell_length_b                   7.2431(14)
_cell_length_c                   12.088(2)
_cell_measurement_reflns_used    4072
_cell_measurement_temperature    130(2)
_cell_measurement_theta_max      33.04
_cell_measurement_theta_min      3.26
_cell_volume                     523.0(2)
_computing_cell_refinement
;
SAINT (Bruker, 2015)
;
_computing_data_collection
;
APEX3 (Bruker, 2015)
;
_computing_data_reduction
;
SAINT (Bruker, 2015)
;
_computing_molecular_graphics
;
CrystalMaker (Palmer, 2014)
;
_computing_publication_material
;
<i>CELL_NOW 2008/4</i> (Sheldrick, 2008)
;
_computing_structure_refinement
;
SHELXL-2017  (Sheldrick, 2015b)
;
_computing_structure_solution
;
SHELXT-2018 (Sheldrick, 2015a)
;
_diffrn_ambient_temperature      130(2)
_diffrn_measured_fraction_theta_full 0.999
_diffrn_measured_fraction_theta_max 0.900
_diffrn_measurement_device_type  'Bruker APEXII CCD'
_diffrn_measurement_method       '\f and \w scans'
_diffrn_radiation_type           MoK\a
_diffrn_radiation_wavelength     0.71073
_diffrn_reflns_av_R_equivalents  0.045
_diffrn_reflns_av_unetI/netI     0.0448
_diffrn_reflns_limit_h_max       9
_diffrn_reflns_limit_h_min       -9
_diffrn_reflns_limit_k_max       10
_diffrn_reflns_limit_k_min       -10
_diffrn_reflns_limit_l_max       18
_diffrn_reflns_limit_l_min       0
_diffrn_reflns_number            3738
_diffrn_reflns_theta_full        26.000
_diffrn_reflns_theta_max         32.966
_diffrn_reflns_theta_min         2.956
_diffrn_source                   'sealed tube'
_exptl_absorpt_coefficient_mu    1.327
_exptl_absorpt_correction_T_max  0.747
_exptl_absorpt_correction_T_min  0.585
_exptl_absorpt_correction_type   multi-scan
_exptl_absorpt_process_details
;
(<i>TWINABS</i>; Sheldrick, 1996)
;
_exptl_crystal_colour            'light blue'
_exptl_crystal_density_diffrn    1.822
_exptl_crystal_description       'thin plate'
_exptl_crystal_F_000             295
_exptl_crystal_size_max          0.207
_exptl_crystal_size_mid          0.077
_exptl_crystal_size_min          0.020
_refine_diff_density_max         0.841
_refine_diff_density_min         -1.192
_refine_ls_extinction_method     none
_refine_ls_goodness_of_fit_ref   1.175
_refine_ls_hydrogen_treatment    mixed
_refine_ls_matrix_type           full
_refine_ls_number_parameters     169
_refine_ls_number_reflns         3738
_refine_ls_number_restraints     18
_refine_ls_restrained_S_all      1.173
_refine_ls_R_factor_all          0.0672
_refine_ls_R_factor_gt           0.0585
_refine_ls_shift/su_max          0.001
_refine_ls_shift/su_mean         0.000
_refine_ls_structure_factor_coef Fsqd
_refine_ls_weighting_details
'w=1/[\s^2^(Fo^2^)+(0.0332P)^2^+2.0490P] where P=(Fo^2^+2Fc^2^)/3'
_refine_ls_weighting_scheme      calc
_refine_ls_wR_factor_gt          0.1349
_refine_ls_wR_factor_ref         0.1388
_reflns_number_gt                3370
_reflns_number_total             3738
_reflns_threshold_expression     'I > 2\s(I)'
_cod_data_source_file            mw2148sup1.cif
_cod_data_source_block           II
_cod_database_code               2243174
_shelx_space_group_comment
;
The symmetry employed for this shelxl refinement is uniquely defined
by the following loop, which should always be used as a source of
symmetry information in preference to the above space-group names.
They are only intended as comments.
;
_shelx_hkl_file
;
   1   0   0 480.450 9.65725  -2
   1   0   0 480.450 9.65725   1
   2   0   0 512.263 12.7496  -2
   2   0   0 512.263 12.7496   1
   3   0   0 186.797 4.31329  -2
   3   0   0 186.797 4.31329   1
   4   0   0 5.39407 1.17439  -2
   4   0   0 5.39407 1.17439   1
   5   0   0 481.108 13.2616  -2
   5   0   0 481.108 13.2616   1
   6   0   0 100.335 4.95062  -2
   6   0   0 100.335 4.95062   1
   7   0   0 273.766 11.3497  -2
   7   0   0 273.766 11.3497   1
   8   0   0 82.5180 9.21388  -2
   8   0   0 82.5180 9.21388   1
   9   0   0 -6.7224 6.42179  -2
   9   0   0 -6.7224 6.42179   1
   8   1   1 -14.866 11.3288  -2
  -8   1   0 -14.866 11.3288   1
   7   1   1 170.913 13.3539  -2
  -7   1   0 170.913 13.3539   1
   6   1   1 227.988 13.6489  -2
  -6   1   0 227.988 13.6489   1
   5   1   1 20.8201 3.13787  -2
  -5   1   0 20.8201 3.13787   1
   4   1   1 560.525 13.1609  -2
  -4   1   0 560.525 13.1609   1
  -4   1   0 128.120 5.61368   1
   3   1   1 13.3011 3.45101  -2
  -3   1   0 13.3011 3.45101   1
  -3   1   0 7.79589 1.34298   1
  -2   1   0 38.8809 1.43162   1
  -1   1   0 550.050 10.1015   1
   0   1   0 2.97870 0.54222   1
   1   1   0 3647.95 71.6642   1
   2   1   0 90.3734 3.04008   1
   3   1   0 476.939 18.1776   1
  -3   1   1 875.757 30.9006  -2
   3   1   0 875.757 30.9006   1
  -4   1   1 246.795 9.26100  -2
   4   1   0 246.795 9.26100   1
  -5   1   1 -2.4051 7.22062  -2
   5   1   0 -2.4051 7.22062   1
   6   1   0 409.060 16.3605   1
  -6   1   1 1054.59 32.2342  -2
   6   1   0 1054.59 32.2342   1
  -7   1   1 68.6743 11.7671  -2
   7   1   0 68.6743 11.7671   1
   7   1   0 30.0578 4.27672   1
  -8   1   1 107.227 15.0081  -2
   8   1   0 107.227 15.0081   1
  -9   2   0 -5.5663 6.60998   1
  -8   2   0 68.2699 6.44852   1
  -7   2   0 15.8699 4.50763   1
  -6   2   0 26.8503 3.12791   1
  -5   2   0 423.320 10.5089   1
  -4   2   0 189.783 4.38751   1
  -3   2   0 783.878 14.6839   1
  -2   2   0 27.4104 2.29863   1
  -1   2   0 712.068 15.2680   1
   0   2   0 188.289 4.94812   1
   1   2   0 419.821 10.3546   1
   2   2   0 41.1296 2.28319   1
   3   2   0 393.011 10.6408   1
   4   2   0 239.411 7.26243   1
   5   2   0 544.040 14.9319   1
   6   2   0 1.23125 2.26798   1
   7   2   0 40.1756 4.05805   1
   8   2   0 15.4365 6.48491   1
   9   2   0 3.56352 6.82620   1
   9   3   3 13.2396 12.1917  -2
  -8   3   0 13.2396 12.1917   1
   8   3   3 118.695 12.3650  -2
  -7   3   0 118.695 12.3650   1
   7   3   3 251.692 11.9771  -2
  -6   3   0 251.692 11.9771   1
  -5   3   0 90.6413 10.3685   1
   6   3   3 136.813 6.86448  -2
  -5   3   0 136.813 6.86448   1
  -4   3   0 853.575 41.0252   1
   5   3   3 1296.82 32.7303  -2
  -4   3   0 1296.82 32.7303   1
  -3   3   0 52.8434 3.92908   1
   4   3   3 148.516 8.23535  -2
  -3   3   0 148.516 8.23535   1
   3   3   3 2215.31 101.240  -2
  -2   3   0 2215.31 101.240   1
   1   3   3 318.523 11.8699  -2
   0   3   0 318.523 11.8699   1
   0   3   0 152.638 6.29629   1
   0   3   3 140.463 6.12148  -2
   1   3   0 140.463 6.12148   1
   1   3   0 61.3606 3.88734   1
  -1   3   3 294.591 7.93299  -2
   2   3   0 294.591 7.93299   1
   2   3   0 256.256 10.6540   1
  -2   3   3 515.134 14.0935  -2
   3   3   0 515.134 14.0935   1
  -3   3   3 1816.72 45.6786  -2
   4   3   0 1816.72 45.6786   1
  -4   3   3 21.2005 4.63507  -2
   5   3   0 21.2005 4.63507   1
  -5   3   3 714.309 23.0406  -2
   6   3   0 714.309 23.0406   1
  -6   3   3 7.59855 10.6870  -2
   7   3   0 7.59855 10.6870   1
  -7   3   3 22.6052 7.79331  -2
   8   3   0 22.6052 7.79331   1
   9   4   4 192.097 12.6468  -2
  -8   4   0 192.097 12.6468   1
   7   4   4 53.7599 4.46764  -2
  -6   4   0 53.7599 4.46764   1
   6   4   4 932.511 21.4750  -2
  -5   4   0 932.511 21.4750   1
   5   4   4 43.1828 4.51244  -2
  -4   4   0 43.1828 4.51244   1
   4   4   4 345.642 11.0357  -2
  -3   4   0 345.642 11.0357   1
   3   4   4 262.709 6.46755  -2
  -2   4   0 262.709 6.46755   1
   2   4   4 650.890 16.2101  -2
  -1   4   0 650.890 16.2101   1
   1   4   4 983.255 24.0410  -2
   0   4   0 983.255 24.0410   1
   0   4   4 134.517 4.23797  -2
   1   4   0 134.517 4.23797   1
  -1   4   4 1243.73 43.6731  -2
   2   4   0 1243.73 43.6731   1
  -2   4   4 173.215 6.00383  -2
   3   4   0 173.215 6.00383   1
  -3   4   4 96.6395 4.85104  -2
   4   4   0 96.6395 4.85104   1
  -4   4   4 474.812 13.6718  -2
   5   4   0 474.812 13.6718   1
  -5   4   4 15.1337 4.42827  -2
   6   4   0 15.1337 4.42827   1
  -6   4   4 200.751 8.32379  -2
   7   4   0 200.751 8.32379   1
  -7   4   4 29.4084 5.62563  -2
   8   4   0 29.4084 5.62563   1
   8   5   5 314.355 26.6290  -2
  -7   5   0 314.355 26.6290   1
   7   5   5 13.9656 6.64162  -2
  -6   5   0 13.9656 6.64162   1
   6   5   5 183.009 8.20382  -2
  -5   5   0 183.009 8.20382   1
   5   5   5 626.331 15.5038  -2
  -4   5   0 626.331 15.5038   1
   4   5   5 10.5334 4.31100  -2
  -3   5   0 10.5334 4.31100   1
   3   5   5 130.400 12.6927  -2
  -2   5   0 130.400 12.6927   1
   2   5   5 74.7107 4.41896  -2
  -1   5   0 74.7107 4.41896   1
   1   5   5 77.1056 4.89018  -2
   0   5   0 77.1056 4.89018   1
   0   5   5 1377.57 30.5606  -2
   1   5   0 1377.57 30.5606   1
  -1   5   5 554.342 15.2958  -2
   2   5   0 554.342 15.2958   1
  -2   5   5 1053.22 24.0941  -2
   3   5   0 1053.22 24.0941   1
  -3   5   5 173.123 6.92681  -2
   4   5   0 173.123 6.92681   1
  -4   5   5 111.931 6.67837  -2
   5   5   0 111.931 6.67837   1
  -5   5   5 290.419 10.1155  -2
   6   5   0 290.419 10.1155   1
  -6   5   5 15.3175 12.0139  -2
   7   5   0 15.3175 12.0139   1
  -7   5   5 170.963 10.5464  -2
   8   5   0 170.963 10.5464   1
  -7   6   0 100.479 8.54964   1
  -6   6   0 79.9464 7.13376   1
  -5   6   0 44.9117 5.59326   1
  -4   6   0 176.674 8.45595   1
  -3   6   0 191.572 8.32442   1
  -2   6   0 18.7305 3.63793   1
  -1   6   0 72.8927 5.93673   1
   0   6   0 252.576 7.59639   1
   1   6   0 22.2919 3.73132   1
   2   6   0 549.399 21.1788   1
   3   6   0 50.4794 5.49980   1
   4   6   0 81.7641 7.33426   1
   5   6   0 62.2832 5.12694   1
   6   6   0 15.3514 4.40369   1
   7   6   0 82.7227 6.45226   1
   8   6   0 -4.4845 8.12220   1
  -6   7   0 30.8421 11.6837   1
   7   7   7 46.5322 11.9198  -2
  -5   7   0 46.5322 11.9198   1
   6   7   7 103.478 10.2783  -2
  -4   7   0 103.478 10.2783   1
  -3   7   0 48.4988 9.79982   1
   5   7   7 72.9607 10.8743  -2
  -3   7   0 72.9607 10.8743   1
   4   7   7 473.397 16.5144  -2
  -2   7   0 473.397 16.5144   1
   3   7   7 340.557 13.0256  -2
  -1   7   0 340.557 13.0256   1
   2   7   7 43.9407 6.98004  -2
   0   7   0 43.9407 6.98004   1
   1   7   7 374.268 10.2513  -2
   1   7   0 374.268 10.2513   1
   0   7   7 31.3329 8.40327  -2
   2   7   0 31.3329 8.40327   1
  -1   7   7 251.776 11.2396  -2
   3   7   0 251.776 11.2396   1
  -2   7   7 41.1322 7.75901  -2
   4   7   0 41.1322 7.75901   1
  -3   7   7 50.4483 8.88681  -2
   5   7   0 50.4483 8.88681   1
   6   7   0 289.208 15.7719   1
  -4   7   7 504.701 18.8358  -2
   6   7   0 504.701 18.8358   1
   6   8   8 17.9560 9.14275  -2
  -4   8   0 17.9560 9.14275   1
   5   8   8 151.710 9.48816  -2
  -3   8   0 151.710 9.48816   1
   4   8   8 29.6789 8.09467  -2
  -2   8   0 29.6789 8.09467   1
   3   8   8 498.869 20.0702  -2
  -1   8   0 498.869 20.0702   1
   2   8   8 117.317 8.30557  -2
   0   8   0 117.317 8.30557   1
   1   8   8 68.4826 6.55590  -2
   1   8   0 68.4826 6.55590   1
   0   8   8 175.281 10.3942  -2
   2   8   0 175.281 10.3942   1
  -1   8   8 29.8235 7.27389  -2
   3   8   0 29.8235 7.27389   1
  -2   8   8 269.299 14.0653  -2
   4   8   0 269.299 14.0653   1
  -3   8   8 52.6864 9.27714  -2
   5   8   0 52.6864 9.27714   1
   5   9   9 74.4420 12.1837  -2
  -3   9   0 74.4420 12.1837   1
   4   9   9 319.706 16.9875  -2
  -2   9   0 319.706 16.9875   1
   3   9   9 33.4950 9.40936  -2
  -1   9   0 33.4950 9.40936   1
   2   9   9 55.8248 9.18545  -2
   0   9   0 55.8248 9.18545   1
  -1   9   9 220.096 14.2937  -2
   3   9   0 220.096 14.2937   1
  -2   9   9 27.1892 11.7062  -2
   4   9   0 27.1892 11.7062   1
  -1  10   0 106.983 9.97031   1
   3  10  10 137.683 22.5669  -2
  -1  10   0 137.683 22.5669   1
   2  10  10 2.70859 19.7860  -2
   0  10   0 2.70859 19.7860   1
   0 -10   1 11.1890 6.75522   1
   1 -10   1 109.463 10.9031   1
  -2   9  10 11.6745 11.9108  -2
  -4  -9   1 11.6745 11.9108   1
  -1   9  10 58.2124 11.5000  -2
  -3  -9   1 58.2124 11.5000   1
   2   9  10 166.828 11.5315  -2
   0  -9   1 166.828 11.5315   1
   3   9  10 21.2956 9.14892  -2
   1  -9   1 21.2956 9.14892   1
   4   9  10 76.6060 11.1073  -2
   2  -9   1 76.6060 11.1073   1
   5   9  10 303.232 17.3427  -2
   3  -9   1 303.232 17.3427   1
  -3   8   9 25.4352 10.4958  -2
  -5  -8   1 25.4352 10.4958   1
  -2   8   9 249.829 13.9830  -2
  -4  -8   1 249.829 13.9830   1
  -1   8   9 9.00794 6.94997  -2
  -3  -8   1 9.00794 6.94997   1
   0   8   9 79.4164 7.52221  -2
  -2  -8   1 79.4164 7.52221   1
   1   8   9 176.840 9.51416  -2
  -1  -8   1 176.840 9.51416   1
   2   8   9 39.6707 6.59946  -2
   0  -8   1 39.6707 6.59946   1
   3   8   9 363.316 16.0046  -2
   1  -8   1 363.316 16.0046   1
   4   8   9 21.9040 8.27532  -2
   2  -8   1 21.9040 8.27532   1
   5   8   9 15.5043 8.58082  -2
   3  -8   1 15.5043 8.58082   1
   6   8   9 66.7637 9.97231  -2
   4  -8   1 66.7637 9.97231   1
  -7  -7   1 23.4730 8.03806   1
  -6  -7   1 43.7085 7.95950   1
  -3   7   8 302.241 12.4572  -2
  -5  -7   1 302.241 12.4572   1
  -2   7   8 8.05957 6.28217  -2
  -4  -7   1 8.05957 6.28217   1
  -1   7   8 165.402 7.36510  -2
  -3  -7   1 165.402 7.36510   1
   0   7   8 243.829 13.0851  -2
  -2  -7   1 243.829 13.0851   1
   1   7   8 196.569 11.1603  -2
  -1  -7   1 196.569 11.1603   1
   2   7   8 173.232 16.2714  -2
   0  -7   1 173.232 16.2714   1
   3   7   8 13.8037 14.1702  -2
   1  -7   1 13.8037 14.1702   1
   4   7   8 500.123 29.6855  -2
   2  -7   1 500.123 29.6855   1
   5   7   8 13.1933 8.52238  -2
   3  -7   1 13.1933 8.52238   1
   6   7   8 16.8119 9.25443  -2
   4  -7   1 16.8119 9.25443   1
   7   7   8 195.730 14.7178  -2
   5  -7   1 195.730 14.7178   1
   6  -7   1 -0.6049 10.5836   1
  -7  -6   1 41.7303 5.11652   1
  -6  -6   1 7.53063 3.61635   1
  -5  -6   1 23.2484 4.25875   1
  -4  -6   1 212.726 8.13948   1
  -3  -6   1 85.9805 7.11645   1
  -1   6   7 121.629 10.5876  -2
  -2  -6   1 121.629 10.5876   1
  -1  -6   1 72.9668 3.97984   1
   0  -6   1 15.3323 2.41767   1
   1  -6   1 346.037 14.0210   1
   2  -6   1 41.9986 5.18027   1
   3  -6   1 55.1659 5.10154   1
   4  -6   1 116.829 8.37160   1
   5  -6   1 -0.9147 4.24894   1
   6  -6   1 102.475 7.45654   1
   7  -6   1 10.3110 6.07761   1
  -6   5   6 37.6375 7.84361  -2
  -7  -5   1 37.6375 7.84361   1
  -5   5   6 170.066 14.1180  -2
  -6  -5   1 170.066 14.1180   1
  -4   5   6 330.770 11.8076  -2
  -5  -5   1 330.770 11.8076   1
  -3   5   6 43.5114 5.44324  -2
  -4  -5   1 43.5114 5.44324   1
  -2   5   6 503.114 12.6963  -2
  -3  -5   1 503.114 12.6963   1
  -1   5   6 824.355 15.9176  -2
  -2  -5   1 824.355 15.9176   1
   0   5   6 63.2339 3.14320  -2
  -1  -5   1 63.2339 3.14320   1
   1   5   6 257.643 6.93195  -2
   0  -5   1 257.643 6.93195   1
   2   5   6 53.4040 2.85594  -2
   1  -5   1 53.4040 2.85594   1
   3   5   6 1229.63 27.3672  -2
   2  -5   1 1229.63 27.3672   1
   4   5   6 205.282 9.22272  -2
   3  -5   1 205.282 9.22272   1
   5   5   6 102.157 7.85686  -2
   4  -5   1 102.157 7.85686   1
   6   5   6 385.870 12.3898  -2
   5  -5   1 385.870 12.3898   1
   7   5   6 69.6402 9.79709  -2
   6  -5   1 69.6402 9.79709   1
   8   5   6 137.039 21.3469  -2
   7  -5   1 137.039 21.3469   1
  -7   4   5 21.0394 5.69924  -2
  -8  -4   1 21.0394 5.69924   1
  -6   4   5 82.5950 6.03996  -2
  -7  -4   1 82.5950 6.03996   1
  -5   4   5 51.7540 4.99870  -2
  -6  -4   1 51.7540 4.99870   1
  -4   4   5 87.8516 5.31938  -2
  -5  -4   1 87.8516 5.31938   1
  -3   4   5 842.352 22.2956  -2
  -4  -4   1 842.352 22.2956   1
  -2   4   5 71.8717 4.03442  -2
  -3  -4   1 71.8717 4.03442   1
  -1   4   5 1241.68 25.1323  -2
  -2  -4   1 1241.68 25.1323   1
   0   4   5 252.339 6.94999  -2
  -1  -4   1 252.339 6.94999   1
   1   4   5 176.798 5.21278  -2
   0  -4   1 176.798 5.21278   1
   2   4   5 1547.44 37.3375  -2
   1  -4   1 1547.44 37.3375   1
   3   4   5 49.2044 3.81017  -2
   2  -4   1 49.2044 3.81017   1
   4   4   5 506.689 15.1376  -2
   3  -4   1 506.689 15.1376   1
   5   4   5 19.7537 3.14657  -2
   4  -4   1 19.7537 3.14657   1
   6   4   5 105.631 5.31290  -2
   5  -4   1 105.631 5.31290   1
   7   4   5 187.062 6.73131  -2
   6  -4   1 187.062 6.73131   1
   8   4   5 3.15238 6.23785  -2
   7  -4   1 3.15238 6.23785   1
   9   4   5 94.2014 9.96673  -2
   8  -4   1 94.2014 9.96673   1
  -7   3   4 84.0875 8.94397  -2
  -8  -3   1 84.0875 8.94397   1
  -6   3   4 34.9800 7.03374  -2
  -7  -3   1 34.9800 7.03374   1
  -5   3   4 427.135 19.8321  -2
  -6  -3   1 427.135 19.8321   1
  -4   3   4 75.7151 7.63581  -2
  -5  -3   1 75.7151 7.63581   1
  -3   3   4 354.968 9.69862  -2
  -4  -3   1 354.968 9.69862   1
  -2   3   4 1124.00 22.8164  -2
  -3  -3   1 1124.00 22.8164   1
  -1   3   4 245.670 5.84584  -2
  -2  -3   1 245.670 5.84584   1
   0   3   4 333.912 8.91038  -2
  -1  -3   1 333.912 8.91038   1
  -1  -3   1 224.496 9.63796   1
   1   3   4 489.461 12.4089  -2
   0  -3   1 489.461 12.4089   1
   2   3   4 214.136 6.06576  -2
   1  -3   1 214.136 6.06576   1
   3   3   4 2250.90 60.8627  -2
   2  -3   1 2250.90 60.8627   1
   4   3   4 63.0514 4.25828  -2
   3  -3   1 63.0514 4.25828   1
   3  -3   1 2.19863 3.90751   1
   5   3   4 868.911 33.3782  -2
   4  -3   1 868.911 33.3782   1
   4  -3   1 380.213 20.3076   1
   6   3   4 23.7353 4.88916  -2
   5  -3   1 23.7353 4.88916   1
   7   3   4 24.7080 6.92688  -2
   6  -3   1 24.7080 6.92688   1
   6  -3   1 8.38204 4.34377   1
   8   3   4 204.900 11.7985  -2
   7  -3   1 204.900 11.7985   1
   9   3   4 68.4183 12.7611  -2
   8  -3   1 68.4183 12.7611   1
  -8  -2   1 6.95867 3.44749   1
  -7  -2   1 64.8246 4.99365   1
  -6  -2   1 54.0332 4.21712   1
  -5  -2   1 303.398 9.35046   1
  -4  -2   1 458.580 12.6181   1
  -3  -2   1 86.6052 3.60216   1
  -2  -2   1 625.720 12.7905   1
  -1  -2   1 273.758 5.86606   1
   0  -2   1 95.7689 2.90805   1
   1  -2   1 1042.35 25.6424   1
   2  -2   1 9.71072 1.37635   1
   3  -2   1 376.908 8.93871   1
   4  -2   1 42.4216 2.54134   1
   5  -2   1 275.619 7.51406   1
   6  -2   1 177.713 5.98020   1
   7  -2   1 4.05042 4.16316   1
   8  -2   1 151.685 9.40824   1
   9  -2   1 12.4537 6.78672   1
  -8   1   2 158.135 16.5147  -2
  -8  -1   1 158.135 16.5147   1
  -7   1   2 11.5160 11.4822  -2
  -7  -1   1 11.5160 11.4822   1
  -6   1   2 581.868 16.9842  -2
  -6  -1   1 581.868 16.9842   1
  -5   1   2 78.3135 5.66503  -2
  -5  -1   1 78.3135 5.66503   1
  -4   1   2 61.2614 6.13980  -2
  -4  -1   1 61.2614 6.13980   1
  -3  -1   1 1133.31 22.7592   1
  -2  -1   1 864.435 21.2063   1
  -2   1   2 1813.86 62.4388  -2
  -2  -1   1 1813.86 62.4388   1
  -1  -1   1 499.012 10.0977   1
   0  -1   1 45.2259 1.37715   1
   1  -1   1 37.5037 1.76648   1
   2  -1   1 163.065 4.16721   1
   3  -1   1 456.805 10.4682   1
   3   1   2 1045.03 36.0039  -2
   3  -1   1 1045.03 36.0039   1
   4   1   2 1237.78 31.1659  -2
   4  -1   1 1237.78 31.1659   1
   4  -1   1 686.476 23.7021   1
   5   1   2 297.728 9.06199  -2
   5  -1   1 297.728 9.06199   1
   6   1   2 27.2919 8.62384  -2
   6  -1   1 27.2919 8.62384   1
   7   1   2 891.977 28.4707  -2
   7  -1   1 891.977 28.4707   1
   8   1   2 22.6508 10.8884  -2
   8  -1   1 22.6508 10.8884   1
   9   1   2 142.115 15.9397  -2
   9  -1   1 142.115 15.9397   1
  -9   0   1 115.867 12.4026  -2
  -9   0   1 115.867 12.4026   1
  -8   0   1 32.7341 7.05222  -2
  -8   0   1 32.7341 7.05222   1
  -7   0   1 584.611 24.7256  -2
  -7   0   1 584.611 24.7256   1
  -6   0   1 60.7391 4.33388  -2
  -6   0   1 60.7391 4.33388   1
  -5   0   1 459.849 12.8472  -2
  -5   0   1 459.849 12.8472   1
  -4   0   1 113.348 3.16385  -2
  -4   0   1 113.348 3.16385   1
  -3   0   1 54.8110 1.93558  -2
  -3   0   1 54.8110 1.93558   1
  -2   0   1 1179.27 23.5078  -2
  -2   0   1 1179.27 23.5078   1
  -1   0   1 475.401 9.59412  -2
  -1   0   1 475.401 9.59412   1
   0   0   1 0.15470 0.24102  -2
   0   0   1 0.15470 0.24102   1
   1   0   1 954.849 19.0261  -2
   1   0   1 954.849 19.0261   1
   2   0   1 634.936 11.7544  -2
   2   0   1 634.936 11.7544   1
   3   0   1 50.8011 2.26643  -2
   3   0   1 50.8011 2.26643   1
   4   0   1 1670.91 30.6588  -2
   4   0   1 1670.91 30.6588   1
   5   0   1 540.009 14.5446  -2
   5   0   1 540.009 14.5446   1
   6   0   1 222.384 9.20231  -2
   6   0   1 222.384 9.20231   1
   7   0   1 62.6353 6.19174  -2
   7   0   1 62.6353 6.19174   1
   8   0   1 507.466 18.1966  -2
   8   0   1 507.466 18.1966   1
   9   0   1 37.2651 7.91101  -2
   9   0   1 37.2651 7.91101   1
   8   1   0 95.8731 13.3483  -2
  -8   1   1 95.8731 13.3483   1
   7   1   0 49.2740 10.9838  -2
  -7   1   1 49.2740 10.9838   1
   6   1   0 1122.06 43.0493  -2
  -6   1   1 1122.06 43.0493   1
   5   1   0 5.27596 3.31142  -2
  -5   1   1 5.27596 3.31142   1
   4   1   0 223.037 5.62815  -2
  -4   1   1 223.037 5.62815   1
   3   1   0 937.519 22.8863  -2
  -3   1   1 937.519 22.8863   1
  -3   1   1 451.155 17.2429   1
   2   1   0 108.451 3.52896  -2
  -2   1   1 108.451 3.52896   1
  -1   1   1 4329.61 146.902   1
   1   1   0 8447.94 279.153  -2
  -1   1   1 8447.94 279.153   1
   0   1   1 4.46944 0.64965   1
   1   1   1 31.5903 1.72946   1
   2   1   1 189.756 4.67892   1
   3   1   1 9.52038 1.63137   1
  -3   1   0 20.9674 1.54605  -2
   3   1   1 20.9674 1.54605   1
   4   1   1 508.164 19.6494   1
  -4   1   0 562.828 20.4658  -2
   4   1   1 562.828 20.4658   1
   5   1   1 4.14608 3.08595   1
  -6   1   0 211.868 9.22206  -2
   6   1   1 211.868 9.22206   1
   6   1   1 15.5332 4.33827   1
  -7   1   0 169.320 13.7363  -2
   7   1   1 169.320 13.7363   1
  -8   1   0 3.20669 12.5475  -2
   8   1   1 3.20669 12.5475   1
  -8   2   1 1.47403 4.42307   1
  -7   2   1 182.842 11.4018   1
  -6   2   1 4.65067 4.09188   1
  -5   2   1 142.387 5.00517   1
  -4   2   1 4.37633 1.30791   1
  -3   2   1 244.072 5.13944   1
  -2   2   1 572.013 14.1255   1
  -1   2   1 452.604 9.93183   1
   0   2   1 5661.27 118.550   1
   1   2   1 714.053 17.2558   1
   2   2   1 104.430 3.49918   1
   3   2   1 1229.70 30.8272   1
   4   2   1 51.2497 3.00533   1
   5   2   1 495.135 12.0087   1
   6   2   1 37.6771 5.16463   1
   7   2   1 30.4301 3.26740   1
   8   2   1 45.4346 7.65980   1
   9   2   1 16.8183 7.15061   1
   9   3   2 23.6709 12.6160  -2
  -8   3   1 23.6709 12.6160   1
   8   3   2 8.78388 10.9393  -2
  -7   3   1 8.78388 10.9393   1
   7   3   2 225.747 13.9603  -2
  -6   3   1 225.747 13.9603   1
  -6   3   1 150.254 14.0875   1
   6   3   2 51.3395 5.81544  -2
  -5   3   1 51.3395 5.81544   1
  -4   3   1 65.9797 8.62770   1
   5   3   2 97.0863 7.48998  -2
  -4   3   1 97.0863 7.48998   1
   4   3   2 743.762 18.5637  -2
  -3   3   1 743.762 18.5637   1
  -3   3   1 327.661 17.4882   1
  -2   3   1 690.119 17.0524   1
   3   3   2 770.776 37.0065  -2
  -2   3   1 770.776 37.0065   1
  -1   3   1 696.912 19.5778   1
   2   3   2 1413.93 47.8377  -2
  -1   3   1 1413.93 47.8377   1
   0   3   1 52.1368 2.91654   1
   0   3   2 334.606 12.1942  -2
   1   3   1 334.606 12.1942   1
  -1   3   2 937.950 31.5852  -2
   2   3   1 937.950 31.5852   1
   2   3   1 242.327 9.71856   1
  -2   3   2 222.398 9.98546  -2
   3   3   1 222.398 9.98546   1
   3   3   1 8.16970 2.50320   1
  -3   3   2 2757.88 95.1375  -2
   4   3   1 2757.88 95.1375   1
   4   3   1 1352.85 49.4357   1
  -4   3   2 43.1920 4.62250  -2
   5   3   1 43.1920 4.62250   1
  -5   3   2 275.756 8.91145  -2
   6   3   1 275.756 8.91145   1
  -6   3   2 89.0559 9.71663  -2
   7   3   1 89.0559 9.71663   1
  -7   3   2 55.7223 7.89039  -2
   8   3   1 55.7223 7.89039   1
   8   4   3 104.925 9.31024  -2
  -7   4   1 104.925 9.31024   1
   7   4   3 24.2189 4.13165  -2
  -6   4   1 24.2189 4.13165   1
   6   4   3 394.484 10.4234  -2
  -5   4   1 394.484 10.4234   1
   5   4   3 133.076 6.37170  -2
  -4   4   1 133.076 6.37170   1
   4   4   3 335.957 10.7868  -2
  -3   4   1 335.957 10.7868   1
   3   4   3 99.2657 3.35760  -2
  -2   4   1 99.2657 3.35760   1
   2   4   3 278.955 6.82206  -2
  -1   4   1 278.955 6.82206   1
   1   4   3 2013.80 42.8248  -2
   0   4   1 2013.80 42.8248   1
   0   4   3 98.9113 3.27290  -2
   1   4   1 98.9113 3.27290   1
  -1   4   3 316.477 7.50526  -2
   2   4   1 316.477 7.50526   1
  -2   4   3 774.757 28.0125  -2
   3   4   1 774.757 28.0125   1
  -3   4   3 32.8031 3.51367  -2
   4   4   1 32.8031 3.51367   1
  -4   4   3 748.725 20.1237  -2
   5   4   1 748.725 20.1237   1
  -5   4   3 9.23296 4.12219  -2
   6   4   1 9.23296 4.12219   1
  -6   4   3 72.3704 9.13949  -2
   7   4   1 72.3704 9.13949   1
  -7   4   3 35.8658 5.62303  -2
   8   4   1 35.8658 5.62303   1
   7   5   4 245.075 14.1455  -2
  -6   5   1 245.075 14.1455   1
   6   5   4 64.1595 7.77670  -2
  -5   5   1 64.1595 7.77670   1
   5   5   4 467.050 18.9803  -2
  -4   5   1 467.050 18.9803   1
   4   5   4 101.627 6.84317  -2
  -3   5   1 101.627 6.84317   1
   3   5   4 22.4501 3.56512  -2
  -2   5   1 22.4501 3.56512   1
   2   5   4 626.728 14.3422  -2
  -1   5   1 626.728 14.3422   1
   1   5   4 56.9822 3.53154  -2
   0   5   1 56.9822 3.53154   1
   0   5   4 1764.82 37.8837  -2
   1   5   1 1764.82 37.8837   1
  -1   5   4 112.437 4.01000  -2
   2   5   1 112.437 4.01000   1
  -2   5   4 634.408 15.2431  -2
   3   5   1 634.408 15.2431   1
  -3   5   4 333.163 9.62624  -2
   4   5   1 333.163 9.62624   1
  -4   5   4 8.17744 6.64351  -2
   5   5   1 8.17744 6.64351   1
   5   5   1 -1.3619 5.08453   1
  -5   5   4 365.103 11.2298  -2
   6   5   1 365.103 11.2298   1
  -6   5   4 99.8178 13.2725  -2
   7   5   1 99.8178 13.2725   1
  -7   5   4 20.6859 13.9208  -2
   8   5   1 20.6859 13.9208   1
  -7   6   1 9.91444 5.45492   1
  -6   6   1 5.82922 4.65559   1
  -5   6   1 349.999 15.6812   1
  -4   6   1 71.0321 5.97243   1
  -3   6   1 29.4568 4.10866   1
  -2   6   1 8.09303 3.13081   1
  -1   6   1 17.1914 2.31021   1
   0   6   1 650.412 14.9051   1
   1   6   1 18.4631 3.11214   1
   0   6   5 113.968 8.75430  -2
   1   6   1 113.968 8.75430   1
   2   6   1 372.243 10.2879   1
   3   6   1 8.85934 3.73752   1
   4   6   1 129.271 8.43809   1
   5   6   1 146.930 9.64736   1
   6   6   1 52.6774 5.28124   1
   7   6   1 80.2136 6.78344   1
   8   6   1 9.06930 4.39798   1
  -6   7   1 33.9147 11.9558   1
   8   7   6 120.890 14.3321  -2
  -6   7   1 120.890 14.3321   1
  -5   7   1 9.38305 10.3026   1
   7   7   6 25.2973 12.1930  -2
  -5   7   1 25.2973 12.1930   1
   6   7   6 305.822 16.6311  -2
  -4   7   1 305.822 16.6311   1
   5   7   6 32.6745 8.62835  -2
  -3   7   1 32.6745 8.62835   1
   4   7   6 49.2193 7.83305  -2
  -2   7   1 49.2193 7.83305   1
   3   7   6 550.156 17.8783  -2
  -1   7   1 550.156 17.8783   1
   2   7   6 38.8553 6.62125  -2
   0   7   1 38.8553 6.62125   1
   1   7   6 341.444 9.61220  -2
   1   7   1 341.444 9.61220   1
   0   7   6 55.3695 8.63343  -2
   2   7   1 55.3695 8.63343   1
  -1   7   6 161.716 9.65378  -2
   3   7   1 161.716 9.65378   1
  -2   7   6 198.212 16.3807  -2
   4   7   1 198.212 16.3807   1
  -3   7   6 19.6739 8.44352  -2
   5   7   1 19.6739 8.44352   1
  -4   7   6 234.435 12.5415  -2
   6   7   1 234.435 12.5415   1
  -5   7   6 109.390 10.9506  -2
   7   7   1 109.390 10.9506   1
   6   8   7 32.1965 9.43761  -2
  -4   8   1 32.1965 9.43761   1
   5   8   7 156.176 9.62430  -2
  -3   8   1 156.176 9.62430   1
   4   8   7 14.4072 7.74881  -2
  -2   8   1 14.4072 7.74881   1
   3   8   7 338.658 15.3660  -2
  -1   8   1 338.658 15.3660   1
   2   8   7 450.851 18.1936  -2
   0   8   1 450.851 18.1936   1
   1   8   7 26.3282 4.12377  -2
   1   8   1 26.3282 4.12377   1
   0   8   7 52.4223 7.10716  -2
   2   8   1 52.4223 7.10716   1
  -1   8   7 17.5517 7.00683  -2
   3   8   1 17.5517 7.00683   1
  -2   8   7 22.0422 7.75710  -2
   4   8   1 22.0422 7.75710   1
  -3   8   7 495.073 21.7000  -2
   5   8   1 495.073 21.7000   1
  -4   8   7 25.2321 10.3119  -2
   6   8   1 25.2321 10.3119   1
   5   9   8 37.5413 11.5365  -2
  -3   9   1 37.5413 11.5365   1
   4   9   8 325.433 14.0751  -2
  -2   9   1 325.433 14.0751   1
   3   9   8 39.6254 9.39319  -2
  -1   9   1 39.6254 9.39319   1
   2   9   8 79.7715 8.37287  -2
   0   9   1 79.7715 8.37287   1
   1   9   8 107.297 17.5867  -2
   1   9   1 107.297 17.5867   1
   0   9   8 38.0032 9.54222  -2
   2   9   1 38.0032 9.54222   1
  -1   9   8 145.223 10.3236  -2
   3   9   1 145.223 10.3236   1
  -2   9   8 36.0502 11.3096  -2
   4   9   1 36.0502 11.3096   1
  -1  10   1 88.2716 9.57274   1
   3  10   9 119.441 23.0801  -2
  -1  10   1 119.441 23.0801   1
   2  10   9 11.9913 19.6707  -2
   0  10   1 11.9913 19.6707   1
   3  10   1 26.6912 6.75195   1
   4  10   1 47.5151 12.8928   1
   2   9  11 106.694 10.3238  -2
   0  -9   2 106.694 10.3238   1
   3   9  11 164.510 12.5649  -2
   1  -9   2 164.510 12.5649   1
   4   9  11 57.7922 11.4152  -2
   2  -9   2 57.7922 11.4152   1
  -3   8  10 11.2050 7.44137  -2
  -5  -8   2 11.2050 7.44137   1
  -2   8  10 87.2116 9.11181  -2
  -4  -8   2 87.2116 9.11181   1
  -1   8  10 35.6008 7.77400  -2
  -3  -8   2 35.6008 7.77400   1
   0   8  10 13.9497 6.81371  -2
  -2  -8   2 13.9497 6.81371   1
   1   8  10 333.808 14.3550  -2
  -1  -8   2 333.808 14.3550   1
   2   8  10 166.525 9.82518  -2
   0  -8   2 166.525 9.82518   1
   3   8  10 104.858 8.69981  -2
   1  -8   2 104.858 8.69981   1
   5   8  10 52.8360 9.38454  -2
   3  -8   2 52.8360 9.38454   1
   6   8  10 146.457 11.9643  -2
   4  -8   2 146.457 11.9643   1
  -6  -7   2 15.6814 7.37072   1
  -3   7   9 104.450 13.0278  -2
  -5  -7   2 104.450 13.0278   1
  -2   7   9 7.31624 7.63002  -2
  -4  -7   2 7.31624 7.63002   1
  -1   7   9 38.4294 6.09429  -2
  -3  -7   2 38.4294 6.09429   1
   0   7   9 256.982 9.80934  -2
  -2  -7   2 256.982 9.80934   1
   1   7   9 65.0424 5.19375  -2
  -1  -7   2 65.0424 5.19375   1
   2   7   9 675.558 20.8082  -2
   0  -7   2 675.558 20.8082   1
   3   7   9 27.4382 13.8010  -2
   1  -7   2 27.4382 13.8010   1
   4   7   9 137.448 17.7221  -2
   2  -7   2 137.448 17.7221   1
   6   7   9 46.0726 11.2583  -2
   4  -7   2 46.0726 11.2583   1
   5  -7   2 76.5981 12.3661   1
   7   7   9 188.368 15.2814  -2
   5  -7   2 188.368 15.2814   1
  -7  -6   2 9.14760 4.10510   1
  -6  -6   2 59.3250 5.24228   1
  -5  -6   2 31.9766 4.19969   1
  -4  -6   2 77.1919 5.58345   1
  -3  -6   2 176.639 7.28247   1
  -2  -6   2 10.7918 2.23223   1
  -1  -6   2 353.291 9.98202   1
   0  -6   2 87.6807 4.12246   1
   1  -6   2 343.099 14.0318   1
   2  -6   2 37.7392 4.81420   1
   3  -6   2 48.4159 5.77033   1
   4  -6   2 153.215 7.99144   1
   5  -6   2 35.8116 5.25363   1
   6  -6   2 109.861 7.84695   1
   7  -6   2 7.56834 5.93155   1
  -6   5   7 40.4839 8.19793  -2
  -7  -5   2 40.4839 8.19793   1
  -5   5   7 32.5127 7.16819  -2
  -6  -5   2 32.5127 7.16819   1
  -4   5   7 325.424 17.3331  -2
  -5  -5   2 325.424 17.3331   1
  -3   5   7 169.956 8.19552  -2
  -4  -5   2 169.956 8.19552   1
  -2   5   7 123.121 5.88952  -2
  -3  -5   2 123.121 5.88952   1
  -1   5   7 1141.43 21.5948  -2
  -2  -5   2 1141.43 21.5948   1
   0   5   7 120.505 3.97951  -2
  -1  -5   2 120.505 3.97951   1
   1   5   7 440.336 10.5359  -2
   0  -5   2 440.336 10.5359   1
   2   5   7 271.488 7.55456  -2
   1  -5   2 271.488 7.55456   1
   3   5   7 188.214 6.36958  -2
   2  -5   2 188.214 6.36958   1
   4   5   7 474.049 12.0054  -2
   3  -5   2 474.049 12.0054   1
   5   5   7 51.3249 7.35351  -2
   4  -5   2 51.3249 7.35351   1
   6   5   7 432.201 13.4713  -2
   5  -5   2 432.201 13.4713   1
   7   5   7 104.724 7.70446  -2
   6  -5   2 104.724 7.70446   1
   8   5   7 26.7960 11.1883  -2
   7  -5   2 26.7960 11.1883   1
  -7   4   6 48.6707 6.31945  -2
  -8  -4   2 48.6707 6.31945   1
  -6   4   6 19.5479 5.22027  -2
  -7  -4   2 19.5479 5.22027   1
  -5   4   6 167.817 7.35463  -2
  -6  -4   2 167.817 7.35463   1
  -4   4   6 6.95797 3.92048  -2
  -5  -4   2 6.95797 3.92048   1
  -3   4   6 979.269 25.7543  -2
  -4  -4   2 979.269 25.7543   1
  -2   4   6 73.0352 4.28209  -2
  -3  -4   2 73.0352 4.28209   1
  -1   4   6 94.3321 3.16898  -2
  -2  -4   2 94.3321 3.16898   1
   0   4   6 92.9657 3.06130  -2
  -1  -4   2 92.9657 3.06130   1
   1   4   6 23.0422 1.92589  -2
   0  -4   2 23.0422 1.92589   1
   2   4   6 983.942 24.1055  -2
   1  -4   2 983.942 24.1055   1
   3   4   6 364.572 10.1126  -2
   2  -4   2 364.572 10.1126   1
   4   4   6 94.5096 4.23535  -2
   3  -4   2 94.5096 4.23535   1
   5   4   6 335.646 8.80391  -2
   4  -4   2 335.646 8.80391   1
   6   4   6 14.4772 5.39858  -2
   5  -4   2 14.4772 5.39858   1
   7   4   6 478.601 12.4324  -2
   6  -4   2 478.601 12.4324   1
   8   4   6 56.4799 7.20667  -2
   7  -4   2 56.4799 7.20667   1
   9   4   6 15.5042 7.79281  -2
   8  -4   2 15.5042 7.79281   1
  -7   3   5 85.1581 9.03054  -2
  -8  -3   2 85.1581 9.03054   1
  -6   3   5 125.785 8.59716  -2
  -7  -3   2 125.785 8.59716   1
  -5   3   5 236.106 9.66273  -2
  -6  -3   2 236.106 9.66273   1
  -5  -3   2 1454.88 54.2048   1
  -3   3   5 141.109 10.0599  -2
  -4  -3   2 141.109 10.0599   1
  -2   3   5 716.751 17.9129  -2
  -3  -3   2 716.751 17.9129   1
  -3  -3   2 423.716 17.1199   1
  -1   3   5 48.3725 2.61792  -2
  -2  -3   2 48.3725 2.61792   1
   0   3   5 156.743 5.00079  -2
  -1  -3   2 156.743 5.00079   1
  -1  -3   2 72.4439 5.26773   1
   0  -3   2 54.5728 4.52452   1
   1   3   5 93.2134 3.70343  -2
   0  -3   2 93.2134 3.70343   1
   1  -3   2 750.484 15.3216   1
   2  -3   2 1613.48 39.7710   1
   3   3   5 2817.05 128.151  -2
   2  -3   2 2817.05 128.151   1
   4   3   5 298.724 12.3102  -2
   3  -3   2 298.724 12.3102   1
   3  -3   2 221.256 9.93840   1
   4  -3   2 56.7041 4.66881   1
   5   3   5 101.891 6.97749  -2
   4  -3   2 101.891 6.97749   1
   6   3   5 193.556 9.83738  -2
   5  -3   2 193.556 9.83738   1
   7   3   5 21.4846 5.37438  -2
   6  -3   2 21.4846 5.37438   1
   8   3   5 198.911 14.2894  -2
   7  -3   2 198.911 14.2894   1
   9   3   5 232.588 13.5966  -2
   8  -3   2 232.588 13.5966   1
  -8  -2   2 2.61096 3.42865   1
  -7  -2   2 -1.8069 2.85281   1
  -6  -2   2 69.8932 4.76492   1
  -5  -2   2 20.8597 2.76370   1
  -4  -2   2 1386.74 35.2836   1
  -3  -2   2 21.9416 1.39106   1
  -2  -2   2 235.418 5.35075   1
  -1  -2   2 31.6431 1.65005   1
   0  -2   2 148.540 3.56071   1
   1  -2   2 3261.82 64.3340   1
   2  -2   2 789.419 19.8294   1
   3  -2   2 77.8503 3.25589   1
   4  -2   2 22.4251 1.95732   1
   5  -2   2 9.16625 2.05455   1
   6  -2   2 199.558 6.42770   1
   7  -2   2 -3.6032 3.64848   1
   8  -2   2 22.8256 6.11633   1
   9  -2   2 53.0826 9.04942   1
  -8   1   3 204.679 17.3415  -2
  -8  -1   2 204.679 17.3415   1
  -7   1   3 23.8804 7.24584  -2
  -7  -1   2 23.8804 7.24584   1
  -6   1   3 162.395 8.06536  -2
  -6  -1   2 162.395 8.06536   1
  -5   1   3 86.7636 5.95357  -2
  -5  -1   2 86.7636 5.95357   1
  -4  -1   2 170.264 5.06714   1
  -4   1   3 348.203 14.4487  -2
  -4  -1   2 348.203 14.4487   1
  -3   1   3 347.105 9.14194  -2
  -3  -1   2 347.105 9.14194   1
  -3  -1   2 321.146 13.0096   1
  -2  -1   2 665.069 17.0516   1
  -2   1   3 1478.22 49.3062  -2
  -2  -1   2 1478.22 49.3062   1
  -1  -1   2 329.641 6.92402   1
   0  -1   2 617.335 12.4552   1
   1  -1   2 1.93709 0.93123   1
   2  -1   2 1054.19 22.8987   1
   3  -1   2 12.0934 1.46405   1
   4   1   3 118.773 10.8670  -2
   4  -1   2 118.773 10.8670   1
   4  -1   2 111.923 3.95866   1
   5  -1   2 476.764 17.1272   1
   5   1   3 785.845 30.5467  -2
   5  -1   2 785.845 30.5467   1
   6   1   3 24.1280 6.94468  -2
   6  -1   2 24.1280 6.94468   1
   7   1   3 203.306 11.3251  -2
   7  -1   2 203.306 11.3251   1
   8   1   3 102.447 10.6867  -2
   8  -1   2 102.447 10.6867   1
   9   1   3 2.28667 12.1825  -2
   9  -1   2 2.28667 12.1825   1
  -8   0   2 29.9107 7.25107  -2
  -8   0   2 29.9107 7.25107   1
  -7   0   2 373.924 17.9656  -2
  -7   0   2 373.924 17.9656   1
  -6   0   2 3.44464 2.70587  -2
  -6   0   2 3.44464 2.70587   1
  -5   0   2 253.526 8.11458  -2
  -5   0   2 253.526 8.11458   1
  -4   0   2 35.2255 1.93589  -2
  -4   0   2 35.2255 1.93589   1
  -3   0   2 499.258 10.4659  -2
  -3   0   2 499.258 10.4659   1
  -2   0   2 1517.93 30.2370  -2
  -2   0   2 1517.93 30.2370   1
  -1   0   2 3311.86 65.8617  -2
  -1   0   2 3311.86 65.8617   1
   0   0   2 175.823 3.76127  -2
   0   0   2 175.823 3.76127   1
   1   0   2 4434.15 88.1346  -2
   1   0   2 4434.15 88.1346   1
   2   0   2 446.280 8.38960  -2
   2   0   2 446.280 8.38960   1
   3   0   2 16.5860 1.07142  -2
   3   0   2 16.5860 1.07142   1
   4   0   2 104.499 2.67934  -2
   4   0   2 104.499 2.67934   1
   5   0   2 551.412 10.7838  -2
   5   0   2 551.412 10.7838   1
   6   0   2 1571.16 45.6479  -2
   6   0   2 1571.16 45.6479   1
   7   0   2 13.7829 3.95221  -2
   7   0   2 13.7829 3.95221   1
   8   0   2 263.794 11.6836  -2
   8   0   2 263.794 11.6836   1
   9   0   2 21.9819 6.04909  -2
   9   0   2 21.9819 6.04909   1
  -8  -1   1 143.988 14.9613  -2
  -8   1   2 143.988 14.9613   1
  -7  -1   1 0.70921 10.4350  -2
  -7   1   2 0.70921 10.4350   1
  -6  -1   1 600.554 25.3486  -2
  -6   1   2 600.554 25.3486   1
  -5  -1   1 73.8782 4.06145  -2
  -5   1   2 73.8782 4.06145   1
  -4  -1   1 60.9948 3.10253  -2
  -4   1   2 60.9948 3.10253   1
  -3   1   2 559.799 14.2967   1
  -3  -1   1 1659.13 57.3861  -2
  -3   1   2 1659.13 57.3861   1
  -2  -1   1 1826.26 43.6966  -2
  -2   1   2 1826.26 43.6966   1
  -2   1   2 989.903 35.6512   1
  -1   1   2 64.3734 3.24739   1
   0   1   2 475.158 11.5772   1
   1   1   2 5.91385 0.82027   1
   2   1   2 1327.34 24.1451   1
   3   1   2 647.388 12.1092   1
   4   1   2 616.943 12.6961   1
   4  -1   1 1103.64 51.9541  -2
   4   1   2 1103.64 51.9541   1
   5  -1   1 277.516 8.80760  -2
   5   1   2 277.516 8.80760   1
   5   1   2 112.528 9.37796   1
   6  -1   1 27.7476 7.02601  -2
   6   1   2 27.7476 7.02601   1
   7   1   2 427.146 24.7589   1
   7  -1   1 904.946 36.4237  -2
   7   1   2 904.946 36.4237   1
   8  -1   1 14.7431 9.92057  -2
   8   1   2 14.7431 9.92057   1
  -8   2   2 4.28904 5.13145   1
  -7   2   2 70.8732 7.88134   1
  -6   2   2 41.2892 5.64709   1
  -5   2   2 65.7782 3.00820   1
  -4   2   2 627.639 13.2340   1
  -3   2   2 72.0584 2.94588   1
  -2   2   2 1017.77 24.6996   1
  -1   2   2 1733.23 41.4330   1
   0   2   2 1385.03 29.3256   1
   1   2   2 670.444 16.2649   1
   2   2   2 24.1276 1.22503   1
   3   2   2 1249.58 27.5043   1
   4   2   2 584.592 13.5314   1
   5   2   2 201.904 6.62024   1
   6   2   2 6.59496 2.10644   1
   7   2   2 24.2111 3.11900   1
   8   2   2 107.914 10.0425   1
   9   2   2 22.8356 7.55985   1
   9   3   1 63.4593 13.6519  -2
  -8   3   2 63.4593 13.6519   1
   8   3   1 46.5311 11.6040  -2
  -7   3   2 46.5311 11.6040   1
  -6   3   2 77.6016 10.8126   1
   7   3   1 98.7351 11.2318  -2
  -6   3   2 98.7351 11.2318   1
   6   3   1 253.685 9.41963  -2
  -5   3   2 253.685 9.41963   1
   5   3   1 47.7865 5.07258  -2
  -4   3   2 47.7865 5.07258   1
  -4   3   2 15.8437 5.51642   1
  -3   3   2 1812.01 83.2997   1
   4   3   1 2972.81 59.0633  -2
  -3   3   2 2972.81 59.0633   1
   3   3   1 264.983 6.79940  -2
  -2   3   2 264.983 6.79940   1
  -1   3   2 1223.05 33.8409   1
   2   3   1 1390.85 47.0683  -2
  -1   3   2 1390.85 47.0683   1
   0   3   2 262.027 8.10893   1
   1   3   1 344.272 12.8267  -2
   0   3   2 344.272 12.8267   1
   1   3   2 144.277 5.22717   1
   0   3   1 210.485 8.72099  -2
   1   3   2 210.485 8.72099   1
   2   3   2 870.175 18.7711   1
   3   3   2 138.778 8.79525   1
  -3   3   1 817.328 23.7068  -2
   4   3   2 817.328 23.7068   1
   4   3   2 646.954 24.5344   1
  -4   3   1 77.0256 4.87350  -2
   5   3   2 77.0256 4.87350   1
  -5   3   1 44.3360 5.07513  -2
   6   3   2 44.3360 5.07513   1
  -6   3   1 224.087 8.58460  -2
   7   3   2 224.087 8.58460   1
  -7   3   1 30.5235 10.3126  -2
   8   3   2 30.5235 10.3126   1
  -8   3   1 32.0466 12.2485  -2
   9   3   2 32.0466 12.2485   1
   8   4   2 249.839 22.1115  -2
  -7   4   2 249.839 22.1115   1
   7   4   2 39.9781 4.63725  -2
  -6   4   2 39.9781 4.63725   1
   6   4   2 45.3000 5.90855  -2
  -5   4   2 45.3000 5.90855   1
   5   4   2 185.637 7.80299  -2
  -4   4   2 185.637 7.80299   1
   4   4   2 53.1995 2.90039  -2
  -3   4   2 53.1995 2.90039   1
   3   4   2 969.649 21.1928  -2
  -2   4   2 969.649 21.1928   1
   2   4   2 142.555 4.13766  -2
  -1   4   2 142.555 4.13766   1
   1   4   2 2606.97 55.2256  -2
   0   4   2 2606.97 55.2256   1
   0   4   2 2570.08 54.4393  -2
   1   4   2 2570.08 54.4393   1
  -1   4   2 133.210 4.25041  -2
   2   4   2 133.210 4.25041   1
  -2   4   2 859.330 18.7431  -2
   3   4   2 859.330 18.7431   1
  -3   4   2 47.6924 3.52086  -2
   4   4   2 47.6924 3.52086   1
  -4   4   2 180.873 5.98907  -2
   5   4   2 180.873 5.98907   1
  -5   4   2 49.8733 4.50784  -2
   6   4   2 49.8733 4.50784   1
  -6   4   2 45.2225 4.59140  -2
   7   4   2 45.2225 4.59140   1
  -7   4   2 297.364 10.7900  -2
   8   4   2 297.364 10.7900   1
   8   5   3 2.18588 20.3581  -2
  -7   5   2 2.18588 20.3581   1
   7   5   3 507.336 21.5496  -2
  -6   5   2 507.336 21.5496   1
   6   5   3 8.77489 7.44286  -2
  -5   5   2 8.77489 7.44286   1
   5   5   3 36.5158 7.91212  -2
  -4   5   2 36.5158 7.91212   1
   4   5   3 162.309 8.07191  -2
  -3   5   2 162.309 8.07191   1
   3   5   3 17.6021 3.26200  -2
  -2   5   2 17.6021 3.26200   1
   2   5   3 1315.11 28.5785  -2
  -1   5   2 1315.11 28.5785   1
   1   5   3 135.692 6.09371  -2
   0   5   2 135.692 6.09371   1
   0   5   3 744.962 16.7763  -2
   1   5   2 744.962 16.7763   1
  -1   5   3 520.957 13.7127  -2
   2   5   2 520.957 13.7127   1
  -2   5   3 99.6607 5.03031  -2
   3   5   2 99.6607 5.03031   1
  -3   5   3 274.857 10.5294  -2
   4   5   2 274.857 10.5294   1
  -4   5   3 7.43742 6.32118  -2
   5   5   2 7.43742 6.32118   1
   5   5   2 7.68722 4.98369   1
  -5   5   3 81.8049 6.41727  -2
   6   5   2 81.8049 6.41727   1
  -6   5   3 423.325 12.6146  -2
   7   5   2 423.325 12.6146   1
  -7   5   3 14.5392 10.8249  -2
   8   5   2 14.5392 10.8249   1
  -7   6   2 72.6292 8.30394   1
  -6   6   2 14.2724 4.95056   1
  -5   6   2 191.280 9.37864   1
  -4   6   2 68.8012 5.99062   1
  -3   6   2 67.2735 5.33396   1
  -2   6   2 55.4930 4.67364   1
  -1   6   2 13.3683 2.20254   1
   0   6   2 781.064 17.5930   1
   1   6   2 128.393 6.19243   1
   0   6   4 145.952 9.97287  -2
   1   6   2 145.952 9.97287   1
   2   6   2 49.1752 3.50266   1
   3   6   2 249.920 9.46939   1
   4   6   2 20.9971 4.35111   1
   5   6   2 113.804 8.45774   1
   6   6   2 27.1957 4.42999   1
   7   6   2 7.42213 4.21483   1
   8   6   2 64.0416 9.94523   1
   8   7   5 213.602 15.8652  -2
  -6   7   2 213.602 15.8652   1
  -6   7   2 133.388 18.9941   1
  -5   7   2 27.9510 11.0481   1
   7   7   5 42.2841 12.1590  -2
  -5   7   2 42.2841 12.1590   1
   6   7   5 60.0280 10.0192  -2
  -4   7   2 60.0280 10.0192   1
  -3   7   2 122.669 13.9870   1
   5   7   5 270.855 15.1691  -2
  -3   7   2 270.855 15.1691   1
   4   7   5 90.2017 8.49573  -2
  -2   7   2 90.2017 8.49573   1
   3   7   5 413.330 14.6051  -2
  -1   7   2 413.330 14.6051   1
   2   7   5 60.5645 5.22257  -2
   0   7   2 60.5645 5.22257   1
   1   7   5 95.9525 5.68406  -2
   1   7   2 95.9525 5.68406   1
   0   7   5 167.276 7.48854  -2
   2   7   2 167.276 7.48854   1
  -1   7   5 176.785 9.82254  -2
   3   7   2 176.785 9.82254   1
  -2   7   5 611.599 20.2016  -2
   4   7   2 611.599 20.2016   1
  -3   7   5 61.3716 8.78430  -2
   5   7   2 61.3716 8.78430   1
  -4   7   5 134.360 10.5502  -2
   6   7   2 134.360 10.5502   1
  -5   7   5 222.403 12.7057  -2
   7   7   2 222.403 12.7057   1
   7   8   6 142.768 12.2087  -2
  -5   8   2 142.768 12.2087   1
   6   8   6 22.9492 9.62041  -2
  -4   8   2 22.9492 9.62041   1
   5   8   6 17.4070 8.79668  -2
  -3   8   2 17.4070 8.79668   1
   4   8   6 118.129 8.35455  -2
  -2   8   2 118.129 8.35455   1
   3   8   6 56.0825 6.50715  -2
  -1   8   2 56.0825 6.50715   1
   2   8   6 420.924 17.2862  -2
   0   8   2 420.924 17.2862   1
   1   8   6 14.0035 4.03606  -2
   1   8   2 14.0035 4.03606   1
   0   8   6 12.8226 6.20259  -2
   2   8   2 12.8226 6.20259   1
  -1   8   6 304.261 14.8570  -2
   3   8   2 304.261 14.8570   1
  -2   8   6 53.5729 8.31418  -2
   4   8   2 53.5729 8.31418   1
  -3   8   6 393.169 18.6532  -2
   5   8   2 393.169 18.6532   1
  -4   8   6 28.8610 8.83321  -2
   6   8   2 28.8610 8.83321   1
   5   9   7 5.94353 10.9811  -2
  -3   9   2 5.94353 10.9811   1
   4   9   7 62.9508 9.36954  -2
  -2   9   2 62.9508 9.36954   1
   3   9   7 165.650 10.3025  -2
  -1   9   2 165.650 10.3025   1
   2   9   7 20.2239 7.75059  -2
   0   9   2 20.2239 7.75059   1
   0   9   7 68.9254 10.3964  -2
   2   9   2 68.9254 10.3964   1
  -1   9   7 38.8331 8.73908  -2
   3   9   2 38.8331 8.73908   1
  -2   9   7 327.063 18.5605  -2
   4   9   2 327.063 18.5605   1
  -3   9   7 50.3758 12.4753  -2
   5   9   2 50.3758 12.4753   1
  -2  10   2 10.2005 7.90711   1
   3  10   8 64.7455 22.6961  -2
  -1  10   2 64.7455 22.6961   1
  -1  10   2 16.4379 7.28096   1
   3  10   2 65.1723 8.40923   1
   4  10   2 24.3061 7.48228   1
   3   9  12 117.598 11.7884  -2
   1  -9   3 117.598 11.7884   1
   4   9  12 43.8734 11.2773  -2
   2  -9   3 43.8734 11.2773   1
  -2   8  11 7.59658 7.22018  -2
  -4  -8   3 7.59658 7.22018   1
  -1   8  11 273.753 13.9717  -2
  -3  -8   3 273.753 13.9717   1
   0   8  11 61.3697 7.14002  -2
  -2  -8   3 61.3697 7.14002   1
   2   8  11 201.235 10.7738  -2
   0  -8   3 201.235 10.7738   1
   3   8  11 44.9997 7.34924  -2
   1  -8   3 44.9997 7.34924   1
   6   8  11 107.795 11.1820  -2
   4  -8   3 107.795 11.1820   1
  -6  -7   3 13.1332 7.52721   1
  -3   7  10 69.1928 12.5630  -2
  -5  -7   3 69.1928 12.5630   1
  -2   7  10 61.6218 12.2380  -2
  -4  -7   3 61.6218 12.2380   1
  -1   7  10 9.49446 11.1202  -2
  -3  -7   3 9.49446 11.1202   1
   0   7  10 339.682 17.0500  -2
  -2  -7   3 339.682 17.0500   1
   1   7  10 164.249 10.0249  -2
  -1  -7   3 164.249 10.0249   1
   2   7  10 336.472 9.90435  -2
   0  -7   3 336.472 9.90435   1
   3   7  10 116.516 6.14956  -2
   1  -7   3 116.516 6.14956   1
   4   7  10 44.0780 7.68123  -2
   2  -7   3 44.0780 7.68123   1
   5   7  10 232.043 21.2958  -2
   3  -7   3 232.043 21.2958   1
   7   7  10 71.8632 12.9135  -2
   5  -7   3 71.8632 12.9135   1
   5  -7   3 0.89855 9.70817   1
   6  -7   3 41.3216 16.2950   1
  -7  -6   3 11.4461 5.31359   1
  -6  -6   3 32.5874 4.64771   1
  -5  -6   3 27.1168 4.19190   1
  -4  -6   3 32.5049 4.30999   1
  -3  -6   3 142.251 6.67079   1
  -1   6   9 116.672 11.1605  -2
  -2  -6   3 116.672 11.1605   1
  -2  -6   3 39.0161 3.75065   1
  -1  -6   3 265.249 6.90454   1
   0  -6   3 30.0819 3.28190   1
   1  -6   3 60.5335 5.94633   1
   2  -6   3 435.664 17.3713   1
   3  -6   3 54.8636 5.87765   1
   4  -6   3 32.2161 5.77129   1
   5  -6   3 25.8632 4.02662   1
   6  -6   3 7.37631 3.99031   1
   7  -6   3 92.9840 9.41634   1
  -6   5   8 219.134 11.2265  -2
  -7  -5   3 219.134 11.2265   1
  -5   5   8 11.6090 7.24922  -2
  -6  -5   3 11.6090 7.24922   1
  -4   5   8 73.6729 7.31080  -2
  -5  -5   3 73.6729 7.31080   1
  -3   5   8 227.995 13.6392  -2
  -4  -5   3 227.995 13.6392   1
  -2   5   8 4.72324 8.59686  -2
  -3  -5   3 4.72324 8.59686   1
  -1   5   8 529.489 11.9881  -2
  -2  -5   3 529.489 11.9881   1
   0   5   8 207.731 5.50793  -2
  -1  -5   3 207.731 5.50793   1
   1   5   8 449.936 10.9487  -2
   0  -5   3 449.936 10.9487   1
   2   5   8 77.3416 4.51572  -2
   1  -5   3 77.3416 4.51572   1
   3   5   8 113.327 5.29742  -2
   2  -5   3 113.327 5.29742   1
   3  -5   3 768.501 29.4357   1
   4   5   8 1123.94 32.1681  -2
   3  -5   3 1123.94 32.1681   1
   5   5   8 273.950 9.53374  -2
   4  -5   3 273.950 9.53374   1
   6   5   8 25.4225 7.90943  -2
   5  -5   3 25.4225 7.90943   1
   7   5   8 116.600 7.75455  -2
   6  -5   3 116.600 7.75455   1
   8   5   8 39.1252 9.97652  -2
   7  -5   3 39.1252 9.97652   1
  -7   4   7 142.587 10.4757  -2
  -8  -4   3 142.587 10.4757   1
  -6   4   7 8.97595 5.24287  -2
  -7  -4   3 8.97595 5.24287   1
  -5   4   7 124.394 6.73012  -2
  -6  -4   3 124.394 6.73012   1
  -4   4   7 44.8838 4.52578  -2
  -5  -4   3 44.8838 4.52578   1
  -3   4   7 305.085 9.72941  -2
  -4  -4   3 305.085 9.72941   1
  -2   4   7 482.557 13.6339  -2
  -3  -4   3 482.557 13.6339   1
  -1   4   7 43.7348 2.63970  -2
  -2  -4   3 43.7348 2.63970   1
   0   4   7 860.633 17.8622  -2
  -1  -4   3 860.633 17.8622   1
   1   4   7 223.067 5.52436  -2
   0  -4   3 223.067 5.52436   1
   2   4   7 182.902 4.67934  -2
   1  -4   3 182.902 4.67934   1
   3   4   7 832.240 21.4081  -2
   2  -4   3 832.240 21.4081   1
   4   4   7 94.7503 4.38125  -2
   3  -4   3 94.7503 4.38125   1
   5   4   7 627.442 14.9304  -2
   4  -4   3 627.442 14.9304   1
   6   4   7 114.210 6.94918  -2
   5  -4   3 114.210 6.94918   1
   7   4   7 322.534 15.6560  -2
   6  -4   3 322.534 15.6560   1
   8   4   7 96.8651 8.01642  -2
   7  -4   3 96.8651 8.01642   1
   9   4   7 3.94674 7.90666  -2
   8  -4   3 3.94674 7.90666   1
  -7   3   6 39.1322 8.63822  -2
  -8  -3   3 39.1322 8.63822   1
  -6   3   6 153.533 9.19935  -2
  -7  -3   3 153.533 9.19935   1
  -5   3   6 41.1910 6.82687  -2
  -6  -3   3 41.1910 6.82687   1
  -5  -3   3 423.511 18.8001   1
  -4   3   6 883.581 33.2725  -2
  -5  -3   3 883.581 33.2725   1
  -3   3   6 47.9692 5.59067  -2
  -4  -3   3 47.9692 5.59067   1
  -2   3   6 104.060 4.28717  -2
  -3  -3   3 104.060 4.28717   1
  -1   3   6 137.672 5.06836  -2
  -2  -3   3 137.672 5.06836   1
  -1  -3   3 801.934 20.6173   1
   0   3   6 1140.89 38.7827  -2
  -1  -3   3 1140.89 38.7827   1
   0  -3   3 424.324 11.3178   1
   1   3   6 534.533 19.1544  -2
   0  -3   3 534.533 19.1544   1
   2   3   6 211.570 6.21380  -2
   1  -3   3 211.570 6.21380   1
   1  -3   3 98.9704 5.86326   1
   3   3   6 308.956 10.2004  -2
   2  -3   3 308.956 10.2004   1
   2  -3   3 123.947 6.71762   1
   3  -3   3 659.660 25.2050   1
   4   3   6 1095.86 38.1146  -2
   3  -3   3 1095.86 38.1146   1
   4  -3   3 168.559 12.0759   1
   5   3   6 264.465 8.86190  -2
   4  -3   3 264.465 8.86190   1
   5  -3   3 501.567 26.4061   1
   6   3   6 756.567 20.3494  -2
   5  -3   3 756.567 20.3494   1
   7   3   6 153.936 7.69896  -2
   6  -3   3 153.936 7.69896   1
   8   3   6 96.2699 12.0174  -2
   7  -3   3 96.2699 12.0174   1
   9   3   6 81.1848 13.0126  -2
   8  -3   3 81.1848 13.0126   1
  -8  -2   3 39.7210 4.93406   1
  -7  -2   3 8.52657 3.31727   1
  -6  -2   3 363.077 11.6058   1
  -5  -2   3 111.002 5.52344   1
  -4  -2   3 380.403 11.1866   1
  -3  -2   3 28.8866 1.75029   1
  -2  -2   3 317.134 7.03809   1
  -1  -2   3 22.5126 1.58586   1
   0  -2   3 134.406 3.45175   1
   1  -2   3 1029.35 20.7122   1
   2  -2   3 559.543 14.4558   1
   3  -2   3 70.5850 3.21701   1
   4  -2   3 226.117 6.23945   1
   5  -2   3 2.18850 1.65743   1
   6  -2   3 310.572 8.59210   1
   7  -2   3 38.2542 5.03286   1
   8  -2   3 10.6795 5.25769   1
   9  -2   3 74.3459 11.1806   1
  -8   1   4 5.54481 13.6015  -2
  -8  -1   3 5.54481 13.6015   1
  -7   1   4 303.472 12.1994  -2
  -7  -1   3 303.472 12.1994   1
  -6   1   4 23.9315 6.28050  -2
  -6  -1   3 23.9315 6.28050   1
  -5   1   4 2336.27 58.9069  -2
  -5  -1   3 2336.27 58.9069   1
  -4  -1   3 153.918 4.92678   1
  -4   1   4 275.932 12.5133  -2
  -4  -1   3 275.932 12.5133   1
  -3   1   4 63.7097 3.25175  -2
  -3  -1   3 63.7097 3.25175   1
  -3  -1   3 7.26874 2.18558   1
  -2  -1   3 1093.82 27.6474   1
  -2   1   4 2164.84 72.1131  -2
  -2  -1   3 2164.84 72.1131   1
  -1  -1   3 32.7216 1.53098   1
   0  -1   3 935.492 18.7857   1
   1  -1   3 73.8316 2.05099   1
   2  -1   3 1193.58 29.4054   1
   3  -1   3 198.656 6.48881   1
   4  -1   3 122.562 5.43583   1
   4   1   4 163.858 7.59292  -2
   4  -1   3 163.858 7.59292   1
   5   1   4 681.214 21.3651  -2
   5  -1   3 681.214 21.3651   1
   5  -1   3 411.303 14.8963   1
   6   1   4 114.684 8.34189  -2
   6  -1   3 114.684 8.34189   1
   7   1   4 1.51584 8.00384  -2
   7  -1   3 1.51584 8.00384   1
   8   1   4 237.480 15.3050  -2
   8  -1   3 237.480 15.3050   1
   9   1   4 62.3171 12.9051  -2
   9  -1   3 62.3171 12.9051   1
  -8   0   3 25.6020 7.29063  -2
  -8   0   3 25.6020 7.29063   1
  -7   0   3 34.3014 4.24217  -2
  -7   0   3 34.3014 4.24217   1
  -6   0   3 58.6761 4.52513  -2
  -6   0   3 58.6761 4.52513   1
  -5   0   3 22.0091 2.93091  -2
  -5   0   3 22.0091 2.93091   1
  -4   0   3 689.092 14.4643  -2
  -4   0   3 689.092 14.4643   1
  -3   0   3 274.469 6.20704  -2
  -3   0   3 274.469 6.20704   1
  -2   0   3 63.0683 2.17015  -2
  -2   0   3 63.0683 2.17015   1
  -1   0   3 9999.99 198.432  -2
  -1   0   3 9999.99 198.432   1
   0   0   3 31.7083 1.34081  -2
   0   0   3 31.7083 1.34081   1
   1   0   3 9040.18 179.305  -2
   1   0   3 9040.18 179.305   1
   2   0   3 65.6212 1.90480  -2
   2   0   3 65.6212 1.90480   1
   3   0   3 24.7584 1.24326  -2
   3   0   3 24.7584 1.24326   1
   4   0   3 36.6476 1.55369  -2
   4   0   3 36.6476 1.55369   1
   5   0   3 312.980 6.52986  -2
   5   0   3 312.980 6.52986   1
   6   0   3 450.021 14.9904  -2
   6   0   3 450.021 14.9904   1
   7   0   3 74.6251 6.10711  -2
   7   0   3 74.6251 6.10711   1
   8   0   3 20.5146 5.92078  -2
   8   0   3 20.5146 5.92078   1
   9   0   3 217.698 11.7992  -2
   9   0   3 217.698 11.7992   1
  -8  -1   2 199.629 16.5695  -2
  -8   1   3 199.629 16.5695   1
  -7  -1   2 16.4190 11.3917  -2
  -7   1   3 16.4190 11.3917   1
  -6  -1   2 158.111 7.78583  -2
  -6   1   3 158.111 7.78583   1
  -5  -1   2 84.8082 4.34770  -2
  -5   1   3 84.8082 4.34770   1
  -4  -1   2 335.613 7.87397  -2
  -4   1   3 335.613 7.87397   1
  -3   1   3 9.19799 2.16212   1
  -3  -1   2 296.217 8.12783  -2
  -3   1   3 296.217 8.12783   1
  -2  -1   2 1543.79 37.1662  -2
  -2   1   3 1543.79 37.1662   1
  -1   1   3 494.065 12.2436   1
   0   1   3 1424.94 34.0854   1
   1   1   3 5.51607 1.00887   1
   2   1   3 894.187 16.4391   1
   3  -1   2 12.6177 8.15082  -2
   3   1   3 12.6177 8.15082   1
   3   1   3 3.15402 0.80860   1
   4  -1   2 103.094 5.04554  -2
   4   1   3 103.094 5.04554   1
   4   1   3 13.4640 1.26738   1
   5   1   3 373.768 20.0870   1
   5  -1   2 728.901 19.2501  -2
   5   1   3 728.901 19.2501   1
   6   1   3 8.95866 4.40529   1
   6  -1   2 20.7767 8.40100  -2
   6   1   3 20.7767 8.40100   1
   7  -1   2 191.119 10.8930  -2
   7   1   3 191.119 10.8930   1
   8  -1   2 124.219 10.6294  -2
   8   1   3 124.219 10.6294   1
   9  -1   2 26.1707 14.4572  -2
   9   1   3 26.1707 14.4572   1
  -8   2   3 22.0808 6.30460   1
  -7   2   3 4.10461 4.92185   1
  -6   2   3 47.3172 5.85604   1
  -5   2   3 6.24121 1.78168   1
  -4   2   3 607.312 12.9286   1
  -3   2   3 79.9947 3.26785   1
  -2   2   3 548.882 13.7892   1
  -1   2   3 85.5043 3.04500   1
   0   2   3 38.5931 1.94397   1
   1   2   3 1096.41 26.3959   1
   2   2   3 1228.26 26.1254   1
   3   2   3 13.3289 0.91228   1
   4   2   3 151.492 4.48611   1
   5   2   3 9.30202 1.79954   1
   6   2   3 477.448 11.8388   1
   7   2   3 3.58009 2.27203   1
   8   2   3 57.0434 6.09441   1
   9   2   3 108.055 8.81625   1
   9   3   0 2.22704 13.6402  -2
  -8   3   3 2.22704 13.6402   1
   8   3   0 1.94217 11.3576  -2
  -7   3   3 1.94217 11.3576   1
  -6   3   3 0.85901 3.99780   1
   6   3   0 786.193 29.1146  -2
  -5   3   3 786.193 29.1146   1
  -5   3   3 416.553 17.5817   1
   5   3   0 21.5881 3.65124  -2
  -4   3   3 21.5881 3.65124   1
   4   3   0 2004.38 48.4176  -2
  -3   3   3 2004.38 48.4176   1
   3   3   0 442.519 10.4082  -2
  -2   3   3 442.519 10.4082   1
   2   3   0 279.477 11.2595  -2
  -1   3   3 279.477 11.2595   1
  -1   3   3 78.7263 4.48545   1
   1   3   0 133.558 6.86714  -2
   0   3   3 133.558 6.86714   1
   0   3   3 78.9360 3.78297   1
   1   3   3 205.948 5.16900   1
   2   3   3 846.517 18.3290   1
   3   3   3 1237.80 26.4723   1
   4   3   3 119.595 6.33561   1
  -3   3   0 157.154 6.96163  -2
   4   3   3 157.154 6.96163   1
  -4   3   0 1156.80 33.9362  -2
   5   3   3 1156.80 33.9362   1
   5   3   3 429.521 16.6133   1
  -5   3   0 113.200 5.77060  -2
   6   3   3 113.200 5.77060   1
  -6   3   0 290.602 9.56439  -2
   7   3   3 290.602 9.56439   1
  -7   3   0 121.705 11.3156  -2
   8   3   3 121.705 11.3156   1
  -8   3   0 17.6892 15.0074  -2
   9   3   3 17.6892 15.0074   1
   7   4   1 69.0997 7.19553  -2
  -6   4   3 69.0997 7.19553   1
   6   4   1 22.6390 5.58976  -2
  -5   4   3 22.6390 5.58976   1
   5   4   1 814.689 29.3213  -2
  -4   4   3 814.689 29.3213   1
   4   4   1 38.9476 3.03871  -2
  -3   4   3 38.9476 3.03871   1
   3   4   1 859.319 18.9897  -2
  -2   4   3 859.319 18.9897   1
   2   4   1 379.018 8.94518  -2
  -1   4   3 379.018 8.94518   1
   1   4   1 114.337 3.68428  -2
   0   4   3 114.337 3.68428   1
   0   4   1 1982.34 42.1984  -2
   1   4   3 1982.34 42.1984   1
  -1   4   1 294.813 7.12032  -2
   2   4   3 294.813 7.12032   1
  -2   4   1 100.976 3.24546  -2
   3   4   3 100.976 3.24546   1
  -3   4   1 319.817 10.4923  -2
   4   4   3 319.817 10.4923   1
  -4   4   1 138.513 5.64663  -2
   5   4   3 138.513 5.64663   1
  -5   4   1 400.143 10.6201  -2
   6   4   3 400.143 10.6201   1
  -6   4   1 24.1411 4.09596  -2
   7   4   3 24.1411 4.09596   1
  -7   4   1 112.012 6.71497  -2
   8   4   3 112.012 6.71497   1
  -8   4   1 56.8400 10.9025  -2
   9   4   3 56.8400 10.9025   1
   7   5   2 423.793 19.4173  -2
  -6   5   3 423.793 19.4173   1
   6   5   2 97.6912 10.0904  -2
  -5   5   3 97.6912 10.0904   1
   5   5   2 16.8481 6.88331  -2
  -4   5   3 16.8481 6.88331   1
   4   5   2 282.963 10.9487  -2
  -3   5   3 282.963 10.9487   1
   3   5   2 116.512 4.85564  -2
  -2   5   3 116.512 4.85564   1
   2   5   2 456.161 10.9937  -2
  -1   5   3 456.161 10.9937   1
   1   5   2 722.846 16.3354  -2
   0   5   3 722.846 16.3354   1
   0   5   2 155.761 5.23605  -2
   1   5   3 155.761 5.23605   1
  -1   5   2 1442.92 35.2699  -2
   2   5   3 1442.92 35.2699   1
  -2   5   2 17.3236 5.23626  -2
   3   5   3 17.3236 5.23626   1
  -3   5   2 154.243 7.77480  -2
   4   5   3 154.243 7.77480   1
  -4   5   2 25.7844 6.33229  -2
   5   5   3 25.7844 6.33229   1
  -5   5   2 10.0562 5.53750  -2
   6   5   3 10.0562 5.53750   1
  -6   5   2 455.793 13.0174  -2
   7   5   3 455.793 13.0174   1
  -7   5   2 34.8710 8.05340  -2
   8   5   3 34.8710 8.05340   1
  -7   6   3 91.7921 11.7953   1
  -6   6   3 5.46088 5.42099   1
  -5   6   3 59.2746 6.94512   1
  -4   6   3 61.3956 5.84267   1
  -3   6   3 34.5696 4.33804   1
  -2   6   3 62.3255 5.20868   1
   2   6   3 93.1544 12.7290  -2
  -1   6   3 93.1544 12.7290   1
  -1   6   3 53.7934 3.65205   1
   1   6   3 1484.60 32.2654   1
   2   6   3 86.9852 4.19944   1
   3   6   3 128.646 6.63948   1
   4   6   3 37.2438 4.15938   1
   5   6   3 33.5465 5.32692   1
   6   6   3 118.962 6.15528   1
   7   6   3 1.36161 3.87662   1
   8   6   3 113.812 7.72992   1
  -6   7   3 78.7232 14.4017   1
   7   7   4 40.7526 12.2648  -2
  -5   7   3 40.7526 12.2648   1
  -5   7   3 14.2774 10.8466   1
   6   7   4 -1.5012 11.0025  -2
  -4   7   3 -1.5012 11.0025   1
   5   7   4 409.216 19.1857  -2
  -3   7   3 409.216 19.1857   1
  -3   7   3 239.311 17.6855   1
   4   7   4 146.890 9.43272  -2
  -2   7   3 146.890 9.43272   1
   3   7   4 351.555 13.2177  -2
  -1   7   3 351.555 13.2177   1
   2   7   4 276.697 8.70965  -2
   0   7   3 276.697 8.70965   1
   1   7   4 48.3946 5.44554  -2
   1   7   3 48.3946 5.44554   1
   0   7   4 507.791 14.5148  -2
   2   7   3 507.791 14.5148   1
  -1   7   4 38.4991 7.42468  -2
   3   7   3 38.4991 7.42468   1
  -2   7   4 256.283 11.6880  -2
   4   7   3 256.283 11.6880   1
  -3   7   4 130.820 9.90819  -2
   5   7   3 130.820 9.90819   1
  -4   7   4 23.4358 8.93735  -2
   6   7   3 23.4358 8.93735   1
  -5   7   4 288.228 13.9174  -2
   7   7   3 288.228 13.9174   1
   7   8   5 1.34082 9.47334  -2
  -5   8   3 1.34082 9.47334   1
   6   8   5 157.629 12.4661  -2
  -4   8   3 157.629 12.4661   1
   5   8   5 46.9869 9.43169  -2
  -3   8   3 46.9869 9.43169   1
   4   8   5 468.555 20.1101  -2
  -2   8   3 468.555 20.1101   1
   3   8   5 18.4696 6.21887  -2
  -1   8   3 18.4696 6.21887   1
   2   8   5 400.566 16.8863  -2
   0   8   3 400.566 16.8863   1
   1   8   5 98.6144 5.31102  -2
   1   8   3 98.6144 5.31102   1
   0   8   5 26.5412 6.40338  -2
   2   8   3 26.5412 6.40338   1
  -1   8   5 283.920 14.0015  -2
   3   8   3 283.920 14.0015   1
  -2   8   5 41.9309 7.94475  -2
   4   8   3 41.9309 7.94475   1
  -3   8   5 165.839 11.7661  -2
   5   8   3 165.839 11.7661   1
  -4   8   5 95.6248 10.5028  -2
   6   8   3 95.6248 10.5028   1
   5   9   6 180.213 14.3429  -2
  -3   9   3 180.213 14.3429   1
   4   9   6 23.3174 8.67145  -2
  -2   9   3 23.3174 8.67145   1
   3   9   6 279.592 12.8032  -2
  -1   9   3 279.592 12.8032   1
   2   9   6 26.5577 8.83897  -2
   0   9   3 26.5577 8.83897   1
   1   9   6 44.0778 7.90993  -2
   1   9   3 44.0778 7.90993   1
   0   9   6 174.064 12.4316  -2
   2   9   3 174.064 12.4316   1
  -1   9   6 49.5474 10.9889  -2
   3   9   3 49.5474 10.9889   1
  -2   9   6 429.831 16.6930  -2
   4   9   3 429.831 16.6930   1
  -3   9   6 40.8353 9.64660  -2
   5   9   3 40.8353 9.64660   1
   3  10   7 12.2958 11.1104  -2
  -1  10   3 12.2958 11.1104   1
   2  10   7 174.412 15.4051  -2
   0  10   3 174.412 15.4051   1
   2  10   3 7.05045 8.39455   1
   3  10   3 152.399 11.4878   1
   4  10   3 27.2353 7.45299   1
  -2   8  12 40.3172 7.87243  -2
  -4  -8   4 40.3172 7.87243   1
  -1   8  12 281.156 14.2194  -2
  -3  -8   4 281.156 14.2194   1
   2   8  12 198.422 11.1274  -2
   0  -8   4 198.422 11.1274   1
   3   8  12 4.59222 6.48618  -2
   1  -8   4 4.59222 6.48618   1
   4   8  12 68.8568 8.51896  -2
   2  -8   4 68.8568 8.51896   1
  -6  -7   4 26.5189 8.39124   1
  -3   7  11 17.1970 8.13479  -2
  -5  -7   4 17.1970 8.13479   1
  -2   7  11 120.874 8.95025  -2
  -4  -7   4 120.874 8.95025   1
  -1   7  11 36.1939 7.23318  -2
  -3  -7   4 36.1939 7.23318   1
   0   7  11 250.167 15.1238  -2
  -2  -7   4 250.167 15.1238   1
   1   7  11 212.452 11.5923  -2
  -1  -7   4 212.452 11.5923   1
   2   7  11 86.3968 6.66017  -2
   0  -7   4 86.3968 6.66017   1
   3   7  11 157.961 7.83508  -2
   1  -7   4 157.961 7.83508   1
   4   7  11 97.0943 6.98418  -2
   2  -7   4 97.0943 6.98418   1
   5   7  11 93.0163 10.3535  -2
   3  -7   4 93.0163 10.3535   1
   7   7  11 72.2971 12.8429  -2
   5  -7   4 72.2971 12.8429   1
  -6  -6   4 17.1583 4.34577   1
  -5  -6   4 10.0590 3.96027   1
  -4  -6   4 50.7668 4.86261   1
  -3  -6   4 320.561 10.6946   1
  -1   6  10 337.386 17.3640  -2
  -2  -6   4 337.386 17.3640   1
  -2  -6   4 141.337 8.37682   1
  -1  -6   4 27.6918 4.32404   1
   0  -6   4 158.604 6.47232   1
   1  -6   4 25.7041 3.28501   1
   2  -6   4 143.011 6.24968   1
   3  -6   4 155.417 6.49719   1
   4  -6   4 7.91283 2.93330   1
   5  -6   4 49.4578 4.69699   1
   6  -6   4 2.45614 3.97555   1
   7  -6   4 159.447 13.8552   1
  -5   5   9 119.964 8.89613  -2
  -6  -5   4 119.964 8.89613   1
  -4   5   9 38.5846 7.09070  -2
  -5  -5   4 38.5846 7.09070   1
  -3   5   9 373.314 12.5943  -2
  -4  -5   4 373.314 12.5943   1
  -2   5   9 141.402 7.51360  -2
  -3  -5   4 141.402 7.51360   1
  -1   5   9 186.940 11.7218  -2
  -2  -5   4 186.940 11.7218   1
   0   5   9 189.599 7.31184  -2
  -1  -5   4 189.599 7.31184   1
   1   5   9 113.821 4.87821  -2
   0  -5   4 113.821 4.87821   1
   2   5   9 485.503 13.8499  -2
   1  -5   4 485.503 13.8499   1
   3   5   9 26.2633 4.90496  -2
   2  -5   4 26.2633 4.90496   1
   4   5   9 776.488 18.4778  -2
   3  -5   4 776.488 18.4778   1
   5   5   9 779.061 18.7779  -2
   4  -5   4 779.061 18.7779   1
   6   5   9 44.1110 5.99943  -2
   5  -5   4 44.1110 5.99943   1
   7   5   9 58.1266 11.4029  -2
   6  -5   4 58.1266 11.4029   1
   8   5   9 23.5018 9.44958  -2
   7  -5   4 23.5018 9.44958   1
  -6   4   8 60.9099 6.05719  -2
  -7  -4   4 60.9099 6.05719   1
  -5   4   8 54.7924 5.47710  -2
  -6  -4   4 54.7924 5.47710   1
  -4   4   8 173.694 7.38780  -2
  -5  -4   4 173.694 7.38780   1
  -3   4   8 21.0790 4.00790  -2
  -4  -4   4 21.0790 4.00790   1
  -2   4   8 712.682 19.3143  -2
  -3  -4   4 712.682 19.3143   1
  -1   4   8 9.77319 2.22455  -2
  -2  -4   4 9.77319 2.22455   1
   0   4   8 353.232 8.14522  -2
  -1  -4   4 353.232 8.14522   1
   1   4   8 440.856 9.77727  -2
   0  -4   4 440.856 9.77727   1
   2   4   8 19.7461 2.14824  -2
   1  -4   4 19.7461 2.14824   1
   3   4   8 988.197 25.2826  -2
   2  -4   4 988.197 25.2826   1
   4   4   8 55.5979 3.80054  -2
   3  -4   4 55.5979 3.80054   1
   5   4   8 94.8184 4.73774  -2
   4  -4   4 94.8184 4.73774   1
   6   4   8 62.5832 4.38990  -2
   5  -4   4 62.5832 4.38990   1
   7   4   8 28.9224 7.59913  -2
   6  -4   4 28.9224 7.59913   1
   8   4   8 179.024 9.95453  -2
   7  -4   4 179.024 9.95453   1
   9   4   8 -7.2704 7.78312  -2
   8  -4   4 -7.2704 7.78312   1
  -7   3   7 21.6037 11.2320  -2
  -8  -3   4 21.6037 11.2320   1
  -6   3   7 266.587 11.4220  -2
  -7  -3   4 266.587 11.4220   1
  -5   3   7 110.204 8.08992  -2
  -6  -3   4 110.204 8.08992   1
  -5  -3   4 10.2560 4.60861   1
  -4   3   7 160.909 10.8348  -2
  -5  -3   4 160.909 10.8348   1
  -4  -3   4 148.072 9.13120   1
  -3   3   7 243.275 12.5508  -2
  -4  -3   4 243.275 12.5508   1
  -2   3   7 254.674 6.58738  -2
  -3  -3   4 254.674 6.58738   1
  -1   3   7 288.505 7.07955  -2
  -2  -3   4 288.505 7.07955   1
   0   3   7 964.630 19.8920  -2
  -1  -3   4 964.630 19.8920   1
   1   3   7 2320.89 55.7541  -2
   0  -3   4 2320.89 55.7541   1
   0  -3   4 1009.15 37.1390   1
   1  -3   4 867.735 17.8070   1
   3   3   7 162.672 6.14031  -2
   2  -3   4 162.672 6.14031   1
   4   3   7 1186.57 26.5426  -2
   3  -3   4 1186.57 26.5426   1
   5   3   7 153.433 6.89243  -2
   4  -3   4 153.433 6.89243   1
   5  -3   4 18.0739 4.75332   1
   6   3   7 80.4380 6.96196  -2
   5  -3   4 80.4380 6.96196   1
   7   3   7 76.9888 9.28911  -2
   6  -3   4 76.9888 9.28911   1
   8   3   7 47.7884 11.3806  -2
   7  -3   4 47.7884 11.3806   1
   9   3   7 98.0810 11.5054  -2
   8  -3   4 98.0810 11.5054   1
  -8  -2   4 74.6950 6.42582   1
  -7  -2   4 56.9052 5.18220   1
  -6  -2   4 59.4444 4.82743   1
  -5  -2   4 120.708 5.82600   1
  -4  -2   4 15.9590 2.64473   1
  -3  -2   4 227.443 5.58870   1
  -2  -2   4 4.11881 1.21771   1
  -1  -2   4 775.781 15.9936   1
   0  -2   4 518.277 10.8995   1
   1  -2   4 52.5770 2.07247   1
   2  -2   4 1379.99 34.1839   1
   3  -2   4 16.3459 1.94803   1
   4  -2   4 287.437 8.55095   1
   5  -2   4 213.774 6.34265   1
   6  -2   4 43.7851 3.16268   1
   7  -2   4 193.046 9.73589   1
   8  -2   4 4.56850 4.66519   1
  -8   1   5 26.9739 14.4902  -2
  -8  -1   4 26.9739 14.4902   1
  -7   1   5 340.439 13.1045  -2
  -7  -1   4 340.439 13.1045   1
  -6   1   5 31.4388 6.54925  -2
  -6  -1   4 31.4388 6.54925   1
  -5   1   5 101.339 6.73650  -2
  -5  -1   4 101.339 6.73650   1
  -4   1   5 332.446 14.6091  -2
  -4  -1   4 332.446 14.6091   1
  -4  -1   4 243.544 11.7199   1
  -3   1   5 59.0896 3.42197  -2
  -3  -1   4 59.0896 3.42197   1
  -3  -1   4 58.8613 5.22019   1
  -2   1   5 1060.05 25.9905  -2
  -2  -1   4 1060.05 25.9905   1
  -2  -1   4 608.112 23.0657   1
  -1   1   5 3113.82 106.700  -2
  -1  -1   4 3113.82 106.700   1
  -1  -1   4 1340.02 32.9881   1
   0  -1   4 476.839 9.97679   1
   1  -1   4 653.326 13.3685   1
   2  -1   4 343.504 7.36129   1
   3  -1   4 947.179 32.4082   1
   3   1   5 1909.88 68.8187  -2
   3  -1   4 1909.88 68.8187   1
   4   1   5 406.877 17.3030  -2
   4  -1   4 406.877 17.3030   1
   4  -1   4 243.607 9.52371   1
   5   1   5 367.919 17.1757  -2
   5  -1   4 367.919 17.1757   1
   5  -1   4 286.785 11.0550   1
   6   1   5 669.425 27.5305  -2
   6  -1   4 669.425 27.5305   1
   7   1   5 63.7580 10.4136  -2
   7  -1   4 63.7580 10.4136   1
   8   1   5 280.326 13.9335  -2
   8  -1   4 280.326 13.9335   1
  -8   0   4 499.776 23.6079  -2
  -8   0   4 499.776 23.6079   1
  -7   0   4 25.3042 4.04452  -2
  -7   0   4 25.3042 4.04452   1
  -6   0   4 672.532 18.9081  -2
  -6   0   4 672.532 18.9081   1
  -5   0   4 11.1477 2.55896  -2
  -5   0   4 11.1477 2.55896   1
  -4   0   4 48.2157 2.47564  -2
  -4   0   4 48.2157 2.47564   1
  -3   0   4 970.925 19.8978  -2
  -3   0   4 970.925 19.8978   1
  -2   0   4 22.8500 1.55043  -2
  -2   0   4 22.8500 1.55043   1
  -1   0   4 2476.32 49.1186  -2
  -1   0   4 2476.32 49.1186   1
   0   0   4 32.8774 1.51617  -2
   0   0   4 32.8774 1.51617   1
   1   0   4 4.76165 0.93396  -2
   1   0   4 4.76165 0.93396   1
   2   0   4 3.38261 1.05827  -2
   2   0   4 3.38261 1.05827   1
   3   0   4 172.457 4.07658  -2
   3   0   4 172.457 4.07658   1
   4   0   4 884.783 18.0272  -2
   4   0   4 884.783 18.0272   1
   5   0   4 787.444 15.0362  -2
   5   0   4 787.444 15.0362   1
   6   0   4 204.954 8.69923  -2
   6   0   4 204.954 8.69923   1
   7   0   4 238.591 10.1697  -2
   7   0   4 238.591 10.1697   1
   8   0   4 182.416 9.57324  -2
   8   0   4 182.416 9.57324   1
   9   0   4 146.717 9.94054  -2
   9   0   4 146.717 9.94054   1
  -8  -1   3 6.16241 13.3292  -2
  -8   1   4 6.16241 13.3292   1
  -7  -1   3 328.201 18.5101  -2
  -7   1   4 328.201 18.5101   1
  -6   1   4 12.9305 4.39313   1
  -6  -1   3 23.1647 7.48839  -2
  -6   1   4 23.1647 7.48839   1
  -5  -1   3 2306.32 58.0209  -2
  -5   1   4 2306.32 58.0209   1
  -4   1   4 133.657 7.54395   1
  -4  -1   3 256.389 7.84194  -2
  -4   1   4 256.389 7.84194   1
  -3  -1   3 65.9764 3.70119  -2
  -3   1   4 65.9764 3.70119   1
  -3   1   4 62.3887 4.49239   1
  -2   1   4 1188.85 28.8714   1
  -1   1   4 342.363 8.84669   1
   0   1   4 834.997 20.3294   1
   1   1   4 61.0453 2.32837   1
   2   1   4 218.784 4.90339   1
   3   1   4 837.303 15.5959   1
   4   1   4 48.9900 1.86097   1
   4  -1   3 138.920 11.3386  -2
   4   1   4 138.920 11.3386   1
   5  -1   3 625.620 14.8428  -2
   5   1   4 625.620 14.8428   1
   5   1   4 254.818 9.57722   1
   6   1   4 72.7717 8.70134   1
   6  -1   3 120.995 10.3244  -2
   6   1   4 120.995 10.3244   1
   7  -1   3 2.45879 7.81505  -2
   7   1   4 2.45879 7.81505   1
   8  -1   3 261.334 13.2050  -2
   8   1   4 261.334 13.2050   1
   9  -1   3 86.7040 11.5943  -2
   9   1   4 86.7040 11.5943   1
  -8   2   4 35.0571 6.93789   1
  -7   2   4 11.5140 5.37883   1
  -6   2   4 92.8474 8.37047   1
  -5   2   4 5.49542 1.93452   1
  -4   2   4 463.198 12.3315   1
  -3   2   4 142.028 4.74816   1
  -2   2   4 6.80508 1.48919   1
  -1   2   4 490.508 12.4227   1
   0   2   4 143.794 4.28451   1
   1   2   4 814.504 19.8802   1
   2   2   4 2097.02 50.0973   1
   3   2   4 5.14502 0.93789   1
   4   2   4 297.173 6.06909   1
   5   2   4 83.7218 3.52619   1
   6   2   4 107.672 4.41306   1
   7   2   4 15.7174 2.74267   1
   8   2   4 8.28402 4.18259   1
   9   2   4 169.699 10.2640   1
  -6  -3   1 436.142 18.1696  -2
  -5   3   4 436.142 18.1696   1
  -5  -3   1 66.0329 5.05529  -2
  -4   3   4 66.0329 5.05529   1
  -4  -3   1 328.074 9.58366  -2
  -3   3   4 328.074 9.58366   1
  -2   3   4 584.171 21.1632   1
  -3  -3   1 1066.45 29.7149  -2
  -2   3   4 1066.45 29.7149   1
  -2  -3   1 271.775 11.1604  -2
  -1   3   4 271.775 11.1604   1
  -1   3   4 219.305 9.00179   1
   0   3   4 144.132 4.54892   1
   1   3   4 235.344 6.52478   1
   2   3   4 24.8642 1.74812   1
   3   3   4 721.461 15.7700   1
   3  -3   1 72.5540 5.32295  -2
   4   3   4 72.5540 5.32295   1
   4   3   4 73.5273 4.97669   1
   5   3   4 586.529 21.8169   1
   4  -3   1 854.618 25.7457  -2
   5   3   4 854.618 25.7457   1
   5  -3   1 27.1735 4.73503  -2
   6   3   4 27.1735 4.73503   1
   6  -3   1 22.1483 5.44971  -2
   7   3   4 22.1483 5.44971   1
   7  -3   1 229.413 13.2238  -2
   8   3   4 229.413 13.2238   1
   8  -3   1 71.4437 12.3216  -2
   9   3   4 71.4437 12.3216   1
   7   4   0 190.907 10.4351  -2
  -6   4   4 190.907 10.4351   1
   6   4   0 18.4161 5.65862  -2
  -5   4   4 18.4161 5.65862   1
   5   4   0 513.657 19.7868  -2
  -4   4   4 513.657 19.7868   1
   4   4   0 102.237 4.47801  -2
  -3   4   4 102.237 4.47801   1
   3   4   0 178.460 5.79652  -2
  -2   4   4 178.460 5.79652   1
   2   4   0 1308.16 28.2641  -2
  -1   4   4 1308.16 28.2641   1
   1   4   0 148.472 4.42646  -2
   0   4   4 148.472 4.42646   1
   0   4   0 1040.12 22.5953  -2
   1   4   4 1040.12 22.5953   1
  -1   4   0 676.830 15.0532  -2
   2   4   4 676.830 15.0532   1
  -2   4   0 268.477 6.66962  -2
   3   4   4 268.477 6.66962   1
  -3   4   0 322.037 10.6018  -2
   4   4   4 322.037 10.6018   1
  -4   4   0 47.9144 3.44263  -2
   5   4   4 47.9144 3.44263   1
  -5   4   0 974.115 22.5897  -2
   6   4   4 974.115 22.5897   1
  -6   4   0 67.6269 5.20011  -2
   7   4   4 67.6269 5.20011   1
  -7   4   0 22.6342 4.58598  -2
   8   4   4 22.6342 4.58598   1
  -8   4   0 222.256 15.1894  -2
   9   4   4 222.256 15.1894   1
   7   5   1 104.234 11.3226  -2
  -6   5   4 104.234 11.3226   1
   6   5   1 402.398 18.2906  -2
  -5   5   4 402.398 18.2906   1
   5   5   1 6.89013 7.07752  -2
  -4   5   4 6.89013 7.07752   1
   4   5   1 286.088 10.9949  -2
  -3   5   4 286.088 10.9949   1
   3   5   1 599.077 14.0837  -2
  -2   5   4 599.077 14.0837   1
   2   5   1 112.841 4.75004  -2
  -1   5   4 112.841 4.75004   1
   1   5   1 1777.67 38.2397  -2
   0   5   4 1777.67 38.2397   1
   0   5   1 60.4281 3.97025  -2
   1   5   4 60.4281 3.97025   1
  -1   5   1 704.655 18.0275  -2
   2   5   4 704.655 18.0275   1
  -2   5   1 23.1298 5.27979  -2
   3   5   4 23.1298 5.27979   1
  -3   5   1 99.2364 6.77535  -2
   4   5   4 99.2364 6.77535   1
  -4   5   1 448.471 15.0868  -2
   5   5   4 448.471 15.0868   1
  -5   5   1 72.7073 5.88799  -2
   6   5   4 72.7073 5.88799   1
  -6   5   1 205.644 8.58032  -2
   7   5   4 205.644 8.58032   1
  -7   5   1 129.156 8.24732  -2
   8   5   4 129.156 8.24732   1
  -6   6   4 86.9111 9.05357   1
  -5   6   4 44.9967 5.84531   1
  -4   6   4 164.833 8.40121   1
  -3   6   4 23.1426 4.11673   1
  -2   6   4 12.3314 2.43087   1
   2   6   2 82.3063 12.3644  -2
  -1   6   4 82.3063 12.3644   1
  -1   6   4 88.6532 4.49941   1
   0   6   4 60.8544 3.68398   1
   1   6   4 1047.38 23.1870   1
   2   6   4 82.9609 4.30569   1
   3   6   4 67.4738 5.35107   1
   4   6   4 24.8896 3.78367   1
   5   6   4 130.510 8.55066   1
   6   6   4 113.437 8.52601   1
   7   6   4 11.6194 4.16190   1
   8   6   4 1.44870 4.11582   1
   7   7   3 273.750 17.2927  -2
  -5   7   4 273.750 17.2927   1
   6   7   3 9.86488 10.9821  -2
  -4   7   4 9.86488 10.9821   1
  -4   7   4 -3.3708 9.01688   1
  -3   7   4 78.3973 10.7752   1
   5   7   3 143.932 12.4080  -2
  -3   7   4 143.932 12.4080   1
   4   7   3 254.551 11.6722  -2
  -2   7   4 254.551 11.6722   1
   3   7   3 43.1360 7.64517  -2
  -1   7   4 43.1360 7.64517   1
   2   7   3 440.421 11.7438  -2
   0   7   4 440.421 11.7438   1
   1   7   3 63.3937 5.61861  -2
   1   7   4 63.3937 5.61861   1
   0   7   3 301.043 10.2538  -2
   2   7   4 301.043 10.2538   1
  -1   7   3 331.003 13.2098  -2
   3   7   4 331.003 13.2098   1
  -2   7   3 129.246 8.92180  -2
   4   7   4 129.246 8.92180   1
  -3   7   3 382.254 14.8178  -2
   5   7   4 382.254 14.8178   1
  -4   7   3 6.99315 8.44866  -2
   6   7   4 6.99315 8.44866   1
  -5   7   3 63.5246 10.1458  -2
   7   7   4 63.5246 10.1458   1
   6   8   4 271.817 14.5363  -2
  -4   8   4 271.817 14.5363   1
   5   8   4 33.7205 9.25435  -2
  -3   8   4 33.7205 9.25435   1
   4   8   4 373.092 17.0179  -2
  -2   8   4 373.092 17.0179   1
   3   8   4 56.9059 6.77169  -2
  -1   8   4 56.9059 6.77169   1
   2   8   4 29.2521 4.26279  -2
   0   8   4 29.2521 4.26279   1
   1   8   4 404.176 10.7471  -2
   1   8   4 404.176 10.7471   1
   0   8   4 35.9163 7.02000  -2
   2   8   4 35.9163 7.02000   1
  -1   8   4 58.4287 6.62768  -2
   3   8   4 58.4287 6.62768   1
  -2   8   4 356.379 16.7088  -2
   4   8   4 356.379 16.7088   1
  -3   8   4 42.0762 8.68849  -2
   5   8   4 42.0762 8.68849   1
  -4   8   4 295.222 15.8853  -2
   6   8   4 295.222 15.8853   1
   5   9   5 292.672 17.3199  -2
  -3   9   4 292.672 17.3199   1
   4   9   5 16.8573 8.60175  -2
  -2   9   4 16.8573 8.60175   1
   3   9   5 348.740 17.2181  -2
  -1   9   4 348.740 17.2181   1
   2   9   5 75.4166 8.86708  -2
   0   9   4 75.4166 8.86708   1
   1   9   5 35.6813 6.13477  -2
   1   9   4 35.6813 6.13477   1
   0   9   5 225.229 13.8335  -2
   2   9   4 225.229 13.8335   1
  -1   9   5 -2.0719 9.87337  -2
   3   9   4 -2.0719 9.87337   1
  -2   9   5 76.2043 12.1024  -2
   4   9   4 76.2043 12.1024   1
  -3   9   5 82.7075 13.3457  -2
   5   9   4 82.7075 13.3457   1
  -2  10   4 61.8526 9.25350   1
  -1  10   4 22.4881 7.60148   1
   3  10   6 7.91394 22.0873  -2
  -1  10   4 7.91394 22.0873   1
   2  10   6 234.378 16.7361  -2
   0  10   4 234.378 16.7361   1
   2  10   4 28.2171 5.28445   1
   3  10   4 101.809 10.4913   1
   4  10   4 16.6286 7.20218   1
  -2   8  13 6.72432 10.2082  -2
  -4  -8   5 6.72432 10.2082   1
  -1   8  13 24.1274 7.16682  -2
  -3  -8   5 24.1274 7.16682   1
   2   8  13 65.0716 7.68279  -2
   0  -8   5 65.0716 7.68279   1
   3   8  13 136.574 9.89185  -2
   1  -8   5 136.574 9.89185   1
   4   8  13 -6.9328 6.81304  -2
   2  -8   5 -6.9328 6.81304   1
  -3   7  12 24.6487 11.8927  -2
  -5  -7   5 24.6487 11.8927   1
  -2   7  12 88.7435 8.88561  -2
  -4  -7   5 88.7435 8.88561   1
  -1   7  12 70.9273 7.77009  -2
  -3  -7   5 70.9273 7.77009   1
   0   7  12 45.1374 6.88297  -2
  -2  -7   5 45.1374 6.88297   1
   1   7  12 486.417 19.9980  -2
  -1  -7   5 486.417 19.9980   1
   2   7  12 65.0530 6.76759  -2
   0  -7   5 65.0530 6.76759   1
   3   7  12 322.766 11.4089  -2
   1  -7   5 322.766 11.4089   1
   4   7  12 33.6729 6.45151  -2
   2  -7   5 33.6729 6.45151   1
   5   7  12 26.5872 6.12527  -2
   3  -7   5 26.5872 6.12527   1
  -6  -6   5 0.17676 3.81136   1
  -5  -6   5 14.4250 4.13209   1
  -4  -6   5 7.77841 3.62398   1
  -3  -6   5 19.4827 3.73913   1
  -2  -6   5 146.743 8.85956   1
  -1   6  11 428.590 20.6891  -2
  -2  -6   5 428.590 20.6891   1
  -1  -6   5 112.181 5.22539   1
   0   6  11 112.160 11.4392  -2
  -1  -6   5 112.160 11.4392   1
   0  -6   5 340.478 10.7183   1
   1  -6   5 167.321 6.90703   1
   2  -6   5 303.391 9.93437   1
   3  -6   5 64.9753 4.89767   1
   4  -6   5 2.71484 2.87022   1
   5  -6   5 15.8602 3.60279   1
   6  -6   5 4.19412 3.96608   1
  -5   5  10 102.514 8.80179  -2
  -6  -5   5 102.514 8.80179   1
  -4   5  10 50.7165 7.47204  -2
  -5  -5   5 50.7165 7.47204   1
  -3   5  10 307.246 11.5340  -2
  -4  -5   5 307.246 11.5340   1
  -2   5  10 300.179 10.9017  -2
  -3  -5   5 300.179 10.9017   1
  -1   5  10 27.7792 5.64904  -2
  -2  -5   5 27.7792 5.64904   1
   0   5  10 389.589 9.58161  -2
  -1  -5   5 389.589 9.58161   1
   1   5  10 54.1985 4.78156  -2
   0  -5   5 54.1985 4.78156   1
   2   5  10 523.319 14.9425  -2
   1  -5   5 523.319 14.9425   1
   3   5  10 203.422 8.08099  -2
   2  -5   5 203.422 8.08099   1
   4   5  10 56.3890 5.55792  -2
   3  -5   5 56.3890 5.55792   1
   5   5  10 374.124 12.1130  -2
   4  -5   5 374.124 12.1130   1
   6   5  10 23.7093 5.90300  -2
   5  -5   5 23.7093 5.90300   1
   7   5  10 24.9608 10.5614  -2
   6  -5   5 24.9608 10.5614   1
   8   5  10 23.3368 12.2486  -2
   7  -5   5 23.3368 12.2486   1
  -6   4   9 129.958 7.59297  -2
  -7  -4   5 129.958 7.59297   1
  -5   4   9 19.2462 4.92753  -2
  -6  -4   5 19.2462 4.92753   1
  -4   4   9 139.726 6.84231  -2
  -5  -4   5 139.726 6.84231   1
  -3   4   9 45.1072 4.57756  -2
  -4  -4   5 45.1072 4.57756   1
  -2   4   9 1062.78 27.9829  -2
  -3  -4   5 1062.78 27.9829   1
  -1   4   9 212.369 5.72470  -2
  -2  -4   5 212.369 5.72470   1
   0   4   9 35.5144 2.69167  -2
  -1  -4   5 35.5144 2.69167   1
   1   4   9 346.612 8.12540  -2
   0  -4   5 346.612 8.12540   1
   2   4   9 71.3547 4.19691  -2
   1  -4   5 71.3547 4.19691   1
   3   4   9 451.506 12.7009  -2
   2  -4   5 451.506 12.7009   1
   4   4   9 744.023 19.7628  -2
   3  -4   5 744.023 19.7628   1
   5   4   9 55.0516 4.13782  -2
   4  -4   5 55.0516 4.13782   1
   6   4   9 353.528 10.9192  -2
   5  -4   5 353.528 10.9192   1
   7   4   9 17.1181 4.11549  -2
   6  -4   5 17.1181 4.11549   1
   8   4   9 169.255 11.8416  -2
   7  -4   5 169.255 11.8416   1
  -6   3   8 90.8084 8.61223  -2
  -7  -3   5 90.8084 8.61223   1
  -5   3   8 517.884 16.4828  -2
  -6  -3   5 517.884 16.4828   1
  -5  -3   5 8.81822 4.59678   1
  -4   3   8 15.8976 8.42796  -2
  -5  -3   5 15.8976 8.42796   1
  -4  -3   5 422.212 18.1920   1
  -3   3   8 578.208 23.3526  -2
  -4  -3   5 578.208 23.3526   1
  -2   3   8 101.628 6.16399  -2
  -3  -3   5 101.628 6.16399   1
  -1   3   8 449.406 10.2724  -2
  -2  -3   5 449.406 10.2724   1
   0   3   8 198.912 5.60747  -2
  -1  -3   5 198.912 5.60747   1
   1   3   8 471.296 10.4412  -2
   0  -3   5 471.296 10.4412   1
   2   3   8 401.776 11.0865  -2
   1  -3   5 401.776 11.0865   1
   1  -3   5 302.154 11.8173   1
   2  -3   5 27.6270 2.59663   1
   4   3   8 385.162 11.4109  -2
   3  -3   5 385.162 11.4109   1
   5   3   8 872.817 23.0308  -2
   4  -3   5 872.817 23.0308   1
   6   3   8 78.9690 5.81649  -2
   5  -3   5 78.9690 5.81649   1
   7   3   8 358.671 11.7890  -2
   6  -3   5 358.671 11.7890   1
   8   3   8 51.8214 11.7711  -2
   7  -3   5 51.8214 11.7711   1
   9   3   8 54.4443 13.0930  -2
   8  -3   5 54.4443 13.0930   1
  -8  -2   5 50.5745 5.43366   1
  -7  -2   5 76.7737 6.14270   1
  -6  -2   5 8.72837 3.26059   1
  -5  -2   5 163.738 6.94400   1
  -4  -2   5 9.29210 2.35176   1
  -3  -2   5 364.750 8.37013   1
  -2  -2   5 12.5629 1.51271   1
  -1  -2   5 44.8029 2.21808   1
   0  -2   5 717.453 14.8858   1
   1  -2   5 158.723 4.01054   1
   2  -2   5 402.948 10.9178   1
   3  -2   5 201.709 6.40876   1
   4  -2   5 119.909 4.81913   1
   5  -2   5 24.0968 2.44479   1
   6  -2   5 10.1946 2.36021   1
   7  -2   5 194.347 9.86910   1
   8  -2   5 36.6015 5.59423   1
  -7   1   6 102.958 8.75657  -2
  -7  -1   5 102.958 8.75657   1
  -6   1   6 111.558 7.90995  -2
  -6  -1   5 111.558 7.90995   1
  -5   1   6 15.8056 7.56817  -2
  -5  -1   5 15.8056 7.56817   1
  -5  -1   5 14.6913 4.92861   1
  -4   1   6 283.352 13.5458  -2
  -4  -1   5 283.352 13.5458   1
  -4  -1   5 148.634 8.89612   1
  -3   1   6 297.795 7.31600  -2
  -3  -1   5 297.795 7.31600   1
  -2   1   6 49.8673 3.38950  -2
  -2  -1   5 49.8673 3.38950   1
  -2  -1   5 34.4038 4.12120   1
  -1  -1   5 593.091 21.5015   1
  -1   1   6 1088.93 27.2187  -2
  -1  -1   5 1088.93 27.2187   1
   0  -1   5 110.761 3.15428   1
   1  -1   5 1521.01 30.4508   1
   2  -1   5 0.54762 0.92057   1
   3   1   6 1305.74 47.8505  -2
   3  -1   5 1305.74 47.8505   1
   3  -1   5 943.158 32.4228   1
   4   1   6 1220.12 45.4320  -2
   4  -1   5 1220.12 45.4320   1
   4  -1   5 618.368 21.9485   1
   5  -1   5 196.974 7.22259   1
   5   1   6 379.421 17.3505  -2
   5  -1   5 379.421 17.3505   1
   6   1   6 100.730 8.63477  -2
   6  -1   5 100.730 8.63477   1
   6  -1   5 43.5460 3.68750   1
   7   1   6 54.9122 10.2719  -2
   7  -1   5 54.9122 10.2719   1
   8   1   6 55.7485 10.0961  -2
   8  -1   5 55.7485 10.0961   1
  -8   0   5 389.330 20.1774  -2
  -8   0   5 389.330 20.1774   1
  -7   0   5 37.8995 4.36251  -2
  -7   0   5 37.8995 4.36251   1
  -6   0   5 2.70489 2.79744  -2
  -6   0   5 2.70489 2.79744   1
  -5   0   5 5.97940 2.50622  -2
  -5   0   5 5.97940 2.50622   1
  -4   0   5 114.113 3.67241  -2
  -4   0   5 114.113 3.67241   1
  -3   0   5 1194.99 24.3915  -2
  -3   0   5 1194.99 24.3915   1
  -2   0   5 3217.73 63.8880  -2
  -2   0   5 3217.73 63.8880   1
  -1   0   5 378.901 8.20102  -2
  -1   0   5 378.901 8.20102   1
   0   0   5 1090.79 22.0084  -2
   0   0   5 1090.79 22.0084   1
   1   0   5 2000.39 39.8148  -2
   1   0   5 2000.39 39.8148   1
   2   0   5 3801.69 75.1574  -2
   2   0   5 3801.69 75.1574   1
   3   0   5 376.695 8.09647  -2
   3   0   5 376.695 8.09647   1
   4   0   5 881.849 18.0212  -2
   4   0   5 881.849 18.0212   1
   5   0   5 1123.59 25.0607  -2
   5   0   5 1123.59 25.0607   1
   6   0   5 -0.0947 2.94132  -2
   6   0   5 -0.0947 2.94132   1
   7   0   5 712.908 22.7690  -2
   7   0   5 712.908 22.7690   1
   8   0   5 18.2601 4.74430  -2
   8   0   5 18.2601 4.74430   1
   9   0   5 63.8980 7.16300  -2
   9   0   5 63.8980 7.16300   1
  -8   1   5 7.72258 6.18576   1
  -7   1   5 230.462 13.5817   1
  -6  -1   4 35.1736 6.18354  -2
  -6   1   5 35.1736 6.18354   1
  -5  -1   4 89.7419 6.22588  -2
  -5   1   5 89.7419 6.22588   1
  -4   1   5 161.404 8.65389   1
  -4  -1   4 327.954 9.53359  -2
  -4   1   5 327.954 9.53359   1
  -3  -1   4 51.7084 3.59033  -2
  -3   1   5 51.7084 3.59033   1
  -3   1   5 9.40563 2.46849   1
  -2   1   5 544.668 20.5952   1
  -2  -1   4 1027.81 25.3359  -2
  -2   1   5 1027.81 25.3359   1
  -1   1   5 2116.89 50.7934   1
   0   1   5 137.054 4.23252   1
   1   1   5 99.2794 3.34251   1
   2   1   5 553.549 11.4999   1
   3   1   5 1374.24 33.1123   1
   3  -1   4 2191.05 78.5639  -2
   3   1   5 2191.05 78.5639   1
   4   1   5 164.668 4.72149   1
   4  -1   4 358.876 12.3512  -2
   4   1   5 358.876 12.3512   1
   5   1   5 68.9591 2.56626   1
   5  -1   4 292.985 14.2956  -2
   5   1   5 292.985 14.2956   1
   6  -1   4 647.270 20.9589  -2
   6   1   5 647.270 20.9589   1
   7  -1   4 47.3549 8.44108  -2
   7   1   5 47.3549 8.44108   1
   8  -1   4 282.941 17.1416  -2
   8   1   5 282.941 17.1416   1
  -8   2   5 142.116 12.1370   1
  -7   2   5 16.5614 5.64250   1
  -6   2   5 114.645 9.08114   1
  -5   2   5 91.2835 3.96419   1
  -4   2   5 8.45868 2.14473   1
  -3   2   5 776.931 19.5762   1
  -2   2   5 129.417 4.39953   1
  -1   2   5 87.9376 3.47732   1
   0   2   5 7.04417 1.52920   1
   1   2   5 30.4588 2.22773   1
   2   2   5 1420.64 34.2859   1
   3   2   5 281.060 6.29140   1
   4   2   5 248.762 5.30461   1
   5   2   5 11.9978 1.93566   1
   6   2   5 32.9631 2.66989   1
   7   2   5 152.886 7.97909   1
   8   2   5 6.39218 3.99256   1
   9   2   5 8.30749 4.76477   1
  -7   3   5 39.5367 6.48928   1
  -6  -3   2 269.070 13.4841  -2
  -5   3   5 269.070 13.4841   1
  -5  -3   2 2060.11 70.2876  -2
  -4   3   5 2060.11 70.2876   1
  -4   3   5 1047.11 37.5134   1
  -4  -3   2 158.696 6.32846  -2
  -3   3   5 158.696 6.32846   1
  -3  -3   2 743.613 16.7505  -2
  -2   3   5 743.613 16.7505   1
  -2  -3   2 58.3352 4.00477  -2
  -1   3   5 58.3352 4.00477   1
   0   3   5 129.154 6.38098   1
  -1  -3   2 183.487 8.65692  -2
   0   3   5 183.487 8.65692   1
   1   3   5 34.2567 2.42714   1
   2   3   5 204.567 5.87518   1
   3   3   5 1570.95 37.9128   1
   2  -3   2 2582.93 117.618  -2
   3   3   5 2582.93 117.618   1
   4   3   5 69.3863 2.69314   1
   3  -3   2 258.716 15.8492  -2
   4   3   5 258.716 15.8492   1
   4  -3   2 120.546 7.31918  -2
   5   3   5 120.546 7.31918   1
   5   3   5 80.9685 5.48208   1
   5  -3   2 187.191 6.85576  -2
   6   3   5 187.191 6.85576   1
   6  -3   2 9.81865 5.21234  -2
   7   3   5 9.81865 5.21234   1
   7  -3   2 230.850 13.1865  -2
   8   3   5 230.850 13.1865   1
   8  -3   2 242.973 15.0614  -2
   9   3   5 242.973 15.0614   1
  -6  -4   1 61.5126 6.74776  -2
  -5   4   5 61.5126 6.74776   1
  -5  -4   1 88.4725 4.47703  -2
  -4   4   5 88.4725 4.47703   1
  -4  -4   1 872.223 22.0797  -2
  -3   4   5 872.223 22.0797   1
  -3  -4   1 74.7337 3.92192  -2
  -2   4   5 74.7337 3.92192   1
  -2  -4   1 1223.95 26.5892  -2
  -1   4   5 1223.95 26.5892   1
  -1  -4   1 245.411 6.30371  -2
   0   4   5 245.411 6.30371   1
   0  -4   1 175.592 5.52752  -2
   1   4   5 175.592 5.52752   1
   1  -4   1 1587.03 34.0701  -2
   2   4   5 1587.03 34.0701   1
   2  -4   1 46.3232 2.55055  -2
   3   4   5 46.3232 2.55055   1
   3  -4   1 501.963 15.4026  -2
   4   4   5 501.963 15.4026   1
   4  -4   1 20.1411 3.00793  -2
   5   4   5 20.1411 3.00793   1
   5  -4   1 109.687 4.73962  -2
   6   4   5 109.687 4.73962   1
   6  -4   1 196.325 6.84953  -2
   7   4   5 196.325 6.84953   1
   7  -4   1 16.2308 4.40805  -2
   8   4   5 16.2308 4.40805   1
   8  -4   1 114.397 12.0499  -2
   9   4   5 114.397 12.0499   1
   7   5   0 -1.0616 10.0574  -2
  -6   5   5 -1.0616 10.0574   1
   6   5   0 315.370 15.7266  -2
  -5   5   5 315.370 15.7266   1
   5   5   0 85.7734 9.65708  -2
  -4   5   5 85.7734 9.65708   1
   4   5   0 186.806 7.50929  -2
  -3   5   5 186.806 7.50929   1
   3   5   0 1104.84 24.5750  -2
  -2   5   5 1104.84 24.5750   1
   2   5   0 576.029 13.6320  -2
  -1   5   5 576.029 13.6320   1
   1   5   0 1540.78 33.3960  -2
   0   5   5 1540.78 33.3960   1
   0   5   0 86.5621 4.29086  -2
   1   5   5 86.5621 4.29086   1
  -1   5   0 77.5851 4.59285  -2
   2   5   5 77.5851 4.59285   1
  -2   5   0 124.462 4.53634  -2
   3   5   5 124.462 4.53634   1
  -3   5   0 4.47271 5.52260  -2
   4   5   5 4.47271 5.52260   1
  -4   5   0 600.956 19.0502  -2
   5   5   5 600.956 19.0502   1
  -5   5   0 209.541 10.0030  -2
   6   5   5 209.541 10.0030   1
  -6   5   0 22.3049 6.10881  -2
   7   5   5 22.3049 6.10881   1
  -7   5   0 295.410 12.8449  -2
   8   5   5 295.410 12.8449   1
  -6   6   5 92.2250 8.92376   1
  -5   6   5 2.46062 4.84137   1
  -4   6   5 93.1143 8.49522   1
  -3   6   5 5.41530 4.61191   1
  -2   6   5 55.4657 4.18243   1
   2   6   1 662.346 34.0611  -2
  -1   6   5 662.346 34.0611   1
  -1   6   5 711.230 18.5208   1
   0   6   5 127.601 4.75064   1
   1   6   5 420.329 10.3369   1
   2   6   5 158.031 5.74030   1
   3   6   5 9.16202 2.49666   1
   4   6   5 28.2826 4.00127   1
   5   6   5 63.1845 5.73205   1
   6   6   5 129.325 7.48800   1
   7   6   5 98.3520 8.68081   1
   8   6   5 30.2415 5.09465   1
   7   7   2 255.134 17.0929  -2
  -5   7   5 255.134 17.0929   1
   6   7   2 107.279 13.1120  -2
  -4   7   5 107.279 13.1120   1
  -3   7   5 6.12636 8.22072   1
   5   7   2 46.6628 11.4224  -2
  -3   7   5 46.6628 11.4224   1
   4   7   2 537.572 18.3641  -2
  -2   7   5 537.572 18.3641   1
   3   7   2 165.837 7.07088  -2
  -1   7   5 165.837 7.07088   1
   2   7   2 209.470 7.66625  -2
   0   7   5 209.470 7.66625   1
   1   7   2 76.0951 6.00910  -2
   1   7   5 76.0951 6.00910   1
   0   7   2 85.3884 6.54934  -2
   2   7   5 85.3884 6.54934   1
  -1   7   2 430.275 15.6309  -2
   3   7   5 430.275 15.6309   1
  -2   7   2 116.363 8.94794  -2
   4   7   5 116.363 8.94794   1
  -3   7   2 315.480 13.4458  -2
   5   7   5 315.480 13.4458   1
  -4   7   2 65.6754 9.34185  -2
   6   7   5 65.6754 9.34185   1
  -5   7   2 51.3213 9.76573  -2
   7   7   5 51.3213 9.76573   1
   6   8   3 89.3507 11.0098  -2
  -4   8   5 89.3507 11.0098   1
   5   8   3 151.945 12.0291  -2
  -3   8   5 151.945 12.0291   1
   4   8   3 43.9288 8.86305  -2
  -2   8   5 43.9288 8.86305   1
   3   8   3 273.296 11.2275  -2
  -1   8   5 273.296 11.2275   1
   2   8   3 22.4418 4.34858  -2
   0   8   5 22.4418 4.34858   1
   1   8   3 101.223 5.59364  -2
   1   8   5 101.223 5.59364   1
   0   8   3 415.627 18.0862  -2
   2   8   5 415.627 18.0862   1
  -1   8   3 22.5366 6.12946  -2
   3   8   5 22.5366 6.12946   1
  -2   8   3 431.211 15.2718  -2
   4   8   5 431.211 15.2718   1
  -3   8   3 42.9384 6.92003  -2
   5   8   5 42.9384 6.92003   1
  -4   8   3 176.502 12.6493  -2
   6   8   5 176.502 12.6493   1
   5   9   4 68.6337 12.5892  -2
  -3   9   5 68.6337 12.5892   1
   4   9   4 74.6963 11.9382  -2
  -2   9   5 74.6963 11.9382   1
   3   9   4 23.1524 8.63264  -2
  -1   9   5 23.1524 8.63264   1
   2   9   4 202.406 11.3566  -2
   0   9   5 202.406 11.3566   1
   1   9   4 34.0302 6.27802  -2
   1   9   5 34.0302 6.27802   1
   0   9   4 58.3331 10.6534  -2
   2   9   5 58.3331 10.6534   1
  -1   9   4 358.849 14.7847  -2
   3   9   5 358.849 14.7847   1
  -2   9   4 32.5518 8.82576  -2
   4   9   5 32.5518 8.82576   1
  -3   9   4 334.758 19.3962  -2
   5   9   5 334.758 19.3962   1
   3  10   5 29.2395 12.1238  -2
  -1  10   5 29.2395 12.1238   1
   2  10   5 57.4574 14.2349  -2
   0  10   5 57.4574 14.2349   1
   2  10   5 46.3387 6.12890   1
   3  10   5 17.5939 5.43835   1
   4  10   5 23.1170 7.38339   1
  -1   8  14 36.7720 10.7113  -2
  -3  -8   6 36.7720 10.7113   1
   1   8  14 127.384 11.3889  -2
  -1  -8   6 127.384 11.3889   1
   2   8  14 28.6331 5.42275  -2
   0  -8   6 28.6331 5.42275   1
   3   8  14 19.1870 7.10236  -2
   1  -8   6 19.1870 7.10236   1
   4   8  14 1.95596 6.96049  -2
   2  -8   6 1.95596 6.96049   1
  -2   7  13 8.37401 8.13220  -2
  -4  -7   6 8.37401 8.13220   1
  -1   7  13 285.512 11.6925  -2
  -3  -7   6 285.512 11.6925   1
   0   7  13 29.4377 11.6674  -2
  -2  -7   6 29.4377 11.6674   1
   2   7  13 111.134 7.81304  -2
   0  -7   6 111.134 7.81304   1
   3   7  13 51.3831 6.91929  -2
   1  -7   6 51.3831 6.91929   1
   4   7  13 123.357 8.06307  -2
   2  -7   6 123.357 8.06307   1
   5   7  13 19.6062 6.37084  -2
   3  -7   6 19.6062 6.37084   1
   6   7  13 170.208 9.18748  -2
   4  -7   6 170.208 9.18748   1
  -5  -6   6 36.3995 4.80603   1
  -4  -6   6 28.5194 4.44024   1
  -3  -6   6 1.13308 3.41735   1
  -1   6  12 309.325 17.4397  -2
  -2  -6   6 309.325 17.4397   1
  -2  -6   6 284.994 13.4621   1
  -1  -6   6 17.4569 2.92388   1
   0   6  12 113.747 12.1898  -2
  -1  -6   6 113.747 12.1898   1
   0  -6   6 48.8713 5.96305   1
   1  -6   6 114.453 6.16384   1
   2  -6   6 37.8020 4.05671   1
   3  -6   6 94.4189 5.58473   1
   4  -6   6 7.48476 3.16287   1
   5  -6   6 5.22602 3.42311   1
   6  -6   6 65.2990 5.78826   1
  -5   5  11 133.479 14.3259  -2
  -6  -5   6 133.479 14.3259   1
  -4   5  11 119.151 8.68409  -2
  -5  -5   6 119.151 8.68409   1
  -3   5  11 56.6704 7.27839  -2
  -4  -5   6 56.6704 7.27839   1
  -2   5  11 222.533 9.40599  -2
  -3  -5   6 222.533 9.40599   1
  -1   5  11 53.7351 6.01524  -2
  -2  -5   6 53.7351 6.01524   1
   0   5  11 250.132 7.33937  -2
  -1  -5   6 250.132 7.33937   1
   1   5  11 399.018 16.8452  -2
   0  -5   6 399.018 16.8452   1
   2   5  11 407.889 12.7067  -2
   1  -5   6 407.889 12.7067   1
   3   5  11 573.334 16.3756  -2
   2  -5   6 573.334 16.3756   1
   4   5  11 59.9600 5.93705  -2
   3  -5   6 59.9600 5.93705   1
   5   5  11 231.146 9.18598  -2
   4  -5   6 231.146 9.18598   1
   6   5  11 184.766 8.73300  -2
   5  -5   6 184.766 8.73300   1
   7   5  11 -1.2311 6.35390  -2
   6  -5   6 -1.2311 6.35390   1
  -5   4  10 29.4632 5.35857  -2
  -6  -4   6 29.4632 5.35857   1
  -4   4  10 86.2706 5.88544  -2
  -5  -4   6 86.2706 5.88544   1
  -3   4  10 19.2940 4.44249  -2
  -4  -4   6 19.2940 4.44249   1
  -2   4  10 22.1232 4.30325  -2
  -3  -4   6 22.1232 4.30325   1
  -1   4  10 644.932 14.1038  -2
  -2  -4   6 644.932 14.1038   1
   0   4  10 36.6142 2.72732  -2
  -1  -4   6 36.6142 2.72732   1
   1   4  10 327.048 7.91696  -2
   0  -4   6 327.048 7.91696   1
   2   4  10 1003.49 25.8341  -2
   1  -4   6 1003.49 25.8341   1
   3   4  10 49.6035 3.90792  -2
   2  -4   6 49.6035 3.90792   1
   4   4  10 404.490 11.8886  -2
   3  -4   6 404.490 11.8886   1
   5   4  10 30.6101 3.94948  -2
   4  -4   6 30.6101 3.94948   1
   6   4  10 318.803 10.2827  -2
   5  -4   6 318.803 10.2827   1
   7   4  10 64.6966 5.00672  -2
   6  -4   6 64.6966 5.00672   1
   8   4  10 27.6561 8.63174  -2
   7  -4   6 27.6561 8.63174   1
  -6   3   9 35.7182 8.22965  -2
  -7  -3   6 35.7182 8.22965   1
  -5   3   9 263.794 11.2199  -2
  -6  -3   6 263.794 11.2199   1
  -4   3   9 26.3312 6.65575  -2
  -5  -3   6 26.3312 6.65575   1
  -3   3   9 252.432 13.3692  -2
  -4  -3   6 252.432 13.3692   1
  -4  -3   6 132.200 9.16125   1
  -2   3   9 53.4274 5.75787  -2
  -3  -3   6 53.4274 5.75787   1
  -1   3   9 183.099 5.62190  -2
  -2  -3   6 183.099 5.62190   1
   0   3   9 695.655 15.0372  -2
  -1  -3   6 695.655 15.0372   1
   1   3   9 472.907 13.1979  -2
   0  -3   6 472.907 13.1979   1
   0  -3   6 296.069 11.8558   1
   1  -3   6 107.958 5.31639   1
   2   3   9 266.627 8.52374  -2
   1  -3   6 266.627 8.52374   1
   3   3   9 128.781 5.76659  -2
   2  -3   6 128.781 5.76659   1
   4   3   9 440.867 12.8043  -2
   3  -3   6 440.867 12.8043   1
   5   3   9 757.330 20.4890  -2
   4  -3   6 757.330 20.4890   1
   6   3   9 29.5538 5.41601  -2
   5  -3   6 29.5538 5.41601   1
   7   3   9 352.170 11.7392  -2
   6  -3   6 352.170 11.7392   1
   8   3   9 56.5631 12.1758  -2
   7  -3   6 56.5631 12.1758   1
  -7  -2   6 187.624 8.72390   1
  -6  -2   6 6.11820 3.34459   1
  -5  -2   6 85.0573 5.50401   1
  -4  -2   6 6.75589 2.58627   1
  -3  -2   6 178.456 5.03536   1
  -2  -2   6 242.972 6.09220   1
  -1  -2   6 3.73693 1.31190   1
   0  -2   6 534.044 11.4351   1
   1  -2   6 252.832 5.93720   1
   2  -2   6 21.5978 1.55251   1
   3  -2   6 167.731 5.72072   1
   4  -2   6 10.1806 2.28225   1
   5  -2   6 289.830 9.09697   1
   6  -2   6 40.8483 3.39965   1
   7  -2   6 99.9977 7.98342   1
   8  -2   6 63.2420 6.78447   1
  -8  -1   6 4.75482 4.35285   1
  -7   1   7 29.9661 8.13240  -2
  -7  -1   6 29.9661 8.13240   1
  -6   1   7 531.850 16.7482  -2
  -6  -1   6 531.850 16.7482   1
  -5   1   7 48.4663 8.40813  -2
  -5  -1   6 48.4663 8.40813   1
  -5  -1   6 25.5416 5.13153   1
  -4  -1   6 267.489 8.72472   1
  -3  -1   6 199.348 9.29235   1
  -3   1   7 484.199 13.4045  -2
  -3  -1   6 484.199 13.4045   1
  -2   1   7 14.9293 4.20374  -2
  -2  -1   6 14.9293 4.20374   1
  -2  -1   6 12.4799 1.87429   1
  -1  -1   6 258.429 7.25330   1
  -1   1   7 484.591 19.2875  -2
  -1  -1   6 484.591 19.2875   1
   0  -1   6 1.34379 1.06419   1
   1  -1   6 565.286 11.8863   1
   2  -1   6 6.40613 1.12582   1
   3  -1   6 180.470 4.44709   1
   4  -1   6 659.345 23.4548   1
   4   1   7 1469.10 54.1932  -2
   4  -1   6 1469.10 54.1932   1
   5  -1   6 387.407 14.8458   1
   5   1   7 925.563 35.8513  -2
   5  -1   6 925.563 35.8513   1
   6  -1   6 56.8026 4.38958   1
   6   1   7 140.548 11.7591  -2
   6  -1   6 140.548 11.7591   1
   7   1   7 233.652 14.7397  -2
   7  -1   6 233.652 14.7397   1
   8   1   7 -4.0123 10.9248  -2
   8  -1   6 -4.0123 10.9248   1
  -8   0   6 77.9119 9.97401  -2
  -8   0   6 77.9119 9.97401   1
  -7   0   6 102.882 6.49353  -2
  -7   0   6 102.882 6.49353   1
  -6   0   6 7.54151 2.94189  -2
  -6   0   6 7.54151 2.94189   1
  -5   0   6 106.527 5.62960  -2
  -5   0   6 106.527 5.62960   1
  -4   0   6 158.454 4.63809  -2
  -4   0   6 158.454 4.63809   1
  -3   0   6 769.576 16.2243  -2
  -3   0   6 769.576 16.2243   1
  -2   0   6 1083.30 22.1648  -2
  -2   0   6 1083.30 22.1648   1
  -1   0   6 745.909 15.4592  -2
  -1   0   6 745.909 15.4592   1
   0   0   6 1631.43 32.7084  -2
   0   0   6 1631.43 32.7084   1
   1   0   6 202.785 4.82521  -2
   1   0   6 202.785 4.82521   1
   2   0   6 938.759 19.1666  -2
   2   0   6 938.759 19.1666   1
   3   0   6 692.950 14.3752  -2
   3   0   6 692.950 14.3752   1
   4   0   6 8.62178 1.16628  -2
   4   0   6 8.62178 1.16628   1
   5   0   6 24.5963 2.38105  -2
   5   0   6 24.5963 2.38105   1
   6   0   6 87.0596 6.34450  -2
   6   0   6 87.0596 6.34450   1
   7   0   6 46.9808 5.60177  -2
   7   0   6 46.9808 5.60177   1
   8   0   6 228.350 13.4667  -2
   8   0   6 228.350 13.4667   1
   9   0   6 6.30360 4.82042  -2
   9   0   6 6.30360 4.82042   1
  -8  -1   5 -6.8481 13.6704  -2
  -8   1   6 -6.8481 13.6704   1
  -7  -1   5 98.6081 12.8820  -2
  -7   1   6 98.6081 12.8820   1
  -6  -1   5 117.717 8.05164  -2
  -6   1   6 117.717 8.05164   1
  -5  -1   5 16.3491 5.50751  -2
  -5   1   6 16.3491 5.50751   1
  -4  -1   5 295.429 7.73187  -2
  -4   1   6 295.429 7.73187   1
  -3   1   6 321.467 13.6086   1
  -3  -1   5 347.943 10.0202  -2
  -3   1   6 347.943 10.0202   1
  -2  -1   5 45.0210 3.58661  -2
  -2   1   6 45.0210 3.58661   1
  -2   1   6 7.73382 2.18622   1
  -1   1   6 569.227 14.5014   1
   0   1   6 128.716 4.29115   1
   1   1   6 2417.50 57.9124   1
   2   1   6 31.5013 1.83537   1
   3   1   6 318.006 8.42770   1
   3  -1   5 1185.24 43.5525  -2
   3   1   6 1185.24 43.5525   1
   4   1   6 573.518 14.3861   1
   4  -1   5 1117.55 41.5600  -2
   4   1   6 1117.55 41.5600   1
   5   1   6 217.336 6.15299   1
   5  -1   5 390.452 17.7799  -2
   5   1   6 390.452 17.7799   1
   6  -1   5 108.883 8.43366  -2
   6   1   6 108.883 8.43366   1
   7  -1   5 57.0710 8.69032  -2
   7   1   6 57.0710 8.69032   1
   8  -1   5 55.8669 9.61551  -2
   8   1   6 55.8669 9.61551   1
  -8   2   6 74.5061 9.29770   1
  -7   2   6 63.1856 8.07586   1
  -6   2   6 27.1241 3.85465   1
  -5   2   6 87.3119 4.01417   1
  -4   2   6 2.45452 2.08927   1
  -3   2   6 687.239 17.6326   1
  -2   2   6 184.246 5.76556   1
  -1   2   6 69.7309 3.16695   1
   0   2   6 301.906 8.24724   1
   1   2   6 404.027 10.5750   1
   2   2   6 1079.44 26.3803   1
   3   2   6 543.522 13.7564   1
   4   2   6 97.4836 2.84545   1
   5   2   6 193.057 5.84612   1
   6   2   6 19.0889 2.22139   1
   7   2   6 544.971 18.0605   1
   8   2   6 80.0987 6.87526   1
   9   2   6 1.66823 4.42133   1
  -5   3   6 45.3384 5.34835   1
  -5  -3   3 972.663 24.9653  -2
  -4   3   6 972.663 24.9653   1
  -4  -3   3 53.2526 5.02084  -2
  -3   3   6 53.2526 5.02084   1
  -3  -3   3 119.481 4.92367  -2
  -2   3   6 119.481 4.92367   1
  -2  -3   3 142.154 7.81621  -2
  -1   3   6 142.154 7.81621   1
  -1   3   6 40.4749 3.95338   1
   0   3   6 488.949 18.2757   1
  -1  -3   3 1132.02 38.9051  -2
   0   3   6 1132.02 38.9051   1
   1   3   6 156.083 4.91785   1
   2   3   6 126.699 4.32041   1
   3   3   6 229.797 6.56117   1
   3  -3   3 962.967 28.2351  -2
   4   3   6 962.967 28.2351   1
   4   3   6 451.477 11.6942   1
   5   3   6 92.8137 6.01424   1
   4  -3   3 237.594 17.2304  -2
   5   3   6 237.594 17.2304   1
   5  -3   3 672.710 16.2902  -2
   6   3   6 672.710 16.2902   1
   6  -3   3 117.953 6.33531  -2
   7   3   6 117.953 6.33531   1
   7  -3   3 94.4619 10.7705  -2
   8   3   6 94.4619 10.7705   1
   8  -3   3 88.5382 12.5305  -2
   9   3   6 88.5382 12.5305   1
  -6  -4   2 169.755 9.84301  -2
  -5   4   6 169.755 9.84301   1
  -5  -4   2 9.52207 2.73052  -2
  -4   4   6 9.52207 2.73052   1
  -4  -4   2 991.729 25.0243  -2
  -3   4   6 991.729 25.0243   1
  -3  -4   2 66.7160 3.97666  -2
  -2   4   6 66.7160 3.97666   1
  -2  -4   2 99.7302 4.27169  -2
  -1   4   6 99.7302 4.27169   1
  -1  -4   2 99.8591 4.07350  -2
   0   4   6 99.8591 4.07350   1
   0  -4   2 21.3564 2.61048  -2
   1   4   6 21.3564 2.61048   1
   1  -4   2 1030.93 22.5777  -2
   2   4   6 1030.93 22.5777   1
   2  -4   2 416.312 11.1169  -2
   3   4   6 416.312 11.1169   1
   3  -4   2 97.7136 5.28677  -2
   4   4   6 97.7136 5.28677   1
   4  -4   2 370.791 9.58482  -2
   5   4   6 370.791 9.58482   1
   5  -4   2 21.2437 3.44956  -2
   6   4   6 21.2437 3.44956   1
   6  -4   2 475.947 12.4027  -2
   7   4   6 475.947 12.4027   1
   7  -4   2 46.2312 7.09794  -2
   8   4   6 46.2312 7.09794   1
   8  -4   2 41.6183 9.89328  -2
   9   4   6 41.6183 9.89328   1
  -7  -5   1 24.5102 10.7957  -2
  -6   5   6 24.5102 10.7957   1
  -6  -5   1 148.557 12.0751  -2
  -5   5   6 148.557 12.0751   1
  -5  -5   1 360.909 16.6175  -2
  -4   5   6 360.909 16.6175   1
  -4  -5   1 52.9256 5.50089  -2
  -3   5   6 52.9256 5.50089   1
  -3  -5   1 505.563 14.0650  -2
  -2   5   6 505.563 14.0650   1
  -2  -5   1 844.088 19.1487  -2
  -1   5   6 844.088 19.1487   1
  -1  -5   1 65.6093 4.35987  -2
   0   5   6 65.6093 4.35987   1
   0  -5   1 290.336 8.88068  -2
   1   5   6 290.336 8.88068   1
   1  -5   1 70.1728 4.19537  -2
   2   5   6 70.1728 4.19537   1
   2  -5   1 1244.95 27.3119  -2
   3   5   6 1244.95 27.3119   1
   3  -5   1 204.268 9.22110  -2
   4   5   6 204.268 9.22110   1
   4  -5   1 118.268 7.98009  -2
   5   5   6 118.268 7.98009   1
   5  -5   1 429.803 15.2036  -2
   6   5   6 429.803 15.2036   1
   6  -5   1 51.9890 6.33067  -2
   7   5   6 51.9890 6.33067   1
   7  -5   1 158.133 10.2028  -2
   8   5   6 158.133 10.2028   1
  -6   6   6 86.1809 9.44486   1
  -5   6   6 4.93840 5.15501   1
  -4   6   6 8.95984 4.86798   1
  -3   6   6 168.246 9.94214   1
  -2   6   6 12.9743 3.03553   1
   2   6   0 492.176 27.0996  -2
  -1   6   6 492.176 27.0996   1
  -1   6   6 72.4094 4.54819   1
   0   6   6 396.875 9.96518   1
   1   6   6 68.5400 3.88455   1
   2   6   6 605.550 14.2099   1
   3   6   6 14.2566 2.34318   1
   4   6   6 115.166 6.75717   1
   5   6   6 7.52937 3.48058   1
   6   6   6 16.7110 4.01946   1
   7   6   6 130.315 7.78448   1
   8   6   6 7.18978 4.31652   1
   7   7   1 100.361 13.9168  -2
  -5   7   6 100.361 13.9168   1
   6   7   1 206.530 15.2800  -2
  -4   7   6 206.530 15.2800   1
  -4   7   6 41.0518 10.3898   1
  -3   7   6 6.08641 8.39942   1
   5   7   1 24.5127 11.3449  -2
  -3   7   6 24.5127 11.3449   1
   4   7   1 329.949 13.7435  -2
  -2   7   6 329.949 13.7435   1
   3   7   1 181.781 7.44407  -2
  -1   7   6 181.781 7.44407   1
   2   7   1 71.3284 5.82361  -2
   0   7   6 71.3284 5.82361   1
   1   7   1 341.479 11.2595  -2
   1   7   6 341.479 11.2595   1
   0   7   1 44.0044 6.19119  -2
   2   7   6 44.0044 6.19119   1
  -1   7   1 602.958 19.9607  -2
   3   7   6 602.958 19.9607   1
  -2   7   1 57.6119 8.38423  -2
   4   7   6 57.6119 8.38423   1
  -3   7   1 36.5553 8.44635  -2
   5   7   6 36.5553 8.44635   1
  -4   7   1 262.658 12.8353  -2
   6   7   6 262.658 12.8353   1
  -5   7   1 40.3439 9.65112  -2
   7   7   6 40.3439 9.65112   1
   6   8   2 15.6056 9.60531  -2
  -4   8   6 15.6056 9.60531   1
   5   8   2 345.769 16.7483  -2
  -3   8   6 345.769 16.7483   1
   4   8   2 48.4644 8.32972  -2
  -2   8   6 48.4644 8.32972   1
   3   8   2 341.749 12.7967  -2
  -1   8   6 341.749 12.7967   1
   2   8   2 9.62157 4.11528  -2
   0   8   6 9.62157 4.11528   1
   1   8   2 6.58401 4.15594  -2
   1   8   6 6.58401 4.15594   1
   0   8   2 438.236 13.1285  -2
   2   8   6 438.236 13.1285   1
  -1   8   2 52.1060 6.70856  -2
   3   8   6 52.1060 6.70856   1
  -2   8   2 121.277 10.7783  -2
   4   8   6 121.277 10.7783   1
  -3   8   2 18.4657 8.44164  -2
   5   8   6 18.4657 8.44164   1
  -4   8   2 53.7076 13.7818  -2
   6   8   6 53.7076 13.7818   1
   5   9   3 11.1445 11.8974  -2
  -3   9   6 11.1445 11.8974   1
   4   9   3 412.819 20.3540  -2
  -2   9   6 412.819 20.3540   1
   3   9   3 50.5740 10.8624  -2
  -1   9   6 50.5740 10.8624   1
   2   9   3 176.734 10.9843  -2
   0   9   6 176.734 10.9843   1
   1   9   3 32.4332 6.79998  -2
   1   9   6 32.4332 6.79998   1
   0   9   3 -3.3553 10.3506  -2
   2   9   6 -3.3553 10.3506   1
  -1   9   3 280.573 13.2213  -2
   3   9   6 280.573 13.2213   1
  -2   9   3 23.2988 8.66353  -2
   4   9   6 23.2988 8.66353   1
  -3   9   3 186.311 11.8805  -2
   5   9   6 186.311 11.8805   1
  -1  10   6 99.1173 10.7672   1
   3  10   4 186.874 25.2506  -2
  -1  10   6 186.874 25.2506   1
   2  10   4 -5.0764 12.9609  -2
   0  10   6 -5.0764 12.9609   1
   2  10   6 221.432 11.1044   1
   3  10   6 8.34298 6.62389   1
   4  10   6 39.6632 7.86042   1
   2   8  15 18.6483 5.48391  -2
   0  -8   7 18.6483 5.48391   1
   3   8  15 40.3888 7.85053  -2
   1  -8   7 40.3888 7.85053   1
  -1   7  14 70.1348 8.33000  -2
  -3  -7   7 70.1348 8.33000   1
   0   7  14 99.4286 13.2426  -2
  -2  -7   7 99.4286 13.2426   1
   2   7  14 117.848 8.20709  -2
   0  -7   7 117.848 8.20709   1
   3   7  14 23.4587 6.76269  -2
   1  -7   7 23.4587 6.76269   1
   4   7  14 150.797 8.95462  -2
   2  -7   7 150.797 8.95462   1
   5   7  14 33.1897 7.01148  -2
   3  -7   7 33.1897 7.01148   1
   6   7  14 84.5126 10.7782  -2
   4  -7   7 84.5126 10.7782   1
  -5  -6   7 5.67017 4.16307   1
  -4  -6   7 73.7316 6.19309   1
  -3  -6   7 36.0469 4.52324   1
  -2  -6   7 81.0718 7.51089   1
  -1   6  13 79.5104 12.5330  -2
  -2  -6   7 79.5104 12.5330   1
   0   6  13 464.024 22.2843  -2
  -1  -6   7 464.024 22.2843   1
  -1  -6   7 260.278 12.3040   1
   0  -6   7 35.2874 4.22112   1
   1  -6   7 145.859 6.95657   1
   2  -6   7 19.5255 3.67378   1
   3  -6   7 84.6426 5.72403   1
   4  -6   7 22.2139 3.76710   1
   5  -6   7 17.1419 3.83157   1
   6  -6   7 134.448 13.2141   1
  -4   5  12 245.487 11.2857  -2
  -5  -5   7 245.487 11.2857   1
  -3   5  12 19.4176 6.80813  -2
  -4  -5   7 19.4176 6.80813   1
  -2   5  12 110.095 7.70178  -2
  -3  -5   7 110.095 7.70178   1
  -1   5  12 51.9962 6.34250  -2
  -2  -5   7 51.9962 6.34250   1
   0   5  12 26.4946 4.38038  -2
  -1  -5   7 26.4946 4.38038   1
   1   5  12 346.175 15.4151  -2
   0  -5   7 346.175 15.4151   1
   2   5  12 11.6408 5.67928  -2
   1  -5   7 11.6408 5.67928   1
   3   5  12 635.445 18.0799  -2
   2  -5   7 635.445 18.0799   1
   4   5  12 110.971 6.93112  -2
   3  -5   7 110.971 6.93112   1
   5   5  12 87.1664 6.80145  -2
   4  -5   7 87.1664 6.80145   1
   6   5  12 223.334 9.69399  -2
   5  -5   7 223.334 9.69399   1
   7   5  12 11.6083 6.63829  -2
   6  -5   7 11.6083 6.63829   1
  -5   4  11 110.647 7.11034  -2
  -6  -4   7 110.647 7.11034   1
  -4   4  11 44.1008 5.45672  -2
  -5  -4   7 44.1008 5.45672   1
  -3   4  11 255.283 9.45122  -2
  -4  -4   7 255.283 9.45122   1
  -2   4  11 45.4291 4.81889  -2
  -3  -4   7 45.4291 4.81889   1
  -1   4  11 549.076 12.4282  -2
  -2  -4   7 549.076 12.4282   1
   0   4  11 162.836 5.08819  -2
  -1  -4   7 162.836 5.08819   1
   1   4  11 52.7251 3.56824  -2
   0  -4   7 52.7251 3.56824   1
   2   4  11 258.964 8.50326  -2
   1  -4   7 258.964 8.50326   1
   3   4  11 86.5304 4.74979  -2
   2  -4   7 86.5304 4.74979   1
   4   4  11 458.911 13.3811  -2
   3  -4   7 458.911 13.3811   1
   5   4  11 87.1344 5.15542  -2
   4  -4   7 87.1344 5.15542   1
   6   4  11 76.4496 5.18868  -2
   5  -4   7 76.4496 5.18868   1
   7   4  11 124.053 6.51282  -2
   6  -4   7 124.053 6.51282   1
   8   4  11 18.5319 4.84393  -2
   7  -4   7 18.5319 4.84393   1
  -5   3  10 100.057 8.59451  -2
  -6  -3   7 100.057 8.59451   1
  -4   3  10 151.812 8.84236  -2
  -5  -3   7 151.812 8.84236   1
  -3   3  10 62.8676 6.86081  -2
  -4  -3   7 62.8676 6.86081   1
  -2   3  10 315.034 11.0446  -2
  -3  -3   7 315.034 11.0446   1
  -1   3  10 31.5677 3.73261  -2
  -2  -3   7 31.5677 3.73261   1
   0   3  10 1060.67 22.2510  -2
  -1  -3   7 1060.67 22.2510   1
   1   3  10 1351.36 27.8273  -2
   0  -3   7 1351.36 27.8273   1
   2   3  10 117.238 4.37425  -2
   1  -3   7 117.238 4.37425   1
   3   3  10 388.155 11.5605  -2
   2  -3   7 388.155 11.5605   1
   4   3  10 179.534 7.19711  -2
   3  -3   7 179.534 7.19711   1
   5   3  10 579.411 16.5683  -2
   4  -3   7 579.411 16.5683   1
   6   3  10 290.979 10.5130  -2
   5  -3   7 290.979 10.5130   1
   7   3  10 92.9385 6.81957  -2
   6  -3   7 92.9385 6.81957   1
   8   3  10 52.0251 12.5549  -2
   7  -3   7 52.0251 12.5549   1
  -7  -2   7 74.7887 6.35218   1
  -6  -2   7 101.538 6.43157   1
  -5  -2   7 3.55695 2.72253   1
  -4  -2   7 3.07801 2.53004   1
  -3  -2   7 132.205 4.39532   1
  -2  -2   7 620.027 13.4918   1
  -1  -2   7 95.4498 3.46093   1
   0  -2   7 314.999 7.35520   1
   1  -2   7 905.564 18.7659   1
   2  -2   7 3.47493 1.18683   1
   3  -2   7 223.203 7.14859   1
   4  -2   7 7.75582 2.30966   1
   5  -2   7 118.863 5.45020   1
   6  -2   7 144.651 6.19829   1
   7  -2   7 -1.3458 5.45668   1
   8  -2   7 209.548 11.1163   1
  -7  -1   7 22.6710 5.09237   1
  -7   1   8 60.0362 12.7684  -2
  -7  -1   7 60.0362 12.7684   1
  -6   1   8 104.474 8.13155  -2
  -6  -1   7 104.474 8.13155   1
  -5   1   8 122.659 7.85273  -2
  -5  -1   7 122.659 7.85273   1
  -4   1   8 31.6190 8.80915  -2
  -4  -1   7 31.6190 8.80915   1
  -4  -1   7 9.67038 2.94762   1
  -3   1   8 314.848 12.7493  -2
  -3  -1   7 314.848 12.7493   1
  -3  -1   7 98.7107 4.65435   1
  -2  -1   7 5.39298 3.10495   1
  -2   1   8 98.8658 4.84486  -2
  -2  -1   7 98.8658 4.84486   1
  -1   1   8 608.569 16.1636  -2
  -1  -1   7 608.569 16.1636   1
  -1  -1   7 403.047 15.5394   1
   0   1   8 296.261 8.89624  -2
   0  -1   7 296.261 8.89624   1
   0  -1   7 144.178 6.72526   1
   1  -1   7 174.034 5.25750   1
   2  -1   7 75.9288 2.64958   1
   3  -1   7 24.8918 1.77231   1
   4  -1   7 337.616 13.1195   1
   4   1   8 529.077 22.0550  -2
   4  -1   7 529.077 22.0550   1
   5  -1   7 152.843 7.39259   1
   5   1   8 298.144 15.6270  -2
   5  -1   7 298.144 15.6270   1
   6   1   8 1.30600 9.52181  -2
   6  -1   7 1.30600 9.52181   1
   6  -1   7 11.0199 2.86497   1
   7   1   8 141.716 13.1064  -2
   7  -1   7 141.716 13.1064   1
   8   1   8 -7.8560 10.8081  -2
   8  -1   7 -7.8560 10.8081   1
  -7   0   7 364.022 12.5127  -2
  -7   0   7 364.022 12.5127   1
  -6   0   7 10.0167 3.29107  -2
  -6   0   7 10.0167 3.29107   1
  -5   0   7 137.190 6.35172  -2
  -5   0   7 137.190 6.35172   1
  -4   0   7 96.2074 3.67408  -2
  -4   0   7 96.2074 3.67408   1
  -3   0   7 390.821 8.97489  -2
  -3   0   7 390.821 8.97489   1
  -2   0   7 1604.27 32.4948  -2
  -2   0   7 1604.27 32.4948   1
  -1   0   7 43.8804 2.21205  -2
  -1   0   7 43.8804 2.21205   1
   0   0   7 51.6730 2.23677  -2
   0   0   7 51.6730 2.23677   1
   1   0   7 119.571 3.38209  -2
   1   0   7 119.571 3.38209   1
   2   0   7 203.336 4.96914  -2
   2   0   7 203.336 4.96914   1
   3   0   7 1029.59 21.0775  -2
   3   0   7 1029.59 21.0775   1
   4   0   7 1432.72 29.0151  -2
   4   0   7 1432.72 29.0151   1
   5   0   7 380.014 10.8309  -2
   5   0   7 380.014 10.8309   1
   6   0   7 188.068 6.88676  -2
   6   0   7 188.068 6.88676   1
   7   0   7 13.6932 4.65029  -2
   7   0   7 13.6932 4.65029   1
   8   0   7 226.763 13.5274  -2
   8   0   7 226.763 13.5274   1
   9   0   7 67.4135 8.98319  -2
   9   0   7 67.4135 8.98319   1
  -7  -1   6 31.8221 12.4264  -2
  -7   1   7 31.8221 12.4264   1
  -6  -1   6 548.066 17.2079  -2
  -6   1   7 548.066 17.2079   1
  -5  -1   6 45.0017 8.64183  -2
  -5   1   7 45.0017 8.64183   1
  -4   1   7 196.765 10.4486   1
  -4  -1   6 406.732 11.7531  -2
  -4   1   7 406.732 11.7531   1
  -3  -1   6 512.003 20.3783  -2
  -3   1   7 512.003 20.3783   1
  -3   1   7 354.218 10.0829   1
  -2   1   7 7.13351 1.64209   1
  -2  -1   6 20.5447 5.70599  -2
  -2   1   7 20.5447 5.70599   1
  -1  -1   6 502.428 18.5723  -2
  -1   1   7 502.428 18.5723   1
  -1   1   7 248.910 10.3576   1
   0   1   7 12.2128 1.71735   1
   1   1   7 103.356 3.76029   1
   2   1   7 88.3327 3.38218   1
   2  -1   6 52.0435 5.70861  -2
   2   1   7 52.0435 5.70861   1
   3  -1   6 169.742 9.46289  -2
   3   1   7 169.742 9.46289   1
   3   1   7 21.7426 1.91499   1
   4  -1   6 1473.09 54.1739  -2
   4   1   7 1473.09 54.1739   1
   4   1   7 879.048 21.7171   1
   5  -1   6 916.791 28.0651  -2
   5   1   7 916.791 28.0651   1
   5   1   7 631.647 15.9220   1
   6  -1   6 154.550 9.78079  -2
   6   1   7 154.550 9.78079   1
   7  -1   6 242.035 12.3165  -2
   7   1   7 242.035 12.3165   1
   8  -1   6 -14.426 9.31970  -2
   8   1   7 -14.426 9.31970   1
  -7   2   7 128.591 11.3712   1
  -6   2   7 22.0269 3.90474   1
  -5   2   7 108.021 4.55181   1
  -4   2   7 56.6652 3.90541   1
  -3   2   7 49.2321 3.56667   1
  -2   2   7 133.737 4.94984   1
  -1   2   7 60.0321 3.20424   1
   0   2   7 708.125 17.8987   1
   1   2   7 885.426 22.0302   1
   2   2   7 22.0653 2.01702   1
   3   2   7 494.758 12.7876   1
   4   2   7 458.162 10.0083   1
   5   2   7 51.6421 2.25739   1
   6   2   7 17.4281 2.64099   1
   7   2   7 139.129 7.91012   1
   8   2   7 156.459 9.01868   1
   9   2   7 -2.8086 4.50685   1
  -5   3   7 68.3726 6.41247   1
  -6  -3   4 105.910 9.92061  -2
  -5   3   7 105.910 9.92061   1
  -5  -3   4 187.165 7.84991  -2
  -4   3   7 187.165 7.84991   1
  -3   3   7 136.704 7.74218   1
  -4  -3   4 242.740 12.0122  -2
  -3   3   7 242.740 12.0122   1
  -3  -3   4 237.880 7.12688  -2
  -2   3   7 237.880 7.12688   1
  -2  -3   4 263.078 8.34283  -2
  -1   3   7 263.078 8.34283   1
   0   3   7 626.908 23.1222   1
  -1  -3   4 1037.40 36.0203  -2
   0   3   7 1037.40 36.0203   1
   1   3   7 1673.42 40.6617   1
   2   3   7 639.204 16.2912   1
   3   3   7 126.940 4.37374   1
   3  -3   4 1127.13 41.5136  -2
   4   3   7 1127.13 41.5136   1
   4   3   7 668.652 16.9393   1
   4  -3   4 176.158 8.94118  -2
   5   3   7 176.158 8.94118   1
   5   3   7 150.603 7.77011   1
   5  -3   4 85.0175 7.96676  -2
   6   3   7 85.0175 7.96676   1
   6   3   7 66.9750 5.56554   1
   6  -3   4 67.5971 8.49715  -2
   7   3   7 67.5971 8.49715   1
   7   3   7 37.1655 6.47686   1
   7  -3   4 38.5804 9.66691  -2
   8   3   7 38.5804 9.66691   1
   8  -3   4 75.1899 14.8260  -2
   9   3   7 75.1899 14.8260   1
   9   3   7 41.7420 9.96102   1
  -6  -4   3 134.695 9.12872  -2
  -5   4   7 134.695 9.12872   1
  -5  -4   3 50.7263 4.21200  -2
  -4   4   7 50.7263 4.21200   1
  -4  -4   3 339.597 10.0269  -2
  -3   4   7 339.597 10.0269   1
  -3  -4   3 473.260 12.9208  -2
  -2   4   7 473.260 12.9208   1
  -2  -4   3 41.1342 3.42840  -2
  -1   4   7 41.1342 3.42840   1
  -1  -4   3 854.998 21.5812  -2
   0   4   7 854.998 21.5812   1
   0  -4   3 244.199 7.33505  -2
   1   4   7 244.199 7.33505   1
   1  -4   3 208.340 6.51528  -2
   2   4   7 208.340 6.51528   1
   2  -4   3 857.179 21.5587  -2
   3   4   7 857.179 21.5587   1
   3  -4   3 86.8921 5.17390  -2
   4   4   7 86.8921 5.17390   1
   4  -4   3 647.321 19.6996  -2
   5   4   7 647.321 19.6996   1
   5  -4   3 116.467 4.82909  -2
   6   4   7 116.467 4.82909   1
   6  -4   3 308.770 8.94864  -2
   7   4   7 308.770 8.94864   1
   7  -4   3 116.070 8.44792  -2
   8   4   7 116.070 8.44792   1
   8  -4   3 3.23877 9.28077  -2
   9   4   7 3.23877 9.28077   1
  -7  -5   2 40.6257 11.6383  -2
  -6   5   7 40.6257 11.6383   1
  -6  -5   2 37.0181 10.1849  -2
  -5   5   7 37.0181 10.1849   1
  -5  -5   2 325.398 16.0828  -2
  -4   5   7 325.398 16.0828   1
  -4  -5   2 177.838 7.73044  -2
  -3   5   7 177.838 7.73044   1
  -3  -5   2 129.995 6.54979  -2
  -2   5   7 129.995 6.54979   1
  -2  -5   2 1219.64 30.5660  -2
  -1   5   7 1219.64 30.5660   1
  -1  -5   2 134.306 5.55885  -2
   0   5   7 134.306 5.55885   1
   0  -5   2 470.701 11.6194  -2
   1   5   7 470.701 11.6194   1
   1  -5   2 287.065 8.03130  -2
   2   5   7 287.065 8.03130   1
   2  -5   2 155.899 5.62899  -2
   3   5   7 155.899 5.62899   1
   3  -5   2 521.772 16.9972  -2
   4   5   7 521.772 16.9972   1
   4  -5   2 56.5663 7.16752  -2
   5   5   7 56.5663 7.16752   1
   5  -5   2 416.591 14.9279  -2
   6   5   7 416.591 14.9279   1
   6  -5   2 111.213 8.69901  -2
   7   5   7 111.213 8.69901   1
   7  -5   2 53.9205 16.6827  -2
   8   5   7 53.9205 16.6827   1
  -6   6   7 -9.7763 5.44090   1
  -5   6   7 31.9831 6.40246   1
  -4   6   7 14.3356 5.23248   1
  -3   6   7 52.2950 4.53525   1
  -2   6   7 184.540 6.94810   1
  -3  -6   1 247.834 19.7893  -2
  -2   6   7 247.834 19.7893   1
  -1   6   7 8.38964 2.96052   1
  -2  -6   1 123.766 14.4757  -2
  -1   6   7 123.766 14.4757   1
   0   6   7 511.155 12.4511   1
   1   6   7 9.39391 2.68983   1
   2   6   7 335.969 8.89010   1
   3   6   7 44.7618 3.13067   1
   4   6   7 79.9799 6.03251   1
   5   6   7 155.165 7.91188   1
   6   6   7 42.4236 4.97154   1
   7   6   7 117.391 7.49885   1
   8   6   7 25.7652 4.79306   1
   7   7   0 -4.1779 13.5062  -2
  -5   7   7 -4.1779 13.5062   1
   6   7   0 509.105 23.8914  -2
  -4   7   7 509.105 23.8914   1
   5   7   0 37.0742 11.5471  -2
  -3   7   7 37.0742 11.5471   1
   4   7   0 26.2217 8.67010  -2
  -2   7   7 26.2217 8.67010   1
  -2   7   7 19.3956 4.84063   1
   3   7   0 261.715 8.94231  -2
  -1   7   7 261.715 8.94231   1
   2   7   0 21.2800 5.62665  -2
   0   7   7 21.2800 5.62665   1
   1   7   0 406.759 11.3666  -2
   1   7   7 406.759 11.3666   1
   0   7   0 38.9862 6.41536  -2
   2   7   7 38.9862 6.41536   1
  -1   7   0 408.501 15.3221  -2
   3   7   7 408.501 15.3221   1
  -2   7   0 461.788 16.7123  -2
   4   7   7 461.788 16.7123   1
  -3   7   0 58.0517 9.14432  -2
   5   7   7 58.0517 9.14432   1
  -4   7   0 130.253 10.2756  -2
   6   7   7 130.253 10.2756   1
  -5   7   0 48.7064 9.57793  -2
   7   7   7 48.7064 9.57793   1
   6   8   1 7.88587 9.93339  -2
  -4   8   7 7.88587 9.93339   1
   5   8   1 501.522 21.5485  -2
  -3   8   7 501.522 21.5485   1
   4   8   1 10.1451 7.47994  -2
  -2   8   7 10.1451 7.47994   1
   3   8   1 6.79704 4.23160  -2
  -1   8   7 6.79704 4.23160   1
   2   8   1 49.6583 5.12806  -2
   0   8   7 49.6583 5.12806   1
   1   8   1 26.9777 4.73184  -2
   1   8   7 26.9777 4.73184   1
   0   8   1 493.547 14.3972  -2
   2   8   7 493.547 14.3972   1
  -1   8   1 379.511 17.6046  -2
   3   8   7 379.511 17.6046   1
  -2   8   1 9.47540 8.79430  -2
   4   8   7 9.47540 8.79430   1
  -3   8   1 158.248 9.56952  -2
   5   8   7 158.248 9.56952   1
  -4   8   1 9.74091 9.16192  -2
   6   8   7 9.74091 9.16192   1
   5   9   2 8.72712 11.9439  -2
  -3   9   7 8.72712 11.9439   1
   4   9   2 304.419 17.4711  -2
  -2   9   7 304.419 17.4711   1
   3   9   2 38.3828 9.22149  -2
  -1   9   7 38.3828 9.22149   1
   2   9   2 72.1298 7.31468  -2
   0   9   7 72.1298 7.31468   1
   1   9   2 64.5783 6.78748  -2
   1   9   7 64.5783 6.78748   1
   0   9   2 -0.9368 10.5361  -2
   2   9   7 -0.9368 10.5361   1
  -1   9   2 142.077 11.0095  -2
   3   9   7 142.077 11.0095   1
  -2   9   2 63.4857 9.73349  -2
   4   9   7 63.4857 9.73349   1
  -3   9   2 28.7308 9.71120  -2
   5   9   7 28.7308 9.71120   1
  -1  10   7 55.3336 8.73050   1
   2  10   3 61.7980 11.9447  -2
   0  10   7 61.7980 11.9447   1
   1  10   7 6.65325 6.36161   1
   2  10   7 104.194 9.02898   1
   3  10   7 5.62048 5.36542   1
   4  10   7 1.59752 6.99487   1
   2   8  16 11.0341 9.30287  -2
   0  -8   8 11.0341 9.30287   1
   2   7  15 259.102 11.0818  -2
   0  -7   8 259.102 11.0818   1
   3   7  15 42.7560 7.40873  -2
   1  -7   8 42.7560 7.40873   1
   4   7  15 148.943 9.23845  -2
   2  -7   8 148.943 9.23845   1
   5   7  15 223.726 14.5578  -2
   3  -7   8 223.726 14.5578   1
  -4  -6   8 3.34626 4.19419   1
  -3  -6   8 38.2053 4.65209   1
  -2  -6   8 2.42097 3.48709   1
  -1  -6   8 198.453 10.9258   1
   0  -6   8 14.4602 3.91569   1
   1  -6   8 157.008 7.29410   1
   2  -6   8 99.6442 6.09712   1
   4   6  14 75.4995 10.9206  -2
   3  -6   8 75.4995 10.9206   1
   3  -6   8 34.4437 6.38774   1
   4  -6   8 48.3535 4.64427   1
   5  -6   8 8.65798 3.72837   1
  -3   5  13 79.3940 7.99806  -2
  -4  -5   8 79.3940 7.99806   1
  -2   5  13 36.6770 7.05513  -2
  -3  -5   8 36.6770 7.05513   1
  -1   5  13 194.010 8.99466  -2
  -2  -5   8 194.010 8.99466   1
   0   5  13 10.2824 4.45255  -2
  -1  -5   8 10.2824 4.45255   1
   1   5  13 437.192 18.2246  -2
   0  -5   8 437.192 18.2246   1
   2   5  13 96.8889 6.87087  -2
   1  -5   8 96.8889 6.87087   1
   3   5  13 261.052 10.0246  -2
   2  -5   8 261.052 10.0246   1
   4   5  13 140.736 7.75534  -2
   3  -5   8 140.736 7.75534   1
   5   5  13 77.2795 6.78999  -2
   4  -5   8 77.2795 6.78999   1
   6   5  13 162.170 8.57849  -2
   5  -5   8 162.170 8.57849   1
   7   5  13 127.893 8.70007  -2
   6  -5   8 127.893 8.70007   1
  -4   4  12 25.8420 5.41017  -2
  -5  -4   8 25.8420 5.41017   1
  -3   4  12 187.002 8.07372  -2
  -4  -4   8 187.002 8.07372   1
  -2   4  12 23.9585 4.68615  -2
  -3  -4   8 23.9585 4.68615   1
  -1   4  12 209.258 6.15603  -2
  -2  -4   8 209.258 6.15603   1
   0   4  12 664.708 14.7155  -2
  -1  -4   8 664.708 14.7155   1
   1   4  12 20.3143 2.92982  -2
   0  -4   8 20.3143 2.92982   1
   2   4  12 113.879 5.56882  -2
   1  -4   8 113.879 5.56882   1
   3   4  12 212.129 7.61888  -2
   2  -4   8 212.129 7.61888   1
   4   4  12 195.993 7.58006  -2
   3  -4   8 195.993 7.58006   1
   5   4  12 298.409 9.93475  -2
   4  -4   8 298.409 9.93475   1
   6   4  12 35.6307 4.62564  -2
   5  -4   8 35.6307 4.62564   1
   7   4  12 315.952 10.8754  -2
   6  -4   8 315.952 10.8754   1
   8   4  12 60.3638 7.14562  -2
   7  -4   8 60.3638 7.14562   1
  -5   3  11 12.3525 8.02315  -2
  -6  -3   8 12.3525 8.02315   1
  -4   3  11 356.021 18.3549  -2
  -5  -3   8 356.021 18.3549   1
  -5  -3   8 203.399 12.5297   1
  -3   3  11 47.8192 6.65346  -2
  -4  -3   8 47.8192 6.65346   1
  -3  -3   8 189.647 10.3692   1
  -2   3  11 311.001 16.2391  -2
  -3  -3   8 311.001 16.2391   1
  -1   3  11 75.7466 4.51481  -2
  -2  -3   8 75.7466 4.51481   1
   0   3  11 145.886 6.47378  -2
  -1  -3   8 145.886 6.47378   1
   1   3  11 199.709 7.30294  -2
   0  -3   8 199.709 7.30294   1
   2   3  11 20.2194 4.71788  -2
   1  -3   8 20.2194 4.71788   1
   1  -3   8 7.81376 2.36776   1
   3   3  11 124.330 6.26310  -2
   2  -3   8 124.330 6.26310   1
   3  -3   8 143.641 8.03250   1
   4   3  11 136.127 9.76229  -2
   3  -3   8 136.127 9.76229   1
   5   3  11 202.677 8.47892  -2
   4  -3   8 202.677 8.47892   1
   6   3  11 974.533 26.2594  -2
   5  -3   8 974.533 26.2594   1
   7   3  11 11.9897 5.91832  -2
   6  -3   8 11.9897 5.91832   1
   8   3  11 28.0082 12.2453  -2
   7  -3   8 28.0082 12.2453   1
  -7  -2   8 25.7923 6.16585   1
  -6  -2   8 91.7467 6.46736   1
  -5  -2   8 3.90012 2.86234   1
  -4  -2   8 143.925 6.58547   1
  -3  -2   8 2.92846 1.69634   1
  -2  -2   8 386.357 9.13526   1
  -1  -2   8 646.495 14.0568   1
   0  -2   8 148.554 4.44931   1
   1  -2   8 7.53007 1.51630   1
   2  -2   8 29.6620 2.05726   1
   3  -2   8 71.4327 4.02236   1
   4  -2   8 189.301 6.84371   1
   5  -2   8 4.47597 2.54676   1
   6  -2   8 196.937 7.54654   1
   7  -2   8 1.89815 5.56825   1
   8  -2   8 37.0311 7.39067   1
  -6   1   9 31.2946 7.26124  -2
  -6  -1   8 31.2946 7.26124   1
  -5  -1   8 100.385 7.99746   1
  -5   1   9 176.608 13.0513  -2
  -5  -1   8 176.608 13.0513   1
  -4   1   9 50.4277 6.12799  -2
  -4  -1   8 50.4277 6.12799   1
  -3   1   9 369.834 11.2334  -2
  -3  -1   8 369.834 11.2334   1
  -3  -1   8 134.340 7.75821   1
  -2   1   9 347.353 10.5619  -2
  -2  -1   8 347.353 10.5619   1
  -2  -1   8 145.488 7.70049   1
  -1   1   9 94.1954 4.31507  -2
  -1  -1   8 94.1954 4.31507   1
   0  -1   8 1274.84 43.9077   1
   0   1   9 1839.54 46.2690  -2
   0  -1   8 1839.54 46.2690   1
   1  -1   8 5.80433 1.47648   1
   2  -1   8 977.648 20.1997   1
   3  -1   8 45.5920 3.25713   1
   4  -1   8 55.2796 4.47810   1
   4   1   9 63.8574 9.11829  -2
   4  -1   8 63.8574 9.11829   1
   5  -1   8 235.869 10.3199   1
   5   1   9 546.896 23.7913  -2
   5  -1   8 546.896 23.7913   1
   6  -1   8 87.3558 5.83441   1
   6   1   9 91.1078 11.2216  -2
   6  -1   8 91.1078 11.2216   1
   7   1   9 113.843 12.9859  -2
   7  -1   8 113.843 12.9859   1
   8   1   9 34.2768 12.2657  -2
   8  -1   8 34.2768 12.2657   1
  -7   0   8 107.187 7.56415  -2
  -7   0   8 107.187 7.56415   1
  -6   0   8 102.545 6.35929  -2
  -6   0   8 102.545 6.35929   1
  -5   0   8 61.9859 4.71634  -2
  -5   0   8 61.9859 4.71634   1
  -4   0   8 25.5625 2.35017  -2
  -4   0   8 25.5625 2.35017   1
  -3   0   8 21.6873 2.12826  -2
  -3   0   8 21.6873 2.12826   1
  -2   0   8 805.654 17.0574  -2
  -2   0   8 805.654 17.0574   1
  -1   0   8 552.996 11.9985  -2
  -1   0   8 552.996 11.9985   1
   0   0   8 336.082 7.67599  -2
   0   0   8 336.082 7.67599   1
   1   0   8 1774.03 35.7404  -2
   1   0   8 1774.03 35.7404   1
   2   0   8 87.6595 3.00393  -2
   2   0   8 87.6595 3.00393   1
   3   0   8 1938.90 39.0033  -2
   3   0   8 1938.90 39.0033   1
   4   0   8 187.036 6.34933  -2
   4   0   8 187.036 6.34933   1
   5   0   8 24.9821 2.83299  -2
   5   0   8 24.9821 2.83299   1
   6   0   8 180.103 6.68004  -2
   6   0   8 180.103 6.68004   1
   7   0   8 39.9993 6.62978  -2
   7   0   8 39.9993 6.62978   1
   8   0   8 516.827 23.2285  -2
   8   0   8 516.827 23.2285   1
  -7  -1   7 52.3985 9.17604  -2
  -7   1   8 52.3985 9.17604   1
  -6  -1   7 97.0884 8.73562  -2
  -6   1   8 97.0884 8.73562   1
  -5   1   8 72.3747 8.01745   1
  -5  -1   7 131.618 11.2757  -2
  -5   1   8 131.618 11.2757   1
  -4  -1   7 30.8830 5.90684  -2
  -4   1   8 30.8830 5.90684   1
  -4   1   8 9.81885 2.93379   1
  -3  -1   7 314.667 14.6224  -2
  -3   1   8 314.667 14.6224   1
  -3   1   8 230.907 7.34500   1
  -2   1   8 100.931 4.27646   1
  -2  -1   7 117.610 8.46940  -2
  -2   1   8 117.610 8.46940   1
  -1  -1   7 574.812 15.2196  -2
  -1   1   8 574.812 15.2196   1
   0   1   8 262.233 7.61641   1
   0  -1   7 272.823 11.4062  -2
   0   1   8 272.823 11.4062   1
   1   1   8 11.7808 1.39223   1
   2   1   8 326.291 8.96169   1
   2  -1   7 291.638 12.6126  -2
   2   1   8 291.638 12.6126   1
   3  -1   7 35.6184 6.73405  -2
   3   1   8 35.6184 6.73405   1
   3   1   8 17.8706 2.01840   1
   4  -1   7 498.327 21.1195  -2
   4   1   8 498.327 21.1195   1
   4   1   8 188.467 5.73988   1
   5   1   8 166.122 7.43740   1
   5  -1   7 288.881 15.0276  -2
   5   1   8 288.881 15.0276   1
   6  -1   7 5.40787 9.92523  -2
   6   1   8 5.40787 9.92523   1
   7  -1   7 126.878 12.6061  -2
   7   1   8 126.878 12.6061   1
   8  -1   7 3.05963 11.5446  -2
   8   1   8 3.05963 11.5446   1
  -7   2   8 78.8066 12.8190   1
  -6   2   8 41.0748 4.75802   1
  -5   2   8 -1.4640 2.57841   1
  -4   2   8 76.2798 4.60596   1
  -3   2   8 4.62090 2.18949   1
  -2   2   8 767.437 19.7172   1
  -1   2   8 26.1411 2.55764   1
   0   2   8 70.8401 3.46245   1
   1   2   8 491.101 12.9141   1
   2   2   8 43.3888 2.71846   1
   3   2   8 355.842 9.72926   1
   4   2   8 277.960 6.68258   1
   5   2   8 132.360 4.01242   1
   6   2   8 159.418 9.97021   1
   7   2   8 36.5040 6.28844   1
   8   2   8 89.1923 7.35742   1
   9   2   8 -5.7360 4.47944   1
  -6  -3   5 512.547 22.0443  -2
  -5   3   8 512.547 22.0443   1
  -5  -3   5 14.6367 5.60278  -2
  -4   3   8 14.6367 5.60278   1
  -4  -3   5 551.251 15.4201  -2
  -3   3   8 551.251 15.4201   1
  -3  -3   5 112.826 8.73200  -2
  -2   3   8 112.826 8.73200   1
  -2   3   8 107.659 6.58511   1
  -2  -3   5 474.202 13.2451  -2
  -1   3   8 474.202 13.2451   1
   0   3   8 95.2872 5.98111   1
  -1  -3   5 209.191 10.1449  -2
   0   3   8 209.191 10.1449   1
   1   3   8 241.377 7.27273   1
   2   3   8 265.551 7.74602   1
   3   3   8 64.1180 3.34836   1
   2  -3   5 81.4499 6.77567  -2
   3   3   8 81.4499 6.77567   1
   4   3   8 436.895 11.7039   1
   5   3   8 517.660 19.9006   1
   4  -3   5 833.196 25.5514  -2
   5   3   8 833.196 25.5514   1
   5  -3   5 80.1017 8.29756  -2
   6   3   8 80.1017 8.29756   1
   6   3   8 70.3466 5.79517   1
   6  -3   5 324.433 13.7874  -2
   7   3   8 324.433 13.7874   1
   7  -3   5 37.4784 9.78511  -2
   8   3   8 37.4784 9.78511   1
   9   3   8 49.9383 10.8692   1
   8  -3   5 55.4111 13.9400  -2
   9   3   8 55.4111 13.9400   1
  -6  -4   4 56.5386 7.20534  -2
  -5   4   8 56.5386 7.20534   1
  -5  -4   4 193.572 7.21451  -2
  -4   4   8 193.572 7.21451   1
  -4  -4   4 32.0526 3.80463  -2
  -3   4   8 32.0526 3.80463   1
  -3  -4   4 693.986 18.2054  -2
  -2   4   8 693.986 18.2054   1
  -2  -4   4 8.30446 3.14206  -2
  -1   4   8 8.30446 3.14206   1
  -1  -4   4 391.286 10.9245  -2
   0   4   8 391.286 10.9245   1
   0  -4   4 443.049 12.0121  -2
   1   4   8 443.049 12.0121   1
   1  -4   4 24.7903 3.09037  -2
   2   4   8 24.7903 3.09037   1
   2  -4   4 1011.75 25.3577  -2
   3   4   8 1011.75 25.3577   1
   3  -4   4 54.6850 3.55051  -2
   4   4   8 54.6850 3.55051   1
   4  -4   4 103.053 6.04923  -2
   5   4   8 103.053 6.04923   1
   5  -4   4 68.7412 5.45875  -2
   6   4   8 68.7412 5.45875   1
   6  -4   4 23.9711 3.87989  -2
   7   4   8 23.9711 3.87989   1
   7  -4   4 180.644 9.71592  -2
   8   4   8 180.644 9.71592   1
   8  -4   4 -5.3479 9.36838  -2
   9   4   8 -5.3479 9.36838   1
  -6  -5   3 -0.1249 10.2294  -2
  -5   5   8 -0.1249 10.2294   1
  -5  -5   3 64.4361 6.84323  -2
  -4   5   8 64.4361 6.84323   1
  -4  -5   3 242.759 9.27544  -2
  -3   5   8 242.759 9.27544   1
  -3  -5   3 12.9156 5.35566  -2
  -2   5   8 12.9156 5.35566   1
  -2  -5   3 521.251 14.6823  -2
  -1   5   8 521.251 14.6823   1
  -1  -5   3 207.726 6.93205  -2
   0   5   8 207.726 6.93205   1
   0  -5   3 466.031 13.1754  -2
   1   5   8 466.031 13.1754   1
   1  -5   3 85.1108 4.89002  -2
   2   5   8 85.1108 4.89002   1
   2  -5   3 120.994 5.36178  -2
   3   5   8 120.994 5.36178   1
   3  -5   3 1092.58 32.0823  -2
   4   5   8 1092.58 32.0823   1
   4  -5   3 317.463 12.5144  -2
   5   5   8 317.463 12.5144   1
   5  -5   3 19.5509 7.05736  -2
   6   5   8 19.5509 7.05736   1
   6  -5   3 133.494 9.16770  -2
   7   5   8 133.494 9.16770   1
  -6   6   8 -3.7470 5.84856   1
  -5   6   8 43.0780 7.23784   1
  -4   6   8 -0.5969 4.88990   1
  -3   6   8 71.8342 5.32200   1
  -3  -6   2 357.773 23.5694  -2
  -2   6   8 357.773 23.5694   1
  -2   6   8 232.034 8.13246   1
  -2  -6   2 47.1249 13.1999  -2
  -1   6   8 47.1249 13.1999   1
  -1   6   8 69.1800 4.79536   1
   0   6   8 256.850 8.46794   1
  -1  -6   2 442.238 25.2551  -2
   0   6   8 442.238 25.2551   1
   1   6   8 92.5198 4.98147   1
   2   6   8 9.02721 2.41237   1
   3   6   8 136.652 5.65182   1
   4   6   8 9.74330 3.73272   1
   5   6   8 60.3332 5.42340   1
   6   6   8 102.748 7.26162   1
   7   6   8 18.5934 4.21572   1
   8   6   8 224.168 10.6809   1
  -6  -7   1 87.3465 13.8888  -2
  -4   7   8 87.3465 13.8888   1
  -5  -7   1 290.287 17.4517  -2
  -3   7   8 290.287 17.4517   1
  -4  -7   1 9.17850 8.72488  -2
  -2   7   8 9.17850 8.72488   1
  -3  -7   1 194.914 8.21438  -2
  -1   7   8 194.914 8.21438   1
  -2  -7   1 234.607 8.62813  -2
   0   7   8 234.607 8.62813   1
  -1  -7   1 224.246 8.26434  -2
   1   7   8 224.246 8.26434   1
   0  -7   1 190.562 8.69712  -2
   2   7   8 190.562 8.69712   1
   1  -7   1 11.7054 7.76088  -2
   3   7   8 11.7054 7.76088   1
   2  -7   1 550.924 19.0513  -2
   4   7   8 550.924 19.0513   1
   3  -7   1 18.0314 8.77435  -2
   5   7   8 18.0314 8.77435   1
   4  -7   1 1.56176 10.9584  -2
   6   7   8 1.56176 10.9584   1
   6   7   8 16.8661 7.90272   1
   5  -7   1 187.113 12.0915  -2
   7   7   8 187.113 12.0915   1
   6   8   0 12.9807 10.4427  -2
  -4   8   8 12.9807 10.4427   1
   5   8   0 35.6800 10.0191  -2
  -3   8   8 35.6800 10.0191   1
   4   8   0 262.231 14.3099  -2
  -2   8   8 262.231 14.3099   1
   3   8   0 18.7123 4.79161  -2
  -1   8   8 18.7123 4.79161   1
   2   8   0 157.037 7.15189  -2
   0   8   8 157.037 7.15189   1
   1   8   0 69.9262 5.73607  -2
   1   8   8 69.9262 5.73607   1
   0   8   0 138.064 6.33569  -2
   2   8   8 138.064 6.33569   1
  -1   8   0 551.015 18.5899  -2
   3   8   8 551.015 18.5899   1
  -2   8   0 31.8956 7.17564  -2
   4   8   8 31.8956 7.17564   1
  -3   8   0 190.692 10.3813  -2
   5   8   8 190.692 10.3813   1
  -4   8   0 13.5762 7.50957  -2
   6   8   8 13.5762 7.50957   1
   4   9   1 -6.5333 11.3837  -2
  -2   9   8 -6.5333 11.3837   1
   3   9   1 122.932 12.9546  -2
  -1   9   8 122.932 12.9546   1
   2   9   1 29.1235 6.57332  -2
   0   9   8 29.1235 6.57332   1
   1   9   1 121.318 8.28935  -2
   1   9   8 121.318 8.28935   1
   0   9   1 73.3090 11.2215  -2
   2   9   8 73.3090 11.2215   1
  -1   9   1 31.4705 9.48190  -2
   3   9   8 31.4705 9.48190   1
  -2   9   1 349.120 15.2122  -2
   4   9   8 349.120 15.2122   1
  -3   9   1 48.7143 9.72790  -2
   5   9   8 48.7143 9.72790   1
   3  10   2 14.9639 15.2011  -2
  -1  10   8 14.9639 15.2011   1
   2  10   2 124.062 22.4633  -2
   0  10   8 124.062 22.4633   1
   0  10   8 88.2263 9.88627   1
   1  10   8 -1.4433 6.25246   1
   2  10   8 51.9742 6.45747   1
   3  10   8 48.8426 8.59888   1
   4  10   8 5.42894 7.33137   1
   2   7  16 83.0998 8.43469  -2
   0  -7   9 83.0998 8.43469   1
   3   7  16 120.611 8.76627  -2
   1  -7   9 120.611 8.76627   1
  -3  -6   9 40.8004 4.98612   1
  -2  -6   9 5.63265 3.64150   1
  -1  -6   9 98.4707 9.72339   1
   0  -6   9 33.2792 6.09455   1
   1  -6   9 8.66540 3.70193   1
   2  -6   9 87.2009 6.16213   1
   3  -6   9 13.1672 3.85248   1
   4  -6   9 13.1385 3.74945   1
  -3   5  14 354.612 13.5433  -2
  -4  -5   9 354.612 13.5433   1
  -2   5  14 4.97793 6.93413  -2
  -3  -5   9 4.97793 6.93413   1
  -1   5  14 28.3735 6.62466  -2
  -2  -5   9 28.3735 6.62466   1
   0   5  14 10.7971 4.54980  -2
  -1  -5   9 10.7971 4.54980   1
   1   5  14 236.383 12.4875  -2
   0  -5   9 236.383 12.4875   1
   2   5  14 605.511 17.6382  -2
   1  -5   9 605.511 17.6382   1
   3   5  14 58.3620 6.58034  -2
   2  -5   9 58.3620 6.58034   1
   4   5  14 314.466 11.5119  -2
   3  -5   9 314.466 11.5119   1
   5   5  14 25.2951 6.35205  -2
   4  -5   9 25.2951 6.35205   1
   6   5  14 27.4119 6.62971  -2
   5  -5   9 27.4119 6.62971   1
  -4   4  13 18.8741 5.36180  -2
  -5  -4   9 18.8741 5.36180   1
  -3   4  13 14.3718 4.99810  -2
  -4  -4   9 14.3718 4.99810   1
  -2   4  13 204.925 8.42678  -2
  -3  -4   9 204.925 8.42678   1
  -1   4  13 35.1728 3.24288  -2
  -2  -4   9 35.1728 3.24288   1
   0   4  13 329.906 8.48912  -2
  -1  -4   9 329.906 8.48912   1
   1   4  13 102.068 6.99412  -2
   0  -4   9 102.068 6.99412   1
   2   4  13 44.4208 4.40513  -2
   1  -4   9 44.4208 4.40513   1
   3   4  13 436.820 12.9722  -2
   2  -4   9 436.820 12.9722   1
   4   4  13 18.2637 4.19222  -2
   3  -4   9 18.2637 4.19222   1
   5   4  13 366.689 11.7443  -2
   4  -4   9 366.689 11.7443   1
   6   4  13 37.2348 4.98242  -2
   5  -4   9 37.2348 4.98242   1
   7   4  13 17.2878 4.70442  -2
   6  -4   9 17.2878 4.70442   1
   8   4  13 193.457 11.1201  -2
   7  -4   9 193.457 11.1201   1
  -6  -3   9 10.0365 7.14061   1
  -5  -3   9 61.8383 7.93405   1
  -4   3  12 162.050 13.5330  -2
  -5  -3   9 162.050 13.5330   1
  -3   3  12 49.6075 7.09146  -2
  -4  -3   9 49.6075 7.09146   1
  -2   3  12 186.266 12.9588  -2
  -3  -3   9 186.266 12.9588   1
  -1   3  12 407.154 10.2243  -2
  -2  -3   9 407.154 10.2243   1
   0   3  12 217.668 6.71481  -2
  -1  -3   9 217.668 6.71481   1
   1   3  12 290.933 9.43926  -2
   0  -3   9 290.933 9.43926   1
   2   3  12 89.5897 5.97795  -2
   1  -3   9 89.5897 5.97795   1
   1  -3   9 68.3763 4.93034   1
   3   3  12 8.16740 4.85377  -2
   2  -3   9 8.16740 4.85377   1
   4   3  12 361.632 11.6675  -2
   3  -3   9 361.632 11.6675   1
   5   3  12 70.5188 6.15306  -2
   4  -3   9 70.5188 6.15306   1
   6   3  12 734.328 20.7832  -2
   5  -3   9 734.328 20.7832   1
   7   3  12 165.700 8.86915  -2
   6  -3   9 165.700 8.86915   1
  -6  -2   9 38.9681 4.77040   1
  -5  -2   9 2.15602 3.10160   1
  -4  -2   9 24.8536 3.57606   1
  -3  -2   9 74.1754 3.73986   1
  -2  -2   9 75.4429 3.61269   1
  -1  -2   9 452.424 10.4667   1
   0  -2   9 121.101 4.18168   1
   1  -2   9 23.3401 2.07907   1
   2  -2   9 139.469 5.60081   1
   3  -2   9 39.8361 3.42902   1
   4  -2   9 202.482 7.29403   1
   5  -2   9 2.92572 2.40611   1
   6  -2   9 208.758 7.98810   1
   7  -2   9 231.734 10.2442   1
   8  -2   9 -10.060 6.24909   1
  -6   1  10 37.2567 7.66402  -2
  -6  -1   9 37.2567 7.66402   1
  -5   1  10 268.810 11.0577  -2
  -5  -1   9 268.810 11.0577   1
  -4   1  10 291.161 10.8281  -2
  -4  -1   9 291.161 10.8281   1
  -3   1  10 19.9321 4.46352  -2
  -3  -1   9 19.9321 4.46352   1
  -3  -1   9 7.67949 3.32647   1
  -2   1  10 323.638 10.3160  -2
  -2  -1   9 323.638 10.3160   1
  -2  -1   9 226.860 10.6804   1
  -1   1  10 376.767 9.29834  -2
  -1  -1   9 376.767 9.29834   1
   0   1  10 39.3980 4.40973  -2
   0  -1   9 39.3980 4.40973   1
   0  -1   9 40.1820 4.25465   1
   1  -1   9 16.0656 2.01903   1
   2   1  10 321.164 9.90253  -2
   2  -1   9 321.164 9.90253   1
   2  -1   9 292.290 11.6895   1
   3   1  10 616.790 24.8572  -2
   3  -1   9 616.790 24.8572   1
   3  -1   9 218.230 9.65215   1
   4   1  10 16.8961 7.56104  -2
   4  -1   9 16.8961 7.56104   1
   4  -1   9 19.0768 3.57308   1
   5  -1   9 177.925 8.69404   1
   5   1  10 474.144 21.3974  -2
   5  -1   9 474.144 21.3974   1
   6   1  10 314.024 17.1873  -2
   6  -1   9 314.024 17.1873   1
   6  -1   9 91.2915 6.41643   1
   7   1  10 -1.9978 11.2358  -2
   7  -1   9 -1.9978 11.2358   1
   8   1  10 188.626 15.9946  -2
   8  -1   9 188.626 15.9946   1
  -7   0   9 4.18609 4.02877  -2
  -7   0   9 4.18609 4.02877   1
  -6   0   9 106.182 7.02326  -2
  -6   0   9 106.182 7.02326   1
  -5   0   9 16.8428 3.56964  -2
  -5   0   9 16.8428 3.56964   1
  -4   0   9 553.864 12.8837  -2
  -4   0   9 553.864 12.8837   1
  -3   0   9 404.172 9.60688  -2
  -3   0   9 404.172 9.60688   1
  -2   0   9 17.6215 2.08469  -2
  -2   0   9 17.6215 2.08469   1
  -1   0   9 1292.25 26.5981  -2
  -1   0   9 1292.25 26.5981   1
   0   0   9 1665.45 33.7773  -2
   0   0   9 1665.45 33.7773   1
   1   0   9 196.076 5.17368  -2
   1   0   9 196.076 5.17368   1
   2   0   9 567.291 12.3170  -2
   2   0   9 567.291 12.3170   1
   3   0   9 927.944 19.3763  -2
   3   0   9 927.944 19.3763   1
   4   0   9 321.979 9.59967  -2
   4   0   9 321.979 9.59967   1
   5   0   9 46.2217 3.68029  -2
   5   0   9 46.2217 3.68029   1
   6   0   9 64.2892 3.93718  -2
   6   0   9 64.2892 3.93718   1
   7   0   9 56.9114 7.94087  -2
   7   0   9 56.9114 7.94087   1
   8   0   9 7.66240 5.42487  -2
   8   0   9 7.66240 5.42487   1
  -7  -1   8 41.1370 9.15789  -2
  -7   1   9 41.1370 9.15789   1
  -6  -1   8 34.9696 8.20154  -2
  -6   1   9 34.9696 8.20154   1
  -5  -1   8 218.035 14.0579  -2
  -5   1   9 218.035 14.0579   1
  -5   1   9 132.428 9.59921   1
  -4  -1   8 36.8766 4.44111  -2
  -4   1   9 36.8766 4.44111   1
  -3   1   9 253.934 11.8982   1
  -3  -1   8 379.460 11.5002  -2
  -3   1   9 379.460 11.5002   1
  -2   1   9 238.428 7.52859   1
  -2  -1   8 358.526 15.7424  -2
  -2   1   9 358.526 15.7424   1
  -1  -1   8 82.7552 3.93567  -2
  -1   1   9 82.7552 3.93567   1
   0  -1   8 1702.58 42.8308  -2
   0   1   9 1702.58 42.8308   1
   0   1   9 788.924 28.1124   1
   1   1   9 50.3607 3.03516   1
   1  -1   8 45.1768 5.24851  -2
   1   1   9 45.1768 5.24851   1
   2   1   9 1012.71 25.2548   1
   2  -1   8 1791.68 64.9508  -2
   2   1   9 1791.68 64.9508   1
   3   1   9 231.132 5.86734   1
   4   1   9 8.36050 1.78866   1
   4  -1   8 64.8942 9.20355  -2
   4   1   9 64.8942 9.20355   1
   5   1   9 345.506 13.4300   1
   5  -1   8 535.228 23.0458  -2
   5   1   9 535.228 23.0458   1
   6  -1   8 70.5698 11.0655  -2
   6   1   9 70.5698 11.0655   1
   7  -1   8 109.685 12.8231  -2
   7   1   9 109.685 12.8231   1
   8   1   9 51.0696 7.90883   1
  -6   2   9 114.923 7.81072   1
  -5   2   9 -1.9909 2.92417   1
  -4   2   9 57.6460 4.35624   1
  -3   2   9 27.4050 3.06659   1
  -2   2   9 349.178 10.1815   1
  -1   2   9 366.612 10.4674   1
   0   2   9 16.5179 2.36029   1
   1   2   9 365.295 10.1726   1
   2   2   9 348.961 9.80872   1
   3   2   9 4.15348 1.84429   1
   4   2   9 54.5695 2.83838   1
   5   2   9 34.2096 2.29751   1
   6   2   9 380.904 17.1819   1
   7   2   9 37.9552 6.31430   1
   8   2   9 174.048 11.8290   1
   9   2   9 73.8862 9.51187   1
  -6   3   9 6.86908 8.22088   1
  -6  -3   6 279.147 15.8594  -2
  -5   3   9 279.147 15.8594   1
  -5  -3   6 14.6620 6.04108  -2
  -4   3   9 14.6620 6.04108   1
  -4  -3   6 245.450 9.11258  -2
  -3   3   9 245.450 9.11258   1
  -3  -3   6 50.4517 8.29755  -2
  -2   3   9 50.4517 8.29755   1
  -2   3   9 10.7566 3.58462   1
  -2  -3   6 232.697 8.41554  -2
  -1   3   9 232.697 8.41554   1
  -1  -3   6 731.433 19.2223  -2
   0   3   9 731.433 19.2223   1
   0  -3   6 548.025 14.9859  -2
   1   3   9 548.025 14.9859   1
   2   3   9 216.331 6.87043   1
   3   3   9 77.7782 3.89384   1
   2  -3   6 140.128 8.40317  -2
   3   3   9 140.128 8.40317   1
   4   3   9 142.757 5.12639   1
   3  -3   6 372.661 16.1329  -2
   4   3   9 372.661 16.1329   1
   4  -3   6 649.811 25.9722  -2
   5   3   9 649.811 25.9722   1
   5   3   9 231.905 10.6307   1
   5  -3   6 15.9328 7.53850  -2
   6   3   9 15.9328 7.53850   1
   6   3   9 3.82371 3.41787   1
   6  -3   6 308.890 13.5530  -2
   7   3   9 308.890 13.5530   1
   7  -3   6 50.9142 11.1614  -2
   8   3   9 50.9142 11.1614   1
   9   3   9 13.8424 10.4599   1
   8  -3   6 -3.9827 12.8741  -2
   9   3   9 -3.9827 12.8741   1
  -6  -4   5 16.2891 4.61745  -2
  -5   4   9 16.2891 4.61745   1
  -5  -4   5 138.628 6.32436  -2
  -4   4   9 138.628 6.32436   1
  -4  -4   5 37.7335 4.22270  -2
  -3   4   9 37.7335 4.22270   1
  -3  -4   5 1005.64 25.6415  -2
  -2   4   9 1005.64 25.6415   1
  -2  -4   5 198.084 6.83698  -2
  -1   4   9 198.084 6.83698   1
  -1  -4   5 34.6585 3.62854  -2
   0   4   9 34.6585 3.62854   1
   0  -4   5 368.577 10.5199  -2
   1   4   9 368.577 10.5199   1
   1  -4   5 78.0511 4.16584  -2
   2   4   9 78.0511 4.16584   1
   2  -4   5 526.276 14.1779  -2
   3   4   9 526.276 14.1779   1
   3  -4   5 849.077 21.7235  -2
   4   4   9 849.077 21.7235   1
   4  -4   5 69.9263 5.43810  -2
   5   4   9 69.9263 5.43810   1
   5  -4   5 348.585 12.3269  -2
   6   4   9 348.585 12.3269   1
   6  -4   5 10.2161 5.39390  -2
   7   4   9 10.2161 5.39390   1
   7  -4   5 148.168 10.6571  -2
   8   4   9 148.168 10.6571   1
   8  -4   5 14.3162 9.30397  -2
   9   4   9 14.3162 9.30397   1
  -6  -5   4 106.163 12.2272  -2
  -5   5   9 106.163 12.2272   1
  -5  -5   4 33.3987 6.78297  -2
  -4   5   9 33.3987 6.78297   1
  -4  -5   4 360.198 11.8689  -2
  -3   5   9 360.198 11.8689   1
  -3  -5   4 141.695 7.21242  -2
  -2   5   9 141.695 7.21242   1
  -2  -5   4 177.861 7.69372  -2
  -1   5   9 177.861 7.69372   1
  -1  -5   4 194.040 7.66756  -2
   0   5   9 194.040 7.66756   1
   0  -5   4 119.663 6.42342  -2
   1   5   9 119.663 6.42342   1
   1  -5   4 510.611 12.7710  -2
   2   5   9 510.611 12.7710   1
   2  -5   4 23.9893 4.26631  -2
   3   5   9 23.9893 4.26631   1
   3  -5   4 823.182 25.1726  -2
   4   5   9 823.182 25.1726   1
   4   5   9 422.628 17.6497   1
   4  -5   4 870.153 26.6471  -2
   5   5   9 870.153 26.6471   1
   5  -5   4 57.7067 7.78680  -2
   6   5   9 57.7067 7.78680   1
   6  -5   4 67.2695 8.44864  -2
   7   5   9 67.2695 8.44864   1
   7  -5   4 -22.211 16.8935  -2
   8   5   9 -22.211 16.8935   1
  -6   6   9 20.4713 10.0816   1
  -5   6   9 11.2200 5.98422   1
  -4   6   9 1.70627 5.18222   1
  -3   6   9 5.35216 3.55550   1
  -2   6   9 177.802 7.31511   1
  -3  -6   3 285.871 21.1733  -2
  -2   6   9 285.871 21.1733   1
  -1   6   9 167.875 6.86340   1
  -2  -6   3 108.696 15.0451  -2
  -1   6   9 108.696 15.0451   1
   0   6   9 9.12740 3.13577   1
  -1  -6   3 215.908 17.2960  -2
   0   6   9 215.908 17.2960   1
   1   6   9 240.447 8.15186   1
   2   6   9 46.4779 3.97889   1
   3   6   9 287.279 8.06410   1
   4   6   9 69.7262 6.36737   1
   5   6   9 41.7350 5.05001   1
   6   6   9 52.2340 5.50763   1
   7   6   9 9.31072 4.17382   1
   8   6   9 66.7749 6.82614   1
  -6  -7   2 -7.9484 13.1522  -2
  -4   7   9 -7.9484 13.1522   1
  -5  -7   2 108.523 13.8459  -2
  -3   7   9 108.523 13.8459   1
  -4  -7   2 -0.1553 6.97752  -2
  -2   7   9 -0.1553 6.97752   1
  -3  -7   2 39.4448 6.53962  -2
  -1   7   9 39.4448 6.53962   1
  -2  -7   2 281.764 9.63312  -2
   0   7   9 281.764 9.63312   1
  -1  -7   2 69.5149 7.24111  -2
   1   7   9 69.5149 7.24111   1
   0  -7   2 733.114 20.2670  -2
   2   7   9 733.114 20.2670   1
   1  -7   2 39.8128 8.37702  -2
   3   7   9 39.8128 8.37702   1
   2  -7   2 129.174 9.81659  -2
   4   7   9 129.174 9.81659   1
   3  -7   2 319.616 14.0321  -2
   5   7   9 319.616 14.0321   1
   4  -7   2 48.3093 9.83219  -2
   6   7   9 48.3093 9.83219   1
   5  -7   2 216.303 12.7607  -2
   7   7   9 216.303 12.7607   1
  -5  -8   1 10.3184 9.81597  -2
  -3   8   9 10.3184 9.81597   1
  -4  -8   1 231.529 13.4728  -2
  -2   8   9 231.529 13.4728   1
  -3  -8   1 3.75948 4.95043  -2
  -1   8   9 3.75948 4.95043   1
  -2  -8   1 77.4112 5.98827  -2
   0   8   9 77.4112 5.98827   1
  -1  -8   1 184.180 7.93974  -2
   1   8   9 184.180 7.93974   1
   0  -8   1 40.6815 5.07421  -2
   2   8   9 40.6815 5.07421   1
   1  -8   1 368.452 13.9262  -2
   3   8   9 368.452 13.9262   1
   2  -8   1 17.4386 7.14336  -2
   4   8   9 17.4386 7.14336   1
   3  -8   1 -1.2474 9.66641  -2
   5   8   9 -1.2474 9.66641   1
   4  -8   1 77.9363 8.81628  -2
   6   8   9 77.9363 8.81628   1
   4   9   0 8.40936 11.9843  -2
  -2   9   9 8.40936 11.9843   1
   3   9   0 232.963 15.9510  -2
  -1   9   9 232.963 15.9510   1
   2   9   0 70.4092 7.99124  -2
   0   9   9 70.4092 7.99124   1
   1   9   0 101.903 8.30820  -2
   1   9   9 101.903 8.30820   1
   0   9   0 68.2852 9.37687  -2
   2   9   9 68.2852 9.37687   1
  -1   9   0 10.8109 9.22305  -2
   3   9   9 10.8109 9.22305   1
  -2   9   0 307.666 14.2961  -2
   4   9   9 307.666 14.2961   1
  -3   9   0 65.5018 13.4038  -2
   5   9   9 65.5018 13.4038   1
  -1  10   9 -3.3337 9.50045   1
   0  10   9 105.444 11.3134   1
   1  10   9 51.1590 7.86754   1
   2  10   9 2.30279 5.21463   1
   3  10   9 55.1386 6.83719   1
   4  10   9 17.8499 9.51818   1
  -3  -6  10 22.0893 6.06932   1
  -2  -6  10 47.3267 8.13328   1
  -1  -6  10 23.5742 6.60982   1
   0  -6  10 210.857 9.04296   1
   1  -6  10 31.1081 4.46566   1
   2  -6  10 12.5536 3.88849   1
   3  -6  10 16.9500 4.14242   1
  -2   5  15 58.1656 7.61827  -2
  -3  -5  10 58.1656 7.61827   1
  -1   5  15 16.2920 6.87618  -2
  -2  -5  10 16.2920 6.87618   1
   0   5  15 128.608 8.42367  -2
  -1  -5  10 128.608 8.42367   1
   1   5  15 48.1772 8.03790  -2
   0  -5  10 48.1772 8.03790   1
   2   5  15 499.466 15.3665  -2
   1  -5  10 499.466 15.3665   1
   3   5  15 64.5314 6.97659  -2
   2  -5  10 64.5314 6.97659   1
   4   5  15 41.2998 6.71224  -2
   3  -5  10 41.2998 6.71224   1
   5   5  15 134.872 8.25559  -2
   4  -5  10 134.872 8.25559   1
   6   5  15 1.79061 9.24840  -2
   5  -5  10 1.79061 9.24840   1
  -3   4  14 36.3991 5.64350  -2
  -4  -4  10 36.3991 5.64350   1
  -2   4  14 153.175 7.48046  -2
  -3  -4  10 153.175 7.48046   1
  -1   4  14 8.20582 3.41370  -2
  -2  -4  10 8.20582 3.41370   1
   0   4  14 102.092 4.55561  -2
  -1  -4  10 102.092 4.55561   1
   1   4  14 259.159 8.92992  -2
   0  -4  10 259.159 8.92992   1
   2   4  14 12.4914 3.53870  -2
   1  -4  10 12.4914 3.53870   1
   3   4  14 198.922 7.76450  -2
   2  -4  10 198.922 7.76450   1
   4   4  14 42.8714 4.61392  -2
   3  -4  10 42.8714 4.61392   1
   5   4  14 203.960 8.22268  -2
   4  -4  10 203.960 8.22268   1
   6   4  14 228.294 9.05321  -2
   5  -4  10 228.294 9.05321   1
   7   4  14 4.50883 6.14710  -2
   6  -4  10 4.50883 6.14710   1
  -5  -3  10 -5.1068 5.12169   1
  -4   3  13 38.3319 10.7265  -2
  -5  -3  10 38.3319 10.7265   1
  -3   3  13 502.616 16.2758  -2
  -4  -3  10 502.616 16.2758   1
  -2   3  13 25.0306 6.64556  -2
  -3  -3  10 25.0306 6.64556   1
  -1   3  13 226.557 7.33523  -2
  -2  -3  10 226.557 7.33523   1
   0   3  13 19.8777 4.35516  -2
  -1  -3  10 19.8777 4.35516   1
   1   3  13 132.800 6.65498  -2
   0  -3  10 132.800 6.65498   1
   2   3  13 313.011 10.5940  -2
   1  -3  10 313.011 10.5940   1
   3   3  13 11.7703 5.15838  -2
   2  -3  10 11.7703 5.15838   1
   4   3  13 708.958 19.8248  -2
   3  -3  10 708.958 19.8248   1
   5   3  13 76.2805 6.23395  -2
   4  -3  10 76.2805 6.23395   1
   6   3  13 102.408 7.57845  -2
   5  -3  10 102.408 7.57845   1
   7   3  13 140.839 8.87385  -2
   6  -3  10 140.839 8.87385   1
  -5  -2  10 5.69021 3.39703   1
  -4  -2  10 10.6114 3.36462   1
  -3  -2  10 95.0261 5.76610   1
  -2  -2  10 7.09001 2.13531   1
  -1  -2  10 329.456 8.28233   1
   0  -2  10 111.456 4.21368   1
   1  -2  10 3.62367 1.63967   1
   2  -2  10 121.868 5.37945   1
   3  -2  10 8.76623 2.50375   1
   4  -2  10 240.986 8.32197   1
   5  -2  10 78.4563 5.04412   1
   6  -2  10 20.8589 3.66279   1
   7  -2  10 69.8012 5.72718   1
  -5   1  11 19.5898 7.29941  -2
  -5  -1  10 19.5898 7.29941   1
  -4   1  11 208.720 9.61204  -2
  -4  -1  10 208.720 9.61204   1
  -3   1  11 24.1469 4.15500  -2
  -3  -1  10 24.1469 4.15500   1
  -2   1  11 104.834 5.16635  -2
  -2  -1  10 104.834 5.16635   1
  -1   1  11 316.522 8.40972  -2
  -1  -1  10 316.522 8.40972   1
   0   1  11 471.801 11.1159  -2
   0  -1  10 471.801 11.1159   1
   1   1  11 665.558 17.6841  -2
   1  -1  10 665.558 17.6841   1
   2   1  11 45.0407 4.71092  -2
   2  -1  10 45.0407 4.71092   1
   2  -1  10 41.4390 3.99265   1
   3   1  11 209.223 7.75797  -2
   3  -1  10 209.223 7.75797   1
   4   1  11 32.6830 6.09650  -2
   4  -1  10 32.6830 6.09650   1
   4  -1  10 19.6442 4.26897   1
   5   1  11 28.1405 5.18374  -2
   5  -1  10 28.1405 5.18374   1
   6   1  11 817.755 22.5874  -2
   6  -1  10 817.755 22.5874   1
  -6   0  10 163.093 8.46102  -2
  -6   0  10 163.093 8.46102   1
  -5   0  10 39.2625 4.64355  -2
  -5   0  10 39.2625 4.64355   1
  -4   0  10 71.7663 5.42240  -2
  -4   0  10 71.7663 5.42240   1
  -3   0  10 179.072 5.59182  -2
  -3   0  10 179.072 5.59182   1
  -2   0  10 33.4657 2.74818  -2
  -2   0  10 33.4657 2.74818   1
  -1   0  10 257.928 6.66887  -2
  -1   0  10 257.928 6.66887   1
   0   0  10 661.701 14.3229  -2
   0   0  10 661.701 14.3229   1
   1   0  10 161.088 4.69733  -2
   1   0  10 161.088 4.69733   1
   2   0  10 972.218 20.3527  -2
   2   0  10 972.218 20.3527   1
   3   0  10 344.772 8.19402  -2
   3   0  10 344.772 8.19402   1
   4   0  10 222.100 7.43184  -2
   4   0  10 222.100 7.43184   1
   5   0  10 31.2258 3.38963  -2
   5   0  10 31.2258 3.38963   1
   6   0  10 22.3690 3.27243  -2
   6   0  10 22.3690 3.27243   1
   7   0  10 842.822 34.3529  -2
   7   0  10 842.822 34.3529   1
   8   0  10 6.95937 6.03007  -2
   8   0  10 6.95937 6.03007   1
  -6  -1   9 52.0145 8.58846  -2
  -6   1  10 52.0145 8.58846   1
  -5  -1   9 308.172 16.9982  -2
  -5   1  10 308.172 16.9982   1
  -5   1  10 183.712 11.2365   1
  -4  -1   9 340.007 17.1807  -2
  -4   1  10 340.007 17.1807   1
  -4   1  10 256.305 11.5405   1
  -3  -1   9 13.1445 7.74129  -2
  -3   1  10 13.1445 7.74129   1
  -3   1  10 14.8454 3.52351   1
  -2  -1   9 312.117 8.18641  -2
  -2   1  10 312.117 8.18641   1
  -1  -1   9 376.236 11.4489  -2
  -1   1  10 376.236 11.4489   1
  -1   1  10 266.879 11.5240   1
   0  -1   9 43.8063 6.79709  -2
   0   1  10 43.8063 6.79709   1
   0   1  10 5.84778 2.70338   1
   1   1  10 207.584 6.73584   1
   1  -1   9 175.852 9.35534  -2
   1   1  10 175.852 9.35534   1
   2  -1   9 318.582 9.95251  -2
   2   1  10 318.582 9.95251   1
   2   1  10 63.7440 5.02949   1
   3   1  10 466.176 10.4903   1
   4  -1   9 23.9757 8.14764  -2
   4   1  10 23.9757 8.14764   1
   4   1  10 -0.5813 1.73928   1
   5  -1   9 483.113 21.6120  -2
   5   1  10 483.113 21.6120   1
   5   1  10 309.728 12.5289   1
   6  -1   9 327.695 17.8076  -2
   6   1  10 327.695 17.8076   1
   7  -1   9 -4.0454 11.1834  -2
   7   1  10 -4.0454 11.1834   1
   8   1  10 74.1793 9.19320   1
  -6   2  10 47.9565 7.54701   1
  -5   2  10 16.1876 4.14449   1
  -4   2  10 139.479 6.30572   1
  -3   2  10 125.705 5.79787   1
  -2   2  10 14.0476 2.61385   1
  -1   2  10 560.764 15.1513   1
   0   2  10 12.8287 2.31989   1
   1   2  10 5.33838 2.05230   1
   2   2  10 349.440 9.99784   1
   3   2  10 10.8619 2.23222   1
   4   2  10 324.918 7.85696   1
   5   2  10 12.1189 1.93858   1
   6   2  10 307.509 15.2566   1
   7   2  10 71.9554 8.89046   1
   8   2  10 2.25172 5.60593   1
  -6   3  10 1.58643 5.73850   1
  -6  -3   7 88.5651 11.9529  -2
  -5   3  10 88.5651 11.9529   1
  -5  -3   7 142.146 8.06131  -2
  -4   3  10 142.146 8.06131   1
  -4  -3   7 52.7316 5.98413  -2
  -3   3  10 52.7316 5.98413   1
  -3  -3   7 312.049 10.5571  -2
  -2   3  10 312.049 10.5571   1
  -2  -3   7 28.2806 5.12002  -2
  -1   3  10 28.2806 5.12002   1
  -1  -3   7 1096.55 27.8991  -2
   0   3  10 1096.55 27.8991   1
   0  -3   7 1362.25 47.4663  -2
   1   3  10 1362.25 47.4663   1
   1   3  10 534.789 20.7164   1
   2   3  10 71.0074 6.10614   1
   1  -3   7 119.150 5.44029  -2
   2   3  10 119.150 5.44029   1
   3   3  10 248.358 7.79430   1
   2  -3   7 389.967 16.3948  -2
   3   3  10 389.967 16.3948   1
   3  -3   7 176.230 10.6716  -2
   4   3  10 176.230 10.6716   1
   4   3  10 132.839 5.12201   1
   5   3  10 410.914 11.6604   1
   4  -3   7 539.336 22.7555  -2
   5   3  10 539.336 22.7555   1
   5  -3   7 218.857 13.4478  -2
   6   3  10 218.857 13.4478   1
   6  -3   7 74.2554 11.4188  -2
   7   3  10 74.2554 11.4188   1
   7  -3   7 33.2245 11.6508  -2
   8   3  10 33.2245 11.6508   1
  -6  -4   6 32.8588 5.11014  -2
  -5   4  10 32.8588 5.11014   1
  -5  -4   6 84.4608 5.63998  -2
  -4   4  10 84.4608 5.63998   1
  -4  -4   6 16.0036 4.11572  -2
  -3   4  10 16.0036 4.11572   1
  -3  -4   6 24.3614 4.00934  -2
  -2   4  10 24.3614 4.00934   1
  -2  -4   6 685.239 18.2350  -2
  -1   4  10 685.239 18.2350   1
  -1  -4   6 28.8372 3.67534  -2
   0   4  10 28.8372 3.67534   1
   0  -4   6 324.968 9.72990  -2
   1   4  10 324.968 9.72990   1
   1  -4   6 1081.86 27.3459  -2
   2   4  10 1081.86 27.3459   1
   2  -4   6 47.9773 3.87588  -2
   3   4  10 47.9773 3.87588   1
   3  -4   6 428.705 12.0931  -2
   4   4  10 428.705 12.0931   1
   4  -4   6 31.1710 5.96080  -2
   5   4  10 31.1710 5.96080   1
   5  -4   6 303.874 13.8164  -2
   6   4  10 303.874 13.8164   1
   6  -4   6 53.6800 6.09069  -2
   7   4  10 53.6800 6.09069   1
   7  -4   6 25.3396 6.69941  -2
   8   4  10 25.3396 6.69941   1
  -6  -5   5 103.272 12.5824  -2
  -5   5  10 103.272 12.5824   1
  -5  -5   5 39.1136 7.19387  -2
  -4   5  10 39.1136 7.19387   1
  -4  -5   5 301.304 11.0514  -2
  -3   5  10 301.304 11.0514   1
  -3  -5   5 306.669 10.7701  -2
  -2   5  10 306.669 10.7701   1
  -2  -5   5 17.4052 5.42094  -2
  -1   5  10 17.4052 5.42094   1
  -1  -5   5 433.179 13.0039  -2
   0   5  10 433.179 13.0039   1
   0  -5   5 47.8313 4.95337  -2
   1   5  10 47.8313 4.95337   1
   1  -5   5 544.236 13.5259  -2
   2   5  10 544.236 13.5259   1
   2  -5   5 221.612 7.45865  -2
   3   5  10 221.612 7.45865   1
   3  -5   5 40.9890 7.14262  -2
   4   5  10 40.9890 7.14262   1
   4  -5   5 381.907 14.4744  -2
   5   5  10 381.907 14.4744   1
   5  -5   5 25.1328 7.59241  -2
   6   5  10 25.1328 7.59241   1
   6  -5   5 31.2280 7.64083  -2
   7   5  10 31.2280 7.64083   1
  -5   6  10 21.6910 6.60817   1
  -4   6  10 24.0571 6.35863   1
  -3   6  10 33.4244 4.45127   1
  -3  -6   4 458.599 27.7256  -2
  -2   6  10 458.599 27.7256   1
  -2   6  10 169.545 7.35427   1
  -2  -6   4 351.678 23.0040  -2
  -1   6  10 351.678 23.0040   1
  -1   6  10 306.249 9.96442   1
  -1  -6   4 119.805 14.9388  -2
   0   6  10 119.805 14.9388   1
   0   6  10 117.548 5.84425   1
   1   6  10 165.432 6.80652   1
   2   6  10 16.5511 3.19988   1
   3   6  10 306.425 9.59000   1
   4   6  10 183.727 11.1831   1
   5   6  10 76.2834 6.27397   1
   6   6  10 85.9298 7.28160   1
   7   6  10 15.7804 4.53769   1
   8   6  10 21.5133 5.03512   1
  -6  -7   3 -6.0878 13.5335  -2
  -4   7  10 -6.0878 13.5335   1
  -5  -7   3 44.4893 12.9187  -2
  -3   7  10 44.4893 12.9187   1
  -4  -7   3 50.6864 7.85569  -2
  -2   7  10 50.6864 7.85569   1
  -3  -7   3 14.8436 6.60872  -2
  -1   7  10 14.8436 6.60872   1
  -2  -7   3 338.840 10.7864  -2
   0   7  10 338.840 10.7864   1
  -1  -7   3 174.923 9.04624  -2
   1   7  10 174.923 9.04624   1
   0  -7   3 421.680 12.1184  -2
   2   7  10 421.680 12.1184   1
   1  -7   3 121.593 7.22043  -2
   3   7  10 121.593 7.22043   1
   4   7  10 21.9989 7.66736   1
   2  -7   3 29.3057 10.7605  -2
   4   7  10 29.3057 10.7605   1
   5   7  10 181.368 16.2780   1
   3  -7   3 280.479 16.9181  -2
   5   7  10 280.479 16.9181   1
   4  -7   3 93.3166 10.5233  -2
   6   7  10 93.3166 10.5233   1
   5  -7   3 54.3430 9.63296  -2
   7   7  10 54.3430 9.63296   1
  -5  -8   2 -1.7056 10.2621  -2
  -3   8  10 -1.7056 10.2621   1
  -4  -8   2 96.5981 10.5263  -2
  -2   8  10 96.5981 10.5263   1
  -3  -8   2 12.9628 5.30503  -2
  -1   8  10 12.9628 5.30503   1
  -2  -8   2 0.40656 4.96659  -2
   0   8  10 0.40656 4.96659   1
  -1  -8   2 327.073 10.9493  -2
   1   8  10 327.073 10.9493   1
   0  -8   2 186.347 8.21978  -2
   2   8  10 186.347 8.21978   1
   1  -8   2 116.410 10.3151  -2
   3   8  10 116.410 10.3151   1
   2  -8   2 363.073 18.2340  -2
   4   8  10 363.073 18.2340   1
   3  -8   2 46.4374 10.3394  -2
   5   8  10 46.4374 10.3394   1
   4  -8   2 146.709 12.7975  -2
   6   8  10 146.709 12.7975   1
  -3  -9   1 58.7676 12.7738  -2
  -1   9  10 58.7676 12.7738   1
  -2  -9   1 17.8600 7.76312  -2
   0   9  10 17.8600 7.76312   1
  -1  -9   1 33.2335 7.86405  -2
   1   9  10 33.2335 7.86405   1
   0  -9   1 153.531 11.1296  -2
   2   9  10 153.531 11.1296   1
   1  -9   1 8.04996 11.7762  -2
   3   9  10 8.04996 11.7762   1
   2  -9   1 59.1233 10.2775  -2
   4   9  10 59.1233 10.2775   1
   3  -9   1 319.984 19.5375  -2
   5   9  10 319.984 19.5375   1
   0  10  10 8.38733 7.90579   1
   1  10  10 41.1208 7.45374   1
   0  10   0 -10.180 14.1830  -2
   2  10  10 -10.180 14.1830   1
   2  10  10 12.4206 9.34665   1
   3  10  10 25.0036 6.21808   1
   0  -6  11 167.422 8.72111   1
   1  -6  11 21.6155 4.46988   1
   2  -6  11 38.7294 9.07174   1
  -1   5  16 16.3360 7.23395  -2
  -2  -5  11 16.3360 7.23395   1
   1   5  16 21.4675 6.52538  -2
   0  -5  11 21.4675 6.52538   1
   2   5  16 312.160 11.4408  -2
   1  -5  11 312.160 11.4408   1
   3   5  16 213.025 9.67345  -2
   2  -5  11 213.025 9.67345   1
   4   5  16 50.1215 7.10862  -2
   3  -5  11 50.1215 7.10862   1
   5   5  16 122.871 11.5173  -2
   4  -5  11 122.871 11.5173   1
  -2   4  15 64.2729 5.80928  -2
  -3  -4  11 64.2729 5.80928   1
  -1   4  15 166.577 7.73531  -2
  -2  -4  11 166.577 7.73531   1
   0   4  15 85.0041 4.46399  -2
  -1  -4  11 85.0041 4.46399   1
   1   4  15 294.184 9.95126  -2
   0  -4  11 294.184 9.95126   1
   2   4  15 10.8778 3.71926  -2
   1  -4  11 10.8778 3.71926   1
   3   4  15 21.5201 4.42452  -2
   2  -4  11 21.5201 4.42452   1
   4   4  15 207.753 8.25406  -2
   3  -4  11 207.753 8.25406   1
   5   4  15 14.0434 4.62715  -2
   4  -4  11 14.0434 4.62715   1
   6   4  15 276.982 10.3845  -2
   5  -4  11 276.982 10.3845   1
  -3   3  14 176.115 9.76758  -2
  -4  -3  11 176.115 9.76758   1
  -2   3  14 41.9098 7.24594  -2
  -3  -3  11 41.9098 7.24594   1
  -1   3  14 166.039 5.99613  -2
  -2  -3  11 166.039 5.99613   1
   0   3  14 31.8101 4.77871  -2
  -1  -3  11 31.8101 4.77871   1
   1   3  14 11.3239 7.06071  -2
   0  -3  11 11.3239 7.06071   1
   2   3  14 129.666 7.14136  -2
   1  -3  11 129.666 7.14136   1
   3   3  14 26.9942 5.71135  -2
   2  -3  11 26.9942 5.71135   1
   4   3  14 125.701 7.32240  -2
   3  -3  11 125.701 7.32240   1
   5   3  14 609.362 17.8240  -2
   4  -3  11 609.362 17.8240   1
   6   3  14 28.9283 6.47243  -2
   5  -3  11 28.9283 6.47243   1
   7   3  14 231.433 10.7001  -2
   6  -3  11 231.433 10.7001   1
  -5  -2  11 209.824 9.28317   1
  -4  -2  11 -0.1932 3.19883   1
  -3  -2  11 182.265 8.01817   1
  -2  -2  11 106.194 4.57434   1
  -1  -2  11 18.2198 2.43771   1
   0  -2  11 138.980 5.66178   1
   1  -2  11 86.7884 3.72893   1
   2  -2  11 27.6474 3.24063   1
   3  -2  11 129.729 5.88643   1
   4  -2  11 120.653 5.75051   1
   5  -2  11 259.947 9.26268   1
   6  -2  11 3.46943 3.06143   1
   7  -2  11 79.8561 6.00162   1
  -5   1  12 0.14818 7.96936  -2
  -5  -1  11 0.14818 7.96936   1
  -4   1  12 375.818 13.5745  -2
  -4  -1  11 375.818 13.5745   1
  -3   1  12 117.404 7.86721  -2
  -3  -1  11 117.404 7.86721   1
  -2   1  12 72.8519 4.97029  -2
  -2  -1  11 72.8519 4.97029   1
  -1   1  12 112.873 5.30471  -2
  -1  -1  11 112.873 5.30471   1
   0   1  12 11.6557 4.46677  -2
   0  -1  11 11.6557 4.46677   1
   1   1  12 888.054 19.1641  -2
   1  -1  11 888.054 19.1641   1
   2  -1  11 2.32047 2.51547   1
   2   1  12 71.1284 5.46676  -2
   2  -1  11 71.1284 5.46676   1
   3   1  12 439.120 13.1338  -2
   3  -1  11 439.120 13.1338   1
   4   1  12 361.903 11.5507  -2
   4  -1  11 361.903 11.5507   1
   5   1  12 83.9759 6.22741  -2
   5  -1  11 83.9759 6.22741   1
   6   1  12 124.462 7.40758  -2
   6  -1  11 124.462 7.40758   1
   7   1  12 57.4810 12.2619  -2
   7  -1  11 57.4810 12.2619   1
  -6   0  11 114.925 10.7416  -2
  -6   0  11 114.925 10.7416   1
  -5   0  11 68.6556 5.62068  -2
  -5   0  11 68.6556 5.62068   1
  -4   0  11 14.6657 3.57170  -2
  -4   0  11 14.6657 3.57170   1
  -3   0  11 59.9598 3.69010  -2
  -3   0  11 59.9598 3.69010   1
  -2   0  11 19.4672 2.65251  -2
  -2   0  11 19.4672 2.65251   1
  -1   0  11 36.9778 2.90819  -2
  -1   0  11 36.9778 2.90819   1
   0   0  11 654.473 14.3613  -2
   0   0  11 654.473 14.3613   1
   1   0  11 1.38956 1.74301  -2
   1   0  11 1.38956 1.74301   1
   2   0  11 714.461 15.4681  -2
   2   0  11 714.461 15.4681   1
   3   0  11 60.0610 3.11011  -2
   3   0  11 60.0610 3.11011   1
   4   0  11 255.800 8.32257  -2
   4   0  11 255.800 8.32257   1
   5   0  11 77.8898 4.70141  -2
   5   0  11 77.8898 4.70141   1
   6   0  11 228.241 8.25256  -2
   6   0  11 228.241 8.25256   1
   7   0  11 117.341 10.4595  -2
   7   0  11 117.341 10.4595   1
   8   0  11 59.5949 9.01043  -2
   8   0  11 59.5949 9.01043   1
  -5  -1  10 11.4870 10.8585  -2
  -5   1  11 11.4870 10.8585   1
  -4  -1  10 237.841 10.4157  -2
  -4   1  11 237.841 10.4157   1
  -3  -1  10 12.3709 5.08595  -2
  -3   1  11 12.3709 5.08595   1
  -2  -1  10 104.422 5.15123  -2
  -2   1  11 104.422 5.15123   1
  -1  -1  10 330.246 8.61664  -2
  -1   1  11 330.246 8.61664   1
   0   1  11 204.132 9.86235   1
   0  -1  10 464.049 19.0557  -2
   0   1  11 464.049 19.0557   1
   1  -1  10 697.550 15.3534  -2
   1   1  11 697.550 15.3534   1
   2  -1  10 42.8933 4.89964  -2
   2   1  11 42.8933 4.89964   1
   2   1  11 8.55429 3.07954   1
   3  -1  10 234.947 6.79075  -2
   3   1  11 234.947 6.79075   1
   4   1  11 7.18605 2.18683   1
   4  -1  10 29.0615 8.45174  -2
   4   1  11 29.0615 8.45174   1
   5   1  11 15.1546 3.09069   1
   5  -1  10 35.0081 9.80773  -2
   5   1  11 35.0081 9.80773   1
   6   1  11 358.762 15.4378   1
   6  -1  10 751.357 31.2791  -2
   6   1  11 751.357 31.2791   1
   7  -1  10 -14.019 11.9259  -2
   7   1  11 -14.019 11.9259   1
   8  -1  10 128.735 15.0698  -2
   8   1  11 128.735 15.0698   1
  -6   2  11 32.3856 7.15174   1
  -5   2  11 59.3377 7.86854   1
  -4   2  11 22.1697 3.65690   1
  -3   2  11 132.433 6.13154   1
  -2   2  11 29.3533 3.44044   1
  -1   2  11 372.226 11.0153   1
   0   2  11 637.618 16.9916   1
   1   2  11 31.8012 2.99942   1
   2   2  11 80.6146 4.23862   1
   3   2  11 17.5759 2.59764   1
   4   2  11 196.555 5.64677   1
   5   2  11 176.294 6.49966   1
   6   2  11 66.4814 7.48211   1
   7   2  11 256.970 14.4256   1
   8   2  11 -2.5134 5.82037   1
  -6   3  11 13.1618 6.31635   1
  -6  -3   8 28.3275 11.4385  -2
  -5   3  11 28.3275 11.4385   1
  -5  -3   8 357.997 12.4087  -2
  -4   3  11 357.997 12.4087   1
  -4  -3   8 50.6530 6.29138  -2
  -3   3  11 50.6530 6.29138   1
  -3  -3   8 323.289 10.9886  -2
  -2   3  11 323.289 10.9886   1
  -2  -3   8 69.4614 6.09939  -2
  -1   3  11 69.4614 6.09939   1
  -1  -3   8 176.213 7.83954  -2
   0   3  11 176.213 7.83954   1
   0  -3   8 212.746 8.24072  -2
   1   3  11 212.746 8.24072   1
   1  -3   8 23.6945 5.09364  -2
   2   3  11 23.6945 5.09364   1
   3   3  11 98.0744 7.03513   1
   2  -3   8 132.558 6.36183  -2
   3   3  11 132.558 6.36183   1
   4   3  11 12.6492 2.47282   1
   3  -3   8 125.785 9.55816  -2
   4   3  11 125.785 9.55816   1
   4  -3   8 193.045 12.6820  -2
   5   3  11 193.045 12.6820   1
   5   3  11 188.173 6.53742   1
   5  -3   8 828.381 33.0901  -2
   6   3  11 828.381 33.0901   1
   6  -3   8 -10.345 10.4485  -2
   7   3  11 -10.345 10.4485   1
   7  -3   8 14.2105 11.9108  -2
   8   3  11 14.2105 11.9108   1
  -6  -4   7 116.230 6.98018  -2
  -5   4  11 116.230 6.98018   1
  -5  -4   7 36.1806 5.08923  -2
  -4   4  11 36.1806 5.08923   1
  -4  -4   7 251.070 8.97726  -2
  -3   4  11 251.070 8.97726   1
  -3  -4   7 44.5840 4.57984  -2
  -2   4  11 44.5840 4.57984   1
  -2  -4   7 550.452 15.2995  -2
  -1   4  11 550.452 15.2995   1
  -1  -4   7 161.613 6.35371  -2
   0   4  11 161.613 6.35371   1
   0  -4   7 50.4213 4.02250  -2
   1   4  11 50.4213 4.02250   1
   1  -4   7 298.775 9.37108  -2
   2   4  11 298.775 9.37108   1
   2  -4   7 106.199 5.24336  -2
   3   4  11 106.199 5.24336   1
   3  -4   7 509.661 14.1797  -2
   4   4  11 509.661 14.1797   1
   4  -4   7 105.265 8.22086  -2
   5   4  11 105.265 8.22086   1
   5  -4   7 68.1214 7.06966  -2
   6   4  11 68.1214 7.06966   1
  -6  -5   6 136.616 13.8975  -2
  -5   5  11 136.616 13.8975   1
  -5  -5   6 131.421 8.96583  -2
  -4   5  11 131.421 8.96583   1
  -4  -5   6 58.4022 7.11434  -2
  -3   5  11 58.4022 7.11434   1
  -3  -5   6 243.819 9.82800  -2
  -2   5  11 243.819 9.82800   1
  -2  -5   6 47.1815 6.07395  -2
  -1   5  11 47.1815 6.07395   1
  -1  -5   6 234.202 9.20804  -2
   0   5  11 234.202 9.20804   1
   0  -5   6 390.611 12.1530  -2
   1   5  11 390.611 12.1530   1
   1  -5   6 378.542 11.9237  -2
   2   5  11 378.542 11.9237   1
   2  -5   6 642.426 17.7617  -2
   3   5  11 642.426 17.7617   1
   3  -5   6 74.7806 8.16546  -2
   4   5  11 74.7806 8.16546   1
   4  -5   6 233.592 13.7148  -2
   5   5  11 233.592 13.7148   1
   5  -5   6 193.697 13.0813  -2
   6   5  11 193.697 13.0813   1
   6  -5   6 -7.3859 16.9790  -2
   7   5  11 -7.3859 16.9790   1
  -5   6  11 -0.9290 6.41620   1
  -4   6  11 30.5067 6.75933   1
  -3   6  11 21.6531 4.43371   1
  -2   6  11 25.1523 4.28011   1
  -2  -6   5 444.336 20.4678  -2
  -1   6  11 444.336 20.4678   1
  -1   6  11 343.414 15.4409   1
   0   6  11 17.1583 3.59428   1
   1   6  11 15.0457 3.42644   1
   2   6  11 204.419 7.66998   1
   3   6  11 16.6608 3.15454   1
   4   6  11 94.8540 9.06860   1
   5   6  11 -2.7213 4.95947   1
   6   6  11 19.5894 4.82377   1
   7   6  11 133.702 8.54256   1
  -5  -7   4 -8.4240 12.5056  -2
  -3   7  11 -8.4240 12.5056   1
  -4  -7   4 100.940 8.93556  -2
  -2   7  11 100.940 8.93556   1
  -3  -7   4 34.6297 7.89404  -2
  -1   7  11 34.6297 7.89404   1
  -2  -7   4 264.184 9.68574  -2
   0   7  11 264.184 9.68574   1
  -1  -7   4 232.355 10.3982  -2
   1   7  11 232.355 10.3982   1
   0  -7   4 93.4925 7.17148  -2
   2   7  11 93.4925 7.17148   1
   1  -7   4 178.063 8.10387  -2
   3   7  11 178.063 8.10387   1
   2  -7   4 111.762 10.6086  -2
   4   7  11 111.762 10.6086   1
   3  -7   4 99.4692 13.1681  -2
   5   7  11 99.4692 13.1681   1
   4  -7   4 160.790 14.4711  -2
   6   7  11 160.790 14.4711   1
   5  -7   4 11.1248 11.6031  -2
   7   7  11 11.1248 11.6031   1
  -4  -8   3 8.52813 8.89591  -2
  -2   8  11 8.52813 8.89591   1
  -3  -8   3 248.237 9.69596  -2
  -1   8  11 248.237 9.69596   1
  -2  -8   3 58.3547 6.12209  -2
   0   8  11 58.3547 6.12209   1
  -1  -8   3 166.530 7.95409  -2
   1   8  11 166.530 7.95409   1
   0  -8   3 267.799 10.1615  -2
   2   8  11 267.799 10.1615   1
   1  -8   3 63.1154 9.42146  -2
   3   8  11 63.1154 9.42146   1
   2  -8   3 93.1176 10.4114  -2
   4   8  11 93.1176 10.4114   1
   3  -8   3 21.1901 10.1706  -2
   5   8  11 21.1901 10.1706   1
   4  -8   3 116.021 9.70615  -2
   6   8  11 116.021 9.70615   1
  -3  -9   2 -1.4029 12.1174  -2
  -1   9  11 -1.4029 12.1174   1
  -2  -9   2 96.2453 8.95081  -2
   0   9  11 96.2453 8.95081   1
  -1  -9   2 67.9355 8.56019  -2
   1   9  11 67.9355 8.56019   1
   0  -9   2 106.996 13.1363  -2
   2   9  11 106.996 13.1363   1
   1  -9   2 185.087 15.3049  -2
   3   9  11 185.087 15.3049   1
   2  -9   2 26.2105 13.2070  -2
   4   9  11 26.2105 13.2070   1
   0  10  11 4.00653 6.72035   1
   1  10  11 38.4058 7.39152   1
   2  10  11 14.7387 5.67710   1
   1   5  17 44.1232 8.79893  -2
   0  -5  12 44.1232 8.79893   1
   2   5  17 13.2425 6.36339  -2
   1  -5  12 13.2425 6.36339   1
   3   5  17 293.807 15.9122  -2
   2  -5  12 293.807 15.9122   1
  -2   4  16 6.58274 7.08697  -2
  -3  -4  12 6.58274 7.08697   1
  -1   4  16 145.218 7.53351  -2
  -2  -4  12 145.218 7.53351   1
   0   4  16 7.81657 4.23977  -2
  -1  -4  12 7.81657 4.23977   1
   1   4  16 130.062 6.67455  -2
   0  -4  12 130.062 6.67455   1
   2   4  16 273.964 9.78252  -2
   1  -4  12 273.964 9.78252   1
   3   4  16 29.1601 4.78891  -2
   2  -4  12 29.1601 4.78891   1
   4   4  16 247.195 9.37167  -2
   3  -4  12 247.195 9.37167   1
   5   4  16 30.0256 5.19426  -2
   4  -4  12 30.0256 5.19426   1
  -3  -3  12 147.622 10.6357   1
  -2   3  15 168.553 13.8045  -2
  -3  -3  12 168.553 13.8045   1
  -1   3  15 108.219 5.36361  -2
  -2  -3  12 108.219 5.36361   1
   0   3  15 55.5442 8.06242  -2
  -1  -3  12 55.5442 8.06242   1
  -1  -3  12 32.2100 4.87570   1
   1   3  15 9.49148 7.64049  -2
   0  -3  12 9.49148 7.64049   1
   2   3  15 136.781 7.69545  -2
   1  -3  12 136.781 7.69545   1
   3   3  15 641.688 18.6079  -2
   2  -3  12 641.688 18.6079   1
   4   3  15 27.5633 6.11146  -2
   3  -3  12 27.5633 6.11146   1
   5   3  15 460.886 14.6457  -2
   4  -3  12 460.886 14.6457   1
   6   3  15 20.0696 6.79357  -2
   5  -3  12 20.0696 6.79357   1
  -4  -2  12 23.2251 4.31924   1
  -3  -2  12 21.1830 3.94565   1
  -2  -2  12 204.562 6.45297   1
  -1  -2  12 12.0198 2.42732   1
   0  -2  12 86.3592 3.98912   1
   1  -2  12 11.2526 2.16879   1
   2  -2  12 5.13454 2.58138   1
   3  -2  12 254.692 8.93814   1
   4  -2  12 10.0324 2.84743   1
   5  -2  12 172.995 7.46195   1
   6  -2  12 5.09228 3.36857   1
   7  -2  12 14.9048 5.14352   1
  -4   1  13 15.2096 7.55921  -2
  -4  -1  12 15.2096 7.55921   1
  -3   1  13 317.962 12.1946  -2
  -3  -1  12 317.962 12.1946   1
  -2   1  13 -4.8187 4.44426  -2
  -2  -1  12 -4.8187 4.44426   1
  -1   1  13 154.517 6.19617  -2
  -1  -1  12 154.517 6.19617   1
   0   1  13 51.6544 5.50478  -2
   0  -1  12 51.6544 5.50478   1
   1   1  13 301.372 10.3498  -2
   1  -1  12 301.372 10.3498   1
   1  -1  12 181.570 9.07343   1
   2   1  13 294.496 10.1062  -2
   2  -1  12 294.496 10.1062   1
   3   1  13 28.9786 5.17446  -2
   3  -1  12 28.9786 5.17446   1
   4   1  13 282.887 10.0071  -2
   4  -1  12 282.887 10.0071   1
   5   1  13 54.9101 5.94746  -2
   5  -1  12 54.9101 5.94746   1
   6   1  13 126.916 7.58194  -2
   6  -1  12 126.916 7.58194   1
   7   1  13 252.992 17.4134  -2
   7  -1  12 252.992 17.4134   1
  -5   0  12 445.586 14.7362  -2
  -5   0  12 445.586 14.7362   1
  -4   0  12 27.3058 4.11192  -2
  -4   0  12 27.3058 4.11192   1
  -3   0  12 52.5609 3.73336  -2
  -3   0  12 52.5609 3.73336   1
  -2   0  12 240.632 6.88015  -2
  -2   0  12 240.632 6.88015   1
  -1   0  12 90.8887 4.00093  -2
  -1   0  12 90.8887 4.00093   1
   0   0  12 724.599 19.2259  -2
   0   0  12 724.599 19.2259   1
   1   0  12 5.85060 1.91605  -2
   1   0  12 5.85060 1.91605   1
   2   0  12 330.204 8.23780  -2
   2   0  12 330.204 8.23780   1
   3   0  12 245.628 8.30184  -2
   3   0  12 245.628 8.30184   1
   4   0  12 52.0429 3.98949  -2
   4   0  12 52.0429 3.98949   1
   5   0  12 158.635 6.54117  -2
   5   0  12 158.635 6.54117   1
   6   0  12 71.0686 4.93235  -2
   6   0  12 71.0686 4.93235   1
   7   0  12 111.463 10.5543  -2
   7   0  12 111.463 10.5543   1
  -5  -1  11 5.90805 11.3512  -2
  -5   1  12 5.90805 11.3512   1
  -4  -1  11 379.585 19.2983  -2
  -4   1  12 379.585 19.2983   1
  -3  -1  11 132.623 7.53078  -2
  -3   1  12 132.623 7.53078   1
  -2  -1  11 61.9755 4.88542  -2
  -2   1  12 61.9755 4.88542   1
  -1  -1  11 102.502 5.09285  -2
  -1   1  12 102.502 5.09285   1
   0   1  12 9.98756 2.41030   1
   1  -1  11 885.364 19.0905  -2
   1   1  12 885.364 19.0905   1
   2  -1  11 88.9767 4.63173  -2
   2   1  12 88.9767 4.63173   1
   3  -1  11 447.809 10.8884  -2
   3   1  12 447.809 10.8884   1
   4  -1  11 390.770 12.2054  -2
   4   1  12 390.770 12.2054   1
   5  -1  11 90.1202 10.9746  -2
   5   1  12 90.1202 10.9746   1
   5   1  12 45.2799 4.72716   1
   6   1  12 47.1919 6.69307   1
   7  -1  11 53.4583 13.6694  -2
   7   1  12 53.4583 13.6694   1
  -5   2  12 91.3013 10.1789   1
  -4   2  12 17.7142 3.59004   1
  -3   2  12 91.1598 5.62875   1
  -2   2  12 85.7254 5.23415   1
  -1   2  12 58.5792 4.41956   1
   0   2  12 172.292 6.60623   1
   1   2  12 9.11307 2.39165   1
   2   2  12 0.49177 2.06825   1
   3   2  12 134.498 5.54469   1
   4   2  12 48.5052 3.69305   1
   5   2  12 376.261 11.2826   1
   6   2  12 71.3929 7.70693   1
   7   2  12 40.7069 7.44737   1
   8   2  12 6.97942 6.08270   1
  -6  -3   9 69.5139 13.1241  -2
  -5   3  12 69.5139 13.1241   1
  -5  -3   9 142.170 8.85531  -2
  -4   3  12 142.170 8.85531   1
  -4  -3   9 40.4192 6.63171  -2
  -3   3  12 40.4192 6.63171   1
  -3  -3   9 215.467 9.19515  -2
  -2   3  12 215.467 9.19515   1
  -2  -3   9 451.985 13.9098  -2
  -1   3  12 451.985 13.9098   1
  -1  -3   9 260.320 9.68923  -2
   0   3  12 260.320 9.68923   1
   0  -3   9 301.719 10.4026  -2
   1   3  12 301.719 10.4026   1
   1  -3   9 90.2355 6.23018  -2
   2   3  12 90.2355 6.23018   1
   2  -3   9 11.9387 5.19919  -2
   3   3  12 11.9387 5.19919   1
   3  -3   9 377.915 11.7227  -2
   4   3  12 377.915 11.7227   1
   5   3  12 19.8506 3.75396   1
   4  -3   9 54.3937 6.30990  -2
   5   3  12 54.3937 6.30990   1
   5  -3   9 641.270 27.4693  -2
   6   3  12 641.270 27.4693   1
   6  -3   9 103.542 12.5775  -2
   7   3  12 103.542 12.5775   1
   7  -3   9 -5.5255 12.4751  -2
   8   3  12 -5.5255 12.4751   1
  -6  -4   8 115.204 10.6783  -2
  -5   4  12 115.204 10.6783   1
  -5  -4   8 28.3273 5.18796  -2
  -4   4  12 28.3273 5.18796   1
  -4  -4   8 182.271 7.72068  -2
  -3   4  12 182.271 7.72068   1
  -3  -4   8 19.7278 4.36047  -2
  -2   4  12 19.7278 4.36047   1
  -2  -4   8 226.632 8.15386  -2
  -1   4  12 226.632 8.15386   1
  -1  -4   8 722.577 19.3510  -2
   0   4  12 722.577 19.3510   1
   0  -4   8 19.2115 3.97009  -2
   1   4  12 19.2115 3.97009   1
   1  -4   8 124.495 5.61131  -2
   2   4  12 124.495 5.61131   1
   2  -4   8 243.331 8.29428  -2
   3   4  12 243.331 8.29428   1
   3  -4   8 222.719 7.88404  -2
   4   4  12 222.719 7.88404   1
   4  -4   8 342.171 15.5590  -2
   5   4  12 342.171 15.5590   1
   5  -4   8 33.2053 6.41105  -2
   6   4  12 33.2053 6.41105   1
  -5  -5   7 244.867 11.2296  -2
  -4   5  12 244.867 11.2296   1
  -4  -5   7 14.1616 6.97041  -2
  -3   5  12 14.1616 6.97041   1
  -3  -5   7 108.487 7.76120  -2
  -2   5  12 108.487 7.76120   1
  -2  -5   7 63.2307 6.62191  -2
  -1   5  12 63.2307 6.62191   1
  -1  -5   7 27.5166 6.07344  -2
   0   5  12 27.5166 6.07344   1
   0  -5   7 367.220 11.8523  -2
   1   5  12 367.220 11.8523   1
   1  -5   7 8.99954 5.75824  -2
   2   5  12 8.99954 5.75824   1
   2  -5   7 689.068 19.0399  -2
   3   5  12 689.068 19.0399   1
   3  -5   7 121.622 11.2375  -2
   4   5  12 121.622 11.2375   1
   4  -5   7 90.5515 10.8507  -2
   5   5  12 90.5515 10.8507   1
   5  -5   7 242.822 14.6742  -2
   6   5  12 242.822 14.6742   1
   6  -5   7 -13.715 18.0281  -2
   7   5  12 -13.715 18.0281   1
  -4   6  12 17.8218 5.06731   1
  -3   6  12 78.8337 6.24597   1
  -2   6  12 6.77664 3.97404   1
  -1   6  12 16.0219 3.97521   1
   0   6  12 183.580 7.74173   1
   1   6  12 170.849 7.35028   1
   2   6  12 199.740 7.81381   1
   3   6  12 118.832 6.04176   1
   4   6  12 265.835 13.8453   1
   5   6  12 80.6384 9.01423   1
   6   6  12 4.17080 5.60339   1
   7   6  12 49.3366 7.19730   1
  -4  -7   5 75.6821 8.90596  -2
  -2   7  12 75.6821 8.90596   1
  -3  -7   5 37.7866 8.47239  -2
  -1   7  12 37.7866 8.47239   1
  -2  -7   5 22.2086 7.83651  -2
   0   7  12 22.2086 7.83651   1
  -1  -7   5 519.047 16.3754  -2
   1   7  12 519.047 16.3754   1
   0  -7   5 72.4321 7.93423  -2
   2   7  12 72.4321 7.93423   1
   1  -7   5 335.361 12.0850  -2
   3   7  12 335.361 12.0850   1
   2  -7   5 17.1577 12.5113  -2
   4   7  12 17.1577 12.5113   1
   3  -7   5 13.3003 12.5591  -2
   5   7  12 13.3003 12.5591   1
   4  -7   5 388.577 21.2311  -2
   6   7  12 388.577 21.2311   1
   5  -7   5 19.2548 12.5303  -2
   7   7  12 19.2548 12.5303   1
   7   7  12 28.9349 9.58756   1
  -4  -8   4 27.4429 6.24685  -2
  -2   8  12 27.4429 6.24685   1
  -3  -8   4 286.680 10.7559  -2
  -1   8  12 286.680 10.7559   1
  -2  -8   4 76.7216 6.51705  -2
   0   8  12 76.7216 6.51705   1
  -1  -8   4 39.6018 5.93848  -2
   1   8  12 39.6018 5.93848   1
   0  -8   4 245.293 9.81030  -2
   2   8  12 245.293 9.81030   1
   1  -8   4 6.72609 8.39342  -2
   3   8  12 6.72609 8.39342   1
   2  -8   4 56.3657 9.86152  -2
   4   8  12 56.3657 9.86152   1
   3  -8   4 28.4663 10.8049  -2
   5   8  12 28.4663 10.8049   1
  -3  -9   3 19.8748 10.6365  -2
  -1   9  12 19.8748 10.6365   1
  -2  -9   3 143.785 9.88785  -2
   0   9  12 143.785 9.88785   1
  -1  -9   3 64.3262 8.64441  -2
   1   9  12 64.3262 8.64441   1
   0  -9   3 34.9046 11.9016  -2
   2   9  12 34.9046 11.9016   1
   1  -9   3 92.3638 13.3680  -2
   3   9  12 92.3638 13.3680   1
   2  -9   3 53.7056 16.7932  -2
   4   9  12 53.7056 16.7932   1
  -1   4  17 115.149 9.39680  -2
  -2  -4  13 115.149 9.39680   1
   0   4  17 46.9973 4.81418  -2
  -1  -4  13 46.9973 4.81418   1
   1   4  17 7.54285 3.48954  -2
   0  -4  13 7.54285 3.48954   1
   2   4  17 150.012 7.25978  -2
   1  -4  13 150.012 7.25978   1
   3   4  17 9.21752 3.41811  -2
   2  -4  13 9.21752 3.41811   1
   4   4  17 69.2246 5.83533  -2
   3  -4  13 69.2246 5.83533   1
  -3  -3  13 132.665 10.4487   1
  -1   3  16 -0.4976 10.9735  -2
  -2  -3  13 -0.4976 10.9735   1
  -2  -3  13 2.58028 4.04606   1
   0   3  16 50.0790 6.30097  -2
  -1  -3  13 50.0790 6.30097   1
   1   3  16 37.8326 6.54363  -2
   0  -3  13 37.8326 6.54363   1
   2   3  16 10.0901 6.27082  -2
   1  -3  13 10.0901 6.27082   1
   3   3  16 485.627 15.3804  -2
   2  -3  13 485.627 15.3804   1
   4   3  16 51.4876 6.87359  -2
   3  -3  13 51.4876 6.87359   1
   5   3  16 109.338 7.63404  -2
   4  -3  13 109.338 7.63404   1
  -3  -2  13 3.59497 3.39323   1
  -2  -2  13 52.0040 3.79463   1
  -1  -2  13 5.96651 2.40194   1
   0  -2  13 17.3737 2.44626   1
   1  -2  13 312.723 10.3325   1
   2  -2  13 8.11016 2.92996   1
   3  -2  13 130.295 6.42920   1
   4  -2  13 38.9406 3.91683   1
   5  -2  13 5.80065 3.08653   1
   6  -2  13 45.9013 5.03093   1
  -4   1  14 8.79682 12.3592  -2
  -4  -1  13 8.79682 12.3592   1
  -3   1  14 154.334 9.52842  -2
  -3  -1  13 154.334 9.52842   1
  -2   1  14 75.1224 5.53927  -2
  -2  -1  13 75.1224 5.53927   1
  -1   1  14 75.8376 5.41554  -2
  -1  -1  13 75.8376 5.41554   1
   0   1  14 151.483 7.33436  -2
   0  -1  13 151.483 7.33436   1
   1  -1  13 81.3097 4.56962   1
   1   1  14 111.633 9.41195  -2
   1  -1  13 111.633 9.41195   1
   2   1  14 1046.36 27.8206  -2
   2  -1  13 1046.36 27.8206   1
   3   1  14 12.4185 5.40850  -2
   3  -1  13 12.4185 5.40850   1
   4   1  14 42.7023 5.66421  -2
   4  -1  13 42.7023 5.66421   1
   5   1  14 154.623 7.97100  -2
   5  -1  13 154.623 7.97100   1
   6   1  14 19.6873 5.99070  -2
   6  -1  13 19.6873 5.99070   1
  -4   0  13 91.3981 6.72603  -2
  -4   0  13 91.3981 6.72603   1
  -3   0  13 6.94136 2.70280  -2
  -3   0  13 6.94136 2.70280   1
  -2   0  13 140.555 5.22817  -2
  -2   0  13 140.555 5.22817   1
  -1   0  13 40.2192 3.34986  -2
  -1   0  13 40.2192 3.34986   1
   0   0  13 316.257 8.10671  -2
   0   0  13 316.257 8.10671   1
   1   0  13 639.762 14.3093  -2
   1   0  13 639.762 14.3093   1
   2   0  13 7.29806 2.13681  -2
   2   0  13 7.29806 2.13681   1
   3   0  13 163.114 6.70461  -2
   3   0  13 163.114 6.70461   1
   4   0  13 18.4479 2.93111  -2
   4   0  13 18.4479 2.93111   1
   5   0  13 67.9430 4.76178  -2
   5   0  13 67.9430 4.76178   1
   6   0  13 163.962 7.09282  -2
   6   0  13 163.962 7.09282   1
   7   0  13 -1.4495 5.67823  -2
   7   0  13 -1.4495 5.67823   1
  -4  -1  12 15.3790 10.7711  -2
  -4   1  13 15.3790 10.7711   1
  -3  -1  12 302.432 11.0716  -2
  -3   1  13 302.432 11.0716   1
  -2  -1  12 3.83485 4.60310  -2
  -2   1  13 3.83485 4.60310   1
  -1  -1  12 145.355 6.04153  -2
  -1   1  13 145.355 6.04153   1
   0   1  13 3.66049 2.30334   1
   1  -1  12 298.841 8.29212  -2
   1   1  13 298.841 8.29212   1
   2  -1  12 334.611 8.90178  -2
   2   1  13 334.611 8.90178   1
   3  -1  12 30.5562 4.37152  -2
   3   1  13 30.5562 4.37152   1
   4  -1  12 294.932 15.4305  -2
   4   1  13 294.932 15.4305   1
   4   1  13 172.736 9.04867   1
   5   1  13 43.1144 5.08352   1
   5  -1  12 66.7751 10.9400  -2
   5   1  13 66.7751 10.9400   1
   6  -1  12 107.836 12.8521  -2
   6   1  13 107.836 12.8521   1
   7  -1  12 241.052 17.9205  -2
   7   1  13 241.052 17.9205   1
  -4   2  13 53.7298 5.00332   1
  -3   2  13 1.88484 2.97289   1
  -2   2  13 150.407 6.73215   1
  -1   2  13 9.50040 2.78419   1
   0   2  13 112.899 5.63521   1
   1   2  13 46.2870 3.90667   1
   2   2  13 3.83618 2.30413   1
   3   2  13 256.918 8.44502   1
   4   2  13 12.3460 2.34738   1
   5   2  13 445.384 13.0850   1
   6   2  13 68.5883 7.66256   1
   7   2  13 17.2646 7.01463   1
   8   2  13 61.2918 8.82297   1
  -5  -3  10 12.1845 7.60448  -2
  -4   3  13 12.1845 7.60448   1
  -4  -3  10 505.295 15.9121  -2
  -3   3  13 505.295 15.9121   1
  -3  -3  10 12.7322 6.40284  -2
  -2   3  13 12.7322 6.40284   1
  -2  -3  10 227.390 9.42695  -2
  -1   3  13 227.390 9.42695   1
  -1  -3  10 22.4954 6.04067  -2
   0   3  13 22.4954 6.04067   1
   1   3  13 73.7815 6.26985   1
   0  -3  10 134.440 11.0169  -2
   1   3  13 134.440 11.0169   1
   1  -3  10 344.362 11.5576  -2
   2   3  13 344.362 11.5576   1
   2  -3  10 13.7704 5.42625  -2
   3   3  13 13.7704 5.42625   1
   4   3  13 509.806 20.7224   1
   3  -3  10 769.667 28.9756  -2
   4   3  13 769.667 28.9756   1
   4  -3  10 83.6223 8.15975  -2
   5   3  13 83.6223 8.15975   1
  -5  -4   9 14.1514 5.40632  -2
  -4   4  13 14.1514 5.40632   1
  -4  -4   9 19.5601 4.88698  -2
  -3   4  13 19.5601 4.88698   1
  -3  -4   9 227.831 8.66006  -2
  -2   4  13 227.831 8.66006   1
  -2  -4   9 35.5102 4.50917  -2
  -1   4  13 35.5102 4.50917   1
  -1  -4   9 337.975 10.7301  -2
   0   4  13 337.975 10.7301   1
   0  -4   9 103.097 5.63897  -2
   1   4  13 103.097 5.63897   1
   1  -4   9 48.3305 4.39731  -2
   2   4  13 48.3305 4.39731   1
   2  -4   9 483.720 13.9703  -2
   3   4  13 483.720 13.9703   1
   3  -4   9 15.2029 4.04844  -2
   4   4  13 15.2029 4.04844   1
   4  -4   9 389.180 17.2870  -2
   5   4  13 389.180 17.2870   1
  -5  -5   8 168.222 10.0102  -2
  -4   5  13 168.222 10.0102   1
  -4  -5   8 87.7069 8.14004  -2
  -3   5  13 87.7069 8.14004   1
  -3  -5   8 45.0752 7.06182  -2
  -2   5  13 45.0752 7.06182   1
  -2  -5   8 199.355 9.12335  -2
  -1   5  13 199.355 9.12335   1
  -1  -5   8 12.9788 6.15778  -2
   0   5  13 12.9788 6.15778   1
   0  -5   8 471.316 14.4392  -2
   1   5  13 471.316 14.4392   1
   1  -5   8 85.2291 6.70798  -2
   2   5  13 85.2291 6.70798   1
   2  -5   8 267.393 10.0881  -2
   3   5  13 267.393 10.0881   1
   3  -5   8 148.408 7.90370  -2
   4   5  13 148.408 7.90370   1
   4  -5   8 63.3988 10.8287  -2
   5   5  13 63.3988 10.8287   1
   5  -5   8 151.969 12.6132  -2
   6   5  13 151.969 12.6132   1
  -4   6  13 -0.3207 6.56401   1
  -3   6  13 67.3794 6.00443   1
  -2   6  13 59.7063 5.51452   1
  -1   6  13 11.1985 3.92645   1
   0   6  13 246.349 9.15326   1
   1   6  13 9.08787 3.54699   1
   2   6  13 72.8974 5.35438   1
   3   6  13 52.8347 4.68427   1
   4   6  13 119.580 10.0028   1
   5   6  13 55.5289 7.79077   1
   6   6  13 7.70247 5.86540   1
   7   6  13 40.4862 7.39433   1
  -3   7  13 17.7171 6.70444   1
  -4  -7   6 -2.6942 8.50928  -2
  -2   7  13 -2.6942 8.50928   1
  -3  -7   6 250.366 11.7705  -2
  -1   7  13 250.366 11.7705   1
  -2  -7   6 12.4709 8.15379  -2
   0   7  13 12.4709 8.15379   1
  -1  -7   6 246.955 11.1986  -2
   1   7  13 246.955 11.1986   1
   0  -7   6 101.597 8.69775  -2
   2   7  13 101.597 8.69775   1
   1  -7   6 28.7661 7.53556  -2
   3   7  13 28.7661 7.53556   1
   2  -7   6 106.767 14.3923  -2
   4   7  13 106.767 14.3923   1
   3  -7   6 8.51981 12.7884  -2
   5   7  13 8.51981 12.7884   1
   4  -7   6 214.207 17.4058  -2
   6   7  13 214.207 17.4058   1
  -4  -8   5 -1.8657 7.80831  -2
  -2   8  13 -1.8657 7.80831   1
  -3  -8   5 24.5514 6.23244  -2
  -1   8  13 24.5514 6.23244   1
  -2  -8   5 347.217 12.1285  -2
   0   8  13 347.217 12.1285   1
  -1  -8   5 9.93761 5.79155  -2
   1   8  13 9.93761 5.79155   1
   0  -8   5 68.3814 6.79784  -2
   2   8  13 68.3814 6.79784   1
   1  -8   5 171.850 12.7477  -2
   3   8  13 171.850 12.7477   1
   2  -8   5 0.87107 9.18715  -2
   4   8  13 0.87107 9.18715   1
   3  -8   5 260.848 16.8178  -2
   5   8  13 260.848 16.8178   1
  -1  -9   4 109.427 9.71740  -2
   1   9  13 109.427 9.71740   1
   0  -9   4 8.05256 12.5619  -2
   2   9  13 8.05256 12.5619   1
  -2  -3  14 31.2867 5.84248   1
   0   3  17 32.3388 9.14770  -2
  -1  -3  14 32.3388 9.14770   1
  -1  -3  14 9.10718 4.18303   1
   1   3  17 84.5949 7.56534  -2
   0  -3  14 84.5949 7.56534   1
   2   3  17 20.5683 6.89898  -2
   1  -3  14 20.5683 6.89898   1
   3   3  17 288.058 11.4814  -2
   2  -3  14 288.058 11.4814   1
   4   3  17 278.329 11.3758  -2
   3  -3  14 278.329 11.3758   1
  -2  -2  14 32.7199 3.42945   1
  -1  -2  14 67.4732 5.05116   1
   0  -2  14 17.2859 2.59972   1
   1  -2  14 19.9770 3.48691   1
   2  -2  14 20.0391 3.61299   1
   3  -2  14 27.3153 3.84316   1
   4  -2  14 192.926 7.94523   1
   5  -2  14 142.080 7.22257   1
  -3   1  15 34.3071 11.8024  -2
  -3  -1  14 34.3071 11.8024   1
  -2   1  15 67.6283 5.83368  -2
  -2  -1  14 67.6283 5.83368   1
  -1   1  15 27.9566 5.95085  -2
  -1  -1  14 27.9566 5.95085   1
   0   1  15 277.794 14.4589  -2
   0  -1  14 277.794 14.4589   1
   0  -1  14 134.247 8.47312   1
   1   1  15 67.3238 9.01445  -2
   1  -1  14 67.3238 9.01445   1
   1  -1  14 56.0648 4.17686   1
   2   1  15 107.540 7.24283  -2
   2  -1  14 107.540 7.24283   1
   3   1  15 135.815 7.70953  -2
   3  -1  14 135.815 7.70953   1
   4   1  15 50.6083 6.26362  -2
   4  -1  14 50.6083 6.26362   1
   5   1  15 253.007 10.2839  -2
   5  -1  14 253.007 10.2839   1
   6   1  15 55.4976 8.88666  -2
   6  -1  14 55.4976 8.88666   1
  -4   0  14 46.9589 8.99721  -2
  -4   0  14 46.9589 8.99721   1
  -3   0  14 10.5421 3.18337  -2
  -3   0  14 10.5421 3.18337   1
  -2   0  14 3.96007 2.87332  -2
  -2   0  14 3.96007 2.87332   1
  -1   0  14 133.767 5.18624  -2
  -1   0  14 133.767 5.18624   1
   0   0  14 39.6925 3.08989  -2
   0   0  14 39.6925 3.08989   1
   1   0  14 1244.77 26.3317  -2
   1   0  14 1244.77 26.3317   1
   2   0  14 5.28437 2.14519  -2
   2   0  14 5.28437 2.14519   1
   3   0  14 44.4039 4.05805  -2
   3   0  14 44.4039 4.05805   1
   4   0  14 38.2836 3.88269  -2
   4   0  14 38.2836 3.88269   1
   5   0  14 8.75434 2.85373  -2
   5   0  14 8.75434 2.85373   1
   6   0  14 268.120 9.70165  -2
   6   0  14 268.120 9.70165   1
  -3  -1  13 126.879 12.5999  -2
  -3   1  14 126.879 12.5999   1
  -3   1  14 43.0297 5.81028   1
  -2  -1  13 64.8060 5.54224  -2
  -2   1  14 64.8060 5.54224   1
  -1  -1  13 68.2342 6.29579  -2
  -1   1  14 68.2342 6.29579   1
   0  -1  13 164.407 6.38924  -2
   0   1  14 164.407 6.38924   1
   1  -1  13 106.320 5.52216  -2
   1   1  14 106.320 5.52216   1
   2  -1  13 1107.85 23.7833  -2
   2   1  14 1107.85 23.7833   1
   3  -1  13 19.3245 5.42795  -2
   3   1  14 19.3245 5.42795   1
   4  -1  13 38.1055 5.85309  -2
   4   1  14 38.1055 5.85309   1
   5  -1  13 158.103 8.02320  -2
   5   1  14 158.103 8.02320   1
   6  -1  13 8.86562 11.3877  -2
   6   1  14 8.86562 11.3877   1
  -4   2  14 119.852 11.0996   1
  -3   2  14 5.81661 3.36794   1
  -2   2  14 122.012 6.44476   1
  -1   2  14 47.0196 4.38209   1
   0   2  14 101.670 5.59899   1
   1   2  14 186.107 7.27850   1
   2   2  14 5.54532 2.54465   1
   3   2  14 57.3311 4.28704   1
   4   2  14 68.5565 6.48275   1
   5   2  14 71.4351 4.83423   1
   6   2  14 79.4432 8.71076   1
   7   2  14 17.8727 6.99000   1
  -4  -3  11 207.912 10.2511  -2
  -3   3  14 207.912 10.2511   1
  -3  -3  11 45.3295 7.08318  -2
  -2   3  14 45.3295 7.08318   1
  -2  -3  11 212.669 9.47076  -2
  -1   3  14 212.669 9.47076   1
  -1  -3  11 37.2171 6.40890  -2
   0   3  14 37.2171 6.40890   1
   0  -3  11 11.1426 5.84699  -2
   1   3  14 11.1426 5.84699   1
   1  -3  11 168.231 8.32205  -2
   2   3  14 168.231 8.32205   1
   2  -3  11 17.9148 5.63586  -2
   3   3  14 17.9148 5.63586   1
   4   3  14 123.236 8.63507   1
   3  -3  11 136.172 10.1515  -2
   4   3  14 136.172 10.1515   1
   5   3  14 323.738 14.1385   1
  -5  -4  10 274.342 14.6216  -2
  -4   4  14 274.342 14.6216   1
  -4  -4  10 36.7848 5.53073  -2
  -3   4  14 36.7848 5.53073   1
  -3  -4  10 151.270 7.39068  -2
  -2   4  14 151.270 7.39068   1
  -2  -4  10 6.14618 4.30139  -2
  -1   4  14 6.14618 4.30139   1
  -1  -4  10 100.932 5.88588  -2
   0   4  14 100.932 5.88588   1
   0  -4  10 286.403 9.69089  -2
   1   4  14 286.403 9.69089   1
   1  -4  10 13.8061 4.02081  -2
   2   4  14 13.8061 4.02081   1
   2  -4  10 225.341 8.26829  -2
   3   4  14 225.341 8.26829   1
   3  -4  10 45.8199 4.86011  -2
   4   4  14 45.8199 4.86011   1
   4  -4  10 199.281 11.5954  -2
   5   4  14 199.281 11.5954   1
  -4  -5   9 386.752 14.0435  -2
  -3   5  14 386.752 14.0435   1
  -3  -5   9 14.7046 6.92496  -2
  -2   5  14 14.7046 6.92496   1
  -2  -5   9 25.1362 6.66697  -2
  -1   5  14 25.1362 6.66697   1
  -1  -5   9 10.0974 6.42128  -2
   0   5  14 10.0974 6.42128   1
   0  -5   9 239.230 9.74302  -2
   1   5  14 239.230 9.74302   1
   1  -5   9 681.891 19.2807  -2
   2   5  14 681.891 19.2807   1
   2  -5   9 40.4563 6.48245  -2
   3   5  14 40.4563 6.48245   1
   3  -5   9 324.934 11.6506  -2
   4   5  14 324.934 11.6506   1
   4  -5   9 10.9820 10.4751  -2
   5   5  14 10.9820 10.4751   1
  -3   6  14 33.5755 6.22449   1
  -2   6  14 98.5780 6.96845   1
  -1   6  14 14.7620 4.16007   1
   0   6  14 15.7287 3.96118   1
   1   6  14 66.9276 5.24187   1
   2   6  14 7.47748 3.40205   1
   3   6  14 167.053 7.37427   1
   4   6  14 7.22245 4.45988   1
   5   6  14 85.5133 9.85999   1
   6   6  14 9.84447 5.92717   1
   7   6  14 2.46513 9.76119   1
  -2   7  14 29.6996 9.37971   1
  -3  -7   7 50.0860 9.31438  -2
  -1   7  14 50.0860 9.31438   1
  -2  -7   7 82.9444 9.21172  -2
   0   7  14 82.9444 9.21172   1
  -1  -7   7 54.1142 8.35580  -2
   1   7  14 54.1142 8.35580   1
   0  -7   7 109.244 9.18203  -2
   2   7  14 109.244 9.18203   1
   1  -7   7 -5.6425 7.54680  -2
   3   7  14 -5.6425 7.54680   1
   2  -7   7 116.315 15.0581  -2
   4   7  14 116.315 15.0581   1
   3  -7   7 7.89564 13.7543  -2
   5   7  14 7.89564 13.7543   1
   4  -7   7 69.7896 14.6442  -2
   6   7  14 69.7896 14.6442   1
  -2  -8   6 306.588 11.5064  -2
   0   8  14 306.588 11.5064   1
  -1  -8   6 122.436 7.70962  -2
   1   8  14 122.436 7.70962   1
   0  -8   6 7.52494 6.02216  -2
   2   8  14 7.52494 6.02216   1
   1  -8   6 22.9414 9.64361  -2
   3   8  14 22.9414 9.64361   1
   2  -8   6 -7.0152 9.44147  -2
   4   8  14 -7.0152 9.44147   1
  -1  -2  15 71.6064 4.58408   1
   0  -2  15 6.89266 3.25823   1
   1  -2  15 57.4048 4.95017   1
   2  -2  15 88.8740 6.03736   1
   3  -2  15 18.1608 3.67262   1
   4  -2  15 31.7249 4.39236   1
  -2   1  16 207.278 15.9017  -2
  -2  -1  15 207.278 15.9017   1
  -1   1  16 8.86776 6.00288  -2
  -1  -1  15 8.86776 6.00288   1
   0  -1  15 79.8978 6.96865   1
   0   1  16 135.614 8.04565  -2
   0  -1  15 135.614 8.04565   1
   1   1  16 85.0982 7.31081  -2
   1  -1  15 85.0982 7.31081   1
   2   1  16 88.5724 7.46241  -2
   2  -1  15 88.5724 7.46241   1
   3   1  16 422.888 13.9986  -2
   3  -1  15 422.888 13.9986   1
   4   1  16 107.914 7.63110  -2
   4  -1  15 107.914 7.63110   1
   5   1  16 48.0608 6.80100  -2
   5  -1  15 48.0608 6.80100   1
  -3   0  15 3.44106 7.54505  -2
  -3   0  15 3.44106 7.54505   1
  -2   0  15 2.60505 3.14481  -2
  -2   0  15 2.60505 3.14481   1
  -1   0  15 476.526 14.2322  -2
  -1   0  15 476.526 14.2322   1
   0   0  15 4.23299 2.26201  -2
   0   0  15 4.23299 2.26201   1
   1   0  15 61.3731 4.01632  -2
   1   0  15 61.3731 4.01632   1
   2   0  15 27.7185 3.72836  -2
   2   0  15 27.7185 3.72836   1
   3   0  15 3.58582 2.75513  -2
   3   0  15 3.58582 2.75513   1
   4   0  15 224.168 8.41648  -2
   4   0  15 224.168 8.41648   1
   5   0  15 392.658 12.5472  -2
   5   0  15 392.658 12.5472   1
   6   0  15 330.561 11.3652  -2
   6   0  15 330.561 11.3652   1
  -3   1  15 2.66171 3.91216   1
  -2  -1  14 68.4070 10.8504  -2
  -2   1  15 68.4070 10.8504   1
  -2   1  15 42.1958 5.87480   1
  -1  -1  14 29.6392 6.16047  -2
  -1   1  15 29.6392 6.16047   1
   0  -1  14 315.236 11.3822  -2
   0   1  15 315.236 11.3822   1
   1  -1  14 85.4632 10.1479  -2
   1   1  15 85.4632 10.1479   1
   1   1  15 42.9723 5.74700   1
   2  -1  14 92.1176 5.60703  -2
   2   1  15 92.1176 5.60703   1
   3  -1  14 149.714 7.70706  -2
   3   1  15 149.714 7.70706   1
   4  -1  14 50.6173 6.19274  -2
   4   1  15 50.6173 6.19274   1
   5  -1  14 241.085 9.99275  -2
   5   1  15 241.085 9.99275   1
   6   1  15 16.3547 5.77931   1
  -3   2  15 12.1435 3.62879   1
  -2   2  15 5.89083 3.24444   1
  -1   2  15 68.4308 5.26993   1
   0   2  15 3.41457 2.83658   1
   1   2  15 108.623 5.76125   1
   2   2  15 37.2098 3.88283   1
   3   2  15 6.29871 2.75646   1
   4   2  15 311.681 14.2045   1
   5   2  15 15.8907 3.32067   1
   6   2  15 95.0286 10.5484   1
   7   2  15 44.6055 12.1721   1
  -4  -3  12 65.8511 10.5703  -2
  -3   3  15 65.8511 10.5703   1
  -3  -3  12 176.063 9.44216  -2
  -2   3  15 176.063 9.44216   1
  -2  -3  12 144.483 8.75314  -2
  -1   3  15 144.483 8.75314   1
  -1  -3  12 61.6200 7.22829  -2
   0   3  15 61.6200 7.22829   1
   0  -3  12 8.57944 6.34278  -2
   1   3  15 8.57944 6.34278   1
   2   3  15 90.9708 7.70381   1
   1  -3  12 144.389 12.0579  -2
   2   3  15 144.389 12.0579   1
   2  -3  12 655.033 18.7460  -2
   3   3  15 655.033 18.7460   1
   3  -3  12 9.80857 5.92632  -2
   4   3  15 9.80857 5.92632   1
   5   3  15 227.469 11.3470   1
  -4  -4  11 6.95611 6.81121  -2
  -3   4  15 6.95611 6.81121   1
  -3  -4  11 62.9544 5.79766  -2
  -2   4  15 62.9544 5.79766   1
  -2  -4  11 175.755 7.73482  -2
  -1   4  15 175.755 7.73482   1
  -1  -4  11 79.9530 5.58290  -2
   0   4  15 79.9530 5.58290   1
   0  -4  11 326.952 10.8111  -2
   1   4  15 326.952 10.8111   1
   1  -4  11 10.1237 4.28435  -2
   2   4  15 10.1237 4.28435   1
   2  -4  11 24.2755 4.44048  -2
   3   4  15 24.2755 4.44048   1
   3  -4  11 228.862 8.66355  -2
   4   4  15 228.862 8.66355   1
  -3  -5  10 78.5395 8.30262  -2
  -2   5  15 78.5395 8.30262   1
  -2  -5  10 22.0197 7.05167  -2
  -1   5  15 22.0197 7.05167   1
  -1  -5  10 156.737 8.95326  -2
   0   5  15 156.737 8.95326   1
   0  -5  10 37.3170 6.72418  -2
   1   5  15 37.3170 6.72418   1
   1  -5  10 542.301 16.4545  -2
   2   5  15 542.301 16.4545   1
   2  -5  10 51.7860 6.90248  -2
   3   5  15 51.7860 6.90248   1
   3  -5  10 21.0263 6.42404  -2
   4   5  15 21.0263 6.42404   1
   4  -5  10 131.991 13.3654  -2
   5   5  15 131.991 13.3654   1
  -2   6  15 -4.8301 4.67181   1
  -1   6  15 22.7006 4.55109   1
   0   6  15 10.2766 3.88173   1
   1   6  15 292.970 10.5459   1
   2   6  15 6.36055 3.67867   1
   3   6  15 144.041 7.11446   1
   4   6  15 20.3774 4.34644   1
   5   6  15 71.2305 9.01565   1
   6   6  15 101.488 10.2243   1
  -1   7  15 0.60403 7.55051   1
  -2  -7   8 78.2626 9.47217  -2
   0   7  15 78.2626 9.47217   1
  -1  -7   8 1.71528 8.49672  -2
   1   7  15 1.71528 8.49672   1
   0  -7   8 283.886 12.4727  -2
   2   7  15 283.886 12.4727   1
   1  -7   8 8.70921 7.90488  -2
   3   7  15 8.70921 7.90488   1
   2  -7   8 114.978 15.0294  -2
   4   7  15 114.978 15.0294   1
   3  -7   8 225.518 18.1836  -2
   5   7  15 225.518 18.1836   1
  -1  -8   7 119.674 10.4476  -2
   1   8  15 119.674 10.4476   1
   0  -8   7 -2.0723 9.12720  -2
   2   8  15 -2.0723 9.12720   1
   0  -1  16 18.6222 3.29202   1
   0   1  17 43.2518 10.0759  -2
   0  -1  16 43.2518 10.0759   1
   1   1  17 175.698 9.20724  -2
   1  -1  16 175.698 9.20724   1
   2   1  17 26.0958 6.76568  -2
   2  -1  16 26.0958 6.76568   1
   3   1  17 199.584 9.71318  -2
   3  -1  16 199.584 9.71318   1
   4  -1  16 1.60536 4.18811   1
  -2   0  16 18.4190 5.45211  -2
  -2   0  16 18.4190 5.45211   1
  -1   0  16 129.413 5.46136  -2
  -1   0  16 129.413 5.46136   1
   0   0  16 236.483 7.23120  -2
   0   0  16 236.483 7.23120   1
   1   0  16 77.1788 4.51208  -2
   1   0  16 77.1788 4.51208   1
   2   0  16 138.906 6.86963  -2
   2   0  16 138.906 6.86963   1
   3   0  16 10.3441 3.16389  -2
   3   0  16 10.3441 3.16389   1
   4   0  16 2.77763 3.19539  -2
   4   0  16 2.77763 3.19539   1
   5   0  16 12.6713 5.00071  -2
   5   0  16 12.6713 5.00071   1
  -2  -1  15 211.515 13.3810  -2
  -2   1  16 211.515 13.3810   1
  -1  -1  15 5.19707 6.36301  -2
  -1   1  16 5.19707 6.36301   1
   0  -1  15 128.371 8.09457  -2
   0   1  16 128.371 8.09457   1
   1  -1  15 86.5277 7.42727  -2
   1   1  16 86.5277 7.42727   1
   2  -1  15 71.1947 10.3205  -2
   2   1  16 71.1947 10.3205   1
   3  -1  15 437.055 19.9235  -2
   3   1  16 437.055 19.9235   1
   3   1  16 278.415 13.8478   1
   4  -1  15 91.7764 9.94819  -2
   4   1  16 91.7764 9.94819   1
   4   1  16 44.0593 5.96269   1
   5  -1  15 32.0544 8.48884  -2
   5   1  16 32.0544 8.48884   1
   5   1  16 24.1696 5.55211   1
   6   1  16 28.9700 6.65291   1
  -2   2  16 0.41726 3.17842   1
  -1   2  16 125.810 6.80120   1
   0   2  16 2.36533 2.97115   1
   1   2  16 2.32191 2.81880   1
   2   2  16 115.278 6.10900   1
   3   2  16 2.73037 2.86149   1
   4   2  16 290.035 13.8110   1
   5   2  16 58.7809 6.37837   1
  -2  -3  13 2.95680 7.22636  -2
  -1   3  16 2.95680 7.22636   1
  -1  -3  13 56.1409 7.47373  -2
   0   3  16 56.1409 7.47373   1
   0  -3  13 31.9866 7.08862  -2
   1   3  16 31.9866 7.08862   1
   1  -3  13 -4.2692 9.88053  -2
   2   3  16 -4.2692 9.88053   1
   2   3  16 -0.0638 3.60125   1
   2  -3  13 551.534 16.6474  -2
   3   3  16 551.534 16.6474   1
   3  -3  13 31.9183 9.47979  -2
   4   3  16 31.9183 9.47979   1
   4  -3  13 101.007 9.85639  -2
   5   3  16 101.007 9.85639   1
  -2  -4  12 140.611 7.24466  -2
  -1   4  16 140.611 7.24466   1
  -1  -4  12 0.43947 4.49538  -2
   0   4  16 0.43947 4.49538   1
   0  -4  12 135.450 7.03617  -2
   1   4  16 135.450 7.03617   1
   1  -4  12 274.273 9.82144  -2
   2   4  16 274.273 9.82144   1
   2  -4  12 17.6722 4.57849  -2
   3   4  16 17.6722 4.57849   1
   3  -4  12 272.684 9.85680  -2
   4   4  16 272.684 9.85680   1
  -2  -5  11 11.5410 7.20650  -2
  -1   5  16 11.5410 7.20650   1
  -1  -5  11 148.699 9.13632  -2
   0   5  16 148.699 9.13632   1
   0  -5  11 0.35522 6.58795  -2
   1   5  16 0.35522 6.58795   1
   1  -5  11 336.810 12.4621  -2
   2   5  16 336.810 12.4621   1
   2  -5  11 222.424 10.1539  -2
   3   5  16 222.424 10.1539   1
   3  -5  11 17.2692 6.75564  -2
   4   5  16 17.2692 6.75564   1
   4  -5  11 82.5795 13.0098  -2
   5   5  16 82.5795 13.0098   1
   0   6  16 7.38821 3.84252   1
   1   6  16 135.914 7.42001   1
   2   6  16 20.7081 4.03687   1
   3   6  16 20.2475 4.20295   1
   4   6  16 40.9544 5.22529   1
   5   6  16 6.73211 6.23167   1
   6   6  16 13.6714 11.3124   1
   0  -7   9 77.2157 12.0762  -2
   2   7  16 77.2157 12.0762   1
   1  -7   9 83.7777 11.8918  -2
   3   7  16 83.7777 11.8918   1
   0   0  17 393.067 18.5598  -2
   0   0  17 393.067 18.5598   1
   1   0  17 7.55047 3.60530  -2
   1   0  17 7.55047 3.60530   1
   2   0  17 159.392 8.60296  -2
   2   0  17 159.392 8.60296   1
   3   0  17 16.9410 4.93476  -2
   3   0  17 16.9410 4.93476   1
   4   0  17 130.323 10.6637  -2
   4   0  17 130.323 10.6637   1
   0  -1  16 47.4138 11.7625  -2
   0   1  17 47.4138 11.7625   1
   1  -1  16 184.196 9.62965  -2
   1   1  17 184.196 9.62965   1
   2  -1  16 -7.6965 9.11212  -2
   2   1  17 -7.6965 9.11212   1
   3  -1  16 192.024 13.5706  -2
   3   1  17 192.024 13.5706   1
   0   2  17 107.814 6.43235   1
   1   2  17 39.0716 4.33392   1
   2   2  17 113.660 6.33924   1
   3   2  17 30.3768 5.84445   1
   4   2  17 7.05837 4.16469   1
   5   2  17 -2.0680 3.49864   1
  -1  -3  14 27.5262 12.0185  -2
   0   3  17 27.5262 12.0185   1
   0   3  17 14.4244 4.89920   1
   0  -3  14 83.9543 8.08251  -2
   1   3  17 83.9543 8.08251   1
   2   3  17 11.5022 4.54033   1
   1  -3  14 11.4846 10.9101  -2
   2   3  17 11.4846 10.9101   1
   2  -3  14 318.072 11.8814  -2
   3   3  17 318.072 11.8814   1
   3  -3  14 287.469 16.4343  -2
   4   3  17 287.469 16.4343   1
   4  -3  14 20.5519 9.35289  -2
   5   3  17 20.5519 9.35289   1
  -1  -4  13 43.8274 5.60796  -2
   0   4  17 43.8274 5.60796   1
   0  -4  13 0.10568 4.84881  -2
   1   4  17 0.10568 4.84881   1
   1  -4  13 170.176 7.74906  -2
   2   4  17 170.176 7.74906   1
   2  -4  13 11.9619 4.61431  -2
   3   4  17 11.9619 4.61431   1
   3  -4  13 64.7521 5.82179  -2
   4   4  17 64.7521 5.82179   1
   0  -5  12 54.5898 7.72861  -2
   1   5  17 54.5898 7.72861   1
   1  -5  12 21.2933 9.51503  -2
   2   5  17 21.2933 9.51503   1
   2  -5  12 319.360 12.2386  -2
   3   5  17 319.360 12.2386   1
   3  -5  12 14.6019 7.32979  -2
   4   5  17 14.6019 7.32979   1
   1   6  17 31.8932 7.55482   1
   2   6  17 157.221 8.11618   1
   3   6  17 3.20167 3.89370   1
   4   6  17 43.6004 6.58040   1
   1   2  18 18.3777 6.20852   1
   2   2  18 11.3868 5.42421   1
   0   0   0    0.00    0.00   0
;
_shelx_hkl_checksum              28781
_shelx_res_file
;
    3_5.res created by SHELXL-2014/7
TITL mo_lbn3_0m_5_a.res in P-1
REM Old TITL mo_lbn3_0m_5.hkl
REM SHELXT solution in P-1
REM R1 0.129,  Rweak 0.020,  Alpha 0.070,  Orientation as input
REM Formula found by SHELXT:  S2 Cu C18 O16
CELL  0.71073   6.4380   7.2431  12.0884   72.599   77.196   82.131
ZERR    1.000   0.0013   0.0014   0.0024    0.030    0.030    0.030
LATT  1
SFAC H S CU C O
UNIT 22 2 1 14 16
L.S. 10
ACTA 52
OMIT 0 0 1
BOND $H
SADI O7 H71 O7 H72 O8 H81 O8 H82 O6 H61 O6 H62
SADI H81 H82 H61 H62 H71 H72
LIST 6
HTAB O5 O8
EQIV $1 -x+2, -y+1, -z+1
HTAB O6 O1_$1
EQIV $2 x, y, z-1
HTAB O6 O2_$2
EQIV $3 -x+1, -y+1, -z+1
HTAB O6 O2_$3
EQIV $4 x, y+1, z-1
HTAB O7 O2_$4
HTAB O7 O4
EQIV $5 -x+1, -y+2, -z+1
HTAB O8 O3_$5
HTAB O8 O1_$3
FMAP 2
PLAN 20
WGHT    0.033200    2.049000
BASF   0.47690
FVAR       0.98220
CU1   3    0.500000    1.000000    0.000000    10.50000    0.01263    0.00841 =
         0.00766   -0.00159   -0.00533   -0.00022
S1    2    0.899920    0.537602    0.828650    11.00000    0.01042    0.01349 =
         0.00971   -0.00369   -0.00372    0.00053
O1    5    1.019143    0.351688    0.821656    11.00000    0.01548    0.02169 =
         0.01834   -0.00987   -0.00859    0.00478
O2    5    0.715864    0.512206    0.926304    11.00000    0.01240    0.01299 =
         0.00803   -0.00134   -0.00212   -0.00084
O3    5    1.034011    0.682501    0.829141    11.00000    0.01467    0.01323 =
         0.02311   -0.00778   -0.00305   -0.00409
O4    5    0.692994    0.943217    0.284370    11.00000    0.02452    0.03177 =
         0.01184    0.00172   -0.00600   -0.00110
O5    5    0.377233    0.818141    0.377828    11.00000    0.02658    0.03659 =
         0.01472   -0.00289   -0.01239   -0.00152
H5O   1    0.333158    0.874188    0.312767    11.00000   -1.50000
O6    5    0.635802    0.747533    0.072016    11.00000    0.01780    0.00990 =
         0.01477   -0.00448   -0.00731    0.00145
H61   1    0.744396    0.732675    0.102000    11.00000   -1.50000
H62   1    0.639178    0.655976    0.042043    11.00000   -1.50000
O7    5    0.674125    1.129052    0.061897    11.00000    0.02025    0.01403 =
         0.01146   -0.00015   -0.00867   -0.00765
H71   1    0.700041    1.244541    0.034943    11.00000   -1.50000
H72   1    0.705635    1.082245    0.128408    11.00000   -1.50000
O8    5    0.211220    0.955724    0.181864    11.00000    0.01225    0.01313 =
         0.01436   -0.00479   -0.00438   -0.00026
H81   1    0.123621    1.055527    0.174993    11.00000   -1.50000
H82   1    0.142933    0.862598    0.185642    11.00000   -1.50000
C1    4    0.795418    0.628709    0.696814    11.00000    0.01290    0.02873 =
         0.00879   -0.00556   -0.00378    0.00151
Part 1
C2A   4    0.606382    0.584399    0.690010    10.50000    0.01060
AFIX  43
H2A   1    0.521765    0.509536    0.756654    10.50000   -1.20000
AFIX   0
C3A   4    0.533845    0.649549    0.583360    10.50000    0.01337
AFIX  43
H3A   1    0.405919    0.610234    0.577701    10.50000   -1.20000
AFIX   0
Part 2
C2B   4    0.572702    0.650472    0.701730    10.50000    0.01577
AFIX  43
H2B   1    0.477421    0.619643    0.773520    10.50000   -1.20000
AFIX   0
C3B   4    0.500607    0.719836    0.595131    10.50000    0.01725
AFIX  43
H3B   1    0.355053    0.732528    0.594695    10.50000   -1.20000
AFIX   0
PART 0
C4    4    0.650279    0.771215    0.486912    11.00000    0.01846    0.01882 =
         0.00902   -0.00509   -0.00448    0.00535
Part 1
C5A   4    0.852896    0.832445    0.494534    10.50000    0.01443
AFIX  43
H5A   1    0.932538    0.913993    0.428793    10.50000   -1.20000
AFIX   0
C6A   4    0.924705    0.768376    0.599801    10.50000    0.01562
AFIX  43
H6A   1    1.047944    0.810793    0.609256    10.50000   -1.20000
AFIX   0
Part 2
C5B   4    0.856098    0.712713    0.486513    10.50000    0.01742
AFIX  43
H5B   1    0.950750    0.728875    0.414583    10.50000   -1.20000
AFIX   0
C6B   4    0.933169    0.628426    0.590285    10.50000    0.01834
AFIX  43
H6B   1    1.072681    0.573393    0.588711    10.50000   -1.20000
AFIX   0
Part 0
C7    4    0.575389    0.855965    0.372469    11.00000    0.02591    0.01178 =
         0.01146   -0.00579   -0.00754    0.00165
HKLF 5
REM  mo_lbn3_0m_5_a.res in P-1
REM R1 =  0.0585 for    3370 Fo > 4sig(Fo)  and  0.0672 for all    3738 data
REM    169 parameters refined using     18 restraints
END
WGHT      0.0325      2.0549
REM Highest difference peak  0.841,  deepest hole -1.192,  1-sigma level  0.156
Q1    1   0.9168  0.7084  0.8256  11.00000  0.05    0.84
Q2    1   0.0843  1.1556  0.1973  11.00000  0.05    0.75
Q3    1   0.4275  1.0595 -0.1027  11.00000  0.05    0.71
Q4    1   0.5008  0.7162  0.0254  11.00000  0.05    0.71
Q5    1   0.4922  0.8319 -0.0007  11.00000  0.05    0.70
Q6    1   0.7905  0.5201  0.8785  11.00000  0.05    0.68
Q7    1   0.9349  0.7035  0.5931  11.00000  0.05    0.68
Q8    1   0.3853  0.9519  0.0351  11.00000  0.05    0.67
Q9    1   0.9259  0.8468  0.6031  11.00000  0.05    0.64
Q10   1  -0.0576  1.0910  0.1505  11.00000  0.05    0.61
Q11   1   0.5779  0.6959  0.3618  11.00000  0.05    0.60
Q12   1   0.6927  0.6899  0.6888  11.00000  0.05    0.56
Q13   1  -0.0291  1.1279  0.2014  11.00000  0.05    0.53
Q14   1   0.0164  1.0143  0.1988  11.00000  0.05    0.52
Q15   1   0.8900  1.0363  0.2154  11.00000  0.05    0.51
Q16   1   0.6415  0.5885  0.8996  11.00000  0.05    0.50
Q17   1   0.6695  0.6433  0.3033  11.00000  0.05    0.49
Q18   1   0.5323  1.3165  0.0210  11.00000  0.05    0.49
Q19   1   0.5749  0.5227  0.9449  11.00000  0.05    0.49
Q20   1   0.6573  0.7523  0.2908  11.00000  0.05    0.48
;
_shelx_res_checksum              95846
loop_
_space_group_symop_operation_xyz
'x, y, z'
'-x, -y, -z'
loop_
_atom_site_type_symbol
_atom_site_label
_atom_site_fract_x
_atom_site_fract_y
_atom_site_fract_z
_atom_site_U_iso_or_equiv
_atom_site_adp_type
_atom_site_calc_flag
_atom_site_occupancy
_atom_site_disorder_assembly
_atom_site_disorder_group
Cu Cu1 0.5000 1.0000 0.0000 0.00922(14) Uani d 1 . .
S S1 0.89992(13) 0.53760(18) 0.82865(7) 0.01095(17) Uani d 1 . .
O O5 1.0191(5) 0.3517(5) 0.8217(3) 0.0173(6) Uani d 1 . .
O O4 0.7159(4) 0.5122(5) 0.92630(19) 0.0115(4) Uani d 1 . .
O O3 1.0340(5) 0.6825(4) 0.8291(3) 0.0162(7) Uani d 1 . .
O O2 0.6930(5) 0.9432(6) 0.2844(3) 0.0241(7) Uani d 1 . .
O O1 0.3772(5) 0.8181(7) 0.3778(3) 0.0256(7) Uani d 1 . .
H H1 0.333(10) 0.874(12) 0.313(6) 0.038 Uiso d 1 . .
O O6 0.6358(5) 0.7475(5) 0.0720(3) 0.0135(6) Uani d 1 . .
H H61 0.744(6) 0.733(8) 0.102(4) 0.020 Uiso d 1 . .
H H62 0.639(8) 0.656(6) 0.042(5) 0.020 Uiso d 1 . .
O O7 0.6741(5) 1.1291(5) 0.0619(3) 0.0145(6) Uani d 1 . .
H H71 0.700(9) 1.245(4) 0.035(4) 0.022 Uiso d 1 . .
H H72 0.706(9) 1.082(7) 0.128(3) 0.022 Uiso d 1 . .
O O8 0.2112(4) 0.9557(5) 0.1819(2) 0.0128(5) Uani d 1 . .
H H81 0.124(7) 1.056(5) 0.175(5) 0.019 Uiso d 1 . .
H H82 0.143(8) 0.863(6) 0.186(5) 0.019 Uiso d 1 . .
C C4 0.7954(6) 0.6287(8) 0.6968(3) 0.0168(8) Uani d 1 . .
C C3A 0.6064(13) 0.5844(14) 0.6900(7) 0.0106(13) Uiso d 0.5 A 1
H H3A 0.5218 0.5095 0.7567 0.013 Uiso calc 0.5 A 1
C C2A 0.5338(14) 0.6495(14) 0.5834(7) 0.0134(15) Uiso d 0.5 A 1
H H2A 0.4059 0.6102 0.5777 0.016 Uiso calc 0.5 A 1
C C3B 0.5727(13) 0.6505(16) 0.7017(7) 0.0158(14) Uiso d 0.5 A 2
H H3B 0.4774 0.6196 0.7735 0.019 Uiso calc 0.5 A 2
C C2B 0.5006(14) 0.7198(15) 0.5951(7) 0.0173(16) Uiso d 0.5 A 2
H H2B 0.3551 0.7325 0.5947 0.021 Uiso calc 0.5 A 2
C C1 0.6503(6) 0.7712(6) 0.4869(3) 0.0155(8) Uani d 1 . .
C C6A 0.8529(12) 0.8324(15) 0.4945(6) 0.0144(13) Uiso d 0.5 A 1
H H6A 0.9325 0.9140 0.4288 0.017 Uiso calc 0.5 A 1
C C5A 0.9247(12) 0.7684(15) 0.5998(6) 0.0156(13) Uiso d 0.5 A 1
H H5A 1.0479 0.8108 0.6093 0.019 Uiso calc 0.5 A 1
C C6B 0.8561(12) 0.7127(16) 0.4865(7) 0.0174(13) Uiso d 0.5 A 2
H H6B 0.9507 0.7289 0.4146 0.021 Uiso calc 0.5 A 2
C C5B 0.9332(13) 0.6284(14) 0.5903(7) 0.0183(15) Uiso d 0.5 A 2
H H5B 1.0727 0.5734 0.5887 0.022 Uiso calc 0.5 A 2
C C7 0.5754(7) 0.8560(6) 0.3725(4) 0.0155(8) Uani d 1 . .
loop_
_atom_site_aniso_label
_atom_site_aniso_U_11
_atom_site_aniso_U_22
_atom_site_aniso_U_33
_atom_site_aniso_U_12
_atom_site_aniso_U_13
_atom_site_aniso_U_23
Cu1 0.0126(3) 0.0084(3) 0.0077(2) -0.0002(3) -0.00533(19) -0.0016(3)
S1 0.0104(4) 0.0135(4) 0.0097(3) 0.0005(4) -0.0037(3) -0.0037(4)
O5 0.0155(14) 0.0217(17) 0.0183(14) 0.0048(12) -0.0086(11) -0.0099(12)
O4 0.0124(11) 0.0130(13) 0.0080(9) -0.0008(13) -0.0021(8) -0.0013(12)
O3 0.0147(14) 0.0132(17) 0.0231(15) -0.0041(11) -0.0030(11) -0.0078(11)
O2 0.0245(15) 0.0318(19) 0.0118(12) -0.0011(15) -0.0060(11) 0.0017(14)
O1 0.0266(15) 0.037(2) 0.0147(12) -0.0015(18) -0.0124(11) -0.0029(17)
O6 0.0178(14) 0.0099(14) 0.0148(13) 0.0014(11) -0.0073(11) -0.0045(11)
O7 0.0203(15) 0.0140(15) 0.0115(12) -0.0077(11) -0.0087(11) -0.0001(11)
O8 0.0123(11) 0.0131(14) 0.0144(10) -0.0003(12) -0.0044(9) -0.0048(12)
C4 0.0129(15) 0.029(2) 0.0088(13) 0.0015(18) -0.0038(11) -0.0056(18)
C1 0.0185(18) 0.019(2) 0.0090(14) 0.0053(14) -0.0045(12) -0.0051(13)
C7 0.026(2) 0.0118(17) 0.0115(15) 0.0016(14) -0.0075(14) -0.0058(13)
loop_
_atom_type_symbol
_atom_type_description
_atom_type_scat_dispersion_real
_atom_type_scat_dispersion_imag
_atom_type_scat_source
H H 0.0000 0.0000 'International Tables Vol C Tables 4.2.6.8 and 6.1.1.4'
S S 0.1246 0.1234 'International Tables Vol C Tables 4.2.6.8 and 6.1.1.4'
Cu Cu 0.3201 1.2651 'International Tables Vol C Tables 4.2.6.8 and 6.1.1.4'
C C 0.0033 0.0016 'International Tables Vol C Tables 4.2.6.8 and 6.1.1.4'
O O 0.0106 0.0060 'International Tables Vol C Tables 4.2.6.8 and 6.1.1.4'
loop_
_geom_angle_atom_site_label_1
_geom_angle_atom_site_label_2
_geom_angle_atom_site_label_3
_geom_angle_site_symmetry_1
_geom_angle_site_symmetry_3
_geom_angle
O7 Cu1 O7 . 2_675 180.0
O7 Cu1 O6 . 2_675 89.23(12)
O7 Cu1 O6 2_675 2_675 90.77(12)
O7 Cu1 O6 . . 90.77(12)
O7 Cu1 O6 2_675 . 89.23(12)
O6 Cu1 O6 2_675 . 180.0
O7 Cu1 O8 . . 92.88(12)
O7 Cu1 O8 2_675 . 87.12(12)
O8 Cu1 O8 . 2_675 180.0
O6 Cu1 O8 . . 89.03(12)
O6 Cu1 O8 . 2_675 90.97(12)
O3 S1 O4 . . 112.4(2)
O3 S1 O5 . . 113.31(17)
O4 S1 O5 . . 112.1(2)
O3 S1 C4 . . 106.3(2)
O4 S1 C4 . . 106.37(16)
O5 S1 C4 . . 105.8(2)
C7 O1 H1 . . 112(4)
Cu1 O6 H61 . . 124(4)
Cu1 O6 H62 . . 119(4)
H61 O6 H62 . . 108(4)
Cu1 O7 H71 . . 125(4)
Cu1 O7 H72 . . 123(3)
H71 O7 H72 . . 111(4)
H81 O8 H82 . . 107(3)
C5B C4 C3B . . 119.5(5)
C3A C4 C5A . . 122.7(5)
C3A C4 S1 . . 121.7(4)
C5B C4 S1 . . 118.0(4)
C3B C4 S1 . . 120.3(4)
C5A C4 S1 . . 115.4(4)
C4 C3A C2A . . 120.3(7)
C4 C3A H3A . . 119.8
C2A C3A H3A . . 119.8
C1 C2A C3A . . 120.3(7)
C1 C2A H2A . . 119.9
C3A C2A H2A . . 119.9
C2B C3B C4 . . 117.6(7)
C2B C3B H3B . . 121.2
C4 C3B H3B . . 121.2
C3B C2B C1 . . 119.8(7)
C3B C2B H2B . . 120.1
C1 C2B H2B . . 120.1
C6B C1 C2B . . 118.9(6)
C2A C1 C6A . . 120.3(5)
C6B C1 C7 . . 119.6(5)
C2A C1 C7 . . 123.0(5)
C2B C1 C7 . . 120.5(5)
C6A C1 C7 . . 116.6(4)
C5A C6A C1 . . 119.5(7)
C5A C6A H6A . . 120.2
C1 C6A H6A . . 120.2
C6A C5A C4 . . 116.4(7)
C6A C5A H5A . . 121.8
C4 C5A H5A . . 121.8
C1 C6B C5B . . 122.0(7)
C1 C6B H6B . . 119.0
C5B C6B H6B . . 119.0
C6B C5B C4 . . 118.0(7)
C6B C5B H5B . . 121.0
C4 C5B H5B . . 121.0
O2 C7 O1 . . 125.5(4)
O2 C7 C1 . . 121.3(4)
O1 C7 C1 . . 113.1(4)
loop_
_geom_bond_atom_site_label_1
_geom_bond_atom_site_label_2
_geom_bond_site_symmetry_2
_geom_bond_distance
Cu1 O7 . 1.941(3)
Cu1 O7 2_675 1.941(3)
Cu1 O6 2_675 1.953(3)
Cu1 O6 . 1.953(3)
Cu1 O8 . 2.515(3)
Cu1 O8 2_675 2.515(3)
S1 O3 . 1.449(3)
S1 O4 . 1.463(2)
S1 O5 . 1.472(4)
S1 C4 . 1.776(4)
O2 C7 . 1.216(5)
O1 C7 . 1.325(6)
O1 H1 . 0.86(7)
O6 H61 . 0.84(2)
O6 H62 . 0.84(2)
O7 H71 . 0.83(2)
O7 H72 . 0.83(2)
O8 H81 . 0.85(2)
O8 H82 . 0.84(2)
C4 C3A . 1.326(9)
C4 C5B . 1.393(9)
C4 C3B . 1.411(9)
C4 C5A . 1.476(9)
C3A C2A . 1.395(11)
C3A H3A . 0.9300
C2A C1 . 1.370(9)
C2A H2A . 0.9300
C3B C2B . 1.394(11)
C3B H3B . 0.9300
C2B C1 . 1.424(9)
C2B H2B . 0.9300
C1 C6B . 1.334(9)
C1 C6A . 1.464(9)
C1 C7 . 1.493(5)
C6A C5A . 1.377(10)
C6A H6A . 0.9300
C5A H5A . 0.9300
C6B C5B . 1.388(11)
C6B H6B . 0.9300
C5B H5B . 0.9300
loop_
_geom_hbond_atom_site_label_D
_geom_hbond_atom_site_label_H
_geom_hbond_atom_site_label_A
_geom_hbond_site_symmetry_A
_geom_hbond_distance_DH
_geom_hbond_distance_HA
_geom_hbond_distance_DA
_geom_hbond_angle_DHA
_geom_hbond_publ_flag
O1 H1 O8 . 0.86(7) 1.83(7) 2.677(4) 170(7) yes
O6 H61 O5 2_766 0.84(2) 1.89(3) 2.717(4) 169(5) yes
O6 H62 O4 1_554 0.84(2) 1.93(3) 2.725(5) 158(5) yes
O7 H71 O4 1_564 0.83(2) 1.99(3) 2.784(5) 160(5) yes
O7 H72 O2 . 0.83(2) 1.84(3) 2.645(4) 161(5) yes
O8 H81 O3 2_676 0.85(2) 2.02(3) 2.851(5) 167(5) yes
O8 H82 O5 2_666 0.84(2) 2.02(3) 2.854(5) 175(5) yes

_cod_database_fobs_code 2243174
