#------------------------------------------------------------------------------
#$Date: 2020-07-25 08:24:04 +0300 (Sat, 25 Jul 2020) $
#$Revision: 254581 $
#$URL: file:///home/coder/svn-repositories/cod/cif/2/24/35/2243507.cif $
#------------------------------------------------------------------------------
#
# This file is available in the Crystallography Open Database (COD),
# http://www.crystallography.net/. The original data for this entry
# were provided by IUCr Journals, http://journals.iucr.org/.
#
# The file may be used within the scientific community so long as
# proper attribution is given to the journal article from which the
# data were obtained.
#
data_2243507
loop_
_publ_author_name
'Seck, Thierno Moussa'
'Gaye, Papa Aly'
'Ndoye, Cheikh'
'Thiam, Ibrahima Elhadji'
'Diouf, Ousmane'
'Retailleau, Pascal'
'Gaye, Mohamed'
_publ_section_title
;
 Diaquabis{\m-1,5-bis[(pyridin-2-yl)methylidene]carbonohydrazide(1--)}di-\m-chlorido-tetrachloridotetrazinc(II)
;
_journal_coeditor_code           EX2035
_journal_issue                   8
_journal_name_full               'Acta Crystallographica Section E'
_journal_page_first              1349
_journal_page_last               1352
_journal_paper_doi               10.1107/S2056989020009834
_journal_volume                  76
_journal_year                    2020
_chemical_formula_iupac          '[Zn4 (C13 H11 N6 O1)2 Cl6 (H2 O1)2]'
_chemical_formula_moiety         'C26 H26 Cl6 N12 O4 Zn4'
_chemical_formula_sum            'C26 H26 Cl6 N12 O4 Zn4'
_chemical_formula_weight         1044.77
_chemical_name_systematic
Diaquabis{\m-1,5-bis[(pyridin-2-yl)methylidene]carbonohydrazide(1-)}di-\m-chlorido-tetrachloridotetrazinc(II)
_space_group_crystal_system      triclinic
_space_group_IT_number           2
_space_group_name_Hall           '-P 1'
_space_group_name_H-M_alt        'P -1'
_atom_sites_solution_hydrogens   mixed
_atom_sites_solution_primary     dual
_atom_sites_solution_secondary   difmap
_audit_creation_method           SHELXL-2018/3
_cell_angle_alpha                94.639(3)
_cell_angle_beta                 110.091(4)
_cell_angle_gamma                97.599(3)
_cell_formula_units_Z            1
_cell_length_a                   9.2002(4)
_cell_length_b                   9.4306(4)
_cell_length_c                   11.7651(4)
_cell_measurement_reflns_used    6440
_cell_measurement_temperature    293(2)
_cell_measurement_theta_max      30.6450
_cell_measurement_theta_min      4.3120
_cell_volume                     941.46(7)
_computing_cell_refinement
;
CrysAlisPro (Rigaku OD, 2018)
;
_computing_data_collection
;
CrysAlisPro (Rigaku OD, 2018)
;
_computing_data_reduction
;
CrysAlisPro (Rigaku OD, 2018)
;
_computing_molecular_graphics
;
ORTEP-3 for Windows (Farrugia, 2012)
;
_computing_structure_refinement
;
<i>SHELXL2018/3</i> (Sheldrick, 2015b)
;
_computing_structure_solution
;
SHELXT (Sheldrick, 2015a)
;
_diffrn_ambient_temperature      293(2)
_diffrn_detector                 'HPAD Dectris Pilatus3R 200K'
_diffrn_measured_fraction_theta_full 0.994
_diffrn_measured_fraction_theta_max 0.995
_diffrn_measurement_device       'four-circle diffractometer'
_diffrn_measurement_device_type  'XtaLAB AFC12 (RINC): Kappa single'
_diffrn_measurement_method       '\w scans'
_diffrn_radiation_monochromator  mirror
_diffrn_radiation_probe          x-ray
_diffrn_radiation_type           'Mo K\a'
_diffrn_radiation_wavelength     0.71073
_diffrn_reflns_av_R_equivalents  0.0490
_diffrn_reflns_av_unetI/netI     0.0373
_diffrn_reflns_limit_h_max       11
_diffrn_reflns_limit_h_min       -11
_diffrn_reflns_limit_k_max       12
_diffrn_reflns_limit_k_min       -12
_diffrn_reflns_limit_l_max       15
_diffrn_reflns_limit_l_min       -15
_diffrn_reflns_number            15934
_diffrn_reflns_theta_full        25.242
_diffrn_reflns_theta_max         27.103
_diffrn_reflns_theta_min         4.401
_diffrn_source                   'micro-focus sealed X-ray tube'
_diffrn_standards_decay_%        0.0(2)
_diffrn_standards_interval_count 0
_diffrn_standards_number         0
_exptl_absorpt_coefficient_mu    2.994
_exptl_absorpt_correction_T_max  1.00000
_exptl_absorpt_correction_T_min  0.37505
_exptl_absorpt_correction_type   multi-scan
_exptl_absorpt_process_details
;
(CrysAlisPro; Rigaku OD, 2018)
;
_exptl_crystal_colour            'pale yellow'
_exptl_crystal_density_diffrn    1.843
_exptl_crystal_description       tab
_exptl_crystal_F_000             520
_exptl_crystal_size_max          0.21
_exptl_crystal_size_mid          0.10
_exptl_crystal_size_min          0.05
_refine_diff_density_max         0.804
_refine_diff_density_min         -0.941
_refine_ls_extinction_method     none
_refine_ls_goodness_of_fit_ref   1.045
_refine_ls_hydrogen_treatment    mixed
_refine_ls_matrix_type           full
_refine_ls_number_parameters     244
_refine_ls_number_reflns         4127
_refine_ls_number_restraints     2
_refine_ls_restrained_S_all      1.045
_refine_ls_R_factor_all          0.0526
_refine_ls_R_factor_gt           0.0386
_refine_ls_shift/su_max          0.000
_refine_ls_shift/su_mean         0.000
_refine_ls_structure_factor_coef Fsqd
_refine_ls_weighting_details
'w=1/[\s^2^(Fo^2^)+(0.0583P)^2^+0.5038P] where P=(Fo^2^+2Fc^2^)/3'
_refine_ls_weighting_scheme      calc
_refine_ls_wR_factor_gt          0.0950
_refine_ls_wR_factor_ref         0.1025
_reflns_number_gt                3343
_reflns_number_total             4132
_reflns_threshold_expression     'I > 2\s(I)'
_cod_data_source_file            ex2035sup1.cif
_cod_data_source_block           I
_cod_original_cell_volume        941.47(7)
_cod_database_code               2243507
_shelx_space_group_comment
;
The symmetry employed for this shelxl refinement is uniquely defined
by the following loop, which should always be used as a source of
symmetry information in preference to the above space-group names.
They are only intended as comments.
;
_shelx_hkl_file
;
   0   0  -3 3318.61 80.0751   6
   0   0  -3 3244.67 81.1213   8
   0   0  -4 1381.95 35.4180   6
   0   0  -4 1351.64 34.4781   2
   0   0  -4 1448.98 37.1265   8
   0   0   5 930.402 28.3937   8
   0   0  -5 1001.88 27.7934   6
   0   0  -5 1047.26 29.9141   8
   0   0  -5 921.788 25.3344   1
   0   0  -5 1041.23 26.8243   2
   0   0  -6 49.6854 8.88127   6
   0   0  -6 59.6945 7.92540   2
   0   0  -6 46.5891 10.2891   8
   0   0  -6 41.9003 5.72253   1
   0   0   6 43.9618 6.91315   8
   0   0   7 1911.83 53.6509   8
   0   0  -7 1903.76 54.8859   8
   0   0  -7 1882.51 49.4104   1
   0   0  -7 1955.29 52.5713   6
   0   0   8 861.082 28.2404   8
   0   0  -8 832.540 30.7093   8
   0   0  -8 825.991 24.0799   1
   0   0  -8 963.457 27.7676   2
   0   0  -8 805.342 27.5079   6
   0   0  -9 28.5460 11.9034   2
   0   0  -9 39.1643 8.24243   1
   0   0  -9 30.7155 14.3619   8
   0   0   9 33.8010 8.18075   8
   0   0 -10 619.003 20.0250   1
   0   0 -10 640.711 29.1833   8
   0   0  10 671.027 25.1075   8
   0   0  11-1.41817 9.51306   8
   0   0 -11 6.84946 9.12238   1
   0   0 -11 4.63621 17.0861   8
   0   0  11 1.54590 9.14601   7
   0   0  12 5.66615 9.58904   8
   0   0  12 5.45139 9.93548   3
   0   0  12 4.84331 8.89340   7
   0   0 -12 8.70994 9.10954   1
   0   0 -12 2.16395 18.0754   8
   0   0  13 5.86192 10.1133   7
   0   0  13 0.36443 9.86319   8
   0   0  13 29.6612 11.8719   3
   0   0 -13 9.79018 19.5332   8
   0   0 -14 343.618 30.3268   8
   0   0  14 387.511 21.6496   8
   0   0  14 340.788 21.5540   7
   0  -1  15 11.4600 11.9821   8
   0   1 -15-19.0848 25.7817   8
   0  -1  15 1.14299 11.6458   7
   0   1 -14 50.6434 24.3719   8
   0  -1  14 68.7388 13.6817   8
   0  -1  14 67.5567 13.0291   7
   0  -1  13 5.66359 10.0504   8
   0   1 -13 27.5804 19.4695   8
   0  -1  13 0.39253 9.36419   7
   0  -1  13 18.4012 10.9582   3
   0  -1  12 571.911 24.5175   3
   0  -1  12 537.644 23.6224   8
   0   1 -12 505.032 28.1075   8
   0  -1  12 512.302 23.7584   7
   0  -1  11 20.4353 9.83724   3
   0  -1  11 12.0125 10.2748   8
   0   1 -11 12.2179 16.2953   8
   0  -1  10 646.478 24.8986   3
   0   1 -10 623.759 28.5253   8
   0  -1  10 683.941 25.6379   8
   0  -1   9 802.172 27.0965   3
   0  -1   9 790.187 27.6588   8
   0   1  -9 738.216 29.3181   8
   0  -1   8 197.133 12.2823   8
   0  -1   8 207.975 12.1220   3
   0   1  -8 208.154 16.0278   8
   0  -1   7 275.995 13.0826   3
   0  -1   7 292.242 13.6422   8
   0   1  -7 285.567 16.0259   8
   0  -1   6 53.8989 6.69927   3
   0   1  -6 55.5810 10.1155   8
   0  -1   6 53.6771 6.60113   8
   0  -1   5 3254.04 81.3457   2
   0   1  -5 3626.52 85.1240   8
   0  -1   5 3465.05 84.8257   8
   0  -1   5 3368.47 82.1737   6
   0  -1   5 3180.99 83.8441   3
   0  -1   4 1216.40 32.3510   8
   0  -1   4 1121.63 31.5549   3
   0  -1   4 1164.52 29.7345   2
   0   1  -4 1249.08 32.6365   8
   0  -1   4 1167.89 30.1861   6
   0  -1   3 2130.03 52.1684   2
   0  -1   3 2008.69 53.2463   3
   0  -1   3 2112.93 52.2876   6
   0  -1   3 2191.89 53.9534   8
   0  -1   2 0.12916 0.62651   8
   0  -1   2 0.07408 0.75285   3
   0   1   2 89.0575 4.47638   3
   0  -1  -3 14.4561 5.28332   6
   0  -1  -3 6.49774 4.93778   1
   0   1   3 5.03806 5.36100   3
   0  -1  -4 28.9091 6.25844   1
   0  -1  -4 33.4446 6.67662   6
   0  -1  -5 2766.94 71.6866   1
   0  -1  -5 2804.39 71.1410   2
   0  -1  -5 3007.13 72.8741   6
   0  -1  -5 2964.04 74.6071   8
   0  -1  -6 114.773 9.06735   2
   0  -1  -6 115.085 10.5766   6
   0   1   6 88.3299 8.22869   8
   0  -1  -6 124.259 8.84789   1
   0  -1  -6 104.370 12.3082   8
   0  -1  -7 2991.32 77.6983   8
   0  -1  -7 2924.30 74.9372   6
   0  -1  -7 2905.76 72.7996   1
   0  -1  -7 2813.24 73.0287   2
   0   1   7 2791.83 75.2063   8
   0  -1  -8 233.508 13.7137   2
   0   1   8 190.961 12.0275   8
   0  -1  -8 187.146 12.6448   1
   0  -1  -8 218.836 17.3223   8
   0  -1  -8 218.635 14.8936   6
   0  -1  -9 897.908 29.2439   2
   0  -1  -9 845.630 30.2695   6
   0  -1  -9 859.811 27.2973   1
   0  -1  -9 884.168 33.3097   8
   0   1   9 838.676 29.1437   8
   0  -1 -10 142.307 16.1171   2
   0  -1 -10 109.342 18.3632   8
   0  -1 -10 119.349 16.0588   6
   0   1  10 106.426 12.1277   7
   0   1  10 112.074 12.1557   8
   0  -1 -10 138.518 12.9552   1
   0  -1 -11 3.74450 17.2724   8
   0   1  11 8.10702 9.00019   7
   0  -1 -11 24.4758 11.9842   1
   0  -1 -11 17.7751 16.4893   2
   0   1  11 10.1784 9.73194   8
   0  -1 -12 176.191 14.9636   1
   0   1  12 175.016 14.9159   7
   0  -1 -12 177.059 23.2311   8
   0  -1 -12 199.785 19.5152   2
   0   1  12 196.180 15.2525   8
   0  -1 -13 85.5119 23.1769   8
   0   1  13 122.910 14.1338   7
   0   1  13 124.847 14.2468   8
   0  -1 -13 109.312 14.2878   1
   0   1  14 45.1390 12.6479   7
   0  -1 -14 46.1445 24.2177   8
   0   1  14 50.8075 12.8522   8
   0  -2  15 100.460 14.7130   7
   0  -2  15 100.487 14.7368   8
   0   2 -15 115.805 27.8290   8
   0   2 -14 108.462 24.8094   8
   0  -2  14 131.177 14.8454   7
   0  -2  14 127.877 15.4886   8
   0  -2  13 0.72851 10.3587   8
   0   2 -13-0.20362 20.1479   8
   0  -2  13-3.24974 9.33631   7
   0   2 -12 186.907 21.8271   8
   0  -2  12 248.174 16.4641   3
   0  -2  12 225.622 15.7823   7
   0  -2  12 243.278 16.6108   8
   0  -2  11 25.2729 10.8740   8
   0  -2  11 38.5453 10.2519   3
   0  -2  10 30.4887 8.52577   3
   0   2 -10 14.2183 15.1468   8
   0  -2  10 33.8100 9.55592   8
   0   2  -9 394.051 21.6007   8
   0  -2   9 439.855 18.1828   3
   0  -2   9 427.760 19.0135   8
   0   2  -8 475.613 21.3095   8
   0  -2   8 507.582 18.8931   3
   0  -2   8 496.287 19.8104   8
   0   2  -7 262.451 15.2744   8
   0  -2   7 287.640 12.8549   3
   0  -2   7 275.072 9.92881   2
   0  -2   7 294.482 14.0101   8
   0  -2   6 2650.03 67.5154   8
   0   2  -6 2559.91 66.8808   8
   0  -2   6 2518.78 66.3465   3
   0  -2   6 2588.92 63.4421   2
   0  -2   6 2507.32 63.6547   6
   0  -2   5 7322.73 175.662   8
   0  -2   5 6883.37 174.292   3
   0   2  -5 7297.30 174.941   8
   0  -2   5 7161.97 172.398   6
   0  -2   5 7302.02 172.717   2
   0  -2   4 355.987 12.1722   3
   0  -2   4 371.269 11.1207   6
   0  -2   4 386.633 13.3902   8
   0   2  -4 396.403 14.0298   8
   0  -2   3 2433.79 60.5649   1
   0  -2   3 2602.49 62.9864   8
   0  -2   3 2474.22 61.6644   5
   0  -2   3 2386.42 61.7004   3
   0   2  -3 2614.84 62.3644   3
   0  -2   2 64.8508 2.87829   3
   0  -2   2 67.4772 3.22712   5
   0  -2   2 61.9162 3.61573   1
   0  -2   2 69.8620 3.78178   8
   0  -2   1 4.17060 2.24346   1
   0  -2   1 1198.25 11.0799   5
   0  -2   0 3067.16 73.5933   7
   0   2   1 375.342 10.6168   7
   0   2   1 329.586 10.5230   8
   0   2   2 60.5359 5.17570   8
   0   2   2 45.2846 5.25708   3
   0  -2  -2 43.9827 6.92459   1
   0   2   2 57.8378 5.42049   7
   0  -2  -3 183.925 10.4600   1
   0   2   3 196.409 9.62803   3
   0  -2  -4 152.573 10.3679   1
   0  -2  -4 169.084 10.3516   6
   0   2   4 154.252 10.3241   3
   0   2   5 1059.23 32.5738   3
   0  -2  -5 1102.50 32.0849   6
   0  -2  -5 1078.75 31.9556   1
   0  -2  -6 1811.13 49.6457   1
   0   2   6 1793.25 51.0169   3
   0  -2  -6 1892.31 50.5716   6
   0  -2  -7 110.015 10.9667   1
   0   2   7 83.8412 13.2246   3
   0  -2  -7 78.4214 11.9509   6
   0  -2  -7 72.1320 10.2811   2
   0  -2  -7 76.7570 13.4633   8
   0  -2  -8 7.76219 10.4413   2
   0   2   8 1.90669 12.7921   3
   0  -2  -8-6.67048 14.3316   8
   0  -2  -8 11.8240 10.2080   1
   0  -2  -8-1.64772 11.9973   6
   0   2   8-3.55328 6.78494   8
   0  -2  -9 306.019 19.3711   6
   0   2   9 297.761 15.6699   8
   0  -2  -9 291.036 17.9370   1
   0  -2  -9 308.954 17.3219   2
   0   2   9 365.354 21.3044   3
   0  -2  -9 287.698 21.9880   8
   0  -2 -10 84.8135 19.2458   8
   0   2  10 96.0565 11.4596   8
   0   2  10 140.726 19.2832   3
   0  -2 -10 82.9767 15.4769   2
   0  -2 -10 87.0230 15.3988   1
   0  -2 -10 109.793 17.2185   6
   0  -2 -11 155.139 18.6555   2
   0  -2 -11 173.131 17.4643   1
   0   2  11 150.303 13.6884   8
   0  -2 -11 145.896 22.1430   8
   0   2  11 222.341 21.9872   3
   0  -2 -11 157.171 18.6510   6
   0   2  12 48.3309 20.6678   3
   0   2  12 30.6343 10.5961   8
   0   2  12 20.2098 10.1599   7
   0  -2 -12 28.3289 19.4489   2
   0  -2 -12 45.9931 16.4182   1
   0  -2 -12 22.3993 20.8385   8
   0  -2 -13 197.978 18.5843   1
   0  -2 -13 141.851 22.4798   2
   0  -2 -13 142.727 26.6502   8
   0   2  13 153.567 15.6673   8
   0   2  13 162.676 15.8148   7
   0   2  14 8.43009 11.7297   8
   0  -2 -14-7.23086 24.4344   8
   0  -3  15 2.22146 11.9135   8
   0  -3  15 14.8006 10.9418   5
   0   3 -15 16.2609 24.8155   8
   0  -3  15 17.8000 11.4961   7
   0   3 -14 192.910 26.8851   8
   0  -3  14 233.521 17.9845   8
   0  -3  14 213.770 17.4204   7
   0  -3  13 137.823 15.1752   8
   0   3 -13 120.822 23.2001   8
   0  -3  13 122.755 13.5615   7
   0  -3  12-3.41741 9.05529   7
   0  -3  12 2.26408 9.74097   8
   0   3 -12-8.43987 18.9351   8
   0   3 -11 91.2596 18.2956   8
   0  -3  11 126.105 13.0127   8
   0  -3  11 131.369 12.5595   3
   0  -3  10 1032.00 32.4647   3
   0  -3  10 1005.66 33.7681   8
   0   3  -9 194.696 17.3263   8
   0  -3   9 208.092 13.6975   8
   0  -3   9 230.680 12.7268   3
   0  -3   8 365.614 15.2048   3
   0  -3   8 348.927 16.9865   8
   0  -3   8 345.424 12.2143   2
   0   3  -8 368.934 18.8858   8
   0  -3   7 1233.92 33.1007   2
   0  -3   7 1264.71 37.3476   8
   0  -3   7 1207.51 35.1149   3
   0   3  -7 1222.87 37.2573   8
   0  -3   7 1232.32 32.4474   6
   0   3  -6 2229.05 58.1756   8
   0  -3   6 2380.09 59.5105   8
   0  -3   6 2127.74 56.8811   3
   0  -3   6 2162.39 54.9854   6
   0  -3   5 49.4193 4.79472   3
   0  -3   5 51.7813 6.27191   8
   0   3  -5 54.0956 8.33642   8
   0  -3   5 45.6621 4.63009   5
   0  -3   4 2655.42 66.9818   8
   0  -3   4 2594.39 64.0578   1
   0  -3   4 2528.26 64.9532   3
   0  -3   4 2799.93 65.6133   5
   0  -3   3 2169.00 55.8530   1
   0  -3   3 2229.35 55.5743   5
   0  -3   3 2332.94 56.6704   8
   0  -3   2 357.043 12.5921   1
   0  -3   2 383.002 11.7885   5
   0   3  -2 388.852 11.2894   5
   0  -3   2 371.932 9.88849   4
   0  -3   1 226.117 9.73878   1
   0   3  -1 230.110 8.73711   5
   0  -3   0 483.875 13.3142   7
   0   3   1 108.238 5.46920   7
   0  -3  -1 94.6828 5.11267   8
   0  -3  -2 105.945 10.0327   1
   0  -3  -2 107.885 6.27287   8
   0   3   2 135.837 7.46399   8
   0   3   2 135.028 7.22263   7
   0   3   2 129.839 7.44585   3
   0   3   3 21.7462 6.81875   3
   0   3   3 33.1729 6.69581   8
   0  -3  -3 14.0575 8.68824   1
   0   3   3 23.5218 6.70787   7
   0  -3  -3 23.0098 4.75428   8
   0   3   4 2339.63 62.6536   8
   0  -3  -4 2309.46 63.9104   6
   0   3   4 2497.64 63.6494   3
   0   3   4 2633.18 64.0964   7
   0  -3  -4 2453.25 65.2236   1
   0  -3  -5 2.80814 9.59932   1
   0   3   5-5.97196 9.63523   3
   0  -3  -5 3.00974 9.40717   6
   0   3   5-5.80736 9.53735   7
   0   3   6 660.796 24.8331   3
   0  -3  -6 690.880 25.7404   6
   0   3   6 721.004 25.4396   7
   0  -3  -6 693.028 25.0445   1
   0  -3  -7 198.648 14.5817   1
   0   3   7 171.697 15.6974   3
   0   3   7 191.717 15.4625   7
   0  -3  -7 175.840 15.5707   6
   0  -3  -8 544.208 24.7436   6
   0   3   8 569.924 24.6050   3
   0  -3  -8 565.114 22.7172   1
   0   3   8 547.822 24.8795   7
   0  -3  -8 521.981 21.9325   2
   0  -3  -9 32.3286 13.6515   2
   0   3   9 53.9957 16.0771   3
   0  -3  -9 29.6082 15.3116   6
   0  -3  -9 10.4251 14.7360   1
   0  -3  -9 18.4067 17.1151   8
   0  -3 -10 48.5738 15.5555   2
   0  -3 -10 37.4784 19.8406   8
   0   3  10 53.1363 10.7054   8
   0  -3 -10 51.4831 16.4819   6
   0  -3 -10 49.3284 17.6192   1
   0   3  10 77.0325 17.7822   3
   0  -3 -11 267.936 23.2701   6
   0  -3 -11 258.247 21.4830   2
   0  -3 -11 231.199 25.5011   8
   0   3  11 337.627 23.8450   3
   0   3  11 256.650 16.8109   8
   0  -3 -11 278.284 21.8761   1
   0  -3 -12 44.5874 19.5695   6
   0  -3 -12 18.7008 19.1764   2
   0   3  12 34.9086 20.5542   3
   0  -3 -12 10.8416 23.2428   8
   0   3  12 22.2907 10.5450   8
   0   3  13 43.3458 12.1289   8
   0  -3 -13 36.0274 26.1763   8
   0  -3 -13 37.9835 22.7308   2
   0  -3 -13 68.6540 19.4828   1
   0   3  13 67.2839 22.2918   3
   0   4 -15 97.3823 25.4766   8
   0  -4  15 82.4826 13.7882   5
   0  -4  15 99.7145 13.8392   7
   0  -4  15 102.855 14.7430   8
   0   4 -14 21.2423 21.8500   8
   0  -4  14-3.66655 12.2172   8
   0  -4  14 2.72894 10.6731   5
   0  -4  14 9.00990 10.5903   7
   0   4 -13 373.513 26.0511   8
   0  -4  13 418.011 21.1553   8
   0  -4  13 362.452 19.9495   7
   0  -4  13 337.734 18.9246   5
   0  -4  12-7.03017 9.49323   7
   0   4 -12 0.81288 17.0877   8
   0  -4  12-11.4152 11.1453   8
   0  -4  12 8.32395 9.29217   5
   0  -4  11 6.61214 9.20111   8
   0  -4  11-6.41286 8.24424   5
   0   4 -11 8.72529 15.2291   8
   0  -4  10 62.0752 10.4527   8
   0  -4  10 53.0049 8.60623   5
   0   4 -10 64.8675 15.1233   8
   0   4  -9 26.3157 13.2324   8
   0  -4   9 19.4935 6.71012   5
   0  -4   9 24.9149 5.85527   2
   0  -4   9 14.1651 8.83587   8
   0  -4   8 900.595 24.2017   6
   0  -4   8 993.339 30.6714   8
   0  -4   8 854.571 27.1676   5
   0  -4   8 818.729 25.3528   2
   0   4  -8 904.959 29.5405   8
   0  -4   7 611.882 21.7482   8
   0  -4   7 558.905 18.8976   5
   0  -4   7 544.730 16.3054   6
   0   4  -7 549.140 20.9720   8
   0  -4   6 1690.41 41.2087   5
   0  -4   6 1773.92 44.0441   8
   0  -4   5 225.188 8.41458   1
   0  -4   5 221.983 11.0691   8
   0  -4   5 240.691 9.81349   5
   0  -4   4 65.5213 5.25289   5
   0  -4   4 59.4192 4.79146   1
   0  -4   4 64.0288 6.29417   8
   0  -4   3 1202.00 33.3600   1
   0  -4   3 1275.21 32.9066   5
   0  -4   3 1165.31 30.0849   4
   0   4  -3 1249.63 31.5164   5
   0   4  -2 42.7346 5.35116   5
   0  -4   2 43.0748 5.54157   1
   0   4  -1 1887.52 50.6909   5
   0  -4   1 1975.06 53.1595   1
   0  -4   1 2027.43 48.4858   7
   0  -4   0-2.31742 5.02244   1
   0  -4  -1 5214.14 132.529   8
   0   4   1 5580.65 131.273   3
   0   4   1 5491.33 131.421   7
   0   4   2 327.646 11.6323   7
   0  -4  -2 277.153 11.5688   8
   0   4   2 319.447 11.9359   3
   0   4   3 292.734 12.3248   7
   0  -4  -3 251.833 11.8791   8
   0   4   3 277.165 12.5274   8
   0   4   3 282.014 12.8586   3
   0  -4  -3 276.096 16.3426   1
   0   4   4-1.12197 7.66804   7
   0   4   4 0.28466 8.17184   8
   0   4   4-8.66889 8.94407   3
   0  -4  -4 7.03614 11.3013   1
   0  -4  -4-1.64219 5.86164   8
   0  -4  -5 582.714 23.3212   6
   0   4   5 602.757 21.1321   8
   0   4   5 609.681 21.9710   7
   0  -4  -5 526.234 21.3335   8
   0  -4  -5 577.413 24.1371   1
   0   4   5 572.152 21.8326   3
   0   4   6 1054.78 34.0740   3
   0  -4  -6 1082.70 35.6581   1
   0   4   6 1047.46 33.3875   8
   0  -4  -6 1105.75 36.0031   6
   0   4   6 1137.20 34.8019   7
   0   4   7 102.696 14.5035   3
   0  -4  -7 116.126 14.7441   1
   0   4   7 92.6491 13.2350   8
   0   4   7 103.290 14.3715   7
   0  -4  -7 91.1471 14.9995   6
   0  -4  -8 166.480 16.4091   1
   0  -4  -8 128.198 16.7178   6
   0   4   8 131.324 16.3631   7
   0   4   8 133.124 16.4580   3
   0   4   9 0.47323 15.8472   7
   0  -4  -9-5.69176 15.7108   1
   0   4   9 37.9052 16.7621   3
   0  -4  -9-0.17042 16.2060   6
   0  -4  -9 12.4841 14.4219   2
   0  -4 -10-15.8869 18.8464   1
   0   4  10-15.2448 17.7667   7
   0  -4 -10-6.85756 17.5425   6
   0  -4 -10 0.30333 16.3520   2
   0   4  10 8.11536 17.3392   3
   0   4  11 379.631 26.5125   7
   0  -4 -11 336.075 25.8144   6
   0  -4 -11 313.439 29.6002   8
   0   4  11 438.435 25.7980   3
   0  -4 -11 377.539 26.2556   1
   0  -4 -11 275.170 24.0768   2
   0   4  12 1.45197 20.7429   7
   0  -4 -12-0.34516 20.7354   1
   0   4  12 47.0832 21.1882   3
   0  -4 -12 4.81166 25.9513   8
   0  -4 -12 20.2960 20.9232   6
   0   4  12 15.1703 10.9945   8
   0  -4 -12 9.20612 20.6538   2
   0   4  13 13.9308 22.1597   7
   0   4  13 20.7225 11.2582   8
   0  -4 -13 48.7409 24.0655   6
   0  -4 -13 42.9794 22.5520   1
   0  -4 -13 5.92457 26.9505   8
   0  -4 -13 18.9297 23.1148   2
   0   4  13 58.1810 22.7645   3
   0  -5  15 143.871 16.6248   5
   0  -5  15 163.248 15.3156   7
   0  -5  15 154.758 16.1315   8
   0  -5  14 6.04762 11.7666   8
   0  -5  14 0.39328 11.4403   5
   0  -5  14-6.14075 10.3251   7
   0  -5  13 41.8385 11.7832   5
   0  -5  13 57.3662 10.8926   7
   0  -5  13 60.4267 12.3175   8
   0  -5  12 4.59150 9.12934   5
   0  -5  12-2.90021 8.70398   7
   0  -5  12-3.86485 10.5033   8
   0  -5  11 597.794 24.2247   5
   0  -5  11 670.978 26.4050   8
   0  -5  10 99.3907 10.4246   5
   0  -5  10 80.9524 7.64741   2
   0  -5   9-2.79914 5.92016   2
   0  -5   9-9.59702 9.52892   8
   0  -5   9 2.77187 6.83909   5
   0  -5   8 1038.18 32.5725   5
   0  -5   8 1089.20 28.6859   6
   0  -5   7 516.541 19.3609   8
   0  -5   7 441.856 13.3956   6
   0  -5   7 507.423 17.0276   5
   0  -5   6 45.2654 6.22096   5
   0  -5   6 38.6100 4.41585   1
   0  -5   6 42.7539 7.13467   8
   0  -5   5 24.8222 4.48137   1
   0  -5   5 23.6696 5.67593   5
   0  -5   5 21.0055 6.06563   8
   0  -5   5 26.8122 3.57164   4
   0  -5   4 530.521 17.9623   8
   0  -5   4 516.257 17.5556   1
   0  -5   4 556.564 18.1900   5
   0  -5   4 519.319 14.5610   4
   0   5  -3 74.5947 6.92483   5
   0  -5   3 58.2098 3.33895   4
   0  -5   3 75.8924 7.04845   1
   0   5  -2 0.64629 6.10034   5
   0  -5   2 6.57219 1.91871   7
   0  -5   2 5.66860 5.34663   1
   0  -5   1 4367.51 103.335   7
   0  -5   1 4368.99 109.054   1
   0   5  -1 4053.98 105.854   5
   0  -5   0 613.482 23.0842   1
   0  -5   0 651.045 19.3295   8
   0   5   1 37.4733 5.61483   3
   0  -5  -1 45.4551 5.44593   8
   0   5   2 78.5464 8.03058   3
   0  -5  -2 77.0557 6.95872   8
   0   5   2 80.5988 7.20912   7
   0  -5  -3 634.227 22.2726   8
   0   5   3 717.906 22.1703   3
   0   5   3 654.602 21.5557   7
   0  -5  -3 753.745 27.8753   1
   0   5   4 570.251 21.1948   3
   0  -5  -4 664.323 26.3228   1
   0  -5  -4 554.033 21.3790   8
   0   5   4 616.064 20.9391   7
   0   5   5-9.59030 10.7134   8
   0   5   5 4.04360 10.6259   3
   0   5   5-0.09836 9.71427   7
   0  -5  -5-2.51005 13.2957   1
   0  -5  -5 1.80083 6.51034   8
   0   5   6 1767.93 49.7361   7
   0  -5  -6 1532.42 50.4123   8
   0  -5  -6 1752.28 52.4320   1
   0   5   6 1781.04 49.1885   3
   0   5   6 1720.23 48.7272   8
   0  -5  -6 1704.67 51.8649   6
   0   5   7 117.279 14.6733   8
   0  -5  -7 95.7550 11.8826   8
   0  -5  -7 117.462 17.4622   1
   0   5   7 132.012 15.6366   3
   0   5   7 93.4036 14.1648   7
   0  -5  -7 90.8669 16.8649   6
   0  -5  -8 36.9644 16.7132   6
   0   5   8 43.0661 15.1092   3
   0  -5  -8 24.0175 11.2592   8
   0   5   8 40.1734 15.6797   7
   0  -5  -8 55.0887 16.2259   1
   0   5   8 42.5404 14.9601   8
   0   5   9-3.56236 16.6483   7
   0  -5  -9-21.7669 16.6369   2
   0  -5  -9-6.79885 17.5826   1
   0   5   9 28.2960 17.0241   3
   0   5   9 3.94163 16.0255   8
   0  -5  -9-10.7093 17.9585   6
   0   5  10 213.056 21.9655   7
   0  -5 -10 164.692 23.3446   1
   0  -5 -10 177.623 23.1532   6
   0  -5 -10 159.476 21.0817   2
   0  -5 -11 42.5392 20.9061   2
   0   5  11 71.7397 19.8926   3
   0   5  11 57.0130 20.3786   7
   0  -5 -11 34.0888 21.7365   6
   0  -5 -11 20.6431 22.1855   1
   0  -5 -12 36.2216 22.8359   2
   0  -5 -12 16.2985 24.4524   6
   0   5  12 51.4630 21.7079   3
   0  -5 -12-2.81241 23.4356   1
   0   5  12 12.2491 20.6690   7
   0  -5 -13 104.676 28.1025   2
   0  -5 -13 141.311 28.3067   6
   0  -6  15 5.50929 10.6849   4
   0  -6  14 20.3904 10.2702   4
   0  -6  14 45.2411 12.3301   8
   0  -6  14 25.1165 10.3893   7
   0  -6  14 24.2587 13.1647   5
   0  -6  13 74.6269 13.2954   5
   0  -6  13 71.4754 12.9811   8
   0  -6  13 48.7110 10.6190   4
   0  -6  13 52.1566 10.8600   7
   0  -6  12 13.4842 10.6930   5
   0  -6  12 18.2311 10.8645   8
   0  -6  12 10.6525 8.29207   7
   0  -6  11 46.9721 11.2347   8
   0  -6  11 37.4126 10.6110   5
   0  -6  11 29.5650 6.71541   2
   0  -6  11 43.2221 8.91932   7
   0  -6  10 10.8238 6.91191   2
   0  -6  10 30.8277 9.48049   5
   0  -6  10 1.12815 10.1442   8
   0  -6   9 412.392 19.5944   8
   0  -6   9 341.077 16.7149   5
   0  -6   8 192.964 11.4332   5
   0  -6   8 147.386 6.20036   6
   0  -6   8 196.991 13.0206   8
   0  -6   8 193.319 9.33749   4
   0  -6   7 33.8790 5.18726   4
   0  -6   7 32.4067 4.88445   1
   0  -6   7 30.1930 8.68082   8
   0  -6   7 33.4269 7.96390   5
   0  -6   6 810.697 23.6285   4
   0  -6   6 881.059 27.5904   5
   0  -6   6 866.471 25.1997   1
   0  -6   6 903.378 28.2365   8
   0  -6   5 127.956 9.89241   8
   0  -6   5 108.838 5.49570   4
   0  -6   5 106.787 7.68141   1
   0  -6   5 119.945 9.63315   5
   0  -6   4 1420.52 37.5610   8
   0  -6   4 1392.49 37.9607   1
   0   6  -4 1504.42 35.7490   5
   0  -6   3 557.041 14.7940   7
   0   6  -3 583.775 18.5430   5
   0  -6   3 606.455 21.2458   1
   0  -6   2 2142.28 51.9031   7
   0   6  -2 2012.39 54.9190   5
   0  -6   2 2172.08 58.7559   1
   0  -6   1 2.06532 6.37004   1
   0   6  -1-4.21515 8.53007   5
   0  -6   0 2192.03 61.2991   1
   0  -6   0 2185.88 56.6480   8
   0  -6  -1 1364.60 38.1192   8
   0   6   1 1400.92 35.3586   3
   0  -6  -1 1268.54 41.6779   1
   0  -6  -2 4.20450 5.51141   8
   0   6   2 5.96153 7.08703   3
   0   6   3 2.63667 7.06394   7
   0   6   3 8.99994 8.76920   3
   0  -6  -3-3.64200 6.08666   8
   0  -6  -4 92.0477 16.1662   1
   0  -6  -4 73.4527 8.94515   8
   0  -6  -4 68.1320 9.40936   6
   0   6   4 87.4038 10.9847   3
   0   6   4 81.8929 9.75331   7
   0  -6  -5 153.724 18.2777   1
   0   6   5 142.690 13.0448   7
   0  -6  -5 125.187 11.6506   8
   0   6   5 153.623 13.4961   3
   0   6   6 371.823 18.6854   3
   0  -6  -6 373.502 23.0441   1
   0   6   6 343.928 18.4962   7
   0  -6  -6 296.887 18.0199   8
   0  -6  -7 99.5736 18.6196   6
   0   6   7 75.5898 14.7763   7
   0   6   7 111.733 15.6713   3
   0  -6  -7 53.0468 11.8433   8
   0  -6  -7 105.594 18.8600   1
   0   6   8 326.743 21.3973   7
   0  -6  -8 386.928 24.9520   1
   0   6   8 335.433 20.9145   3
   0  -6  -8 255.481 19.8035   8
   0  -6  -8 307.434 24.0617   6
   0  -6  -9 42.8838 20.1360   6
   0  -6  -9 35.0682 17.7496   2
   0  -6  -9 41.6443 13.7394   8
   0  -6  -9 28.3979 21.3266   1
   0   6   9 88.9072 17.6601   3
   0   6   9 48.9680 18.2642   8
   0   6   9 52.3124 17.5196   7
   0  -6 -10 57.9827 15.5106   8
   0  -6 -10 63.6719 21.1732   2
   0   6  10 79.4851 19.4738   7
   0  -6 -10 46.2196 23.4337   1
   0   6  10 89.2457 20.4110   8
   0   6  10 95.0729 19.2769   3
   0  -6 -10 59.2880 22.6765   6
   0  -6 -11 79.7728 24.7344   6
   0  -6 -11 62.9205 23.5164   2
   0   6  11 113.912 21.8234   7
   0   6  11 128.850 22.4018   3
   0  -6 -11 101.796 25.9188   1
   0  -6 -12 94.4446 27.4582   2
   0  -6 -12 88.3444 26.4255   1
   0   6  12 154.037 23.8875   3
   0  -6 -12 50.3499 26.7272   6
   0  -7  14 34.8954 10.2157   4
   0  -7  13 119.293 15.9814   5
   0  -7  13 119.302 13.9648   8
   0  -7  13 114.207 11.7561   4
   0  -7  12 65.3246 13.4532   5
   0  -7  12 49.9889 9.09557   7
   0  -7  12 51.5907 12.2270   8
   0  -7  12 49.3120 9.26578   4
   0  -7  11 89.5491 9.58240   7
   0  -7  11 54.8956 8.64017   2
   0  -7  11 107.620 12.9370   8
   0  -7  11 89.5374 12.7220   5
   0  -7  10 2.56240 9.59189   8
   0  -7  10 14.6744 6.59241   4
   0  -7  10 10.2628 6.81242   7
   0  -7  10 12.5624 9.43567   5
   0  -7   9 807.660 29.1067   5
   0  -7   9 834.186 29.9562   8
   0  -7   9 751.206 24.4226   4
   0  -7   8 72.9747 10.8396   5
   0  -7   8 68.1416 11.1658   8
   0  -7   8 67.1638 6.77306   4
   0  -7   8 63.9727 5.94143   1
   0  -7   7 18.2441 9.39206   5
   0  -7   7 14.9234 4.79340   4
   0  -7   7 15.8732 5.65580   1
   0  -7   7 15.6257 8.72749   8
   0  -7   6 84.5884 6.18984   4
   0  -7   6 110.007 11.4791   5
   0  -7   6 88.9356 10.6781   8
   0  -7   6 85.6801 8.52549   1
   0  -7   5 187.972 11.6160   8
   0  -7   5 131.467 6.93482   4
   0  -7   5 175.627 10.6642   1
   0   7  -4 662.553 19.5897   5
   0  -7   4 625.249 21.5045   1
   0  -7   4 555.341 14.5766   7
   0  -7   3 27.5035 7.70982   1
   0   7  -3 6.35087 7.76000   5
   0  -7   2 1661.26 47.0229   1
   0   7  -2 1504.57 42.9509   5
   0  -7   1 95.4361 10.9458   1
   0   7  -1 81.3332 11.4369   5
   0  -7   1 114.734 8.01039   8
   0  -7   0 31.3576 8.85885   1
   0  -7   0 38.1701 6.05523   8
   0   7   1 573.269 16.5091   3
   0  -7  -1 578.524 20.0510   8
   0  -7  -1 576.481 24.0197   1
   0  -7  -2-3.46536 6.85887   8
   0   7   2 12.1247 7.44649   3
   0  -7  -3 5.72939 8.06065   8
   0   7   3 35.3340 9.51125   3
   0  -7  -4 11.0040 8.42856   8
   0  -7  -4 9.70108 8.12768   6
   0  -7  -4 29.3019 17.3622   1
   0   7   4 5.88416 9.38448   7
   0   7   4 26.5517 10.4412   3
   0   7   5 1294.88 36.7018   3
   0  -7  -5 1145.80 39.6865   8
   0  -7  -5 1342.70 44.7232   1
   0  -7  -5 1184.56 39.7611   6
   0   7   5 1104.39 35.8432   7
   0   7   6 147.703 14.2085   7
   0   7   6 151.198 15.4256   3
   0  -7  -6 190.752 22.1749   1
   0  -7  -6 128.862 14.3471   8
   0  -7  -7 59.4506 12.9373   8
   0   7   7 73.4968 14.6050   7
   0   7   7 89.9517 15.5673   3
   0  -7  -8 90.8767 21.5946   1
   0  -7  -8 32.7005 13.1860   8
   0   7   8 70.2035 16.5695   3
   0   7   8 59.5983 15.4370   7
   0  -7  -8 45.1537 20.6204   6
   0   7   9 31.5205 16.8128   7
   0  -7  -9-4.24039 23.5869   6
   0  -7  -9-35.9759 24.4307   1
   0  -7  -9-4.44460 13.8770   8
   0   7   9 28.2529 17.1956   3
   0  -7 -10 185.172 28.2915   1
   0   7  10 167.046 21.0540   7
   0  -7 -10 112.721 24.8277   2
   0  -7 -10 131.435 18.8451   8
   0   7  10 231.213 21.7999   3
   0  -7 -10 179.757 28.1208   6
   0   7  11 48.4874 20.6262   3
   0  -7 -11-12.1415 27.4887   1
   0  -7 -11-11.7784 25.2542   2
   0   7  11 29.7848 20.2179   7
   0  -7 -12 53.8577 29.7588   2
   0  -7 -12 61.8411 29.1942   1
   0  -8  12 15.5971 14.4230   5
   0  -8  12 24.9180 7.97645   4
   0  -8  12 21.6407 10.9593   8
   0  -8  11 43.2077 7.75444   4
   0  -8  11 26.8404 8.33389   2
   0  -8  11 44.2455 13.1220   5
   0  -8  11 42.5437 7.36455   7
   0  -8  11 45.8939 11.3460   8
   0  -8  10 3.91805 6.06960   7
   0  -8  10 12.6407 6.38797   4
   0  -8  10 12.2561 11.7021   5
   0  -8  10 11.6530 10.1713   8
   0  -8   9 47.5899 6.90260   4
   0  -8   9 43.4335 11.8302   5
   0  -8   9 42.4336 10.9095   8
   0  -8   9 43.8909 5.29720   1
   0  -8   9 59.8167 6.18853   7
   0  -8   8 77.8313 11.8295   8
   0  -8   8 56.2681 7.13240   4
   0  -8   8 57.6436 7.03873   1
   0  -8   8 61.7118 5.55329   7
   0  -8   8 56.0937 12.7928   5
   0  -8   7 688.875 22.3883   4
   0  -8   7 816.701 20.5150   7
   0  -8   7 716.659 24.6299   1
   0  -8   7 872.840 29.1260   8
   0  -8   6 112.259 10.1040   1
   0  -8   6 124.523 11.9375   8
   0  -8   5 279.214 14.3173   1
   0  -8   5 280.725 15.1046   8
   0   8  -4 600.244 20.8772   5
   0  -8   4 637.789 23.2867   1
   0  -8   3-4.73742 8.22059   1
   0   8  -3-15.5127 9.32104   5
   0   8  -2-1.19635 9.72373   5
   0  -8   2 1.97947 7.52992   1
   0  -8   2 5.40644 5.95951   8
   0  -8   1 20.4290 8.74091   1
   0   8  -1 23.8138 10.5182   5
   0  -8   1 19.3419 6.33692   8
   0  -8   0 432.484 21.0754   1
   0   8   0 395.918 20.5086   5
   0  -8   0 473.064 17.4089   8
   0  -8  -1 25.7171 7.68881   8
   0  -8  -1 43.2367 9.99850   1
   0  -8  -2 63.2017 9.29043   8
   0   8   3 645.191 20.6634   3
   0  -8  -3 608.692 24.9065   8
   0  -8  -3 669.665 26.1439   6
   0  -8  -4 45.6811 20.5031   1
   0  -8  -4 32.1784 10.3792   6
   0  -8  -4 36.5394 10.5553   8
   0   8   4 48.3623 11.0606   3
   0  -8  -5 105.796 21.7149   1
   0  -8  -5 69.4793 12.4787   8
   0  -8  -5 81.6389 12.8162   6
   0   8   5 95.8939 13.1343   3
   0  -8  -6 5.62675 11.1167   6
   0   8   6 8.17031 13.4963   3
   0  -8  -6 34.3496 20.5805   1
   0   8   6 15.0188 12.7559   7
   0  -8  -6 11.7453 11.4539   8
   0   8   7 152.540 16.8902   3
   0   8   7 158.968 16.7740   7
   0  -8  -7 141.265 16.4243   8
   0   8   8 38.7046 16.1306   3
   0  -8  -8 4.54681 13.5448   8
   0  -8  -8 5.94061 24.0432   1
   0   8   8 24.6568 15.7598   7
   0  -8  -9 14.9624 24.9879   6
   0  -8  -9-29.2289 27.5911   1
   0  -8  -9-1.49774 14.4576   8
   0   8   9 32.6659 17.6711   3
   0   8   9 25.4093 17.8042   7
   0  -8 -10 59.4410 29.5771   1
   0   8  10 74.4499 19.6528   7
   0  -8 -10 51.6602 25.6495   2
   0  -9  10 99.4910 12.9327   8
   0  -9  10 101.186 16.0862   5
   0  -9  10 96.9573 8.69021   4
   0  -9   9 196.209 11.0256   4
   0  -9   9 239.977 16.0349   8
   0  -9   9 183.396 10.1918   1
   0  -9   8 12.1154 6.25210   4
   0  -9   8 19.2094 10.0806   8
   0  -9   8 11.7723 6.47786   1
   0  -9   7 426.602 18.1588   1
   0  -9   7 523.214 21.4080   8
   0  -9   6 7.60532 9.16109   8
   0  -9   6-2.33981 7.80591   1
   0  -9   5 5.47757 8.05897   1
   0  -9   5 4.51848 8.33848   8
   0   9  -4-4.49526 8.84595   5
   0  -9   4-1.00413 8.52455   1
   0  -9   3 15.2275 6.80277   8
   0  -9   3 12.1910 8.60876   1
   0   9  -3 8.79918 9.87632   5
   0  -9   2 369.506 18.8214   1
   0  -9   2 369.440 15.0775   8
   0   9  -2 328.486 17.6512   5
   0  -9   1 0.58698 7.40406   8
   0   9  -1 17.2214 12.0506   5
   0  -9   1 18.9025 10.1564   1
   0  -9   0 820.826 26.4025   8
   0  -9   0 802.510 30.7332   1
   0  -9  -1 105.081 13.5725   1
   0  -9  -1 70.5837 10.4315   8
   0  -9  -2 5.74291 9.92346   8
   0  -9  -2 24.2287 11.1847   1
   0  -9  -2 36.5655 10.7136   6
   0  -9  -3 34.6672 10.8735   8
   0  -9  -3 39.0358 11.2756   6
   0  -9  -4 211.915 16.7591   6
   0  -9  -4 237.139 16.8826   8
   0  -9  -5 190.779 16.6824   6
   0  -9  -5 164.725 16.4472   8
   0  -9  -6 21.6332 23.5459   1
   0  -9  -6 10.5969 12.2827   8
   0  -9  -6 6.44933 12.2472   6
   0  -9  -7 47.0305 25.9035   1
   0  -9  -7 34.0676 13.0709   6
   0  -9  -7 19.3829 14.0264   8
   0  -9  -8-8.11362 14.3998   8
   0  -9  -8-23.1312 27.7418   1
   0  -9  -9-20.4835 30.6948   1
   0 -10   9 222.463 16.1320   8
   0 -10   8 64.7857 6.42800   6
   0 -10   8 68.7021 12.3549   8
   0 -10   8 55.1820 8.77117   1
   0 -10   7 1.34504 7.79266   1
   0 -10   7-10.2488 10.1738   8
   0 -10   6 0.58231 9.38312   8
   0 -10   5 177.188 13.4731   8
   0 -10   5 200.069 14.4586   1
   0  10  -4 30.4332 10.8116   5
   0 -10   4 56.7872 8.25565   8
   0 -10   4 28.8583 10.7816   1
   0  10  -3 240.832 14.9774   5
   0 -10   3 190.524 14.9558   1
   0 -10   3 226.731 12.0380   8
   0 -10   2 214.421 12.3395   8
   0 -10   2 211.811 15.6104   1
   0  10  -2 164.833 15.8029   5
   0 -10   1 303.890 18.4353   1
   0 -10   1 287.861 14.6246   8
   0  10  -1 244.881 18.3089   5
   0 -10   0 5.36927 8.74122   8
   0  10   0 12.3202 14.4754   5
   0 -10   0 29.1205 11.3270   1
   0 -10  -1 65.0142 12.5402   6
   0 -10  -1 64.8565 12.9703   1
   0 -10  -1 44.1687 10.8569   8
   0  10   1 44.9821 17.3092   5
   0 -10  -2 221.972 18.1527   1
   0 -10  -2 243.819 16.9510   8
   0 -10  -2 242.067 17.8505   6
   0 -10  -3 83.2254 13.7810   6
   0 -10  -3 70.0589 13.2577   8
   0 -10  -4 61.0871 13.1712   8
   0 -10  -4 53.1296 13.5492   6
   0 -10  -5 9.78436 12.6051   6
   0 -10  -5 14.6519 12.9478   8
   0 -10  -6 104.553 28.7422   1
   0 -10  -6 88.2330 16.6380   8
   0 -10  -6 94.6868 15.6246   6
   0 -10  -7 4.19579 14.7446   8
   0 -10  -7 4.85069 29.1045   1
   0 -11   7 34.1963 10.6373   8
   0 -11   7 58.5122 10.0227   1
   0 -11   6 4.02784 9.06826   1
   0 -11   6-2.48035 9.43106   8
   0 -11   6 10.3314 7.68844   6
   0 -11   5 9.81823 8.61749   6
   0 -11   5 13.9688 7.41805   8
   0 -11   5 14.5638 8.72498   8
   0 -11   5 11.2522 10.0828   1
   0 -11   4 1.45341 7.73136   8
   0 -11   4-2.79645 9.74359   6
   0 -11   4 6.49630 10.4572   1
   0  11  -4 6.92695 11.5402   5
   0 -11   3 334.607 20.5011   1
   0 -11   3 381.511 19.4114   6
   0 -11   3 359.384 16.7279   8
   0  11  -3 434.706 19.3906   5
   0 -11   2 20.4353 10.8943   6
   0 -11   2 17.4785 11.3154   1
   0 -11   2 1.03521 8.30375   8
   0  11  -2 10.0929 13.7560   5
   0 -11   1 225.987 14.6012   8
   0 -11   1 235.380 17.5808   1
   0 -11   1 265.238 17.3260   6
   0  11  -1 203.424 18.8356   5
   0 -11   0 32.3134 12.3022   1
   0 -11   0 4.42515 10.1770   8
   0  11   0 9.66644 15.8960   5
   0 -11   0 14.5797 11.7590   6
   0  11   1 22.4491 17.2190   5
   0 -11  -1 34.4820 12.4178   6
   0 -11  -1 22.0364 13.4711   1
   0 -11  -1 26.6272 10.9130   8
   0 -11  -2 13.1523 12.4874   1
   0 -11  -2 11.3540 12.0993   6
   0  11   2-26.2209 19.8822   5
   0 -11  -2 5.81379 10.4241   8
   0 -11  -3 9.71058 11.5713   8
   0 -11  -3 14.2613 13.2461   1
   0 -11  -3 11.8834 12.7302   6
   0 -11  -4 85.3126 15.4681   8
   0 -11  -4 112.708 16.3380   6
   0 -11  -5 15.5221 13.3004   8
   0 -11  -5 17.2954 13.4613   6
   0 -11  -6 58.1738 15.9444   8
   0 -12   6 101.133 12.4336   1
   0 -12   5 79.5096 12.9124   1
   0 -12   4 14.6003 10.3535   6
   0 -12   4 10.9644 11.6817   1
   0 -12   3 278.673 19.9422   1
   0 -12   3 287.904 15.6913   8
   0 -12   3 288.429 18.3258   6
   0 -12   2 30.7237 12.4967   6
   0 -12   2 16.7798 10.3649   8
   0 -12   2 35.3552 14.1078   1
   0 -12   1 147.235 13.8784   8
   0 -12   1 167.681 16.0779   6
   0 -12   1 148.306 17.2267   1
   0  12  -1 146.328 18.3129   5
   0 -12   0 35.1788 13.2666   6
   0  12   0 37.0490 17.0566   5
   0 -12   0 30.6094 11.3476   8
   0 -12   0 31.9668 14.0323   1
   0 -12  -1 9.03929 12.6040   6
   0 -12  -1 2.64204 13.8537   1
   0 -12  -1 24.7330 10.9672   8
   0  12   1-3.28383 17.2833   5
   0 -12  -2 7.99897 12.7493   6
   0  12   2-3.31376 19.9393   5
   0 -12  -2 8.20915 11.3690   8
   0 -12  -3 12.4150 12.3158   8
   0 -12  -3 19.7772 14.3059   6
   0  12   3-1.26057 22.4671   5
   0 -12  -4 115.753 17.0754   8
   0 -13   5 3.32295 10.7391   1
   0 -13   4 50.5379 13.2640   1
   0 -13   3 7.26788 12.7313   1
   0 -13   1 164.342 17.1271   6
   0 -13   0 37.1319 13.6512   6
   0 -13  -1 16.0435 13.4764   6
   1 -13  -1 7.79014 13.5925   6
   1 -13   0 26.7751 13.7111   6
   1 -13   1 0.82745 12.5511   6
   1 -13   2 4.76227 13.0207   1
   1 -13   3 1.16591 12.6900   1
   1 -13   4 114.537 15.2482   1
   1 -12  -5 49.2193 15.7177   8
  -1  12   4-9.88158 25.0531   5
   1 -12  -4 16.5069 13.2702   8
   1 -12  -4 19.3483 15.1666   6
  -1  12   3-0.42196 22.1788   5
   1 -12  -3 29.2081 12.5618   8
   1 -12  -3 27.6364 13.9377   6
   1 -12  -2 1.92294 11.1270   8
   1 -12  -2 0.86292 14.2917   1
  -1  12   2 1.44093 19.1752   5
   1 -12  -2 8.52020 13.1216   6
   1 -12  -1 5.50251 10.5130   8
  -1  12   1-1.63092 18.0827   5
   1 -12  -1 13.3926 13.9327   1
   1 -12  -1-10.4307 12.8675   6
  -1  12   0 13.1368 17.3639   5
   1 -12   0 16.3238 13.2684   1
   1 -12   0-1.55549 11.5720   6
   1 -12   0 7.00012 10.4104   8
   1 -12   1 56.2894 10.6649   8
   1 -12   1 64.8443 14.5529   1
  -1  12  -1 48.1223 16.4613   5
   1 -12   1 52.6320 13.0759   6
   1 -12   2 411.715 23.7095   1
   1 -12   2 383.767 20.9079   6
   1 -12   2 390.053 18.2864   8
  -1  12  -2 403.276 21.9377   5
   1 -12   3 34.6096 12.2804   1
   1 -12   3-2.92510 10.8417   6
  -1  12  -3 23.4931 14.7838   5
   1 -12   4 70.6657 13.0090   1
   1 -12   5 2.49567 10.3865   1
   1 -12   6 2.92297 9.76325   1
   1 -11  -7-17.5497 15.4140   8
   1 -11  -6-3.22066 13.7340   8
   1 -11  -5 52.8804 15.1129   8
   1 -11  -5 67.2326 15.6012   6
   1 -11  -4 13.7175 11.9969   8
   1 -11  -4 19.6917 13.1412   6
   1 -11  -3 40.7403 14.7209   1
   1 -11  -3 29.5716 13.0127   6
  -1  11   3 14.0096 21.7677   5
   1 -11  -3 23.2744 11.8397   8
   1 -11  -2 24.2191 12.2259   6
   1 -11  -2 19.0402 11.0557   8
  -1  11   2 14.8519 19.4218   5
   1 -11  -2 25.2031 14.6737   1
   1 -11  -1 111.658 14.4870   6
   1 -11  -1 115.762 17.0945   1
   1 -11  -1 106.840 12.6614   8
  -1  11   1 95.9743 18.3225   5
   1 -11   0 49.6699 11.9381   6
  -1  11   0 21.7431 16.5847   5
   1 -11   0 51.6992 10.0897   8
   1 -11   0 71.7055 14.5153   1
   1 -11   1-8.43391 9.26447   8
   1 -11   1 24.4343 11.9299   1
  -1  11  -1 7.55603 15.1637   5
   1 -11   1 22.5217 10.7454   6
  -1  11  -2 365.635 20.9489   5
   1 -11   2 388.987 22.2240   1
   1 -11   2 403.392 19.2354   6
   1 -11   2 357.594 16.5680   8
  -1  11  -3 291.182 17.7706   5
   1 -11   3 220.384 15.0040   6
   1 -11   3 227.867 12.6958   8
   1 -11   3 238.692 17.4735   1
   1 -11   4 61.9175 9.28926   8
  -1  11  -4 70.0960 14.0950   5
   1 -11   4 89.1103 11.8625   1
   1 -11   4 82.7581 10.4789   6
   1 -11   4 70.8551 8.06942   8
   1 -11   5 11.0280 7.86488   6
   1 -11   5 9.50290 6.15056   8
   1 -11   5 17.6827 9.55430   1
   1 -11   5 5.89570 8.51422   8
   1 -11   6 52.3145 10.4547   1
   1 -11   7 19.9125 8.75121   1
   1 -10  -8-11.9058 16.2007   8
   1 -10  -7-16.3367 15.9587   8
   1 -10  -7-0.26416 13.3801   6
  -1  10   7 24.7664 14.8582   3
   1 -10  -6 123.381 17.6246   8
  -1  10   6 166.584 15.5286   3
   1 -10  -6 168.827 18.2671   6
   1 -10  -5 33.8238 27.1660   1
   1 -10  -5 8.78170 12.7237   6
   1 -10  -5 2.38462 12.1408   8
  -1  10   5 18.4183 11.8665   3
   1 -10  -4 145.422 15.5225   6
  -1  10   4 129.017 12.1324   3
   1 -10  -4 132.188 15.0827   8
   1 -10  -3 361.488 20.8025   6
   1 -10  -3 354.548 20.2610   8
  -1  10   3 308.095 13.6754   3
   1 -10  -3 346.542 24.0547   1
  -1  10   2 61.4974 19.3478   5
   1 -10  -2 84.9192 12.9164   6
   1 -10  -2 76.5237 15.2678   1
   1 -10  -2 68.8591 11.4986   8
   1 -10  -1 64.8177 14.1760   1
  -1  10   1 44.9655 16.8723   5
   1 -10  -1 60.8487 11.5340   6
   1 -10  -1 67.5801 9.98641   8
   1 -10   0 0.91426 9.98924   6
   1 -10   0-0.23017 11.4514   1
  -1  10   0 1.78078 14.4475   5
   1 -10   1 71.8755 10.8594   6
  -1  10  -1 66.7016 15.0080   5
   1 -10   1 51.3131 8.27435   8
   1 -10   1 68.6487 13.1653   1
   1 -10   2 68.2378 12.4248   1
   1 -10   2 73.3410 10.0320   6
  -1  10  -2 52.1195 14.0564   5
   1 -10   2 58.0018 8.06274   8
  -1  10  -3 128.361 13.9446   5
   1 -10   3 91.0468 10.4163   6
   1 -10   3 89.7563 13.0465   1
   1 -10   3 79.9064 8.15127   8
   1 -10   4 471.418 18.6082   6
  -1  10  -4 467.473 20.5117   5
   1 -10   4 444.679 21.6221   1
   1 -10   4 392.326 17.6794   8
   1 -10   4 477.070 16.3652   8
   1 -10   5 3.96851 7.27243   6
   1 -10   5 1.42732 8.72601   8
   1 -10   5 21.3117 8.53407   1
   1 -10   5 8.77032 5.93101   8
   1 -10   6 7.87495 8.54872   8
   1 -10   6 9.55756 8.05405   1
   1 -10   6 13.8880 6.21756   6
   1 -10   7 23.4889 9.08528   8
   1 -10   7 29.4892 8.19781   1
   1 -10   8 404.899 16.9924   8
   1 -10   8 282.893 14.2528   1
  -1   9  10 70.8174 20.4311   3
  -1   9  10 53.2970 18.8617   7
  -1   9   9 54.8166 17.0364   7
   1  -9  -9 14.8095 24.5289   2
   1  -9  -9 24.6153 15.8246   8
  -1   9   9 61.0699 18.8518   3
   1  -9  -8 113.270 29.5055   1
  -1   9   8 44.7926 15.2456   7
   1  -9  -8 5.56068 14.7341   8
  -1   9   8 85.4827 17.5437   3
   1  -9  -8 33.0493 13.9820   6
  -1   9   7 36.4055 15.7976   3
  -1   9   7 16.8658 13.3683   7
   1  -9  -7 11.5614 12.7581   6
   1  -9  -7 11.7114 13.5644   8
   1  -9  -7 61.4409 27.6303   1
   1  -9  -6 196.864 29.2007   1
   1  -9  -6 180.644 17.2083   6
  -1   9   6 164.596 14.9301   7
   1  -9  -6 160.020 16.9251   8
  -1   9   6 193.920 17.2492   3
  -1   9   5 95.9339 14.5575   3
   1  -9  -5 126.756 27.3006   1
   1  -9  -5 80.6274 13.5290   8
   1  -9  -5 100.240 13.9943   6
  -1   9   4 113.783 13.0154   3
   1  -9  -4 104.729 13.7867   8
   1  -9  -4 116.483 13.8367   6
   1  -9  -3 22.4454 10.3402   6
  -1   9   3 2.36126 9.73384   3
   1  -9  -3 7.90796 9.48126   8
  -1   9   2 501.107 16.9017   3
   1  -9  -2 523.591 26.6113   1
   1  -9  -2 481.860 20.8340   8
   1  -9  -2 521.593 22.8320   6
   1  -9  -1 366.840 22.0975   1
   1  -9  -1 339.147 16.4027   8
  -1   9   1 364.281 11.3308   3
  -1   9   1 282.548 21.0255   5
  -1   9   1 292.049 11.9932   4
   1  -9  -1 379.915 18.2263   6
   1  -9   0 46.4752 9.30755   6
   1  -9   0 19.5390 8.01887   8
   1  -9   0 22.6590 12.3215   1
  -1   9   0 44.9114 13.4852   5
   1  -9   1 41.8932 7.52753   8
  -1   9  -1 44.7983 12.8577   5
   1  -9   1 63.3633 9.06146   6
   1  -9   1 48.4300 11.3584   1
   1  -9   2 53.5403 8.89693   6
   1  -9   2 55.6875 11.5898   1
  -1   9  -2 19.2764 11.7766   5
   1  -9   2 42.8912 6.76735   8
   1  -9   3 155.093 8.94046   8
   1  -9   3 149.650 10.7033   6
  -1   9  -3 144.243 12.9879   5
   1  -9   3 138.351 13.6024   1
   1  -9   4 25.0137 7.91229   6
   1  -9   4 51.7893 6.63462   8
   1  -9   4 25.8704 9.61295   1
  -1   9  -4 19.8901 10.2000   5
   1  -9   4 38.8894 8.34264   8
   1  -9   5 266.576 12.4821   6
   1  -9   5 321.148 15.9589   1
   1  -9   5 294.634 14.9873   8
  -1   9  -5 296.941 15.5208   5
   1  -9   6 292.312 14.2919   8
   1  -9   6 274.666 13.4503   1
   1  -9   7 9.69909 6.96445   1
   1  -9   7 26.3999 8.64440   8
   1  -9   8 131.376 11.6394   8
   1  -9   8 99.3961 8.67428   1
   1  -9   8 107.106 9.97351   4
   1  -9   9 10.0763 7.62590   4
   1  -9   9 1.41320 8.56915   8
   1  -9   9 1.44425 6.13898   1
   1  -9   9 3.76728 5.29899   1
   1  -9   9-3.73229 14.0712   5
   1  -9  10 72.9112 8.76084   4
   1  -9  10 64.4689 16.0649   5
  -1   8  11 134.917 21.4106   7
   1  -8 -11 122.389 32.7714   1
  -1   8  11 175.083 23.3551   3
   1  -8 -11 115.361 29.2904   2
   1  -8 -10 1.66741 26.4711   6
  -1   8  10 18.6429 18.0489   7
  -1   8  10 56.3645 19.1136   3
   1  -8 -10 7.84640 14.2317   8
   1  -8 -10 18.6631 24.1509   2
  -1   8   9 109.071 19.5148   3
   1  -8  -9 41.6244 23.0336   2
   1  -8  -9 41.7709 15.8441   8
  -1   8   9 67.2602 17.4109   7
   1  -8  -9 146.475 27.7742   1
   1  -8  -8 9.12078 25.0236   1
  -1   8   8 33.6141 17.7032   3
  -1   8   8 19.0827 15.3240   7
   1  -8  -8 11.6772 12.9694   8
   1  -8  -7 163.423 16.6957   6
  -1   8   7 187.170 18.9243   3
  -1   8   7 158.325 16.1220   7
   1  -8  -7 157.688 17.1731   8
   1  -8  -6 378.920 22.1817   8
   1  -8  -6 398.449 21.7348   6
  -1   8   6 359.420 18.8752   7
  -1   8   6 438.098 22.0299   3
  -1   8   5 49.5921 13.9255   3
   1  -8  -5 49.3133 11.9543   8
   1  -8  -5 51.0014 24.4983   1
  -1   8   5 48.6565 10.8543   7
   1  -8  -5 58.8406 11.6753   6
  -1   8   4 271.075 15.7935   3
   1  -8  -4 278.925 17.1285   6
   1  -8  -4 260.333 16.2478   8
  -1   8   4 231.074 13.4863   7
  -1   8   3 58.6063 10.8077   3
   1  -8  -3 82.6172 10.3690   8
   1  -8  -3 82.4544 10.7757   6
   1  -8  -2 140.868 11.5318   6
   1  -8  -2 120.446 14.5953   1
   1  -8  -2 128.173 10.6306   8
  -1   8   2 124.390 10.4086   3
  -1   8   1 24.6741 7.45449   3
   1  -8  -1 29.2422 7.71634   8
   1  -8  -1 18.9559 10.6125   1
   1  -8  -1 32.7332 8.59298   6
  -1   8   1 45.1497 14.7123   5
   1  -8   0 67.9439 11.8545   1
  -1   8   0 74.1691 13.3834   5
   1  -8   0 73.7293 7.82610   8
   1  -8   0 82.0028 9.36533   6
  -1   8  -1 13.4874 10.7235   5
   1  -8   1-0.55492 8.82469   1
   1  -8   1 5.19976 6.88749   6
   1  -8   1 8.06424 5.73920   8
   1  -8   2 30.5407 7.26432   6
  -1   8  -2 5.21448 9.95879   5
   1  -8   2 26.9044 5.56341   8
   1  -8   2 10.8845 8.88808   1
   1  -8   3 1431.19 44.5366   1
   1  -8   3 1498.69 38.2359   8
   1  -8   3 1479.60 39.8559   6
   1  -8   4 675.759 24.9281   1
   1  -8   4 682.618 20.8060   6
   1  -8   4 602.019 21.7732   8
  -1   8  -4 642.692 22.9361   5
   1  -8   5 17.9839 5.16656   6
   1  -8   5 12.8659 7.45266   1
   1  -8   5 4.94865 7.56371   8
  -1   8  -5 23.2953 9.61289   5
   1  -8   6 30.3713 4.48037   6
   1  -8   6 40.3908 7.30846   4
   1  -8   6 49.1670 8.82652   8
   1  -8   6 64.1317 7.98416   1
   1  -8   7 572.058 26.0875   5
   1  -8   7 626.050 21.4876   8
   1  -8   7 511.528 18.5525   4
   1  -8   7 471.393 18.4739   1
   1  -8   8 231.048 17.2319   5
   1  -8   8 188.698 9.73705   1
   1  -8   8 226.015 11.3403   4
   1  -8   9 33.0936 8.86010   8
   1  -8   9 48.7340 7.86029   4
   1  -8   9 41.5688 12.4683   5
   1  -8   9 17.6699 2.76865   1
   1  -8   9 20.1394 2.83131   1
   1  -8  10 396.227 18.2116   8
   1  -8  10 368.568 16.5090   4
   1  -8  10 421.795 22.8572   5
   1  -8  10 394.220 13.7816   7
   1  -8  11 10.6193 8.36781   8
   1  -8  11-1.29025 13.0839   5
   1  -8  11 7.91967 8.12625   4
   1  -8  12 2.87613 14.5360   5
   1  -8  12 5.89387 8.29936   4
   1  -7 -12-33.9233 29.9178   1
   1  -7 -12 29.8614 26.9582   2
  -1   7  12 46.7403 22.3275   3
   1  -7 -11 58.7850 27.5516   1
  -1   7  11 86.4069 21.4568   7
   1  -7 -11 56.2688 16.1501   8
  -1   7  11 102.589 21.7969   3
  -1   7  11 86.8563 21.9079   8
   1  -7 -11 43.2119 26.0325   2
   1  -7 -11 28.3543 26.7771   6
  -1   7  10 86.3924 20.2415   3
   1  -7 -10 58.0719 15.7889   8
   1  -7 -10 27.3511 21.2901   2
   1  -7 -10 32.0290 24.8510   6
   1  -7 -10 110.763 25.6161   1
  -1   7  10 43.1517 18.6867   7
  -1   7  10 62.1744 19.9795   8
  -1   7   9 159.134 20.5943   3
   1  -7  -9 128.064 17.0835   8
   1  -7  -9 156.146 25.0552   6
  -1   7   9 153.328 19.3512   7
   1  -7  -9 120.338 21.2439   2
  -1   7   9 180.592 20.1364   8
   1  -7  -8 64.1164 23.1029   1
  -1   7   8 46.4005 17.0414   3
  -1   7   8 31.8636 15.3923   7
   1  -7  -8 24.4399 12.7737   8
  -1   7   8 43.9196 16.3461   8
   1  -7  -7 3.64318 11.0620   8
   1  -7  -7 35.5669 23.0825   1
  -1   7   7 14.6254 13.5297   7
  -1   7   7 26.9400 15.2769   3
   1  -7  -6 319.591 18.9175   6
   1  -7  -6 314.976 19.5726   8
   1  -7  -6 395.043 28.7897   1
  -1   7   6 327.048 18.1067   7
  -1   7   6 332.495 19.4739   3
   1  -7  -5 374.027 19.5468   8
  -1   7   5 402.360 18.2694   7
   1  -7  -5 419.700 20.3188   6
  -1   7   5 432.367 20.2887   3
   1  -7  -4 108.077 21.4554   1
   1  -7  -4 121.980 11.2747   6
   1  -7  -4 100.686 10.7860   8
  -1   7   4 105.979 10.5244   7
  -1   7   4 108.354 12.1213   3
   1  -7  -3 34.2741 8.22038   6
  -1   7   3 26.8507 10.0742   3
   1  -7  -3 34.1849 7.77861   8
  -1   7   3 34.6785 7.43612   7
   1  -7  -2 60.6403 7.86007   8
   1  -7  -2 58.6815 8.39165   6
   1  -7  -1 91.5358 8.16348   8
   1  -7  -1 107.884 12.5915   1
   1  -7  -1 116.915 9.70121   6
  -1   7   0 1057.33 36.0836   5
   1  -7   0 1091.06 32.3337   8
  -1   7   0 1197.87 30.3905   4
   1  -7   0 1244.17 34.9062   6
   1  -7   0 1177.80 39.4873   1
   1  -7   1 1922.82 48.9920   8
  -1   7  -1 1778.78 51.5916   5
   1  -7   1 1968.73 56.5016   1
   1  -7   2 609.277 17.8811   8
   1  -7   2 646.031 24.5588   1
  -1   7  -3 163.276 12.0590   5
  -1   7  -3 194.886 8.31642   3
   1  -7   3 221.490 13.5107   1
   1  -7   4 689.174 22.5513   8
   1  -7   4 700.797 25.0889   1
  -1   7  -4 722.488 23.4438   5
   1  -7   5 365.442 13.9657   4
   1  -7   5 380.328 12.4560   6
   1  -7   5 456.746 16.4611   8
   1  -7   5 467.487 20.8717   5
   1  -7   5 430.429 17.1370   1
   1  -7   6 520.554 18.3090   1
   1  -7   6 557.095 22.6347   5
   1  -7   6 496.643 17.0835   4
   1  -7   6 580.553 20.2633   8
   1  -7   7 49.6745 10.3912   5
   1  -7   7 66.7903 9.00410   8
   1  -7   7 44.0573 6.18605   1
   1  -7   7 61.5200 4.36693   7
   1  -7   7 53.5261 6.91507   4
   1  -7   8 341.431 16.4396   8
   1  -7   8 402.155 12.1211   7
   1  -7   8 353.330 18.9586   5
   1  -7   8 359.438 13.8511   4
   1  -7   8 272.696 10.4597   1
   1  -7   9 182.288 12.7014   8
   1  -7   9 181.524 14.5959   5
   1  -7   9 162.929 10.5764   4
   1  -7   9 186.434 9.69201   7
   1  -7  10 101.662 10.6123   8
   1  -7  10 85.4328 8.84606   4
   1  -7  10 82.7068 12.3627   5
   1  -7  10 98.3367 8.15665   7
   1  -7  11 10.7220 6.87988   7
   1  -7  11-3.68943 11.3306   5
   1  -7  11 16.7112 8.59892   8
   1  -7  11 8.57719 7.57764   4
   1  -7  12 129.572 12.3526   8
   1  -7  12 112.509 11.2141   4
   1  -7  12 116.652 10.1563   7
   1  -7  12 118.166 15.1646   5
   1  -7  13 2.39260 9.15490   4
   1  -7  13 3.53684 12.8733   5
   1  -7  14 38.6401 10.5135   4
   1  -6 -13-18.6581 27.9689   2
   1  -6 -13-23.5037 28.4965   1
  -1   6  12 132.560 23.2767   7
  -1   6  12 176.923 25.6940   3
   1  -6 -12 122.079 28.0797   6
   1  -6 -12 143.093 26.7235   2
   1  -6 -12 125.070 18.5677   8
  -1   6  12 182.216 23.4681   8
   1  -6 -12 85.3381 27.7764   1
  -1   6  11 109.036 21.8668   7
   1  -6 -11 169.476 24.9155   1
   1  -6 -11 79.4565 16.6594   8
   1  -6 -11 108.566 26.5726   6
   1  -6 -11 114.168 24.1272   2
  -1   6  11 117.903 20.6350   8
  -1   6  11 134.438 22.5857   3
   1  -6 -10 42.9284 21.1333   6
  -1   6  10 35.0388 18.2655   7
   1  -6 -10 28.2753 19.1565   2
  -1   6  10 56.3643 19.9230   3
   1  -6 -10 18.7683 13.2449   8
  -1   6  10 54.8849 18.1428   8
   1  -6 -10 65.9772 22.5397   1
   1  -6  -9 111.505 15.5369   8
   1  -6  -9 104.637 19.2287   2
  -1   6   9 124.418 18.3316   7
  -1   6   9 158.763 18.6105   8
   1  -6  -9 179.116 23.9329   1
   1  -6  -9 132.667 21.9884   6
  -1   6   9 151.043 19.5946   3
   1  -6  -8 123.087 22.3134   1
  -1   6   8 120.200 16.3685   8
  -1   6   8 89.1107 16.6923   7
   1  -6  -8 89.1893 13.8511   8
   1  -6  -8 99.6650 20.0576   6
   1  -6  -8 75.0537 17.3545   2
  -1   6   8 109.159 17.5483   3
  -1   6   7 340.281 19.7327   7
   1  -6  -7 400.691 26.9988   1
   1  -6  -7 292.743 19.8202   8
  -1   6   7 364.500 21.1222   3
  -1   6   7 371.822 19.1461   8
   1  -6  -6 17.6473 9.47483   8
   1  -6  -6 5.75896 18.7014   1
  -1   6   6 8.39498 11.7307   7
  -1   6   6 20.2908 11.8988   8
  -1   6   6 3.72397 14.0127   3
   1  -6  -5 438.124 20.1890   8
  -1   6   5 489.898 20.8499   3
   1  -6  -5 443.826 20.4329   6
  -1   6   5 498.113 19.6818   7
  -1   6   5 468.391 19.7079   8
   1  -6  -5 557.589 29.2624   1
  -1   6   4 108.454 9.87418   7
   1  -6  -4 109.145 19.4144   1
  -1   6   4 91.6846 11.6500   3
   1  -6  -4 99.0553 9.59699   8
   1  -6  -4 91.5798 9.65525   6
   1  -6  -3 21.0664 6.13791   8
  -1   6   3 22.4081 7.53021   7
   1  -6  -3 17.9174 6.69101   6
   1  -6  -2 1725.58 47.3723   8
  -1   6   2 1695.79 44.5629   7
   1  -6  -2 1787.58 48.6152   6
   1  -6  -1 1.63882 5.18450   8
   1  -6  -1 10.5130 5.73109   6
  -1   6   0 397.826 17.9927   5
   1  -6   0 393.494 13.3610   8
  -1   6   0 384.442 13.1913   4
   1  -6   1 219.935 8.37145   8
  -1   6  -1 164.536 12.1188   5
  -1   6  -2 2796.98 70.8323   5
   1  -6   2 2699.92 74.5586   1
  -1   6  -3 825.837 22.6073   3
  -1   6  -3 871.965 25.7520   5
   1  -6   3 813.129 28.0048   1
   1  -6   4 290.905 10.8499   4
   1  -6   4 289.917 13.9079   1
   1  -6   4 313.774 12.6843   8
  -1   6  -4 314.949 13.5362   5
  -1   6  -4 297.356 12.1676   3
   1  -6   4 347.977 15.7222   5
   1  -6   5 658.894 17.4267   7
   1  -6   5 731.704 21.9919   8
   1  -6   5 665.896 19.8610   4
   1  -6   5 699.628 24.3209   5
   1  -6   5 676.537 22.0144   1
  -1   6  -5 655.683 21.5916   3
   1  -6   6 3.66065 4.24400   4
   1  -6   6 2.91054 7.32820   5
   1  -6   6 3.53239 6.09465   8
   1  -6   6 0.13202 4.53401   1
   1  -6   6 2.33712 3.28498   7
   1  -6   7 60.8644 6.37524   4
   1  -6   7 57.4678 8.15805   8
   1  -6   7 48.2710 5.38610   1
   1  -6   7 60.4856 8.85835   5
   1  -6   7 56.8807 5.64676   7
   1  -6   7 52.1374 5.26330   1
   1  -6   8 150.237 11.6403   8
   1  -6   8 142.398 9.18126   4
   1  -6   8 140.059 11.2578   5
   1  -6   8 146.397 8.69576   7
   1  -6   9 1172.63 29.7153   7
   1  -6   9 1086.64 30.4408   4
   1  -6   9 1231.88 32.5144   8
   1  -6   9 1078.78 32.6800   5
   1  -6  10 154.294 11.5505   4
   1  -6  10 152.823 10.4241   7
   1  -6  10 169.277 12.3653   8
   1  -6  10 136.714 13.3295   5
   1  -6  11 25.1598 7.79017   7
   1  -6  11 22.7767 10.2790   5
   1  -6  11 16.2186 8.47935   4
   1  -6  11 31.6237 9.06544   8
   1  -6  12 16.9822 9.93351   8
   1  -6  12 10.3851 8.40432   4
   1  -6  12 20.3807 8.40484   7
   1  -6  12 16.5523 11.1246   5
   1  -6  13 1.94511 9.35577   4
   1  -6  13-7.12597 10.2001   8
   1  -6  13-1.02649 8.76741   7
   1  -6  13 11.7847 12.2496   5
   1  -6  14 31.8825 13.8929   5
   1  -6  14 38.4964 11.1695   4
   1  -5 -13 5.81299 25.5305   1
  -1   5  13 69.0790 23.7975   3
   1  -5 -13 6.89246 24.4826   2
  -1   5  12 48.1075 22.6535   3
   1  -5 -12-21.5269 24.4361   1
   1  -5 -12 44.4702 22.7953   2
  -1   5  12-6.80500 20.6685   7
   1  -5 -12 39.7100 23.8164   6
   1  -5 -11 37.2433 20.0452   2
  -1   5  11 22.0429 19.9166   7
   1  -5 -11 62.6067 22.1850   6
  -1   5  11 66.5449 21.5634   3
  -1   5  11 62.6583 19.5495   8
   1  -5 -10 127.525 21.8829   6
   1  -5 -10 113.916 19.4091   2
   1  -5 -10 182.778 22.7497   1
   1  -5 -10 110.596 16.3086   8
  -1   5  10 158.549 21.3227   3
  -1   5  10 113.094 19.2411   7
  -1   5  10 144.403 19.8114   8
  -1   5   9 19.3733 15.9202   8
  -1   5   9-18.6649 16.2936   7
   1  -5  -9 8.37057 17.8107   6
  -1   5   9-2.29590 17.2939   3
   1  -5  -9 17.2948 18.6059   1
   1  -5  -9 1.09748 15.5559   2
   1  -5  -9-2.91713 11.1114   8
   1  -5  -8 90.2076 19.7258   1
   1  -5  -8 40.6750 11.7372   8
   1  -5  -8 55.5030 15.4886   2
  -1   5   8 55.0651 15.2060   7
  -1   5   8 86.8220 14.6352   8
   1  -5  -8 75.8570 17.5555   6
  -1   5   8 71.6176 16.1630   3
  -1   5   7 648.568 24.8890   8
   1  -5  -7 591.992 26.0006   8
  -1   5   7 626.514 26.0327   7
   1  -5  -7 701.123 31.4007   1
   1  -5  -7 641.865 28.9799   6
  -1   5   7 653.803 27.1572   3
  -1   5   6 23.9568 11.3592   7
   1  -5  -6 10.8256 17.0353   1
  -1   5   6 15.2296 12.8414   3
  -1   5   6 30.4573 11.3524   8
   1  -5  -6 22.2354 8.07268   8
   1  -5  -5 916.750 31.7480   8
  -1   5   5 964.265 31.4080   3
  -1   5   5 949.732 29.8553   8
  -1   5   5 1032.49 31.1521   7
   1  -5  -4 759.197 27.1048   6
   1  -5  -4 803.039 27.3125   8
   1  -5  -4 926.956 33.8896   1
  -1   5   4 868.830 26.2474   7
  -1   5   4 825.892 25.6194   8
  -1   5   3 1036.26 29.1596   7
  -1   5   3 980.244 28.9772   8
   1  -5  -3 1002.44 30.5405   8
   1  -5  -3 1014.05 31.1119   6
   1  -5  -2 1082.69 31.0910   8
   1  -5  -2 1097.57 32.0733   6
  -1   5   2 1074.72 29.3909   7
  -1   5   1 594.875 16.7479   7
   1  -5  -1 610.892 19.5731   6
   1  -5  -1 568.429 18.1145   8
   1  -5   0 8268.30 198.530   8
  -1   5   0 8279.04 201.843   5
  -1   5  -1 54.3225 8.36895   5
   1  -5   1 88.7627 4.85132   8
  -1   5  -1 60.7858 4.62065   4
  -1   5  -2 107.174 8.23922   5
   1  -5   3 11.2323 4.15937   8
   1  -5   3 18.8819 3.38748   4
  -1   5  -3 16.8958 5.37396   3
  -1   5  -3 14.0609 6.82309   5
   1  -5   3 14.2661 5.76817   5
   1  -5   4 821.700 22.3830   4
  -1   5  -4 804.641 23.4329   3
   1  -5   4 817.464 23.7561   8
  -1   5  -4 846.319 24.1881   5
   1  -5   4 771.484 20.4545   7
   1  -5   4 862.224 25.8708   5
   1  -5   5 0.09301 5.14362   5
  -1   5  -5 4.12686 7.93889   3
   1  -5   5 0.06917 4.19510   1
   1  -5   5 0.75162 4.94641   8
   1  -5   5-0.66157 2.76438   7
   1  -5   5 2.91499 3.35389   4
   1  -5   6-2.20690 5.54386   5
   1  -5   6 4.38257 3.65491   1
  -1   5  -6-6.79892 9.56169   3
   1  -5   6-3.34728 4.34422   4
   1  -5   6-2.15033 5.34247   8
   1  -5   6-3.11362 3.77765   7
   1  -5   7 1025.30 26.2750   5
   1  -5   7 1086.42 23.5044   7
   1  -5   7 1098.74 26.2823   8
   1  -5   7 1055.19 24.3023   4
   1  -5   8 103.642 7.04265   2
   1  -5   8 158.206 9.48104   7
   1  -5   8 162.604 11.0054   5
   1  -5   8 160.451 11.1427   8
   1  -5   8 168.988 10.0481   4
   1  -5   9 233.223 13.6689   8
  -1   5  -9 209.793 15.7489   8
   1  -5   9 214.088 13.3003   5
   1  -5   9 240.662 12.2614   7
   1  -5   9 209.689 12.5320   4
  -1   5 -10 342.792 19.9187   8
   1  -5  10 349.899 17.1804   4
   1  -5  10 360.854 16.4520   7
   1  -5  10 393.148 17.8959   8
   1  -5  10 347.974 17.6160   5
   1  -5  11 34.2933 8.49479   7
   1  -5  11 35.6338 9.14700   4
   1  -5  11 26.0512 9.34128   8
   1  -5  11 30.8690 10.3579   5
  -1   5 -11 51.5531 16.1772   8
   1  -5  12 4.57549 9.59810   8
   1  -5  12 13.6981 9.97518   5
   1  -5  12 21.3459 9.21756   4
   1  -5  12 24.5631 8.87591   7
  -1   5 -12 32.1612 17.6528   8
   1  -5  13-9.04376 11.3277   5
   1  -5  13-4.28369 9.97476   8
  -1   5 -13 24.5002 19.4479   8
   1  -5  13-4.20387 10.3103   4
   1  -5  13 7.10939 9.00819   7
   1  -5  14 233.529 16.6224   7
  -1   5 -14 244.979 25.3698   8
   1  -5  14 196.364 17.6844   5
   1  -5  14 230.395 17.0219   4
   1  -5  14 220.961 16.4519   8
   1  -5  15 13.7678 12.7482   5
   1  -4 -13 16.5205 22.8852   2
  -1   4  13 47.8446 22.9222   3
   1  -4 -13-9.30271 22.2930   1
  -1   4  13-6.39773 21.9347   7
   1  -4 -13 7.96797 26.4770   8
  -1   4  12 583.136 32.1889   7
   1  -4 -12 561.240 31.5498   1
   1  -4 -12 526.095 30.4190   2
   1  -4 -12 556.056 31.2943   6
  -1   4  12 651.095 32.9301   3
   1  -4 -11 49.8212 20.1253   6
   1  -4 -11 30.5521 18.5051   2
  -1   4  11 45.9342 20.1575   3
  -1   4  11 27.7512 19.7910   7
  -1   4  10 555.149 27.9704   3
   1  -4 -10 505.944 27.8393   6
   1  -4 -10 529.072 27.3110   1
   1  -4 -10 439.697 25.1365   2
  -1   4  10 509.152 27.3506   7
  -1   4   9 127.720 17.0189   8
   1  -4  -9 129.473 18.9470   1
  -1   4   9 124.005 18.2843   3
  -1   4   9 111.387 17.5861   7
   1  -4  -9 106.775 16.2844   2
   1  -4  -9 120.766 17.9213   6
   1  -4  -8-7.81815 12.7913   2
   1  -4  -8-0.49954 16.3105   1
  -1   4   8 0.14098 14.7175   3
   1  -4  -8-2.01810 15.0682   6
   1  -4  -7 246.314 15.5614   8
  -1   4   7 279.651 16.8210   8
   1  -4  -7 289.723 19.6765   6
   1  -4  -7 256.814 16.5335   2
   1  -4  -7 300.824 21.1014   1
  -1   4   7 285.634 18.6676   3
  -1   4   6 611.645 24.3327   3
   1  -4  -6 597.891 27.3409   1
   1  -4  -6 623.627 25.4756   6
   1  -4  -6 570.065 23.2575   8
  -1   4   6 635.873 22.8341   8
  -1   4   5 2699.18 68.6753   8
   1  -4  -5 2763.85 74.4063   1
  -1   4   4 3.59381 7.76179   8
   1  -4  -4 0.49875 5.14329   8
   1  -4  -3 1565.49 43.1021   8
  -1   4   3 1662.65 41.7356   8
   1  -4  -3 1479.92 43.2328   6
  -1   4   2 384.064 12.8838   8
   1  -4  -2 366.128 13.2624   8
   1  -4  -2 377.503 13.9871   6
   1  -4  -1 222.442 8.82649   8
   1  -4  -1 250.066 10.0343   6
  -1   4   1 253.145 8.61662   7
   1  -4   0 337.815 10.4954   8
  -1   4   0 339.409 14.3077   5
  -1   4  -1 138.066 5.79968   4
  -1   4  -1 146.202 8.95572   5
   1  -4   2 566.958 17.5467   5
   1  -4   2 475.830 14.5064   4
  -1   4  -2 531.748 16.3998   5
   1  -4   3 318.543 8.93115   7
  -1   4  -3 360.333 12.6058   5
  -1   4  -3 304.117 11.1359   3
   1  -4   3 361.710 12.9738   5
   1  -4   3 323.979 10.3785   4
   1  -4   3 332.773 11.1425   8
  -1   4  -4 3080.05 78.4758   3
   1  -4   4 3134.10 77.6898   4
   1  -4   4 3105.70 76.8426   7
   1  -4   4 3309.18 79.7892   5
   1  -4   4 3212.43 78.7742   8
   1  -4   5 2094.28 53.8923   8
  -1   4  -5 1990.98 54.1834   3
   1  -4   5 2079.01 52.9133   4
   1  -4   5 2075.57 54.3335   5
   1  -4   6 70.4896 6.84404   5
   1  -4   6 51.7773 3.48820   1
  -1   4  -6 73.3620 9.46128   8
   1  -4   6 59.3369 3.44749   1
   1  -4   6 64.5888 5.81312   7
  -1   4  -6 65.8102 10.0274   3
   1  -4   6 60.7221 6.96438   8
   1  -4   7 493.618 16.1380   7
  -1   4  -7 478.026 18.1714   8
   1  -4   7 486.381 17.3338   8
   1  -4   7 511.074 17.4599   5
  -1   4  -8 432.008 20.0292   8
   1  -4   8 479.968 17.6980   7
   1  -4   8 458.164 18.3004   5
   1  -4   8 502.643 19.0175   8
  -1   4  -9 725.875 27.6282   8
   1  -4   9 732.961 24.8026   7
   1  -4   9 678.511 25.0504   5
   1  -4   9 784.344 26.0233   8
   1  -4  10-1.07344 7.81795   5
   1  -4  10 3.39623 7.74770   8
   1  -4  10-0.24803 6.99511   7
  -1   4 -10-2.18663 15.3037   8
  -1   4 -11 24.8159 17.6205   8
   1  -4  11 36.4502 9.40201   7
   1  -4  11 39.9344 9.43461   5
   1  -4  11 44.5434 10.2695   8
  -1   4 -12 35.2107 18.6527   8
   1  -4  12 47.0141 9.89257   7
   1  -4  12 25.0191 10.0427   8
   1  -4  12 43.4420 10.0096   5
   1  -4  13 81.5434 12.9296   5
   1  -4  13 96.9643 12.3601   7
  -1   4 -13 79.4645 21.8852   8
   1  -4  13 98.9692 12.8946   8
   1  -4  14 19.4940 10.7592   7
  -1   4 -14 5.49285 22.3902   8
   1  -4  14 13.1852 11.5822   4
   1  -4  14 15.8514 11.3097   5
   1  -4  14 13.3908 10.7815   8
   1  -4  15 23.6459 11.3698   7
   1  -3 -14 76.0095 23.9886   2
  -1   3  14 79.3692 13.9546   8
  -1   3  14 135.991 24.6564   3
  -1   3  13 27.9397 11.4112   8
   1  -3 -13 32.0851 21.8055   2
   1  -3 -13 23.2394 24.7309   8
   1  -3 -13 27.2155 19.2647   1
  -1   3  13 51.7525 22.6638   3
  -1   3  12 240.902 17.1092   8
   1  -3 -12 265.659 24.3527   2
   1  -3 -12 266.971 23.3881   1
   1  -3 -12 253.865 27.3681   8
  -1   3  12 321.880 26.9098   3
   1  -3 -11 5.30205 16.8105   2
   1  -3 -11 6.56952 20.5234   8
   1  -3 -11 80.7753 17.4676   1
  -1   3  11 56.8298 20.3589   3
   1  -3 -11 58.2031 17.7225   6
   1  -3 -10 70.5264 16.6055   1
   1  -3 -10 33.5883 17.3058   6
  -1   3  10 46.4970 18.2742   3
   1  -3 -10 15.7629 14.8729   2
   1  -3  -9 20.7163 14.8014   1
   1  -3  -9 19.3538 15.5008   6
  -1   3   9 13.5488 14.7741   3
   1  -3  -9 13.4859 13.1822   2
   1  -3  -8 579.069 23.4849   2
   1  -3  -8 590.049 25.8894   1
   1  -3  -8 590.757 25.7916   6
  -1   3   8 607.169 26.5569   3
   1  -3  -7 855.701 29.9815   6
   1  -3  -7 779.092 27.1397   2
   1  -3  -7 794.180 30.4836   1
  -1   3   7 842.229 29.9280   3
   1  -3  -6 1.31832 9.87077   2
  -1   3   6-11.6672 11.6344   3
   1  -3  -6-14.0735 12.6179   1
  -1   3   6-3.05114 10.4783   8
   1  -3  -6 10.3948 11.5570   6
  -1   3   5 7799.05 183.926   8
   1  -3  -5 7757.21 185.410   6
   1  -3  -4 622.589 21.2388   8
  -1   3   4 668.443 20.8457   8
  -1   3   3 427.067 14.2324   8
   1  -3  -3 380.747 14.1214   8
  -1   3   2 502.987 14.7767   8
   1  -3  -2 470.451 15.2147   8
   1  -3  -1 594.138 17.2594   8
   1  -3  -1 615.455 18.0679   6
  -1   3   1 638.058 16.8258   8
   1  -3   0 280.502 9.14209   6
   1  -3   0 261.142 7.96127   8
  -1   3   0 285.418 11.4949   5
   1  -3   1 2.95083 2.12850   6
  -1   3  -1 3.20136 4.46853   5
   1  -3   1-0.06467 2.22245   4
   1  -3   1-1.49396 3.47504   5
  -1   3  -2 4942.71 114.999   5
   1  -3   2 4595.99 113.775   8
   1  -3   2 4650.39 113.959   4
   1  -3   2 4953.06 115.912   5
   1  -3   3 1431.30 36.3534   4
  -1   3  -3 1418.24 36.7669   3
   1  -3   3 1492.39 37.8642   5
   1  -3   3 1406.39 36.6642   8
   1  -3   3 1411.55 35.6178   7
   1  -3   4 296.392 9.35224   1
  -1   3  -4 299.487 12.1138   3
   1  -3   4 289.813 10.7882   8
  -1   3  -4 294.540 11.5609   8
   1  -3   4 287.049 11.1315   5
   1  -3   5 254.131 10.5982   5
  -1   3  -5 256.352 12.8112   3
   1  -3   5 235.173 7.31152   1
   1  -3   5 265.655 10.6884   8
  -1   3  -5 228.702 11.6826   8
   1  -3   6 1159.66 29.6851   8
   1  -3   6 1053.48 28.8998   5
  -1   3  -6 1133.99 31.5874   3
  -1   3  -6 1118.86 30.1520   8
   1  -3   7 67.0119 6.82754   7
  -1   3  -7 46.0798 11.2785   8
   1  -3   7 67.0287 7.93448   8
   1  -3   7 70.8575 7.11644   5
  -1   3  -8-16.0234 12.2135   8
   1  -3   8 1.76724 6.75594   8
   1  -3   8 1.23298 5.53164   7
   1  -3   8-1.37923 5.83519   5
   1  -3   9 523.026 20.1080   8
   1  -3   9 487.749 19.4504   7
  -1   3  -9 455.580 22.7109   8
   1  -3  10 11.2248 7.59413   7
  -1   3 -10 2.43078 15.6077   8
   1  -3  10 18.8567 8.50054   8
   1  -3  11-10.0520 8.92651   8
   1  -3  11-1.03088 8.23353   7
  -1   3 -11-8.72586 17.0917   8
   1  -3  12 64.9401 10.4168   7
   1  -3  12 57.8672 11.0129   8
   1  -3  12 61.1568 10.2854   5
  -1   3 -12 42.9160 19.6237   8
  -1   3 -13 198.475 25.8017   8
   1  -3  13 274.577 16.9040   8
   1  -3  13 212.315 15.7520   5
   1  -3  13 248.956 16.8374   7
   1  -3  14 65.3914 12.1499   5
   1  -3  14 74.3592 12.4125   7
   1  -3  14 70.0431 12.9457   8
  -1   3 -14 43.3705 24.9911   8
   1  -3  15 33.8569 12.0741   8
   1  -3  15 34.9108 11.8715   7
  -1   3 -15 34.5093 27.4286   8
  -1   2  14 145.850 15.9205   7
   1  -2 -14 155.098 27.2066   8
  -1   2  14 172.864 16.1823   8
   1  -2 -13 42.7001 16.8324   1
  -1   2  13 37.8231 11.5746   8
   1  -2 -13 31.9248 20.4609   2
   1  -2 -13 49.0703 23.1875   8
  -1   2  13 31.7487 12.0920   7
  -1   2  12 37.8232 21.4243   3
   1  -2 -12 26.9555 20.6642   8
   1  -2 -12 21.5609 16.2406   1
   1  -2 -12 29.8308 19.5367   2
  -1   2  12 24.5655 11.1265   8
   1  -2 -11 684.888 29.2387   2
   1  -2 -11 639.234 26.5468   1
  -1   2  11 719.304 32.4917   3
   1  -2 -11 603.319 32.1096   8
  -1   2  11 588.721 25.6086   8
   1  -2 -10 1023.11 32.9172   1
   1  -2 -10 942.887 33.4014   2
   1  -2 -10 976.448 35.2784   6
   1  -2 -10 948.156 37.9065   8
  -1   2  10 1051.44 37.7235   3
  -1   2  10 869.553 32.5166   8
   1  -2  -9 15.5694 12.2119   1
   1  -2  -9 9.69797 12.1258   2
   1  -2  -9-2.93740 15.7008   8
   1  -2  -9 8.86405 14.1218   6
   1  -2  -8-2.49601 11.7490   1
   1  -2  -8 1.36041 12.5865   6
   1  -2  -8 3.46824 10.8140   2
  -1   2   8-0.13475 14.2887   3
  -1   2   7 12.6973 12.2081   3
   1  -2  -7 25.4951 10.2234   2
   1  -2  -7 10.9290 11.7290   1
   1  -2  -7 17.7516 11.6057   6
   1  -2  -6 4066.60 99.8978   6
   1  -2  -6 3797.75 97.9855   2
   1  -2  -5 624.501 21.5090   6
   1  -2  -5 588.319 19.7803   2
  -1   2   4 84.1735 8.48880   8
   1  -2  -4 85.7030 7.65216   2
   1  -2  -4 86.4902 9.01424   6
   1  -2  -3 143.977 7.86303   8
  -1   2   3 181.565 8.54951   8
  -1   2   2 52.6436 4.99788   8
   1  -2  -2 38.8466 3.93411   8
  -1   2   1 325.736 10.7753   6
   1  -2  -1 376.692 10.5311   8
   1  -2   0 7219.89 174.498   8
   1  -2   0 7339.05 175.394   6
   1  -2   1 1448.60 36.0784   4
  -1   2  -1 1609.97 36.9540   5
   1  -2   1 1485.10 35.4323   6
  -1   2  -2 2380.15 55.4153   5
   1  -2   2 2170.54 54.6632   4
   1  -2   2 2249.41 54.3402   8
   1  -2   2 2172.14 54.1248   7
   1  -2   2 2262.54 55.5832   5
   1  -2   3 3075.32 77.3302   7
   1  -2   3 3175.75 78.2889   5
   1  -2   3 3129.76 76.4278   1
  -1   2  -3 3195.57 77.5196   8
   1  -2   3 3229.90 77.5878   8
  -1   2  -3 3270.51 78.2139   3
   1  -2   4 7782.89 188.667   1
   1  -2   4 7801.94 191.018   7
   1  -2   4 7899.31 191.432   5
  -1   2  -4 8318.54 191.997   3
  -1   2  -4 8064.88 191.141   8
   1  -2   4 8097.21 191.145   8
  -1   2  -5 744.243 23.4741   8
   1  -2   5 736.764 22.5571   8
  -1   2  -5 771.534 24.5905   3
   1  -2   6 16.7393 5.18914   8
  -1   2  -6 13.3386 10.0008   3
  -1   2  -6 20.6984 9.42179   8
   1  -2   7 19.3016 5.17990   7
   1  -2   7 15.2682 5.83359   8
  -1   2  -7 20.6755 10.9176   8
   1  -2   8 1908.81 54.2075   7
  -1   2  -8 1917.37 55.3786   8
  -1   2  -9 0.39725 13.9040   8
   1  -2   9 11.2064 7.76269   8
   1  -2   9 16.6147 6.78193   7
  -1   2 -10 494.399 24.9447   8
   1  -2  10 482.208 20.6624   8
   1  -2  10 487.830 20.6969   7
   1  -2  11 111.839 11.5269   7
   1  -2  11 107.866 12.0182   8
  -1   2 -11 111.594 18.5194   8
  -1   2 -12 1.12182 18.3462   8
   1  -2  12 1.40715 9.02944   8
   1  -2  12 7.82498 8.39527   7
  -1   2 -13 1.04128 21.1664   8
   1  -2  13 21.3484 10.8108   8
   1  -2  13 10.8737 9.46400   7
   1  -2  14 79.5046 12.9519   8
  -1   2 -14 54.3276 25.0718   8
   1  -2  14 70.6851 13.2164   7
   1  -2  15 52.5791 12.8020   8
  -1   2 -15 18.8527 26.3510   8
  -1   1  14 39.2105 12.7089   7
  -1   1  14 41.0761 12.7605   8
   1  -1 -14 61.7207 23.7412   8
   1  -1 -13 149.523 14.0332   1
  -1   1  13 145.513 15.4430   7
  -1   1  13 132.619 14.7509   8
   1  -1 -13 155.625 23.0946   8
   1  -1 -12 8.88273 16.3242   2
   1  -1 -12 9.23266 18.2218   8
   1  -1 -12 18.9400 13.0034   1
  -1   1  12 11.8265 10.6376   8
  -1   1  11 144.956 14.2522   8
   1  -1 -11 154.508 21.1770   8
   1  -1 -11 157.282 18.8212   2
   1  -1 -11 138.438 14.6611   1
   1  -1 -10 181.055 17.4651   2
   1  -1 -10 147.910 19.4598   8
  -1   1  10 162.593 13.0995   8
   1  -1 -10 187.049 13.5715   1
  -1   1   9 208.201 13.2607   8
   1  -1  -9 187.748 18.2671   8
   1  -1  -9 230.576 13.7861   1
   1  -1  -9 215.096 16.0425   2
   1  -1  -8 1195.95 39.9244   8
   1  -1  -8 1221.84 36.5029   2
   1  -1  -8 1226.01 35.6428   1
  -1   1   8 1144.47 36.9278   8
   1  -1  -8 1229.52 37.3499   6
   1  -1  -7 450.689 18.9556   6
   1  -1  -7 397.632 17.6857   1
   1  -1  -7 466.569 17.7545   2
   1  -1  -7 450.782 20.8654   8
   1  -1  -6 2201.77 55.0994   6
   1  -1  -6 2059.82 53.3079   2
   1  -1  -5 280.410 13.0071   6
  -1   1   5 228.293 10.3420   6
   1  -1  -5 253.307 11.4313   2
  -1   1   4 112.503 6.55648   6
   1  -1  -4 144.672 9.27853   6
   1  -1  -4 125.749 7.91714   2
   1  -1  -3 72.5533 5.81047   2
  -1   1   2 0.26595 1.42625   8
   1  -1   2 12.3542 2.03198   1
   1  -1   2 12.3254 2.15558   7
  -1   1  -2 16.3812 4.03289   3
   1  -1   2 11.8834 2.08976   8
   1  -1   3 676.403 18.5296   8
   1  -1   3 642.258 18.6655   7
  -1   1  -3 707.849 19.2667   8
   1  -1   3 640.114 17.1229   1
  -1   1  -3 709.945 19.8625   3
  -1   1  -4 19.4855 7.05188   3
  -1   1  -4 18.4354 4.52406   6
  -1   1  -4 15.0037 6.70276   8
   1  -1   4 15.1568 3.73604   8
   1  -1   4 15.6242 3.58018   7
   1  -1   4 15.6642 2.51544   1
  -1   1  -5 79.5608 10.0766   3
   1  -1   5 77.3177 4.89847   1
  -1   1  -5 84.8716 6.83843   6
   1  -1   5 74.0507 6.32804   3
   1  -1   5 80.2481 6.39988   8
   1  -1   5 74.3263 6.09796   7
  -1   1  -5 76.5434 9.37043   8
   1  -1   6 1306.41 38.5764   3
  -1   1  -6 1439.82 40.4281   8
   1  -1   6 1323.01 38.8989   7
  -1   1  -6 1474.08 41.2013   3
  -1   1  -6 1389.19 37.0743   6
   1  -1   6 1469.03 39.2532   8
   1  -1   7 69.5160 7.69524   8
   1  -1   7 68.1265 7.20439   7
  -1   1  -7 71.2278 9.17147   6
  -1   1  -7 77.2402 12.0886   8
   1  -1   7 80.2002 7.67584   3
  -1   1  -7 65.4003 6.26646   1
   1  -1   8 2153.37 54.5635   8
  -1   1  -8 2083.48 56.4327   8
   1  -1   8 2018.67 54.6443   7
  -1   1  -8 1926.32 52.0708   6
   1  -1   8 2139.88 54.5597   3
  -1   1  -8 1815.61 48.5749   1
  -1   1  -9 58.8175 15.2975   8
   1  -1   9 49.7331 8.47565   7
   1  -1   9 69.8789 8.99428   3
  -1   1  -9 44.5478 7.45649   1
   1  -1   9 39.3764 8.56218   8
   1  -1  10 57.3944 9.68569   7
   1  -1  10 50.0264 10.0261   8
  -1   1 -10 49.1983 16.5194   8
   1  -1  11 207.905 14.5016   7
  -1   1 -11 198.937 20.5163   8
   1  -1  11 234.321 14.8814   8
   1  -1  12 31.7806 9.55971   7
   1  -1  12 33.9032 10.0739   8
  -1   1 -12 38.1052 18.5807   8
  -1   1 -13 148.864 23.6435   8
   1  -1  13 164.361 14.9632   7
   1  -1  13 159.317 14.5095   8
   1  -1  14 10.6916 10.7246   7
  -1   1 -14 20.3197 23.4647   8
   1  -1  14 12.1976 11.3067   8
  -1   0  15 139.845 16.4777   8
   1   0 -15 103.453 26.7656   8
  -1   0  15 114.436 15.6769   7
  -1   0  14 16.3558 12.1499   8
   1   0 -14 28.6811 23.3200   8
  -1   0  14 44.5393 12.1726   3
  -1   0  14 7.89436 11.5545   7
   1   0 -13 11.9077 8.09894   1
  -1   0  13 32.2711 11.1940   3
   1   0 -13 18.0094 19.2190   8
  -1   0  13 11.2998 11.3418   8
   1   0 -12-8.89441 17.8641   8
  -1   0  12 9.25724 10.1710   8
   1   0 -12-11.2943 9.50355   1
   1   0 -12 4.92445 8.80452   1
  -1   0  12 0.18765 10.5124   3
  -1   0  11 803.819 29.7392   8
  -1   0  11 758.965 29.3260   3
   1   0 -11 724.053 22.7154   1
   1   0 -11 760.065 32.9549   8
  -1   0  10 22.3944 8.81670   8
   1   0 -10 2.05052 9.20021   1
   1   0 -10 13.0641 15.4907   8
  -1   0  10 13.6518 8.71149   3
   1   0  -9 157.509 9.55082   1
   1   0  -9 122.783 15.8214   8
  -1   0   9 125.579 11.0833   8
  -1   0   9 110.741 11.0539   3
   1   0  -9 132.913 13.0798   2
   1   0  -8 613.981 25.8225   8
  -1   0   8 574.584 22.9672   8
   1   0  -8 669.630 23.2089   2
   1   0  -8 643.930 20.1073   1
   1   0  -7 1181.03 32.4765   2
  -1   0   7 1024.33 33.0524   8
  -1   0   7 1025.86 30.8360   6
   1   0  -7 1110.13 34.8782   8
   1   0  -7 1049.92 30.1682   1
  -1   0   6-0.35307 4.21419   6
  -1   0   6-3.50688 4.02083   2
   1   0  -6-1.02379 10.2044   8
  -1   0   6 0.10311 5.49032   8
   1   0  -6-2.37072 7.93374   2
   1   0  -5 63.5488 8.02803   2
  -1   0   5 59.3367 5.17422   6
   1   0  -5 68.4176 9.74358   8
  -1   0   5 57.6564 4.66307   2
  -1   0   4 1960.45 52.2733   2
  -1   0   4 2088.20 52.9680   6
  -1   0   3 198.192 7.55401   6
   1   0  -3 218.569 8.39656   2
  -1   0   3 191.027 7.19797   2
   1   0   2 1153.47 29.3954   1
  -1   0  -2 1333.13 30.1365   8
  -1   0  -2 1273.37 30.6414   7
   1   0   3 1542.05 41.3490   8
   1   0   3 1564.50 40.8172   1
  -1   0  -3 1634.78 40.4919   1
   1   0   4 392.779 12.3737   1
   1   0   4 356.908 12.4848   8
  -1   0  -4 384.457 14.1343   8
  -1   0  -4 351.008 11.3653   1
   1   0   4 367.651 13.0300   7
  -1   0  -5 1454.19 36.6823   6
  -1   0  -5 1446.84 38.9703   8
   1   0   5 1277.06 37.0816   8
   1   0   5 1358.97 37.1399   1
  -1   0  -5 1423.12 34.8762   2
   1   0   5 1322.78 37.7521   7
  -1   0  -5 1290.76 34.8648   1
   1   0   6 2979.16 78.5919   7
  -1   0  -6 2902.34 74.9473   1
  -1   0  -6 3120.26 75.3148   2
  -1   0  -6 3142.16 79.5167   8
  -1   0  -6 3202.99 77.0523   6
   1   0   6 3039.33 78.0340   8
  -1   0  -7 36.8921 9.50447   6
  -1   0  -7 45.7896 7.35628   1
   1   0   7 41.9685 6.90435   7
   1   0   7 38.7345 6.99854   8
  -1   0  -7 47.3585 11.7636   8
  -1   0  -7 50.9626 8.62777   2
  -1   0  -8 15.2859 10.3584   6
  -1   0  -8 29.8539 10.1178   2
   1   0   8 14.2500 6.65368   7
   1   0   8 15.5446 6.97971   8
  -1   0  -8 17.1890 8.38539   1
  -1   0  -8 26.0113 13.1765   8
  -1   0  -9 49.4783 9.50071   1
   1   0   9 57.7310 9.22968   7
  -1   0  -9 56.3549 15.6866   8
   1   0   9 60.5368 9.32279   8
  -1   0  -9 62.7987 13.0537   6
  -1   0  -9 66.3357 14.8792   2
  -1   0 -10 652.342 30.1748   8
  -1   0 -10 604.370 25.6182   6
   1   0  10 700.000 26.2543   7
  -1   0 -10 687.700 24.4020   2
  -1   0 -10 634.421 21.4996   1
   1   0  10 715.734 25.7110   8
   1   0  11 77.4519 10.9565   7
  -1   0 -11 73.1147 18.9312   8
  -1   0 -11 69.0058 10.9503   1
   1   0  11 85.4260 11.3199   8
   1   0  12 3.14032 8.81651   8
  -1   0 -12 4.61807 10.5516   1
   1   0  12 6.63781 8.91738   7
  -1   0 -12-0.42405 18.8602   8
   1   0  13 143.466 14.6491   7
   1   0  13 154.366 14.6504   8
  -1   0 -13 100.135 22.9808   8
   1   0  14 29.5507 12.1488   7
   1   0  14 39.0260 12.6367   8
  -1   0 -14 36.1920 25.5624   8
  -1  -1  15-2.58202 11.8811   7
  -1  -1  15 30.1422 12.7825   3
   1   1 -15-8.14817 24.8118   8
  -1  -1  15-11.2619 13.0331   8
  -1  -1  14 6.65359 11.2980   7
  -1  -1  14 37.1485 12.3593   3
   1   1 -14 20.3733 22.2269   8
  -1  -1  14 6.73257 12.4792   8
  -1  -1  13 290.623 19.1558   8
  -1  -1  13 293.799 18.6073   3
   1   1 -13 239.413 24.7967   8
  -1  -1  12 215.884 16.0532   3
  -1  -1  12 215.951 16.6201   8
   1   1 -12 159.652 21.6703   8
  -1  -1  11 302.327 17.8166   3
  -1  -1  11 317.206 18.7202   8
   1   1 -11 244.234 22.0159   8
   1   1 -10 1.24819 15.0400   8
  -1  -1  10 3.75405 8.41669   8
  -1  -1  10 8.46395 8.29289   3
  -1  -1   9 48.8376 8.68085   3
   1   1  -9 39.4277 13.7825   8
  -1  -1   9 36.1703 6.75432   6
  -1  -1   9 50.5446 8.83527   8
  -1  -1   8 147.784 9.17273   6
   1   1  -8 162.732 15.2517   8
  -1  -1   8 161.402 8.51175   2
  -1  -1   8 159.633 11.6741   8
  -1  -1   8 169.166 11.1876   3
  -1  -1   7 527.114 16.9809   2
  -1  -1   7 504.181 19.9382   8
   1   1  -7 530.597 21.6609   8
  -1  -1   7 500.579 19.2706   3
  -1  -1   7 520.300 17.4883   6
  -1  -1   6 6536.18 159.292   2
   1   1  -6 7003.09 162.424   8
  -1  -1   6 6353.16 161.447   3
  -1  -1   6 6558.62 162.568   8
  -1  -1   6 6489.47 159.728   6
  -1  -1   5 25.4925 4.07302   2
   1   1  -5 19.6071 8.54454   8
  -1  -1   5 27.9131 5.48506   8
  -1  -1   5 24.7492 4.16506   6
  -1  -1   4 5852.80 151.281   8
  -1  -1   4 6141.37 149.868   2
  -1  -1   3 198.869 6.21345   1
   1   1  -3 217.268 9.22862   8
  -1  -1   2 153.974 5.03477   1
  -1  -1  -1 7636.63 25.5893   3
  -1  -1  -1 0.46932 1.29113   1
  -1  -1  -2 340.670 11.2342   1
   1   1   2 323.940 11.1195   1
   1   1   2 372.614 11.3025   3
   1   1   3 421.490 14.3473   1
   1   1   3 433.460 14.2840   3
  -1  -1  -3 450.624 14.8195   8
  -1  -1  -3 423.042 13.7957   1
  -1  -1  -4 5.44119 6.13596   1
   1   1   4 11.7434 6.77228   3
   1   1   4 4.11367 4.07256   8
   1   1   4 3.95527 4.59728   1
  -1  -1  -4 6.81623 7.59613   8
  -1  -1  -5 108.748 11.1386   8
  -1  -1  -5 120.286 9.70131   6
   1   1   5 105.154 7.34851   8
   1   1   5 124.479 10.1382   3
  -1  -1  -5 118.310 8.78287   1
  -1  -1  -6 1047.91 31.5737   6
   1   1   6 1024.00 31.0002   8
   1   1   6 1074.45 32.4401   3
  -1  -1  -6 1088.47 30.2232   1
  -1  -1  -6 1113.40 34.0058   8
   1   1   7 1403.95 40.3831   8
  -1  -1  -7 1450.95 38.9953   1
  -1  -1  -7 1372.18 38.3575   2
  -1  -1  -7 1442.02 40.7020   6
   1   1   7 1329.97 41.1722   7
  -1  -1  -7 1540.42 43.9160   8
  -1  -1  -8 704.073 25.9050   6
   1   1   8 743.791 25.0768   8
  -1  -1  -8 697.233 24.0169   2
  -1  -1  -8 749.537 23.8849   1
   1   1   8 714.421 25.6748   7
  -1  -1  -8 768.309 29.5210   8
   1   1   9 4.22452 7.60698   8
   1   1   9 10.0035 7.70443   7
  -1  -1  -9 24.6885 11.3077   1
  -1  -1  -9 3.07086 11.7072   2
  -1  -1  -9 5.59050 15.3838   8
  -1  -1  -9 12.9401 13.0411   6
   1   1  10 162.246 13.1677   7
  -1  -1 -10 153.125 20.1548   8
  -1  -1 -10 149.198 14.3151   1
  -1  -1 -10 173.660 17.3543   6
  -1  -1 -10 152.183 16.0902   2
   1   1  10 185.740 13.5827   8
  -1  -1 -11 113.342 17.2850   2
  -1  -1 -11 118.349 14.9282   1
  -1  -1 -11 113.239 21.0733   8
   1   1  11 113.924 12.6121   7
  -1  -1 -11 112.041 17.6443   6
   1   1  11 132.698 12.7189   8
  -1  -1 -12 48.8803 16.8569   2
   1   1  12 78.6856 12.0987   7
   1   1  12 73.3773 11.4942   8
  -1  -1 -12 74.5114 21.5749   8
  -1  -1 -12 68.2461 14.8491   1
   1   1  13 38.1940 11.4154   8
   1   1  13 35.7607 11.6972   7
  -1  -1 -13 31.9380 23.7690   8
   1   1  14 138.085 15.0915   8
  -1  -1 -14 130.576 28.4062   8
  -1  -2  15 116.249 14.7180   3
   1   2 -15 94.1986 27.0384   8
  -1  -2  15 77.0351 14.7921   7
  -1  -2  15 64.9570 14.6678   8
  -1  -2  14 17.9912 11.8801   8
   1   2 -14 13.4041 21.7059   8
  -1  -2  14 18.2126 11.5644   3
  -1  -2  13 301.483 19.4370   8
  -1  -2  13 328.115 18.8517   3
   1   2 -13 267.720 25.2788   8
   1   2 -12 686.698 32.7574   8
  -1  -2  12 730.905 29.7562   8
  -1  -2  12 755.784 28.7854   3
   1   2 -11 136.481 19.7746   8
  -1  -2  11 194.750 14.7296   3
  -1  -2  11 169.461 15.0222   8
  -1  -2  10 534.574 21.9810   3
  -1  -2  10 529.463 23.2197   8
   1   2 -10 518.122 25.4765   8
  -1  -2   9 1304.71 37.4928   6
  -1  -2   9 1332.73 40.2338   3
   1   2  -9 1301.10 42.0111   8
  -1  -2   9 1331.96 36.7179   2
  -1  -2   9 1361.87 42.3357   8
  -1  -2   8 6.22683 4.92169   6
  -1  -2   8 4.60702 6.40942   3
  -1  -2   8 11.2202 5.02168   2
   1   2  -8 1.32421 12.2329   8
  -1  -2   8 4.87461 6.77077   8
  -1  -2   7 895.879 26.0525   2
  -1  -2   7 860.416 25.7955   6
  -1  -2   7 876.786 27.8242   3
   1   2  -7 914.161 29.9892   8
  -1  -2   7 883.161 29.2054   8
  -1  -2   6 1363.72 37.3905   6
  -1  -2   6 1382.33 37.8128   2
   1   2  -6 1496.78 40.7891   8
  -1  -2   6 1335.60 38.7015   3
  -1  -2   6 1422.92 40.5085   8
   1   2  -5 1754.88 45.2533   8
  -1  -2   5 1609.20 44.0103   3
  -1  -2   5 1631.84 45.3384   8
  -1  -2   4 646.975 20.7983   8
   1   2  -4 737.729 21.1140   8
  -1  -2   4 661.275 17.5704   1
  -1  -2   3 9.71113 2.06013   1
  -1  -2   3 13.4363 3.43458   8
   1   2  -2 25.4999 3.75747   1
  -1  -2   2 15.6628 2.47676   1
  -1  -2   1 1057.57 30.0631   1
   1   2  -1 1299.76 30.5673   1
  -1  -2   0 1235.79 30.3252   3
  -1  -2  -1 39144.8 928.359   7
  -1  -2  -1 39285.5 927.625   3
   1   2   2 2653.86 71.4623   1
  -1  -2  -2 2629.36 69.7993   3
   1   2   2 2924.29 70.0488   7
   1   2   2 2903.95 69.4659   3
  -1  -2  -2 2935.17 70.6935   1
   1   2   3 2780.81 73.3370   1
   1   2   3 2970.55 71.8035   7
   1   2   3 2918.22 70.9337   3
  -1  -2  -3 2861.96 71.4645   1
   1   2   4 2647.34 67.0005   3
  -1  -2  -4 2586.04 66.8575   1
  -1  -2  -5 3445.52 87.1633   1
   1   2   5 3431.63 87.6917   3
  -1  -2  -5 3494.66 89.1900   8
   1   2   6 245.522 14.2290   3
  -1  -2  -6 231.552 14.3553   6
  -1  -2  -6 228.586 13.3372   1
   1   2   6 199.890 11.1638   8
  -1  -2  -6 232.135 15.8425   8
  -1  -2  -7-0.31921 11.1883   6
   1   2   7 10.0223 5.88156   8
  -1  -2  -7-0.25734 9.72041   1
   1   2   7 21.8811 11.5154   3
  -1  -2  -7 7.33613 12.9060   8
  -1  -2  -8 20.4247 10.4353   2
  -1  -2  -8 26.6621 13.1192   6
  -1  -2  -8 25.5802 11.7951   1
  -1  -2  -8 37.6767 15.5887   8
   1   2   8 55.2213 13.2150   3
   1   2   8 20.7814 7.49406   8
  -1  -2  -9 830.373 34.4008   8
   1   2   9 806.153 28.7314   8
  -1  -2  -9 840.274 31.3129   6
  -1  -2  -9 879.272 29.6108   1
  -1  -2  -9 740.009 28.2875   2
  -1  -2 -10 145.597 16.3171   1
  -1  -2 -10 124.781 17.4949   6
   1   2  10 132.647 12.4659   8
  -1  -2 -10 125.031 20.8862   8
  -1  -2 -10 128.020 16.0097   2
   1   2  11 95.6139 19.7327   3
  -1  -2 -11 77.1580 17.1681   2
   1   2  11 91.3644 11.9570   8
   1   2  11 69.6249 11.4209   7
  -1  -2 -11 65.1386 21.1929   8
  -1  -2 -11 98.4395 16.3631   1
  -1  -2 -11 76.2299 18.3412   6
   1   2  12 37.8021 11.1242   8
  -1  -2 -12 31.1749 23.4911   8
   1   2  12 31.7624 11.4600   7
  -1  -2 -12 25.9529 19.5097   2
  -1  -2 -12 53.8548 19.5546   6
  -1  -2 -12 45.9971 17.2135   1
   1   2  13 12.1484 10.9877   7
   1   2  13 17.3071 10.7897   8
  -1  -2 -13 13.1748 25.1413   8
   1   3 -15 28.6220 23.8257   8
  -1  -3  15 34.6512 13.5127   8
  -1  -3  15 0.22461 11.6954   7
   1   3 -14 123.602 23.4950   8
  -1  -3  14 155.095 15.0678   3
  -1  -3  14 156.556 16.6666   8
   1   3 -13 2.83761 18.1669   8
  -1  -3  13 10.5050 9.94130   3
  -1  -3  13 4.53396 10.8709   8
   1   3 -12 320.480 23.6847   8
  -1  -3  12 378.433 20.9442   8
  -1  -3  12 377.441 19.1092   3
  -1  -3  11 608.731 23.9105   3
  -1  -3  11 546.530 25.4307   8
   1   3 -11 546.650 27.1750   8
  -1  -3  10-4.80313 6.91248   2
  -1  -3  10 0.87447 9.29606   8
  -1  -3  10 8.63970 6.53718   6
   1   3 -10 3.94687 14.8157   8
  -1  -3  10 5.56066 8.07879   3
  -1  -3   9 183.116 12.1083   3
  -1  -3   9 173.124 9.51408   6
   1   3  -9 152.673 15.9498   8
  -1  -3   9 144.486 13.3399   8
  -1  -3   9 170.591 9.81992   2
   1   3  -8-5.41659 11.9197   8
  -1  -3   8 4.70619 7.12883   8
  -1  -3   8-1.25078 6.30142   3
  -1  -3   8 5.61754 5.45320   2
  -1  -3   8 3.19714 5.07270   6
  -1  -3   7 4485.13 111.953   3
  -1  -3   7 4659.25 110.703   6
   1   3  -7 4582.09 112.829   8
  -1  -3   7 4564.12 114.791   8
   1   3  -6 23.4387 9.67509   8
  -1  -3   6 16.8971 4.70484   3
  -1  -3   6 15.1397 2.03324   1
  -1  -3   6 21.5784 6.14597   8
  -1  -3   5 1850.25 47.9878   3
  -1  -3   5 1876.75 50.3190   8
  -1  -3   5 1866.81 46.5335   5
  -1  -3   5 1823.29 45.7337   1
  -1  -3   4 1957.45 51.0416   8
  -1  -3   4 1870.56 48.6772   3
  -1  -3   4 1957.11 47.7126   5
  -1  -3   4 1879.28 48.0542   1
   1   3  -4 1987.36 48.9656   1
  -1  -3   3 147.146 5.80734   3
  -1  -3   3 161.262 5.63378   5
   1   3  -3 163.958 8.46584   1
  -1  -3   3 164.806 6.83980   1
  -1  -3   2 263.448 9.89707   1
   1   3  -2 275.987 11.1568   1
   1   3  -1 4.14706 6.48782   1
  -1  -3   1 20.0300 3.81151   1
  -1  -3   0 835.986 22.9078   7
  -1  -3   0 859.405 21.7539   3
  -1  -3  -1 150.856 6.88167   7
  -1  -3  -1 136.851 7.25978   8
  -1  -3  -1 140.545 6.20992   3
   1   3   2 2621.01 63.7956   7
  -1  -3  -2 2357.21 64.3740   7
   1   3   2 2559.43 62.9725   3
  -1  -3  -2 2553.11 65.3130   1
   1   3   3 4638.66 112.110   7
   1   3   3 4507.30 111.193   3
  -1  -3  -3 4442.89 112.676   1
   1   3   4 456.646 17.3611   7
   1   3   4 447.908 16.7560   3
  -1  -3  -4 426.621 17.3893   1
   1   3   5 265.699 14.5445   7
  -1  -3  -5 230.842 14.2670   1
   1   3   5 261.060 14.1077   3
   1   3   6 51.0573 11.4022   3
  -1  -3  -6 26.7873 11.7669   6
   1   3   6 40.2234 11.2845   7
  -1  -3  -6 18.3389 10.7395   1
  -1  -3  -7 612.681 24.3937   1
  -1  -3  -7 596.905 26.7881   8
  -1  -3  -7 592.103 25.1760   6
   1   3   7 659.550 24.7074   3
   1   3   7 637.641 25.5398   7
  -1  -3  -8 69.6514 14.3823   1
   1   3   8 92.5474 14.6075   3
  -1  -3  -8 85.5968 17.2710   8
  -1  -3  -8 69.4884 15.2959   6
   1   3   8 71.9436 9.54498   8
  -1  -3  -9 279.917 20.6663   6
   1   3   9 296.934 16.0662   8
  -1  -3  -9 262.973 18.4752   2
  -1  -3  -9 314.574 19.8383   1
  -1  -3  -9 329.437 24.4663   8
  -1  -3 -10 163.906 23.1802   8
   1   3  10 166.754 13.6007   8
   1   3  10 223.361 20.3076   3
  -1  -3 -10 174.934 19.7354   6
  -1  -3 -10 180.508 18.5542   2
  -1  -3 -10 207.845 20.1654   1
  -1  -3 -11-21.6409 21.5887   8
  -1  -3 -11 12.8517 17.6180   6
   1   3  11 10.9709 9.59712   8
  -1  -3 -11 1.39407 18.0016   1
  -1  -3 -11-3.71653 17.2239   2
  -1  -3 -12-7.42872 25.3303   8
  -1  -3 -12 15.3171 20.5556   6
  -1  -3 -12 6.20377 19.4540   2
  -1  -3 -12 31.0621 18.7604   1
   1   3  12 4.31923 10.5392   8
   1   3  13 17.6524 11.6691   8
  -1  -3 -13 46.0968 22.9166   6
  -1  -3 -13 9.10972 26.8041   8
  -1  -4  15 15.3953 12.2886   8
  -1  -4  15 8.78765 11.3407   7
   1   4 -15 15.9016 22.9805   8
  -1  -4  15 5.27550 11.2304   5
   1   4 -14 242.690 25.3792   8
  -1  -4  14 242.978 17.0889   5
  -1  -4  14 304.601 20.3979   8
  -1  -4  13 12.5235 9.79282   3
  -1  -4  13 1.10291 8.95265   5
  -1  -4  13-2.51269 12.4728   8
   1   4 -13 6.26320 18.8682   8
   1   4 -12 116.157 18.7748   8
  -1  -4  12 119.089 12.3344   3
  -1  -4  12 80.4757 11.0425   5
  -1  -4  12 107.715 14.0186   8
   1   4 -11 42.2197 16.1209   8
  -1  -4  11 35.9842 9.93946   3
  -1  -4  11 30.3438 7.53435   2
  -1  -4  11 27.9194 11.3963   8
  -1  -4  11 30.4607 8.90405   5
  -1  -4  10 670.454 27.3099   8
  -1  -4  10 615.319 22.4809   5
   1   4 -10 626.533 27.0436   8
  -1  -4  10 674.698 21.2467   6
  -1  -4  10 707.620 24.1202   3
  -1  -4  10 622.306 21.6709   2
  -1  -4   9 585.197 20.9947   5
  -1  -4   9 660.322 25.8449   8
   1   4  -9 610.944 24.8137   8
  -1  -4   9 671.245 22.6459   3
  -1  -4   9 616.273 21.4363   2
  -1  -4   9 634.574 20.4368   6
  -1  -4   8 619.836 20.7174   5
  -1  -4   8 676.207 21.0696   6
  -1  -4   8 669.814 22.2725   3
  -1  -4   8 705.869 25.8749   8
  -1  -4   7 1247.93 27.1564   3
  -1  -4   7 1124.70 25.0216   5
  -1  -4   7 1230.86 31.0427   8
  -1  -4   6 11.1824 4.13352   5
  -1  -4   6 10.6253 3.27341   1
  -1  -4   6 10.7748 4.80334   3
  -1  -4   6 9.72172 6.55665   8
  -1  -4   5 1074.79 28.9132   3
  -1  -4   5 1051.17 28.5997   1
  -1  -4   5 1156.28 32.9710   8
  -1  -4   5 1064.85 28.5275   5
  -1  -4   4 326.623 11.6070   1
  -1  -4   4 314.419 9.95799   3
  -1  -4   4 319.728 10.6418   5
  -1  -4   4 317.736 13.0039   8
  -1  -4   3 693.675 21.0835   1
   1   4  -2 3819.94 97.4493   1
  -1  -4   2 3899.49 96.3644   1
   1   4  -1 33.5919 9.43903   1
  -1  -4   1 64.2134 6.06747   1
  -1  -4   0 5618.64 137.155   7
   1   4   0 5783.77 141.537   1
  -1  -4  -1 23.4204 4.76047   8
  -1  -4  -1 10.3547 3.85820   7
   1   4   2 527.215 15.8154   3
  -1  -4  -2 461.350 16.9156   8
  -1  -4  -2 476.157 19.3236   1
   1   4   3 1172.20 31.2411   3
   1   4   3 1099.19 31.5968   7
  -1  -4  -3 1173.65 33.9794   1
   1   4   4 1204.73 34.1387   7
   1   4   4 1125.56 33.2793   3
  -1  -4  -4 1165.33 35.7683   1
   1   4   5 497.785 20.1765   7
  -1  -4  -5 493.071 21.0156   1
   1   4   5 498.286 19.2899   3
  -1  -4  -6 320.252 19.3806   6
  -1  -4  -6 299.446 18.3083   1
   1   4   6 330.670 17.7769   7
   1   4   6 338.089 17.2046   3
   1   4   7 271.730 17.7200   7
   1   4   7 280.837 17.2306   3
  -1  -4  -7 221.146 18.4913   1
  -1  -4  -7 245.109 18.9383   6
   1   4   8 104.922 15.0549   3
   1   4   8 107.778 16.4747   7
  -1  -4  -8 61.5486 16.4788   6
  -1  -4  -8 62.9263 16.3787   1
  -1  -4  -9-1.34624 14.7883   2
  -1  -4  -9-2.49010 16.3980   1
  -1  -4  -9-5.51843 16.1165   6
  -1  -4  -9 16.3477 19.3068   8
   1   4   9 47.5546 16.0730   3
   1   4   9 16.1491 16.5216   7
  -1  -4 -10-3.25405 18.4383   6
  -1  -4 -10 3.30465 17.1730   2
   1   4  10-2.09650 10.0782   8
   1   4  10 33.7974 17.7878   3
   1   4  10 23.0291 18.2533   7
  -1  -4 -10 8.83599 18.8923   1
  -1  -4 -10 0.74468 21.2274   8
   1   4  11 28.0160 11.0192   8
  -1  -4 -11 8.84053 19.9270   2
  -1  -4 -11 34.4844 20.8475   1
  -1  -4 -11 17.2558 25.8083   8
   1   4  11 26.7623 20.0623   7
  -1  -4 -11 5.22703 19.4435   6
  -1  -4 -12 127.838 23.7407   2
  -1  -4 -12 108.386 29.0863   8
   1   4  12 123.392 14.8869   8
  -1  -4 -12 171.419 23.2237   1
  -1  -4 -12 125.977 25.1621   6
  -1  -4 -13 37.0353 25.1794   6
  -1  -5  15 8.10791 11.4676   7
  -1  -5  15 33.6067 13.6315   5
  -1  -5  15 43.7589 13.6559   8
  -1  -5  14 9.29329 11.4049   5
  -1  -5  14 9.87167 12.4467   8
  -1  -5  13-5.78045 11.5773   8
  -1  -5  13 5.53560 10.1408   5
  -1  -5  12 527.835 19.8909   2
  -1  -5  12 654.200 27.9384   8
  -1  -5  12 599.659 23.9941   5
  -1  -5  11 8.51849 8.35980   5
  -1  -5  11 5.89055 7.51778   2
  -1  -5  11 12.9259 6.03763   6
  -1  -5  11-0.95958 10.7644   8
  -1  -5  10 24.0337 7.79907   3
  -1  -5  10 25.1330 10.5526   8
  -1  -5  10 19.2822 7.95254   5
  -1  -5  10 25.3506 6.21969   6
  -1  -5  10 13.9289 7.99012   2
  -1  -5   9 461.310 17.3393   3
  -1  -5   9 451.953 21.3017   8
  -1  -5   9 420.109 16.8259   5
  -1  -5   9 430.964 16.1244   6
  -1  -5   8 254.959 11.6563   5
  -1  -5   8 253.258 15.8182   8
  -1  -5   8 277.175 12.0800   3
  -1  -5   7 1.77745 7.31931   8
  -1  -5   7 5.01847 4.61996   5
  -1  -5   7 3.35015 3.58827   1
  -1  -5   7 8.06285 4.72848   3
  -1  -5   6 21.4810 4.37305   3
  -1  -5   6 20.6734 7.72140   8
  -1  -5   6 27.3669 5.11435   5
  -1  -5   6 34.1351 4.69407   1
  -1  -5   5 1845.74 48.9715   5
  -1  -5   5 1956.53 49.6106   1
  -1  -5   5 1865.34 52.0145   8
  -1  -5   4 80.9288 7.05334   1
   1   5  -3 1395.10 35.4672   5
  -1  -5   3 1397.11 39.1231   1
   1   5  -2 409.523 14.0988   5
  -1  -5   2 501.561 17.0646   1
  -1  -5   1 4362.72 112.115   1
  -1  -5   1 4497.68 108.408   7
  -1  -5   0 664.663 23.3094   1
  -1  -5   0 727.223 20.8635   7
  -1  -5  -1 174.506 9.10975   8
  -1  -5  -1 163.232 8.59367   7
  -1  -5  -2 314.068 13.3876   8
  -1  -5  -3 9.34290 5.68492   8
  -1  -5  -3 24.3321 10.8779   1
   1   5   3 20.0836 7.82165   3
   1   5   4 103.210 10.3475   3
   1   5   4 97.8801 10.2531   7
  -1  -5  -4 71.3196 8.59884   8
  -1  -5  -4 106.168 13.2449   1
   1   5   5 182.069 13.3022   3
   1   5   5 162.572 13.4028   7
  -1  -5  -5 190.037 16.0115   1
  -1  -5  -5 145.557 11.9844   8
   1   5   6 420.853 19.9292   7
  -1  -5  -6 457.043 23.6070   6
  -1  -5  -6 390.451 22.7805   1
   1   5   6 438.260 19.6891   3
   1   5   7 171.120 16.2874   7
  -1  -5  -7 176.921 18.6267   6
   1   5   7 192.662 15.9270   3
  -1  -5  -7 149.030 18.6379   1
   1   5   8 121.757 16.6076   3
  -1  -5  -8 69.4764 18.4090   1
  -1  -5  -8 63.3968 17.5849   6
   1   5   8 95.7508 16.6585   7
   1   5   9 353.133 23.2213   7
  -1  -5  -9 280.491 24.2507   6
  -1  -5  -9 331.227 25.0944   1
   1   5  10 53.0840 18.8569   7
  -1  -5 -10 48.8855 21.4970   1
  -1  -5 -10 21.1882 18.9509   2
  -1  -5 -10 17.6208 19.9392   6
  -1  -5 -11 13.4740 26.2539   8
  -1  -5 -11 16.4932 22.6362   6
  -1  -5 -11-0.99370 21.2901   2
  -1  -5 -11 3.49873 21.7479   1
   1   5  11 29.3715 19.4937   7
  -1  -5 -12 44.7231 25.2842   6
  -1  -5 -12 38.2037 25.4124   2
  -1  -5 -12 58.8039 24.8553   1
  -1  -6  15 165.476 17.6786   8
  -1  -6  14 58.5579 12.3055   7
  -1  -6  14 64.0865 14.5629   5
  -1  -6  14 77.0880 14.6953   8
  -1  -6  13 77.0827 13.3811   5
  -1  -6  13 51.2888 13.5518   8
  -1  -6  12 112.820 15.2429   8
  -1  -6  12 108.577 10.2772   2
  -1  -6  12 118.380 13.0992   5
  -1  -6  11 180.381 13.3889   5
  -1  -6  11 181.679 16.9135   8
  -1  -6  11 144.370 12.0554   2
  -1  -6  11 178.523 9.45381   6
  -1  -6  10 275.796 18.1270   8
  -1  -6  10 253.657 14.2969   5
  -1  -6  10 261.167 11.4793   6
  -1  -6   9-0.17300 8.95368   8
  -1  -6   9-1.41090 6.99957   5
  -1  -6   8 39.9613 7.57560   5
  -1  -6   8 29.7595 4.79668   1
  -1  -6   8 41.8207 9.70063   8
  -1  -6   7 360.805 15.1316   5
  -1  -6   7 379.698 13.6269   1
  -1  -6   7 374.644 18.2810   8
  -1  -6   6 139.949 8.66427   1
  -1  -6   6 153.707 11.8686   8
  -1  -6   6 133.901 9.57235   5
  -1  -6   5 503.331 19.3676   8
  -1  -6   5 513.199 17.6073   1
  -1  -6   5 450.955 12.9114   4
  -1  -6   4 282.646 13.3865   1
   1   6  -4 258.780 9.85051   5
   1   6  -3 1290.38 34.6846   5
  -1  -6   3 1435.65 39.3773   1
  -1  -6   2 5.94127 3.09966   7
  -1  -6   2 4.11457 5.74539   1
   1   6  -2-3.53772 6.66453   5
  -1  -6   1 1149.92 30.8647   7
  -1  -6   1 1110.43 34.7887   1
  -1  -6   0 319.682 15.2871   1
  -1  -6   0 360.631 14.0933   8
  -1  -6   0 322.298 12.4255   7
  -1  -6  -1 107.751 8.01012   8
  -1  -6  -2 28.7213 6.16688   8
  -1  -6  -3 59.8266 8.34206   8
  -1  -6  -3 89.8769 13.8839   1
  -1  -6  -4 622.844 25.6358   1
   1   6   4 601.327 20.5036   3
   1   6   5 10.1955 11.0428   3
  -1  -6  -5 1.80204 8.29387   8
   1   6   5 11.3464 11.0899   7
  -1  -6  -5 16.9747 14.9238   1
   1   6   6 632.412 25.0577   7
  -1  -6  -6 736.525 30.6307   6
  -1  -6  -6 595.124 29.4691   1
  -1  -6  -6 595.163 26.8284   8
   1   6   6 722.406 25.4426   3
  -1  -6  -7 128.861 20.8824   1
   1   6   7 154.589 16.3154   7
  -1  -6  -7 121.049 14.6177   8
  -1  -6  -7 160.932 20.4477   6
   1   6   7 185.741 16.3646   3
   1   6   8 45.8225 15.7920   7
  -1  -6  -8 32.7378 18.7366   6
  -1  -6  -8 1.11541 20.4802   1
  -1  -6  -8 8.02861 12.0702   8
   1   6   9 11.0844 16.7593   7
  -1  -6  -9-17.7101 21.2272   1
  -1  -6  -9-3.87911 19.3941   6
  -1  -6 -10 3.33580 22.7318   6
  -1  -6 -10-15.7629 21.3076   2
  -1  -6 -10-5.81493 22.2712   1
   1   6  10 28.9361 18.6973   7
  -1  -6 -11 85.4619 25.0678   1
  -1  -6 -11 51.3522 25.6950   6
   1   6  11 123.201 21.8836   7
  -1  -6 -11 46.1500 24.1634   2
  -1  -6 -12 42.1567 32.1912   2
  -1  -6 -12 59.0559 27.2272   1
  -1  -7  14 52.9553 10.8226   4
  -1  -7  14 54.7280 14.1327   8
  -1  -7  13 148.268 15.8628   5
  -1  -7  13 122.250 16.1269   8
  -1  -7  13 120.326 11.8255   4
  -1  -7  12 4.78505 10.5281   5
  -1  -7  12 5.33372 8.47344   2
  -1  -7  12-4.57025 12.1039   8
  -1  -7  11 75.3897 13.3934   8
  -1  -7  11 71.0560 11.1783   5
  -1  -7  11 53.3090 5.95239   6
  -1  -7  10 366.108 18.0291   5
  -1  -7  10 380.765 21.0442   8
  -1  -7  10 304.290 12.8654   6
  -1  -7   9 7.53451 10.5899   8
  -1  -7   9-0.78078 4.74544   1
  -1  -7   9-2.01329 9.41234   5
  -1  -7   9-5.69007 6.46979   4
  -1  -7   8 129.274 7.68462   4
  -1  -7   8 138.734 13.3087   8
  -1  -7   8 119.659 10.9060   5
  -1  -7   8 116.896 8.05994   1
  -1  -7   7 39.2907 10.2434   8
  -1  -7   7 56.1580 7.29027   1
  -1  -7   7 48.7001 4.87821   4
  -1  -7   6 2001.61 52.9759   8
  -1  -7   6 1905.57 49.2058   1
  -1  -7   5 240.172 12.9949   1
  -1  -7   5 226.774 14.0399   8
  -1  -7   4 59.4712 8.64916   1
   1   7  -4 56.8927 6.91466   5
  -1  -7   3 226.065 13.0183   1
  -1  -7   3 225.910 8.33183   7
   1   7  -3 171.310 9.95107   5
   1   7  -2 101.085 9.67867   5
  -1  -7   2 114.303 6.51676   7
  -1  -7   2 117.577 10.5605   1
  -1  -7   1 436.813 14.7013   7
  -1  -7   1 413.164 18.4833   1
  -1  -7   0 162.171 10.1304   8
  -1  -7   0 153.801 11.7656   1
  -1  -7  -1 717.554 22.0942   8
  -1  -7  -1 632.350 23.6635   1
  -1  -7  -2 4.78797 6.84498   8
  -1  -7  -3 171.657 12.6925   8
  -1  -7  -4 567.844 27.2184   1
  -1  -7  -4 498.108 22.6227   8
  -1  -7  -5-12.5676 18.1428   1
  -1  -7  -5 21.4510 10.1510   8
  -1  -7  -6 40.1780 11.8922   8
  -1  -7  -6 7.02160 19.1846   1
  -1  -7  -7 32.5713 12.1371   8
  -1  -7  -7 65.1564 20.4544   6
  -1  -7  -7 13.4809 21.1872   1
  -1  -7  -8 266.016 25.5730   6
   1   7   8 227.286 19.9082   7
  -1  -7  -8 175.603 18.6943   8
  -1  -7  -8 243.891 26.3080   1
  -1  -7  -9 59.9316 15.7005   8
  -1  -7  -9 47.8191 24.7257   1
   1   7   9 85.0859 19.1172   7
  -1  -7  -9 81.1913 24.4651   6
  -1  -7 -10-3.26517 14.8517   8
   1   7  10 28.0601 19.7899   7
  -1  -7 -10-9.68704 24.7986   6
  -1  -7 -10-37.5630 23.7079   2
  -1  -7 -10-8.43423 25.3203   1
  -1  -7 -11 14.6447 25.8707   2
  -1  -7 -11 39.7942 27.2517   1
  -1  -8  12-12.9708 12.3839   8
  -1  -8  12 7.36257 7.39324   4
  -1  -8  11 61.7592 13.5427   8
  -1  -8  11 42.8364 7.46061   4
  -1  -8  11 46.8409 11.7854   5
  -1  -8  10 33.7958 6.32800   4
  -1  -8  10 30.0596 11.7458   8
  -1  -8  10 15.9538 10.6054   5
  -1  -8  10 9.96648 6.16425   6
  -1  -8   9 65.3648 7.29669   1
  -1  -8   9 71.9420 6.62675   4
  -1  -8   9 84.1735 12.9904   8
  -1  -8   8 661.934 22.4622   1
  -1  -8   8 753.242 28.3061   8
  -1  -8   8 655.145 19.6897   4
  -1  -8   7 163.656 14.3853   8
  -1  -8   7 140.051 10.6436   1
  -1  -8   7 118.096 6.42963   4
  -1  -8   6 26.3155 8.08832   1
  -1  -8   6 30.5747 9.47091   8
  -1  -8   5 87.8280 10.0883   1
  -1  -8   4 169.058 7.11119   7
   1   8  -4 137.798 9.34493   5
  -1  -8   4 162.629 12.5734   1
  -1  -8   3-2.95171 3.93431   7
  -1  -8   3-3.62344 7.84412   1
   1   8  -3-15.5931 8.29304   5
   1   8  -2 24.3262 9.78258   5
  -1  -8   2 18.8252 8.59336   1
  -1  -8   1 1092.50 35.5019   1
  -1  -8   1 1180.02 32.7516   8
  -1  -8   0 4.22461 6.98943   8
  -1  -8   0 19.6914 8.60765   1
  -1  -8  -1 749.093 26.0129   1
  -1  -8  -1 756.956 23.4415   8
  -1  -8  -2 58.8910 10.3170   8
   1   8   2 55.2623 6.83320   4
  -1  -8  -3 211.301 15.5804   8
  -1  -8  -4 79.5865 12.9502   8
  -1  -8  -4 68.8155 21.1363   1
  -1  -8  -5 99.1451 13.2841   8
  -1  -8  -5 89.0499 13.4901   6
  -1  -8  -5 59.3434 21.0467   1
  -1  -8  -6 173.881 24.7179   1
  -1  -8  -6 185.943 17.0235   8
  -1  -8  -7 22.1477 13.2944   8
  -1  -8  -7-7.41311 23.0586   1
  -1  -8  -8-13.5507 24.8063   1
  -1  -8  -8 7.79206 13.5458   8
  -1  -8  -8 38.1072 24.2210   6
  -1  -8  -9 46.9309 26.3585   6
  -1  -8  -9 8.12298 14.3990   8
  -1  -8  -9 26.0092 26.5218   1
  -1  -8 -10 16.9969 27.5131   1
  -1  -8 -10-9.45207 24.6698   2
  -1  -9  11 108.028 14.7160   8
  -1  -9  10 62.4934 7.30715   4
  -1  -9  10 79.4129 13.4828   8
  -1  -9   9 6.42364 7.13184   1
  -1  -9   9 16.5230 5.29111   4
  -1  -9   9 14.7996 10.6077   8
  -1  -9   8 215.431 12.4951   1
  -1  -9   8 236.111 16.6399   8
  -1  -9   7 188.976 15.6404   8
  -1  -9   7 166.510 12.0872   1
  -1  -9   6 153.034 12.2349   1
  -1  -9   6 164.478 6.33306   7
  -1  -9   6 132.592 13.8875   8
  -1  -9   5 92.8483 10.8140   1
  -1  -9   5 95.3543 5.27830   7
  -1  -9   4 53.8504 10.4254   1
   1   9  -4 37.4906 8.19192   5
  -1  -9   3 390.027 19.5744   1
   1   9  -3 329.960 15.5058   5
  -1  -9   2 21.3932 8.43622   8
   1   9  -2 36.3011 11.2534   5
  -1  -9   2 22.6745 10.6518   1
  -1  -9   1 404.090 17.3042   8
  -1  -9   1 402.418 20.7484   1
   1   9  -1 337.417 18.7389   5
  -1  -9   0 227.370 17.1607   1
  -1  -9   0 222.047 13.9004   8
  -1  -9  -1 179.931 15.5449   1
  -1  -9  -1 181.583 13.5233   8
  -1  -9  -2 8.89653 11.0104   1
   1   9   2 7.30150 5.61311   4
  -1  -9  -2-14.4115 10.0714   8
  -1  -9  -3 83.2415 12.5600   8
   1   9   3 74.1800 8.15405   4
  -1  -9  -4 62.5743 12.7012   8
  -1  -9  -4 63.8317 12.7596   6
   1   9   4 55.1341 9.62481   4
  -1  -9  -4 42.5359 23.0987   1
  -1  -9  -5 40.9871 24.2327   1
  -1  -9  -5 49.6069 12.9812   6
  -1  -9  -5 47.8941 12.8106   8
  -1  -9  -6 67.5774 14.0674   6
  -1  -9  -6 56.9562 25.6580   1
  -1  -9  -6 59.5580 14.7490   8
  -1  -9  -7 1.88041 13.1475   8
  -1  -9  -7 7.06984 26.0906   1
  -1  -9  -8-10.0171 28.2045   1
  -1 -10   9 92.0789 13.3770   8
  -1 -10   9 73.6613 9.36036   1
  -1 -10   8-5.93409 10.6465   8
  -1 -10   8-6.26948 8.15844   1
  -1 -10   7 9.29034 8.15873   1
  -1 -10   7 0.72237 10.6820   8
  -1 -10   6 242.899 16.6677   8
  -1 -10   6 249.107 15.3157   1
  -1 -10   5 35.3845 10.6379   1
   1  10  -4 9.42482 8.99929   5
  -1 -10   4 16.3422 10.5119   1
  -1 -10   3 2.19847 10.1977   1
  -1 -10   3 0.34903 8.13082   8
   1  10  -3 1.81193 10.0541   5
  -1 -10   2 397.678 21.5413   1
   1  10  -2 394.134 19.6833   5
  -1 -10   2 431.765 18.2682   8
   1  10  -1 29.4404 14.1042   5
  -1 -10   1 57.8371 12.2390   1
  -1 -10   1 49.5244 10.3246   8
  -1 -10   0 96.4462 13.8088   1
  -1 -10   0 93.3905 12.0709   8
   1  10   0 60.9536 16.0543   5
  -1 -10  -1 95.7797 14.1289   1
  -1 -10  -1 90.0548 12.2432   8
  -1 -10  -2-6.40625 10.7393   8
  -1 -10  -2-0.22326 11.4831   1
   1  10   3 58.5160 7.52098   4
  -1 -10  -3 82.0626 13.5424   8
  -1 -10  -3 90.8752 14.2664   6
   1  10   4 8.89175 8.29067   4
  -1 -10  -4 11.6475 12.1697   6
  -1 -10  -4 17.3241 11.6297   8
  -1 -10  -5 52.9554 26.3262   1
  -1 -10  -5 69.2828 15.0845   8
  -1 -10  -5 64.7713 14.4931   6
  -1 -10  -6 35.4533 13.5862   6
  -1 -10  -6 11.8054 27.4749   1
  -1 -10  -6 19.6745 14.4985   8
  -1 -11   8 11.5981 9.00475   1
  -1 -11   7 31.2854 11.7572   8
  -1 -11   7 26.7006 9.72449   1
  -1 -11   6 16.3899 10.1328   1
  -1 -11   6 15.3942 10.2568   8
  -1 -11   5 113.621 13.2535   1
   1  11  -4 48.5936 10.4754   5
  -1 -11   4 62.7295 12.3777   1
  -1 -11   3 13.5294 9.24437   8
   1  11  -3 36.6531 11.5420   5
  -1 -11   3 15.9885 11.2834   1
  -1 -11   2 72.5579 10.7040   8
   1  11  -2 56.6527 13.4577   5
  -1 -11   2 54.9881 12.6622   1
  -1 -11   1 7.76760 11.7052   1
   1  11  -1 0.45832 14.5961   5
  -1 -11   1-3.12976 9.20240   8
   1  11   0 34.2973 15.8792   5
  -1 -11   0 63.9573 14.4970   1
  -1 -11   0 68.7828 11.6418   8
  -1 -11  -1-14.7781 10.9722   8
   1  11   1 2.67630 17.9595   5
  -1 -11  -1-4.10990 12.5835   1
  -1 -11  -2 13.4228 12.6517   6
  -1 -11  -2-6.52466 13.0526   1
  -1 -11  -2-16.5302 12.3595   8
  -1 -11  -3 53.3291 14.3715   6
  -1 -11  -3 56.0316 13.8916   8
  -1 -11  -4 21.0332 13.3133   8
  -1 -11  -4 21.3883 13.4577   6
  -1 -11  -5 87.6784 16.3936   8
  -1 -12   6 7.74786 10.6175   1
  -1 -12   5-2.24690 10.9631   1
  -1 -12   4 21.6308 11.6596   1
  -1 -12   4 32.4147 9.72653   8
  -1 -12   3 52.6622 13.1298   1
  -1 -12   3 81.2572 11.6262   8
  -1 -12   2 16.8167 12.9033   1
  -1 -12   2 13.8618 10.0014   8
  -1 -12   1 5.09100 12.6326   1
  -1 -12   1 3.53892 9.95712   8
  -1 -12   0 58.6512 12.5133   8
  -1 -12   0 87.5184 14.7097   6
  -1 -12   0 71.2356 15.6925   1
  -1 -12  -1-24.2808 13.1134   8
  -1 -12  -1 14.8374 12.8595   6
  -1 -12  -2 13.8151 13.9170   6
  -1 -12  -2 16.9673 12.5546   8
  -1 -12  -3 42.1949 14.2810   8
  -1 -13   5 48.3560 12.4410   1
  -1 -13   4 0.21731 11.5233   1
  -1 -13   2 99.2439 15.2689   6
  -1 -13   1 36.9202 13.9996   6
   2 -13  -2 17.2703 14.1016   6
   2 -13  -1-4.22536 14.0417   6
   2 -13   0 42.4535 14.3597   6
   2 -13   1 22.4168 15.2717   1
   2 -13   2 46.4714 14.6383   1
   2 -13   3 160.671 17.3117   1
   2 -13   4 20.9543 12.0283   1
   2 -12  -6 11.3336 14.4328   8
  -2  12   5-0.77889 25.9904   5
   2 -12  -5-3.23772 13.5540   8
   2 -12  -4 39.9001 14.7140   6
  -2  12   4 4.73556 24.7663   5
   2 -12  -4 21.0628 13.1778   8
  -2  12   3-5.39483 21.6450   5
   2 -12  -3 9.10387 12.2688   8
   2 -12  -3 18.5107 13.9331   6
   2 -12  -2 164.372 18.1079   6
   2 -12  -2 143.079 15.3122   8
  -2  12   2 133.993 22.2417   5
   2 -12  -2 188.597 22.0812   1
  -2  12   1 8.24909 18.6895   5
   2 -12  -1 33.6529 13.3340   6
   2 -12  -1 54.5531 16.9521   1
   2 -12  -1 24.2241 11.1285   8
   2 -12   0 98.2246 12.4667   8
   2 -12   0 137.131 15.9421   6
   2 -12   0 159.511 19.3889   1
  -2  12   0 135.433 19.2714   5
   2 -12   1 62.0147 16.6788   1
  -2  12  -1 56.3693 16.9871   5
   2 -12   1 38.9461 12.9935   6
   2 -12   2 110.455 16.8482   1
   2 -12   2 95.1031 13.7851   6
   2 -12   3 11.4042 12.4639   1
   2 -12   3-2.24176 10.5783   6
   2 -12   4 80.7489 13.4579   1
  -2  12  -4 72.3907 16.6112   5
   2 -12   5 38.0510 10.8837   1
   2 -11  -7 10.2318 14.9112   8
   2 -11  -6-1.28012 14.2431   8
   2 -11  -6 2.42189 14.1077   6
   2 -11  -5 98.4344 16.9103   6
   2 -11  -5 92.7901 15.6830   8
  -2  11   4 68.8631 24.8263   5
   2 -11  -4 83.3511 16.0389   6
   2 -11  -4 84.9959 14.3281   8
  -2  11   3 12.4639 21.6271   5
  -2  11   3 5.37221 9.23951   3
  -2  11   3-21.0554 11.3326   4
   2 -11  -3 2.94041 11.4442   8
   2 -11  -3 23.9929 16.6033   1
   2 -11  -3 14.1396 12.8781   6
  -2  11   2 187.920 9.20839   3
   2 -11  -2 208.699 17.7634   6
   2 -11  -2 195.634 15.3930   8
  -2  11   2 169.748 21.6366   5
   2 -11  -2 227.794 23.4182   1
  -2  11   2 182.497 9.30728   4
   2 -11  -1-5.57902 9.21769   8
   2 -11  -1-0.55989 11.2103   6
  -2  11   1-7.92021 16.8764   5
   2 -11  -1 10.2337 15.2644   1
   2 -11   0 59.9926 12.1982   6
   2 -11   0 59.9953 15.5735   1
   2 -11   0 43.5287 9.72671   8
  -2  11   0 49.1631 16.5828   5
   2 -11   1 10.7601 10.0813   6
  -2  11  -1 9.56714 14.8154   5
   2 -11   1 5.14107 7.78327   8
   2 -11   1 7.42142 13.5210   1
   2 -11   2 312.362 17.8020   6
   2 -11   2 339.007 22.5224   1
   2 -11   2 307.687 14.2186   8
  -2  11  -2 372.631 20.6165   5
   2 -11   3 38.0926 10.1431   6
   2 -11   3 35.4126 7.37567   8
   2 -11   3 36.9806 7.31209   8
   2 -11   3 56.1824 13.4456   1
   2 -11   4 12.8647 10.3978   1
   2 -11   4 0.48501 6.54069   8
  -2  11  -4 0.26667 14.0995   5
   2 -11   4 15.0407 5.50637   8
   2 -11   4-0.11190 8.53587   6
  -2  11  -5 70.1118 15.2618   5
   2 -11   5 122.032 13.0556   1
   2 -11   6 23.0144 9.10280   1
   2 -11   7 8.62521 8.08853   1
  -2  10   9 31.7282 16.8053   7
  -2  10   8 110.438 15.9675   7
  -2  10   8 130.878 19.5381   3
   2 -10  -8 104.693 18.7725   8
  -2  10   7 110.564 15.3701   7
   2 -10  -7 125.229 17.6801   6
   2 -10  -7 79.2073 17.3295   8
  -2  10   7 117.415 17.7397   3
   2 -10  -6 52.3012 33.1080   1
   2 -10  -6 42.7823 14.4820   6
  -2  10   6 29.1927 15.1930   3
  -2  10   6 35.7413 12.2663   7
   2 -10  -6 28.3411 13.4023   8
  -2  10   5 49.5661 14.2579   3
   2 -10  -5 45.1994 13.6051   8
   2 -10  -5 60.1071 13.8509   6
  -2  10   4 31.5338 13.0973   3
   2 -10  -4 55.0168 13.9032   6
   2 -10  -4 34.1124 12.9300   8
  -2  10   3 570.491 21.4607   3
   2 -10  -3 670.875 34.0330   1
  -2  10   3 552.956 31.3454   5
   2 -10  -3 599.693 26.8001   6
   2 -10  -3 570.195 25.1441   8
  -2  10   2 12.1004 9.53870   4
   2 -10  -2 38.8885 11.7631   6
  -2  10   2 24.6738 9.79764   3
  -2  10   2 21.6035 17.9428   5
   2 -10  -2 21.5809 14.9749   1
   2 -10  -2 31.4218 9.45706   8
   2 -10  -1 148.298 18.7117   1
  -2  10   1 139.806 18.2542   5
  -2  10   1 136.616 8.31675   4
   2 -10  -1 135.250 11.6107   8
   2 -10  -1 150.060 14.5403   6
  -2  10   1 134.906 9.70577   3
   2 -10   0 23.9391 13.9936   1
   2 -10   0 17.8833 9.68026   6
  -2  10   0 14.8540 14.9811   5
   2 -10   0 17.8594 7.77745   8
   2 -10   1-0.99118 12.4321   1
   2 -10   1 13.8599 6.77509   8
  -2  10  -1 18.9405 13.9663   5
   2 -10   1 21.7467 8.91341   6
  -2  10  -2 98.3102 14.8413   5
   2 -10   2 110.372 8.44712   8
   2 -10   2 108.530 15.4263   1
   2 -10   2 114.152 11.2423   6
   2 -10   3 127.848 11.6743   6
   2 -10   3 174.287 17.4588   1
  -2  10  -3 190.208 15.7784   5
   2 -10   3 114.253 9.36303   8
   2 -10   3 170.847 8.97857   8
  -2  10  -4 152.248 15.3283   5
   2 -10   4 106.119 9.21626   8
   2 -10   4 134.495 11.0026   6
   2 -10   4 157.856 7.65059   8
   2 -10   4 177.228 15.3859   1
   2 -10   5 3.07104 5.64471   8
   2 -10   5 13.3636 8.97050   1
   2 -10   5 5.41395 4.12151   8
   2 -10   6 19.2395 3.10624   8
   2 -10   6 14.7605 3.82849   8
   2 -10   6 31.4703 8.54062   1
   2 -10   7 152.936 10.7165   1
   2 -10   8 11.3788 8.18110   1
   2 -10   8 4.46168 6.48924   1
  -2   9  11 43.3620 22.0371   3
  -2   9  10 170.905 20.6967   7
  -2   9  10 195.605 23.9274   3
   2  -9 -10 172.875 21.6281   8
   2  -9  -9 29.7346 15.7170   8
  -2   9   9 50.9955 20.0282   3
   2  -9  -9 17.7069 24.9318   2
  -2   9   9 26.5467 16.0908   7
   2  -9  -9 36.2204 15.2235   6
   2  -9  -8-1.98493 23.2865   2
   2  -9  -8 39.8899 32.8230   1
  -2   9   8-1.99732 17.3062   3
   2  -9  -8-2.18649 14.4583   8
   2  -9  -8 2.88944 13.4160   6
  -2   9   8 4.38208 14.4959   7
  -2   9   7 35.8879 13.8319   7
   2  -9  -7 49.3403 14.7258   6
  -2   9   7 28.5558 17.1360   3
   2  -9  -7 26.8193 14.3199   8
   2  -9  -7 60.7374 32.5310   1
  -2   9   6 232.991 19.4883   3
   2  -9  -6 228.794 18.7588   6
   2  -9  -6 208.150 18.4852   8
  -2   9   6 219.631 15.6741   7
   2  -9  -5 565.881 40.1444   1
   2  -9  -5 443.840 24.0897   8
  -2   9   5 492.763 22.9247   3
   2  -9  -5 485.871 24.4664   6
  -2   9   5 442.487 19.1463   7
  -2   9   4 26.4008 13.4069   3
   2  -9  -4 22.3218 11.0189   8
  -2   9   4 39.5696 9.87872   7
   2  -9  -4 42.7756 12.0211   6
   2  -9  -3 278.168 23.3104   1
   2  -9  -3 260.208 16.0958   8
   2  -9  -3 285.430 17.6455   6
  -2   9   3 241.723 15.6479   3
  -2   9   2-0.35405 16.6397   5
   2  -9  -2 11.3907 9.47213   6
   2  -9  -2-18.5075 15.1509   1
   2  -9  -2 4.30851 8.48258   8
  -2   9   1 8.41482 7.95489   4
   2  -9  -1-28.3500 15.3544   1
   2  -9  -1 0.33549 7.23389   8
  -2   9   1-0.14875 14.1159   5
   2  -9  -1 2.15704 8.15777   6
  -2   9   0 4.95483 5.77728   4
   2  -9   0-13.1566 14.1628   1
   2  -9   0 12.5830 6.77288   8
  -2   9   0 10.0294 13.0741   5
   2  -9   0 1.82111 7.83599   6
  -2   9  -1 16.1892 12.2499   5
   2  -9   1 20.9086 8.34200   6
   2  -9   1 27.9020 6.54427   8
   2  -9   1 10.6583 11.8000   1
  -2   9  -2 43.7898 5.83444   3
   2  -9   2 34.6284 6.19423   8
   2  -9   2 48.2687 8.82356   6
  -2   9  -2 36.7837 12.3865   5
   2  -9   2 49.9123 12.5621   1
   2  -9   3 394.394 20.8834   1
  -2   9  -3 337.508 11.8690   3
   2  -9   3 334.672 11.9101   8
  -2   9  -3 317.664 17.7138   5
   2  -9   3 377.212 15.3570   6
   2  -9   4 1211.37 36.2937   6
  -2   9  -4 1344.26 40.2581   5
   2  -9   4 1159.48 35.2140   8
   2  -9   4 1416.12 33.8922   8
   2  -9   4 1462.47 43.6135   1
  -2   9  -5 92.0549 13.0791   5
   2  -9   5 144.771 12.6561   1
   2  -9   5 105.793 7.86244   8
   2  -9   5 134.839 6.16843   8
   2  -9   6 12.5455 7.22638   1
   2  -9   6 4.76336 4.90724   8
   2  -9   7-0.93790 13.3980   5
   2  -9   7 8.16531 4.59548   8
   2  -9   7 6.01966 5.98418   1
   2  -9   7-6.39008 8.56152   4
   2  -9   8 35.5136 8.38759   1
   2  -9   8 35.3827 9.26928   4
   2  -9   8 22.8498 6.75235   1
   2  -9   8 23.8552 15.0373   5
   2  -9   8 44.7827 5.57443   8
   2  -9   9 56.5875 15.8732   5
   2  -9   9 60.8051 9.74268   4
   2  -9  10 3.71741 8.45053   4
   2  -9  10 1.96301 14.2266   5
   2  -9  11 281.955 23.4718   5
   2  -8 -11 58.7109 31.3834   1
   2  -8 -11-4.66654 27.5271   2
  -2   8  11 12.8389 19.3013   7
  -2   8  11 29.4235 22.3743   3
  -2   8  10 7.29588 19.9588   3
  -2   8  10 19.5650 18.6514   7
   2  -8 -10 73.0257 31.3873   1
   2  -8 -10 9.70368 14.7740   8
   2  -8 -10 11.6918 24.2630   2
   2  -8  -9-2.49947 13.9652   8
  -2   8   9-5.59151 19.0677   3
   2  -8  -9-0.48113 22.6756   2
   2  -8  -9 2.22741 30.1507   1
  -2   8   9-0.76880 16.7191   7
  -2   8   8 337.216 23.2649   3
   2  -8  -8 277.380 26.0929   2
   2  -8  -8 287.038 21.7632   8
   2  -8  -8 319.838 22.4592   6
  -2   8   8 268.882 20.4035   7
   2  -8  -7 126.692 15.3736   6
   2  -8  -7 93.7332 15.2123   8
  -2   8   7 106.775 15.6247   7
   2  -8  -7 144.489 30.2857   1
  -2   8   7 126.196 19.1381   3
   2  -8  -6-9.65264 11.9098   8
  -2   8   6-24.5573 16.3371   3
   2  -8  -6-2.25439 10.7602   6
   2  -8  -6-23.4956 29.7586   1
  -2   8   6-10.6503 12.0470   7
   2  -8  -5 489.437 23.5632   8
  -2   8   5 466.725 20.0724   7
   2  -8  -5 512.701 24.0701   6
  -2   8   5 539.746 23.6576   3
   2  -8  -4 271.279 16.9517   6
   2  -8  -4 245.241 15.7712   8
  -2   8   4 218.037 13.2099   7
   2  -8  -3 24.4319 9.27932   6
  -2   8   3 13.1829 7.80029   7
   2  -8  -3 25.6293 8.27997   8
   2  -8  -2-9.47934 12.6346   1
  -2   8   2 5.58110 15.8699   5
   2  -8  -2 1.27443 7.51243   8
   2  -8  -2-5.02185 8.63822   6
   2  -8  -1 577.589 20.8519   8
   2  -8  -1 592.242 22.4266   6
  -2   8   1 604.368 25.9808   5
  -2   8   1 558.505 20.8192   4
  -2   8   0 199.588 15.9478   5
   2  -8   0 188.226 10.3281   8
  -2   8   0 219.658 9.94578   4
   2  -8   0 196.637 12.0821   6
   2  -8   1 1.96193 5.41107   8
  -2   8  -1 2.42658 5.42415   4
   2  -8   1 5.54946 6.70241   6
  -2   8  -1-3.20350 11.1503   5
   2  -8   2 348.702 14.4532   6
   2  -8   2 347.624 20.2074   1
  -2   8  -2 310.902 16.6598   5
   2  -8   2 313.969 11.6307   8
   2  -8   3 374.524 14.6346   6
  -2   8  -3 364.629 17.7109   5
   2  -8   3 332.026 13.1876   8
   2  -8   3 393.721 11.9516   8
   2  -8   3 361.976 20.2937   1
  -2   8  -3 393.920 13.1645   3
   2  -8   4 8.06643 5.31566   8
   2  -8   4 6.58499 3.41299   8
  -2   8  -4 10.3251 7.97836   3
  -2   8  -4 3.21411 10.0864   5
   2  -8   4 3.58087 5.32925   6
   2  -8   4-3.29565 9.14927   1
   2  -8   5 113.236 7.23164   8
  -2   8  -5 132.443 12.9111   5
  -2   8  -5 115.585 10.9499   3
   2  -8   5 107.936 11.4748   1
   2  -8   6 503.820 24.9614   5
   2  -8   6 470.541 18.6284   1
   2  -8   6 483.578 15.0512   8
   2  -8   6 422.661 18.1101   4
  -2   8  -6 420.284 18.3107   3
   2  -8   7 41.6687 13.0268   5
   2  -8   7 52.2497 8.63074   1
   2  -8   7 56.8908 6.39711   8
   2  -8   7 69.5375 8.60723   4
   2  -8   7 62.3191 7.34076   1
   2  -8   8 8.77105 6.60691   4
   2  -8   8 3.06425 5.83600   1
   2  -8   8 6.22587 5.18331   8
   2  -8   8-1.01767 5.13852   1
   2  -8   8 6.85926 11.5471   5
   2  -8   9 424.211 15.2752   8
   2  -8   9 372.341 17.1275   4
   2  -8   9 420.181 23.6618   5
   2  -8  10 74.2233 10.4006   4
   2  -8  10 71.2277 8.17884   8
   2  -8  10 84.2634 15.0671   5
   2  -8  11 54.1078 10.3353   4
   2  -8  11 58.8049 15.6445   5
   2  -8  12 17.1447 10.0990   4
   2  -8  12 19.4785 15.1796   5
   2  -7 -13 52.3947 31.6306   1
  -2   7  12 52.4713 23.9719   3
  -2   7  12 30.4057 21.4975   7
   2  -7 -12 94.2507 28.9477   1
   2  -7 -12 27.1544 26.6447   2
   2  -7 -11 77.1919 25.9205   2
   2  -7 -11 106.029 28.8523   1
  -2   7  11 33.3701 20.0660   7
   2  -7 -11 22.9577 27.0390   6
  -2   7  11 73.3758 20.3153   8
   2  -7 -11 67.5261 16.9031   8
  -2   7  11 64.8351 22.8597   3
   2  -7 -10 136.514 18.4988   8
   2  -7 -10 152.554 23.7994   2
  -2   7  10 167.171 22.9618   3
   2  -7 -10 233.049 31.8767   1
  -2   7  10 143.617 20.1754   7
  -2   7  10 175.080 20.3545   8
   2  -7 -10 167.634 28.9409   6
   2  -7  -9 33.8637 13.4758   8
   2  -7  -9 35.9569 19.7251   2
  -2   7   9 54.0352 16.4217   8
   2  -7  -9 54.8261 27.9818   1
  -2   7   9 31.0960 16.4531   7
  -2   7   9 32.4044 19.5224   3
  -2   7   8 2.23306 14.7570   7
   2  -7  -8 3.44962 27.2296   1
   2  -7  -8 3.06810 12.1786   8
   2  -7  -8 17.6891 18.4827   2
  -2   7   8 3.97481 17.8293   3
  -2   7   8 30.4829 15.3287   8
   2  -7  -7-5.24640 16.8412   2
   2  -7  -7-34.7201 27.2829   1
   2  -7  -7-4.84110 11.3252   6
  -2   7   7 9.33194 13.3517   8
  -2   7   7-12.3225 15.9439   3
  -2   7   7-7.04388 13.0658   7
   2  -7  -7-13.4743 12.0677   8
  -2   7   6 216.519 18.2910   3
  -2   7   6 258.414 16.3472   8
   2  -7  -6 246.972 16.8816   6
   2  -7  -6 237.946 17.1886   8
  -2   7   6 233.274 16.1105   7
   2  -7  -6 232.971 30.8190   1
  -2   7   5 91.9906 12.5265   8
   2  -7  -5 78.3479 11.3302   8
  -2   7   5 76.0277 11.6418   7
   2  -7  -5 94.8741 11.7144   6
   2  -7  -5 48.5810 24.6836   1
  -2   7   4 20.7102 8.70538   7
   2  -7  -4 20.4894 8.26618   6
   2  -7  -4 22.9740 8.65403   8
   2  -7  -3 63.9530 9.31031   6
  -2   7   3 71.7569 8.48523   7
   2  -7  -3 66.1974 8.90499   8
   2  -7  -2 57.5568 8.38096   6
   2  -7  -2 57.4116 8.13903   8
  -2   7   2 50.3965 6.60797   7
  -2   7   1 1349.30 42.4944   5
   2  -7  -1 1338.21 37.6136   8
   2  -7  -1 1339.86 39.3513   6
   2  -7   0 434.950 16.9627   6
  -2   7   0 376.702 19.2862   5
  -2   7   0 477.285 15.6588   4
   2  -7   0 430.083 15.0347   8
   2  -7   1 1880.24 49.6039   8
   2  -7   1 1894.69 51.9644   6
  -2   7  -1 1847.61 54.0861   5
   2  -7   2 25.2672 3.97874   8
   2  -7   2 27.6239 5.64539   6
  -2   7  -3 480.075 15.2631   3
  -2   7  -3 470.097 18.9485   5
   2  -7   3 444.346 14.7757   8
   2  -7   3 444.824 15.1245   6
   2  -7   3 474.774 13.1455   8
  -2   7  -4 722.074 24.2069   5
   2  -7   4 670.289 19.7036   8
  -2   7  -4 674.944 21.1015   3
   2  -7   4 720.632 27.9808   5
   2  -7   5 97.3738 8.36434   4
   2  -7   5 104.279 11.8522   5
   2  -7   5 81.6725 9.99159   1
   2  -7   5 112.436 6.59171   8
  -2   7  -5 91.3281 10.5469   3
   2  -7   6 59.6085 7.56187   4
  -2   7  -6 29.6224 11.0347   3
   2  -7   6 61.5003 10.9008   5
   2  -7   6 46.7707 5.63673   8
   2  -7   6 40.2079 7.59417   1
   2  -7   7-6.42622 10.8355   5
   2  -7   7 3.10057 5.50985   1
   2  -7   7 2.51670 5.26819   8
   2  -7   7-9.89603 6.68176   1
  -2   7  -7-6.11881 11.8958   3
   2  -7   7-3.85843 6.93077   4
   2  -7   8 907.704 23.3230   8
   2  -7   8 779.811 24.9694   4
   2  -7   8 826.914 29.8200   5
   2  -7   8 632.273 19.9470   1
   2  -7   8 686.915 20.1595   1
   2  -7   9 20.0175 10.6541   5
   2  -7   9 11.8090 6.98592   8
   2  -7   9 21.0946 7.73791   4
   2  -7  10 145.358 15.0891   5
   2  -7  10 154.108 10.4836   8
   2  -7  10 150.268 11.6428   4
   2  -7  11 129.445 10.6649   8
   2  -7  11 137.546 11.9543   4
   2  -7  11 155.562 15.9298   5
   2  -7  12 26.7273 13.1421   5
   2  -7  12 22.0720 9.56517   4
   2  -7  13 34.6679 10.5471   4
   2  -7  13 27.0030 13.9829   5
   2  -6 -14 23.6756 29.3611   2
  -2   6  13 71.9921 25.7005   3
   2  -6 -13 139.312 28.0921   1
   2  -6 -13 48.2408 27.3711   2
  -2   6  12 24.0185 21.1668   7
  -2   6  12 40.0503 20.2787   8
   2  -6 -12 26.3927 26.3609   6
   2  -6 -12 3.73299 13.8664   8
   2  -6 -12 19.0906 24.4355   2
   2  -6 -12 105.961 26.8779   1
  -2   6  12 42.3399 24.0540   3
   2  -6 -11 66.5108 25.9618   1
  -2   6  11 8.30531 19.3772   7
   2  -6 -11 26.3820 24.7493   6
  -2   6  11 41.3505 18.9625   8
   2  -6 -11 34.3416 20.1910   2
  -2   6  11 21.2787 21.1794   3
   2  -6 -11 28.5089 14.8279   8
  -2   6  10 146.538 20.4440   7
  -2   6  10 210.492 20.0248   8
   2  -6 -10 179.195 25.2346   6
   2  -6 -10 157.296 17.4274   8
   2  -6 -10 153.448 22.1500   2
   2  -6 -10 225.531 29.6241   1
  -2   6  10 161.840 22.3203   3
   2  -6  -9 88.7758 26.8586   1
   2  -6  -9 86.4718 18.7173   2
  -2   6   9 108.024 16.8860   8
   2  -6  -9 101.095 22.0306   6
  -2   6   9 83.2082 20.0181   3
   2  -6  -9 81.1384 14.0763   8
  -2   6   9 68.6504 17.8505   7
   2  -6  -8 1.37870 16.2565   2
  -2   6   8 11.9079 16.8622   3
  -2   6   8 36.4767 14.4636   8
  -2   6   8 5.61577 15.1681   7
   2  -6  -8 31.3542 11.6494   8
   2  -6  -8-2.09522 24.6491   1
   2  -6  -7 50.6133 16.1979   2
  -2   6   7 33.7963 15.3939   3
  -2   6   7 61.9833 13.2509   8
   2  -6  -7 12.5121 24.2952   1
   2  -6  -7 31.5302 11.4255   8
   2  -6  -6 974.710 35.2728   8
  -2   6   6 1011.83 32.1624   8
   2  -6  -5 217.757 14.3903   6
   2  -6  -5 220.405 14.3601   8
  -2   6   5 227.835 13.3752   8
   2  -6  -4 189.636 12.3097   8
   2  -6  -4 180.539 12.5366   6
  -2   6   4 182.868 11.4721   8
   2  -6  -3 51.8830 8.24211   6
   2  -6  -3 48.4384 8.07327   8
  -2   6   3 50.3736 8.45751   8
   2  -6  -2 1783.73 49.0023   6
   2  -6  -2 1759.98 47.6036   8
  -2   6   2 1722.25 44.9441   7
   2  -6  -1 115.043 8.74033   6
  -2   6   1 123.728 13.4163   5
  -2   6   1 106.381 6.07003   7
   2  -6  -1 111.922 7.24148   8
   2  -6   0 92.7622 7.24067   6
  -2   6   0 89.5005 8.31916   4
  -2   6   0 54.6131 11.1007   5
   2  -6   0 88.3559 5.74366   8
   2  -6   1 1325.33 35.6022   8
  -2   6  -1 1339.94 40.0727   5
   2  -6   1 1374.70 37.8765   6
   2  -6   2 14.8880 2.86181   8
  -2   6  -2 17.7962 8.08183   5
   2  -6   2 15.6546 4.57762   6
   2  -6   3 72.5364 9.46348   5
   2  -6   3 56.4228 4.97840   6
   2  -6   3 63.0233 4.58320   8
  -2   6  -3 67.1501 9.21853   5
   2  -6   3 52.0161 6.11370   4
  -2   6  -4 234.758 11.4140   3
   2  -6   4 234.527 8.68092   8
   2  -6   4 239.609 14.1098   5
   2  -6   4 245.078 10.7458   4
  -2   6  -4 249.037 13.2818   5
   2  -6   5 34.0453 8.71855   5
  -2   6  -5 32.7344 9.34588   3
   2  -6   5 32.5558 4.79624   8
   2  -6   5 37.7110 5.88175   4
   2  -6   6 320.561 15.9863   5
  -2   6  -6 307.472 15.9628   3
   2  -6   6 292.033 12.2913   1
   2  -6   6 280.540 11.5592   8
   2  -6   6 310.565 12.9554   4
  -2   6  -7 114.659 13.8317   3
   2  -6   7 136.349 8.29725   8
   2  -6   7 109.508 6.82839   1
   2  -6   7 105.179 6.98998   1
   2  -6   7 121.962 8.58369   4
   2  -6   7 127.902 11.4000   5
   2  -6   8 1947.05 57.6861   5
   2  -6   8 1859.28 54.6057   4
   2  -6   8 2051.72 52.9679   7
   2  -6   9 72.7223 10.9662   5
   2  -6   9 56.7940 8.52880   4
   2  -6   9 73.7130 7.39240   7
   2  -6  10-11.5558 10.3165   5
   2  -6  10-5.49428 7.11437   8
   2  -6  10 10.9447 6.33757   7
   2  -6  10 6.95965 7.87765   4
   2  -6  11 16.3430 7.93161   8
   2  -6  11 8.23094 10.7570   5
   2  -6  11 25.0923 8.81929   4
   2  -6  11 28.0500 7.39622   7
   2  -6  12 91.4793 14.2204   5
   2  -6  12 120.662 10.9918   7
   2  -6  12 98.1864 10.6222   8
   2  -6  12 89.7113 11.6868   4
   2  -6  13 144.579 13.7170   4
   2  -6  13 133.795 16.3850   5
   2  -6  14 3.08191 12.9742   5
   2  -5 -14 33.3664 27.7579   2
  -2   5  13 52.9622 24.8491   3
   2  -5 -13 7.27526 23.2960   2
   2  -5 -13 77.3936 24.2719   1
  -2   5  13 9.53857 21.7352   7
  -2   5  13 29.8261 21.5137   8
  -2   5  12-18.3919 22.6362   3
   2  -5 -12 6.03216 13.1806   8
  -2   5  12 4.67730 19.8620   8
   2  -5 -12 53.6943 23.2467   1
   2  -5 -12-10.1443 21.3422   2
  -2   5  12-16.5601 21.4431   7
   2  -5 -11 297.925 26.3500   6
  -2   5  11 251.270 24.4768   7
  -2   5  11 328.545 26.4897   3
   2  -5 -11 244.183 23.5187   2
   2  -5 -11 205.285 19.5986   8
   2  -5 -11 326.229 28.5368   1
  -2   5  11 296.766 23.3636   8
   2  -5 -10 65.3675 14.0895   8
   2  -5 -10 87.5599 21.6361   6
  -2   5  10 82.2900 20.9620   3
   2  -5 -10 81.0378 24.0874   1
   2  -5 -10 72.6217 18.4038   2
  -2   5  10 78.2683 18.0641   8
  -2   5   9 310.750 23.3345   3
   2  -5  -9 262.419 21.4079   2
   2  -5  -9 263.065 18.9489   8
   2  -5  -9 339.992 25.0275   6
  -2   5   9 318.853 20.6283   8
   2  -5  -9 334.132 28.9156   1
   2  -5  -8 131.542 19.5397   6
   2  -5  -8 119.693 16.7152   2
  -2   5   8 117.274 17.5865   3
  -2   5   8 114.568 15.0927   8
   2  -5  -8 108.056 23.8470   1
   2  -5  -8 111.521 13.3699   8
   2  -5  -7-13.8531 14.2749   2
  -2   5   7-4.05329 11.9118   8
   2  -5  -7-3.21492 9.10558   8
   2  -5  -6 11.5279 12.5643   2
  -2   5   6 13.6509 10.8110   8
   2  -5  -6 16.6023 8.35650   8
  -2   5   5 8.14322 9.45548   8
   2  -5  -5 1.89458 6.86805   8
   2  -5  -4 4923.41 126.373   6
   2  -5  -4 5025.88 126.412   8
  -2   5   4 5006.04 122.956   8
   2  -5  -3 9.47019 5.74418   8
   2  -5  -3 6.39712 5.62354   6
  -2   5   3 10.1810 6.68708   8
  -2   5   2 513.609 16.1448   8
   2  -5  -2 498.040 17.0968   8
   2  -5  -2 521.964 18.4930   6
   2  -5  -1 570.788 19.0435   6
  -2   5   1 575.626 22.6926   5
   2  -5  -1 566.256 17.6896   8
   2  -5   0 71.3915 4.93639   8
  -2   5   0 67.2195 9.83342   5
   2  -5   0 72.1874 6.03931   6
  -2   5   0 69.3767 7.59583   4
  -2   5  -1 165.543 8.27259   4
  -2   5  -1 153.206 10.6659   5
   2  -5   1 160.570 7.68584   6
   2  -5   1 155.093 5.82770   8
   2  -5   2 47.9217 4.56909   6
  -2   5  -2 53.1534 5.62154   4
   2  -5   2 38.8213 7.66561   5
  -2   5  -2 33.4287 8.55130   5
   2  -5   2 41.0376 2.41864   8
   2  -5   2 34.1073 3.28753   8
   2  -5   3 3448.48 86.1542   8
   2  -5   3 3607.60 89.0922   4
  -2   5  -3 3735.58 90.2374   5
  -2   5  -4 4.18422 6.89113   3
   2  -5   4-0.22274 6.09857   5
   2  -5   4 2.38931 3.03319   8
  -2   5  -4 7.13019 8.14237   5
   2  -5   4 1.91030 3.73953   4
   2  -5   5 2106.42 52.8591   1
   2  -5   5 2017.42 55.6022   5
   2  -5   5 2061.61 51.3907   8
   2  -5   5 2067.21 52.9919   4
  -2   5  -5 1856.92 53.5848   3
   2  -5   6 532.437 16.3021   7
   2  -5   6 511.074 16.2306   1
   2  -5   6 545.030 20.1558   5
   2  -5   6 563.878 17.2381   8
   2  -5   6 535.899 17.9308   4
  -2   5  -6 519.635 20.6473   3
   2  -5   7 16.0634 4.81490   7
  -2   5  -7 18.4379 12.0457   3
   2  -5   7 6.63867 4.03097   1
   2  -5   7 19.9109 5.64784   8
   2  -5   7 12.7139 7.65907   5
   2  -5   7 8.27043 3.77721   1
   2  -5   7 18.9888 5.95053   4
   2  -5   8 35.4994 7.03568   4
   2  -5   8 24.6754 8.40721   5
  -2   5  -8 20.2238 12.9985   3
   2  -5   8 35.7277 6.32954   7
  -2   5  -8 31.4959 11.4518   8
   2  -5   8 21.2053 7.45519   8
   2  -5   9 18.5989 7.97334   4
   2  -5   9 3.95909 7.19918   8
   2  -5   9 31.8558 9.35802   5
  -2   5  -9 21.8413 12.9184   8
   2  -5   9 15.6184 6.64187   7
   2  -5  10 483.097 21.8703   5
   2  -5  10 548.878 19.8831   7
  -2   5 -10 435.281 23.0435   8
   2  -5  10 515.711 19.5971   8
   2  -5  10 498.692 20.7346   4
   2  -5  11 2.37066 7.47028   8
   2  -5  11 1.89178 9.28106   5
  -2   5 -11 6.21795 16.2098   8
   2  -5  11 12.8244 8.17961   4
   2  -5  12 12.5785 8.21454   7
   2  -5  12 9.14749 9.33733   4
   2  -5  12-5.45505 11.3384   5
  -2   5 -12 23.1096 18.1137   8
   2  -5  12 21.2763 8.99275   8
   2  -5  13 48.1134 12.4118   5
  -2   5 -13 55.7330 20.9153   8
   2  -5  13 54.0296 10.5461   8
   2  -5  13 47.0670 11.4613   4
   2  -5  13 68.9089 10.7460   7
   2  -5  14 24.4459 12.7437   5
   2  -4 -14 41.0938 24.9749   2
  -2   4  13 142.815 24.8054   7
   2  -4 -13 143.320 24.8724   2
   2  -4 -13 230.631 24.3941   1
  -2   4  13 192.919 26.4889   3
   2  -4 -12 76.7437 21.6208   1
   2  -4 -12 30.1870 19.8293   2
  -2   4  12 39.7131 22.9089   3
  -2   4  11 453.511 26.9269   8
   2  -4 -11 425.124 25.8659   2
   2  -4 -11 527.043 30.9073   1
  -2   4  11 486.870 29.5065   3
   2  -4 -10 2.90546 11.2976   8
   2  -4 -10-15.5198 20.8862   1
   2  -4 -10 8.27370 17.7511   6
   2  -4 -10 4.66403 15.7073   2
  -2   4  10-2.99999 17.1809   8
  -2   4  10-10.4768 19.6081   3
   2  -4  -9-19.5339 20.1445   1
  -2   4   9 2.58366 15.1238   8
   2  -4  -9 4.40975 16.6857   6
   2  -4  -9 8.79552 14.3562   2
   2  -4  -9-1.21975 10.2359   8
  -2   4   9-7.71032 17.0655   3
   2  -4  -8 112.156 15.5357   2
  -2   4   8 102.615 15.3785   8
   2  -4  -8 147.293 19.2410   6
   2  -4  -8 95.7455 20.7930   1
   2  -4  -8 106.416 12.3128   8
  -2   4   7 3194.01 83.9623   8
   2  -4  -7 3020.63 86.5791   8
   2  -4  -7 3183.80 84.9909   2
  -2   4   6 2767.63 74.3306   8
   2  -4  -6 2750.88 76.8092   8
   2  -4  -5 181.595 13.9315   2
   2  -4  -5 173.410 11.4914   8
  -2   4   5 160.940 11.6102   8
   2  -4  -4 674.957 23.2736   8
  -2   4   4 688.436 21.7824   8
   2  -4  -3 553.634 19.0886   6
   2  -4  -3 538.460 18.6910   8
  -2   4   3 530.565 17.2768   8
   2  -4  -2 1486.60 39.5565   8
   2  -4  -2 1472.56 40.2868   6
  -2   4   2 1436.49 37.5752   8
  -2   4   1 34.5645 4.37641   8
   2  -4  -1 31.4808 4.04192   8
   2  -4  -1 35.3116 4.92353   6
  -2   4   1 26.3462 9.65739   5
   2  -4   0 513.430 14.4525   8
  -2   4   0 522.674 18.5703   5
  -2   4   0 496.641 16.8097   4
   2  -4   0 532.177 16.3551   6
  -2   4  -1 1536.78 39.3880   5
  -2   4  -1 1369.29 37.4791   4
   2  -4   1 1417.94 37.1245   6
   2  -4   1 1496.94 40.8196   5
  -2   4  -2 29.6212 5.00427   4
   2  -4   2 26.0646 3.93994   4
   2  -4   2 24.6668 5.49304   5
  -2   4  -2 25.2108 6.86932   5
   2  -4   3 5521.35 137.179   4
   2  -4   3 5961.47 139.759   5
   2  -4   3 5520.04 134.691   8
  -2   4  -3 6035.42 138.458   5
  -2   4  -4 54.5229 7.77653   3
   2  -4   4 61.2290 5.29717   4
   2  -4   4 50.5254 6.60340   5
   2  -4   4 58.5922 4.28393   8
   2  -4   4 57.0553 5.56735   1
   2  -4   5 152.135 9.45158   5
   2  -4   5 144.381 7.13271   1
  -2   4  -5 148.133 11.1494   3
   2  -4   5 157.560 6.93093   7
   2  -4   5 150.692 7.79766   4
   2  -4   5 162.440 7.29943   8
  -2   4  -5 143.881 9.14270   8
   2  -4   6 21.7463 4.81613   8
   2  -4   6 18.0113 3.70943   1
   2  -4   6 18.4716 4.23146   7
   2  -4   6 20.6639 5.10252   4
   2  -4   6 19.5839 6.31182   5
  -2   4  -6 16.3885 9.96748   3
  -2   4  -6 19.2040 9.07353   8
   2  -4   7 1059.94 31.2078   5
   2  -4   7 1115.23 29.1153   8
   2  -4   7 1107.81 30.2351   4
   2  -4   7 1073.14 29.0106   7
  -2   4  -7 1063.32 33.0111   3
  -2   4  -7 977.338 30.5271   8
   2  -4   8 568.086 21.9072   5
  -2   4  -8 508.144 22.6650   8
   2  -4   8 600.631 20.3232   8
   2  -4   8 614.837 21.5030   4
  -2   4  -8 599.888 25.0483   3
   2  -4   8 605.271 20.4441   7
   2  -4   9 7.08278 6.27409   7
   2  -4   9 4.57057 7.04386   4
  -2   4  -9-13.7997 14.9351   8
   2  -4   9-5.31866 7.96146   5
   2  -4   9-3.14224 7.20711   8
  -2   4 -10 410.791 24.2534   8
   2  -4  10 483.389 19.0866   8
   2  -4  10 429.747 20.6601   5
   2  -4  10 506.478 19.7551   7
   2  -4  10 471.846 20.5123   4
   2  -4  11 2.88351 7.82752   8
   2  -4  11 12.1495 8.02393   7
   2  -4  11-3.72877 8.43634   4
   2  -4  11 0.33187 8.61458   5
  -2   4 -11-5.35942 18.0389   8
  -2   4 -12 39.7734 20.5768   8
   2  -4  12 61.9300 10.1955   7
   2  -4  12 43.5039 10.9002   5
   2  -4  12 56.0517 10.0012   8
   2  -4  12 61.5354 10.5460   4
   2  -4  13 25.9379 9.96168   8
   2  -4  13 21.3172 9.70959   7
   2  -4  13 11.7844 10.9088   5
  -2   4 -13 10.9977 22.8724   8
   2  -4  13 1.12637 10.1478   4
   2  -4  14 93.4704 12.8319   8
   2  -4  14 117.078 13.3484   7
   2  -4  14 82.5536 13.9558   5
   2  -3 -14 17.5606 25.1360   8
  -2   3  14 2.47073 11.2123   8
   2  -3 -14-1.60853 22.1420   2
  -2   3  14 25.2156 24.1089   3
   2  -3 -13 159.893 26.8594   8
   2  -3 -13 256.264 22.2174   1
   2  -3 -13 183.588 24.5464   2
  -2   3  13 222.885 26.8644   3
  -2   3  12 750.134 36.1957   3
   2  -3 -12 781.203 32.6495   1
   2  -3 -12 655.760 32.6490   2
   2  -3 -11 79.8560 18.3277   2
  -2   3  11 83.7921 22.0772   3
   2  -3 -11 99.3282 20.8948   1
  -2   3  10 144.330 20.5566   3
   2  -3 -10 141.944 20.2698   1
   2  -3 -10 123.193 17.1603   2
   2  -3  -9 697.719 31.9230   1
  -2   3   9 650.855 28.3960   8
   2  -3  -9 736.489 29.8702   6
   2  -3  -9 661.925 27.1067   2
  -2   3   9 730.391 30.1953   3
   2  -3  -8 35.6721 14.8220   6
  -2   3   8 47.5937 14.0722   8
   2  -3  -8 22.8004 12.1262   2
  -2   3   7 23.9681 11.7449   8
   2  -3  -7 6.71495 11.5440   2
   2  -3  -7 2.25341 13.5177   6
   2  -3  -7 5.38771 7.29170   8
   2  -3  -6 613.624 24.5283   8
   2  -3  -6 732.670 27.0497   6
   2  -3  -6 715.642 24.9556   2
  -2   3   6 726.033 24.7457   8
   2  -3  -5 3240.35 88.2028   8
  -2   3   5 3352.99 86.8993   8
   2  -3  -4 125.872 8.69553   8
   2  -3  -4 144.630 11.0128   2
  -2   3   4 140.224 10.0913   8
  -2   3   3 200.136 11.0059   6
  -2   3   3 196.421 9.86036   8
   2  -3  -3 195.432 9.56065   8
   2  -3  -2 1609.95 44.1399   6
  -2   3   2 1666.05 42.3397   8
  -2   3   2 1744.94 43.6265   6
   2  -3  -2 1622.58 43.3062   8
   2  -3  -1 3678.26 91.8342   6
  -2   3   1 3766.69 91.0525   6
   2  -3  -1 3605.41 90.4849   8
  -2   3   1 3954.05 94.2200   5
   2  -3   0 966.178 28.6310   5
  -2   3   0 1037.68 28.4214   5
  -2   3   0 1011.54 27.4181   4
   2  -3   0 952.865 24.6432   8
  -2   3   0 1008.18 25.9032   6
  -2   3  -1 8867.67 208.251   4
   2  -3   1 8534.43 209.837   5
  -2   3  -1 8912.77 208.978   5
   2  -3   1 8392.76 208.607   4
   2  -3   2 6667.64 167.740   4
  -2   3  -2 7240.51 168.750   5
  -2   3  -2 7090.45 168.042   4
   2  -3   2 6965.30 169.397   5
   2  -3   3 382.020 12.3635   4
   2  -3   3 355.814 10.5452   8
   2  -3   3 405.930 13.9161   5
   2  -3   3 388.209 12.4316   1
   2  -3   3 369.155 10.6873   2
  -2   3  -4 1132.98 31.2926   8
   2  -3   4 1156.30 31.0202   7
   2  -3   4 1209.88 33.5026   5
   2  -3   4 1189.72 30.6078   8
   2  -3   4 1185.43 31.1442   1
   2  -3   4 1205.01 31.9812   4
  -2   3  -4 1168.63 32.8941   3
   2  -3   5 1970.44 51.6227   7
   2  -3   5 2053.55 50.3336   1
   2  -3   5 2055.51 52.5888   4
  -2   3  -5 1903.79 51.9323   8
   2  -3   5 2012.74 51.1816   8
  -2   3  -5 2007.75 53.9869   3
   2  -3   5 2054.00 53.7083   5
  -2   3  -6 31.4954 10.6620   3
   2  -3   6 40.0937 5.66895   4
   2  -3   6 32.8062 5.07550   8
   2  -3   6 36.1064 6.27019   5
  -2   3  -6 33.4798 9.52107   8
   2  -3   6 35.1560 3.52443   1
   2  -3   6 37.2042 5.27707   7
   2  -3   7 303.724 13.0656   4
   2  -3   7 254.489 8.26217   1
  -2   3  -7 269.750 15.7249   8
   2  -3   7 297.687 12.4010   7
   2  -3   7 275.213 12.1086   8
   2  -3   7 258.513 12.8524   5
  -2   3  -7 284.789 17.1845   3
  -2   3  -8 27.5251 12.6290   8
  -2   3  -8 36.0850 13.4072   3
   2  -3   8 31.3284 6.85599   7
   2  -3   8 29.7339 7.23971   5
   2  -3   8 33.2804 7.10412   8
   2  -3   9 808.061 26.1039   7
   2  -3   9 777.939 25.4758   8
   2  -3   9 701.283 26.0956   5
  -2   3  -9 695.353 28.7023   8
   2  -3  10 36.0078 8.32731   8
   2  -3  10 47.4216 8.30705   7
  -2   3 -10 22.1855 16.0954   8
   2  -3  10 20.7197 8.97333   5
   2  -3  11 31.3628 8.66687   7
  -2   3 -11 9.17515 17.8719   8
   2  -3  11 19.7843 8.72833   8
   2  -3  11 7.66346 8.63629   5
  -2   3 -12 82.9030 21.8784   8
   2  -3  12 100.530 12.0360   5
   2  -3  12 123.623 12.5675   7
   2  -3  12 126.828 13.4107   4
   2  -3  12 133.177 12.2128   8
   2  -3  13 3.34232 10.3955   4
   2  -3  13 8.42715 9.94396   8
   2  -3  13 5.46979 10.5166   5
  -2   3 -13 12.8842 22.8719   8
   2  -3  13 7.10050 9.95701   7
   2  -3  14 15.4113 10.6762   8
  -2   3 -14-2.30810 32.1764   8
   2  -3  14 21.5513 10.5949   7
   2  -3  14 2.44976 11.4404   5
   2  -2 -14 52.5068 24.4513   8
  -2   2  14 33.0222 12.7049   8
   2  -2 -13 25.7935 22.1095   8
   2  -2 -13 17.1143 17.1318   1
   2  -2 -13 13.5699 19.6571   2
  -2   2  13 20.8522 11.5549   8
   2  -2 -12 376.712 28.1780   8
   2  -2 -12 416.548 26.3519   2
  -2   2  12 341.462 21.1250   8
   2  -2 -11 975.004 40.6118   8
   2  -2 -11 1097.50 38.1885   1
   2  -2 -11 1091.24 38.5196   2
   2  -2 -10 518.680 24.6646   2
   2  -2 -10 455.812 25.3912   1
  -2   2   9 47.1152 15.7690   3
   2  -2  -9 79.6215 14.1186   2
   2  -2  -8 181.299 14.0000   2
  -2   2   7 2355.19 64.7873   6
   2  -2  -7 2533.53 65.3934   2
   2  -2  -6 6.72616 11.0914   6
   2  -2  -6 7.00951 9.34587   2
  -2   2   6 13.5745 10.3152   8
  -2   2   6 14.7334 5.53190   6
   2  -2  -5 2695.59 66.4319   2
   2  -2  -5 2695.57 67.8612   6
  -2   2   5 2603.04 67.2516   8
   2  -2  -4 817.392 26.5113   8
   2  -2  -4 914.603 26.6095   2
  -2   2   4 886.333 26.6612   8
   2  -2  -3 35.4380 4.84421   8
  -2   2   3 31.1177 6.57184   8
  -2   2   2 404.283 13.1307   8
   2  -2  -2 384.320 12.8944   8
  -2   2   2 408.429 13.5914   6
  -2   2   1 357.297 11.4661   6
   2  -2  -1 334.720 10.3002   8
   2  -2  -1 320.392 11.1139   2
   2  -2   0 5825.37 147.262   2
  -2   2   0 6519.17 148.117   4
  -2   2  -1 359.903 11.0209   4
   2  -2   1 304.554 9.72712   2
   2  -2   1 315.365 10.5778   1
   2  -2   1 321.811 10.5379   4
  -2   2  -1 304.312 11.1503   5
   2  -2   2 1339.94 34.7380   4
   2  -2   2 1328.95 34.6869   1
  -2   2  -2 1434.96 35.7286   5
   2  -2   2 1281.26 33.1877   2
  -2   2  -2 1386.85 34.1548   7
   2  -2   3 678.173 20.7347   5
  -2   2  -3 704.847 19.6007   8
   2  -2   3 722.268 19.6292   1
   2  -2   3 685.534 18.5360   8
   2  -2   3 674.856 19.8474   4
   2  -2   4 638.748 18.9722   8
   2  -2   4 691.433 19.0561   1
   2  -2   4 659.670 19.6795   7
  -2   2  -4 688.409 20.5484   8
   2  -2   4 660.728 20.7169   5
   2  -2   4 684.430 20.3256   4
  -2   2  -4 725.693 21.8672   3
   2  -2   5 76.9621 5.95238   7
  -2   2  -5 67.5945 5.47211   6
   2  -2   5 62.2191 6.26364   5
   2  -2   5 71.0089 4.49708   1
  -2   2  -5 70.7263 10.0057   3
   2  -2   5 66.3112 5.43896   8
  -2   2  -5 66.5240 9.07274   8
   2  -2   6 19.0138 4.83005   7
   2  -2   6 17.2408 3.68397   1
  -2   2  -6 15.4127 10.9423   3
  -2   2  -6 16.9731 9.59668   8
   2  -2   6 18.5212 4.77611   8
  -2   2  -6 16.6675 6.19185   6
  -2   2  -7 991.477 30.9424   8
   2  -2   7 991.594 29.1910   7
   2  -2   7 961.983 28.1450   8
  -2   2  -7 1028.31 32.9425   3
   2  -2   7 948.295 25.6730   1
  -2   2  -8 50.4368 14.8453   3
   2  -2   8 41.5644 7.47975   8
   2  -2   8 49.7371 7.53556   7
  -2   2  -8 31.9224 13.5487   8
   2  -2   9 976.377 31.3730   7
   2  -2   9 986.327 30.4957   8
  -2   2  -9 883.762 34.0807   8
  -2   2 -10 72.2746 17.4043   8
   2  -2  10 89.4641 10.0817   7
   2  -2  10 98.0385 10.1464   8
   2  -2  11 38.7041 9.36317   8
   2  -2  11 27.9317 8.64002   7
  -2   2 -11 19.6472 18.0261   8
  -2   2 -12 10.2635 19.9892   8
   2  -2  12 17.0815 8.89511   7
   2  -2  12 25.7797 9.59553   8
  -2   2 -13 1.93869 21.7100   8
   2  -2  13 3.94884 9.89086   8
   2  -2  13-0.72496 10.0446   7
   2  -2  13-3.31672 10.3760   5
   2  -2  14 230.319 16.4186   8
  -2   2 -14 162.446 28.1640   8
   2  -2  14 210.624 16.6687   7
   2  -1 -15 4.48799 24.5824   8
  -2   1  15 19.1371 12.8304   8
  -2   1  14 89.2412 14.8594   8
   2  -1 -14 94.4878 24.9078   8
   2  -1 -13-16.9625 14.7348   1
  -2   1  13 2.09911 11.3335   8
   2  -1 -13 10.8418 19.8660   8
  -2   1  12 320.502 19.7077   8
   2  -1 -12 400.408 19.0331   1
   2  -1 -12 324.010 26.0000   8
   2  -1 -11 11.9064 18.0725   8
   2  -1 -11-6.31359 15.8913   2
  -2   1  11 18.8439 10.6776   8
   2  -1 -11 3.34737 13.7640   1
   2  -1 -10 990.475 33.5391   2
   2  -1 -10 929.908 32.5575   1
  -2   1  10 871.694 32.5129   8
   2  -1 -10 920.659 36.1451   8
   2  -1  -9 50.4524 15.1920   8
  -2   1   9 48.1675 8.00689   6
   2  -1  -9 66.9764 13.7902   2
  -2   1   8 149.590 10.1729   6
   2  -1  -8 153.574 14.1502   2
  -2   1   7 690.131 23.7305   6
   2  -1  -7 773.695 25.7819   2
  -2   1   6 107.357 7.90527   6
  -2   1   6 101.452 7.08594   2
   2  -1  -6 123.287 11.0098   2
  -2   1   5 0.45673 4.48930   6
  -2   1   5 0.12934 3.63037   2
   2  -1  -5-1.11365 8.16669   2
   2  -1  -4 4395.17 100.437   2
  -2   1   4 4162.59 101.036   8
  -2   1   3 7423.26 179.568   8
  -2   1   2 5466.67 128.953   8
   2  -1  -2 5174.87 129.061   8
  -2   1   1 141.042 6.04317   2
  -2   1   0 1331.03 47.8945   1
   2  -1   0 2885.40 48.9602   2
  -2   1  -1 1569.47 39.3900   1
   2  -1   1 1522.30 39.4266   1
  -2   1  -2 2460.03 60.1370   8
  -2   1  -2 2500.41 60.9799   1
   2  -1   2 2502.85 61.0633   1
  -2   1  -2 2374.03 61.1172   7
   2  -1   3 223.193 8.22507   1
  -2   1  -3 224.160 10.3562   3
  -2   1  -3 232.178 9.84475   7
  -2   1  -3 241.682 9.51862   8
   2  -1   3 205.491 7.73513   8
   2  -1   3 217.038 8.47142   7
  -2   1  -3 223.690 9.22240   1
   2  -1   4 2091.37 54.1911   8
  -2   1  -4 2275.49 56.5460   3
   2  -1   4 2183.08 53.7942   1
  -2   1  -4 2102.51 53.7258   1
  -2   1  -4 2210.95 55.1166   8
   2  -1   4 2047.04 54.9098   7
   2  -1   5 827.672 25.5438   7
  -2   1  -5 875.591 27.8108   3
   2  -1   5 888.339 23.9114   1
  -2   1  -5 826.264 23.8279   1
   2  -1   5 829.582 24.6883   8
  -2   1  -5 909.099 26.7751   8
  -2   1  -6 335.228 17.5639   3
  -2   1  -6 302.548 12.4137   6
   2  -1   6 333.189 11.7680   1
   2  -1   6 307.620 12.5753   8
  -2   1  -6 279.890 15.2293   8
   2  -1   6 307.773 13.0496   7
  -2   1  -6 301.002 12.1741   1
   2  -1   7 719.162 22.8277   1
   2  -1   7 732.412 24.6217   7
  -2   1  -7 788.154 27.3049   8
  -2   1  -7 699.399 22.9110   6
   2  -1   7 769.678 23.9969   8
  -2   1  -7 819.675 29.0387   3
  -2   1  -7 728.864 21.9067   1
   2  -1   8 444.650 18.2234   7
  -2   1  -8 393.081 17.5109   6
   2  -1   8 458.390 17.6727   8
  -2   1  -8 416.917 15.9670   1
  -2   1  -8 451.000 21.7417   8
  -2   1  -8 475.409 23.4599   3
  -2   1  -9 57.7403 16.3695   8
   2  -1   9 61.8653 8.88126   7
   2  -1   9 65.0345 9.59063   8
  -2   1  -9 35.9303 12.0958   6
  -2   1  -9 53.3413 9.94542   1
  -2   1 -10-9.60233 16.6835   8
  -2   1 -10-0.72859 9.91010   1
  -2   1 -10-4.39877 12.6910   6
   2  -1  10 6.67961 8.36356   8
   2  -1  10 2.65438 7.80566   7
   2  -1  11 96.0899 11.1528   7
  -2   1 -11 87.7843 19.2700   8
  -2   1 -11 63.5668 9.88722   1
   2  -1  11 120.300 11.5801   8
   2  -1  12 70.7887 10.9271   7
  -2   1 -12 60.1995 21.4652   8
   2  -1  12 75.6506 11.2383   8
   2  -1  13 8.68812 9.71735   7
   2  -1  13 15.7180 10.8410   8
  -2   1 -13 2.25857 22.3539   8
   2  -1  14 142.776 14.6697   8
  -2   1 -14 144.017 28.0372   8
   2  -1  14 120.837 14.7773   7
  -2   0  15 55.6760 13.7041   3
  -2   0  15 20.6741 13.5294   8
   2   0 -15 30.5382 24.8693   8
   2   0 -14-11.4811 22.9366   8
  -2   0  14 16.8931 11.9784   8
  -2   0  14 13.0023 12.0394   3
  -2   0  13 42.3242 11.8829   8
   2   0 -13 4.98024 20.2576   8
   2   0 -13 25.0279 10.1444   1
   2   0 -13 31.7328 9.57629   1
  -2   0  13 31.5656 12.0082   3
   2   0 -12 734.873 23.2987   1
  -2   0  12 777.699 29.8576   3
   2   0 -12 625.618 22.2119   1
  -2   0  12 756.585 30.2990   8
   2   0 -12 719.899 33.9286   8
   2   0 -11 38.0575 17.7632   8
  -2   0  11 49.2136 11.5111   8
   2   0 -11 40.5950 9.82377   1
  -2   0  11 40.9931 11.1665   3
  -2   0  10 821.830 30.0596   8
  -2   0  10 805.140 29.3936   3
  -2   0  10 814.346 27.2960   6
   2   0 -10 825.938 32.6500   8
   2   0 -10 722.351 24.4231   1
   2   0 -10 845.709 26.9660   1
   2   0  -9 51.0966 14.9864   8
  -2   0   9 56.7336 9.23869   8
  -2   0   9 53.2725 8.74119   3
  -2   0   9 54.5001 8.10928   6
  -2   0   8 696.588 22.7525   2
  -2   0   8 708.842 23.6331   6
  -2   0   8 673.526 26.0738   8
   2   0  -8 767.660 28.3807   8
   2   0  -7 902.711 30.5909   8
   2   0  -7 874.805 27.3457   2
  -2   0   7 875.421 27.2371   6
  -2   0   7 842.068 26.0312   2
  -2   0   6 1248.67 34.8991   6
  -2   0   6 1174.66 34.0189   2
   2   0  -6 1250.05 34.7077   2
   2   0  -5 7124.88 169.062   2
  -2   0   5 6745.25 169.039   2
  -2   0   5 6963.11 169.554   6
   2   0  -5 6993.99 167.213   1
  -2   0   4 2788.43 72.6995   2
   2   0  -4 2961.84 71.1853   1
   2   0  -3 500.166 14.9301   1
  -2   0   2 1988.17 31.9899   5
   2   0  -2 1909.13 31.4137   1
  -2   0   1 2519.39 61.4249   5
   2   0   0 54.9966 4.37543   5
  -2   0   0 914.205 10.4530   5
   2   0   1 1810.64 45.8902   5
   2   0   1 1744.78 45.8435   1
  -2   0  -1 1919.51 46.0679   1
  -2   0  -2 590.050 17.6187   1
  -2   0  -2 647.984 17.7551   8
  -2   0  -2 613.406 18.2957   7
   2   0   2 591.682 17.3806   1
   2   0   3 453.662 14.4903   8
  -2   0  -3 476.317 14.9209   1
  -2   0  -3 491.939 16.4516   7
  -2   0  -3 508.546 15.7837   8
   2   0   3 440.938 14.9084   7
   2   0   3 493.648 14.7580   1
   2   0   4 2077.93 51.3790   1
  -2   0  -4 1975.65 50.6619   1
  -2   0  -4 2149.81 52.5715   8
   2   0   4 1895.68 51.9563   7
   2   0   4 1911.96 51.0739   8
  -2   0  -5 1580.12 42.3309   1
   2   0   5 1663.41 43.4001   1
   2   0   5 1596.54 44.2860   7
   2   0   5 1605.50 43.3367   8
  -2   0  -5 1713.70 45.2395   8
  -2   0  -6 342.144 17.1905   8
   2   0   6 362.969 14.1955   8
  -2   0  -6 339.826 13.8442   1
  -2   0  -6 361.275 14.9359   6
   2   0   6 398.021 15.0446   1
   2   0   6 346.512 14.6287   7
   2   0   7 346.374 15.2426   7
  -2   0  -7 340.329 14.6180   1
  -2   0  -7 342.870 15.4701   6
  -2   0  -7 306.153 13.1978   2
  -2   0  -7 373.443 19.3100   8
   2   0   7 355.882 14.6526   8
  -2   0  -8 516.187 20.4479   6
   2   0   8 519.996 20.5499   7
  -2   0  -8 481.317 18.1132   2
  -2   0  -8 521.055 24.6336   8
  -2   0  -8 515.916 18.7373   1
   2   0   8 541.608 19.9673   8
   2   0   9 1411.86 42.9979   7
  -2   0  -9 1269.78 41.0340   6
  -2   0  -9 1380.03 39.2195   2
   2   0   9 1517.31 42.2411   8
  -2   0  -9 1407.94 39.0620   1
  -2   0  -9 1439.44 46.1383   8
  -2   0 -10-6.64421 13.7485   6
  -2   0 -10-0.18002 16.8023   8
  -2   0 -10 5.68229 11.3176   1
   2   0  10-2.95830 8.34854   7
   2   0  10 3.36156 8.25371   8
  -2   0 -11 9.95440 15.7486   6
  -2   0 -11 15.5533 18.3420   8
  -2   0 -11 15.1047 12.3010   1
   2   0  11 15.6477 8.87163   8
   2   0  11 21.0426 8.98036   7
  -2   0 -12 4.02256 20.0246   8
   2   0  12 0.18259 9.18257   7
  -2   0 -12 1.68640 12.7156   1
   2   0  12 12.6686 9.21499   8
   2   0  13 151.922 14.6069   7
   2   0  13 161.992 15.2350   8
  -2   0 -14-7.57915 25.4353   8
   2   0  14 10.1715 11.4273   8
  -2  -1  15 152.032 16.2070   3
  -2  -1  15 180.062 17.7307   8
   2   1 -15 137.269 27.1925   8
   2   1 -14 15.5101 22.1688   8
  -2  -1  14 35.1261 12.6939   3
  -2  -1  14 29.2467 12.7404   8
  -2  -1  13 527.518 25.0223   3
  -2  -1  13 509.781 25.4830   8
   2   1 -13 465.315 29.8198   8
   2   1 -12 127.497 20.7903   8
  -2  -1  12 146.711 14.6317   3
  -2  -1  12 141.962 15.2941   8
  -2  -1  11 205.495 12.9099   6
  -2  -1  11 195.999 15.2788   3
  -2  -1  11 195.813 16.2365   8
   2   1 -11 165.068 20.9389   8
  -2  -1  10 70.8299 8.11492   2
   2   1 -10 84.0779 8.45318   1
  -2  -1  10 57.7832 10.2056   3
  -2  -1  10 60.3059 10.6983   8
   2   1 -10 56.9701 16.5253   8
  -2  -1  10 66.6820 8.55396   6
   2   1 -10 56.9957 7.67343   1
   2   1  -9 53.4015 7.18508   1
  -2  -1   9 54.1561 7.24944   2
  -2  -1   9 49.0817 8.61319   3
  -2  -1   9 62.3156 7.79968   6
  -2  -1   9 62.0549 9.74870   8
   2   1  -9 56.0654 14.7570   8
  -2  -1   8 1340.11 41.2319   8
  -2  -1   8 1338.08 37.6705   2
   2   1  -8 1394.13 42.0357   8
  -2  -1   8 1332.64 38.1706   6
   2   1  -8 1294.09 34.3216   1
  -2  -1   7 1450.77 40.7808   2
  -2  -1   7 1453.16 43.6275   8
   2   1  -7 1450.64 37.6913   1
   2   1  -7 1549.91 44.4264   8
  -2  -1   7 1504.08 41.3341   6
   2   1  -6 2493.95 62.6644   1
  -2  -1   6 2571.08 66.1884   2
  -2  -1   6 2401.10 67.7189   8
  -2  -1   5 1606.93 43.6336   2
   2   1  -5 1660.90 44.7019   8
   2   1  -5 1596.41 40.7497   1
   2   1  -4 2976.50 78.7366   8
  -2  -1   4 3047.91 76.5474   1
   2   1  -3 3028.19 74.4624   1
  -2  -1   3 3066.96 74.9509   1
  -2  -1   2 1096.69 30.0136   1
  -2  -1   2 1149.20 28.5390   5
   2   1  -2 1204.50 30.0773   1
  -2  -1   1 3059.93 74.7491   4
  -2  -1   0 97.5531 4.37011   4
   2   1   0 119.793 5.60733   4
  -2  -1  -1 22.1060 5.36224   1
   2   1   1 21.3106 3.96707   4
   2   1   2 625.847 18.9866   1
   2   1   2 740.195 19.2723   4
  -2  -1  -2 638.900 19.3437   8
  -2  -1  -2 670.252 19.1624   1
  -2  -1  -2 560.992 18.2484   3
   2   1   3 1999.30 53.2605   1
  -2  -1  -3 2117.99 52.8997   1
  -2  -1  -3 1902.24 53.2265   3
   2   1   4 1544.14 40.4805   1
  -2  -1  -4 1598.34 41.2379   8
  -2  -1  -4 1486.98 39.1697   1
  -2  -1  -4 1340.53 40.2784   3
   2   1   4 1396.33 39.2853   8
  -2  -1  -5 123.147 11.7616   8
  -2  -1  -5 106.025 8.91342   3
  -2  -1  -5 112.872 9.09699   1
   2   1   5 115.973 8.76244   1
   2   1   5 102.064 7.45820   8
  -2  -1  -6 498.553 17.9350   1
   2   1   6 448.429 17.8920   7
   2   1   6 501.630 19.8131   1
   2   1   6 455.638 17.2127   8
  -2  -1  -6 507.662 20.9664   8
  -2  -1  -7 450.508 19.4731   6
  -2  -1  -7 495.862 22.5805   8
  -2  -1  -7 464.494 18.3633   1
   2   1   7 454.371 18.5183   7
   2   1   7 461.618 17.7692   8
  -2  -1  -8 106.472 11.2818   2
   2   1   8 126.187 10.6930   7
  -2  -1  -8 119.395 14.1574   6
  -2  -1  -8 110.214 12.6827   1
  -2  -1  -8 123.468 16.9431   8
   2   1   8 133.832 10.4528   8
  -2  -1  -9 85.6156 13.9464   1
   2   1   9 87.1234 10.2239   7
  -2  -1  -9 107.608 18.6873   8
   2   1   9 94.0205 10.9988   8
  -2  -1  -9 72.7538 12.5029   2
  -2  -1  -9 88.2639 14.5746   6
   2   1  10 68.0947 10.1336   8
  -2  -1 -10 40.7534 15.6569   6
  -2  -1 -10 55.2505 14.1107   2
  -2  -1 -10 43.2561 18.4578   8
  -2  -1 -10 46.8079 14.1454   1
   2   1  10 65.3230 10.5096   7
  -2  -1 -11 28.7282 19.9960   8
  -2  -1 -11 32.8314 16.5736   6
  -2  -1 -11 36.8612 14.9837   1
   2   1  11 35.1476 9.84391   7
  -2  -1 -11 29.1697 15.9306   2
   2   1  11 43.5305 9.83655   8
   2   1  12 9.57554 9.53455   7
  -2  -1 -12 9.01002 18.1340   6
  -2  -1 -12-13.4738 22.1324   8
  -2  -1 -12-2.51483 15.5685   2
   2   1  12 7.68993 9.92772   8
  -2  -1 -12-8.68390 15.6683   1
   2   1  13 126.619 14.5786   8
   2   1  13 112.972 14.1332   7
  -2  -1 -13 96.1296 27.8701   8
   2   2 -15 5.73766 22.8697   8
  -2  -2  15 13.3192 11.1403   3
  -2  -2  15 15.4047 12.3209   8
  -2  -2  14 83.8498 13.5827   3
  -2  -2  14 77.5698 13.9367   8
   2   2 -14 70.2918 20.8263   8
  -2  -2  13 678.432 28.0728   3
  -2  -2  13 681.308 30.1166   8
   2   2 -13 625.364 33.0977   8
  -2  -2  12 56.3288 10.5044   6
  -2  -2  12 85.1770 12.6556   3
   2   2 -12 79.5115 19.3738   8
  -2  -2  12 73.6574 13.7605   8
  -2  -2  11 229.108 13.3271   2
  -2  -2  11 224.402 15.7414   3
  -2  -2  11 239.693 13.2560   6
   2   2 -11 259.719 22.0058   8
  -2  -2  11 259.141 18.1750   8
   2   2 -10 384.609 22.9601   8
  -2  -2  10 377.979 18.5615   3
  -2  -2  10 392.505 16.6002   2
  -2  -2  10 383.545 20.1479   8
  -2  -2  10 390.101 16.6425   6
  -2  -2   9 507.253 22.5346   8
  -2  -2   9 496.959 20.8863   3
  -2  -2   9 524.657 19.3365   6
  -2  -2   9 526.525 19.4847   2
   2   2  -9 509.582 23.9385   8
  -2  -2   8 411.844 16.6511   6
  -2  -2   8 388.283 17.2249   3
  -2  -2   8 424.272 16.8384   2
   2   2  -8 426.481 20.1516   8
  -2  -2   8 417.899 19.1975   8
   2   2  -7 4.85410 11.3802   8
  -2  -2   7-2.01434 6.00205   2
  -2  -2   7 2.54655 6.36519   8
   2   2  -6 9703.61 231.795   1
  -2  -2   6 9861.45 238.368   8
   2   2  -6 9770.91 236.915   8
  -2  -2   5 18.3856 6.02227   8
  -2  -2   5 19.2149 4.07399   1
   2   2  -5 19.6808 4.71740   1
   2   2  -4 163.745 7.14101   1
  -2  -2   4 166.384 7.04100   1
  -2  -2   4 140.695 8.70252   8
  -2  -2   3 26.1249 3.57541   1
   2   2  -3 31.9686 5.07432   1
  -2  -2   2 177.725 7.54223   1
   2   2  -2 211.417 8.59254   1
   2   2  -1 52.3521 6.02420   1
  -2  -2   1 47.7481 2.98940   4
   2   2   0 3037.96 70.6766   4
  -2  -2   0 2764.55 70.1559   4
   2   2   1 12518.5 291.014   4
  -2  -2  -1 11749.2 292.586   1
  -2  -2  -2 27.7280 7.29514   1
  -2  -2  -2 25.0165 4.29927   3
   2   2   2 26.3205 4.89349   1
   2   2   2 29.1546 5.66779   4
  -2  -2  -3 2952.07 74.9196   8
   2   2   3 2927.15 75.6125   1
  -2  -2  -3 3114.60 74.6716   1
  -2  -2  -4 1367.81 38.0329   8
   2   2   4 1285.31 38.1775   1
  -2  -2  -4 1226.03 36.8763   3
  -2  -2  -4 1319.14 36.7991   1
   2   2   5 1.15447 5.02754   8
  -2  -2  -5-4.44967 5.92250   3
  -2  -2  -5-5.33178 10.9707   8
   2   2   5-4.22665 7.54326   1
  -2  -2  -5 3.91286 8.50381   1
  -2  -2  -6 88.2660 9.10786   3
  -2  -2  -6 104.005 13.7674   8
   2   2   6 89.7843 8.19640   8
  -2  -2  -6 99.8876 11.2774   1
  -2  -2  -7 6.51738 13.8683   8
  -2  -2  -7 7.15106 11.8538   6
  -2  -2  -7 12.4566 10.6846   1
   2   2   7 3.56549 6.39406   8
  -2  -2  -8 824.507 28.2181   1
   2   2   8 773.863 27.1091   8
  -2  -2  -8 829.795 33.0978   8
  -2  -2  -8 752.619 29.4153   6
   2   2   9 22.1380 8.90829   8
  -2  -2  -9 12.4721 12.2809   2
  -2  -2  -9 24.6396 14.6161   1
  -2  -2  -9 34.6452 18.3206   8
  -2  -2  -9 7.29321 14.3809   6
  -2  -2 -10 55.7830 16.8286   6
  -2  -2 -10 61.7604 20.9347   8
  -2  -2 -10 59.3884 15.6420   2
   2   2  10 77.2424 10.8880   7
   2   2  10 88.6005 11.3787   8
  -2  -2 -10 65.8372 17.1132   1
  -2  -2 -11 83.4709 17.4148   2
   2   2  11 111.551 12.7589   8
  -2  -2 -11 89.8218 19.1609   6
   2   2  11 103.786 12.4775   7
  -2  -2 -11 110.749 18.5452   1
  -2  -2 -11 65.6571 22.8735   8
   2   2  12 13.8175 11.1783   8
  -2  -2 -12 4.07319 18.3563   2
  -2  -2 -12 12.3596 18.1114   1
  -2  -2 -12 35.6832 20.3859   6
  -2  -2 -12-2.42266 24.8756   8
   2   2  12 11.3019 10.3553   7
  -2  -2 -13 45.0201 22.5754   6
   2   2  13 8.11634 11.8911   8
  -2  -2 -13 5.66553 27.3562   8
  -2  -3  15 191.766 16.3933   3
   2   3 -15 158.462 25.9479   8
  -2  -3  15 180.919 18.6062   8
  -2  -3  14 17.0518 10.1183   3
  -2  -3  14 1.18292 11.9867   8
   2   3 -14 32.3686 19.9575   8
  -2  -3  13 43.6815 12.9769   8
  -2  -3  13 65.9168 11.8169   3
   2   3 -13 48.5606 19.0277   8
   2   3 -12-7.91475 17.2902   8
  -2  -3  12-5.85612 8.24418   6
  -2  -3  12-8.57710 10.2721   3
  -2  -3  12 4.18550 7.59254   2
  -2  -3  12-17.8066 12.8930   8
  -2  -3  11 838.336 29.9719   3
  -2  -3  11 807.417 27.5893   2
   2   3 -11 784.860 32.6478   8
  -2  -3  11 854.601 33.0731   8
  -2  -3  11 833.815 27.5447   6
   2   3 -10 10.1744 14.1722   8
  -2  -3  10 2.04879 7.55742   3
  -2  -3  10 15.0141 7.60203   2
  -2  -3  10 16.9147 9.55695   8
  -2  -3  10 10.3287 6.89776   6
  -2  -3   9 652.210 23.3939   2
   2   3  -9 639.424 26.3246   8
  -2  -3   9 640.087 22.6487   6
  -2  -3   9 626.823 23.6723   3
  -2  -3   9 642.766 26.0804   8
  -2  -3   8 1196.56 38.3959   8
  -2  -3   8 1165.14 35.4582   3
  -2  -3   8 1167.41 35.6212   2
   2   3  -8 1189.32 37.0470   8
  -2  -3   7 531.193 19.7973   3
  -2  -3   7 552.438 22.1190   8
   2   3  -7 583.041 16.1646   1
   2   3  -6 201.965 8.36646   1
  -2  -3   6 179.881 11.7052   8
  -2  -3   6 187.487 7.96256   1
  -2  -3   5 1214.30 35.8899   8
  -2  -3   5 1240.68 32.3440   1
   2   3  -5 1187.52 31.8440   1
  -2  -3   4 233.405 11.1885   8
   2   3  -4 239.551 9.99613   1
  -2  -3   4 251.580 9.56949   1
  -2  -3   3 11.2168 3.83031   1
   2   3  -3 9.33426 6.12164   1
   2   3  -2 1947.09 47.2418   1
  -2  -3   2 1853.20 47.1880   1
  -2  -3   2 1737.00 44.6044   4
   2   3  -1 6210.81 146.487   1
  -2  -3   1 5698.31 146.251   1
  -2  -3   1 6046.83 143.317   4
   2   3   0 329.848 10.6843   4
  -2  -3  -1 5634.10 137.689   3
   2   3   1 5870.29 137.145   4
  -2  -3  -1 5471.30 139.047   7
   2   3   2 929.939 29.7128   1
  -2  -3  -2 914.144 26.9656   3
  -2  -3  -2 960.624 28.0586   7
  -2  -3  -2 1024.32 29.5832   1
   2   3   3 1751.69 49.4215   1
  -2  -3  -3 1638.93 47.2352   7
  -2  -3  -3 1826.79 47.8763   1
  -2  -3  -3 1707.31 46.6735   3
  -2  -3  -4 1027.66 32.0223   3
   2   3   4 1048.47 34.7740   1
  -2  -3  -4 1099.79 33.0983   1
   2   3   4 1134.26 32.8191   7
   2   3   5 183.770 13.7482   1
  -2  -3  -5 208.589 13.9277   1
  -2  -3  -5 206.383 15.6145   8
   2   3   5 228.523 14.0214   7
   2   3   6 304.381 17.2848   7
  -2  -3  -6 295.760 16.8084   1
  -2  -3  -6 316.558 19.9636   8
  -2  -3  -7 381.978 19.8918   1
  -2  -3  -7 308.608 19.8692   6
  -2  -3  -7 364.606 22.3818   8
  -2  -3  -8 483.148 24.9611   6
  -2  -3  -8 593.892 24.5592   1
   2   3   8 513.620 21.7758   8
  -2  -3  -8 560.750 28.8665   8
  -2  -3  -9-14.6157 16.2678   6
  -2  -3  -9 33.0016 16.3372   1
   2   3   9 5.60665 9.41769   8
  -2  -3  -9 16.5983 19.1764   8
  -2  -3 -10 52.3683 21.7941   8
  -2  -3 -10 35.7732 16.0765   2
   2   3  10 48.3192 11.2731   8
  -2  -3 -10 20.2659 17.0168   6
  -2  -3 -10 58.1100 18.8991   1
  -2  -3 -11-9.14490 19.4713   6
  -2  -3 -11 1.22166 19.9422   1
  -2  -3 -11-3.21298 18.3621   2
  -2  -3 -11 4.09320 23.9229   8
  -2  -3 -12 3.96311 20.5110   1
  -2  -3 -12 12.9745 21.3276   6
  -2  -3 -12-7.81417 27.5706   8
  -2  -3 -13 140.639 26.8552   6
  -2  -4  15 62.3596 12.3638   3
  -2  -4  15 50.7774 14.2449   8
  -2  -4  15 45.1235 12.5208   5
  -2  -4  14 28.4805 11.5566   3
  -2  -4  14-5.87233 13.5271   8
  -2  -4  13 196.601 17.9220   8
  -2  -4  13 202.857 14.9420   3
  -2  -4  13 204.532 12.8663   6
  -2  -4  13 176.777 12.2447   2
  -2  -4  12 10.2929 7.23814   6
  -2  -4  12-2.56359 9.64922   3
  -2  -4  12-9.85473 12.4747   8
  -2  -4  12-3.01332 8.09118   2
  -2  -4  11 1843.81 51.2099   6
  -2  -4  11 1901.03 58.0737   8
  -2  -4  11 1764.02 51.5873   2
  -2  -4  11 1886.02 53.6683   3
  -2  -4  10 81.3269 9.53805   6
  -2  -4  10 83.6020 12.4102   8
  -2  -4  10 97.7218 10.0451   3
  -2  -4  10 75.8452 10.3142   2
  -2  -4   9 8.44879 8.51259   8
  -2  -4   9 4.20932 6.54896   3
  -2  -4   9-0.11599 7.23921   2
  -2  -4   8 165.668 8.25956   5
  -2  -4   8 163.246 10.7886   3
  -2  -4   8 180.806 13.1218   8
   2   4  -7 945.184 27.5466   1
  -2  -4   7 1014.51 28.9362   3
  -2  -4   7 943.422 25.9659   5
  -2  -4   7 974.579 32.1922   8
  -2  -4   7 910.414 25.8265   1
  -2  -4   6 1209.61 32.1117   5
  -2  -4   6 1260.99 33.7048   1
   2   4  -6 1304.84 34.7364   1
  -2  -4   6 1258.12 34.6477   3
  -2  -4   6 1317.28 39.0313   8
  -2  -4   5 79.8225 6.19810   1
  -2  -4   5 86.6865 8.42482   8
  -2  -4   5 65.5003 3.96695   5
   2   4  -5 90.8488 8.68951   1
  -2  -4   4 1355.81 36.6435   1
   2   4  -4 1330.17 37.0039   1
   2   4  -3 517.301 18.5518   1
  -2  -4   3 529.724 17.5439   1
  -2  -4   2 11.0829 1.87654   4
   2   4  -2 14.5783 8.92270   1
  -2  -4   2 11.9566 4.68410   1
  -2  -4   1 260.089 8.16597   3
  -2  -4   1 284.334 12.0962   1
   2   4  -1 322.138 14.9569   1
  -2  -4   0 814.891 23.9065   7
  -2  -4   0 871.796 22.2463   3
   2   4   0 777.267 21.9055   4
  -2  -4  -1 249.728 10.5707   7
  -2  -4  -1 230.752 9.35342   3
   2   4   1 227.793 8.85525   4
  -2  -4  -2 1746.17 48.0152   1
  -2  -4  -2 1628.53 44.8180   3
   2   4   2 1714.42 43.9542   4
  -2  -4  -2 1679.40 46.1265   7
  -2  -4  -3 1414.23 41.0630   3
   2   4   3 1442.88 45.2526   1
   2   4   4 1039.49 37.3819   1
  -2  -4  -4 1226.70 36.2667   1
   2   4   5 52.7174 11.5182   7
  -2  -4  -5 40.6693 12.8621   1
   2   4   6 207.585 15.7076   7
  -2  -4  -6 189.170 16.9202   1
   2   4   7 347.646 19.7781   7
  -2  -4  -7 318.656 20.3081   1
  -2  -4  -7 289.628 22.5262   8
  -2  -4  -7 294.140 21.0235   6
  -2  -4  -8 28.7303 18.6856   8
  -2  -4  -8 58.7798 16.4557   1
  -2  -4  -8 22.4423 15.9925   6
   2   4   8 35.8493 15.5972   7
  -2  -4  -9 87.9063 19.4331   1
  -2  -4  -9 57.0880 18.0756   6
  -2  -4  -9 57.3977 21.3066   8
   2   4   9 88.8451 17.8979   7
   2   4  10 300.282 24.0724   7
  -2  -4 -10 253.193 22.7239   2
  -2  -4 -10 294.801 29.8314   8
  -2  -4 -10 262.505 23.9926   6
  -2  -4 -11 106.520 22.9654   1
  -2  -4 -11 51.8178 22.5613   6
  -2  -4 -11 104.396 27.5893   8
  -2  -4 -11 67.0354 21.9692   2
  -2  -4 -12 128.086 26.0106   1
  -2  -4 -12 130.617 25.8686   6
  -2  -5  15 57.3085 14.9485   8
  -2  -5  14 10.0036 10.0694   3
  -2  -5  14-8.49353 13.3471   8
  -2  -5  14 4.00912 11.4163   5
  -2  -5  13 201.153 14.4828   3
  -2  -5  13 190.329 12.0416   6
  -2  -5  13 177.873 18.8460   8
  -2  -5  13 163.637 13.0240   2
  -2  -5  13 199.354 15.1009   5
  -2  -5  12 182.780 13.8688   3
  -2  -5  12 181.531 17.4171   8
  -2  -5  12 167.341 13.2911   5
  -2  -5  12 164.498 12.7442   2
  -2  -5  12 187.039 11.8871   6
  -2  -5  11 47.2624 9.59796   3
  -2  -5  11 58.7137 13.1810   8
  -2  -5  11 51.6951 8.84130   6
  -2  -5  11 54.7067 10.0719   2
  -2  -5  11 51.6504 9.02851   5
  -2  -5  10 20.4687 7.81586   3
  -2  -5  10-3.90504 8.41854   6
  -2  -5  10 14.4605 10.8661   8
  -2  -5  10 10.1796 7.00762   5
  -2  -5  10-4.57623 9.66033   2
  -2  -5   9 444.279 17.1599   3
  -2  -5   9 393.174 15.3427   5
  -2  -5   9 403.316 21.2330   8
  -2  -5   8 32.3310 6.89814   3
  -2  -5   8 24.8710 5.08178   1
  -2  -5   8 28.2657 9.18808   8
  -2  -5   8 33.0365 5.44564   5
  -2  -5   7 334.340 12.6928   3
  -2  -5   7 305.912 11.1981   5
  -2  -5   7 294.986 11.7618   1
  -2  -5   7 306.813 17.0216   8
  -2  -5   6 2406.86 58.6974   1
  -2  -5   6 2384.12 57.3092   3
  -2  -5   6 2448.81 63.3198   8
  -2  -5   5 61.8364 4.78500   3
  -2  -5   5 64.8011 6.78684   1
  -2  -5   5 62.2470 8.41349   8
   2   5  -5 37.3825 11.2966   1
  -2  -5   4 507.410 14.1665   3
  -2  -5   4 574.998 18.7880   1
   2   5  -4 531.797 21.2448   1
   2   5  -3 119.196 12.9518   1
  -2  -5   3 150.778 9.46930   1
   2   5  -2 2674.48 71.7539   1
  -2  -5   2 2673.70 70.2700   1
  -2  -5   1 873.150 27.6612   1
   2   5  -1 845.623 30.2675   1
   2   5   0 36.2519 12.8387   1
  -2  -5   0 55.6935 5.52638   7
   2   5   0 54.3017 5.14239   4
  -2  -5  -1 57.5188 6.22954   7
  -2  -5  -1 75.0494 7.27113   8
   2   5   1 53.5629 5.37722   4
   2   5   2 183.093 9.45001   4
  -2  -5  -2 177.999 10.3836   8
  -2  -5  -2 168.030 10.1472   7
  -2  -5  -3 26.3403 7.00607   8
  -2  -5  -3 12.9289 12.8194   1
  -2  -5  -4 30.1457 13.9214   1
  -2  -5  -5 766.119 30.0319   1
  -2  -5  -6 16.5497 15.2048   1
   2   5   7 83.3823 15.7362   7
  -2  -5  -7 78.1924 17.9615   6
  -2  -5  -7 55.7334 17.2399   1
  -2  -5  -8 112.367 19.8362   6
   2   5   8 122.659 18.1704   7
  -2  -5  -8 150.216 20.4227   1
  -2  -5  -9 20.9906 22.4781   8
  -2  -5  -9 63.2916 20.8982   1
   2   5   9 54.3561 18.3276   7
  -2  -5  -9 8.98924 18.9831   6
   2   5  10 4.66476 18.8549   7
  -2  -5 -10-17.9999 20.3453   2
  -2  -5 -10 31.1032 21.5183   1
  -2  -5 -10-17.5953 21.3920   6
  -2  -5 -10-11.8735 26.1528   8
  -2  -5 -11-6.42288 23.1466   6
   2   5  11 30.3894 20.3328   7
  -2  -5 -11-5.16087 21.9944   2
  -2  -5 -11 34.2197 23.4547   1
  -2  -5 -11-10.5763 27.6852   8
  -2  -6  15 58.8475 15.2542   8
  -2  -6  14 116.605 17.2419   8
  -2  -6  13 50.7988 7.82591   6
  -2  -6  13 60.4937 11.7963   5
  -2  -6  13 57.9099 10.0906   2
  -2  -6  13 40.2194 14.4543   8
  -2  -6  12 415.606 24.1155   8
  -2  -6  12 374.817 16.1988   6
  -2  -6  12 325.243 18.2375   2
  -2  -6  12 412.429 19.0075   5
  -2  -6  11 256.464 13.6018   3
  -2  -6  11 188.615 14.0626   2
  -2  -6  11 206.457 12.7984   6
  -2  -6  11 208.334 13.3141   5
  -2  -6  11 217.383 18.6399   8
  -2  -6  10 213.665 12.2525   3
  -2  -6  10 185.966 11.3686   5
  -2  -6  10 209.010 17.0487   8
  -2  -6   9 164.543 9.71737   3
  -2  -6   9 101.939 6.74853   1
  -2  -6   9 133.211 9.22269   5
  -2  -6   9 138.003 14.2841   8
  -2  -6   8 24.9045 6.13991   3
  -2  -6   8 28.2219 10.4875   8
  -2  -6   8 18.9856 6.64953   5
  -2  -6   8 26.8017 6.21479   1
  -2  -6   7 1319.43 35.4141   3
  -2  -6   7 1438.60 43.8890   8
  -2  -6   7 1325.07 37.3939   1
  -2  -6   6 139.109 9.75986   1
  -2  -6   6 153.293 12.4785   8
  -2  -6   5 1317.90 38.1174   1
  -2  -6   4 2.58756 6.29748   1
  -2  -6   3 49.7037 7.63793   1
   2   6  -3 32.5952 4.95788   5
  -2  -6   2 235.810 12.9867   1
  -2  -6   1 333.574 15.7330   1
  -2  -6   1 315.899 12.2899   7
  -2  -6   0 331.916 12.8881   7
  -2  -6   0 308.632 15.2493   1
   2   6   0 267.087 10.0977   4
  -2  -6  -1 125.625 8.79490   7
   2   6   1 116.774 7.08498   4
  -2  -6  -1 147.794 9.70073   8
  -2  -6  -2 521.477 19.4056   8
   2   6   2 454.763 15.5792   4
  -2  -6  -3 276.214 14.8948   8
   2   6   3 272.813 12.8468   4
  -2  -6  -3 296.836 20.1886   1
  -2  -6  -4 313.100 17.1937   8
  -2  -6  -4 343.812 21.7892   1
  -2  -6  -5 410.612 24.3763   1
  -2  -6  -5 368.835 20.3904   8
  -2  -6  -6 13.8112 17.4896   1
  -2  -6  -6 28.7411 11.2977   8
  -2  -6  -7 496.662 28.2931   1
  -2  -6  -7 558.521 28.9308   6
  -2  -6  -8 43.9226 19.8719   6
  -2  -6  -8 31.2550 20.2083   1
  -2  -6  -9 99.9617 23.1261   1
  -2  -6  -9 106.305 23.7539   6
  -2  -6 -10 21.3676 23.7748   6
  -2  -6 -10 41.0560 23.3598   1
  -2  -6 -11 40.9240 25.6430   1
  -2  -6 -11-29.7154 25.7044   2
  -2  -7  14 158.512 19.3093   8
  -2  -7  13-1.45563 13.5112   8
  -2  -7  12 8.91900 6.92192   6
  -2  -7  12 16.6329 12.4829   8
  -2  -7  12 13.7573 10.0959   5
  -2  -7  12 2.40662 9.99785   2
  -2  -7  11 68.9344 14.4589   8
  -2  -7  11 61.7437 11.2269   5
  -2  -7  11 47.8680 9.62087   6
  -2  -7  10 85.0188 14.7618   8
  -2  -7  10 74.1645 9.61151   5
  -2  -7   9 119.865 8.62513   1
  -2  -7   9 121.042 10.4028   5
  -2  -7   9 156.274 15.2252   8
  -2  -7   8-0.75657 9.94599   8
  -2  -7   8-1.02698 6.71508   1
  -2  -7   7 1092.71 37.7838   8
  -2  -7   7 1037.39 32.3265   1
  -2  -7   6 61.2601 9.04291   1
  -2  -7   6 54.6865 11.0001   8
  -2  -7   6 39.7582 2.76667   4
  -2  -7   5-2.88527 7.39605   1
  -2  -7   4 50.2341 8.57934   1
  -2  -7   3 98.8709 10.0305   1
   2   7  -3 50.5312 6.62195   5
   2   7  -2 45.3077 8.92595   5
  -2  -7   2 49.5256 9.05302   1
  -2  -7   2 44.9606 5.58633   7
  -2  -7   1 15.4696 5.85943   7
  -2  -7   1 15.0206 8.07611   1
  -2  -7   0 2058.82 54.8395   7
  -2  -7   0 1968.09 58.5050   1
  -2  -7   0 2082.87 56.3529   8
  -2  -7  -1 34.0682 7.93726   8
   2   7   1 11.3985 6.00599   4
  -2  -7  -2 65.1999 9.77220   8
   2   7   2 54.6749 7.04273   4
   2   7   3 1.19320 8.18969   4
  -2  -7  -3-25.8567 18.1647   1
  -2  -7  -3-7.26508 9.32471   8
   2   7   4 186.509 13.0248   4
  -2  -7  -4 178.009 14.7223   8
  -2  -7  -4 194.624 21.7205   1
  -2  -7  -5 349.184 20.4337   8
  -2  -7  -5 381.248 25.6821   1
  -2  -7  -6-15.4675 19.3134   1
  -2  -7  -6 13.3591 10.7491   8
  -2  -7  -7 207.921 24.4544   1
  -2  -7  -7 174.314 18.2470   8
  -2  -7  -8 55.5756 22.6998   1
  -2  -7  -8 44.9562 14.6924   8
  -2  -7  -8 78.9177 24.4858   6
  -2  -7  -9 48.5122 24.2319   6
  -2  -7  -9 11.3957 24.0420   1
  -2  -7  -9-11.2170 15.1756   8
  -2  -7 -10 26.6030 25.8751   1
  -2  -8  13 28.7683 14.6463   8
  -2  -8  12 166.182 11.1022   4
  -2  -8  12 131.404 13.9470   2
  -2  -8  12 171.418 17.9964   8
  -2  -8  11 10.6868 12.2347   8
  -2  -8  11-7.94435 6.44082   4
  -2  -8  10 224.376 10.1922   4
  -2  -8  10 216.433 18.3540   8
  -2  -8   9 119.060 7.10426   4
  -2  -8   9 113.603 9.93193   1
  -2  -8   9 102.137 14.9465   8
  -2  -8   8 284.052 9.88881   4
  -2  -8   8 309.797 14.7492   1
  -2  -8   8 350.024 20.4854   8
  -2  -8   7 13.1134 10.2704   8
  -2  -8   7 6.90119 7.97697   1
  -2  -8   6 34.3716 8.36106   1
  -2  -8   6 33.4215 10.4623   8
  -2  -8   5 264.889 15.2173   1
   2   8  -4 8.55573 5.16434   5
  -2  -8   4-6.17944 8.32544   1
  -2  -8   3 149.334 12.3657   1
  -2  -8   3 155.186 8.61841   7
   2   8  -3 98.2009 9.15555   5
  -2  -8   2 474.477 21.3355   1
  -2  -8   2 477.494 16.9092   7
   2   8  -2 430.813 17.4191   5
  -2  -8   1 52.4055 7.67679   7
  -2  -8   1 65.0119 11.0550   1
  -2  -8   0 255.288 14.4171   8
  -2  -8   0 236.758 16.4857   1
   2   8   1 222.270 9.82622   4
  -2  -8  -1 285.520 18.1622   1
  -2  -8  -1 293.920 15.5768   8
  -2  -8  -2 484.587 20.4718   8
   2   8   2 350.050 13.3559   4
  -2  -8  -3 91.8553 12.1664   8
   2   8   3 89.8105 8.93954   4
  -2  -8  -4 23.6132 20.0075   1
  -2  -8  -4 14.1059 10.7870   8
   2   8   4 30.6451 9.49571   4
  -2  -8  -5 93.8230 22.1591   1
  -2  -8  -5 101.947 14.3668   8
   2   8   5 91.2926 12.4177   4
   2   8   6 59.4500 13.5548   4
  -2  -8  -6 73.0634 22.4628   1
  -2  -8  -6 77.5996 14.5627   8
  -2  -8  -7 1.09726 22.9100   1
  -2  -8  -7 65.0055 24.2569   6
   2   8   7 14.6415 14.2500   4
  -2  -8  -7 17.7498 13.4514   8
   2   8   8 9.85036 15.9870   4
  -2  -8  -8 16.5507 25.0256   1
  -2  -8  -8 15.3577 14.1185   8
   2   8   9-2.95921 17.6433   4
  -2  -8  -9 47.4426 26.7206   1
   2   8  10-8.33713 18.9345   4
  -2  -9  12 60.6627 14.3529   8
  -2  -9  11 59.1058 14.0526   8
  -2  -9  10 8.52415 7.69231   1
  -2  -9  10 19.5508 12.0706   8
  -2  -9   9 8.83666 3.25722   4
  -2  -9   9 0.21293 11.8861   8
  -2  -9   9 20.5108 8.13901   1
  -2  -9   8 312.956 20.7565   8
  -2  -9   8 320.626 16.3081   1
  -2  -9   7 138.827 12.2493   1
  -2  -9   7 156.452 15.6571   8
  -2  -9   6-6.03448 11.1625   8
  -2  -9   6-1.14716 8.55766   1
  -2  -9   5 335.745 12.5392   7
  -2  -9   5 327.601 17.8952   1
  -2  -9   4 7.41184 9.82519   1
  -2  -9   4 3.83113 5.29212   7
   2   9  -4 4.18657 6.09780   5
  -2  -9   3 49.3820 11.1345   1
  -2  -9   3 55.4249 7.05671   7
   2   9  -3 34.7397 9.02828   5
  -2  -9   2 13.4715 10.4375   1
   2   9  -2 16.1684 10.7699   5
  -2  -9   2 10.0513 6.16435   7
  -2  -9   1 857.550 27.8237   8
  -2  -9   1 801.617 30.9484   1
  -2  -9   0 211.311 16.7547   1
  -2  -9   0 215.907 14.1399   8
  -2  -9  -1 7.89321 10.8785   1
  -2  -9  -1 7.73075 9.27957   8
  -2  -9  -2 26.5585 10.1726   8
   2   9   2 48.5565 7.26351   4
   2   9   3 21.1483 7.92947   4
  -2  -9  -3 7.22124 10.2058   8
   2   9   4 26.1517 9.10153   4
  -2  -9  -4 23.5988 21.9139   1
  -2  -9  -4-1.02714 11.7977   8
  -2  -9  -5 18.0964 11.9300   6
   2   9   5 9.04975 10.4723   4
  -2  -9  -5 26.1657 13.0531   8
  -2  -9  -5 17.9716 22.8041   1
   2   9   6 29.4891 12.3688   4
  -2  -9  -6 53.2946 24.9881   1
  -2  -9  -6 43.4597 14.2594   8
   2   9   7 9.81381 13.6944   4
  -2  -9  -7 5.42882 25.4364   1
  -2  -9  -7 17.3393 14.3420   8
  -2 -10  10 34.7206 12.6102   8
  -2 -10   9 1.29049 12.2929   8
  -2 -10   9 18.2653 8.66228   1
  -2 -10   8-2.38210 12.6675   8
  -2 -10   8 9.65510 8.91073   1
  -2 -10   7 68.3320 10.8354   1
  -2 -10   7 64.7725 13.6735   8
  -2 -10   7 61.3097 5.76445   7
  -2 -10   6 245.842 10.1145   7
  -2 -10   6 232.846 18.0036   8
  -2 -10   6 215.942 15.4705   1
  -2 -10   5 38.6498 11.3842   1
  -2 -10   5 31.3883 6.00217   7
   2  10  -4 18.1549 7.02330   5
  -2 -10   4 44.0782 11.4523   1
   2  10  -3 304.599 14.1718   5
  -2 -10   3 316.975 18.9542   1
  -2 -10   2 2.15517 10.0710   1
  -2 -10   2 6.11999 9.80820   8
   2  10  -2 7.76330 11.6329   5
  -2 -10   1 4.05276 10.7713   1
   2  10  -1 4.42298 13.2055   5
  -2 -10   1 7.46598 9.41290   8
  -2 -10   0 29.9339 11.7537   1
  -2 -10   0 29.6051 10.4064   8
  -2 -10  -1 84.4239 12.1673   8
  -2 -10  -1 67.6792 13.2143   1
  -2 -10  -2-1.33289 12.2051   1
  -2 -10  -2-6.36426 11.0231   8
  -2 -10  -3-20.3040 13.2180   8
  -2 -10  -4 111.423 15.9738   8
  -2 -10  -4 104.049 26.3315   1
  -2 -10  -5 12.0052 12.9901   6
  -2 -10  -5 24.1497 25.4669   1
  -2 -10  -5 20.4080 13.2148   8
  -2 -11   8 70.5783 11.4281   1
  -2 -11   8 77.6779 14.3099   8
  -2 -11   7 13.0329 11.9891   8
  -2 -11   7 2.91881 9.55074   1
  -2 -11   6 264.515 19.0039   8
  -2 -11   6 263.318 17.2266   1
  -2 -11   5 20.5733 11.0456   1
  -2 -11   4 17.5905 10.0070   8
  -2 -11   4 2.36305 11.0285   1
  -2 -11   3 25.1023 9.82198   8
  -2 -11   3 6.82403 11.1720   1
  -2 -11   2 5.35896 9.57633   8
  -2 -11   2 4.94988 11.5671   1
   2  11  -2 7.18983 11.9538   5
  -2 -11   1 154.812 13.9300   8
  -2 -11   1 127.632 15.7749   1
  -2 -11   0 11.9740 12.3795   1
  -2 -11   0 13.9415 10.6556   8
   2  11   0 14.9069 16.1801   5
  -2 -11  -1 61.0192 13.3817   8
  -2 -11  -1 75.8115 14.7390   1
  -2 -11  -2 17.6907 13.3753   1
  -2 -11  -2 9.51818 12.7603   8
  -2 -11  -3 21.0594 13.5535   6
  -2 -11  -3-10.1326 13.2123   8
  -2 -11  -4 18.7106 13.9082   8
  -2 -12   6 9.51942 11.0733   1
  -2 -12   5 5.55163 10.9027   1
  -2 -12   5 17.6362 9.85897   8
  -2 -12   4 24.1693 10.1154   8
  -2 -12   4 20.6007 11.9244   1
  -2 -12   3 9.54118 10.2335   8
  -2 -12   3 14.3198 12.0764   1
  -2 -12   2 9.94985 11.0094   8
  -2 -12   2 3.27262 12.4184   1
  -2 -12   1 72.9255 13.0621   8
  -2 -12   1 73.2945 14.9926   1
  -2 -12   0 2.49926 11.6488   8
  -2 -12  -1 1.44550 12.5008   8
  -2 -12  -2-6.96658 13.5179   8
   3 -13  -3 12.2614 14.9394   6
  -3  13   3 13.4509 22.8045   5
   3 -13  -2-5.38250 14.7868   6
  -3  13   2 28.2273 21.9789   5
  -3  13   1 130.816 21.9218   5
  -3  13   0 38.2835 22.2097   5
   3 -13   1 33.9126 17.7024   1
   3 -13   2 16.1099 15.9883   1
   3 -13   3 25.2814 14.9858   1
   3 -13   4 14.1291 12.9217   1
   3 -12  -5 0.85158 14.7001   6
  -3  12   5-3.15812 25.9259   5
   3 -12  -4 77.3580 16.7259   6
  -3  12   4 78.0982 25.0999   5
   3 -12  -3 207.456 20.6062   6
  -3  12   3 175.565 25.0835   5
   3 -12  -3 256.819 27.8941   1
   3 -12  -2 26.2789 14.5509   6
   3 -12  -2 42.0941 20.5975   1
  -3  12   2 18.5821 20.7547   5
   3 -12  -1 101.749 16.0685   6
  -3  12   1 109.487 20.9765   5
   3 -12  -1 125.524 21.9799   1
   3 -12   0 29.1159 18.3988   1
   3 -12   0 18.5968 13.3519   6
  -3  12   0 26.2430 17.9881   5
   3 -12   1 65.0739 13.8057   6
  -3  12  -1 82.0648 17.5977   5
   3 -12   1 101.778 21.1309   1
  -3  12  -2 55.8661 16.7212   5
   3 -12   2 43.1817 16.8395   1
  -3  12  -3 83.0834 17.0088   5
   3 -12   3 55.9179 16.1723   1
   3 -12   4 74.4861 15.1560   1
  -3  12  -4 35.3878 16.8543   5
   3 -12   5 9.29910 10.9438   1
   3 -11  -8 0.89100 14.8062   8
   3 -11  -7 42.7379 15.8078   8
   3 -11  -6 161.295 20.2822   6
   3 -11  -6 153.062 18.2095   8
   3 -11  -6 179.450 42.4809   1
   3 -11  -5 39.0393 15.8426   6
   3 -11  -5 25.6409 13.0116   8
  -3  11   5 12.7849 26.4007   5
   3 -11  -5 32.9166 13.2820   2
   3 -11  -4 18.7520 14.8194   6
  -3  11   4 22.6977 13.8662   3
   3 -11  -4 23.3963 19.1165   1
  -3  11   4 10.5001 23.7679   5
   3 -11  -4 30.6511 12.4330   8
   3 -11  -3 38.3858 12.0309   8
   3 -11  -3 31.9003 19.8747   1
  -3  11   3 5.91216 12.3275   3
  -3  11   3 44.6761 21.0077   5
   3 -11  -3 29.9900 14.0692   6
  -3  11   3 14.3073 11.6552   4
  -3  11   2 332.751 16.7016   3
   3 -11  -2 349.019 19.2374   8
  -3  11   2 386.471 26.3845   5
  -3  11   2 404.469 15.2368   4
   3 -11  -2 393.817 22.7195   6
   3 -11  -2 433.719 31.7883   1
  -3  11   1 72.5652 7.49816   4
   3 -11  -1 78.1474 19.7425   1
   3 -11  -1 81.3852 13.4861   6
  -3  11   1 79.3359 18.9634   5
   3 -11  -1 55.3049 10.6797   8
   3 -11   0-4.78917 11.6421   6
  -3  11   0 0.15960 16.3549   5
   3 -11   0-4.34786 15.8015   1
   3 -11   0-5.86560 8.63982   8
   3 -11   1 94.6148 13.3945   6
   3 -11   1 85.2838 8.87432   8
  -3  11  -1 118.453 17.5041   5
   3 -11   1 111.444 19.4050   1
   3 -11   2 3.97358 4.87958   8
   3 -11   2 2.47176 5.15706   8
   3 -11   3-6.16836 13.5802   1
  -3  11  -3 15.4335 14.5665   5
  -3  11  -4 40.5918 15.6762   5
   3 -11   4 50.0610 13.8223   1
  -3  11  -5 75.2314 16.8471   5
   3 -11   5 136.136 14.8501   1
   3 -11   6 30.2977 10.0608   1
  -3  10  10 16.9626 17.6087   7
  -3  10   9 50.7752 16.6482   7
   3 -10  -9 37.4915 16.2916   8
  -3  10   9 56.2486 20.2868   3
  -3  10   8 29.6933 15.1027   7
  -3  10   8 12.1029 19.0976   3
   3 -10  -8 15.2245 15.2253   8
   3 -10  -8-1.46949 14.7237   6
   3 -10  -8 9.22966 39.2561   1
   3 -10  -8 14.4189 27.0722   2
   3 -10  -7-33.9546 38.2711   1
  -3  10   7 16.2147 13.3010   7
   3 -10  -7-4.99380 14.8593   6
   3 -10  -7 16.1305 25.2987   2
   3 -10  -7 8.92997 13.2955   8
  -3  10   7 4.25990 17.7360   3
   3 -10  -6 14.3055 12.5459   8
  -3  10   6 22.9874 11.8566   7
   3 -10  -6 8.72897 14.3774   6
  -3  10   6 0.37254 16.7168   3
   3 -10  -6-29.8565 37.3767   1
   3 -10  -5 15.6240 11.7416   8
  -3  10   5 24.7483 10.6006   7
   3 -10  -5 14.5595 13.2211   6
  -3  10   4 574.078 33.6918   5
   3 -10  -4 600.156 28.1667   6
   3 -10  -4 576.639 26.2189   8
   3 -10  -3 0.63899 9.50198   8
   3 -10  -3 0.99248 11.3534   6
  -3  10   3-8.10610 19.7090   5
   3 -10  -2 145.417 21.4458   1
  -3  10   2 133.426 19.3050   5
  -3  10   2 96.9868 12.0204   4
   3 -10  -2 114.889 11.8036   8
   3 -10  -2 134.236 14.7048   6
   3 -10  -1 87.8620 18.5939   1
  -3  10   1 82.9692 9.80748   4
   3 -10  -1 78.6294 12.4013   6
   3 -10  -1 73.0438 9.78888   8
  -3  10   1 72.5068 17.2356   5
   3 -10   0-2.17642 9.35563   6
   3 -10   0-24.8004 15.8435   1
  -3  10   0 4.95537 6.81790   4
  -3  10   0 9.67632 14.9115   5
   3 -10   0-13.7376 8.17236   8
   3 -10   1-12.7983 15.1583   1
   3 -10   1-12.2885 9.66148   6
  -3  10  -1-20.9416 14.8625   5
   3 -10   1-6.11792 7.03027   8
   3 -10   2 35.4004 5.46451   8
   3 -10   2 34.4019 10.4080   6
   3 -10   2 14.6206 5.28813   8
  -3  10  -2 53.3227 7.59042   3
   3 -10   2 45.4327 15.9578   1
  -3  10  -3 844.735 24.5151   3
   3 -10   3 970.641 38.2389   1
  -3  10  -3 860.933 31.6155   5
   3 -10   4-1.28948 11.9387   1
  -3  10  -4-13.6319 9.41919   3
  -3  10  -5 177.392 12.8031   3
  -3  10  -5 153.923 16.4457   5
   3 -10   6 10.3000 9.18931   1
   3 -10   7 27.6845 10.4746   1
   3 -10   7 24.7945 7.61978   1
   3 -10   9-3.04637 17.8538   5
  -3   9  11 122.889 21.1907   7
  -3   9  11 140.826 25.2550   3
   3  -9 -10 20.8988 39.4833   1
   3  -9 -10 11.4467 16.0215   8
  -3   9  10-24.8527 22.5119   3
  -3   9  10 24.4057 18.4256   7
   3  -9  -9 108.130 19.3649   8
  -3   9   9 121.650 18.0233   7
  -3   9   9 112.271 22.3612   3
   3  -9  -9 124.006 18.1156   6
   3  -9  -9 168.674 40.6445   1
   3  -9  -9 138.011 28.2232   2
  -3   9   8 36.4515 15.0683   7
  -3   9   8 33.1881 19.3424   3
   3  -9  -8 31.4025 15.2109   6
   3  -9  -8 21.3618 25.0959   2
   3  -9  -8 38.6938 15.7088   8
   3  -9  -8 9.86798 37.9122   1
   3  -9  -7 481.821 32.4375   2
  -3   9   7 425.518 25.8080   3
  -3   9   7 404.003 21.2073   7
   3  -9  -7 455.692 26.5722   6
   3  -9  -7 457.504 26.0796   8
  -3   9   6 8.97179 12.3467   7
   3  -9  -6 20.4364 12.4924   8
   3  -9  -6 7.01329 12.2651   6
  -3   9   5 4.40621 10.4879   7
   3  -9  -5 7.68048 12.2156   6
   3  -9  -5 0.77216 11.3794   8
  -3   9   4 102.450 10.7703   7
   3  -9  -4 125.713 14.5518   6
   3  -9  -4 105.479 13.0259   8
  -3   9   3 37.4014 7.96623   7
   3  -9  -3 43.2608 12.1212   6
  -3   9   3 28.9615 19.2677   5
   3  -9  -3 36.7418 9.68584   8
  -3   9   2 28.8965 16.2214   5
  -3   9   2 7.35620 11.4263   4
   3  -9  -2 39.0800 9.09635   8
   3  -9  -2 44.6433 10.4528   6
   3  -9  -1 1.22593 7.87822   8
   3  -9  -1 10.9520 9.08065   6
  -3   9   1 19.8144 14.7139   5
  -3   9   1 22.2498 9.16279   4
   3  -9   0 123.263 9.41633   8
   3  -9   0 146.222 12.4862   6
  -3   9   0 140.387 10.0526   4
  -3   9   0 143.319 16.4496   5
   3  -9   1 171.183 9.28273   8
   3  -9   1 219.407 13.4929   6
  -3   9  -1 227.232 10.5612   4
  -3   9  -1 203.308 16.6027   5
   3  -9   2 4.75511 3.74601   8
  -3   9  -2 12.1258 12.2264   5
   3  -9   2 7.96978 3.35864   8
  -3   9  -3 891.353 32.0548   5
  -3   9  -3 955.120 26.7697   3
  -3   9  -4 37.5067 9.68925   3
  -3   9  -4 17.8922 12.3537   5
   3  -9   4 1.38610 12.8547   1
  -3   9  -5 73.8788 11.1881   3
  -3   9  -5 46.3129 13.3827   5
   3  -9   5 75.2642 12.2386   1
  -3   9  -6-0.99669 11.5815   3
   3  -9   6 1.25784 14.7374   5
   3  -9   6 13.8929 8.63792   1
   3  -9   7 180.184 19.5940   5
   3  -9   7 126.539 13.1517   4
   3  -9   7 179.530 11.6138   1
   3  -9   7 165.051 12.3769   1
   3  -9   7 131.646 10.3691   2
   3  -9   8 62.7345 8.94589   1
   3  -9   8 61.3739 7.34606   1
   3  -9   8 40.8630 7.98702   2
   3  -9   8 75.2855 16.3529   5
   3  -9   8 59.3030 10.9129   4
   3  -9   9 2.92184 9.44788   4
   3  -9   9-6.54480 14.4855   5
   3  -9  10 58.4144 16.8223   5
   3  -9  10 51.8531 11.3450   4
   3  -8 -12 163.542 37.6072   1
  -3   8  12 99.1185 25.5335   3
   3  -8 -11 25.7994 26.2137   2
  -3   8  11 11.4735 19.4236   7
  -3   8  11 25.0993 22.4658   3
   3  -8 -11 20.3949 15.6154   8
   3  -8 -11 75.6199 37.1499   1
  -3   8  11 57.4916 20.1764   8
  -3   8  10-6.59405 21.4154   3
   3  -8 -10 13.4925 14.9188   8
   3  -8 -10 4.14152 36.0836   1
  -3   8  10 0.16714 17.1310   7
   3  -8 -10 5.74263 25.3139   2
  -3   8  10 26.5150 18.2229   8
   3  -8  -9 314.031 23.3550   6
  -3   8   9 344.344 22.4175   8
   3  -8  -9 332.062 29.9287   2
  -3   8   9 365.110 26.5595   3
  -3   8   9 291.478 21.6822   7
   3  -8  -9 321.067 24.0766   8
  -3   8   8 33.1091 15.9043   8
  -3   8   8 20.4679 15.2950   7
   3  -8  -8-8.51680 35.4473   1
  -3   8   8 12.0696 18.8513   3
   3  -8  -8 25.6633 13.4782   6
   3  -8  -8 40.4983 22.1072   2
   3  -8  -8 19.6465 13.3689   8
  -3   8   7 55.1274 15.0755   8
   3  -8  -7 38.6730 13.2412   8
   3  -8  -7 0.35892 33.5454   1
  -3   8   7 37.3274 14.0241   7
   3  -8  -7 21.2644 19.6969   2
   3  -8  -7 44.6117 13.6962   6
  -3   8   6 55.7152 13.7601   8
  -3   8   6 35.7504 12.3651   7
   3  -8  -6 41.7211 12.3294   6
   3  -8  -6 53.7793 12.4386   8
  -3   8   5 151.124 13.2269   7
   3  -8  -5 188.005 15.9236   6
   3  -8  -5 185.352 15.3035   8
  -3   8   4-6.75310 9.25817   7
   3  -8  -4 7.05578 9.66429   6
   3  -8  -4-5.11086 9.18182   8
  -3   8   3 217.959 11.5840   7
   3  -8  -3 233.436 14.6506   8
  -3   8   3 252.963 22.6372   5
   3  -8  -3 247.085 15.9514   6
   3  -8  -2 1753.46 49.5589   6
  -3   8   2 1820.92 53.1308   5
   3  -8  -2 1676.19 46.9081   8
  -3   8   1 4.14329 9.91044   4
   3  -8  -1 17.5303 8.38803   6
  -3   8   1 35.8102 13.7628   5
   3  -8  -1 11.6256 7.06677   8
  -3   8   0 22.5830 12.8154   5
  -3   8   0 21.6277 9.08444   4
   3  -8   0 27.0646 8.47182   6
   3  -8   0 15.9604 6.03583   8
  -3   8  -1 0.42962 7.67015   4
   3  -8   1-0.61945 8.12051   6
  -3   8  -1 0.62153 11.7171   5
   3  -8   1 3.45404 4.66063   8
  -3   8  -2 1081.09 34.8685   5
  -3   8  -3-6.51126 11.3049   5
  -3   8  -4 15.9060 8.72182   3
  -3   8  -4 9.30851 11.4494   5
   3  -8   5 268.799 19.8777   5
  -3   8  -5 272.354 14.7164   3
   3  -8   6-4.25992 8.41652   4
   3  -8   6-4.32954 12.1004   5
   3  -8   6-4.95368 8.36175   1
  -3   8  -6 8.11839 11.6048   3
   3  -8   6 3.68392 8.26231   1
   3  -8   7 5.11976 6.34535   2
   3  -8   7-2.88195 7.20123   1
   3  -8   7-2.49030 12.2681   5
   3  -8   7 2.07680 7.78229   4
  -3   8  -7-1.76865 12.7045   3
   3  -8   7 4.59783 6.73301   1
   3  -8   8 29.9584 6.80937   1
   3  -8   8 11.6719 4.71162   2
   3  -8   8 25.5446 13.0867   5
   3  -8   8 29.8736 5.88468   1
  -3   8  -8 14.9841 14.6250   3
   3  -8   9 127.575 16.1490   5
   3  -8   9 111.219 11.5411   4
   3  -8  10 44.2153 14.5435   5
   3  -8  10 67.2886 10.2309   4
   3  -8  11 84.9499 16.8207   5
   3  -8  11 88.9998 11.6363   4
   3  -8  12 132.005 18.5026   5
   3  -8  12 133.174 13.8878   4
   3  -7 -13 115.865 33.5073   1
  -3   7  12 14.9776 21.6534   7
   3  -7 -12 11.5639 15.0878   8
  -3   7  12 32.7531 24.7572   3
   3  -7 -12 73.5795 34.2278   1
  -3   7  12 45.2826 20.5066   8
   3  -7 -12 9.39980 26.9938   2
  -3   7  11 122.507 20.6166   8
   3  -7 -11 119.717 34.5185   1
  -3   7  11 94.3378 21.2243   7
  -3   7  11 98.5348 25.3724   3
   3  -7 -11 109.232 25.9090   2
   3  -7 -11 110.761 18.4735   8
  -3   7  10 151.061 20.8769   7
  -3   7  10 187.194 24.4102   3
   3  -7 -10 200.569 25.2983   2
   3  -7 -10 226.133 37.7084   1
   3  -7 -10 165.369 19.3054   8
  -3   7  10 195.235 19.7910   8
   3  -7  -9 95.7923 16.1062   8
  -3   7   9 83.0150 18.0630   7
  -3   7   9 117.356 17.0086   8
  -3   7   9 72.0719 21.0591   3
   3  -7  -9 106.984 33.9896   1
   3  -7  -9 99.9075 22.6746   2
   3  -7  -8 63.6385 14.5431   6
   3  -7  -8 73.0673 19.9529   2
  -3   7   8 92.3629 15.5082   8
   3  -7  -8 59.9266 13.6624   8
   3  -7  -8 27.4201 31.4863   1
  -3   7   7 97.1064 14.5313   8
   3  -7  -7 73.8075 14.5162   8
   3  -7  -7 96.6939 14.2295   6
   3  -7  -7 73.4049 19.8664   2
   3  -7  -6 1.98409 16.5070   2
  -3   7   6 7.12240 11.7401   8
   3  -7  -6-4.71701 10.8513   6
   3  -7  -6-2.04036 10.6093   8
   3  -7  -5 826.477 30.8560   6
  -3   7   5 803.452 26.6729   8
   3  -7  -5 782.778 29.8237   8
   3  -7  -4 592.341 24.5320   6
   3  -7  -4 597.864 23.5261   8
  -3   7   4 578.029 20.7308   8
   3  -7  -3 370.674 17.8085   6
   3  -7  -3 347.733 16.4458   8
  -3   7   2 199.238 18.5356   5
   3  -7  -2 163.157 10.8707   8
  -3   7   2 166.948 9.40714   7
   3  -7  -2 176.993 12.3840   6
  -3   7   1 430.500 13.2390   7
   3  -7  -1 482.242 18.9318   6
  -3   7   1 470.678 21.9079   5
   3  -7  -1 452.375 16.2845   8
  -3   7   1 449.612 18.4137   4
   3  -7   0 1113.71 33.9345   6
  -3   7   0 1076.63 35.8547   5
   3  -7   0 1033.18 30.1731   8
  -3   7  -1 20.3654 7.57464   4
   3  -7   1 13.6539 6.43155   6
  -3   7  -1 0.56763 10.2390   5
   3  -7   1 10.0123 3.59591   8
  -3   7  -2 133.964 9.33219   4
  -3   7  -2 78.2273 12.0322   5
   3  -7   3 0.37151 10.1147   5
  -3   7  -3 3.04150 10.2736   5
  -3   7  -4 769.595 23.9579   3
   3  -7   4 859.250 30.9179   5
  -3   7  -4 808.656 27.0745   5
  -3   7  -5 876.729 27.7404   3
   3  -7   5 953.724 33.1215   5
   3  -7   5 828.086 28.1364   4
   3  -7   6 54.6487 8.50459   1
   3  -7   6 53.4163 8.25459   4
  -3   7  -6 35.1927 12.0237   3
   3  -7   6 33.3950 6.52868   2
   3  -7   6 33.3044 11.6186   5
   3  -7   7 353.104 19.4827   5
   3  -7   7 339.435 12.9878   1
   3  -7   7 335.729 14.9196   4
  -3   7  -7 329.837 18.5440   3
   3  -7   8 21.2815 5.05627   1
  -3   7  -8 19.4802 14.5633   3
   3  -7   8 22.3854 7.89114   4
   3  -7   8 29.4616 11.3807   5
   3  -7   8 33.6666 4.58061   8
   3  -7   8 19.4852 5.44220   1
   3  -7   9 226.675 17.6672   5
   3  -7   9 224.358 14.1560   4
   3  -7   9 253.565 10.1076   8
   3  -7  10 14.0199 6.02367   8
   3  -7  10 17.6674 11.8257   5
   3  -7  10 16.0738 9.04692   4
   3  -7  11 46.5562 13.2536   5
   3  -7  11 32.4463 10.3938   4
   3  -7  12 31.4613 13.3472   5
   3  -7  12 27.5622 10.6767   4
   3  -6 -14 15.9620 28.7157   2
  -3   6  13 3.56596 23.0464   7
   3  -6 -13 90.4088 29.7432   1
  -3   6  13 34.8119 25.5267   3
   3  -6 -13 5.62431 25.8460   2
   3  -6 -12 99.2868 17.9018   8
  -3   6  12 104.007 25.6699   3
  -3   6  12 81.2688 23.4244   7
  -3   6  12 125.303 22.2653   8
   3  -6 -12 163.205 33.1803   1
   3  -6 -12 77.9487 25.0467   2
   3  -6 -11 53.5993 15.7017   8
   3  -6 -11 80.7709 31.1353   1
  -3   6  11 44.6132 22.5516   3
   3  -6 -11 65.2163 21.7534   2
  -3   6  11 70.0995 19.5767   8
   3  -6 -10 135.549 33.4782   1
   3  -6 -10 122.192 16.6457   8
  -3   6  10 126.059 18.7378   8
   3  -6 -10 138.084 21.5136   2
  -3   6  10 107.931 22.1050   3
  -3   6   9 22.9983 15.7356   8
   3  -6  -9 25.3247 18.6794   2
   3  -6  -9 20.5302 12.3832   8
   3  -6  -8 91.0273 15.0297   8
   3  -6  -8 102.878 19.2846   2
  -3   6   8 108.149 16.1114   8
  -3   6   7 521.081 22.4477   8
   3  -6  -7 556.410 27.3122   2
   3  -6  -7 536.861 25.0902   8
   3  -6  -6 31.9980 9.64341   8
   3  -6  -6 32.2300 15.8478   2
  -3   6   6 35.2808 11.3495   8
   3  -6  -6 34.0614 10.3100   6
   3  -6  -5 260.592 15.7764   6
   3  -6  -5 251.286 15.0855   8
  -3   6   5 235.995 13.8560   8
   3  -6  -4 145.776 12.1470   6
  -3   6   4 146.920 10.8995   8
   3  -6  -4 143.445 11.4106   8
   3  -6  -3 3898.22 99.9468   8
   3  -6  -3 4011.16 101.830   6
  -3   6   3 3864.57 96.4505   8
   3  -6  -2 99.8658 9.47823   6
  -3   6   2 104.514 7.96381   8
   3  -6  -2 102.653 8.15052   8
  -3   6   2 109.764 15.5810   5
   3  -6  -1 15.3486 6.70587   6
  -3   6   1 6.92780 8.79732   4
   3  -6  -1 24.9240 4.82209   8
  -3   6   1 7.49956 10.7238   5
   3  -6   0 198.407 10.6543   6
  -3   6   0 189.783 13.8765   5
  -3   6   0 238.794 11.8213   4
   3  -6   0 177.571 7.80385   8
  -3   6  -1 151.569 12.1328   5
  -3   6  -1 183.010 10.2989   4
  -3   6  -2 842.140 28.7196   5
  -3   6  -2 907.661 26.3099   4
   3  -6   2 943.494 31.9469   5
   3  -6   3 26.1676 8.53098   5
  -3   6  -3 30.4952 9.95078   5
   3  -6   3 20.9341 6.21166   4
  -3   6  -4 1053.83 31.8241   5
   3  -6   4 981.698 30.3485   4
  -3   6  -4 966.926 29.6784   3
   3  -6   4 1070.15 34.2928   5
   3  -6   5-4.60176 5.32401   2
   3  -6   5-2.88141 8.37334   5
   3  -6   5-1.25304 5.84870   4
  -3   6  -5 1.17403 9.00115   3
   3  -6   5-6.93500 7.27780   1
   3  -6   6 77.4365 7.73158   1
  -3   6  -6 73.0655 12.1077   3
   3  -6   6 52.7052 5.50416   2
   3  -6   6 73.9081 10.7028   5
   3  -6   6 89.1500 8.02692   4
   3  -6   6 86.8465 4.41108   8
   3  -6   7 772.727 22.8261   1
  -3   6  -7 767.444 28.7572   3
   3  -6   7 818.891 21.7147   8
   3  -6   7 740.353 28.6080   5
   3  -6   7 764.523 26.2459   4
   3  -6   8 57.4279 6.19707   8
   3  -6   8 44.1397 8.83543   4
   3  -6   8 41.7220 5.20993   1
   3  -6   8 66.3968 11.2570   5
  -3   6  -8 35.3002 14.9394   3
   3  -6   8 27.7449 5.15784   1
   3  -6   9 75.8367 7.13538   8
  -3   6  -9 59.5161 16.0819   3
   3  -6   9 63.6387 10.8996   5
   3  -6   9 66.6704 9.42892   4
   3  -6  10 16.0896 10.2036   5
   3  -6  10 14.3404 6.60684   8
   3  -6  10 17.0794 8.69496   4
   3  -6  11 256.563 15.8973   4
   3  -6  11 225.532 17.7396   5
   3  -6  11 263.850 12.7178   8
   3  -6  12 2.22281 9.60905   4
   3  -6  12-0.86022 11.4574   5
   3  -6  13 22.9989 13.1827   5
   3  -6  13 22.0887 10.9994   4
   3  -5 -14 71.8593 25.7584   1
   3  -5 -14 21.6380 26.4527   2
   3  -5 -13 40.3880 27.4188   1
   3  -5 -13 15.7150 23.9468   2
  -3   5  13 12.1620 20.8928   8
  -3   5  13 12.7761 24.5859   3
   3  -5 -13 15.0960 13.3606   8
  -3   5  12 274.600 28.6746   3
   3  -5 -12 248.241 21.4184   8
   3  -5 -12 251.588 25.5500   2
  -3   5  12 268.865 24.3856   8
   3  -5 -12 342.297 32.8472   1
   3  -5 -11-0.52774 11.9753   8
  -3   5  11-21.4967 22.2099   3
   3  -5 -11-49.4194 29.6810   1
   3  -5 -11-6.77158 18.4830   2
  -3   5  11-11.1009 18.6928   8
  -3   5  10 191.236 20.2136   8
   3  -5 -10 212.138 31.5501   1
  -3   5  10 206.009 22.8277   3
   3  -5 -10 193.697 20.8877   2
   3  -5 -10 185.568 17.8005   8
  -3   5   9-19.9783 15.6429   8
   3  -5  -9-0.33438 15.9981   2
   3  -5  -9-6.19684 11.2473   8
   3  -5  -8 398.657 23.8416   2
  -3   5   8 369.738 20.2732   8
   3  -5  -8 339.691 20.3266   8
   3  -5  -7 239.104 19.5501   2
  -3   5   7 193.797 15.7710   8
   3  -5  -7 192.993 15.1316   8
  -3   5   6 350.450 17.4187   8
   3  -5  -6 394.112 21.7373   2
   3  -5  -6 361.622 18.3467   8
   3  -5  -5 2501.39 68.7348   8
  -3   5   5 2425.32 65.0517   8
   3  -5  -5 2608.80 69.6115   6
  -3   5   4 1199.80 35.3005   8
   3  -5  -4 1326.59 39.2692   6
   3  -5  -4 1293.31 38.3028   8
   3  -5  -3 86.2815 8.76744   2
   3  -5  -3 98.5747 8.94065   6
   3  -5  -3 103.114 8.29918   8
  -3   5   3 96.7792 8.26329   8
   3  -5  -2 891.540 29.0552   2
   3  -5  -2 943.194 29.3400   6
  -3   5   2 998.558 33.3198   5
  -3   5   2 930.042 25.5590   8
   3  -5  -2 936.025 27.4587   8
  -3   5   1 6.72379 9.54430   5
  -3   5   1 23.6794 4.79127   8
  -3   5   1 7.31837 8.22063   4
   3  -5  -1 18.8979 4.53628   8
  -3   5   0 293.061 15.0518   5
   3  -5   0 240.945 8.55629   8
  -3   5   0 308.568 12.9757   4
   3  -5   1-6.17683 7.27584   5
  -3   5  -1 1.59504 6.52689   4
  -3   5  -1 12.5867 7.82594   5
   3  -5   2 3778.72 98.7646   4
  -3   5  -2 3837.96 97.3181   4
   3  -5   2 4125.04 101.680   5
  -3   5  -2 4044.76 99.1417   5
   3  -5   3 15.0853 4.74027   2
   3  -5   3 21.1345 7.14167   5
  -3   5  -3 24.4409 9.10635   5
   3  -5   3 15.0694 5.66473   4
   3  -5   4 1041.57 29.0334   2
   3  -5   4 1107.36 33.9522   5
   3  -5   4 1041.78 30.8382   4
  -3   5  -4 1107.66 32.6307   5
   3  -5   4 1076.05 31.1968   1
  -3   5  -5 23.2427 9.73078   3
   3  -5   5 26.7870 5.84836   1
   3  -5   5 26.1024 7.59822   5
   3  -5   5 24.5818 4.29943   2
   3  -5   5 28.4401 6.15392   4
   3  -5   6 87.0734 9.70511   5
  -3   5  -6 76.7669 12.0739   3
   3  -5   6 110.145 5.82675   8
   3  -5   6 97.3632 7.33695   1
   3  -5   6 90.0381 8.14107   4
  -3   5  -7 474.806 21.8184   3
   3  -5   7 463.622 20.3874   5
  -3   5  -7 426.969 17.7559   8
   3  -5   7 502.646 15.4657   8
   3  -5   7 478.671 15.1328   1
   3  -5   7 481.188 18.4168   4
  -3   5  -8 311.069 16.6372   8
   3  -5   8 383.234 16.0791   4
   3  -5   8 361.131 17.8718   5
  -3   5  -8 386.708 21.3824   3
   3  -5   8 367.455 13.4024   8
   3  -5   8 298.938 10.0060   1
  -3   5  -9 1012.96 34.9317   8
  -3   5  -9 1108.44 39.2054   3
   3  -5   9 1071.48 36.8623   5
   3  -5   9 1091.53 34.9712   4
   3  -5  10 40.9232 8.58159   4
  -3   5 -10 27.6632 15.5973   8
   3  -5  10 46.9309 7.51787   8
   3  -5  10 30.9111 9.73850   5
   3  -5  11 13.0536 8.54670   4
  -3   5 -11 13.3611 16.8829   8
   3  -5  11 10.0587 10.0303   5
   3  -5  11 24.0459 7.43935   8
   3  -5  12 9.60047 10.2388   4
   3  -5  12 13.7113 8.52757   8
   3  -5  12 4.24243 11.3441   5
  -3   5 -12 19.8593 18.9935   8
   3  -5  13 119.973 14.2779   4
   3  -5  13 120.284 15.4474   5
   3  -4 -15 39.2949 25.8101   2
   3  -4 -14 7.59825 23.5539   2
  -3   4  14 12.5715 24.5789   3
   3  -4 -14 54.7819 22.4709   1
  -3   4  13-12.2641 21.1586   8
  -3   4  13-7.49005 24.4565   3
   3  -4 -13 18.3070 21.8689   2
   3  -4 -13 24.9281 24.1061   1
   3  -4 -12 54.5330 26.0900   1
   3  -4 -12 53.8506 14.3011   8
  -3   4  12 22.1550 23.5318   3
  -3   4  12 65.7099 21.2849   8
   3  -4 -12 67.8585 20.3381   2
   3  -4 -11 98.2899 14.9556   8
  -3   4  11 74.3504 20.0422   8
   3  -4 -11 79.6961 27.4396   1
  -3   4  11 62.9049 21.8313   3
   3  -4 -11 96.7706 18.8131   2
  -3   4  10 54.5527 18.2930   8
   3  -4 -10 77.1625 13.3108   8
   3  -4 -10 76.9114 17.4329   2
   3  -4  -9 1.50349 14.8776   2
   3  -4  -9-5.98529 10.1580   8
  -3   4   9-11.6764 15.2362   8
  -3   4   8 977.194 33.2012   8
   3  -4  -8 884.559 33.8944   8
   3  -4  -8 939.039 33.8842   2
   3  -4  -7 306.935 18.5937   2
  -3   4   7 317.921 17.9333   8
   3  -4  -7 279.762 16.8405   8
   3  -4  -6 351.848 19.1030   2
   3  -4  -6 300.548 16.3715   8
  -3   4   6 326.562 16.7507   8
  -3   4   5 466.876 20.1839   6
  -3   4   5 458.057 18.6026   8
   3  -4  -5 466.817 19.1846   8
  -3   4   4 1538.05 42.7617   6
  -3   4   4 1512.28 41.2982   8
   3  -4  -4 1452.92 43.0470   8
   3  -4  -4 1502.45 43.6271   6
   3  -4  -3 2579.78 67.3724   8
  -3   4   3 2567.66 67.2540   6
  -3   4   3 2603.93 65.5734   8
  -3   4   2 818.308 24.4539   6
  -3   4   2 751.381 28.3703   5
   3  -4  -2 781.007 23.5214   8
  -3   4   2 818.741 22.3845   8
   3  -4  -2 760.308 24.8749   2
  -3   4   1 2043.68 50.6780   6
   3  -4  -1 1950.49 52.1975   2
  -3   4   1 2000.75 54.0196   5
  -3   4   1 1935.68 52.4445   4
   3  -4  -1 1883.42 49.4236   8
  -3   4   1 1960.46 48.1885   8
  -3   4   0 167.981 8.55276   6
   3  -4   0 163.387 8.71029   2
   3  -4   0 174.998 10.6856   5
  -3   4   0 158.609 10.0350   4
  -3   4   0 176.624 11.6105   5
  -3   4  -1 36.2910 5.37311   6
   3  -4   1 34.8731 4.94785   2
   3  -4   1 28.0281 6.33991   5
  -3   4  -1 42.3939 8.04863   5
  -3   4  -1 32.9692 6.43957   4
  -3   4  -2 1284.75 36.6006   5
  -3   4  -2 1278.37 32.7455   7
   3  -4   2 1351.29 34.9099   2
   3  -4   2 1305.74 37.7920   5
   3  -4   2 1306.81 36.0611   4
  -3   4  -2 1235.18 35.4308   4
   3  -4   3 3079.67 81.5768   4
   3  -4   3 3323.16 80.1128   2
  -3   4  -3 3202.24 82.4971   5
   3  -4   3 3287.66 82.0229   1
   3  -4   3 3316.17 84.0070   5
   3  -4   4 1134.09 29.8443   4
   3  -4   4 1070.14 29.0289   1
   3  -4   4 1023.83 26.2042   2
   3  -4   4 1087.13 31.3100   5
  -3   4  -5 23.0658 9.31140   3
   3  -4   5 19.4656 5.01877   1
   3  -4   5 27.6714 5.42704   4
  -3   4  -5 9.58052 7.36651   8
   3  -4   5 23.2964 6.49721   5
   3  -4   5 22.7972 3.52269   8
   3  -4   6 22.4510 5.66349   4
  -3   4  -6 13.4064 9.14549   8
  -3   4  -6 21.8813 11.5177   3
   3  -4   6 25.4326 4.92121   1
   3  -4   6 21.9899 6.83896   5
   3  -4   6 20.7377 4.34661   8
   3  -4   7 319.510 12.0869   8
  -3   4  -7 273.797 16.0623   8
   3  -4   7 288.845 15.1510   5
   3  -4   7 322.103 10.9328   1
  -3   4  -7 304.268 18.2620   3
   3  -4   7 318.075 14.2051   4
   3  -4   8 21.2893 6.39249   8
  -3   4  -8 17.6127 14.5346   3
   3  -4   8 19.0100 3.77171   1
   3  -4   8 15.7905 8.23762   5
   3  -4   8 22.8686 7.28294   4
  -3   4  -8 8.01030 13.0720   8
   3  -4   9 419.962 20.3636   5
   3  -4   9 483.498 17.5436   8
  -3   4  -9 485.302 25.3219   3
   3  -4   9 470.254 19.6649   4
  -3   4  -9 389.351 22.4696   8
   3  -4   9 497.400 18.6800   7
   3  -4  10 220.840 15.4451   5
   3  -4  10 258.344 12.9653   8
   3  -4  10 244.466 14.7274   4
   3  -4  10 269.354 14.1690   7
  -3   4 -10 202.057 20.4197   8
   3  -4  11 45.9312 9.69690   4
  -3   4 -11 27.9879 19.1663   8
   3  -4  11 37.0477 10.4523   5
   3  -4  11 47.2994 8.50816   8
  -3   4 -12 6.91649 21.4541   8
   3  -4  12 33.5511 10.4034   4
   3  -4  12 19.0865 11.1076   5
   3  -4  12 56.3748 9.70760   8
   3  -4  13 128.866 14.4501   4
   3  -4  13 110.973 15.5646   5
   3  -4  13 136.444 12.6108   8
  -3   3  14-6.39368 24.1772   3
   3  -3 -14 17.9140 21.4927   2
   3  -3 -14 56.5963 20.4173   1
  -3   3  13 348.079 30.0832   3
   3  -3 -13 306.258 26.1049   2
   3  -3 -12 29.2118 23.7396   1
  -3   3  12 55.8240 23.2795   3
   3  -3 -12 60.5942 20.1381   2
   3  -3 -11 95.8144 24.8173   1
  -3   3  11 124.606 22.6177   3
  -3   3  11 185.892 21.5943   8
   3  -3 -11 148.168 19.9531   2
   3  -3 -10 332.228 21.8636   2
  -3   3  10 377.736 23.5981   8
   3  -3  -9 966.190 36.2099   8
  -3   3   9 1053.36 34.0560   6
   3  -3  -9 1069.86 36.0008   2
   3  -3  -8 31.0645 9.07036   8
  -3   3   8 32.0228 7.44633   6
   3  -3  -8 29.5477 12.5013   2
  -3   3   8 43.7409 14.0406   8
   3  -3  -7 159.408 12.4974   8
  -3   3   7 178.768 15.4238   8
   3  -3  -7 191.637 15.1445   2
   3  -3  -6 1708.53 47.0619   2
  -3   3   6 1595.13 45.6799   8
   3  -3  -5 234.483 13.2505   8
   3  -3  -5 257.708 15.1451   2
  -3   3   5 225.829 13.7581   8
  -3   3   4 53.2128 9.61848   6
  -3   3   4 52.9416 8.72351   8
   3  -3  -4 48.5036 6.83452   8
  -3   3   3 3004.64 75.1141   8
  -3   3   3 3037.24 75.8458   6
   3  -3  -3 2872.77 75.8615   8
  -3   3   2 174.803 8.96597   8
  -3   3   2 182.226 10.2600   6
   3  -3  -2 187.376 9.55270   2
   3  -3  -2 182.169 8.54603   8
  -3   3   1 8.00526 7.05763   4
   3  -3  -1 18.0815 4.44581   2
   3  -3  -1 13.3054 3.30608   8
  -3   3   1 20.6494 6.38849   6
   3  -3   0 108.049 6.77884   2
  -3   3   0 104.464 7.30129   6
  -3   3   0 112.319 8.36166   4
   3  -3   1 6635.13 161.288   1
   3  -3   1 6418.12 159.799   2
  -3   3  -1 6853.16 161.069   5
  -3   3  -1 6638.76 160.554   4
   3  -3   1 6561.23 161.296   4
  -3   3  -2 47.1702 5.19702   7
   3  -3   2 41.9398 4.76838   4
   3  -3   2 43.1036 4.41830   2
  -3   3  -2 47.8903 7.88844   5
  -3   3  -2 45.6605 6.81371   4
   3  -3   2 45.7618 5.33163   1
   3  -3   2 43.4151 5.73072   5
  -3   3  -3 1692.24 42.6589   7
   3  -3   3 1715.61 45.2260   5
   3  -3   3 1712.95 43.9654   4
   3  -3   3 1700.30 43.6548   1
  -3   3  -3 1518.74 41.1919   8
   3  -3   4 2159.67 56.9284   5
   3  -3   4 2194.65 55.5653   4
   3  -3   4 2238.04 54.8427   1
  -3   3  -4 1967.51 53.7995   8
  -3   3  -4 2137.07 56.5640   3
  -3   3  -5 151.566 12.0427   3
   3  -3   5 171.522 8.16619   1
   3  -3   5 162.615 8.81923   4
   3  -3   5 149.968 9.68060   5
   3  -3   5 161.908 7.31213   8
  -3   3  -5 145.847 10.4562   8
   3  -3   6 0.45880 4.47532   4
   3  -3   6 1.83270 4.09268   1
   3  -3   6-0.11957 4.01089   8
   3  -3   6-0.45210 5.50856   5
  -3   3  -6 3.38087 11.3450   3
  -3   3  -6-2.54552 9.65277   8
   3  -3   7 72.7871 7.25254   7
   3  -3   7 65.9448 6.87488   8
  -3   3  -7 56.0435 12.5256   8
   3  -3   7 68.7680 8.56851   5
   3  -3   7 63.1692 7.46660   4
   3  -3   7 60.5971 6.00016   1
  -3   3  -7 57.9334 13.5283   3
   3  -3   8 842.858 25.6671   8
   3  -3   8 797.689 28.4707   5
   3  -3   8 789.068 23.1108   1
  -3   3  -8 917.257 33.0058   3
  -3   3  -8 747.036 29.4470   8
   3  -3   8 868.771 27.0500   7
   3  -3   8 846.525 27.8228   4
   3  -3   9 19.4033 8.37111   4
   3  -3   9 29.2688 7.43794   7
  -3   3  -9 22.2024 16.2858   3
   3  -3   9 27.7231 7.51402   8
   3  -3   9 24.4704 9.09155   5
  -3   3  -9 10.9177 14.9257   8
  -3   3 -10 88.0722 18.6554   8
   3  -3  10 135.055 11.0317   7
   3  -3  10 104.588 12.2429   5
   3  -3  10 131.132 10.3320   8
   3  -3  10 119.961 11.8529   4
  -3   3 -11 56.2863 19.7151   8
   3  -3  11 118.939 11.7820   7
   3  -3  11 76.1238 11.8341   5
   3  -3  11 85.8440 11.6516   4
   3  -3  11 104.078 10.6532   8
   3  -3  12 58.5982 10.2013   8
   3  -3  12 41.1010 11.3022   4
   3  -3  12 53.7405 10.8414   7
   3  -3  12 53.0608 11.9145   5
  -3   3 -12 36.9404 21.9026   8
   3  -3  13 36.3998 12.1721   4
  -3   3 -13 17.0624 23.9081   8
   3  -3  13 43.9272 10.9403   8
   3  -3  13 23.6694 12.2060   5
  -3   2  14 10.4045 12.7328   8
   3  -2 -14 21.9557 13.9935   1
   3  -2 -14-8.38618 25.6128   8
   3  -2 -13 42.4691 22.7349   8
   3  -2 -13 47.3983 19.2675   2
   3  -2 -13 72.3635 20.2608   1
   3  -2 -12 41.6269 21.1198   1
   3  -2 -12 68.9933 19.3724   2
   3  -2 -11 998.933 37.3545   2
  -3   2  10 224.678 14.2801   6
   3  -2 -10 226.541 19.7135   2
  -3   2   9 511.502 21.2069   6
   3  -2  -9 589.913 25.0439   2
  -3   2   8 271.493 18.9323   8
  -3   2   8 253.321 13.7993   6
   3  -2  -8 285.748 17.9621   2
   3  -2  -7 612.044 23.4433   2
  -3   2   7 507.895 19.9166   6
  -3   2   7 609.139 24.4439   8
   3  -2  -7 505.530 21.9351   8
  -3   2   6 5193.14 130.682   8
   3  -2  -6 5477.06 130.069   2
   3  -2  -5 180.765 12.8516   2
  -3   2   5 172.168 13.2127   8
  -3   2   5 135.171 8.52741   2
   3  -2  -5 157.955 10.3063   8
  -3   2   4 3280.65 79.4641   8
   3  -2  -4 2904.00 79.2835   8
  -3   2   3 413.060 15.6631   6
   3  -2  -3 379.260 14.4495   8
  -3   2   3 424.162 15.4282   8
   3  -2  -2 8225.06 200.866   8
  -3   2   2 8892.93 201.549   2
  -3   2   2 8539.05 200.659   8
  -3   2   1 7189.87 171.257   8
   3  -2  -1 6784.30 172.720   2
  -3   2   1 7237.26 172.312   2
  -3   2   1 7333.33 173.821   4
  -3   2   0 596.751 18.1474   4
  -3   2   0 583.418 17.2229   2
   3  -2   0 545.701 16.9970   2
   3  -2   0 548.708 17.5070   1
   3  -2   0 524.629 18.0143   4
  -3   2  -1 106.036 6.57744   2
   3  -2   1 100.029 6.41220   4
   3  -2   1 98.5128 6.48941   1
  -3   2  -1 116.868 7.59467   4
  -3   2  -2 15.0499 5.07285   7
  -3   2  -2 18.7313 6.85239   1
   3  -2   2 17.2591 4.51732   1
   3  -2   2 14.1107 3.91137   4
  -3   2  -2 21.3838 6.43072   4
  -3   2  -2 16.9257 4.37554   8
  -3   2  -3 1199.17 33.0309   7
   3  -2   3 1220.54 32.9586   1
  -3   2  -3 1205.74 33.3022   1
  -3   2  -3 1239.82 31.8178   8
   3  -2   3 1143.56 32.9573   4
  -3   2  -4 271.286 12.1045   8
   3  -2   4 280.459 11.0055   1
  -3   2  -4 275.744 12.2392   1
   3  -2   4 281.208 11.2921   4
  -3   2  -4 301.665 13.9482   3
  -3   2  -5 247.828 13.7070   8
  -3   2  -5 286.587 15.6440   3
   3  -2   5 261.671 12.6024   5
   3  -2   5 289.885 10.6814   1
  -3   2  -5 275.417 12.3755   1
   3  -2   5 268.520 11.8746   4
   3  -2   5 277.523 10.7038   8
  -3   2  -6 301.579 17.3269   3
   3  -2   6 285.503 12.4521   7
  -3   2  -6 242.987 10.9257   6
   3  -2   6 258.156 12.8720   5
   3  -2   6 271.512 11.5130   8
  -3   2  -6 283.628 13.1635   1
   3  -2   6 297.465 12.8681   4
  -3   2  -6 267.640 15.5648   8
   3  -2   6 303.201 11.1642   1
   3  -2   7 56.8160 7.22793   7
  -3   2  -7 47.0096 10.0588   1
   3  -2   7 63.3545 6.37705   1
  -3   2  -7 63.9885 14.5988   3
  -3   2  -7 46.8545 8.45738   6
   3  -2   7 53.7115 7.90288   5
   3  -2   7 59.7841 6.83302   8
   3  -2   7 51.0776 7.39764   4
  -3   2  -7 61.2689 12.8134   8
  -3   2  -8 1026.35 34.7384   3
   3  -2   8 946.725 29.5706   4
  -3   2  -8 733.806 25.7271   6
   3  -2   8 844.849 29.5118   5
  -3   2  -8 834.413 31.5673   8
  -3   2  -8 886.481 26.4072   1
   3  -2   8 900.828 27.5251   8
   3  -2   8 889.446 26.2341   1
   3  -2   8 915.306 28.7110   7
  -3   2  -9 1.02743 15.5623   8
  -3   2  -9-3.44525 10.8020   6
   3  -2   9 6.91890 8.34813   4
   3  -2   9 14.7057 7.54970   7
  -3   2  -9-4.68734 16.8755   3
   3  -2   9 12.2701 7.19758   8
   3  -2   9 3.63302 8.86472   5
   3  -2  10 163.921 11.8167   8
   3  -2  10 154.741 11.7950   7
  -3   2 -10 126.051 20.0366   8
   3  -2  10 119.380 12.8335   5
   3  -2  10 144.201 12.9319   4
   3  -2  11-5.08691 9.28058   4
  -3   2 -11 12.8253 19.1274   8
   3  -2  11 16.4324 8.30939   7
   3  -2  11-5.03942 9.72373   5
   3  -2  11 13.1729 8.55261   8
  -3   2 -12 64.0126 22.1557   8
   3  -2  12 73.7229 11.2150   8
   3  -2  12 52.3183 12.0122   5
   3  -2  12 69.1124 12.4798   4
   3  -2  12 83.8815 11.8936   7
   3  -2  13 133.042 13.9577   8
   3  -2  13 140.154 14.0641   7
   3  -2  13 111.865 14.6598   5
  -3   2 -13 128.538 26.2409   8
  -3   2 -14-13.6871 25.8207   8
  -3   1  15-0.94361 12.2996   3
  -3   1  15 5.10791 12.9435   8
   3  -1 -15-20.1814 25.4122   8
   3  -1 -14 110.567 26.1654   8
  -3   1  14 136.491 16.3212   3
   3  -1 -14 107.997 14.6092   1
  -3   1  14 146.703 16.5177   8
  -3   1  13 194.877 17.3488   3
   3  -1 -13 150.679 24.2027   8
  -3   1  13 186.416 17.2385   8
   3  -1 -13 154.145 14.9911   1
   3  -1 -12 62.4080 21.8771   8
  -3   1  12 103.111 14.4221   8
   3  -1 -12 51.4162 18.4014   1
   3  -1 -12 77.0643 13.2839   1
  -3   1  11 2775.70 72.3149   6
   3  -1 -11 2879.22 78.0725   8
  -3   1  10-11.5340 8.69241   6
   3  -1 -10-1.42355 13.8617   2
  -3   1   9-1.12430 7.06097   6
   3  -1  -9 3.46981 12.9243   2
  -3   1   8 0.93535 6.11488   6
  -3   1   8 3.06322 5.47073   2
   3  -1  -8 2.20107 11.4221   2
  -3   1   7 226.180 12.0345   6
  -3   1   7 210.906 11.1525   2
   3  -1  -7 236.194 15.2236   2
  -3   1   6 705.254 23.6357   6
  -3   1   6 669.007 22.8717   2
   3  -1  -6 746.358 25.3468   2
  -3   1   6 744.964 26.5339   8
  -3   1   5 52.5413 10.3622   8
   3  -1  -5 47.8030 7.02324   8
  -3   1   5 40.6233 5.90538   2
   3  -1  -5 50.3510 9.92812   2
  -3   1   4 18090.3 420.325   8
   3  -1  -4 17849.6 418.642   1
  -3   1   3 1726.79 45.1430   8
   3  -1  -3 1767.65 44.5793   1
  -3   1   2 109.432 6.61388   5
  -3   1   2 122.515 8.64537   2
  -3   1   2 121.061 8.04343   8
   3  -1  -1 162.790 8.50629   5
  -3   1   1 168.346 8.92652   2
  -3   1   1 132.196 6.68924   5
  -3   1   0 34.8514 6.46902   1
   3  -1   0 26.9594 4.26998   1
   3  -1   0 33.9277 5.94919   5
  -3   1   0 29.3493 5.93678   2
  -3   1  -1 527.596 16.5736   2
   3  -1   1 566.560 17.6202   1
  -3   1  -1 644.979 18.7277   1
   3  -1   2 473.642 15.7913   1
  -3   1  -2 451.540 15.9812   7
  -3   1  -2 508.314 16.7040   1
  -3   1  -2 527.597 15.2682   8
  -3   1  -3 5381.51 135.289   7
   3  -1   3 5515.14 134.743   1
  -3   1  -3 5642.84 133.866   8
  -3   1  -3 5484.01 134.511   1
  -3   1  -4 44.5162 8.05079   7
  -3   1  -4 37.1656 8.20981   1
   3  -1   4 37.7571 5.20671   1
  -3   1  -4 35.5939 7.80322   8
  -3   1  -5 252.695 13.6158   8
   3  -1   5 249.360 10.7802   8
   3  -1   5 249.142 10.7368   1
  -3   1  -5 251.259 12.6633   1
   3  -1   6 169.777 9.08350   1
  -3   1  -6 178.497 14.9259   3
   3  -1   6 165.516 9.89040   7
  -3   1  -6 173.105 11.4792   1
  -3   1  -6 161.618 12.9861   8
   3  -1   6 157.678 9.17402   8
  -3   1  -7 1045.49 34.6992   3
  -3   1  -7 899.727 31.8738   8
  -3   1  -7 866.650 28.0103   6
   3  -1   7 994.712 28.6292   1
   3  -1   7 935.912 28.6650   8
   3  -1   7 937.919 29.5823   7
  -3   1  -7 942.070 28.4160   1
   3  -1   8 624.566 22.4062   7
  -3   1  -8 680.202 28.9607   3
  -3   1  -8 628.144 21.6379   1
   3  -1   8 642.200 21.8140   8
  -3   1  -8 602.109 26.6336   8
  -3   1  -8 508.173 21.0962   6
   3  -1   8 590.478 21.7406   1
  -3   1  -9 56.7432 18.2787   3
   3  -1   9 48.4896 9.86286   4
   3  -1   9 62.5782 9.22019   7
  -3   1  -9 62.6754 12.0680   1
  -3   1  -9 52.0208 12.1306   6
  -3   1  -9 47.7643 16.9186   8
   3  -1   9 61.6258 8.90297   8
  -3   1 -10 222.851 17.3997   6
   3  -1  10 284.799 15.6733   7
  -3   1 -10 254.475 15.6413   1
  -3   1 -10 255.346 22.7417   8
   3  -1  10 317.850 15.7964   8
   3  -1  10 257.334 16.1760   4
  -3   1 -11 29.1509 20.7899   8
   3  -1  11 39.4197 10.3019   8
  -3   1 -11 16.8446 15.1464   6
   3  -1  11 18.7508 9.96243   4
   3  -1  11 39.6880 9.33215   7
  -3   1 -11 32.7326 12.2716   1
  -3   1 -12 77.5811 23.8973   8
   3  -1  12 102.957 12.4197   7
   3  -1  12 92.3505 13.0541   4
   3  -1  12 89.7636 12.6856   8
   3  -1  13 13.7485 10.8244   7
  -3   1 -13 8.50372 25.0879   8
  -3   1 -14 12.8012 26.8494   8
   3   0 -15-9.98108 25.1178   8
  -3   0  15 1.58705 12.0008   3
  -3   0  15-2.45872 12.2162   8
  -3   0  14 0.42938 11.4048   3
   3   0 -14-4.55910 10.7444   1
   3   0 -14 7.79744 10.8630   1
  -3   0  14 18.8108 13.1180   8
   3   0 -14-2.66476 23.3345   8
   3   0 -13 157.058 24.1353   8
  -3   0  13 175.516 16.6211   3
   3   0 -13 233.575 14.9602   1
   3   0 -13 184.360 14.0380   1
  -3   0  13 184.403 17.8198   8
   3   0 -12-13.4258 14.6400   1
   3   0 -12-12.0379 20.0778   8
   3   0 -12 3.21334 11.0821   1
  -3   0  12-1.90606 10.9851   3
  -3   0  12-1.84591 11.3363   8
  -3   0  12 16.1501 9.63455   6
   3   0 -11 283.397 22.9642   8
  -3   0  11 263.878 17.5095   3
   3   0 -11 273.060 14.9373   1
  -3   0  11 293.536 16.1457   6
  -3   0  11 272.794 18.6046   8
   3   0 -10-9.64238 17.8028   8
  -3   0  10 1.17378 7.85368   6
  -3   0  10 16.3251 7.30208   2
   3   0 -10 6.06413 9.88070   1
  -3   0  10 6.83923 10.1116   8
   3   0  -9 2191.66 61.5999   8
  -3   0   9 2076.85 56.9435   6
  -3   0   9 2065.19 55.8801   2
   3   0  -9 1938.36 53.0305   1
  -3   0   8 424.996 17.4756   6
  -3   0   8 431.275 17.2347   2
   3   0  -8 404.615 15.9857   1
   3   0  -7 1308.32 35.5103   1
  -3   0   7 1262.25 37.6786   2
  -3   0   7 1301.32 38.1169   6
  -3   0   6 3784.49 97.3005   2
   3   0  -6 3862.51 94.7454   1
   3   0  -5 3992.11 96.3989   1
  -3   0   5 3773.04 98.7068   2
  -3   0   4 192.652 12.4301   8
   3   0  -4 208.246 10.1465   1
  -3   0   3 2113.64 52.4380   5
  -3   0   3 2023.74 53.0233   8
   3   0  -3 2018.33 51.8860   1
  -3   0   3 1933.30 51.8461   1
   3   0  -2 2995.63 75.8675   1
  -3   0   2 2923.16 74.9727   5
   3   0  -1 474.263 14.1087   5
  -3   0   1 420.210 13.2911   5
  -3   0   0 135.733 9.01373   1
   3   0   0 133.309 7.16342   5
  -3   0   0 109.371 5.77230   5
   3   0   0 141.531 8.40466   4
   3   0   1 942.128 27.4102   1
  -3   0  -1 1028.77 28.1107   1
   3   0   1 1010.22 27.4580   5
   3   0   1 957.956 27.3455   4
  -3   0  -2 1610.40 43.7463   1
  -3   0  -2 1692.11 44.3632   7
   3   0   2 1695.41 44.1651   5
   3   0   2 1644.74 43.7417   1
  -3   0  -2 1666.25 43.3883   8
  -3   0  -3 771.046 24.1634   1
  -3   0  -3 807.628 25.5543   7
   3   0   3 811.914 24.1434   1
  -3   0  -3 879.384 24.7144   8
  -3   0  -4 273.466 12.7270   1
  -3   0  -4 263.304 13.8938   7
  -3   0  -4 302.906 14.0634   8
   3   0   4 292.163 11.7933   1
   3   0   5 2021.94 53.5599   1
  -3   0  -5 1948.44 52.9789   1
  -3   0  -5 2123.66 55.2945   8
   3   0   6 34.2016 6.26764   7
  -3   0  -6 47.5671 12.3516   8
   3   0   6 42.5367 6.87182   1
  -3   0  -6 29.8599 9.71115   1
   3   0   7 30.2331 7.28606   7
  -3   0  -7 22.8103 13.5274   8
   3   0   7 29.1042 7.42870   8
  -3   0  -7 15.6767 10.8337   6
  -3   0  -7 21.3790 7.44774   2
  -3   0  -7 29.6139 11.1408   1
   3   0   7 32.4690 8.71864   1
  -3   0  -8 360.622 17.6009   1
   3   0   8 378.478 16.5237   8
   3   0   8 360.354 16.6152   7
   3   0   8 318.328 17.4927   1
  -3   0  -8 320.091 17.5537   6
  -3   0  -8 261.512 13.4821   2
  -3   0  -8 376.831 22.4276   8
  -3   0  -9 160.400 15.0811   1
  -3   0  -9 144.717 15.2960   6
   3   0   9 166.787 12.4774   7
  -3   0  -9 131.304 12.5247   2
   3   0   9 186.624 13.0597   8
  -3   0  -9 150.994 19.7769   8
   3   0  10 39.4723 9.01372   7
  -3   0 -10 35.1621 19.2705   8
  -3   0 -10 26.3266 14.9449   6
  -3   0 -10 24.8799 14.1923   1
   3   0  10 40.3330 9.52624   8
  -3   0 -11 72.4185 21.5439   8
   3   0  11 84.5814 11.0150   7
  -3   0 -11 60.5889 15.3753   1
  -3   0 -11 61.7935 17.3321   6
   3   0  11 90.9668 11.4860   8
  -3   0 -12 88.7276 25.8065   8
   3   0  12 87.6057 12.5774   7
  -3   0 -12 56.3585 18.8652   6
  -3   0 -13 9.60462 25.9839   8
   3   1 -15-6.23034 23.1975   8
  -3  -1  15-2.39218 11.4976   3
  -3  -1  15 12.2631 12.8808   8
   3   1 -14 69.4516 22.6863   8
  -3  -1  14 81.6667 13.7075   3
  -3  -1  14 90.0790 15.3645   8
  -3  -1  13 24.9132 12.3147   8
  -3  -1  13 26.9308 10.6534   6
   3   1 -13 24.4880 20.7163   8
  -3  -1  13 13.4650 11.9743   3
   3   1 -12 366.026 14.3718   1
  -3  -1  12 401.280 21.3634   3
  -3  -1  12 420.310 19.2851   6
   3   1 -12 426.614 16.6002   1
   3   1 -12 410.513 27.6380   8
  -3  -1  12 374.572 22.6363   8
  -3  -1  11 514.988 23.5519   3
   3   1 -11 516.511 17.9486   1
  -3  -1  11 545.475 21.6249   6
   3   1 -11 548.886 29.0322   8
  -3  -1  11 547.970 21.2456   2
  -3  -1  11 542.895 25.8942   8
   3   1 -10 619.216 28.6432   8
  -3  -1  10 568.329 22.4036   6
   3   1 -10 591.136 19.6338   1
  -3  -1  10 598.235 22.4020   2
  -3  -1  10 594.095 25.8937   8
   3   1  -9 438.201 23.1776   8
  -3  -1   9 412.030 18.2135   6
  -3  -1   9 409.958 17.9282   2
   3   1  -9 439.709 15.8312   1
  -3  -1   9 428.547 20.7630   8
  -3  -1   8 496.776 19.8968   6
  -3  -1   8 533.032 20.2670   2
   3   1  -8 535.703 17.6357   1
   3   1  -8 563.137 24.2245   8
  -3  -1   8 510.837 22.1850   8
   3   1  -7 4467.18 110.654   1
   3   1  -7 4554.28 115.655   8
  -3  -1   7 4623.19 115.551   2
   3   1  -6 251.761 11.0551   1
  -3  -1   6 231.876 12.6524   2
   3   1  -6 214.257 14.4526   8
   3   1  -5 1807.81 45.9723   1
  -3  -1   5 1839.75 46.6028   1
  -3  -1   4 19.7839 4.50689   1
   3   1  -4 22.4981 6.66446   1
  -3  -1   3 2149.00 54.0107   5
   3   1  -3 2195.21 55.3423   1
  -3  -1   3 2167.29 55.8745   1
  -3  -1   2 109.273 4.92616   5
   3   1  -2 131.912 8.36153   1
   3   1  -2 109.179 6.06392   5
   3   1  -1 1047.60 26.7632   5
  -3  -1   1 983.613 27.3532   4
  -3  -1   0 3.44474 2.49075   4
   3   1   0 3.88755 4.64591   5
   3   1   0 11.1472 5.59431   4
  -3  -1  -1 236.387 11.1736   1
   3   1   1 241.872 10.4263   4
  -3  -1  -1 227.251 8.91603   4
   3   1   1 216.761 9.66571   1
  -3  -1  -2 6423.71 161.674   8
   3   1   2 6935.89 161.026   4
   3   1   2 6478.64 161.829   1
  -3  -1  -2 6671.29 161.528   1
  -3  -1  -3 1373.92 40.0189   7
  -3  -1  -3 1415.30 38.8428   1
   3   1   3 1456.84 39.2873   1
   3   1   3 1516.72 38.9382   4
  -3  -1  -3 1499.87 39.8895   8
  -3  -1  -4 205.088 13.2644   7
  -3  -1  -4 189.825 11.8915   1
   3   1   4 200.010 10.6379   1
  -3  -1  -4 199.745 10.8774   3
  -3  -1  -4 232.142 13.0426   8
   3   1   4 219.620 12.4616   4
  -3  -1  -5 226.175 13.6624   1
  -3  -1  -5 264.591 16.0359   8
   3   1   5 247.261 12.6739   1
  -3  -1  -5 245.281 12.6992   3
   3   1   5 278.305 14.5932   4
  -3  -1  -6 1.68047 6.86667   3
   3   1   6-3.29021 5.86813   7
   3   1   6 9.69961 7.45387   1
   3   1   6-5.53941 10.5945   4
  -3  -1  -6-9.14004 12.8417   8
  -3  -1  -6-0.91945 10.0113   1
   3   1   7 1533.43 46.6593   1
  -3  -1  -7 1559.19 47.8033   8
   3   1   7 1506.16 44.7439   7
  -3  -1  -7 1456.27 45.9862   3
  -3  -1  -7 1583.74 44.0277   1
  -3  -1  -8 7.22389 15.9685   8
   3   1   8 2.37523 7.27141   7
  -3  -1  -8-1.31566 9.47324   3
  -3  -1  -8-12.8163 13.0937   6
  -3  -1  -8 4.18246 12.9429   1
  -3  -1  -9 549.108 29.2422   8
  -3  -1  -9 616.944 24.1170   1
  -3  -1  -9 439.587 20.3690   2
  -3  -1  -9 471.152 24.1289   6
   3   1   9 557.437 22.6485   7
   3   1  10-22.7301 17.2718   4
   3   1  10 0.50249 8.40029   7
  -3  -1 -10 1.96665 15.9071   6
  -3  -1 -10 13.7659 13.4402   2
  -3  -1 -10 3.20184 15.2624   1
  -3  -1 -10 5.84072 19.2502   8
   3   1  11 1.07088 18.2315   4
  -3  -1 -11-0.77120 16.9782   6
  -3  -1 -11-4.07796 16.6193   1
   3   1  11 8.56880 9.50607   7
  -3  -1 -11 5.61214 15.2892   2
  -3  -1 -11-2.15670 21.4186   8
   3   1  12 16.2283 20.1649   4
   3   1  12 16.5754 10.5300   7
  -3  -1 -12-6.61858 26.3760   8
  -3  -1 -12 11.7511 19.5941   6
  -3  -1 -13 7.64279 28.7288   8
   3   2 -15 43.6138 23.3212   8
  -3  -2  15 25.9994 11.7911   3
  -3  -2  15 32.6531 13.4733   8
  -3  -2  14 198.708 16.3161   3
   3   2 -14 206.801 23.8950   8
  -3  -2  14 217.499 15.3269   6
  -3  -2  14 188.440 18.2294   8
  -3  -2  13-0.46891 12.5205   8
  -3  -2  13 3.31380 10.7372   3
  -3  -2  13 6.69505 9.82572   6
   3   2 -13-7.14279 19.1733   8
  -3  -2  12 9.15976 12.3757   8
   3   2 -12 13.3958 17.2977   8
  -3  -2  12 11.9859 10.6116   3
  -3  -2  12 12.9748 8.87973   6
  -3  -2  12-8.58340 9.02751   2
  -3  -2  11 273.580 19.2710   8
  -3  -2  11 260.063 16.3365   3
  -3  -2  11 280.137 15.4621   6
  -3  -2  11 286.731 15.8064   2
   3   2 -11 245.873 21.4847   8
   3   2 -10 310.839 20.9567   8
  -3  -2  10 300.919 18.0187   8
  -3  -2  10 247.934 15.4157   3
  -3  -2  10 284.431 15.3345   6
  -3  -2  10 320.914 15.7170   2
   3   2 -10 300.739 11.2775   1
   3   2  -9 6.57882 6.84078   1
   3   2  -9 23.0469 13.8130   8
  -3  -2   9 12.0569 7.61624   2
  -3  -2   9 8.97347 7.21301   6
  -3  -2   9 7.05619 8.27487   8
   3   2  -8 540.401 23.1699   8
  -3  -2   8 547.287 21.4855   2
   3   2  -8 514.769 16.5922   1
  -3  -2   8 496.928 21.9960   8
  -3  -2   7 3362.54 88.2673   2
   3   2  -7 3454.18 83.1569   1
  -3  -2   7 3164.11 88.8320   8
  -3  -2   6-1.99987 6.29763   8
   3   2  -6 3.56795 6.36002   1
  -3  -2   6-0.24713 4.37626   1
   3   2  -5 1.67555 6.14115   1
  -3  -2   5 2.29726 4.44849   1
   3   2  -4 29.0246 6.72361   1
  -3  -2   4 22.8934 3.26662   5
  -3  -2   4 29.5593 4.85225   1
  -3  -2   3 3279.37 81.2560   1
   3   2  -3 3436.34 80.7043   1
  -3  -2   3 3166.08 77.6015   5
  -3  -2   2 1319.86 37.0068   1
  -3  -2   2 1326.27 36.1030   4
   3   2  -1 2355.49 58.0050   5
  -3  -2   1 2304.40 58.6955   4
   3   2  -1 2473.73 61.2152   4
  -3  -2   0 3351.22 85.6641   4
   3   2   0 3715.56 87.0172   4
   3   2   1 256.948 11.9308   1
   3   2   1 316.307 11.9283   4
  -3  -2  -1 307.686 13.7805   1
  -3  -2  -2 224.421 12.8773   8
   3   2   2 245.832 11.6897   1
  -3  -2  -2 250.041 13.3369   1
   3   2   2 274.183 11.2647   4
  -3  -2  -2 234.042 10.2242   3
  -3  -2  -3 57.6304 6.53132   3
  -3  -2  -3 62.2957 9.23707   1
   3   2   3 61.5329 6.86824   1
  -3  -2  -3 63.4380 9.69945   8
   3   2   3 69.2551 8.28354   4
  -3  -2  -4 875.786 28.6485   3
   3   2   4 1015.08 29.2536   4
  -3  -2  -4 899.492 29.0104   1
   3   2   4 909.806 29.5058   1
  -3  -2  -4 988.313 30.7726   8
   3   2   5 38.5065 10.0058   4
  -3  -2  -5 32.0944 7.26937   3
  -3  -2  -5 34.4676 10.7362   1
  -3  -2  -5 56.6931 12.3183   8
   3   2   5 50.0155 8.41590   1
  -3  -2  -6 44.9966 9.08579   3
   3   2   6 49.2328 9.91215   1
  -3  -2  -6 44.4044 12.0167   1
  -3  -2  -6 41.8605 14.3438   8
  -3  -2  -7 328.900 17.5407   3
  -3  -2  -7 358.605 19.3739   1
   3   2   7 310.269 19.0889   1
  -3  -2  -7 347.742 22.6201   8
  -3  -2  -8 12.6251 14.6930   1
   3   2   8 24.7096 9.27758   7
  -3  -2  -8 7.33120 14.4145   6
  -3  -2  -8 34.2217 17.1087   8
  -3  -2  -9 169.697 18.9970   6
   3   2   9 209.456 14.3536   7
  -3  -2  -9 177.337 15.9022   2
  -3  -2  -9 207.905 19.8590   1
  -3  -2  -9 211.385 23.7517   8
   3   2  10 65.1548 10.7525   7
  -3  -2 -10 51.3396 17.7686   6
  -3  -2 -10 39.9763 15.5633   2
  -3  -2 -10 65.4749 18.9158   1
  -3  -2 -10 64.8951 22.1868   8
   3   2  11 67.6566 19.9905   4
  -3  -2 -11 50.0039 20.4138   6
  -3  -2 -11 82.2006 19.5606   1
  -3  -2 -11 47.0162 17.3766   2
   3   2  11 85.2739 12.3075   7
  -3  -2 -11 96.7728 27.0639   8
  -3  -2 -12 3.53844 27.4059   8
   3   2  12 23.7969 20.6337   4
  -3  -2 -12 31.8180 21.7122   6
  -3  -3  15 9.55899 11.7017   3
   3   3 -15 31.0728 22.2409   8
  -3  -3  15 17.0643 13.3358   8
   3   3 -14 30.0266 19.1339   8
  -3  -3  14 14.1320 10.3682   3
  -3  -3  14 16.7871 9.53653   6
  -3  -3  14 11.0955 12.6776   8
   3   3 -13 170.322 21.2824   8
  -3  -3  13 192.464 13.7839   6
  -3  -3  13 173.646 13.1256   2
  -3  -3  13 170.692 14.6077   3
  -3  -3  13 138.851 17.6440   8
   3   3 -12 1540.07 51.5780   8
  -3  -3  12 1581.63 49.5101   3
  -3  -3  12 1669.84 48.3331   6
  -3  -3  12 1648.44 48.3936   2
  -3  -3  12 1685.11 54.3254   8
  -3  -3  11 54.2805 13.0842   8
   3   3 -11 37.9999 16.4623   8
  -3  -3  11 24.7903 10.2896   3
  -3  -3  11 45.4333 9.29709   6
  -3  -3  11 43.1201 9.63247   2
  -3  -3  10 384.466 18.2431   3
  -3  -3  10 394.099 18.1104   6
  -3  -3  10 432.561 19.4368   2
  -3  -3  10 404.350 21.3599   8
  -3  -3   9 263.896 15.1694   2
   3   3  -9 245.608 10.8090   1
  -3  -3   9 250.019 16.3250   8
   3   3  -8 435.614 14.7664   1
  -3  -3   8 440.479 20.2100   8
  -3  -3   7 70.4114 9.47096   8
   3   3  -7 84.6705 7.87346   1
  -3  -3   7 77.1311 6.39264   1
  -3  -3   6 0.42356 4.88105   1
  -3  -3   6-4.14861 7.04931   8
   3   3  -6 0.85135 6.46856   1
  -3  -3   5 2774.94 75.5272   8
  -3  -3   5 2922.33 72.9034   1
   3   3  -5 2864.50 71.7054   1
  -3  -3   4 22.2854 5.17787   1
   3   3  -4 17.4105 6.92526   1
   3   3  -3 3548.77 83.4342   1
  -3  -3   3 3393.42 83.9660   1
  -3  -3   2 786.712 23.5806   1
  -3  -3   2 703.104 20.5924   4
   3   3  -1 243.815 12.9132   1
  -3  -3   1 217.670 7.75780   4
   3   3  -1 182.273 10.7014   4
   3   3   0 868.759 24.7937   4
  -3  -3  -1 2398.63 62.2100   3
  -3  -3  -1 2461.44 64.0305   7
   3   3   1 2502.18 62.3433   4
  -3  -3  -1 2530.38 64.9410   1
  -3  -3  -2 1707.64 46.6655   3
   3   3   2 1738.14 46.0747   4
  -3  -3  -2 1771.79 48.2094   7
   3   3   2 1687.26 48.6723   1
  -3  -3  -2 1908.59 48.9153   1
  -3  -3  -3 178.654 10.1190   3
  -3  -3  -3 177.833 10.7779   7
  -3  -3  -3 176.463 13.5998   8
  -3  -3  -3 194.572 13.5851   1
   3   3   3 193.884 11.9776   1
   3   3   3 202.028 10.7925   4
  -3  -3  -4 330.234 15.0842   3
  -3  -3  -4 322.942 17.5338   8
  -3  -3  -4 351.886 17.1688   1
   3   3   4 349.721 15.3300   4
   3   3   4 321.835 16.6176   1
  -3  -3  -5 113.830 10.6031   3
   3   3   5 107.609 11.9189   1
   3   3   5 120.726 12.2392   4
  -3  -3  -5 127.990 13.5655   1
  -3  -3  -5 102.669 14.5999   8
  -3  -3  -6 76.2158 10.1924   3
  -3  -3  -6 81.1000 16.4748   8
  -3  -3  -6 77.7501 13.8315   1
   3   3   6 71.0299 12.3068   1
  -3  -3  -7 60.4599 15.2770   1
  -3  -3  -7 33.6679 17.5465   8
  -3  -3  -8 84.5716 17.3056   1
  -3  -3  -8 60.6315 16.6803   6
  -3  -3  -8 90.1150 20.7001   8
  -3  -3  -9 109.871 20.5023   1
  -3  -3  -9 71.2409 18.0530   6
  -3  -3  -9 102.842 23.1304   8
  -3  -3 -10-7.96211 19.9709   1
   3   3  10-17.1698 17.6972   4
  -3  -3 -10-21.3722 19.3815   6
  -3  -3 -10 5.79445 16.6899   2
  -3  -3 -10 35.7371 24.3186   8
   3   3  11 20.2040 18.9168   4
  -3  -3 -11 77.9457 27.3314   8
  -3  -3 -11 18.5896 21.6230   6
  -3  -3 -11 33.8228 21.3714   1
  -3  -3 -11 29.9860 19.9302   2
  -3  -3 -12 30.6042 23.9542   6
  -3  -4  16-3.13550 10.9968   3
  -3  -4  15 69.2107 16.3751   8
  -3  -4  15 97.2365 12.7133   3
  -3  -4  14 72.6803 10.7562   6
  -3  -4  14 66.2227 12.1973   3
  -3  -4  14 53.7359 10.0478   2
  -3  -4  14 58.5214 15.6976   8
  -3  -4  13 69.2733 11.8827   3
  -3  -4  13 59.4321 10.1467   6
  -3  -4  13 54.1761 10.7193   2
  -3  -4  13 57.2085 14.5680   8
  -3  -4  12 799.949 29.6049   3
  -3  -4  12 822.974 28.8279   6
  -3  -4  12 815.506 29.3360   2
  -3  -4  12 808.010 34.4450   8
  -3  -4  11 172.041 13.6080   3
  -3  -4  11 175.802 13.7853   6
  -3  -4  11 175.165 14.7188   2
  -3  -4  11 173.605 17.5585   8
  -3  -4  10 8.39127 10.2648   8
  -3  -4  10 1.93528 7.73227   3
  -3  -4  10 2.73410 8.73248   2
  -3  -4   9 122.122 10.3740   3
   3   4  -9 139.900 10.7040   1
  -3  -4   9 114.409 12.6481   8
  -3  -4   8 1285.46 41.3734   8
   3   4  -8 1319.83 34.5827   1
  -3  -4   8 1202.66 34.1568   1
  -3  -4   7 893.376 24.8435   5
   3   4  -7 1015.85 27.8682   1
  -3  -4   7 1049.88 28.5714   1
  -3  -4   7 1057.90 34.0150   8
  -3  -4   6 28.8386 7.89389   8
  -3  -4   6 21.8359 5.72145   1
   3   4  -6 44.6100 8.21688   1
  -3  -4   5 4073.79 97.2969   1
   3   4  -5 3691.63 95.8960   1
   3   4  -4 1454.86 40.2904   1
  -3  -4   4 1486.57 41.0786   1
   3   4  -3 1209.55 33.9726   1
  -3  -4   3 1235.52 34.5159   1
  -3  -4   3 1126.57 30.5245   4
   3   4  -2 641.945 21.7564   1
  -3  -4   2 606.593 16.9690   4
  -3  -4   2 651.896 21.3225   1
   3   4  -1 829.782 26.2662   1
  -3  -4   1 750.316 24.9960   1
  -3  -4   0 184.770 7.93008   3
   3   4   0 188.752 9.45273   4
  -3  -4  -1 726.759 23.0275   7
  -3  -4  -1 741.228 21.7234   3
   3   4   1 675.315 21.0726   4
  -3  -4  -2 2129.61 57.2570   3
  -3  -4  -2 2227.06 59.0316   7
   3   4   2 2128.46 60.8563   1
   3   4   2 2076.08 55.8474   4
   3   4   3 132.315 11.9981   1
  -3  -4  -3 133.639 10.2027   7
  -3  -4  -3 134.813 10.0215   3
  -3  -4  -3 175.513 14.5669   1
   3   4   3 146.625 10.0238   4
   3   4   4 179.154 14.5355   1
  -3  -4  -4 221.007 16.3802   1
  -3  -4  -4 178.667 12.0547   3
   3   4   4 183.627 12.3874   4
   3   4   5-15.6282 10.9473   1
   3   4   5-1.91347 10.6488   4
  -3  -4  -5-10.9802 8.43344   3
  -3  -4  -5 6.77199 12.8958   1
  -3  -4  -6 438.211 22.1135   1
  -3  -4  -6 371.580 24.0087   8
   3   4   6 395.237 19.6229   4
  -3  -4  -7 107.951 17.2382   1
  -3  -4  -7 63.3062 19.7188   8
  -3  -4  -8 48.2534 20.5726   8
  -3  -4  -8 27.0494 17.3288   6
  -3  -4  -8 67.8983 18.6124   1
  -3  -4  -9 121.677 21.0130   6
  -3  -4  -9 197.426 23.0743   1
  -3  -4  -9 181.603 25.8492   8
   3   4   9 191.409 19.8076   4
  -3  -4 -10 21.1688 26.0189   8
  -3  -4 -10-24.0434 21.2204   6
  -3  -4 -10-10.9384 19.2665   2
   3   4  10 14.0539 18.3908   4
  -3  -4 -10 27.3845 22.0556   1
   3   4  11 40.1360 20.4566   4
  -3  -4 -11 47.8332 24.6867   1
  -3  -4 -11-2.82565 23.3654   6
  -3  -4 -11 62.9863 28.4694   8
  -3  -4 -12 14.8016 25.4648   6
  -3  -5  16 19.6547 11.0164   3
  -3  -5  15 5.27433 9.72980   3
  -3  -5  15-4.93165 13.9306   8
  -3  -5  14 37.9296 10.6602   3
  -3  -5  14 36.7357 10.3130   2
  -3  -5  14 50.2581 9.53417   6
  -3  -5  14 47.5977 11.9704   5
  -3  -5  14 22.6104 15.1990   8
  -3  -5  13 425.046 20.1792   3
  -3  -5  13 426.215 19.3055   6
  -3  -5  13 390.415 19.9618   2
  -3  -5  13 416.715 25.3641   8
  -3  -5  13 451.157 20.6851   5
  -3  -5  12-6.29072 11.6675   8
  -3  -5  12-8.19552 9.85148   3
  -3  -5  12 6.83848 8.58011   6
  -3  -5  12-2.63370 9.92392   2
  -3  -5  12-4.76488 8.58779   5
  -3  -5  11 269.404 15.5534   3
  -3  -5  11 270.923 13.8369   5
  -3  -5  11 233.118 16.8429   2
  -3  -5  11 279.503 20.0431   8
  -3  -5  10 644.567 22.9447   3
  -3  -5  10 599.934 20.1127   5
  -3  -5  10 602.130 27.9253   8
  -3  -5   9 39.2238 10.8941   8
  -3  -5   9 32.1795 7.93086   3
  -3  -5   9 21.7680 5.68707   1
  -3  -5   9 32.6048 5.42629   5
  -3  -5   8 93.0526 8.76313   3
  -3  -5   8 89.7105 12.0855   8
   3   5  -8 76.0527 12.2805   1
  -3  -5   8 83.8353 5.77870   5
  -3  -5   8 96.8485 8.01588   1
  -3  -5   7 46.6152 7.09396   1
  -3  -5   7 39.1231 6.35776   3
  -3  -5   7 37.4865 10.6037   8
   3   5  -7 50.4466 11.6059   1
  -3  -5   6 2461.61 67.7501   8
  -3  -5   6 2446.20 63.3853   1
   3   5  -6 2310.59 63.4317   1
  -3  -5   5 9.29535 6.60198   1
   3   5  -5 25.1145 9.71248   1
  -3  -5   4 250.044 12.7209   1
   3   5  -4 271.245 14.9392   1
  -3  -5   4 229.564 8.66738   4
  -3  -5   3 720.626 19.5094   4
  -3  -5   3 833.044 25.4747   1
   3   5  -3 799.063 26.3679   1
   3   5  -2 3.92129 10.7451   1
  -3  -5   2-1.85630 5.89552   1
  -3  -5   1 5.59797 5.87345   1
  -3  -5   1 4.59487 3.27185   3
   3   5  -1 15.9165 11.4685   1
   3   5   0 426.974 21.0871   1
   3   5   0 397.420 14.7932   4
  -3  -5   0 449.346 14.1839   3
  -3  -5   0 451.169 16.0663   7
  -3  -5  -1 489.627 18.6702   8
  -3  -5  -1 474.064 16.1417   3
  -3  -5  -1 484.504 17.5845   7
   3   5   1 421.167 15.6097   4
  -3  -5  -2 361.828 14.6380   3
  -3  -5  -2 365.724 15.7185   7
   3   5   2 307.077 13.1470   4
  -3  -5  -2 396.640 19.9112   1
  -3  -5  -3 111.126 10.1901   3
  -3  -5  -3 134.123 11.1009   7
   3   5   3 97.3762 13.2889   1
   3   5   3 121.444 10.3397   4
  -3  -5  -3 148.398 15.7891   1
   3   5   4 946.678 37.9804   1
   3   5   4 1052.16 32.0800   4
  -3  -5  -5 233.649 19.1141   1
   3   5   5 201.933 14.8556   4
   3   5   6 13.3936 12.5951   4
  -3  -5  -6 23.4788 16.6172   1
  -3  -5  -7 0.63803 17.3353   1
   3   5   7-7.23359 14.4119   4
  -3  -5  -7-18.3517 20.5024   8
   3   5   8 393.572 23.0634   4
  -3  -5  -8 416.814 27.2806   6
  -3  -5  -8 359.839 30.1350   8
   3   5   9 7.86405 16.6221   4
  -3  -5  -9-3.15110 24.6311   8
  -3  -5  -9-11.1427 20.1112   6
  -3  -5  -9 44.3284 20.9237   1
  -3  -5 -10-0.23816 22.4051   6
  -3  -5 -10 13.7333 23.3338   1
  -3  -5 -10 21.2465 27.5111   8
   3   5  10 23.1903 18.9475   4
  -3  -5 -11 19.4775 26.0603   1
  -3  -5 -11-33.1875 25.6109   6
  -3  -6  15 102.099 17.8731   8
  -3  -6  14 1.08795 14.1692   8
  -3  -6  14 24.9878 10.1042   3
  -3  -6  13 163.485 12.8139   3
  -3  -6  13 140.159 12.3014   6
  -3  -6  13 141.359 14.2982   2
  -3  -6  13 177.965 14.2825   5
  -3  -6  13 140.482 18.5815   8
  -3  -6  12 61.8428 15.1025   8
  -3  -6  12 51.3705 10.5623   6
  -3  -6  12 57.4881 10.3282   5
  -3  -6  12 52.9414 12.4465   2
  -3  -6  11-8.13894 8.28321   3
  -3  -6  11-1.97895 7.13158   5
  -3  -6  11 0.23818 11.6744   8
  -3  -6  11-21.2131 10.8918   2
  -3  -6  10 252.891 13.1176   3
  -3  -6  10 193.183 10.3356   5
  -3  -6  10 240.963 19.1224   8
  -3  -6  10 162.284 8.97143   1
  -3  -6   9 197.514 10.7982   3
  -3  -6   9 179.686 16.4352   8
  -3  -6   9 165.665 9.89704   1
  -3  -6   8 740.921 25.3089   1
  -3  -6   8 815.135 24.3770   3
  -3  -6   8 839.816 32.3085   8
  -3  -6   7-1.49794 9.33517   8
  -3  -6   7-5.71030 5.45424   3
  -3  -6   7-4.61171 7.44505   1
  -3  -6   6 1686.99 44.1211   3
  -3  -6   6 1852.98 49.3472   1
  -3  -6   6 1864.28 53.3887   8
   3   6  -6 1617.87 50.5738   1
  -3  -6   5 16.6298 7.52527   1
   3   6  -5-2.01218 13.0267   1
  -3  -6   5 10.5541 3.71606   3
  -3  -6   5 14.6544 3.76883   4
  -3  -6   4 60.6622 8.50436   1
   3   6  -4 29.5426 13.3900   1
   3   6  -3 13.7872 13.1665   1
  -3  -6   3 36.3238 7.54655   1
  -3  -6   2-0.55814 2.86502   3
  -3  -6   2 2.35785 6.75828   1
  -3  -6   1 387.122 17.4621   1
  -3  -6   1 384.827 14.6807   7
   3   6  -1 356.033 22.0410   1
  -3  -6   0-2.72491 5.63442   7
   3   6   0-0.82899 7.18508   4
  -3  -6   0-1.08927 7.71249   1
  -3  -6  -1 992.782 29.0229   7
  -3  -6  -1 982.007 29.6638   8
  -3  -6  -2-2.86877 7.40858   7
  -3  -6  -2 8.82213 7.55169   8
   3   6   2-1.85597 7.44955   4
   3   6   3 71.5399 9.20715   4
  -3  -6  -3 88.9623 11.2765   8
  -3  -6  -3 87.8093 16.6771   1
  -3  -6  -4 63.0086 11.8964   8
   3   6   4 79.6576 10.8731   4
  -3  -6  -5 2.75497 16.8733   1
   3   6   5 4.75418 11.2048   4
   3   6   6 263.408 17.4685   4
  -3  -6  -6 298.519 23.5009   1
   3   6   7 7.57795 14.1050   4
  -3  -6  -7 23.8167 19.6325   1
  -3  -6  -8 130.663 24.1696   6
   3   6   8 89.2269 16.5428   4
  -3  -6  -8 126.462 22.4432   1
  -3  -6  -9 26.0661 22.4026   1
  -3  -6  -9 19.8773 23.4228   6
  -3  -6  -9-11.1447 27.0230   8
   3   6   9 6.17622 17.0097   4
   3   6  10-1.34188 18.6000   4
  -3  -6 -10 7.00793 24.9931   1
  -3  -6 -11 19.5023 28.6999   1
  -3  -7  15 38.8071 16.5117   8
  -3  -7  14-11.9273 14.8325   8
  -3  -7  13 65.3192 15.5620   8
  -3  -7  13 32.7720 13.0647   2
  -3  -7  12 5.15905 13.2835   8
  -3  -7  12-7.53470 9.80351   6
  -3  -7  12 3.99305 8.05086   5
  -3  -7  12-1.67144 11.4901   2
  -3  -7  11 461.561 17.5514   3
  -3  -7  11 395.130 25.3203   8
  -3  -7  10 9.20969 6.50054   3
  -3  -7  10 8.28653 6.50284   1
  -3  -7  10 0.69653 12.0250   8
  -3  -7   9 6.81214 5.75498   3
  -3  -7   9-14.7515 8.60872   1
  -3  -7   9-6.09284 11.9376   8
  -3  -7   8 273.186 14.4128   1
  -3  -7   8 288.365 10.8805   3
  -3  -7   8 279.584 20.2913   8
  -3  -7   7 262.454 18.6649   8
  -3  -7   7 278.988 14.9204   1
  -3  -7   6-0.90052 8.07969   1
  -3  -7   6 2.34986 1.88122   4
  -3  -7   5 78.9425 10.0358   1
  -3  -7   4 203.235 12.9975   1
   3   7  -4 99.2099 17.8598   1
  -3  -7   3 7.17299 7.69490   1
  -3  -7   2 237.575 11.8270   7
  -3  -7   2 254.108 15.1894   1
  -3  -7   1 950.283 28.5910   7
  -3  -7   1 929.925 31.8223   1
  -3  -7   0 15.6421 8.17431   8
  -3  -7   0 9.84323 6.84278   7
  -3  -7   0 8.28837 8.59221   1
  -3  -7  -1 24.7575 8.50673   8
  -3  -7  -1 10.4946 7.82090   7
   3   7   1 27.6132 7.45087   4
   3   7   2 248.340 12.5607   4
  -3  -7  -2 320.447 16.8296   8
  -3  -7  -3 428.746 20.4421   8
  -3  -7  -3 486.450 26.2859   1
   3   7   4 51.0421 10.6122   4
  -3  -7  -4 82.3273 19.1386   1
  -3  -7  -4 46.5343 11.5390   8
  -3  -7  -5 20.4135 18.6353   1
   3   7   5 18.8987 11.4576   4
  -3  -7  -5 5.36413 11.4137   8
   3   7   6 85.9285 14.1960   4
  -3  -7  -6 98.0363 22.0390   1
  -3  -7  -6 84.2510 14.8140   8
   3   7   7 70.5463 15.3353   4
  -3  -7  -7 71.1864 22.6028   1
  -3  -7  -8 61.5198 24.5832   6
   3   7   8 11.0089 15.7445   4
  -3  -7  -8 47.5266 24.0472   1
  -3  -7  -9 46.0999 25.6492   1
   3   7   9 22.1797 17.6208   4
   3   7  10 20.3748 18.8295   4
  -3  -8  14 3.33291 14.1493   8
  -3  -8  13 175.833 20.1109   8
  -3  -8  12 19.6334 14.3576   8
  -3  -8  11 145.174 8.91293   1
  -3  -8  11 197.072 18.5384   8
  -3  -8  10-23.7972 14.2390   8
  -3  -8  10 1.36854 8.10334   1
  -3  -8   9 33.3004 13.9978   8
  -3  -8   9 32.3676 8.93473   1
  -3  -8   8 17.3072 3.25364   4
  -3  -8   8 26.7095 13.9075   8
  -3  -8   8 20.2023 8.62129   1
  -3  -8   7 75.3481 10.8449   1
  -3  -8   7 80.1996 14.1764   8
  -3  -8   6 559.352 23.1901   1
  -3  -8   5 32.9935 9.61640   1
  -3  -8   4 192.283 14.2944   1
  -3  -8   3 59.7912 7.66676   7
  -3  -8   3 61.9490 11.2625   1
   3   8  -3 34.9211 6.96350   5
  -3  -8   2 270.655 12.9659   7
   3   8  -2 190.991 13.1599   5
  -3  -8   2 244.635 16.8087   1
  -3  -8   1-3.98879 7.21683   7
  -3  -8   1-2.60080 9.95784   1
  -3  -8   0 204.440 12.8594   7
  -3  -8   0 198.877 15.5436   1
  -3  -8   0 221.205 14.5828   8
   3   8   1 165.213 11.1344   4
  -3  -8  -1 269.934 15.3730   8
   3   8   2 18.1036 8.07671   4
  -3  -8  -2 8.54673 9.83406   8
  -3  -8  -3-9.29475 10.3382   8
  -3  -8  -3 2.45469 19.5935   1
   3   8   3-1.62434 9.07503   4
   3   8   4 0.97049 9.73101   4
  -3  -8  -4 4.86826 20.0526   1
  -3  -8  -4-8.86412 10.9763   8
   3   8   5 9.93855 11.1349   4
  -3  -8  -5 14.0911 21.0494   1
  -3  -8  -5-14.3902 13.0581   8
   3   8   6 19.7700 12.4579   4
  -3  -8  -6 16.4514 23.0615   1
  -3  -8  -6 12.4773 12.4162   8
   3   8   7 113.655 16.0479   4
  -3  -8  -7 130.324 25.8708   1
  -3  -8  -7 127.020 17.9501   8
  -3  -8  -8 86.4404 27.0239   1
   3   8   8 59.5903 16.1128   4
  -3  -9  12 168.149 19.5460   8
  -3  -9  11 18.5538 13.3415   8
  -3  -9  10-1.75184 13.0007   8
  -3  -9  10-5.30978 8.84377   1
  -3  -9   9 75.1052 16.0096   8
  -3  -9   9 106.059 11.2654   1
  -3  -9   8 50.1583 10.5523   1
  -3  -9   8 52.8006 15.1413   8
  -3  -9   7 27.7078 13.8308   8
  -3  -9   7 13.8728 10.2438   1
  -3  -9   6 67.6116 12.1435   1
  -3  -9   5 408.280 21.0280   1
  -3  -9   4 63.9624 7.64802   7
  -3  -9   4 50.2688 11.5811   1
  -3  -9   3 81.1656 8.56257   7
   3   9  -3 50.8038 8.06877   5
  -3  -9   3 76.1019 12.4676   1
  -3  -9   2 230.264 12.3785   7
   3   9  -2 162.823 12.7376   5
  -3  -9   2 201.347 16.1696   1
  -3  -9   1 10.2002 9.70308   8
  -3  -9   1 0.83717 7.06429   7
  -3  -9   1 8.90035 10.6774   1
  -3  -9   0 50.2913 10.3178   8
  -3  -9   0 36.1573 11.3270   1
  -3  -9  -1 70.7634 11.5481   8
  -3  -9  -1 63.1610 12.3179   1
  -3  -9  -2 81.4355 12.5055   8
   3   9   2 57.2412 9.35729   4
  -3  -9  -3 5.85858 11.2981   8
   3   9   3 37.1546 9.04265   4
  -3  -9  -4 17.2774 22.6815   1
  -3  -9  -4 2.37764 12.7752   8
   3   9   4 18.6180 10.3933   4
  -3  -9  -5 54.0743 23.7846   1
   3   9   5 49.6299 11.7703   4
  -3  -9  -5 74.0420 14.9100   8
  -3  -9  -6 43.6641 25.2801   1
  -3 -10  11 23.1163 14.2127   8
  -3 -10  10-7.56814 13.8224   8
  -3 -10   9-2.55561 13.3817   8
  -3 -10   9 0.59439 9.19359   1
  -3 -10   8 10.5503 13.6964   8
  -3 -10   8 13.6039 10.5771   1
  -3 -10   7 511.695 27.4561   8
  -3 -10   7 486.766 23.2450   1
  -3 -10   6 30.5271 6.66635   7
  -3 -10   6 28.1901 11.6132   1
  -3 -10   5 58.0159 12.6478   1
  -3 -10   5 73.9484 8.12747   7
  -3 -10   4 14.8518 7.04966   7
  -3 -10   4 9.67187 10.6494   1
  -3 -10   3 88.2904 9.45461   7
   3  10  -3 62.4115 8.10877   5
  -3 -10   3 88.9444 13.4579   1
  -3 -10   2 4.96859 7.65130   7
  -3 -10   2 24.1920 10.4213   8
   3  10  -2 6.51809 10.9674   5
  -3 -10   2 17.5552 11.3312   1
  -3 -10   1 7.73658 9.50234   8
   3  10  -1 4.44435 13.0883   5
  -3 -10   1 4.28921 11.1894   1
  -3 -10   0 128.879 15.7850   1
  -3 -10   0 140.690 13.8183   8
  -3 -10  -1 14.6189 10.7671   8
  -3 -10  -1 17.8034 11.8832   1
  -3 -10  -2 119.816 15.4411   8
  -3 -10  -3 50.1665 13.8101   8
  -3 -10  -4-6.26100 13.8512   8
  -3 -11   9 28.1431 13.9723   8
  -3 -11   8 1.39552 10.2582   1
  -3 -11   8 5.68936 13.7293   8
  -3 -11   7 140.591 14.7696   1
  -3 -11   7 131.010 17.2558   8
  -3 -11   6 31.5489 11.9819   1
  -3 -11   5 80.9165 13.7857   1
  -3 -11   4-2.50277 12.2470   1
  -3 -11   3 1.09206 11.7934   1
  -3 -11   3 11.7157 10.6888   8
  -3 -11   2 88.0683 14.6424   1
  -3 -11   2 117.656 13.4709   8
  -3 -11   1-2.83978 12.3688   1
  -3 -11   1 0.71179 11.6066   8
  -3 -11   0 148.947 15.6857   8
  -3 -11   0 138.595 16.7509   1
  -3 -11  -1 18.7676 13.3799   1
  -3 -11  -1 0.99797 12.1666   8
  -3 -11  -2-1.74796 13.5652   8
  -3 -12   6 6.37717 11.2653   1
  -3 -12   5 98.6333 13.7249   8
  -3 -12   5 69.8947 13.5543   1
  -3 -12   4 31.0252 11.6074   8
  -3 -12   4 23.7218 12.5786   1
  -3 -12   3-2.09424 12.3755   1
  -3 -12   3 8.15728 11.0194   8
  -3 -12   2 36.7259 12.5806   8
  -3 -12   1 36.4386 12.9208   8
  -3 -12   0 1.86800 12.1819   8
  -4  13   2 188.438 24.9836   5
  -4  13   1 16.9092 19.9084   5
  -4  13   0 18.6200 18.8442   5
   4 -13   1 10.8807 13.2434   2
  -4  13  -1 43.3641 18.8796   5
   4 -13   2 86.8829 16.1859   2
   4 -13   2 103.489 22.3666   1
   4 -13   3 7.38526 16.8144   1
  -4  12   4 1.66457 23.3612   5
   4 -12  -3 50.1951 14.9093   2
  -4  12   3 49.2032 23.2065   5
   4 -12  -2 58.6066 15.1366   2
  -4  12   2 63.9801 22.2800   5
   4 -12  -2 40.2319 23.2142   1
   4 -12  -1 122.988 17.1402   2
  -4  12   1 78.3245 20.2050   5
   4 -12  -1 107.937 24.8614   1
   4 -12   0 30.4162 13.7301   2
   4 -12   0 31.3535 22.0751   1
  -4  12   0 27.1788 18.5184   5
  -4  12  -1 47.5301 17.2856   5
   4 -12   1 13.4185 12.8802   2
   4 -12   2 56.4797 13.5302   2
   4 -12   2 49.2515 19.5429   1
  -4  12  -2 70.3602 17.5698   5
   4 -12   3 15.5665 17.6972   1
   4 -12   3 26.6124 12.3638   2
  -4  12  -3 24.7635 17.0129   5
   4 -12   4 92.9738 13.9398   2
   4 -12   4 90.1490 17.8261   1
  -4  12  -4 71.8970 18.7946   5
   4 -11  -8 30.0244 15.6475   8
   4 -11  -7 126.257 18.3849   8
   4 -11  -6 51.6288 17.0178   6
  -4  11   6 55.9341 27.8098   5
   4 -11  -6 74.8066 16.2546   2
   4 -11  -6 60.2285 14.6411   8
   4 -11  -5 57.1376 13.2475   8
   4 -11  -5 53.7367 14.8796   2
   4 -11  -5 50.5569 16.5981   6
  -4  11   5 50.8112 25.9982   5
   4 -11  -4-11.3321 13.9860   6
   4 -11  -4 6.37232 10.6134   8
   4 -11  -4-18.0027 22.1638   1
   4 -11  -4 6.29483 12.8547   2
  -4  11   4 20.2103 22.9237   5
  -4  11   4-20.3408 15.1025   4
  -4  11   3 286.258 25.6503   5
   4 -11  -3 285.189 21.1192   6
   4 -11  -3 280.976 21.3133   2
   4 -11  -3 347.793 32.5483   1
  -4  11   3 297.962 17.2588   4
   4 -11  -3 245.028 16.9411   8
   4 -11  -2 13.4530 8.87872   8
   4 -11  -2-35.2184 23.7648   1
   4 -11  -2 6.05458 12.3776   2
  -4  11   2 3.09826 10.5589   4
  -4  11   2-7.10692 19.1450   5
  -4  11   1 18.1572 9.27400   4
   4 -11  -1-14.4050 20.6971   1
   4 -11  -1 25.6632 11.9122   2
  -4  11   1-15.1982 18.5799   5
   4 -11  -1 5.22279 8.22615   8
   4 -11   0 14.8101 6.64226   8
   4 -11   0 49.5467 12.4050   2
  -4  11   0 4.02392 17.1010   5
  -4  11   0 23.7486 8.78233   4
   4 -11   0 21.2194 19.0098   1
   4 -11   1 11.1357 19.2103   1
  -4  11  -1 61.9332 16.4344   5
  -4  11  -2 37.4733 8.97982   3
   4 -11   2 22.3710 11.0825   2
   4 -11   3 13.5684 10.5531   2
  -4  11  -3 15.6597 15.5434   5
   4 -11   3-8.44844 16.2758   1
   4 -11   4 264.713 17.7507   2
  -4  11  -4 231.136 20.6377   5
   4 -11   4 288.028 23.3771   1
   4 -11   5-1.60796 12.5153   1
   4 -11   5 6.58239 10.5385   2
   4 -11   6 19.0840 11.1012   1
  -4  10  10 12.8857 17.7751   7
  -4  10  10 4.09316 22.9679   3
  -4  10   9 0.99445 15.7896   7
   4 -10  -9 3.30455 15.2548   8
  -4  10   9-6.84682 21.2795   3
  -4  10   8 68.8375 16.1286   7
  -4  10   8 55.9350 21.5662   3
   4 -10  -8 71.1358 30.2094   2
   4 -10  -8 98.8436 46.6012   1
   4 -10  -8 77.9843 17.0388   8
   4 -10  -7 0.99078 13.2350   8
  -4  10   7 10.5299 13.3152   7
   4 -10  -7-6.10406 14.9373   6
   4 -10  -6 56.6550 13.9694   8
  -4  10   6 48.2013 12.7137   7
  -4  10   6 65.0137 27.0450   5
   4 -10  -6 62.9757 14.7494   2
   4 -10  -6 60.4689 15.8058   6
   4 -10  -5 70.8825 13.2297   8
  -4  10   5 89.2584 11.8963   7
   4 -10  -5 77.8084 15.3766   2
  -4  10   5 103.663 24.8298   5
   4 -10  -5 73.4430 14.8591   6
  -4  10   4 57.9568 9.56164   7
   4 -10  -4 55.3661 14.2169   6
   4 -10  -4 52.2980 13.3824   2
  -4  10   4 54.1072 22.2889   5
   4 -10  -4 56.8934 11.6251   8
   4 -10  -3 67.7834 11.1069   8
  -4  10   3 35.6307 14.1756   4
   4 -10  -3 62.6036 14.2004   6
  -4  10   3 40.2730 19.4516   5
   4 -10  -3 72.9978 13.4011   2
   4 -10  -2 20.5190 8.57008   8
   4 -10  -2 36.0120 12.0545   2
  -4  10   2 23.4056 17.3022   5
  -4  10   2 37.1158 11.8517   4
   4 -10  -1 188.040 12.1108   8
   4 -10  -1 230.805 17.0775   2
  -4  10   1 234.343 20.6268   5
  -4  10   1 243.475 14.0097   4
   4 -10   0 0.32400 6.16962   8
  -4  10   0-12.2578 9.24413   4
  -4  10   0-13.9481 15.1351   5
  -4  10  -1 377.356 15.2057   4
  -4  10  -1 323.154 20.8919   5
   4 -10   2 452.891 21.8822   2
  -4  10  -2 469.793 23.2214   5
  -4  10  -3 19.9444 9.40958   3
   4 -10   3 4.26385 9.20019   2
  -4  10  -3 6.41036 13.3627   5
  -4  10  -4 72.2400 11.4644   3
   4 -10   4 74.3425 10.8641   2
  -4  10  -5 34.0989 11.8478   3
   4 -10   5 26.0704 9.96654   2
   4 -10   5 22.9526 13.1298   1
  -4  10  -6 107.842 15.0716   3
   4 -10   6 99.9120 12.0105   2
   4 -10   6 122.383 14.1533   1
   4 -10   6 127.913 14.0480   1
  -4  10  -7-15.2151 14.8950   3
   4 -10   7 11.2490 8.36167   1
   4 -10   8 26.1826 18.6763   5
   4 -10   9 142.938 22.5666   5
  -4   9  11 105.496 20.7204   7
  -4   9  11 111.172 26.0474   3
  -4   9  10 114.325 19.8531   7
  -4   9  10 156.864 25.8621   3
   4  -9 -10 129.998 20.0447   8
   4  -9 -10 173.839 48.0371   1
  -4   9  10 190.000 21.5362   8
   4  -9  -9 44.2987 16.5498   8
  -4   9   9 21.2639 16.3136   7
   4  -9  -9 4.22711 44.6517   1
  -4   9   9 22.6957 21.8187   3
   4  -9  -9 47.2021 28.8464   2
  -4   9   9 50.9099 18.0949   8
   4  -9  -8 52.3717 14.9116   8
   4  -9  -8 61.7198 28.0928   2
  -4   9   8 66.9179 17.1620   8
  -4   9   8 33.3307 15.1545   7
  -4   9   7-13.7460 13.7233   7
   4  -9  -7-18.7513 14.3833   6
   4  -9  -7 7.25548 12.1895   8
   4  -9  -6 14.7792 12.0772   8
  -4   9   6 11.7833 12.2237   7
   4  -9  -6 4.74444 13.0496   6
   4  -9  -5 9.52185 10.1442   8
   4  -9  -5-4.36774 12.7127   6
   4  -9  -5 14.6835 11.5683   2
  -4   9   5 12.0381 22.1723   5
  -4   9   5 4.70175 10.7096   7
  -4   9   4 100.472 10.9600   7
   4  -9  -4 116.007 14.7759   6
   4  -9  -4 125.489 14.7615   2
  -4   9   4 99.5195 23.1830   5
   4  -9  -4 132.177 13.0729   8
  -4   9   3 211.685 11.0854   7
   4  -9  -3 213.378 16.6937   6
   4  -9  -3 228.296 17.3195   2
  -4   9   3 222.319 22.1366   5
  -4   9   3 148.588 16.8311   4
   4  -9  -3 214.479 14.0873   8
  -4   9   2 29.8984 6.20768   7
   4  -9  -2 48.0885 12.1526   2
  -4   9   2 46.6808 17.3682   5
   4  -9  -2 26.7594 8.72692   8
  -4   9   2 19.1691 12.1935   4
   4  -9  -1 1114.74 37.5258   2
  -4   9   1 1122.05 38.9001   5
  -4   9   1 1258.56 32.9443   4
  -4   9   0 39.8874 14.3453   5
   4  -9   0 24.8565 5.77211   8
  -4   9   0 56.3093 10.4468   4
   4  -9   1 92.0748 11.7571   2
  -4   9  -1 95.6175 10.5366   4
   4  -9   2 18.0740 9.47260   2
  -4   9  -2-4.12478 12.7995   5
   4  -9   3 469.765 19.9204   2
  -4   9  -3 387.362 21.1331   5
   4  -9   4 154.425 12.2826   2
  -4   9  -4 180.656 12.8591   3
  -4   9  -5 12.3326 11.8751   3
   4  -9   5 5.62717 14.4269   5
   4  -9   5 6.26994 8.11754   2
   4  -9   5 3.53346 9.59501   1
  -4   9  -6 192.596 15.9177   3
   4  -9   6 140.095 11.8433   2
   4  -9   6 184.388 20.8125   5
   4  -9   6 179.433 14.4341   1
   4  -9   7-3.31924 8.31359   1
   4  -9   7-10.0128 14.8552   5
   4  -9   7-2.01059 8.37290   1
   4  -9   7-5.73998 7.84807   2
   4  -9   7-9.59294 10.8760   4
  -4   9  -7-5.74543 14.8562   3
   4  -9   8-7.08706 10.9334   4
   4  -9   8-13.2977 14.3680   5
  -4   9  -8-31.0813 16.4009   3
   4  -9   9 66.1238 12.5273   4
   4  -9   9 83.0049 17.4602   5
   4  -9  10 34.6035 16.3341   5
   4  -9  11 11.7049 16.5182   5
  -4   8  12-1.38752 20.7045   7
  -4   8  12 6.73105 25.2315   3
   4  -8 -12 4.25969 40.9863   1
   4  -8 -11 24.1166 16.4584   8
  -4   8  11 36.3461 21.5770   8
  -4   8  11-6.69864 24.3151   3
   4  -8 -11-1.76137 42.5837   1
   4  -8 -11 12.5234 27.1808   2
  -4   8  11 6.04808 19.6462   7
  -4   8  10 91.5847 19.3805   7
  -4   8  10 96.2328 23.4195   3
  -4   8  10 134.087 19.7505   8
   4  -8 -10 91.8058 44.1238   1
   4  -8 -10 125.510 28.0709   2
   4  -8 -10 105.874 19.3092   8
   4  -8  -9 430.507 48.8565   1
   4  -8  -9 389.472 32.3753   2
   4  -8  -9 341.245 24.7344   8
  -4   8   9 372.270 22.5182   8
   4  -8  -8-6.59692 13.3417   8
   4  -8  -8-5.54951 23.3182   2
  -4   8   8 20.3845 15.0432   8
   4  -8  -7 139.431 16.4030   8
   4  -8  -7 123.788 16.4794   6
  -4   8   7 147.460 15.9417   8
   4  -8  -6 17.5819 11.0957   8
  -4   8   6 29.9187 12.7264   8
   4  -8  -6 6.99137 11.8971   6
   4  -8  -5 69.7785 11.8173   8
   4  -8  -5 62.2486 13.1687   6
   4  -8  -5 64.3011 12.5717   2
  -4   8   5 88.3398 12.8071   8
   4  -8  -4 195.664 15.8049   6
   4  -8  -4 178.125 15.4796   2
   4  -8  -4 167.877 13.9798   8
  -4   8   4 150.110 22.9917   5
   4  -8  -3 1148.34 39.0906   2
   4  -8  -3 1062.35 35.1155   8
  -4   8   3 1193.21 42.5318   5
   4  -8  -2 333.048 15.0708   8
  -4   8   2 297.351 12.3226   7
   4  -8  -2 371.795 18.9701   2
  -4   8   2 400.111 22.8896   5
  -4   8   2 354.654 18.3171   4
   4  -8  -1 1.86794 5.52063   8
   4  -8  -1 12.9768 8.94066   2
  -4   8   1-0.15738 13.9841   5
  -4   8   1-3.36465 10.6191   4
   4  -8   0 146.527 12.0226   2
  -4   8   0 162.655 12.3756   4
  -4   8   0 134.001 15.1583   5
   4  -8   1 489.354 20.9119   2
  -4   8  -1 429.127 21.7947   5
  -4   8  -1 540.940 19.0758   4
   4  -8   2 153.010 11.8771   2
  -4   8  -2 122.151 14.0999   5
  -4   8  -2 153.425 11.9670   4
   4  -8   3 251.279 14.0561   2
  -4   8  -3 214.914 16.5999   5
  -4   8  -4 518.279 19.5334   3
   4  -8   4 443.515 18.8606   2
   4  -8   4 505.264 26.6102   5
  -4   8  -4 421.862 21.4495   5
  -4   8  -5 237.529 15.3196   3
   4  -8   5 212.981 13.2902   2
   4  -8   5 245.477 15.4205   1
   4  -8   5 235.423 19.4387   5
   4  -8   6-3.94858 8.10128   1
  -4   8  -6 12.2922 12.9500   3
   4  -8   6-5.74196 11.7590   5
   4  -8   6 4.08494 7.43975   2
   4  -8   6-4.76161 9.10185   4
  -4   8  -7 92.4392 16.1917   3
   4  -8   7 119.217 10.1205   1
   4  -8   7 104.495 15.1907   5
   4  -8   7 91.5803 12.0270   4
   4  -8   8 257.185 12.0521   1
  -4   8  -8 235.190 20.1658   3
   4  -8   8 245.587 20.0268   5
   4  -8   8 218.626 12.0086   1
   4  -8   8 250.469 16.5105   4
  -4   8  -9-26.9780 17.7499   3
   4  -8   9-5.31383 13.4083   5
   4  -8   9 13.0270 9.46956   4
   4  -8  10 9.71473 9.77112   4
   4  -8  10 2.79945 13.0323   5
   4  -8  11 7.32617 14.6872   5
   4  -8  11 18.0475 10.8138   4
   4  -7 -13 24.7379 37.8741   1
   4  -7 -12 10.7611 14.7624   8
  -4   7  12-27.9454 26.4777   7
  -4   7  12-22.0455 26.5525   3
   4  -7 -12-22.8125 38.7575   1
   4  -7 -12-7.27695 25.8346   2
  -4   7  12 7.52951 20.4049   8
  -4   7  11 14.2834 24.0630   3
   4  -7 -11 49.8131 25.3726   2
  -4   7  11 67.9180 20.1818   8
   4  -7 -11 69.9856 16.6364   8
   4  -7 -11 37.3764 39.4556   1
   4  -7 -10 81.6364 16.8295   8
   4  -7 -10 57.8399 38.9210   1
   4  -7 -10 98.9499 23.8349   2
  -4   7  10 121.775 19.1088   8
   4  -7  -9 414.401 29.2709   2
  -4   7   9 391.600 22.6715   8
   4  -7  -9 392.039 24.6969   8
   4  -7  -8 341.315 27.5152   2
  -4   7   8 326.951 20.1325   8
   4  -7  -8 308.966 21.2867   8
   4  -7  -7 251.694 24.9517   2
  -4   7   7 259.729 17.2928   8
   4  -7  -7 255.826 18.6488   8
  -4   7   6 824.819 28.2979   8
   4  -7  -6 811.745 31.4511   8
  -4   7   5 195.341 13.8661   8
   4  -7  -5 190.288 14.5063   8
  -4   7   4 1070.36 31.4698   8
   4  -7  -4 1060.37 36.9072   2
  -4   7   4 1174.05 43.0865   5
   4  -7  -4 1059.91 34.8702   8
   4  -7  -3 2.12556 7.56935   8
   4  -7  -3 2.61480 8.25068   2
  -4   7   3-5.57400 16.7175   5
  -4   7   3 9.09952 8.50896   8
   4  -7  -2 1945.81 55.2604   2
  -4   7   2 1975.12 56.8924   5
  -4   7   2 1853.35 53.1456   4
   4  -7  -2 1810.34 50.4872   8
   4  -7  -1 356.221 17.2837   2
  -4   7   1 321.248 19.5328   5
  -4   7   1 379.651 17.4520   4
   4  -7  -1 304.434 12.3461   8
   4  -7   0 52.1231 8.88660   2
  -4   7   0 34.3816 12.0293   5
  -4   7   0 59.2498 10.4301   4
   4  -7   1 61.3739 8.86823   2
  -4   7  -1 47.5934 11.6091   5
  -4   7  -1 61.4426 9.86413   4
  -4   7  -2 26.8949 9.36661   4
   4  -7   2 28.3197 8.06993   2
  -4   7  -2 11.3560 10.9257   5
   4  -7   3 70.6840 8.99938   2
   4  -7   3 64.0881 12.2544   5
  -4   7  -3 62.4517 12.2250   5
   4  -7   4 721.425 24.0550   2
   4  -7   4 705.066 28.9511   5
  -4   7  -4 679.720 25.9817   5
   4  -7   4 610.253 25.1902   4
  -4   7  -5 715.184 25.2295   3
   4  -7   5 664.225 22.4363   2
   4  -7   5 657.363 25.4081   4
   4  -7   5 709.836 29.1504   5
   4  -7   5 746.949 25.1572   1
  -4   7  -6 94.5711 14.5505   3
   4  -7   6 90.3085 10.5608   4
   4  -7   6 60.5229 6.87557   2
   4  -7   6 124.569 10.0711   1
   4  -7   6 92.9205 13.8528   5
   4  -7   7 15.5653 7.10238   1
   4  -7   7 8.10166 10.6099   5
   4  -7   7 12.4531 8.80241   4
  -4   7  -7 12.4739 14.1560   3
   4  -7   8 105.792 8.02456   1
  -4   7  -8 110.346 17.3346   3
   4  -7   8 92.5141 13.7030   5
   4  -7   8 105.592 11.1942   4
  -4   7  -9-10.7083 17.6618   3
   4  -7   9 10.0236 8.59780   4
   4  -7   9-6.52952 11.2874   5
   4  -7  10 63.1449 11.1055   4
   4  -7  10 61.5308 13.9613   5
   4  -7  11 8.68745 11.9239   5
   4  -7  11 5.55262 10.1834   4
   4  -7  12 179.341 16.0909   4
   4  -6 -14 257.000 38.6215   1
   4  -6 -13 65.7979 35.0029   1
   4  -6 -13 34.3846 15.9458   8
  -4   6  13 26.5500 27.3634   3
  -4   6  13 51.3133 21.8650   8
   4  -6 -13 49.0119 27.1048   2
   4  -6 -12-1.51410 14.1349   8
  -4   6  12 0.44712 24.8609   3
   4  -6 -12-0.47961 23.7532   2
  -4   6  12 9.58992 19.9562   8
   4  -6 -12-54.7231 37.0078   1
   4  -6 -11 243.970 40.8381   1
  -4   6  11 278.628 27.0724   3
   4  -6 -11 308.838 26.3728   2
   4  -6 -11 265.842 21.8211   8
  -4   6  11 278.494 23.1286   8
   4  -6 -10 1.27569 19.3219   2
  -4   6  10-1.33868 17.0758   8
   4  -6 -10-3.61981 12.5128   8
   4  -6  -9 33.4298 19.1236   2
  -4   6   9 23.6742 16.0771   8
   4  -6  -9 16.3160 12.5518   8
   4  -6  -8 63.2165 13.8440   8
   4  -6  -8 62.0505 19.2413   2
  -4   6   8 46.0743 14.6470   8
   4  -6  -7 649.480 30.8784   2
  -4   6   7 573.670 24.2084   8
   4  -6  -7 578.792 26.4522   8
   4  -6  -6 128.221 13.0508   8
  -4   6   6 120.765 13.2525   8
   4  -6  -5-1.32647 8.40856   8
  -4   6   5 0.08224 9.79912   8
   4  -6  -4 2366.62 65.7454   2
  -4   6   4 2211.17 59.3257   8
   4  -6  -4 2375.87 63.3658   8
  -4   6   3 178.810 18.3745   5
   4  -6  -3 151.134 12.3195   2
  -4   6   3 173.201 10.3341   8
   4  -6  -3 170.884 10.7996   8
   4  -6  -2 76.6386 9.41122   2
  -4   6   2 85.7785 7.31894   8
  -4   6   2 64.1928 14.1982   5
   4  -6  -2 72.2177 7.26068   8
   4  -6  -1 254.475 13.4971   2
  -4   6   1 205.773 16.2336   5
  -4   6   1 233.225 14.2430   4
   4  -6  -1 217.033 9.61093   8
   4  -6   0 468.107 19.0639   2
  -4   6   0 507.429 18.6698   4
  -4   6   0 441.576 20.3691   5
   4  -6   1 495.754 19.0290   2
   4  -6   1 526.190 22.9932   5
  -4   6  -1 446.989 20.2145   5
  -4   6  -1 528.928 18.9726   4
   4  -6   2 313.105 17.2791   5
   4  -6   2 293.540 13.8822   2
  -4   6  -2 265.059 15.9791   5
  -4   6  -2 299.485 14.3144   4
   4  -6   3 2130.71 56.4536   2
   4  -6   3 2153.48 61.2927   5
  -4   6  -3 2067.88 58.3460   5
   4  -6   3 2230.79 59.1066   1
   4  -6   3 2005.69 58.2522   4
   4  -6   4 654.361 21.3671   2
  -4   6  -4 675.296 25.0933   5
   4  -6   4 623.515 23.5318   4
   4  -6   4 678.831 23.6295   1
   4  -6   4 672.563 26.5620   5
  -4   6  -5 15.6801 11.0617   3
   4  -6   5 8.79393 7.60592   1
   4  -6   5 17.9486 9.51414   5
   4  -6   5 8.86505 5.37761   2
   4  -6   5 17.3287 7.18901   4
  -4   6  -6 6.14274 12.4617   3
   4  -6   6-0.17297 6.99807   1
   4  -6   6 2.89467 9.33980   5
   4  -6   6 9.47484 7.00292   4
   4  -6   7 432.204 15.4348   1
   4  -6   7 400.516 20.7259   5
   4  -6   7 401.806 18.1481   4
  -4   6  -7 373.786 21.5355   3
  -4   6  -8 197.534 19.1125   3
   4  -6   8 214.648 9.47604   1
   4  -6   8 177.145 14.9479   5
   4  -6   8 181.526 13.2927   4
  -4   6  -9-15.7644 16.5436   3
   4  -6   9 2.43925 8.34795   4
   4  -6   9-2.26780 9.85348   5
  -4   6 -10 84.0632 20.1059   3
   4  -6  10 108.581 13.5338   5
   4  -6  10 92.8949 12.7348   4
   4  -6  11 114.542 14.5477   5
   4  -6  11 119.598 13.3473   4
   4  -6  12 56.4491 12.6086   4
   4  -6  12 48.7175 13.2351   5
   4  -5 -15 9.50079 26.5904   2
   4  -5 -14 168.604 33.4060   1
   4  -5 -14 131.873 27.9636   2
  -4   5  13 28.4694 25.8243   3
   4  -5 -13 57.6198 16.0858   8
   4  -5 -13 28.6949 32.6980   1
   4  -5 -13 41.0919 24.7377   2
  -4   5  13 35.1232 22.6190   8
   4  -5 -12-3.14087 13.4315   8
  -4   5  12-39.3454 25.1872   3
   4  -5 -12 0.66018 20.5529   2
  -4   5  12-15.1255 21.0073   8
   4  -5 -11 11.9608 18.9113   2
   4  -5 -11-0.26329 12.2052   8
  -4   5  11-28.2472 19.2913   8
   4  -5 -10 35.9380 12.9660   8
   4  -5 -10 26.5228 18.4761   2
  -4   5  10 5.83589 17.4009   8
   4  -5  -9 996.809 39.1282   8
   4  -5  -9 1119.19 40.4144   2
  -4   5   9 1095.14 37.9602   8
   4  -5  -8 1.77879 10.1396   8
  -4   5   8 10.8745 14.0849   8
   4  -5  -8-4.48649 16.2837   2
   4  -5  -7 592.338 27.9114   2
   4  -5  -7 544.227 24.6724   8
  -4   5   7 581.180 23.8992   8
  -4   5   6 181.122 13.9733   8
  -4   5   6 186.688 16.2660   6
   4  -5  -6 163.351 13.3114   8
  -4   5   5 1540.62 44.6934   6
  -4   5   5 1531.63 42.7101   8
   4  -5  -5 1434.92 44.5478   8
   4  -5  -4 7.90555 6.96833   8
  -4   5   4 12.6725 10.6582   6
   4  -5  -4 14.5530 7.63127   2
  -4   5   4 26.9328 9.03225   8
  -4   5   3 55.9063 10.8107   6
  -4   5   3 61.8531 8.90615   8
   4  -5  -3 63.0078 8.74302   2
  -4   5   3 60.9429 15.2323   5
   4  -5  -3 64.0741 7.32677   8
  -4   5   2 820.254 26.8393   6
   4  -5  -2 868.226 25.9389   8
   4  -5  -2 904.054 29.4248   2
  -4   5   2 897.111 31.4907   5
  -4   5   2 874.549 24.0936   8
  -4   5   1 0.58691 8.98054   4
  -4   5   1 2.25695 8.23904   6
   4  -5  -1-1.96090 6.10932   2
  -4   5   1 4.98288 4.23282   8
  -4   5   1-1.45748 10.5716   5
   4  -5  -1 2.23788 3.64426   8
  -4   5   0 533.993 17.3906   6
   4  -5   0 552.152 19.8706   2
  -4   5   0 505.379 20.3739   5
  -4   5   0 466.473 18.6899   4
  -4   5  -1 639.219 18.6987   6
   4  -5   1 620.230 24.0189   5
  -4   5  -1 583.440 22.7503   5
   4  -5   1 642.967 21.4130   2
  -4   5  -1 589.632 21.0556   4
   4  -5   2 946.264 31.2548   5
  -4   5  -2 916.130 24.9344   7
   4  -5   2 981.021 28.3498   2
  -4   5  -2 965.518 30.1517   5
   4  -5   2 907.133 29.5462   4
   4  -5   2 1027.08 30.5131   1
  -4   5  -2 833.731 28.0664   4
   4  -5   3 14.8063 6.90845   1
   4  -5   3 16.6734 7.32024   5
   4  -5   3 11.4186 5.75882   2
  -4   5  -3 19.9588 9.81475   5
   4  -5   3 11.9429 5.92814   4
   4  -5   4 558.658 20.0278   1
   4  -5   4 569.947 22.2699   5
   4  -5   4 512.586 16.6763   2
   4  -5   4 568.605 20.2864   4
  -4   5  -5 1438.89 43.5920   3
   4  -5   5 1560.91 45.8283   5
   4  -5   5 1508.70 43.0436   4
   4  -5   5 1532.22 42.1924   1
  -4   5  -6 148.099 15.0799   3
   4  -5   6 148.583 9.50832   1
  -4   5  -6 104.409 9.69304   8
   4  -5   6 158.421 12.0355   5
   4  -5   6 156.255 10.9377   4
  -4   5  -7 34.1913 10.8113   8
  -4   5  -7 36.5707 13.8875   3
   4  -5   7 47.4974 6.65913   1
   4  -5   7 47.0990 8.62873   4
   4  -5   7 50.7326 10.4424   5
  -4   5  -8 172.531 15.6789   8
   4  -5   8 206.785 13.9540   4
  -4   5  -8 204.859 18.9650   3
   4  -5   8 186.114 14.9387   5
   4  -5   8 233.287 10.0195   1
  -4   5  -9 32.1902 14.5609   8
  -4   5  -9 62.3755 17.6788   3
   4  -5   9 16.4282 2.95991   1
   4  -5   9 36.9499 10.4272   5
   4  -5   9 44.8554 9.30142   4
   4  -5  10 21.3884 8.74773   4
  -4   5 -10 31.0211 17.6666   3
   4  -5  10 20.8225 10.2044   5
  -4   5 -10 31.4030 17.1554   8
  -4   5 -11 100.112 20.2733   8
   4  -5  11 112.465 14.3633   5
   4  -5  11 123.638 13.4510   4
   4  -5  12 86.9460 15.2029   5
   4  -5  12 112.744 14.3341   4
   4  -4 -15 81.0211 25.2069   2
   4  -4 -14-15.1710 14.9343   8
  -4   4  14-7.57736 26.6084   3
   4  -4 -14 7.67468 23.4202   2
   4  -4 -14-3.62921 26.9791   1
  -4   4  14-19.6680 23.6675   8
  -4   4  13 29.2717 25.4464   3
   4  -4 -13 30.4545 14.1110   8
   4  -4 -13 42.0484 22.4272   2
   4  -4 -13 11.7215 29.4102   1
  -4   4  13 17.3854 22.0880   8
   4  -4 -12 276.716 21.4122   8
  -4   4  12 279.445 27.9284   3
   4  -4 -12 307.761 25.2697   2
  -4   4  12 295.122 26.5321   8
   4  -4 -11 210.845 18.8474   8
   4  -4 -11 214.163 22.1757   2
   4  -4 -10 161.635 20.2784   2
  -4   4  10 192.240 20.2672   8
   4  -4 -10 154.959 16.1475   8
   4  -4  -9 152.772 18.5131   2
  -4   4   9 172.879 18.4005   8
   4  -4  -9 142.063 15.1912   8
  -4   4   8 820.525 31.8499   8
   4  -4  -8 772.766 32.0621   8
   4  -4  -7 181.907 14.3213   8
  -4   4   7 205.064 16.4133   8
   4  -4  -7 208.977 17.7512   2
   4  -4  -6 178.063 13.4032   8
  -4   4   6 211.376 15.7493   6
   4  -4  -6 189.245 16.8399   2
  -4   4   6 205.224 14.7255   8
  -4   4   5 264.024 15.8374   6
  -4   4   5 265.249 14.6626   8
   4  -4  -5 261.800 14.3803   8
   4  -4  -4 369.227 15.9760   8
  -4   4   4 372.575 17.5944   6
  -4   4   4 359.630 15.7797   8
   4  -4  -3 8.53842 5.51520   8
  -4   4   3 11.5539 8.56083   6
   4  -4  -3 8.42851 5.79825   2
  -4   4   3 8.80363 7.73470   8
   4  -4  -2 2589.63 64.8027   8
  -4   4   2 2543.61 65.7453   6
   4  -4  -2 2575.53 68.0255   2
  -4   4   2 2481.59 63.6380   8
  -4   4   1 514.936 17.8885   6
   4  -4  -1 526.096 18.8982   2
  -4   4   1 497.092 15.0732   8
  -4   4   1 498.954 19.6844   4
  -4   4   0 408.472 16.8740   4
  -4   4   0 420.298 15.4316   6
   4  -4   0 463.720 16.5813   2
  -4   4   0 451.280 17.8603   5
   4  -4   1 117.360 9.12456   1
  -4   4  -1 111.151 8.06421   6
   4  -4   1 129.896 8.24455   2
   4  -4   1 106.863 9.25060   5
  -4   4  -1 120.910 11.2273   5
  -4   4  -1 100.157 9.21748   4
  -4   4  -2 4026.29 94.1056   7
  -4   4  -2 3923.33 97.2604   5
   4  -4   2 3943.53 99.0677   5
   4  -4   2 4055.58 95.5894   2
  -4   4  -2 3627.41 92.9552   6
   4  -4   2 3890.26 97.6165   4
  -4   4  -2 3546.99 96.1097   4
   4  -4   2 3751.34 97.0362   1
  -4   4  -3 1390.74 36.8572   7
   4  -4   3 1384.54 40.7776   5
  -4   4  -3 1357.38 39.7928   5
   4  -4   3 1370.74 39.2586   4
   4  -4   3 1360.97 38.9239   1
  -4   4  -4 0.71160 6.06904   8
   4  -4   4-0.25667 5.65016   1
   4  -4   4 3.41653 5.81638   5
   4  -4   4 3.94320 4.66785   4
  -4   4  -5 2.51456 10.2578   3
  -4   4  -5 1.80907 7.95288   8
   4  -4   5 5.46936 6.55400   5
   4  -4   5 9.80610 5.48126   1
   4  -4   5 4.93487 5.60214   4
  -4   4  -6 109.208 14.3829   3
   4  -4   6 117.153 8.53831   1
   4  -4   6 116.345 10.6429   5
   4  -4   6 116.276 9.69623   4
  -4   4  -6 87.5819 11.2652   8
  -4   4  -7 542.139 24.9360   3
   4  -4   7 523.627 22.3768   5
   4  -4   7 607.578 18.0164   1
   4  -4   7 534.170 20.7162   4
   4  -4   8 81.8007 7.30101   1
  -4   4  -8 95.7990 17.0354   3
  -4   4  -8 68.7760 14.5897   8
   4  -4   8 84.2238 11.3916   5
   4  -4   8 88.9754 10.0132   4
  -4   4  -9 478.966 25.6315   3
  -4   4  -9 397.087 22.7089   8
   4  -4   9 417.323 20.5513   5
   4  -4   9 341.839 12.9044   1
   4  -4   9 478.762 19.6568   4
  -4   4 -10 6.11320 17.9651   8
  -4   4 -10 33.8684 17.7950   3
   4  -4  10 23.0126 8.94821   4
   4  -4  10 13.0551 10.1138   5
   4  -4  11 4.85602 9.49685   4
   4  -4  11 3.80442 10.6556   5
  -4   4 -11-0.99287 19.9551   8
   4  -4  12 75.3102 12.5732   4
   4  -4  12 33.8476 12.8922   5
  -4   3  14 77.0582 26.3002   3
   4  -3 -14 85.4850 26.0297   1
   4  -3 -14 96.6558 21.7966   2
   4  -3 -14 32.8229 16.4791   1
   4  -3 -13 7.74975 19.5879   2
  -4   3  13 44.7176 22.3852   8
   4  -3 -12 5.00334 12.5899   8
  -4   3  12 38.2243 20.9491   8
   4  -3 -12-2.05678 18.3132   2
  -4   3  11 125.680 13.3218   6
   4  -3 -11 118.142 19.5515   2
  -4   3  11 165.816 21.9772   8
   4  -3 -11 134.216 15.5002   8
  -4   3  10 1027.28 35.6752   6
  -4   3  10 1124.58 40.2369   8
   4  -3 -10 1132.11 39.5017   2
   4  -3 -10 1032.21 38.9168   8
   4  -3  -9 17.7818 9.76446   8
  -4   3   9 12.7393 8.06108   6
   4  -3  -9 18.9782 15.5378   2
  -4   3   9 18.0094 15.0820   8
   4  -3  -8 429.810 22.4993   2
   4  -3  -8 356.834 19.3515   8
  -4   3   8 393.652 22.0715   8
   4  -3  -7 565.362 24.2774   2
  -4   3   7 494.810 22.9655   8
   4  -3  -7 462.007 21.4091   8
   4  -3  -6 240.975 16.4236   2
  -4   3   6 220.189 15.7501   8
   4  -3  -6 215.356 13.4103   8
   4  -3  -5 6.83439 7.16678   8
  -4   3   5 6.48825 10.1731   6
  -4   3   5 3.71455 10.7090   8
   4  -3  -4 382.463 16.0139   8
  -4   3   4 339.306 16.0838   2
  -4   3   4 400.369 17.3372   6
  -4   3   4 384.211 16.5014   8
  -4   3   3 8904.97 211.479   6
  -4   3   3 8291.66 210.797   2
   4  -3  -3 8627.25 212.494   2
  -4   3   3 8875.14 210.308   8
   4  -3  -3 8735.52 210.919   8
  -4   3   2 857.476 25.7711   2
   4  -3  -2 839.389 26.6162   2
  -4   3   2 824.334 24.3712   8
  -4   3   1 4074.28 102.189   8
  -4   3   1 4297.04 104.043   2
   4  -3  -1 4190.96 105.581   2
  -4   3   1 4359.46 106.137   4
   4  -3  -1 4173.96 105.867   1
  -4   3   0 296.813 12.1948   2
   4  -3   0 285.148 11.9688   2
   4  -3   0 279.504 12.6938   1
  -4   3   0 274.155 12.9536   4
   4  -3   1 1416.84 38.6233   2
   4  -3   1 1499.16 41.2116   4
  -4   3  -1 1432.53 40.2708   4
   4  -3   1 1463.66 40.4803   1
  -4   3  -2 262.512 11.2603   7
  -4   3  -2 236.706 12.9673   5
   4  -3   2 263.269 11.9055   4
  -4   3  -2 255.561 8.94703   8
  -4   3  -2 274.054 12.8799   4
   4  -3   2 251.967 11.8021   1
   4  -3   3 667.503 22.0164   1
  -4   3  -3 741.142 21.7931   7
   4  -3   3 692.272 21.9102   4
  -4   3  -3 640.090 19.3737   8
   4  -3   4 697.343 22.3193   4
   4  -3   4 678.670 21.8149   1
  -4   3  -4 682.716 22.3257   7
  -4   3  -4 623.731 20.6614   8
   4  -3   4 674.085 23.2820   5
  -4   3  -5 45.1234 11.7988   3
   4  -3   5 27.3309 6.84081   5
  -4   3  -5 22.9466 9.60307   8
   4  -3   5 30.1816 5.99294   4
   4  -3   5 31.7270 5.98894   1
  -4   3  -6 295.489 17.8320   3
  -4   3  -6 200.923 9.52604   6
  -4   3  -6 270.597 15.6482   8
   4  -3   6 257.106 13.8829   5
   4  -3   6 300.498 11.7732   1
   4  -3   6 274.041 13.1034   4
  -4   3  -7 172.460 17.1988   3
  -4   3  -7 120.514 8.90850   6
   4  -3   7 179.363 9.52984   1
  -4   3  -7 132.721 15.3945   8
   4  -3   7 157.224 11.0842   4
   4  -3   7 137.421 11.8688   5
   4  -3   8 216.946 10.3087   1
  -4   3  -8 214.730 19.8043   3
   4  -3   8 189.563 14.1105   5
   4  -3   8 206.703 13.1154   4
  -4   3  -8 162.928 17.6928   8
  -4   3  -9 278.217 23.0936   3
   4  -3   9 224.371 15.6091   5
  -4   3  -9 216.933 20.7957   8
   4  -3   9 184.647 10.6727   1
   4  -3   9 251.744 14.6594   4
  -4   3 -10 130.840 21.1124   3
   4  -3  10 105.049 13.0440   5
  -4   3 -10 76.6069 19.9925   8
   4  -3  10 113.864 12.0240   4
   4  -3  11 295.731 17.8739   4
   4  -3  11 287.502 18.8869   5
  -4   3 -11 250.780 25.2733   8
   4  -3  12 84.3065 12.8260   4
  -4   3 -12 61.1110 23.5163   8
   4  -3  12 53.3542 13.1755   5
   4  -2 -15 27.0350 27.8938   8
   4  -2 -14 17.0676 15.2719   1
   4  -2 -14-3.58285 22.3733   1
   4  -2 -13 201.522 27.2213   1
   4  -2 -13 262.645 18.9642   1
  -4   2  12 385.916 19.8701   6
   4  -2 -12 357.392 23.3645   2
   4  -2 -12 323.948 19.4240   1
  -4   2  11 278.248 17.0602   6
   4  -2 -11 297.991 21.5179   2
  -4   2  11 285.105 25.2180   8
  -4   2  10 296.185 16.5037   6
   4  -2 -10 320.061 21.7589   2
  -4   2  10 348.541 24.5496   8
  -4   2   9 18.5219 7.94718   6
   4  -2  -9 14.9401 9.42293   8
   4  -2  -9 11.3829 14.7425   2
  -4   2   9 24.5517 16.4030   8
   4  -2  -8 24.4079 8.81048   8
  -4   2   8 35.6342 7.86199   6
  -4   2   8 18.4941 6.87476   2
   4  -2  -8 33.3528 14.6539   2
  -4   2   8 9.06378 14.8066   8
  -4   2   7 127.148 15.0887   8
  -4   2   7 102.549 8.72654   2
   4  -2  -7 131.124 15.1187   2
   4  -2  -7 107.855 10.7135   8
  -4   2   6 46.8951 11.6776   8
  -4   2   6 46.0290 6.81980   2
   4  -2  -6 63.8683 12.5513   2
   4  -2  -6 46.2097 7.63845   8
   4  -2  -5 2699.03 72.3571   8
  -4   2   5 2677.12 71.8171   8
   4  -2  -4 4.40313 5.08824   8
  -4   2   4 4.82832 9.22406   8
   4  -2  -4 7.38416 9.92481   1
  -4   2   3 9340.77 211.493   2
  -4   2   3 8585.47 212.595   5
  -4   2   3 9072.43 210.918   8
  -4   2   2 1607.93 40.5521   8
  -4   2   2 1551.21 41.0977   2
  -4   2   2 1428.05 41.2842   5
   4  -2  -2 1344.55 40.4469   2
  -4   2   1 536.922 17.0122   8
  -4   2   1 515.697 18.0786   2
   4  -2  -1 504.625 19.2374   5
  -4   2   1 515.116 18.9860   4
  -4   2   0 203.502 10.8855   2
   4  -2   0 210.304 12.3716   5
  -4   2   0 208.818 11.0658   4
   4  -2   0 181.338 9.69484   1
  -4   2  -1 2457.00 65.6456   4
  -4   2  -1 2634.33 64.2389   2
  -4   2  -1 2628.83 65.7978   1
   4  -2   1 2409.70 65.6718   1
  -4   2  -2 1025.47 31.2843   7
  -4   2  -2 1133.74 30.1577   2
  -4   2  -2 1149.70 32.8702   1
  -4   2  -2 1194.27 29.6697   8
   4  -2   2 991.846 31.5173   4
  -4   2  -2 1138.58 32.5755   4
   4  -2   2 1084.32 31.9630   1
  -4   2  -3 99.8993 9.23400   7
   4  -2   3 85.2265 7.42119   1
  -4   2  -3 82.4185 6.97261   2
  -4   2  -3 86.5297 7.87813   8
   4  -2   3 92.5184 7.13209   4
  -4   2  -3 82.4077 10.0841   1
   4  -2   4 2741.28 69.2493   1
  -4   2  -4 2720.38 69.1943   1
   4  -2   4 2640.19 69.6701   4
  -4   2  -4 2613.84 68.1286   8
  -4   2  -4 2696.78 70.0979   7
   4  -2   5 32.8301 6.10335   4
  -4   2  -5 30.5143 10.4121   1
  -4   2  -5 31.1269 9.87224   8
  -4   2  -5 33.4467 11.4953   3
   4  -2   5 33.7350 6.03953   1
   4  -2   6 115.991 10.3319   5
  -4   2  -6 108.016 13.6082   8
  -4   2  -6 158.506 16.1464   3
   4  -2   6 146.050 9.30930   1
  -4   2  -6 117.519 12.7845   1
   4  -2   6 110.788 9.00378   4
   4  -2   7 3.20765 6.72954   4
  -4   2  -7 0.71029 11.8474   1
  -4   2  -7-4.74955 14.7988   3
  -4   2  -7 0.39925 9.02609   6
   4  -2   7 10.7882 6.77376   1
   4  -2   7 0.97946 7.53342   5
  -4   2  -7 1.76386 13.3315   8
   4  -2   8 43.8297 7.46318   1
  -4   2  -8 31.3209 15.9862   8
  -4   2  -8 35.5359 12.9304   1
   4  -2   8 29.8634 8.46077   4
  -4   2  -8 26.9907 10.3514   6
   4  -2   8 28.2805 9.11125   5
  -4   2  -8 19.8588 17.1525   3
  -4   2  -9 62.7910 17.9598   8
  -4   2  -9 37.5704 11.8907   6
   4  -2   9 53.6810 8.79540   1
   4  -2   9 75.2054 11.1954   5
  -4   2  -9 69.9262 19.5554   3
   4  -2   9 70.6998 10.4340   4
  -4   2 -10 18.5459 18.9942   8
   4  -2  10 28.1374 9.34424   4
  -4   2 -10 21.7903 19.7341   3
  -4   2 -10 2.16511 13.1352   6
   4  -2  10 27.3906 10.4835   5
  -4   2 -11 164.609 24.5259   8
   4  -2  11 153.169 15.5061   5
   4  -2  11 188.352 14.8167   4
   4  -2  12 14.2107 10.7823   4
  -4   2 -12 18.8191 23.7706   8
   4  -2  12 19.3158 11.8839   5
  -4   2 -13 14.2264 25.6798   8
   4  -1 -15 141.066 29.4385   8
  -4   1  15 157.399 17.4751   3
  -4   1  15 151.522 17.5408   8
   4  -1 -14 6.76205 14.1558   1
  -4   1  14 2.74844 12.3731   3
   4  -1 -14-19.4535 26.2285   8
   4  -1 -14-15.1502 19.2388   1
  -4   1  14-4.09991 13.0286   8
   4  -1 -13 4.63741 22.6079   8
   4  -1 -13 2.68590 13.8873   1
  -4   1  13 5.33308 11.4614   3
  -4   1  13 23.8355 10.5204   6
  -4   1  12 674.930 26.8024   6
   4  -1 -12 643.724 25.0493   1
  -4   1  11 144.385 12.9132   6
   4  -1 -11 120.300 13.8526   1
   4  -1 -10 22.7958 11.6524   1
  -4   1  10 29.9682 8.67737   6
  -4   1  10 24.6805 7.97358   2
   4  -1  -9 292.165 16.0257   1
  -4   1   9 290.685 14.8148   2
  -4   1   9 307.581 15.7608   6
  -4   1   8 3184.45 85.1185   6
  -4   1   8 3101.95 84.2458   2
   4  -1  -8 3171.20 82.5623   1
   4  -1  -7 799.192 29.1896   8
  -4   1   7 797.798 27.4754   6
  -4   1   7 801.084 27.1610   2
   4  -1  -7 824.190 28.5816   2
   4  -1  -7 832.951 26.8528   1
  -4   1   7 910.392 31.9718   8
   4  -1  -6 676.886 24.7940   8
  -4   1   6 651.244 23.5818   2
   4  -1  -6 704.822 24.8701   2
   4  -1  -6 725.753 23.7091   1
  -4   1   6 757.258 27.5251   8
  -4   1   5 3101.29 79.4270   8
   4  -1  -5 3062.38 76.6476   1
  -4   1   4 3907.14 99.3627   8
  -4   1   4 3993.05 100.185   5
   4  -1  -4 3829.44 97.8479   1
  -4   1   3 1803.84 50.4473   5
  -4   1   3 1938.79 51.8131   2
  -4   1   3 1953.97 51.3176   8
   4  -1  -3 1855.63 50.2947   1
   4  -1  -2 128.132 9.99825   5
  -4   1   2 115.566 7.13288   5
  -4   1   2 130.623 10.9025   2
  -4   1   2 127.741 9.27222   8
   4  -1  -1 729.345 21.9655   5
  -4   1   1 716.635 22.3015   2
  -4   1   1 623.005 20.3422   5
  -4   1   1 658.324 22.5382   1
  -4   1   0 488.562 17.8479   1
   4  -1   0 441.500 15.9902   1
   4  -1   0 500.764 16.9191   5
  -4   1   0 448.649 16.3498   2
  -4   1   0 413.456 15.0001   5
   4  -1   1 364.116 14.3714   1
   4  -1   1 403.797 15.4567   5
  -4   1  -1 363.585 15.8801   1
  -4   1  -2 2884.94 77.0377   7
   4  -1   2 2985.48 77.2084   1
   4  -1   2 3059.06 77.6386   5
  -4   1  -2 3141.48 75.7608   8
  -4   1  -2 3013.12 77.2222   1
  -4   1  -3 379.184 16.6560   7
   4  -1   3 419.977 15.7544   1
  -4   1  -3 441.427 15.6839   8
  -4   1  -3 403.371 17.0917   1
  -4   1  -4 945.764 30.6516   7
   4  -1   4 992.141 29.0845   1
  -4   1  -4 976.587 29.5041   8
  -4   1  -4 982.248 30.0767   1
  -4   1  -5 3.29461 10.1056   1
  -4   1  -5 5.07518 9.86977   8
   4  -1   5 3.52962 5.86527   1
   4  -1   6 1333.53 36.7631   1
  -4   1  -6 1183.56 38.2621   8
  -4   1  -6 1221.58 36.7680   1
  -4   1  -7 267.204 16.4980   1
  -4   1  -7 255.013 18.8872   8
   4  -1   7 278.113 13.4853   1
  -4   1  -8 34.5377 18.0649   3
  -4   1  -8 24.7128 11.5501   6
   4  -1   8 35.3393 8.48200   1
  -4   1  -8 26.6933 13.2504   1
  -4   1  -8 19.3180 16.2087   8
  -4   1  -9 195.282 15.8578   6
  -4   1  -9 259.906 24.2035   3
   4  -1   9 177.743 13.2449   1
   4  -1   9 218.161 15.6263   5
  -4   1  -9 217.870 16.8349   1
  -4   1  -9 210.387 21.5781   8
  -4   1 -10 74.9347 20.8331   8
  -4   1 -10 59.9918 15.2359   1
  -4   1 -10 76.3829 22.1328   3
  -4   1 -10 47.1545 14.8281   6
   4  -1  10 66.9867 11.8370   5
   4  -1  11 9.78944 10.1826   4
  -4   1 -11 11.2814 15.9416   6
   4  -1  11 7.87780 10.6174   5
  -4   1 -11 3.69646 22.0588   8
  -4   1 -12 20.2712 24.5474   8
  -4   1 -13 70.3416 28.2110   8
  -4   0  15 40.4058 14.2862   8
  -4   0  15 22.0896 12.9463   3
   4   0 -15 42.7740 24.6175   8
   4   0 -14 131.292 14.8343   1
  -4   0  14 118.539 15.5865   3
  -4   0  14 129.649 16.5457   8
  -4   0  14 132.686 14.5346   6
   4   0 -14 142.435 17.0687   1
   4   0 -14 123.291 25.8384   8
   4   0 -13 492.652 31.3781   8
  -4   0  13 411.282 23.4787   3
  -4   0  13 483.357 22.5418   6
   4   0 -13 489.304 21.2554   1
  -4   0  13 462.902 25.4048   8
   4   0 -12 13.8014 21.2537   8
   4   0 -12 12.9860 12.7781   1
  -4   0  12 12.8361 9.83865   6
  -4   0  12 1.34666 12.3261   8
   4   0 -11 34.9712 19.4752   8
   4   0 -11 13.8410 12.1077   1
  -4   0  11 37.5501 10.0564   6
  -4   0  11 46.3648 9.48394   2
  -4   0  10 1639.37 48.7423   6
   4   0 -10 1616.98 45.5554   1
  -4   0  10 1643.74 48.2104   2
  -4   0   9 124.364 11.2382   6
  -4   0   9 114.601 10.9439   2
   4   0  -9 119.111 12.1146   1
  -4   0   8 513.959 20.6842   6
  -4   0   8 525.253 21.1591   2
   4   0  -8 534.207 19.8997   1
   4   0  -7 15.7182 9.15701   1
  -4   0   7 18.4897 6.94365   2
  -4   0   6 1180.45 36.2386   2
   4   0  -6 1218.03 33.9966   1
  -4   0   6 1086.87 37.6692   8
  -4   0   5 2152.94 60.0640   8
   4   0  -5 2166.36 56.7682   1
  -4   0   4 2930.68 76.3156   8
  -4   0   4 2982.42 74.9038   5
  -4   0   4 2841.60 74.7554   1
   4   0  -4 2882.78 74.2571   1
  -4   0   3 4949.14 120.202   8
  -4   0   3 5041.13 119.100   5
   4   0  -3 5135.02 119.852   1
  -4   0   3 4696.23 119.725   1
   4   0  -2 823.979 23.4102   5
  -4   0   2 757.476 22.3234   5
  -4   0   2 738.811 23.8672   4
   4   0  -1 1012.44 27.2610   5
  -4   0   1 931.939 26.5482   5
  -4   0   1 906.525 26.9811   4
   4   0   0 390.377 14.3711   5
   4   0   0 456.876 16.8462   4
  -4   0   0 329.811 12.8007   4
   4   0   0 359.543 14.1125   1
  -4   0   0 423.746 16.8290   1
   4   0   1 2778.55 74.9383   1
   4   0   1 2972.51 74.5132   5
   4   0   1 3009.75 75.3640   4
  -4   0  -1 2983.91 75.4328   1
  -4   0  -2 11.8071 7.65167   7
   4   0   2 8.48432 5.40286   1
  -4   0  -2 7.32437 8.62492   1
   4   0   2 10.4878 8.04545   5
  -4   0  -2-11.2693 8.59242   8
   4   0   2 4.78110 8.26259   4
  -4   0  -3 1566.79 45.5676   7
   4   0   3 1707.16 44.8319   4
   4   0   3 1660.13 45.0809   5
   4   0   3 1629.80 44.4963   1
  -4   0  -3 1467.67 44.1486   1
  -4   0  -3 1646.89 44.4453   8
  -4   0  -4 1013.71 34.0163   7
   4   0   4 1116.34 34.0068   5
  -4   0  -4 1014.86 32.2165   1
  -4   0  -4 1164.25 33.4893   8
   4   0   4 1127.85 32.8915   4
   4   0   4 1095.23 32.4305   1
   4   0   5 135.925 9.71736   1
  -4   0  -5 123.733 11.9264   1
  -4   0  -5 132.190 13.8179   8
   4   0   5 124.208 12.0193   4
  -4   0  -6-2.63678 11.9899   1
  -4   0  -6 15.3250 13.4265   8
   4   0   6 6.21470 7.10953   1
   4   0   7 9.61663 7.90421   1
  -4   0  -7-1.16304 12.4404   1
  -4   0  -7 0.56966 14.3209   8
  -4   0  -8 407.874 19.8488   1
  -4   0  -8 321.987 18.7766   6
   4   0   8 383.045 18.2785   1
  -4   0  -8 408.849 24.1014   8
  -4   0  -9 57.4722 15.2564   6
  -4   0  -9 83.4830 16.1978   1
  -4   0  -9 77.5357 19.5470   8
  -4   0 -10 69.3854 17.0389   1
  -4   0 -10 74.0992 17.1616   6
  -4   0 -10 82.9147 22.4305   8
  -4   0 -11 51.2470 24.3746   8
  -4   0 -11 31.7017 17.1370   1
  -4   0 -11 28.8465 17.9159   6
  -4   0 -12 0.79011 26.7820   8
  -4  -1  15 6.26715 11.4141   3
   4   1 -15 32.4091 23.4646   8
  -4  -1  15 12.9428 11.5043   6
  -4  -1  15 3.96830 13.1020   8
   4   1 -14 85.3585 22.8893   8
  -4  -1  14 100.379 12.9798   6
  -4  -1  14 77.4405 14.0312   3
  -4  -1  14 97.3198 16.0210   8
   4   1 -14 86.4335 9.14876   1
  -4  -1  13 354.238 21.0025   3
  -4  -1  13 401.589 19.2707   2
   4   1 -13 381.702 16.1396   1
   4   1 -13 389.406 27.8057   8
  -4  -1  13 379.812 19.8346   6
  -4  -1  13 386.913 24.3133   8
   4   1 -12 175.324 21.8939   8
  -4  -1  12 131.541 14.0215   3
  -4  -1  12 176.602 14.3337   6
  -4  -1  12 177.295 13.3428   2
   4   1 -12 175.192 13.2387   1
  -4  -1  12 157.111 17.0196   8
   4   1 -11 161.357 20.3062   8
   4   1 -11 162.332 13.1441   1
  -4  -1  11 163.680 13.3151   6
  -4  -1  11 180.191 13.7724   2
  -4  -1  11 169.639 15.7958   8
   4   1 -10 1542.96 49.2446   8
  -4  -1  10 1480.68 48.5445   8
  -4  -1  10 1473.77 45.9292   6
  -4  -1  10 1516.87 46.0388   2
   4   1 -10 1528.94 41.8955   1
   4   1  -9 1992.88 53.2442   1
   4   1  -9 2009.20 59.5442   8
  -4  -1   9 2048.90 57.7350   2
   4   1  -8 1984.98 50.7907   1
  -4  -1   8 1989.18 55.5447   2
   4   1  -7 212.816 12.3430   1
  -4  -1   7 208.076 13.4278   2
   4   1  -6 561.193 19.4543   1
  -4  -1   6 552.684 21.5213   2
  -4  -1   6 542.597 18.5281   1
  -4  -1   5 10.6388 5.21522   5
   4   1  -5 11.7278 8.07858   1
  -4  -1   5 11.0092 5.07170   1
  -4  -1   4 229.630 14.8364   8
   4   1  -4 267.300 13.2935   1
  -4  -1   4 260.250 12.1062   1
  -4  -1   4 275.064 10.6969   5
   4   1  -3 2921.27 70.9134   1
  -4  -1   3 2671.48 68.3877   5
  -4  -1   3 2724.20 71.2324   1
   4   1  -2 3606.23 88.7508   1
   4   1  -2 3673.67 86.8952   5
  -4  -1   2 3360.53 86.3659   5
  -4  -1   2 3459.75 88.2513   4
   4   1  -1 807.139 22.3625   5
  -4  -1   1 722.553 22.1253   4
  -4  -1   0 2.10567 3.29302   4
  -4  -1   0 3.67444 9.04089   1
   4   1   0 2.82985 6.51907   5
   4   1   0 7.91320 7.94408   4
  -4  -1  -1 1657.61 46.0352   1
  -4  -1  -1 1580.43 44.3154   4
   4   1   1 1745.71 44.9370   5
   4   1   1 1657.72 45.7779   1
   4   1   1 1784.37 45.5682   4
  -4  -1  -2 9.16374 8.47216   7
   4   1   2 3.62551 7.79117   5
  -4  -1  -2 5.98212 9.31575   1
   4   1   2 4.90063 5.39301   1
  -4  -1  -2-9.16073 9.39127   8
   4   1   2-1.09756 7.84295   4
  -4  -1  -3 295.508 12.9006   3
  -4  -1  -3 330.240 16.7488   7
  -4  -1  -3 288.126 15.3174   1
  -4  -1  -3 309.640 15.7000   8
   4   1   3 330.447 14.6809   4
   4   1   3 321.602 14.0313   1
  -4  -1  -4 267.628 13.1807   3
   4   1   4 300.711 14.2069   1
  -4  -1  -4 321.198 16.6128   8
  -4  -1  -4 300.535 17.0098   7
  -4  -1  -4 291.931 15.7089   1
   4   1   4 315.217 14.9603   4
  -4  -1  -5 219.856 12.9389   3
   4   1   5 238.428 14.8086   4
  -4  -1  -5 283.259 17.1304   8
   4   1   5 231.394 12.5788   1
  -4  -1  -5 229.042 15.0899   1
  -4  -1  -6 389.363 19.0667   1
  -4  -1  -6 357.751 17.9172   3
   4   1   6 384.116 17.8180   1
  -4  -1  -6 391.922 22.1461   8
   4   1   6 411.924 19.5345   4
   4   1   7 18.5506 13.3717   4
  -4  -1  -7 13.7560 9.14418   3
  -4  -1  -7 10.8203 16.2969   8
  -4  -1  -7 11.9684 13.4984   1
   4   1   7 7.74644 9.16109   1
  -4  -1  -8 528.787 24.4745   3
   4   1   8 477.533 23.7656   1
  -4  -1  -8 431.003 24.2218   6
   4   1   8 611.972 26.0735   4
  -4  -1  -8 570.762 24.9251   1
  -4  -1  -8 524.556 28.3774   8
  -4  -1  -9 1.38191 10.5177   3
  -4  -1  -9-3.83392 16.1461   6
   4   1   9-5.06554 16.1654   4
  -4  -1  -9 6.31150 11.8929   2
  -4  -1  -9-0.99002 16.7332   1
  -4  -1  -9 4.05538 19.5256   8
   4   1  10 15.4207 17.6510   4
  -4  -1 -10 12.4748 17.0331   6
  -4  -1 -10 13.3126 17.8206   1
  -4  -1 -10 14.2388 21.7368   8
  -4  -1 -10 4.38428 12.8546   2
   4   1  11-0.72835 18.8064   4
  -4  -1 -11 8.57472 19.1793   6
  -4  -1 -11 1.86984 19.1423   1
  -4  -1 -11-13.0595 26.9361   8
  -4  -1 -12 65.4769 29.6911   8
   4   2 -15 33.0260 23.0629   8
  -4  -2  15 26.1693 11.8617   3
  -4  -2  15 43.4913 11.4809   6
  -4  -2  15 24.3176 13.9959   8
   4   2 -14 47.6758 21.3247   8
  -4  -2  14 28.3584 11.2881   3
  -4  -2  14 20.4053 14.2397   8
  -4  -2  14 49.6478 11.3089   6
  -4  -2  14 28.7567 10.0529   2
   4   2 -13 112.033 20.7552   8
  -4  -2  13 69.1536 12.5346   3
  -4  -2  13 86.2788 12.3687   6
  -4  -2  13 87.4866 12.0394   2
  -4  -2  13 88.5350 15.4409   8
  -4  -2  12 3.72727 11.3059   8
   4   2 -12 18.1333 8.37843   1
  -4  -2  12-10.7226 10.6902   3
  -4  -2  12 4.24957 9.38413   6
  -4  -2  12-3.80773 9.90554   2
   4   2 -12 5.97575 18.0200   8
   4   2 -11 487.747 26.4600   8
  -4  -2  11 484.833 25.0834   8
  -4  -2  11 480.294 22.1040   6
  -4  -2  11 510.990 22.1710   2
   4   2 -11 498.954 17.5693   1
   4   2 -10 114.931 10.9772   1
  -4  -2  10 122.105 12.4136   2
   4   2 -10 125.065 17.5059   8
  -4  -2  10 121.482 13.2846   8
   4   2  -9 185.270 11.9945   1
  -4  -2   9 208.644 14.7856   2
  -4  -2   9 164.915 14.2778   8
   4   2  -8 1419.58 38.4680   1
  -4  -2   8 1485.93 44.5323   2
  -4  -2   7 26.2646 6.33438   1
   4   2  -7 32.7369 8.64704   1
  -4  -2   7 26.5020 8.08797   2
  -4  -2   6 43.5524 6.53232   1
   4   2  -6 49.9350 9.08470   1
   4   2  -5 84.7421 9.85087   1
  -4  -2   5 81.2846 5.80589   5
  -4  -2   5 81.0686 7.74142   1
  -4  -2   4 4890.78 121.161   1
   4   2  -4 4882.24 119.892   1
  -4  -2   4 4823.32 116.931   5
  -4  -2   3 98.1978 7.69778   1
   4   2  -3 75.1231 7.12603   5
   4   2  -3 101.590 10.0938   1
  -4  -2   3 87.8427 7.25725   4
   4   2  -2 2606.76 63.3085   5
   4   2  -2 2710.57 66.7409   1
  -4  -2   2 2513.55 64.6740   4
   4   2  -1 429.469 13.9786   5
   4   2  -1 423.566 17.8595   4
  -4  -2   1 393.648 13.5559   4
   4   2   0 1114.10 30.7387   5
   4   2   0 1221.11 33.4153   4
  -4  -2   0 1069.90 30.5330   4
  -4  -2  -1 1685.09 45.1383   1
   4   2   1 1604.31 43.4275   4
   4   2   1 1536.60 44.4164   1
   4   2   2 88.3113 8.66528   1
  -4  -2  -2 89.1653 11.2070   1
  -4  -2  -2 89.2697 11.3830   8
   4   2   2 99.5059 9.72159   4
  -4  -2  -3 1529.40 46.3726   8
  -4  -2  -3 1557.84 44.7075   3
  -4  -2  -3 1662.09 46.3026   1
   4   2   3 1629.89 46.5615   1
   4   2   3 1758.26 45.1507   4
  -4  -2  -4 30.4796 11.5682   1
   4   2   4 43.1957 10.0566   4
  -4  -2  -4 44.5105 7.35621   3
   4   2   4 43.7680 7.73377   1
  -4  -2  -4 34.0828 11.9300   8
   4   2   5 17.1238 10.1518   4
   4   2   5 20.0771 8.10377   1
  -4  -2  -5 18.1474 7.37258   3
  -4  -2  -5 29.7247 13.0005   8
  -4  -2  -5 19.2159 12.5715   1
  -4  -2  -6 154.545 13.0037   3
  -4  -2  -6 184.698 16.8632   1
   4   2   6 169.259 14.7714   4
  -4  -2  -6 151.625 18.8767   8
   4   2   6 168.368 14.1698   1
   4   2   7 86.7134 14.9622   4
  -4  -2  -7 80.8719 11.9839   3
   4   2   7 67.8123 12.8628   1
  -4  -2  -7 81.8022 16.2857   1
  -4  -2  -7 64.2244 19.0084   8
   4   2   8 6.40866 15.2968   4
  -4  -2  -8-0.92320 10.2332   3
  -4  -2  -8 13.3967 16.7010   1
  -4  -2  -8 5.92855 19.2574   8
   4   2   8-15.8329 12.3962   1
  -4  -2  -9-18.8492 17.2876   6
  -4  -2  -9 7.49221 18.2788   1
   4   2   9-5.77191 16.1999   4
  -4  -2  -9 11.4582 21.7855   8
  -4  -2 -10 190.252 22.8827   1
   4   2  10 198.310 21.1583   4
  -4  -2 -10 124.332 21.5010   6
  -4  -2 -10 129.425 17.9423   2
  -4  -2 -10 163.486 27.7237   8
   4   2  11 9.72964 19.0293   4
  -4  -2 -11 32.1079 27.8604   8
  -4  -2 -11-16.9017 21.4728   6
  -4  -2 -11 17.4878 21.0880   1
  -4  -2 -12 15.1884 23.6888   6
  -4  -3  16 2.00238 11.5864   3
  -4  -3  15 22.2161 11.7514   3
  -4  -3  15 37.9256 11.1922   6
  -4  -3  15 37.1636 10.3955   2
  -4  -3  15 25.8076 14.4378   8
  -4  -3  14 127.499 13.3887   3
  -4  -3  14 133.906 13.4596   6
  -4  -3  14 137.125 13.5705   2
  -4  -3  14 101.114 16.9570   8
  -4  -3  13 385.389 20.7042   3
  -4  -3  13 419.795 21.0421   6
  -4  -3  13 447.655 25.4314   8
  -4  -3  13 414.333 20.8662   2
  -4  -3  12 193.156 15.4947   3
  -4  -3  12 220.755 15.9294   6
  -4  -3  12 207.974 16.3851   2
  -4  -3  12 235.174 19.1818   8
   4   3 -12 275.700 10.8094   1
  -4  -3  11 375.483 19.3940   6
  -4  -3  11 430.694 21.0384   2
   4   3 -11 411.524 15.4199   1
  -4  -3  11 393.123 22.9263   8
  -4  -3  10 9.18071 9.59262   8
  -4  -3  10 6.98802 9.62238   2
   4   3 -10 15.1491 8.71995   1
  -4  -3   9 58.4861 10.9907   8
  -4  -3   9 49.0048 10.4603   2
   4   3  -9 67.3429 9.28843   1
  -4  -3   8 372.467 14.6811   1
  -4  -3   8 352.621 18.9723   8
   4   3  -8 364.538 14.8031   1
   4   3  -7 1650.96 44.0646   1
  -4  -3   7 1621.62 50.1488   8
  -4  -3   7 1652.08 45.3750   1
  -4  -3   6 3157.06 88.9829   8
  -4  -3   6 3380.95 81.7102   5
   4   3  -6 3336.97 84.5529   1
  -4  -3   6 3503.30 86.5787   1
  -4  -3   5 460.265 17.3783   1
   4   3  -5 439.910 17.0452   1
  -4  -3   4 767.301 24.6182   1
   4   3  -4 725.505 24.3636   1
  -4  -3   3 1716.49 48.2856   1
  -4  -3   3 1729.89 46.2879   4
   4   3  -3 1835.05 48.0876   1
  -4  -3   2 3081.71 81.1668   1
   4   3  -2 3085.55 76.7292   5
  -4  -3   2 3160.51 78.1605   4
   4   3  -2 3338.86 81.2615   1
   4   3  -1 292.839 11.0140   5
   4   3  -1 284.590 15.1699   4
  -4  -3   1 293.442 10.5729   4
   4   3   0 58.3143 8.68612   4
   4   3   1 67.3328 7.99436   1
  -4  -3  -1 82.7502 7.49606   7
   4   3   1 89.2797 8.25155   4
  -4  -3  -1 88.9065 11.9938   1
  -4  -3  -2 69.5017 7.03700   3
  -4  -3  -2 76.0496 7.72382   7
  -4  -3  -2 70.8279 12.7318   1
   4   3   2 64.8927 8.05548   1
  -4  -3  -2 86.9067 11.6038   8
   4   3   2 66.7851 8.98404   4
  -4  -3  -3 622.478 21.4104   3
  -4  -3  -3 621.157 24.1129   1
   4   3   3 581.407 22.4812   1
  -4  -3  -3 573.434 23.7740   8
   4   3   3 581.953 20.8470   4
   4   3   4 6.10847 9.53370   4
  -4  -3  -4-5.32303 12.8770   1
  -4  -3  -4 0.11602 6.68960   3
   4   3   4 1.55062 7.79732   1
  -4  -3  -4-16.8430 12.6219   8
  -4  -3  -5 10.7428 14.1745   1
  -4  -3  -5 15.1664 8.39398   3
   4   3   5 20.6106 10.1782   1
   4   3   5 18.2862 11.0550   4
  -4  -3  -5-0.47774 14.1154   8
   4   3   6 33.2663 12.6998   4
  -4  -3  -6 18.4170 15.1836   1
  -4  -3  -6 18.2085 9.91290   3
  -4  -3  -6 4.74414 17.0949   8
   4   3   6 20.9200 11.3276   1
  -4  -3  -7 221.957 16.6755   3
   4   3   7 194.474 18.5984   1
  -4  -3  -7 252.509 20.6200   1
  -4  -3  -7 230.150 23.7979   8
   4   3   7 236.229 18.2456   4
  -4  -3  -8 517.785 32.7417   8
  -4  -3  -8 566.109 28.6468   1
   4   3   8 558.380 26.0356   4
  -4  -3  -9-19.8220 18.9556   6
   4   3   9-0.47365 16.4940   4
  -4  -3  -9 12.9025 20.2643   1
  -4  -3  -9 14.5245 21.8080   8
   4   3  10 48.9677 18.6312   4
  -4  -3 -10 7.02679 21.1291   6
  -4  -3 -10 34.4949 18.4231   2
  -4  -3 -10 95.0586 27.6284   8
  -4  -3 -10 39.9842 22.4233   1
  -4  -3 -11-11.4962 23.7930   6
  -4  -3 -11 68.5954 29.1617   8
  -4  -3 -12 64.1757 26.4776   6
  -4  -4  16 157.967 15.3357   3
  -4  -4  15 67.4199 12.2784   3
  -4  -4  15 77.3410 12.0633   6
  -4  -4  15 78.2416 11.9330   2
  -4  -4  15 62.7767 16.8237   8
  -4  -4  14 14.7846 10.2276   6
  -4  -4  14 12.6215 10.4514   3
  -4  -4  14 14.8333 11.1803   2
  -4  -4  14-2.23105 13.8308   8
  -4  -4  13 84.4068 15.6213   8
  -4  -4  13 72.2371 12.0851   6
  -4  -4  13 61.6316 11.8804   3
  -4  -4  13 80.0576 12.8503   2
  -4  -4  12 611.778 25.5315   3
  -4  -4  12 630.484 26.4374   6
  -4  -4  12 700.376 28.3625   2
  -4  -4  12 635.885 30.7666   8
  -4  -4  11 94.9944 15.0392   8
  -4  -4  11 69.4172 10.9102   3
   4   4 -11 106.300 10.8646   1
  -4  -4  11 87.3753 12.9438   2
  -4  -4  10 2.12842 10.3535   8
  -4  -4  10-11.2847 9.62926   2
   4   4  -9 178.508 12.6642   1
  -4  -4   9 174.061 10.2034   1
  -4  -4   9 184.617 15.4370   8
  -4  -4   8-0.18931 9.30400   8
  -4  -4   8 4.46068 6.37102   1
   4   4  -8 3.71350 10.0901   1
  -4  -4   7 70.5156 10.6074   8
   4   4  -7 55.4216 10.7877   1
  -4  -4   7 74.5503 8.80525   1
   4   4  -6 384.736 17.2270   1
  -4  -4   6 453.967 17.5346   1
  -4  -4   6 437.876 20.2054   8
   4   4  -5 3773.43 96.9949   1
  -4  -4   5 3928.18 98.3417   1
   4   4  -4 356.889 16.8314   1
  -4  -4   4 373.703 15.7133   1
  -4  -4   4 350.513 13.6860   4
   4   4  -3 447.818 19.0955   1
  -4  -4   3 457.355 17.9263   1
  -4  -4   3 431.896 14.1723   4
   4   4  -2 928.523 29.8045   1
  -4  -4   2 926.264 28.9346   1
   4   4  -2 874.813 23.8653   5
  -4  -4   2 893.440 24.5804   4
   4   4  -1 110.617 12.5274   1
   4   4   0 49.7234 8.96109   4
  -4  -4  -1 77.8142 7.27131   3
  -4  -4  -1 81.8703 7.98674   7
  -4  -4  -1 84.3679 13.3709   1
   4   4   1 92.4667 8.54524   4
  -4  -4  -2 1219.84 34.6077   3
  -4  -4  -2 1235.06 36.3268   7
   4   4   2 1120.27 37.1919   1
   4   4   2 1071.55 33.6269   4
  -4  -4  -2 1303.53 38.1843   1
   4   4   3 36.6783 9.49079   4
  -4  -4  -3 25.1524 8.16979   7
  -4  -4  -3 42.3640 8.15135   3
  -4  -4  -3 50.4414 13.7946   1
   4   4   3 32.0904 9.68953   1
  -4  -4  -3 43.4589 13.7500   8
  -4  -4  -4 405.086 18.2682   3
  -4  -4  -4 365.451 18.6567   7
   4   4   4 368.014 20.9238   1
  -4  -4  -4 408.839 21.6673   1
  -4  -4  -4 395.090 22.1805   8
   4   4   4 367.831 17.3502   4
   4   4   5 276.232 19.4566   1
  -4  -4  -5 306.987 16.9190   3
  -4  -4  -5 295.352 20.3057   1
  -4  -4  -5 230.202 20.9053   8
   4   4   5 310.323 17.0670   4
   4   4   6-2.73716 12.7692   4
   4   4   6-24.7737 14.4558   1
  -4  -4  -6-5.07124 16.8176   1
  -4  -4  -6-5.44684 10.5549   3
  -4  -4  -6-33.3145 19.1082   8
   4   4   7 77.1512 15.3212   4
  -4  -4  -7 77.5395 20.0022   1
  -4  -4  -7 65.7694 20.7672   8
   4   4   8 3.36155 15.5366   4
  -4  -4  -8-6.96826 20.4589   1
  -4  -4  -8-2.65201 22.1768   8
  -4  -4  -9 41.7823 22.4581   1
   4   4   9 55.8239 17.8522   4
  -4  -4  -9 25.3415 20.1670   6
  -4  -4  -9 50.4056 25.8263   8
  -4  -4 -10 4.85788 24.3078   1
  -4  -4 -10 42.8590 27.8630   8
  -4  -4 -10-43.2890 24.1136   6
   4   4  10 6.92401 18.5685   4
  -4  -4 -11-22.6955 24.6465   6
  -4  -5  16 45.3221 11.3287   3
  -4  -5  15 7.98208 10.0739   3
  -4  -5  15 13.3130 14.9857   8
  -4  -5  14 210.650 15.4285   3
  -4  -5  14 203.321 15.7551   6
  -4  -5  14 208.686 16.8225   2
  -4  -5  14 261.725 17.2791   5
  -4  -5  14 210.371 21.4138   8
  -4  -5  13 9.77959 12.9680   8
  -4  -5  13-3.85307 9.59800   3
  -4  -5  13 10.8486 10.4106   6
  -4  -5  13-1.15255 11.6552   2
  -4  -5  13 6.03518 10.0894   5
  -4  -5  12 363.417 18.7180   3
  -4  -5  12 392.610 22.1050   2
  -4  -5  12 419.527 17.3393   5
  -4  -5  12 385.346 24.3035   8
  -4  -5  11 441.947 19.7410   3
  -4  -5  11 439.453 22.9063   2
  -4  -5  11 441.607 16.1867   5
  -4  -5  11 405.467 24.9599   8
  -4  -5  10 228.763 13.9635   3
  -4  -5  10 204.711 11.0984   1
  -4  -5  10 209.128 9.26007   5
   4   5 -10 253.683 15.9861   1
  -4  -5  10 263.315 19.5247   8
  -4  -5   9 70.9974 12.7144   8
   4   5  -9 73.2004 12.2038   1
  -4  -5   9 60.9445 8.49755   1
  -4  -5   8 1445.60 47.0605   8
   4   5  -8 1322.47 39.2144   1
  -4  -5   8 1362.92 39.8308   1
  -4  -5   7 2028.17 59.2631   8
  -4  -5   7 2001.32 53.9263   1
   4   5  -7 1844.32 52.4961   1
  -4  -5   6 55.4373 10.8666   8
   4   5  -6 83.1458 11.3761   1
  -4  -5   6 51.4541 8.71626   1
  -4  -5   5 30.3421 6.11355   4
  -4  -5   5 45.6339 8.37702   1
  -4  -5   4 191.700 12.3457   1
   4   5  -4 214.238 13.8540   1
  -4  -5   4 182.459 7.92412   4
   4   5  -3 478.298 20.1798   1
  -4  -5   3 500.213 19.7158   1
  -4  -5   3 463.618 14.2053   4
   4   5  -2 20.8228 11.6483   1
  -4  -5   2-2.14375 6.88243   1
   4   5  -1 20.2871 12.2394   1
  -4  -5   1 2.79433 6.80058   1
  -4  -5   0 471.062 17.7858   7
   4   5   0 403.303 17.7212   4
  -4  -5   0 485.035 15.8334   3
  -4  -5  -1 106.672 8.95671   3
   4   5   1 91.4896 9.42902   4
  -4  -5  -1 101.735 9.44628   7
  -4  -5  -2 1829.25 47.1668   3
  -4  -5  -2 1792.96 49.0346   7
   4   5   2 1661.18 51.9143   1
  -4  -5  -3 250.622 14.3024   3
  -4  -5  -3 253.276 15.2600   7
   4   5   3 230.306 17.6107   1
  -4  -5  -3 273.875 19.6257   1
   4   5   3 213.761 13.6169   4
   4   5   4-3.18784 12.5514   1
   4   5   4 6.25292 10.6352   4
  -4  -5  -4 4.95663 8.91421   3
  -4  -5  -4 5.12183 15.9459   1
   4   5   5 38.7520 11.8205   4
  -4  -5  -5 64.1903 17.5258   1
   4   5   5 17.6974 13.2349   1
  -4  -5  -5-8.43388 18.8788   8
   4   5   6 57.0939 13.7841   4
  -4  -5  -6 47.9974 18.8084   1
  -4  -5  -7 283.674 25.1200   1
  -4  -5  -7 259.668 26.6480   8
   4   5   7 306.144 19.7923   4
   4   5   8 13.5759 15.8438   4
  -4  -5  -8-17.9544 20.9182   1
  -4  -5  -8-15.8466 25.0169   8
   4   5   9 49.5966 18.5142   4
  -4  -5  -9 58.6480 23.3681   6
  -4  -5  -9 43.0181 24.2573   1
  -4  -5  -9 41.2964 27.2747   8
   4   5  10 3.95900 18.6223   4
  -4  -5 -10 26.2402 26.3670   1
  -4  -5 -10-2.03420 24.0315   6
  -4  -6  15-4.57471 15.3867   8
  -4  -6  14 11.7879 14.6676   8
  -4  -6  14 18.5083 9.80719   3
  -4  -6  14 19.8485 11.9624   2
  -4  -6  13-4.82773 14.9873   8
  -4  -6  13 9.43546 9.38486   3
  -4  -6  13-0.81673 10.6588   6
  -4  -6  13 7.81166 12.5228   2
  -4  -6  12 219.063 13.7591   3
  -4  -6  12 156.903 10.0415   5
  -4  -6  12 201.592 17.5953   2
  -4  -6  12 234.177 20.5901   8
  -4  -6  11 42.8786 13.6372   8
  -4  -6  11 38.9785 9.04549   3
  -4  -6  10 910.109 27.7265   3
  -4  -6  10 906.604 36.0730   8
  -4  -6   9 73.0679 14.8093   8
  -4  -6   9 65.9553 8.61365   3
   4   6  -9 44.9910 15.8010   1
  -4  -6   9 69.2368 9.48995   1
   4   6  -8 9.71791 14.0795   1
  -4  -6   8 34.3210 11.7602   8
  -4  -6   8 12.9726 6.78029   3
  -4  -6   8 19.4144 9.15377   1
   4   6  -7 316.175 19.5414   1
  -4  -6   7 336.820 20.8952   8
  -4  -6   7 354.316 16.7451   1
  -4  -6   6 37.2554 9.03792   1
   4   6  -6 38.4604 13.3826   1
  -4  -6   6 17.7553 6.71354   4
  -4  -6   5 411.756 18.7894   1
   4   6  -5 385.045 20.3471   1
  -4  -6   5 403.279 12.8889   4
  -4  -6   4 53.6686 9.70236   1
   4   6  -4 64.6925 13.6828   1
  -4  -6   4 48.0767 4.22841   4
  -4  -6   3 778.828 27.9395   1
   4   6  -3 769.013 29.7823   1
  -4  -6   2 626.029 18.0478   3
  -4  -6   2 657.665 24.6431   1
   4   6  -2 608.316 27.1044   1
  -4  -6   1 136.324 7.74547   3
  -4  -6   1 126.752 9.72933   7
  -4  -6   1 122.542 11.5144   1
   4   6  -1 132.166 17.9309   1
   4   6   0 201.136 20.5552   1
  -4  -6   0 201.827 10.1968   3
  -4  -6   0 209.255 12.0983   7
  -4  -6  -1 204.762 11.5530   3
  -4  -6  -1 214.787 13.0198   7
  -4  -6  -1 203.961 13.8038   8
   4   6   1 154.029 11.8175   4
  -4  -6  -2 446.862 20.3774   8
  -4  -6  -2 457.181 18.4097   3
  -4  -6  -2 448.828 19.9931   7
  -4  -6  -2 507.276 25.3303   1
   4   6   2 370.250 17.0336   4
  -4  -6  -3 40.7454 10.6110   7
   4   6   3 39.1176 10.9190   4
  -4  -6  -3 66.1532 18.1824   1
   4   6   3 29.0200 13.0311   1
   4   6   4 172.312 14.0031   4
   4   6   4 148.514 17.6129   1
  -4  -6  -4 196.404 20.7021   1
   4   6   5 13.5945 12.2325   4
  -4  -6  -5 37.1451 18.9330   1
   4   6   6 10.8428 13.1044   4
  -4  -6  -6 6.72652 19.6714   1
   4   6   7 28.5695 15.0307   4
  -4  -6  -7 46.1142 21.9099   1
  -4  -6  -7 63.9599 25.2065   8
   4   6   8 18.3457 15.9034   4
  -4  -6  -8 16.4721 24.2893   1
  -4  -6  -8 91.0372 24.7179   6
  -4  -6  -8 20.0642 26.5987   8
   4   6   9 28.3179 17.9260   4
  -4  -6  -9 6.92066 25.7137   1
  -4  -6 -10 16.2225 27.8648   1
  -4  -7  14 76.7968 17.0175   8
  -4  -7  13 7.92656 14.5502   8
  -4  -7  13 22.6546 8.80537   3
  -4  -7  13 7.16220 10.4372   6
  -4  -7  13 5.78556 12.9197   2
  -4  -7  12 441.016 17.6812   3
  -4  -7  12 364.833 22.3757   2
  -4  -7  12 417.016 27.0675   8
  -4  -7  11 26.8520 7.86966   1
  -4  -7  11 20.2453 14.3592   8
  -4  -7  11 34.2602 8.14326   3
  -4  -7  10 50.4634 14.6366   8
  -4  -7  10 30.6439 7.63656   3
  -4  -7  10 30.0221 8.86056   1
  -4  -7   9 6.96139 13.4014   8
  -4  -7   9 2.99716 6.25895   3
  -4  -7   9-1.84056 8.78336   1
  -4  -7   8 260.936 20.4131   8
  -4  -7   8 259.307 10.7373   3
  -4  -7   8 260.504 15.1014   1
  -4  -7   7 45.7615 5.35873   3
  -4  -7   7 52.5781 6.57871   4
  -4  -7   7 63.4853 14.4105   8
  -4  -7   7 50.5117 10.1077   1
  -4  -7   6 12.7557 3.71325   3
  -4  -7   6 23.4642 9.75344   1
  -4  -7   6 14.2552 3.46163   4
   4   7  -5 652.022 30.4230   1
  -4  -7   5 811.976 28.7975   1
  -4  -7   4-3.55942 10.1201   1
   4   7  -4-20.8868 16.9381   1
  -4  -7   3 72.0709 10.9994   1
   4   7  -3 36.0428 17.4972   1
  -4  -7   2-0.10790 6.66200   7
  -4  -7   2-1.14801 9.09464   1
  -4  -7   1 386.095 16.4711   7
   4   7  -1 320.703 25.3601   1
  -4  -7   1 368.602 19.3911   1
  -4  -7   0 101.383 10.4356   7
  -4  -7   0 96.5492 12.9135   1
  -4  -7  -1 17.1026 8.39484   7
  -4  -7  -1 18.7576 9.31272   8
   4   7   1 14.6885 9.68296   4
  -4  -7  -2 179.060 14.1001   7
   4   7   2 154.693 11.6535   4
  -4  -7  -2 190.567 14.5041   8
  -4  -7  -3 80.0441 19.6176   1
  -4  -7  -3 66.6206 11.7282   8
   4   7   3 54.1608 11.1717   4
  -4  -7  -4 16.1832 19.0918   1
  -4  -7  -4 3.56864 11.1833   8
   4   7   4 2.10192 11.3873   4
   4   7   5 46.6901 12.9477   4
  -4  -7  -5 77.4764 20.5534   1
   4   7   6 20.8192 13.5034   4
  -4  -7  -6 30.3370 21.7240   1
  -4  -7  -7 38.5780 23.9555   1
   4   7   7 21.9396 14.9825   4
   4   7   8 54.4060 17.1674   4
  -4  -7  -8 58.5097 26.0294   1
   4   7   9 75.9226 18.8489   4
  -4  -8  14 40.1642 16.2194   8
  -4  -8  13 128.844 19.1122   8
  -4  -8  13 120.758 17.2232   2
  -4  -8  12 28.1515 15.3724   8
  -4  -8  11 56.2183 17.0062   8
  -4  -8  11 68.2883 9.66914   1
  -4  -8  10 40.9436 16.0021   8
  -4  -8  10 24.7337 9.96625   1
  -4  -8   9 8.82730 13.8391   8
  -4  -8   9-6.09843 9.38076   1
  -4  -8   8 91.6863 16.3850   8
  -4  -8   8 81.7056 11.7426   1
  -4  -8   8 76.3848 4.50517   4
  -4  -8   7 323.337 18.7624   1
  -4  -8   7 326.809 22.8756   8
  -4  -8   6 70.7004 12.3514   1
   4   8  -5 66.0452 20.0416   1
  -4  -8   5 163.424 15.2469   1
   4   8  -4 307.941 25.8327   1
  -4  -8   4 456.411 21.9621   1
  -4  -8   3 208.060 12.3304   7
  -4  -8   3 194.374 15.7933   1
  -4  -8   2 106.853 10.0499   7
  -4  -8   2 94.9005 13.4354   1
  -4  -8   1 25.1444 8.48639   7
  -4  -8   1 9.77482 10.7078   1
  -4  -8   0 27.0464 9.15666   7
  -4  -8   0 18.5549 10.4864   1
  -4  -8   0 36.7921 9.90243   8
  -4  -8  -1 153.472 13.0147   7
  -4  -8  -1 161.838 13.5949   8
  -4  -8  -2 8.54254 9.90500   8
   4   8   2 16.0411 10.0768   4
  -4  -8  -3 45.9018 20.9022   1
  -4  -8  -3 44.6843 11.7183   8
   4   8   3 47.6036 10.4073   4
  -4  -8  -4 15.0396 12.2531   8
  -4  -8  -4 30.9166 21.3995   1
  -4  -8  -5-27.2103 14.2791   8
  -4  -8  -5 13.8261 22.6437   1
   4   8   5-6.04376 12.6537   4
  -4  -8  -6 43.7141 23.6918   1
   4   8   6 34.6110 14.4349   4
  -4  -8  -6 59.1174 14.8948   8
   4   8   7 49.2092 15.8011   4
  -4  -9  13 86.9234 17.6357   8
  -4  -9  12 23.3527 15.0328   8
  -4  -9  11 16.1015 15.3153   8
  -4  -9  10 37.4954 16.2128   8
  -4  -9  10 40.6482 10.7060   1
  -4  -9   9 3.73563 15.2160   8
  -4  -9   9 10.9633 9.97058   1
  -4  -9   8 69.9176 16.9495   8
  -4  -9   8 61.0399 12.2686   1
  -4  -9   7 6.99543 13.4654   8
  -4  -9   7 7.45236 10.6839   1
  -4  -9   6 538.024 25.5081   1
  -4  -9   5 6.62961 11.3676   1
  -4  -9   4 6.00876 6.73912   7
  -4  -9   4-11.0725 11.4579   1
  -4  -9   3 4.92986 7.08446   7
  -4  -9   3-5.43817 10.6549   1
  -4  -9   2 57.1496 9.23647   7
  -4  -9   2 31.6854 11.6861   1
   4   9  -2 19.1394 10.7711   5
  -4  -9   1 19.8999 8.84784   7
  -4  -9   1 22.1272 10.2195   8
  -4  -9   1 21.6630 11.5622   1
  -4  -9   0 44.9862 10.4172   7
  -4  -9   0 38.5069 11.9913   1
  -4  -9   0 49.9286 11.1577   8
  -4  -9  -1 65.0109 13.4399   1
  -4  -9  -1 87.8987 12.5491   8
  -4  -9  -2 18.6746 11.9033   8
   4   9   2 2.87734 10.9276   4
  -4  -9  -3 116.824 15.2572   8
  -4  -9  -3 132.730 24.1574   1
   4   9   3 86.0920 12.0474   4
  -4  -9  -4 17.3883 13.2507   8
  -4  -9  -4 36.0723 22.7347   1
  -4 -10  11 25.9091 15.6608   8
  -4 -10  10-1.81020 15.3400   8
  -4 -10   9 56.8575 12.1711   1
  -4 -10   9 55.5574 17.8627   8
  -4 -10   8 80.1361 17.6074   8
  -4 -10   8 89.2693 13.3508   1
  -4 -10   7-0.77323 11.4550   1
  -4 -10   7 9.30588 14.9097   8
  -4 -10   6 21.9932 12.0740   1
  -4 -10   6 23.9752 7.51704   7
  -4 -10   5 9.50768 7.21217   7
  -4 -10   5 10.6005 12.7014   1
  -4 -10   4 178.923 12.1330   7
  -4 -10   4 154.669 16.0764   1
  -4 -10   3 1.03346 7.90263   7
  -4 -10   3 16.2551 11.8538   1
  -4 -10   2 15.3072 9.03135   7
   4  10  -2 8.37086 10.3750   5
  -4 -10   2 4.68719 12.1712   1
  -4 -10   2 22.7266 11.3036   8
  -4 -10   1 62.2323 11.2633   7
  -4 -10   1 72.2627 14.0893   1
  -4 -10   1 89.8448 13.1601   8
  -4 -10   0 21.3360 12.7331   1
  -4 -10   0 7.92143 11.6330   8
  -4 -10  -1 81.1746 14.4784   1
  -4 -10  -1 73.8949 13.8634   8
  -4 -10  -2 3.58901 12.1980   8
  -4 -11   9 13.4784 15.8169   8
  -4 -11   8-0.89315 14.2843   8
  -4 -11   8-0.78881 11.1349   1
  -4 -11   7 36.0983 12.8312   1
  -4 -11   7 46.1848 16.0099   8
  -4 -11   6 62.2346 13.9389   1
  -4 -11   5 7.92280 12.0756   1
  -4 -11   4 54.2961 14.4877   1
  -4 -11   3 17.9114 12.2113   8
  -4 -11   3 6.61505 12.6417   1
  -4 -11   2 0.37387 11.4950   8
  -4 -11   2 0.96602 12.5144   1
  -4 -11   1 10.5867 13.2683   1
  -4 -11   1 22.5901 12.3350   8
  -4 -11   0 68.8127 14.6677   8
  -4 -12   6 78.6518 14.7963   1
  -4 -12   5 18.7022 13.5704   1
  -4 -12   5 26.9194 13.4297   8
  -4 -12   4 28.4734 12.7539   8
  -4 -12   3 28.5102 12.8215   8
  -5  13   0 51.5043 20.2129   5
   5 -13   1 45.2238 16.0241   2
  -5  13  -1 91.3451 20.2524   5
  -5  13  -2 56.5629 20.0493   5
  -5  12   4 74.4546 25.6637   5
   5 -12  -3 14.2685 15.2871   2
  -5  12   3 6.21883 22.9779   5
   5 -12  -2 56.3369 28.3227   1
   5 -12  -2 53.6064 16.5903   2
  -5  12   2 48.3831 21.8718   5
   5 -12  -1-16.3764 26.0877   1
   5 -12  -1-2.36213 13.1900   2
  -5  12   1-9.49177 19.6290   5
   5 -12   0 15.2819 13.4799   2
  -5  12   0 12.9801 18.5501   5
   5 -12   1 72.6754 15.5945   2
  -5  12  -1 129.945 19.9985   5
   5 -12   1 74.6467 26.0504   1
   5 -12   2-14.5379 23.3089   1
   5 -12   2 13.4757 13.4942   2
  -5  12  -2 33.6965 18.4092   5
   5 -12   3 49.5150 14.2912   2
   5 -12   3 44.8998 22.2965   1
  -5  12  -3 59.7349 19.4099   5
   5 -12   4 0.74846 14.0443   1
  -5  12  -4-23.5509 18.6675   5
   5 -11  -7 205.139 19.3114   8
   5 -11  -6 0.63218 11.7422   8
  -5  11   6 10.4401 26.1189   5
   5 -11  -5-6.37448 11.7705   8
   5 -11  -5 7.63812 14.8386   2
  -5  11   5 14.7059 24.7709   5
  -5  11   5-25.3624 17.7658   4
   5 -11  -4 13.8506 15.0187   2
  -5  11   4 31.0083 23.3008   5
   5 -11  -4 9.69826 10.4024   8
  -5  11   4 15.1732 15.4743   4
   5 -11  -3 9.66314 9.03216   8
   5 -11  -3 17.4942 14.4048   2
  -5  11   3-6.46815 21.5559   5
  -5  11   3 30.2847 13.1615   4
  -5  11   2 27.5898 12.5193   4
   5 -11  -2 38.0585 14.5994   2
  -5  11   2 24.7263 20.2914   5
  -5  11   1 35.5731 11.5074   4
   5 -11  -1 34.4615 14.1859   2
  -5  11   1 2.25677 18.0982   5
   5 -11   0 166.376 17.2022   2
  -5  11   0 134.542 19.8193   5
  -5  11   0 179.008 13.0975   4
   5 -11   1 7.92269 11.9660   2
  -5  11  -1 41.5585 16.4718   5
   5 -11   2 76.1653 13.8761   2
  -5  11  -2 79.7226 17.7928   5
   5 -11   3 289.454 20.0376   2
  -5  11  -3 309.083 22.5698   5
   5 -11   4 64.1647 14.9254   1
   5 -11   4 58.9053 13.7198   2
   5 -11   5 35.0737 13.4720   1
   5 -11   5 15.9638 15.8291   1
   5 -10 -10 57.6815 17.3339   8
  -5  10  10 87.8637 25.5835   3
  -5  10   9 150.430 18.4728   7
   5 -10  -9 165.156 19.9829   8
   5 -10  -8 79.3896 16.3104   8
  -5  10   8 81.6471 16.5940   7
  -5  10   8 81.1853 29.4425   5
  -5  10   7 66.6399 14.3955   7
   5 -10  -7 69.4973 14.7653   8
  -5  10   7 72.0008 28.7885   5
   5 -10  -7 79.7517 17.5174   2
   5 -10  -6 0.19971 11.4691   8
  -5  10   6-5.37346 12.0529   7
  -5  10   6-12.6366 25.9077   5
   5 -10  -6 2.38155 13.7997   2
   5 -10  -5 31.5163 11.0825   8
  -5  10   5 15.1960 23.8216   5
   5 -10  -5 33.9062 15.2332   2
  -5  10   5 32.9987 11.1498   7
   5 -10  -4-6.13094 10.2487   8
  -5  10   4 1.19123 9.16290   7
   5 -10  -4-0.25897 12.7362   2
  -5  10   4 11.8903 20.5365   5
  -5  10   4-17.8715 16.1548   4
   5 -10  -3 28.1909 9.35717   8
  -5  10   3 35.1048 7.74969   7
   5 -10  -3 36.5681 13.3059   2
  -5  10   3 47.5618 19.7178   5
  -5  10   3 27.9952 14.2120   4
  -5  10   2 196.691 15.1169   4
   5 -10  -2 157.273 16.8537   2
  -5  10   2 182.539 21.4359   5
  -5  10   1 69.2093 13.4067   4
   5 -10  -1 82.2835 14.0470   2
  -5  10   1 56.6103 17.4008   5
   5 -10   0 443.994 23.7320   2
  -5  10   0 391.612 23.8699   5
  -5  10   0 485.348 19.1562   4
  -5  10  -1-8.32283 11.6268   4
   5 -10   1 17.1829 11.9119   2
  -5  10  -1 39.2861 14.5680   5
   5 -10   2 56.0122 12.6994   2
  -5  10  -2 75.9985 15.6037   5
   5 -10   3 3.42486 10.4563   2
  -5  10  -3-15.8626 14.7460   5
  -5  10  -4 71.8082 13.2517   3
   5 -10   4 52.6397 11.6300   2
   5 -10   4 53.9545 14.0416   1
  -5  10  -5 349.974 19.1163   3
   5 -10   5 280.187 17.7717   2
   5 -10   5 307.284 20.5229   1
   5 -10   6-8.70133 11.4074   1
  -5  10  -6 18.3890 14.5378   3
   5 -10   7 150.174 21.6238   5
   5 -10   8-1.32234 17.3521   5
   5  -9 -11-0.32754 15.7494   8
  -5   9  11-10.3479 19.9042   7
  -5   9  11-36.8636 25.9218   3
  -5   9  11 47.1143 19.4412   8
   5  -9 -10 99.5767 18.6970   8
  -5   9  10 63.0331 19.3348   7
   5  -9 -10 94.0808 53.2283   1
  -5   9  10 148.430 19.8984   8
  -5   9   9-15.0717 17.5230   7
  -5   9   9 30.3186 16.5887   8
   5  -9  -9 14.3860 28.4779   2
   5  -9  -9 24.0260 14.4200   8
   5  -9  -8 54.0247 14.4368   8
  -5   9   8 87.6689 16.4784   8
  -5   9   7 9.39812 25.9073   5
  -5   9   7 33.8720 14.9982   8
   5  -9  -7 17.6271 12.2062   8
   5  -9  -6 34.5434 11.4769   8
  -5   9   6 44.6500 24.5902   5
   5  -9  -6 26.7129 14.4512   2
  -5   9   6 39.3520 14.7174   8
   5  -9  -5 301.985 18.2835   8
   5  -9  -5 343.440 23.0231   2
  -5   9   5 346.852 29.3372   5
   5  -9  -4 166.802 13.4029   8
   5  -9  -4 183.749 17.7782   2
  -5   9   4 196.829 23.8646   5
   5  -9  -3 1.85216 8.18588   8
   5  -9  -3 15.3559 12.5727   2
  -5   9   3 9.26756 18.0783   5
  -5   9   3-26.4276 14.9088   4
  -5   9   2 671.232 24.3701   4
  -5   9   2 531.911 16.9960   7
   5  -9  -2 633.865 27.7019   2
   5  -9  -2 536.198 19.9606   8
  -5   9   2 635.962 30.0970   5
   5  -9  -1 523.390 25.1823   2
  -5   9   1 451.579 25.7492   5
  -5   9   1 567.937 21.9547   4
   5  -9   0 188.433 16.1591   2
  -5   9   0 202.041 14.5950   4
   5  -9   1 116.378 14.0478   2
  -5   9  -1 82.6698 15.3634   5
  -5   9  -1 111.291 13.0284   4
   5  -9   2 551.657 23.7947   2
  -5   9  -2 451.774 23.5119   5
   5  -9   3 81.9026 11.4519   2
  -5   9  -3 44.2235 13.8925   5
   5  -9   3 66.7421 14.4722   1
  -5   9  -4 15.7964 12.5242   3
   5  -9   4 4.81874 9.64075   2
   5  -9   4 9.88629 11.1868   1
  -5   9  -4-0.31449 12.8879   5
   5  -9   5 20.7702 10.8901   1
  -5   9  -5 43.4539 13.9127   3
   5  -9   5 9.94708 14.7936   5
   5  -9   5 26.5039 9.77766   2
  -5   9  -6 146.144 16.8609   3
   5  -9   6 100.111 10.7776   2
   5  -9   6 142.100 19.7990   5
   5  -9   6 133.014 13.3736   1
  -5   9  -7 16.0519 16.3592   3
   5  -9   7 11.0353 8.49891   1
   5  -9   7 1.95929 14.4871   5
   5  -9   7 1.22166 11.5938   4
  -5   9  -8 14.8979 18.0656   3
   5  -9   8 27.0605 14.6635   5
   5  -9   8 0.62344 12.0816   4
   5  -9   9 113.347 18.9424   5
   5  -8 -12-40.1903 47.7258   1
  -5   8  12-7.90200 26.2279   3
   5  -8 -11-5.59647 15.6965   8
   5  -8 -11-13.3709 27.9659   2
  -5   8  11 32.1318 18.7288   8
   5  -8 -10 481.381 36.1484   2
  -5   8  10 416.097 24.5968   8
   5  -8 -10 413.303 27.7999   8
   5  -8  -9 9.62652 14.1557   8
   5  -8  -9 2.77102 26.6698   2
  -5   8   9 27.5635 16.2975   8
   5  -8  -8 12.0800 12.3896   8
  -5   8   8 21.9700 15.4054   8
   5  -8  -7 15.4977 11.7609   8
  -5   8   7 23.5938 14.3005   8
   5  -8  -6 30.9194 10.9914   8
   5  -8  -6 30.0234 13.5307   2
  -5   8   6 41.9469 13.0396   8
  -5   8   5 23.8925 21.5136   5
   5  -8  -5 33.7672 12.9006   2
   5  -8  -5 32.7679 10.4196   8
  -5   8   5 38.3733 11.7303   8
  -5   8   4 13.8010 19.2147   5
   5  -8  -4 11.2380 12.1675   2
  -5   8   4 15.3247 10.4941   8
   5  -8  -4 0.26569 8.82170   8
   5  -8  -3 1845.64 55.2229   2
  -5   8   3 1818.48 55.7823   5
  -5   8   3 1738.31 51.0313   4
   5  -8  -2 12.0678 7.07310   8
   5  -8  -2 10.8808 10.9089   2
  -5   8   2 5.05200 15.4544   5
  -5   8   2-15.1094 13.1450   4
   5  -8  -1 144.263 14.3403   2
  -5   8   1 102.517 16.4520   5
  -5   8   1 144.378 13.6655   4
   5  -8   0 497.384 23.1568   2
  -5   8   0 422.439 23.4330   5
  -5   8  -1-3.39239 10.8627   4
   5  -8   1-4.87683 10.2064   2
  -5   8  -1-13.4101 13.4575   5
   5  -8   2 21.8478 10.0053   2
  -5   8  -2 14.3727 12.8632   5
  -5   8  -2 33.8455 11.6576   4
   5  -8   3 41.3693 12.1940   1
   5  -8   3 40.6184 14.8908   5
   5  -8   3 45.9668 10.4935   2
  -5   8  -3 39.4736 13.4212   5
   5  -8   4 430.628 19.2253   2
   5  -8   4 447.344 25.5232   5
  -5   8  -4 360.533 21.2665   5
   5  -8   4 478.841 21.9249   1
  -5   8  -5 16.0572 13.2980   3
   5  -8   5-7.69670 9.34145   1
   5  -8   5 1.19316 11.7036   5
   5  -8   5 6.90528 8.57542   2
  -5   8  -6 491.132 23.7685   3
   5  -8   6 431.338 24.8854   5
   5  -8   6 387.807 21.8777   4
   5  -8   6 476.499 20.3150   1
   5  -8   7 184.449 12.1217   1
  -5   8  -7 164.527 18.8406   3
   5  -8   7 151.947 17.2903   5
   5  -8   7 146.088 15.0108   4
  -5   8  -8-10.5869 18.1870   3
   5  -8   8-15.3850 14.8548   5
   5  -8   8-7.09384 10.5881   4
  -5   8  -9-15.6946 19.4219   3
   5  -8   9-6.24777 13.2365   5
   5  -8   9 1.38966 10.7982   4
  -5   8 -10 14.5077 21.1371   3
   5  -8  10 24.2576 14.6933   5
   5  -8  10 27.7759 11.7914   4
   5  -7 -13 104.006 44.5242   1
   5  -7 -12 1.91206 15.0697   8
  -5   7  12-36.1343 29.8943   3
  -5   7  12 2.59307 20.1243   8
   5  -7 -12-27.5703 27.6585   2
   5  -7 -12-89.5827 45.9213   1
   5  -7 -11-3.26010 15.3782   8
   5  -7 -11-28.4907 25.3929   2
  -5   7  11-8.42203 18.7936   8
   5  -7 -10 390.363 31.3556   2
   5  -7 -10 335.870 24.6622   8
  -5   7  10 364.580 23.6679   8
   5  -7  -9 42.8411 14.4916   8
   5  -7  -9 39.1546 23.0802   2
  -5   7   9 24.0419 16.1743   8
   5  -7  -8 138.302 24.6608   2
  -5   7   8 126.347 16.5405   8
   5  -7  -8 135.322 16.6495   8
   5  -7  -7 5.19377 10.9748   8
  -5   7   7-2.15807 13.0508   8
  -5   7   6 316.739 17.7021   8
   5  -7  -6 331.940 19.0718   8
   5  -7  -5 226.281 17.6269   2
  -5   7   5 240.448 24.4556   5
  -5   7   5 215.063 14.0383   8
   5  -7  -5 210.141 14.6023   8
   5  -7  -4 46.4570 9.43868   8
  -5   7   4 50.2360 19.1352   5
   5  -7  -4 50.5518 11.7745   2
  -5   7   4 52.8816 10.1667   8
   5  -7  -3 1193.47 39.0228   2
  -5   7   3 1092.58 39.8096   5
  -5   7   3 1050.72 29.8104   8
   5  -7  -3 1014.96 32.4487   8
   5  -7  -2 23.7725 6.77112   8
   5  -7  -2 31.3770 11.0475   2
  -5   7   2 28.2347 15.0895   5
  -5   7   2 26.8860 12.6757   4
   5  -7  -1 71.0761 11.3733   2
  -5   7   1 49.7831 13.8219   5
  -5   7   1 88.2084 12.5482   4
   5  -7   0 34.5564 9.33071   2
  -5   7   0 23.4604 12.5925   5
  -5   7   0 30.1237 11.1692   4
   5  -7   1 204.382 13.8794   2
  -5   7  -1 141.449 15.4003   5
  -5   7  -1 205.429 13.7895   4
   5  -7   2 714.016 26.0060   2
   5  -7   2 736.516 30.5059   5
  -5   7  -2 636.571 26.7254   5
   5  -7   2 697.708 27.5681   1
  -5   7  -2 723.178 25.5166   4
   5  -7   3 14.4613 9.80837   1
   5  -7   3 8.86837 11.1605   5
   5  -7   3 9.91326 8.36345   2
  -5   7  -3 19.9182 12.5698   5
   5  -7   4 933.433 36.5620   5
   5  -7   4 1028.69 31.0785   2
  -5   7  -4 990.090 34.1691   5
   5  -7   4 1084.54 33.8510   1
  -5   7  -5 14.0900 13.4199   3
   5  -7   5 1.28065 8.58244   1
   5  -7   5 4.59806 9.39781   4
   5  -7   5-2.09919 11.8903   5
   5  -7   6 89.0309 9.83123   1
  -5   7  -6 74.3721 15.5422   3
   5  -7   6 76.0669 13.1566   5
   5  -7   6 67.4848 11.8069   4
  -5   7  -7 1.52428 15.4181   3
   5  -7   7 5.98807 10.8171   5
   5  -7   7 4.97780 6.97446   1
   5  -7   7 3.79237 10.0344   4
   5  -7   8 36.4514 7.93215   1
  -5   7  -8 41.3819 18.0117   3
   5  -7   8 48.7294 13.0775   5
   5  -7   8 50.7139 10.7615   4
  -5   7  -9 54.6991 20.3739   3
   5  -7   9 54.1093 14.0065   5
   5  -7   9 56.0577 12.0705   4
  -5   7 -10-15.5890 21.8842   3
   5  -7  10 18.4764 12.4229   5
   5  -7  10 17.5187 10.1832   4
   5  -7  11 60.4293 12.8473   4
   5  -6 -14-41.8408 39.1038   1
   5  -6 -13-14.7217 40.3695   1
   5  -6 -13 51.2454 17.2890   8
  -5   6  13 39.7410 27.3450   3
   5  -6 -13 61.6014 26.7408   2
  -5   6  13 55.7768 22.5744   8
   5  -6 -12 70.8487 17.1020   8
   5  -6 -12 85.2776 25.7299   2
  -5   6  12 41.7311 21.4340   8
   5  -6 -11 8.39930 13.9026   8
   5  -6 -11 27.1726 22.1861   2
  -5   6  11-5.24612 19.1540   8
   5  -6 -10-1.28275 12.9942   8
  -5   6  10-23.5788 17.4744   8
   5  -6 -10 16.6584 21.0357   2
   5  -6  -9 67.1047 14.4393   8
   5  -6  -9 75.2487 21.7189   2
  -5   6   9 29.3974 17.0878   8
  -5   6   8 2219.76 64.8554   8
   5  -6  -8 2229.68 69.0827   8
   5  -6  -7-3.91367 10.6848   8
  -5   6   7-24.7005 14.7692   8
  -5   6   7-13.0350 16.1916   6
  -5   6   6 189.365 17.3614   6
  -5   6   6 145.610 14.6695   8
   5  -6  -6 167.207 14.3168   8
   5  -6  -5-0.28414 8.91894   8
  -5   6   5 17.4885 12.9429   6
   5  -6  -5-0.73722 9.46709   2
  -5   6   5-11.7773 11.4660   8
  -5   6   4 371.765 18.8852   6
   5  -6  -4 396.315 19.7369   2
  -5   6   4 368.192 24.6116   5
   5  -6  -4 374.506 17.2673   8
  -5   6   4 336.912 15.9326   8
   5  -6  -3 9.34167 6.76779   8
  -5   6   3 16.7498 11.3075   6
  -5   6   3-8.57627 15.2965   5
   5  -6  -3 5.59959 8.22816   2
  -5   6   3 1.36097 8.03005   8
   5  -6  -2 67.0076 6.79739   8
  -5   6   2 71.5306 11.4622   6
  -5   6   2 72.8957 12.8656   4
  -5   6   2 58.2192 14.8633   5
   5  -6  -2 71.0160 10.3603   2
  -5   6   2 80.1817 7.28397   8
  -5   6   1 1007.20 31.1653   6
   5  -6  -1 1111.38 35.2951   2
  -5   6   1 994.394 35.2782   5
  -5   6   1 1093.91 33.6884   4
  -5   6   0 21.9530 9.20741   6
   5  -6   0 16.4075 8.29504   2
  -5   6   0 20.2711 11.4958   5
  -5   6   0 36.6474 10.0158   4
   5  -6   1 327.602 18.8285   5
   5  -6   1 332.635 16.3922   2
  -5   6  -1 308.396 18.1388   5
   5  -6   1 372.140 17.8668   1
  -5   6  -1 361.369 16.6963   4
  -5   6  -2 412.761 14.1139   7
   5  -6   2 426.364 21.0819   5
   5  -6   2 460.047 18.6375   2
  -5   6  -2 401.506 20.0594   5
   5  -6   2 475.598 20.2877   1
  -5   6  -2 416.857 18.8692   4
   5  -6   3 164.898 14.3988   5
   5  -6   3 180.850 12.0370   2
  -5   6  -3 189.472 15.2104   5
   5  -6   3 166.153 13.2331   4
   5  -6   3 203.054 13.4551   1
   5  -6   4 60.3413 9.79691   1
   5  -6   4 54.8229 9.62447   4
   5  -6   4 61.4349 11.3137   5
   5  -6   5 20.0044 8.70819   4
  -5   6  -5 16.0500 13.0692   3
   5  -6   5 3.18236 7.92753   1
   5  -6   5 21.4732 11.0111   5
  -5   6  -6 678.582 28.7526   3
   5  -6   6 796.899 24.8491   1
   5  -6   6 691.373 29.3596   5
   5  -6   6 703.348 27.3188   4
  -5   6  -7 112.243 17.3371   3
   5  -6   7 122.924 9.46112   1
   5  -6   7 108.100 13.2613   5
   5  -6   7 118.224 11.8704   4
  -5   6  -8 30.7234 16.7824   3
   5  -6   8 23.7637 6.57178   1
   5  -6   8 12.1206 10.3768   5
   5  -6   8 24.6023 8.80774   4
  -5   6  -9 14.3636 18.9885   3
   5  -6   9 28.1011 11.8863   5
   5  -6   9 41.2929 10.2158   4
   5  -6  10 113.342 13.1284   4
  -5   6 -10 95.8357 23.1423   3
   5  -6  10 95.2207 14.2881   5
   5  -6  11 19.4505 11.6448   4
   5  -5 -14 10.2176 35.6884   1
   5  -5 -14 87.7901 26.9313   2
   5  -5 -13 124.581 19.2679   8
  -5   5  13 127.242 27.1438   3
   5  -5 -13 154.866 26.3272   2
  -5   5  13 96.7931 24.2151   8
  -5   5  12-35.0637 22.5209   8
   5  -5 -12 11.8460 14.6145   8
   5  -5 -12 7.08152 20.5408   2
   5  -5 -11 32.6547 13.9863   8
   5  -5 -11 24.9539 20.9873   2
  -5   5  11 65.9831 19.9859   8
   5  -5 -10 372.062 23.7082   8
   5  -5 -10 363.736 26.7588   2
  -5   5  10 406.099 24.7597   8
   5  -5  -9 442.227 27.3549   2
  -5   5   9 405.723 23.6972   8
   5  -5  -9 394.691 23.5618   8
  -5   5   8 674.775 30.0672   6
   5  -5  -8 696.027 31.4042   2
  -5   5   8 667.953 28.1092   8
   5  -5  -8 664.832 29.1281   8
  -5   5   7-2.30300 14.9435   6
   5  -5  -7-8.58458 10.2982   8
  -5   5   7-6.97798 12.9589   8
   5  -5  -6 57.5886 10.3093   8
  -5   5   6 62.5999 14.4038   6
  -5   5   6 58.2899 12.3277   8
   5  -5  -5 116.748 11.2211   8
  -5   5   5 117.032 12.3842   8
  -5   5   5 120.116 14.4423   6
   5  -5  -5 118.199 11.6935   2
   5  -5  -4 1668.22 46.8403   8
  -5   5   4 1554.63 46.1876   6
   5  -5  -4 1669.53 49.1880   2
  -5   5   4 1566.65 44.2863   8
   5  -5  -3 2104.11 55.4786   8
  -5   5   3 2020.60 56.3669   6
   5  -5  -3 2137.90 59.9746   2
  -5   5   3 2059.08 54.1273   8
  -5   5   2 2.17541 9.49060   6
   5  -5  -2-6.27633 8.07445   2
  -5   5   2 7.02010 7.24686   8
  -5   5   2-12.1838 10.8900   4
  -5   5   1 1748.70 47.6883   6
   5  -5  -1 1842.39 50.9885   2
  -5   5   1 1652.46 50.7899   5
  -5   5   1 1730.44 49.8040   4
  -5   5   1 1781.16 43.9475   8
  -5   5   0 252.612 12.8890   6
   5  -5   0 206.279 15.2130   5
   5  -5   0 270.383 14.1923   2
  -5   5   0 238.514 15.8305   5
  -5   5   0 263.056 14.4988   4
   5  -5   0 261.471 14.5865   1
   5  -5   1 2146.47 62.7846   5
  -5   5  -1 2143.05 59.8549   4
  -5   5  -1 2202.14 56.9483   6
   5  -5   1 2358.19 60.9967   2
  -5   5  -1 2206.56 61.2914   5
   5  -5   1 2363.41 62.5304   1
  -5   5  -2 663.895 20.2187   7
  -5   5  -2 626.924 19.1901   6
   5  -5   2 658.007 23.7741   1
   5  -5   2 654.672 25.0599   5
   5  -5   2 670.774 22.2718   2
  -5   5  -2 650.964 24.5262   5
   5  -5   2 619.741 23.8651   4
  -5   5  -2 561.035 22.7163   4
  -5   5  -3 559.312 18.4138   7
  -5   5  -3 508.108 15.5800   6
   5  -5   3 602.574 23.4433   5
  -5   5  -3 571.622 22.5559   5
   5  -5   3 555.675 21.8827   4
   5  -5   3 567.377 21.3741   1
   5  -5   4 38.6389 8.30948   4
   5  -5   4 44.1501 8.95566   1
   5  -5   4 46.7879 9.82561   5
  -5   5  -5 1096.30 36.4916   3
   5  -5   5 1112.88 33.5392   1
   5  -5   5 1095.01 37.0069   5
   5  -5   5 1113.98 35.3387   4
  -5   5  -6 106.138 15.5382   3
   5  -5   6 111.519 9.29546   1
   5  -5   6 136.276 12.8749   5
   5  -5   6 134.125 11.2137   4
  -5   5  -7 6.76266 11.0407   8
   5  -5   7 15.1647 6.81144   1
  -5   5  -7 7.80855 15.4780   3
   5  -5   7 3.13647 10.0178   5
   5  -5   7 28.4221 8.52408   4
  -5   5  -8 8.61532 12.7768   8
  -5   5  -8 17.5492 15.7849   3
   5  -5   8 23.1579 9.07427   4
   5  -5   8 26.5565 10.2975   5
   5  -5   8 29.6045 7.01590   1
  -5   5  -9 2.79671 14.6648   8
  -5   5  -9 22.0593 17.6663   3
   5  -5   9 9.35042 5.29753   1
   5  -5   9-0.79129 10.2837   5
   5  -5   9 0.68563 8.60907   4
  -5   5 -10 80.9048 21.6223   3
   5  -5  10 77.9488 13.4344   5
   5  -5  10 97.4495 13.1313   4
  -5   5 -11 22.7171 22.5974   3
   5  -5  11 17.0209 12.6712   5
   5  -5  11 28.9895 12.1440   4
   5  -4 -14 137.364 19.4114   8
  -5   4  14 105.229 27.5487   3
  -5   4  14 115.475 26.2149   8
   5  -4 -14 155.118 25.3794   2
   5  -4 -14 88.6043 33.6677   1
   5  -4 -14 93.1499 19.7660   1
   5  -4 -13 404.095 28.3606   2
  -5   4  13 460.939 29.7424   8
   5  -4 -12 14.4113 13.1700   8
   5  -4 -12 36.0841 20.2783   2
  -5   4  12 30.1979 20.7810   8
  -5   4  11 367.400 25.9484   8
  -5   4  11 352.344 19.8649   6
   5  -4 -11 370.468 26.5154   2
   5  -4 -11 335.760 22.9684   8
   5  -4 -10 87.3137 14.7725   8
   5  -4 -10 90.7378 19.5549   2
  -5   4  10 118.823 19.9649   8
  -5   4   9 1121.47 39.8378   8
   5  -4  -9 1171.49 41.7731   2
   5  -4  -9 1075.46 40.3153   8
  -5   4   8 13.6385 14.7548   8
   5  -4  -8 40.2092 17.2559   2
   5  -4  -8 13.7319 10.4063   8
   5  -4  -7 9.36126 8.48771   8
  -5   4   7 7.17168 14.0193   6
  -5   4   7 9.80139 12.9480   8
   5  -4  -7 8.12819 15.8268   2
   5  -4  -6 365.628 18.3680   8
  -5   4   6 390.076 20.1139   6
  -5   4   6 346.851 19.0131   8
   5  -4  -5 43.0829 8.63048   8
  -5   4   5 37.9963 12.6291   6
  -5   4   5 29.4473 9.76405   5
  -5   4   5 24.9586 11.2198   8
   5  -4  -4 258.250 13.2691   8
  -5   4   4 271.226 15.8617   6
   5  -4  -4 261.103 14.8598   2
  -5   4   4 238.755 13.9537   8
  -5   4   3 1429.17 41.8204   6
   5  -4  -3 1405.62 39.8473   8
   5  -4  -3 1475.43 43.8254   2
  -5   4   3 1468.35 40.2025   8
  -5   4   2 3101.68 82.6039   6
   5  -4  -2 3422.50 85.6651   2
  -5   4   2 3293.35 85.4356   4
   5  -4  -2 3254.80 85.0965   1
  -5   4   2 3150.90 80.2993   8
  -5   4   1 45.6417 9.99254   6
   5  -4  -1 61.8974 8.57198   2
   5  -4  -1 65.8615 8.68001   1
  -5   4   1 54.1150 7.25043   8
  -5   4   1 47.4694 9.87103   4
   5  -4   0 31.5991 7.06285   1
   5  -4   0 32.0632 6.67675   2
  -5   4   0 21.3832 8.57216   4
  -5   4  -1 1372.79 40.5232   4
   5  -4   1 1386.36 39.2077   2
   5  -4   1 1458.93 41.4944   1
  -5   4  -2 151.424 10.0666   7
  -5   4  -2 141.011 13.3553   5
   5  -4   2 136.730 10.3476   4
  -5   4  -2 128.904 11.4140   4
   5  -4   2 128.974 10.5370   1
  -5   4  -3 165.919 11.0410   7
   5  -4   3 149.511 11.6016   5
  -5   4  -3 105.823 7.86545   8
   5  -4   3 167.333 10.8036   4
   5  -4   3 159.303 10.8137   1
   5  -4   4 50.0810 7.44480   4
  -5   4  -4 42.1004 9.80899   7
   5  -4   4 40.0898 7.61986   1
   5  -4   4 44.6269 8.26935   5
  -5   4  -4 28.6132 8.26375   8
  -5   4  -5 1665.56 47.1741   3
   5  -4   5 1628.39 43.6647   1
   5  -4   5 1614.54 46.4470   5
   5  -4   5 1658.09 45.2208   4
  -5   4  -6 183.128 17.6446   3
   5  -4   6 205.588 11.3529   1
   5  -4   6 170.104 13.7212   5
   5  -4   6 183.650 13.1540   4
  -5   4  -6 149.908 14.1088   8
  -5   4  -7 12.8579 13.3076   8
  -5   4  -7-1.01198 15.5861   3
   5  -4   7 10.7846 6.48306   1
   5  -4   7 7.84070 9.23208   5
   5  -4   7 0.28956 8.29088   4
  -5   4  -8 356.398 23.8425   3
   5  -4   8 341.810 19.3313   5
   5  -4   8 350.221 18.3063   4
   5  -4   8 376.772 15.2439   1
  -5   4  -8 299.600 20.4059   8
  -5   4  -9 2.54875 16.8626   8
  -5   4  -9 14.7666 18.3329   3
   5  -4   9-3.95742 10.3080   5
   5  -4   9 10.3677 6.05009   1
   5  -4   9-2.35721 9.02346   4
  -5   4 -10 65.3397 19.6112   8
  -5   4 -10 93.5508 22.2933   3
   5  -4  10 41.0775 12.3683   5
   5  -4  10 53.8191 11.3680   4
  -5   4 -11 27.5119 21.9974   3
   5  -4  11 3.71172 11.7961   5
   5  -4  11 4.95823 10.9393   4
   5  -3 -14 136.720 18.7307   8
   5  -3 -14 122.345 19.3167   1
   5  -3 -13 2.77396 13.3044   8
   5  -3 -13 0.97362 17.4984   1
  -5   3  13 23.1919 11.6730   6
   5  -3 -13 13.6842 19.1004   2
  -5   3  13 47.1148 23.5623   8
   5  -3 -12-2.06427 12.1086   8
  -5   3  12 7.38231 10.2950   6
   5  -3 -12 2.06484 17.5674   2
  -5   3  12 3.55349 21.0670   8
   5  -3 -12-7.86677 15.9856   1
   5  -3 -11 404.349 23.9284   8
  -5   3  11 393.916 20.4525   6
   5  -3 -11 445.032 26.0817   2
   5  -3 -11 365.974 22.0667   1
  -5   3  11 437.286 28.1495   8
  -5   3  10 45.7921 19.3395   8
   5  -3 -10 49.4984 12.8543   8
  -5   3  10 41.0165 10.5421   6
   5  -3 -10 64.9132 18.4000   2
   5  -3  -9 215.241 16.7228   8
  -5   3   9 213.827 20.7771   8
   5  -3  -9 220.814 20.4200   2
   5  -3  -8 461.717 22.6155   8
   5  -3  -8 507.922 25.6442   2
  -5   3   8 470.798 24.6898   8
   5  -3  -7 24.5295 8.77311   8
   5  -3  -7 31.4162 15.4312   2
  -5   3   7 17.2556 14.2506   8
  -5   3   6 7.03046 11.8464   8
   5  -3  -6 0.29452 7.10636   8
  -5   3   6-2.63441 13.0594   6
  -5   3   5 443.711 21.0501   6
  -5   3   5 391.887 19.1726   2
  -5   3   5 425.013 20.7519   5
   5  -3  -5 442.389 18.5359   8
   5  -3  -5 493.469 21.7488   1
  -5   3   5 453.331 19.7096   8
   5  -3  -4 7603.81 190.722   8
  -5   3   4 7659.61 191.150   2
  -5   3   4 7584.79 193.880   5
   5  -3  -4 7445.29 192.685   2
  -5   3   4 7886.32 190.825   8
  -5   3   3 5.57192 8.88012   8
  -5   3   3 5.22615 9.37196   2
  -5   3   3-0.25730 6.04219   5
   5  -3  -3 6.69847 6.49554   2
  -5   3   2 462.339 18.2644   2
  -5   3   2 415.437 17.5887   5
   5  -3  -2 432.794 18.0036   2
  -5   3   2 469.952 20.0765   4
  -5   3   2 471.223 17.0262   8
  -5   3   1 20.4251 7.88905   8
   5  -3  -1 26.4824 6.15345   1
   5  -3  -1 16.6729 11.5316   5
  -5   3   1 31.6082 9.12734   2
   5  -3  -1 24.3806 5.87781   2
  -5   3   1 28.3383 9.50963   4
  -5   3   0 1152.90 31.6910   8
  -5   3   0 1224.64 33.5131   2
   5  -3   0 1098.26 34.3509   1
  -5   3   0 1114.73 34.0920   4
  -5   3  -1 1026.85 28.0069   2
   5  -3   1 899.442 30.1997   4
  -5   3  -1 919.914 29.3770   4
   5  -3   1 886.876 29.2752   1
  -5   3  -2-1.00432 8.23049   7
   5  -3   2 5.92605 6.21859   1
  -5   3  -2 19.6870 7.80815   2
  -5   3  -2 19.2896 9.14495   4
  -5   3  -2 12.2362 5.70390   8
   5  -3   2 13.7867 6.07872   4
   5  -3   3 1658.87 46.0746   1
  -5   3  -3 1720.28 46.1079   7
   5  -3   3 1639.53 46.6880   4
  -5   3  -3 1592.59 42.6469   8
  -5   3  -4 40.0573 10.2005   7
   5  -3   4 35.9622 7.29138   1
  -5   3  -4 41.0037 9.15369   8
   5  -3   4 36.6711 6.81301   4
  -5   3  -5 373.721 19.6776   3
   5  -3   5 334.918 15.0038   1
   5  -3   5 299.494 16.1611   5
   5  -3   5 341.703 15.6377   4
  -5   3  -5 301.571 16.1760   8
  -5   3  -6 106.615 16.3658   3
   5  -3   6 100.571 11.5526   5
   5  -3   6 121.691 9.69835   1
   5  -3   6 108.364 11.0329   4
  -5   3  -6 90.9697 13.8111   8
  -5   3  -7 342.539 22.8916   3
  -5   3  -7 244.527 12.4079   6
   5  -3   7 273.224 16.6911   5
   5  -3   7 319.536 16.5146   4
   5  -3   7 319.009 14.0650   1
  -5   3  -7 291.121 19.1507   8
   5  -3   8 11.6276 8.56891   4
  -5   3  -8 12.2149 17.2763   3
  -5   3  -8 14.5444 9.39361   6
   5  -3   8 11.0573 7.27902   1
   5  -3   8 22.5598 10.0621   5
  -5   3  -8 23.2466 16.7765   8
   5  -3   9 10.1295 8.90556   4
  -5   3  -9-1.08357 18.3627   8
   5  -3   9 19.6938 7.41679   1
  -5   3  -9-0.64291 18.8222   3
   5  -3   9 6.73691 9.61040   5
   5  -3  10 192.933 16.7453   5
   5  -3  10 218.911 15.9796   4
  -5   3 -10 172.773 23.6422   8
   5  -3  11 0.19354 10.4737   4
  -5   3 -11 4.54487 21.3491   8
  -5   3 -11 30.5879 23.2912   3
   5  -3  11 3.90702 11.0794   5
  -5   2  14 351.510 20.9868   6
   5  -2 -14 284.509 21.1756   1
   5  -2 -13 37.8647 16.0454   1
  -5   2  13 54.2850 12.2057   6
  -5   2  13 46.0872 24.3629   8
   5  -2 -12 2.78622 14.6895   1
   5  -2 -12 5.54847 12.9153   8
  -5   2  12 14.8905 9.77079   6
  -5   2  12-4.94350 21.7870   8
   5  -2 -11 173.403 17.0252   8
  -5   2  11 160.988 14.1585   6
   5  -2 -11 160.129 16.7086   1
  -5   2  11 175.979 24.4121   8
   5  -2 -10 105.225 15.1542   1
   5  -2 -10 97.5443 14.3061   8
  -5   2  10 83.1641 11.3621   6
   5  -2 -10 105.040 16.8473   2
  -5   2  10 76.3776 20.6264   8
   5  -2  -9 742.964 29.9946   8
  -5   2   9 778.279 32.8214   8
  -5   2   9 692.145 26.8556   6
  -5   2   9 664.351 25.7175   2
   5  -2  -9 699.989 28.5613   2
   5  -2  -9 754.020 27.9912   1
   5  -2  -8 190.253 14.3282   8
  -5   2   8 162.714 11.5020   2
   5  -2  -8 175.832 17.0885   2
  -5   2   8 208.908 18.9703   8
   5  -2  -8 191.768 16.0137   1
   5  -2  -7 2134.51 62.3466   8
   5  -2  -7 2268.79 62.4570   2
   5  -2  -7 2355.87 61.2362   1
  -5   2   7 2345.59 64.0188   8
   5  -2  -6 512.058 21.0555   8
   5  -2  -6 536.934 22.1761   1
  -5   2   6 546.940 23.7972   8
   5  -2  -5 1370.35 42.2412   8
  -5   2   5 1539.57 45.4482   5
   5  -2  -5 1540.60 43.6803   1
  -5   2   5 1456.82 43.7480   8
  -5   2   4 426.888 19.2261   2
  -5   2   4 421.128 17.6510   5
   5  -2  -4 444.957 18.7673   1
  -5   2   4 410.634 18.5897   8
  -5   2   3 1436.58 40.4513   8
  -5   2   3 1368.40 40.5091   2
  -5   2   3 1354.17 40.5986   5
  -5   2   2 1886.50 48.6818   8
   5  -2  -2 1839.42 50.6626   5
  -5   2   2 1704.75 48.9791   2
  -5   2   2 1684.77 48.4604   5
   5  -2  -1 0.90964 5.27635   1
   5  -2  -1-11.4077 10.4723   5
  -5   2   1 2.81368 8.73996   2
  -5   2   1-2.27486 4.45051   5
   5  -2   0 665.535 22.9071   1
  -5   2   0 720.339 22.9196   2
   5  -2   0 760.034 25.1586   5
  -5   2   0 612.692 21.6928   5
  -5   2   0 717.639 24.2728   1
  -5   2   0 658.672 23.1767   4
   5  -2   1 304.322 14.2843   1
  -5   2  -1 342.568 15.1398   2
   5  -2   1 367.215 16.7636   5
  -5   2  -1 347.361 17.5605   1
  -5   2  -1 312.794 14.5734   4
  -5   2  -2 44.4881 9.73643   4
  -5   2  -2 7.84724 11.2818   1
  -5   2  -2 17.4739 8.59347   7
  -5   2  -2 5.00084 9.09410   2
   5  -2   2 42.3620 10.9545   5
   5  -2   2 21.0522 6.93802   1
  -5   2  -2 35.7519 7.37166   8
  -5   2  -3 1698.86 50.6179   7
   5  -2   3 1762.37 50.1262   1
  -5   2  -3 1839.29 48.0873   8
  -5   2  -3 1733.90 50.2042   1
  -5   2  -4 120.003 12.2533   7
  -5   2  -4 114.413 8.85440   2
   5  -2   4 115.909 9.48466   1
   5  -2   4 104.177 9.35314   4
  -5   2  -4 122.053 11.5339   8
  -5   2  -4 103.761 12.7166   1
  -5   2  -5 274.909 18.2160   3
   5  -2   5 236.028 13.3821   4
   5  -2   5 252.479 12.8400   1
  -5   2  -5 241.670 15.1518   8
  -5   2  -5 237.140 15.9670   1
  -5   2  -6 526.732 24.6095   3
   5  -2   6 495.440 18.7983   1
   5  -2   6 479.815 20.1944   4
  -5   2  -6 504.495 21.6896   1
  -5   2  -6 447.187 21.7723   8
   5  -2   7 281.596 14.6563   1
  -5   2  -7 330.464 23.0770   3
   5  -2   7 294.739 15.7462   4
  -5   2  -7 329.286 19.2472   1
  -5   2  -7 247.598 20.0452   8
  -5   2  -8 435.877 26.6231   3
  -5   2  -8 371.620 23.8124   8
  -5   2  -8 313.490 16.6817   6
   5  -2   8 402.023 16.5289   1
   5  -2   8 348.887 19.3016   5
  -5   2  -8 429.124 21.9203   1
   5  -2   8 369.522 18.5202   4
  -5   2  -9 70.2858 20.2192   8
  -5   2  -9 118.817 22.1959   3
  -5   2  -9 72.3653 13.2513   6
   5  -2   9 85.7618 12.2332   5
   5  -2   9 95.2993 10.4120   1
   5  -2   9 86.1494 11.1724   4
  -5   2 -10 70.6995 22.3791   8
  -5   2 -10 118.307 25.4033   3
  -5   2 -10 56.4642 14.5321   6
   5  -2  10 68.4372 12.8434   5
   5  -2  10 73.6446 11.6503   4
  -5   2 -11 41.8821 23.8825   8
   5  -2  11 40.1819 11.7107   4
   5  -2  11 55.3644 13.1991   5
   5  -1 -15 90.7269 27.3497   8
  -5   1  15 64.8200 14.8960   3
  -5   1  15 77.4983 14.1506   6
  -5   1  14 10.3133 11.8352   3
  -5   1  14 14.2429 10.6870   6
   5  -1 -14 7.98788 15.9125   1
   5  -1 -13 2.99713 15.1687   1
  -5   1  13 9.99377 9.91933   6
  -5   1  12 325.005 18.6408   6
   5  -1 -12 316.881 19.8221   1
   5  -1 -11 83.5814 14.6538   1
  -5   1  11 72.3310 11.7942   6
  -5   1  11 71.9125 10.8730   2
   5  -1 -10 16.2704 12.9328   1
  -5   1  10 11.7373 8.84708   6
  -5   1  10 6.10194 8.44702   2
  -5   1  10 25.4178 19.1810   8
   5  -1  -9 1663.94 53.8675   8
  -5   1   9 1801.42 53.2158   6
  -5   1   9 1803.80 52.6403   2
   5  -1  -9 1760.34 50.5466   1
   5  -1  -8 254.219 15.4695   8
  -5   1   8 254.672 14.9200   6
  -5   1   8 246.276 14.6629   2
   5  -1  -8 273.948 15.9344   1
  -5   1   8 285.667 20.9317   8
   5  -1  -7 25.7841 7.71471   8
   5  -1  -7 28.1495 11.1641   1
  -5   1   7 25.1047 14.5241   8
  -5   1   7 22.6056 7.59521   2
   5  -1  -6 95.6735 9.06019   8
   5  -1  -6 93.7737 11.6064   1
  -5   1   6 107.486 14.9299   8
   5  -1  -5 2124.42 58.9634   1
  -5   1   5 2240.19 60.9374   5
  -5   1   5 2206.72 61.4082   8
  -5   1   4 1119.87 36.1218   8
  -5   1   4 1132.19 34.2836   5
  -5   1   4 1166.64 36.2406   2
   5  -1  -4 1104.17 34.2038   1
  -5   1   3 48.6931 11.0222   8
   5  -1  -3 43.1149 10.9151   1
  -5   1   3 40.8781 6.32787   5
  -5   1   3 48.1810 11.5864   2
   5  -1  -2 5015.27 122.675   5
  -5   1   2 5180.60 123.969   2
  -5   1   1 44.0725 10.9534   1
  -5   1   1 45.4306 5.87694   5
   5  -1  -1 50.3399 9.41981   5
  -5   1   1 43.1106 9.93522   2
   5  -1   0 198.645 11.0014   1
  -5   1   0 218.654 13.9748   1
   5  -1   0 235.201 12.6635   5
  -5   1   0 197.909 12.3776   2
  -5   1   0 188.836 9.85528   5
   5  -1   1 322.773 14.2606   1
   5  -1   1 343.307 16.0050   5
  -5   1  -1 283.691 13.6315   2
  -5   1  -1 322.958 16.4342   1
  -5   1  -2 4159.27 108.928   7
   5  -1   2 4243.98 108.921   1
   5  -1   2 4555.08 109.533   5
  -5   1  -2 4115.21 108.531   1
  -5   1  -2 4452.64 107.451   8
  -5   1  -3 43.5399 9.75887   8
  -5   1  -3 33.2964 9.71913   7
   5  -1   3 41.4648 7.62424   1
  -5   1  -3 50.6124 11.5436   1
   5  -1   3 46.7397 11.7585   5
  -5   1  -4 8.15660 10.3687   7
  -5   1  -4 10.9752 11.6115   1
   5  -1   4 7.87852 6.58501   1
   5  -1   4 7.51213 12.1608   5
  -5   1  -4 11.8490 10.0906   8
  -5   1  -5 505.091 23.0300   7
   5  -1   5 524.246 19.6162   1
  -5   1  -5 517.944 22.1305   8
  -5   1  -5 505.668 21.5773   1
  -5   1  -6 24.7792 12.8874   1
   5  -1   6 26.6101 8.33522   1
  -5   1  -6 32.4785 14.1610   8
  -5   1  -7 1.71729 15.0033   1
   5  -1   7 3.96198 7.58947   1
  -5   1  -7 11.1346 15.4545   8
  -5   1  -8-9.47171 17.9400   8
   5  -1   8 5.26566 7.92547   1
  -5   1  -8-14.5882 13.7664   6
  -5   1  -8 4.95958 15.2580   1
   5  -1   9-3.34185 9.26280   1
  -5   1  -9 6.76007 16.1850   1
  -5   1  -9-10.7654 14.4789   6
  -5   1  -9-14.6611 20.2242   8
  -5   1 -10 16.0032 16.9511   1
  -5   1 -10 27.5887 15.7321   6
   5  -1  10 34.2583 12.0276   5
  -5   1 -10 32.4882 22.4712   8
  -5   1 -11 25.5916 24.3018   8
   5  -1  11 17.7568 12.1556   5
  -5   1 -12 117.664 29.4263   8
   5   0 -15 212.449 28.4827   8
  -5   0  15 149.945 16.9907   3
  -5   0  15 180.859 16.5343   6
  -5   0  15 186.286 19.2137   8
   5   0 -14 159.086 17.0098   1
  -5   0  14 154.969 16.5035   3
  -5   0  14 174.966 15.5641   6
  -5   0  14 150.626 18.3400   8
   5   0 -14 201.174 27.0678   8
   5   0 -13 177.083 16.9336   1
   5   0 -13 198.050 24.5756   8
  -5   0  13 182.894 14.9835   6
  -5   0  13 174.040 14.4563   2
  -5   0  12 419.361 21.0270   6
  -5   0  12 410.171 21.0922   2
   5   0 -12 407.263 21.2395   1
  -5   0  11 41.1303 11.0189   6
   5   0 -11 46.8047 13.7900   1
  -5   0  11 46.3118 10.8739   2
  -5   0  10 2081.46 61.6211   6
  -5   0  10 2135.66 61.8120   2
   5   0 -10 2175.30 58.5295   1
   5   0  -9 1.41483 11.5218   1
  -5   0   9-1.77216 8.19140   2
  -5   0   8 1922.54 55.7015   2
  -5   0   8 1919.95 58.2947   8
   5   0  -8 1872.19 52.2772   1
  -5   0   7 932.549 32.0959   2
   5   0  -7 911.651 29.5573   1
  -5   0   7 914.936 34.3179   8
  -5   0   6 113.568 14.9432   8
  -5   0   6 122.305 9.93303   5
   5   0  -6 116.869 11.8740   1
  -5   0   5 21.5492 13.1431   8
   5   0  -5 19.3023 9.63192   1
  -5   0   5 17.5995 6.02636   5
  -5   0   5 21.6349 6.09473   1
  -5   0   4 687.093 25.3370   8
   5   0  -4 687.189 23.7900   1
  -5   0   4 716.160 22.4590   5
  -5   0   4 621.403 25.8835   2
  -5   0   4 665.478 23.2685   1
   5   0  -3 5.22266 9.20715   5
   5   0  -3-0.99857 10.6676   1
  -5   0   3 23.4425 4.84464   5
  -5   0   3 8.88700 6.31501   4
   5   0  -2 1770.21 45.7207   5
  -5   0   2 1632.22 44.5902   5
  -5   0   2 1610.90 45.9023   4
   5   0  -1 338.282 14.0598   5
  -5   0   1 281.141 12.0207   5
  -5   0   1 295.658 12.1888   4
   5   0   0 2428.28 65.6014   1
   5   0   0 2384.11 64.4258   5
   5   0   0 2882.05 68.3779   4
  -5   0   0 2257.58 63.8143   4
  -5   0   0 2728.28 66.9418   1
   5   0   1 358.452 15.1141   1
   5   0   1 338.932 15.7956   5
  -5   0  -1 346.231 17.3368   1
   5   0   1 404.992 17.3169   4
  -5   0  -1 321.775 13.3771   4
  -5   0  -2 2538.51 65.2816   7
   5   0   2 2484.41 64.3450   5
   5   0   2 2344.15 64.1932   1
  -5   0  -2 2214.50 63.6905   8
   5   0   2 2593.35 64.7027   4
  -5   0  -2 2323.79 64.5638   1
  -5   0  -3 88.2167 12.6350   1
  -5   0  -3 94.6452 12.1356   7
   5   0   3 94.7557 12.4964   5
   5   0   3 89.8768 8.82929   1
  -5   0  -3 93.1659 11.5985   8
   5   0   3 97.6551 12.0265   4
  -5   0  -4 618.499 26.2184   7
   5   0   4 670.762 25.7126   5
  -5   0  -4 684.064 25.5015   1
  -5   0  -4 724.195 25.5812   8
   5   0   4 745.311 26.1895   4
   5   0   4 685.089 24.0536   1
  -5   0  -5 1.86851 12.7361   7
   5   0   5 21.8382 8.06165   1
  -5   0  -5 12.0683 12.7688   1
   5   0   5 21.8232 13.1080   5
  -5   0  -5 29.3614 13.4141   8
   5   0   6 134.900 11.5767   1
   5   0   6 141.614 17.7579   5
  -5   0  -6 172.229 18.1285   8
   5   0   6 173.773 16.4550   4
  -5   0  -6 139.867 16.2769   1
  -5   0  -7 349.263 21.4387   1
   5   0   7 327.895 17.2830   1
   5   0   7 315.354 22.5823   5
   5   0   7 380.976 21.6115   4
  -5   0  -7 309.675 22.9379   8
   5   0   8 14.3855 15.6211   4
  -5   0  -8 1.49618 16.6539   1
  -5   0  -8 2.24802 8.45592   2
   5   0   8 7.13543 9.11949   1
  -5   0  -8 14.0663 18.4511   8
   5   0   9 47.8553 17.5409   4
  -5   0  -9 18.5988 16.2082   6
  -5   0  -9 34.6816 17.7343   1
   5   0   9 11.9253 10.8027   1
  -5   0  -9 22.2672 21.9192   8
  -5   0 -10 19.6480 18.5045   1
  -5   0 -10-5.85743 17.3310   6
  -5   0 -10 13.1664 23.4703   8
  -5   0 -11 42.8997 27.1609   8
  -5   0 -12 26.6160 28.8234   8
  -5  -1  16 13.5012 11.9224   6
   5   1 -15 13.8981 23.9460   8
  -5  -1  15 4.99222 11.5176   3
  -5  -1  15 10.0689 11.3660   6
  -5  -1  15 5.29134 13.8753   8
  -5  -1  14-7.32607 14.3027   8
   5   1 -14 25.1132 22.8289   8
  -5  -1  14-6.51033 11.9872   3
  -5  -1  14 16.5009 11.5359   6
  -5  -1  14 6.41419 9.94075   2
   5   1 -14 2.24519 12.3667   1
   5   1 -13 175.559 24.1759   8
   5   1 -13 173.964 15.3506   1
  -5  -1  13 172.721 15.2834   6
  -5  -1  13 150.450 18.4013   8
  -5  -1  13 174.230 15.4013   2
   5   1 -12 569.184 30.0281   8
   5   1 -12 502.259 21.2435   1
  -5  -1  12 484.516 23.1689   6
  -5  -1  12 488.450 24.2083   2
  -5  -1  12 529.303 26.6662   8
   5   1 -11 470.620 26.8238   8
   5   1 -11 455.410 19.9327   1
  -5  -1  11 419.997 21.2620   6
  -5  -1  11 453.016 21.9769   2
  -5  -1  10 2259.00 64.4223   2
   5   1 -10 2167.30 59.1172   1
  -5  -1   9 87.5916 12.0954   2
   5   1  -9 81.0442 12.5089   1
   5   1  -8 322.493 16.6482   1
  -5  -1   8 361.493 19.1528   2
   5   1  -7 828.419 27.2807   1
  -5  -1   7 879.585 31.5305   2
  -5  -1   6 56.5757 7.98301   1
  -5  -1   6 56.7300 15.4637   8
  -5  -1   6 59.9979 7.12024   5
   5   1  -6 49.7805 10.9059   1
  -5  -1   6 59.4664 9.23115   2
   5   1  -5 120.696 12.1642   1
  -5  -1   5 151.428 8.80417   5
  -5  -1   5 135.420 15.1572   8
  -5  -1   5 125.955 9.98415   1
  -5  -1   4 48.2227 7.77101   1
  -5  -1   4 54.7377 5.60114   5
   5   1  -4 51.3808 10.3156   1
   5   1  -3 8766.75 205.288   1
   5   1  -3 8407.56 203.446   5
  -5  -1   3 8162.10 202.551   5
  -5  -1   3 8645.18 206.019   4
  -5  -1   3 8128.89 205.846   1
  -5  -1   2 721.531 23.5924   4
   5   1  -2 796.047 23.6465   5
  -5  -1   2 743.530 22.5777   5
   5   1  -1 345.043 13.7677   5
  -5  -1   1 318.193 12.8815   4
   5   1   0 41.8690 7.07146   1
  -5  -1   0 57.2002 12.0084   1
   5   1   0 38.1398 8.52276   5
   5   1   0 45.9759 10.5180   4
  -5  -1   0 46.5571 5.18259   4
  -5  -1  -1 602.980 22.9382   1
   5   1   1 569.827 20.5983   5
   5   1   1 564.423 20.6126   1
   5   1   1 641.153 22.0160   4
  -5  -1  -1 547.962 19.0703   4
  -5  -1  -2 1816.93 52.0565   1
  -5  -1  -2 2020.72 53.1540   7
   5   1   2 1851.73 51.2370   5
   5   1   2 1873.03 52.2079   1
  -5  -1  -2 1653.81 51.6893   8
   5   1   2 2024.66 51.9478   4
  -5  -1  -3 187.358 14.6795   1
  -5  -1  -3 197.009 15.1175   7
   5   1   3 180.962 13.8810   5
   5   1   3 191.754 12.1198   1
  -5  -1  -3 152.178 13.7023   8
   5   1   3 188.826 13.8869   4
  -5  -1  -4 335.885 18.7267   8
   5   1   4 353.129 16.6933   1
  -5  -1  -4 334.929 15.3899   3
  -5  -1  -4 325.935 18.2828   1
  -5  -1  -4 340.593 19.9588   7
   5   1   4 324.983 18.5353   5
   5   1   4 349.902 17.9921   4
  -5  -1  -5 211.799 17.1079   1
   5   1   5 195.597 13.3822   1
  -5  -1  -5 159.936 17.7642   7
  -5  -1  -5 204.677 13.4430   3
   5   1   5 180.978 16.4514   5
  -5  -1  -5 214.921 17.8716   8
   5   1   5 213.048 15.4531   4
   5   1   6 16.0095 13.5112   4
  -5  -1  -6 14.7820 8.94839   3
   5   1   6 20.6526 8.58964   1
  -5  -1  -6 16.8341 14.3535   1
  -5  -1  -6 1.66776 16.1119   8
   5   1   7 254.327 19.2764   4
  -5  -1  -7 231.177 19.9734   1
  -5  -1  -7 216.339 22.6219   8
  -5  -1  -7 244.769 16.8742   3
   5   1   7 229.987 16.5950   1
   5   1   8 5.07609 15.5755   4
   5   1   8-2.91392 10.7313   1
  -5  -1  -8-4.18999 10.9192   3
  -5  -1  -8 4.20653 18.2339   1
  -5  -1  -8 9.81437 19.4455   8
   5   1   9 0.21377 11.7058   1
  -5  -1  -9-0.21912 12.0387   3
  -5  -1  -9-2.38773 17.2894   6
  -5  -1  -9 2.49043 19.0900   1
  -5  -1  -9 5.59521 11.9437   2
   5   1   9-11.0028 20.2518   5
   5   1   9 25.2770 17.2018   4
  -5  -1  -9 22.1189 21.7859   8
   5   1  10 3.33155 17.9567   4
  -5  -1 -10-6.45422 19.3179   6
  -5  -1 -10-0.61888 20.2286   1
   5   1  10-0.21500 22.0392   5
  -5  -1 -10 7.14007 25.2795   8
  -5  -1 -11 119.883 30.6818   8
  -5  -2  16 15.4070 11.6876   6
  -5  -2  15 213.224 17.3582   3
  -5  -2  15 230.747 17.7271   6
  -5  -2  15 232.627 16.7144   2
  -5  -2  15 229.126 21.7007   8
  -5  -2  14 59.8695 11.8804   3
  -5  -2  14 80.3158 12.7835   6
  -5  -2  14 70.2000 12.2334   2
   5   2 -14 82.8739 10.3634   1
  -5  -2  14 59.2829 15.8852   8
  -5  -2  13 359.220 20.5688   6
  -5  -2  13 381.344 21.6041   2
   5   2 -13 406.981 16.8475   1
  -5  -2  13 401.978 24.5322   8
  -5  -2  12 789.049 31.6203   6
  -5  -2  12 846.611 32.8258   2
   5   2 -12 863.853 27.1523   1
  -5  -2  12 814.691 35.0867   8
   5   2 -11 662.869 23.4611   1
  -5  -2  11 673.771 27.8894   2
  -5  -2  11 583.550 28.6875   8
   5   2 -10-4.89913 11.5272   1
  -5  -2  10 10.4596 10.9945   8
  -5  -2  10 11.7929 10.8881   2
   5   2  -9 243.881 14.7593   1
  -5  -2   9 266.343 17.8839   2
   5   2  -8 545.955 20.8686   1
  -5  -2   8 550.491 24.4155   2
   5   2  -7 77.3764 11.1581   1
  -5  -2   7 84.5107 7.97902   5
  -5  -2   7 73.6987 8.87858   1
   5   2  -6 382.119 17.4697   1
  -5  -2   6 453.499 15.1647   5
  -5  -2   6 395.351 17.2290   1
   5   2  -5 1598.60 45.9042   1
  -5  -2   5 1687.01 42.8657   5
  -5  -2   5 1644.76 47.2423   1
   5   2  -4 1560.13 43.8973   1
  -5  -2   4 1545.29 40.2493   5
  -5  -2   4 1575.26 45.3857   4
  -5  -2   4 1542.28 44.7454   1
  -5  -2   3 2160.47 58.5688   1
   5   2  -3 2070.19 55.2104   5
   5   2  -3 2306.71 58.4761   1
  -5  -2   3 2107.55 57.1458   4
   5   2  -2 32.0235 11.1881   1
   5   2  -2 31.9957 7.19388   5
  -5  -2   2 19.2961 5.30489   4
   5   2  -1 978.723 27.5933   5
  -5  -2   1 928.636 27.4507   4
  -5  -2   0 421.432 19.1978   1
  -5  -2   0 386.484 14.3060   4
   5   2   0 390.473 15.5038   5
   5   2   0 389.344 18.2714   4
   5   2   1 9.50464 9.02308   4
   5   2   1-0.62888 8.28000   5
  -5  -2  -1 2.78047 11.3650   1
   5   2   1 1.87798 6.16123   1
  -5  -2  -2 1073.37 34.8999   1
   5   2   2 1041.30 32.9715   5
  -5  -2  -2 1082.35 35.1196   8
   5   2   2 1158.69 33.4378   4
   5   2   2 1095.77 34.5426   1
  -5  -2  -3 64.1583 8.05586   3
   5   2   3 71.7780 9.69307   1
  -5  -2  -3 64.9672 13.6221   1
  -5  -2  -3 44.4949 11.8965   8
   5   2   3 58.0338 11.6727   4
  -5  -2  -4 165.023 11.6290   3
  -5  -2  -4 164.455 16.3392   1
   5   2   4 173.447 12.7356   1
   5   2   4 168.991 14.5645   4
  -5  -2  -4 165.602 15.8813   8
   5   2   5 10.2028 12.4236   4
   5   2   5 15.5201 8.83772   1
  -5  -2  -5 12.3435 14.8336   8
  -5  -2  -5 16.1454 8.51120   3
  -5  -2  -5-14.5908 16.0418   7
  -5  -2  -5 16.4858 14.1864   1
  -5  -2  -6 290.210 17.4556   3
  -5  -2  -6 314.961 20.8206   1
  -5  -2  -6 301.994 23.5269   8
   5   2   6 289.001 17.9650   1
   5   2   6 282.769 19.2390   4
   5   2   7 68.5483 15.8019   4
   5   2   7 57.8768 13.7654   1
  -5  -2  -7 62.0113 12.5916   3
  -5  -2  -7 50.5106 18.8553   1
  -5  -2  -7 56.7419 21.0185   8
   5   2   8 80.2212 17.1560   4
   5   2   8 55.6988 14.8277   1
  -5  -2  -8 52.8660 13.4329   3
  -5  -2  -8 66.5837 19.7674   1
  -5  -2  -8 57.8531 22.3495   8
  -5  -2  -9 182.101 23.3960   1
  -5  -2  -9 84.2528 20.8752   6
   5   2   9 156.124 20.0124   4
  -5  -2  -9 120.740 25.8011   8
   5   2  10 56.6764 19.2819   4
  -5  -2 -10 14.9082 21.5463   6
  -5  -2 -10 62.4028 23.5752   1
  -5  -2 -10 86.5991 30.2292   8
  -5  -2 -11-16.6992 23.6986   6
  -5  -3  16 7.74556 11.1333   3
  -5  -3  15 42.0573 11.9440   3
  -5  -3  15 61.3937 12.8870   6
  -5  -3  15 65.0910 12.6591   2
  -5  -3  15 52.9085 16.3086   8
  -5  -3  14-16.2468 10.9480   3
  -5  -3  14 5.94614 10.4262   6
  -5  -3  14 0.19395 11.2170   2
  -5  -3  14 3.39799 13.4778   8
  -5  -3  13 17.6539 13.4421   8
   5   3 -13-5.85053 10.6367   1
  -5  -3  13-3.66734 9.99988   3
  -5  -3  13 24.1329 11.5111   6
  -5  -3  13 5.86599 11.2245   2
  -5  -3  12 152.694 15.1922   6
  -5  -3  12 152.137 16.4710   2
  -5  -3  12 149.330 17.3136   8
   5   3 -12 167.874 12.7666   1
  -5  -3  11 45.7948 13.5143   8
   5   3 -11 62.7438 11.3563   1
  -5  -3  11 60.6389 13.0016   2
  -5  -3  10 271.644 18.7070   2
   5   3 -10 254.975 14.3926   1
  -5  -3  10 220.611 17.7566   8
  -5  -3   9 34.9372 10.5130   8
   5   3  -9 49.6685 10.2450   1
  -5  -3   9 12.5104 10.4036   2
  -5  -3   9 37.7609 7.82055   1
  -5  -3   8 1555.99 50.9840   8
  -5  -3   8 1701.60 43.7004   5
   5   3  -8 1575.34 44.7949   1
  -5  -3   8 1608.88 46.1416   1
  -5  -3   7 1320.38 33.0765   5
   5   3  -7 1194.70 36.3347   1
  -5  -3   7 1292.62 38.2939   1
  -5  -3   6 222.045 7.62825   5
   5   3  -6 205.271 13.6675   1
  -5  -3   6 239.427 13.4951   1
  -5  -3   5 25.2180 7.25128   1
   5   3  -5 22.6989 10.0629   1
  -5  -3   4 3052.50 81.7064   1
   5   3  -4 3099.29 80.6338   1
  -5  -3   4 3172.48 80.8619   4
  -5  -3   3 978.320 30.6818   1
   5   3  -3 1062.28 31.4720   1
  -5  -3   3 983.319 27.9839   4
  -5  -3   2 142.460 10.5978   1
   5   3  -2 150.032 8.61889   5
  -5  -3   2 150.430 8.12711   4
   5   3  -2 170.124 14.1156   1
   5   3  -1 237.848 11.4670   5
  -5  -3   1 240.853 10.4076   4
   5   3   0 48.7010 8.80149   5
   5   3   0 30.2955 9.96792   4
   5   3   1 501.530 20.3763   1
  -5  -3  -1 460.907 18.8029   7
  -5  -3  -1 554.089 23.0819   1
   5   3   1 484.607 18.5580   5
   5   3   1 486.129 19.4069   4
   5   3   2 60.5737 9.57785   1
  -5  -3  -2 70.3815 7.99237   3
  -5  -3  -2 105.403 13.9449   8
   5   3   2 97.3982 10.8552   4
  -5  -3  -2 79.1498 14.4894   1
  -5  -3  -3 402.185 17.2125   3
  -5  -3  -3 412.662 21.7929   1
   5   3   3 405.971 19.2108   1
  -5  -3  -3 393.748 21.0331   8
   5   3   3 408.554 18.9686   4
  -5  -3  -4 19.2322 14.4085   8
   5   3   4 60.8147 10.7716   1
  -5  -3  -4 54.9055 9.60976   3
  -5  -3  -4 55.3378 15.7511   1
   5   3   4 39.8769 12.4255   4
   5   3   5 7.01688 12.3973   4
  -5  -3  -5 1.65335 9.36792   3
   5   3   5 8.05764 10.6327   1
  -5  -3  -5-32.4323 16.7228   8
  -5  -3  -5-11.5620 15.8455   1
  -5  -3  -6 148.879 14.8016   3
  -5  -3  -6 140.036 21.4342   8
   5   3   6 173.161 17.2966   4
  -5  -3  -6 150.558 19.6769   1
   5   3   6 141.111 16.4140   1
   5   3   7 108.539 16.9659   4
  -5  -3  -7 110.535 14.5847   3
  -5  -3  -7 128.319 21.3508   1
   5   3   7 103.225 16.7309   1
  -5  -3  -7 83.6825 22.5795   8
  -5  -3  -8 70.0448 21.7241   1
   5   3   8 56.1270 16.7257   4
  -5  -3  -8 41.4340 13.6234   3
   5   3   8 19.2035 14.2605   1
  -5  -3  -8 47.9910 23.7332   8
  -5  -3  -9 40.2570 25.9462   8
  -5  -3  -9-14.8030 21.3101   6
   5   3   9 31.2026 17.9010   4
  -5  -3  -9 18.8488 22.8890   1
  -5  -3 -10 38.1122 23.3802   6
  -5  -3 -10 85.7859 26.1757   1
  -5  -3 -10 124.849 30.9727   8
  -5  -3 -11 6.34387 24.7322   6
  -5  -4  16 138.061 14.6550   3
  -5  -4  15 8.24454 10.2449   3
  -5  -4  15 14.6862 11.1601   6
  -5  -4  15 15.8257 11.9137   2
  -5  -4  15 13.2685 15.2304   8
  -5  -4  14 22.7672 14.6030   8
  -5  -4  14 10.6941 10.4560   3
  -5  -4  14 15.8185 11.3105   6
  -5  -4  14 5.25731 11.5810   2
  -5  -4  13 214.473 15.7852   3
  -5  -4  13 235.959 17.4835   6
  -5  -4  13 238.983 18.3522   2
   5   4 -13 223.715 14.1294   1
  -5  -4  13 245.351 20.9976   8
  -5  -4  12 91.4533 16.0264   8
   5   4 -12 127.240 11.8235   1
  -5  -4  12 92.4390 15.7001   2
  -5  -4  11-3.61544 11.8566   8
   5   4 -11-19.9919 12.2344   1
  -5  -4  11-9.50998 13.2050   2
  -5  -4  10 26.6733 12.4168   8
   5   4 -10 17.8490 11.7691   1
  -5  -4  10 16.9422 11.2795   2
  -5  -4   9 276.156 19.0017   8
  -5  -4   9 243.842 9.48362   5
  -5  -4   9 267.530 13.9763   1
   5   4  -9 261.916 15.0063   1
  -5  -4   8 13.3722 10.4723   8
   5   4  -8 1.64288 10.8601   1
  -5  -4   8-3.21070 8.19927   1
   5   4  -7 5.68081 11.0529   1
  -5  -4   7-0.19333 9.28281   8
  -5  -4   7-1.38538 8.14035   1
  -5  -4   6 1870.57 51.4582   1
  -5  -4   6 1732.43 54.1455   8
   5   4  -6 1732.27 49.4104   1
   5   4  -5 46.6708 11.4442   1
  -5  -4   5 35.7783 8.61779   1
  -5  -4   5 30.4692 7.78943   4
   5   4  -4 33.8436 11.8303   1
  -5  -4   4 38.6145 8.14367   1
  -5  -4   4 40.7852 6.19826   4
   5   4  -3 323.429 17.6895   1
  -5  -4   3 312.274 15.1367   1
  -5  -4   3 319.649 11.7953   4
  -5  -4   2 60.0381 5.79589   4
  -5  -4   2 59.4146 8.57856   1
   5   4  -2 59.8214 13.5551   1
   5   4  -2 47.7274 7.02148   5
   5   4  -1 4.39612 7.38619   5
   5   4   0 123.545 10.2212   5
   5   4   0 103.367 12.3871   4
  -5  -4  -1 1042.44 30.4557   3
  -5  -4  -1 1031.29 32.0105   7
   5   4   1 927.408 33.0673   1
  -5  -4  -1 1149.15 35.8137   1
   5   4   1 896.413 30.8439   4
  -5  -4  -2 269.706 13.9128   3
  -5  -4  -2 257.376 14.8535   7
  -5  -4  -2 269.903 19.8726   1
   5   4   2 254.531 15.9798   1
  -5  -4  -2 314.961 19.0149   8
   5   4   2 257.792 14.6023   4
  -5  -4  -3 130.423 18.0706   1
  -5  -4  -3 154.121 11.9243   3
  -5  -4  -3 146.463 12.7442   7
   5   4   3 136.801 13.7058   1
  -5  -4  -3 160.338 17.2843   8
   5   4   3 114.526 13.3740   4
  -5  -4  -4 80.0066 17.1240   8
  -5  -4  -4 87.1985 17.9031   1
  -5  -4  -4 82.9878 11.1757   3
  -5  -4  -4 77.3533 11.5719   7
   5   4   4 89.0394 13.9410   1
   5   4   4 79.3135 13.3548   4
   5   4   5 217.442 18.6644   1
  -5  -4  -5 247.654 16.7439   3
  -5  -4  -5 265.175 22.2450   1
   5   4   5 226.230 17.4176   4
  -5  -4  -6 162.906 15.2595   3
   5   4   6 134.155 17.8330   1
  -5  -4  -6 183.605 21.8559   1
   5   4   6 168.944 17.0051   4
   5   4   7-1.29704 15.2472   4
  -5  -4  -7-14.1721 12.1334   3
  -5  -4  -7-15.7838 21.5406   8
  -5  -4  -7-8.50640 20.9828   1
   5   4   8 103.383 18.2840   4
  -5  -4  -8 85.1299 26.4671   8
  -5  -4  -8 112.739 23.8319   1
   5   4   9 14.3386 21.6043   4
  -5  -4  -9 5.59845 22.5546   6
  -5  -4  -9 10.9235 23.8162   1
  -5  -4  -9 2.26459 26.7492   8
  -5  -4 -10-18.8952 24.6609   6
  -5  -4 -10 41.4429 27.5411   1
  -5  -5  16 113.892 13.5048   3
  -5  -5  15 0.31596 15.7620   8
  -5  -5  15-3.78467 9.96127   3
  -5  -5  15 1.10666 10.9243   6
  -5  -5  15-0.83820 11.8197   2
  -5  -5  14 27.9527 15.1310   8
  -5  -5  14 26.0551 10.4494   3
  -5  -5  14 30.6499 12.2923   6
  -5  -5  14 29.0840 13.1140   2
  -5  -5  13 57.5298 15.6288   8
  -5  -5  13 34.1136 10.2299   3
  -5  -5  13 51.3492 9.72741   5
  -5  -5  13 34.7427 13.7050   2
  -5  -5  12 32.4013 14.0765   8
  -5  -5  12 26.2498 10.0221   3
   5   5 -12 12.6998 14.1867   1
  -5  -5  12 39.4128 7.45543   5
  -5  -5  12 44.6350 14.2344   2
  -5  -5  11 667.577 21.8629   3
  -5  -5  11 746.519 28.1977   2
   5   5 -11 756.348 22.7712   1
  -5  -5  11 730.073 31.2721   8
  -5  -5  10 1.18240 8.00453   1
  -5  -5  10 13.3929 12.7274   8
  -5  -5   9 508.636 26.8134   8
   5   5  -9 502.922 20.6415   1
  -5  -5   9 467.081 19.9599   1
  -5  -5   8-0.69563 11.5755   8
  -5  -5   8 5.77581 7.97953   1
   5   5  -8 6.63416 12.0904   1
  -5  -5   7 32.8885 11.5375   8
  -5  -5   7 19.8225 8.65766   1
   5   5  -7-2.97598 12.7781   1
  -5  -5   6 230.062 14.4075   1
   5   5  -6 191.760 15.8164   1
  -5  -5   6 222.243 13.5900   4
   5   5  -5 27.5609 12.6080   1
  -5  -5   5 37.4683 9.12870   1
  -5  -5   5 41.2844 6.88381   4
   5   5  -4 1427.18 44.9366   1
  -5  -5   4 1557.58 46.1629   1
  -5  -5   4 1560.42 40.7794   4
  -5  -5   3 13.7795 4.99039   4
   5   5  -3 20.2172 5.42138   5
  -5  -5   3 14.3836 8.59949   1
   5   5  -2 817.097 28.1641   1
  -5  -5   2 821.761 27.3833   1
   5   5  -1 659.362 25.8621   1
   5   5  -1 510.810 17.9306   5
  -5  -5   0-3.60323 6.44773   3
  -5  -5   0-1.08857 7.32910   7
   5   5   0-10.2553 11.4185   4
  -5  -5  -1 41.4276 16.7300   1
  -5  -5  -1 41.5686 8.85167   7
  -5  -5  -1 42.7881 8.42164   3
   5   5   1 41.2990 11.3124   4
  -5  -5  -2 305.063 15.2428   3
  -5  -5  -2 279.886 16.2683   7
  -5  -5  -2 289.969 21.9040   1
   5   5   2 276.158 18.6519   1
   5   5   2 262.280 15.0838   4
   5   5   3 257.410 19.2352   1
  -5  -5  -3 311.069 16.4077   3
  -5  -5  -3 300.701 17.2883   7
  -5  -5  -3 309.950 22.9112   1
  -5  -5  -3 360.045 22.8235   8
   5   5   3 251.386 16.1518   4
  -5  -5  -4-2.65034 18.4924   1
  -5  -5  -4-5.03736 10.0731   7
  -5  -5  -4 4.37163 10.0570   3
   5   5   4 7.01350 12.2649   1
  -5  -5  -4 5.39752 17.3587   8
   5   5   4 4.20352 12.6882   4
  -5  -5  -5 19.3892 19.3552   1
   5   5   5 1.07781 13.5866   1
  -5  -5  -5 15.5434 10.9002   3
   5   5   5 17.2543 13.5919   4
  -5  -5  -5-22.3221 20.7850   8
   5   5   6 28.1420 15.2847   4
  -5  -5  -6 39.1739 20.7433   1
   5   5   6-11.5653 15.6732   1
  -5  -5  -6-37.4565 24.0052   8
   5   5   7 8.78765 15.7813   4
  -5  -5  -7-1.59347 22.0304   1
  -5  -5  -7-5.84188 23.8373   8
  -5  -5  -8 15.2220 24.1428   1
  -5  -5  -8 4.40751 26.2989   8
   5   5   8 29.1708 17.9340   4
   5   5   9 14.6244 18.6957   4
  -5  -5  -9 19.5427 26.5062   1
  -5  -5  -9 30.7545 24.7355   6
  -5  -6  14 195.478 14.3663   3
  -5  -6  14 185.683 17.1331   6
  -5  -6  14 196.763 19.1782   2
  -5  -6  14 209.813 22.6386   8
  -5  -6  13 145.196 12.7874   3
  -5  -6  13 137.947 17.8500   2
  -5  -6  13 136.516 19.8794   8
  -5  -6  12 13.2140 13.3587   8
  -5  -6  12 2.16441 8.76530   3
  -5  -6  12 17.3657 12.8688   2
  -5  -6  11 724.880 25.3491   3
  -5  -6  11 668.461 24.4167   1
   5   6 -11 693.882 29.3758   1
  -5  -6  11 768.264 34.9127   8
  -5  -6  10 67.1280 15.3466   8
  -5  -6  10 55.0781 10.0982   1
  -5  -6  10 46.1217 8.45982   3
   5   6 -10 63.6052 16.2928   1
  -5  -6   9 117.768 17.9442   8
   5   6  -9 99.2065 16.0262   1
  -5  -6   9 81.7444 11.2699   1
  -5  -6   8 52.5863 14.3483   8
   5   6  -8 58.7928 14.5262   1
  -5  -6   8 41.2910 10.5338   1
  -5  -6   7 129.035 16.7822   8
  -5  -6   7 125.751 12.3945   1
   5   6  -7 139.968 15.2630   1
  -5  -6   7 104.902 11.0919   4
  -5  -6   6 157.208 13.5048   1
   5   6  -6 157.413 15.6379   1
  -5  -6   6 157.647 9.37490   4
   5   6  -5 36.1644 13.7158   1
  -5  -6   5 7.11370 9.29052   1
  -5  -6   4 1690.88 50.9419   1
  -5  -6   4 1728.93 43.4586   4
  -5  -6   3-4.09819 9.72411   1
   5   6  -3 31.0780 14.6365   1
  -5  -6   2 21.2293 10.1974   1
   5   6  -2 32.8055 15.8376   1
   5   6  -2 17.4929 6.84241   5
  -5  -6   1 7.45301 7.68285   7
  -5  -6   1 11.6828 6.18597   3
  -5  -6   1 13.5298 10.4138   1
   5   6  -1 14.5586 16.3786   1
  -5  -6   0 373.523 17.3466   7
  -5  -6   0 418.709 15.8139   3
  -5  -6  -1 366.617 15.9958   3
  -5  -6  -1 378.597 18.2563   7
  -5  -6  -2-4.66455 9.13883   7
   5   6   2 4.63675 11.7497   1
  -5  -6  -2-12.1994 18.7671   1
  -5  -6  -2-2.67782 8.37182   3
   5   6   2 17.2773 11.1284   4
  -5  -6  -3 274.330 16.0937   3
  -5  -6  -3 272.542 17.3436   7
   5   6   3 239.979 20.7033   1
  -5  -6  -3 305.008 24.3097   1
   5   6   3 251.655 15.7681   4
  -5  -6  -4 17.5603 19.7499   1
  -5  -6  -4 6.37165 10.1751   3
   5   6   4 7.57695 13.4165   1
   5   6   4 1.76688 13.0090   4
   5   6   5-21.5666 15.2446   1
  -5  -6  -5-2.68738 20.7668   1
  -5  -6  -5-43.2609 24.2677   8
   5   6   5-6.52928 13.9320   4
  -5  -6  -6-0.40814 22.2456   1
   5   6   6 0.13339 15.0592   4
  -5  -6  -7 52.5235 24.7449   1
   5   6   7 23.7384 16.7206   4
  -5  -6  -7 66.1047 26.5035   8
   5   6   8 26.4881 18.0294   4
  -5  -6  -8 0.93948 25.9633   1
  -5  -7  14 4.97584 15.1851   8
  -5  -7  14-1.62328 15.2203   2
  -5  -7  13 72.3363 18.1777   8
  -5  -7  13 74.9151 16.9976   2
  -5  -7  12 146.771 11.5320   3
  -5  -7  12 125.606 20.7329   8
  -5  -7  11 54.4567 16.3346   8
  -5  -7  11 56.2583 10.1640   1
  -5  -7  11 57.3721 8.98339   3
  -5  -7  10 23.1221 15.4361   8
  -5  -7  10 25.2370 7.77032   3
  -5  -7  10 13.2019 9.86126   1
  -5  -7   9 420.707 20.2386   1
  -5  -7   9 462.313 28.6624   8
   5   7  -9 351.765 24.8801   1
  -5  -7   9 391.845 15.9440   3
  -5  -7   8 224.391 21.1612   8
  -5  -7   8 204.849 15.5424   1
  -5  -7   8 188.161 10.2262   3
  -5  -7   8 235.082 13.3860   4
   5   7  -8 197.471 21.0409   1
   5   7  -7 224.775 20.9378   1
  -5  -7   7 246.487 21.5094   8
  -5  -7   7 262.501 17.1829   1
  -5  -7   7 292.173 11.4121   4
  -5  -7   6 370.717 20.0880   1
  -5  -7   6 356.265 11.9354   4
   5   7  -6 326.822 22.7630   1
  -5  -7   5 430.945 21.9864   1
   5   7  -5 367.607 23.7262   1
   5   7  -4 38.5555 17.3750   1
  -5  -7   4 49.0549 13.0048   1
  -5  -7   3 310.203 11.1824   3
   5   7  -3 271.344 22.7318   1
  -5  -7   3 310.015 19.2818   1
  -5  -7   2 499.567 15.4771   3
  -5  -7   2 521.962 19.7404   7
  -5  -7   2 499.233 23.5524   1
   5   7  -2 472.059 27.2082   1
   5   7  -1-10.0809 19.3613   1
  -5  -7   1 7.48303 7.94113   7
  -5  -7   1-5.75206 11.0837   1
  -5  -7   1 5.90737 6.46101   3
  -5  -7   0 28.0631 8.98909   7
  -5  -7   0 28.1670 7.52049   3
   5   7   0 13.3386 19.5619   1
  -5  -7   0 26.2563 9.91939   8
  -5  -7  -1 12.6672 7.84970   3
  -5  -7  -1 24.6475 9.45933   7
  -5  -7  -1 21.3362 9.91983   8
   5   7   1-1.27093 12.0128   4
  -5  -7  -2 226.713 15.7613   7
   5   7   2 160.256 18.9048   1
   5   7   2 171.070 14.7660   4
  -5  -7  -2 219.538 23.8843   1
  -5  -7  -2 228.984 16.2049   8
  -5  -7  -3 119.830 23.0252   1
   5   7   3 121.761 13.4175   4
   5   7   3 81.3119 16.7133   1
  -5  -7  -4-1.61941 22.3194   1
   5   7   4 31.3556 12.6064   4
  -5  -7  -5 23.4271 23.1592   1
   5   7   5 2.74617 14.2903   4
  -5  -7  -6 29.1965 24.6369   1
   5   7   6 11.3371 16.0152   4
  -5  -7  -7 31.9225 26.8300   1
   5   7   7 26.8718 17.6856   4
   5   7   8 25.6785 19.2295   4
  -5  -8  13-1.01580 15.8540   8
  -5  -8  13-11.2537 14.5089   2
  -5  -8  12 73.2388 18.3629   8
  -5  -8  11 71.4726 18.5655   8
  -5  -8  11 68.2542 11.2816   1
  -5  -8  10 13.8862 15.9417   8
  -5  -8  10 2.46890 6.11330   3
  -5  -8  10 3.63669 10.2243   1
  -5  -8   9 122.337 14.1814   1
  -5  -8   9 106.784 7.25523   3
  -5  -8   9 125.648 20.0753   8
  -5  -8   9 152.685 9.42377   4
  -5  -8   8 7.67070 15.1578   8
  -5  -8   8 10.8524 3.84088   3
  -5  -8   8 6.53057 11.2499   1
  -5  -8   8 7.70706 4.12442   4
  -5  -8   7 111.239 18.1109   8
  -5  -8   7 110.456 14.6014   1
   5   8  -6-39.3967 20.4514   1
  -5  -8   6-9.16104 11.8279   1
   5   8  -5 389.534 27.8695   1
  -5  -8   5 549.265 25.2528   1
  -5  -8   4 108.441 14.4155   1
   5   8  -4 48.2502 20.7306   1
   5   8  -3-20.4645 21.1866   1
  -5  -8   3 27.2691 9.01969   7
  -5  -8   3 2.87029 11.4407   1
  -5  -8   2 0.13755 8.62470   7
  -5  -8   2-15.2520 11.6623   1
   5   8  -2 2.56484 6.83459   5
  -5  -8   1 8.99057 8.71917   7
  -5  -8   1 3.48901 11.1326   1
  -5  -8   0 101.468 11.7320   7
  -5  -8   0 79.7593 13.3058   1
  -5  -8   0 116.412 12.6920   8
  -5  -8  -1-1.75194 9.50801   7
  -5  -8  -1 11.1661 9.80757   8
  -5  -8  -2 126.982 14.1858   7
  -5  -8  -2 114.564 14.2374   8
  -5  -8  -3 52.2108 23.1530   1
  -5  -8  -3 31.0972 12.4105   8
   5   8   3 39.6264 12.3963   4
  -5  -8  -4-4.42449 23.2729   1
  -5  -8  -4-5.11985 12.3914   8
   5   8   4 12.8778 12.3809   4
   5   8   5 62.2446 14.1339   4
  -5  -8  -5 7.18452 24.4518   1
  -5  -9  12-10.9222 17.0403   8
  -5  -9  11 14.2768 16.4302   8
  -5  -9  10 113.624 14.4999   1
  -5  -9  10 128.267 21.5020   8
  -5  -9   9 43.5727 18.4458   8
  -5  -9   9 37.9989 12.2101   1
  -5  -9   8 30.9360 16.7310   8
  -5  -9   8 24.8027 12.4755   1
  -5  -9   7 214.228 21.7763   8
  -5  -9   7 211.842 17.9518   1
  -5  -9   6 30.5237 13.4384   1
  -5  -9   5 11.4190 11.8796   1
  -5  -9   4-0.22351 11.4083   1
  -5  -9   4 4.08454 8.43117   7
  -5  -9   3 76.1808 10.4936   7
  -5  -9   3 56.7684 13.6350   1
  -5  -9   2 8.99125 9.14493   7
  -5  -9   2 6.13245 12.0385   1
   5   9  -2 10.2407 6.82749   5
  -5  -9   1-3.11562 9.34591   7
  -5  -9   1-5.39628 11.7878   1
  -5  -9   1-0.18647 10.9076   8
  -5  -9   0 84.7007 12.5214   7
  -5  -9   0 82.1318 14.4316   1
  -5  -9   0 103.076 13.5824   8
  -5  -9  -1 4.28207 11.1501   8
  -5  -9  -1-10.4969 10.8494   7
  -5  -9  -2 9.04838 11.8525   8
  -5  -9  -3-3.17590 12.8892   8
  -5 -10  11-1.40754 16.6372   8
  -5 -10  10 50.5539 18.7718   8
  -5 -10   9 12.2354 17.1037   8
  -5 -10   9 4.38171 11.5999   1
  -5 -10   8 40.9482 17.7989   8
  -5 -10   8 26.5344 12.7554   1
  -5 -10   7-4.20839 15.2146   8
  -5 -10   7-5.89786 12.5455   1
  -5 -10   6-4.16391 8.32909   7
  -5 -10   6-5.91410 12.7566   1
  -5 -10   5 106.191 16.4903   1
  -5 -10   5 125.316 11.7540   7
  -5 -10   4 9.90304 13.3813   1
  -5 -10   4 9.90315 9.26846   7
  -5 -10   3 58.3854 14.9101   1
  -5 -10   3 70.2188 11.1727   7
  -5 -10   2 6.77128 9.53916   7
  -5 -10   2 2.47301 12.9977   1
  -5 -10   2 15.8896 12.4564   8
  -5 -10   1 0.17858 10.0834   7
  -5 -10   1 0.24682 12.7662   1
  -5 -10   1 6.42056 11.5019   8
  -5 -10   0 11.1098 13.3768   1
  -5 -10   0 6.88152 11.6195   8
  -5 -11   8 22.9450 17.0115   8
  -5 -11   7 47.4598 17.2161   8
  -5 -11   7 30.0890 13.1107   1
  -5 -11   6 8.91957 12.8375   1
  -5 -11   5 71.6779 15.3803   1
  -5 -11   4 31.2101 15.0243   1
  -5 -11   3 30.3882 13.5432   8
   6 -12  -2-6.37620 14.6732   2
  -6  12   2 26.8024 21.9979   5
   6 -12  -1-3.18651 14.9924   2
  -6  12   1 14.3538 19.9005   5
   6 -12   0 27.8649 15.6395   2
  -6  12   0 90.1079 20.4157   5
   6 -12   1 62.9434 15.9826   2
  -6  12  -1 134.501 20.9167   5
  -6  12  -2 73.7608 20.0720   5
   6 -12   3 16.9952 15.1736   1
  -6  12  -3 4.68751 19.2889   5
  -6  11   5 22.4832 25.4518   5
   6 -11  -5-12.7473 16.0897   2
  -6  11   5-19.4374 17.4671   4
  -6  11   4-0.50036 23.9078   5
   6 -11  -4 3.98310 15.1627   2
  -6  11   4 17.3655 15.6663   4
   6 -11  -3-7.65232 15.5630   2
  -6  11   3 0.23387 22.1211   5
  -6  11   3 34.8555 13.7969   4
   6 -11  -2 8.63603 15.5647   2
  -6  11   2 2.31463 20.6290   5
  -6  11   2-10.4008 14.0775   4
   6 -11  -1 312.918 23.2284   2
  -6  11   1 301.475 24.7030   5
  -6  11   1 341.986 18.1372   4
  -6  11   0 11.9022 12.7575   4
   6 -11   0 22.4351 13.8767   2
   6 -11   1 80.8074 15.2981   2
  -6  11  -1 97.7764 19.2843   5
   6 -11   2 48.3075 14.1377   2
  -6  11  -2 51.8468 18.3396   5
   6 -11   2 53.5550 15.8889   1
   6 -11   3 24.4538 15.6493   1
   6 -11   3 27.4373 13.2305   2
  -6  11  -3 3.80517 17.7614   5
   6 -11   4 26.1852 13.8512   1
  -6  11  -4-17.4720 18.8013   5
   6 -10 -10 17.2749 15.1214   8
  -6  10  10 52.5473 20.0310   8
   6 -10  -9 14.0401 14.3810   8
  -6  10   9 47.0457 19.0059   8
   6 -10  -8 101.130 16.2247   8
  -6  10   8 70.3224 16.8046   7
   6 -10  -7 7.13469 12.2650   8
  -6  10   7-15.1166 14.6362   7
  -6  10   7 21.2602 27.3436   5
   6 -10  -7 2.31590 15.3600   2
   6 -10  -6 20.8820 12.1893   8
  -6  10   6 32.8028 26.0892   5
   6 -10  -6 49.4069 16.2807   2
   6 -10  -5 7.86226 10.6038   8
  -6  10   5-2.84349 11.4821   7
  -6  10   5 16.3386 23.6159   5
   6 -10  -5 0.58918 15.4159   2
  -6  10   5-26.3151 19.2893   4
   6 -10  -4 250.495 15.7669   8
  -6  10   4 225.807 13.5713   7
   6 -10  -4 294.805 23.1939   2
  -6  10   4 318.065 28.5471   5
  -6  10   4 249.684 20.6044   4
   6 -10  -3 97.3795 9.77204   8
  -6  10   3 106.172 9.13102   7
   6 -10  -3 133.364 17.8463   2
  -6  10   3 128.410 22.7750   5
  -6  10   3 133.835 16.6518   4
   6 -10  -2 47.3495 14.1876   2
  -6  10   2 51.2537 18.4943   5
  -6  10   2 72.4038 14.0744   4
   6 -10  -1 59.4439 15.2605   2
  -6  10   1 67.4568 17.7604   5
  -6  10   1 58.4734 14.1198   4
   6 -10   0 241.964 19.3283   2
  -6  10   0 250.345 20.4865   5
  -6  10   0 279.995 17.1397   4
   6 -10   1 194.625 17.6057   2
  -6  10  -1 183.854 18.4593   5
  -6  10  -1 183.901 16.1134   4
   6 -10   2 1.82192 12.1033   2
  -6  10  -2-3.55054 14.4656   5
   6 -10   2-2.84698 13.0342   1
   6 -10   3 34.4406 14.0832   1
   6 -10   3 29.9184 11.7664   2
  -6  10  -3-3.64843 15.7150   5
   6 -10   4 57.8699 14.8844   1
   6 -10   4 67.8781 13.5582   2
  -6  10  -4 31.3545 17.5878   5
  -6  10  -5 92.6097 16.7377   3
   6 -10   5 73.2839 14.0930   1
   6 -10   6 60.4922 19.2088   5
   6 -10   7 85.0519 20.4495   5
   6  -9 -11-16.1136 16.4735   8
  -6   9  11 20.4672 18.7672   8
   6  -9 -10-0.28877 14.8837   8
  -6   9  10 36.7255 18.1890   8
  -6   9   9 157.365 31.3711   5
  -6   9   9 203.410 19.5614   8
   6  -9  -9 183.546 19.2889   8
   6  -9  -8 15.1756 12.9152   8
  -6   9   8 35.7266 15.9038   8
  -6   9   8 16.1819 27.2544   5
   6  -9  -7 4.98226 12.3958   8
  -6   9   7-6.64312 26.7315   5
   6  -9  -7 11.8219 14.5556   2
  -6   9   7 13.0030 14.2322   8
   6  -9  -6 293.320 23.5856   2
  -6   9   6 285.597 29.8709   5
  -6   9   6 324.429 18.3890   8
   6  -9  -6 243.070 17.9248   8
   6  -9  -5 14.1518 10.1969   8
  -6   9   5 28.8231 21.9007   5
   6  -9  -5 22.6501 14.2785   2
   6  -9  -4 39.7465 10.0732   8
  -6   9   4 52.8990 20.8136   5
   6  -9  -4 31.4383 14.0071   2
  -6   9   4 10.2257 16.3482   4
   6  -9  -3 1.83709 7.72670   8
  -6   9   3 2.16216 14.9505   4
  -6   9   3-0.65014 18.8747   5
   6  -9  -3-9.00596 13.5847   2
   6  -9  -2 768.378 33.4688   2
  -6   9   2 728.213 34.0394   5
  -6   9   2 848.152 29.4241   4
   6  -9  -1 5.01741 12.3894   2
  -6   9   1-0.18177 16.0428   5
  -6   9   1 15.8802 13.3678   4
  -6   9   0 9.24416 12.7845   4
   6  -9   0 2.29212 12.9706   2
  -6   9   0-3.27432 14.9734   5
   6  -9   1 145.209 15.3790   2
  -6   9  -1 128.694 16.6881   5
   6  -9   1 133.627 16.8477   1
  -6   9  -1 170.058 15.4710   4
   6  -9   2-10.1485 13.9833   1
  -6   9  -2-17.6407 14.1234   4
   6  -9   2-7.67043 10.8498   2
  -6   9  -2-2.69586 14.0813   5
   6  -9   3-3.74194 12.5903   1
   6  -9   3 2.07477 10.4140   2
  -6   9  -3 2.06835 13.9882   5
   6  -9   4 24.6495 12.4034   1
   6  -9   4 2.41815 15.3342   5
   6  -9   4 26.8712 10.8306   2
  -6   9  -4 0.35346 14.5925   5
   6  -9   5 511.482 31.3977   5
   6  -9   5 564.702 25.9712   1
  -6   9  -6 116.670 18.9294   3
   6  -9   6 90.1223 12.4818   1
   6  -9   6 86.1785 18.8743   5
  -6   9  -7 38.0038 18.8121   3
   6  -9   7 37.1014 15.6849   5
  -6   9  -8 77.9905 26.8372   3
   6  -9   8 59.7242 17.1424   5
   6  -9   8 48.1746 14.6882   4
  -6   8  12 17.3047 20.1221   8
   6  -8 -11 36.0247 16.1717   8
  -6   8  11 34.4931 19.6009   8
   6  -8 -10 12.7764 14.1783   8
   6  -8 -10 6.00874 28.0802   2
  -6   8  10 5.67679 17.0276   8
  -6   8   9 187.098 19.0357   8
   6  -8  -9 162.331 18.3347   8
   6  -8  -8 76.5152 15.0142   8
  -6   8   8 88.2193 16.4347   8
  -6   8   7 538.773 36.3795   5
   6  -8  -7 556.196 29.3386   2
  -6   8   7 543.411 23.8371   8
   6  -8  -7 491.882 25.0933   8
   6  -8  -6-0.69999 9.91199   8
  -6   8   6-2.08096 22.7398   5
   6  -8  -6 3.66912 12.8356   2
  -6   8   6 2.19761 12.8783   8
   6  -8  -5 277.508 17.0585   8
   6  -8  -5 321.056 22.4699   2
  -6   8   5 303.487 26.3136   5
  -6   8   5 310.963 16.4308   8
   6  -8  -4 800.838 28.7511   8
   6  -8  -4 904.923 36.1379   2
  -6   8   4 862.693 37.6510   5
  -6   8   4 859.445 34.1150   4
  -6   8   4 843.317 26.1928   8
   6  -8  -3-1.51949 7.29809   8
  -6   8   3-5.96081 17.5890   5
   6  -8  -3-6.59194 13.3671   2
  -6   8   3-1.00187 14.5801   4
  -6   8   2-3.95197 15.9462   5
   6  -8  -2 6.19995 12.6155   2
  -6   8   2 15.6079 13.0175   4
   6  -8  -1-0.20078 11.2414   2
  -6   8   1-5.67316 15.1755   5
  -6   8   1 4.97326 12.0105   4
   6  -8   0 593.611 26.8999   2
  -6   8   0 665.030 24.6062   4
   6  -8   1 49.7684 13.3044   1
  -6   8  -1 33.9227 13.1491   4
   6  -8   1 42.6559 11.6064   2
  -6   8  -1 18.7239 14.2098   5
   6  -8   2 156.546 14.2061   2
  -6   8  -2 120.062 16.6910   5
   6  -8   2 172.453 16.6463   1
  -6   8  -2 153.540 16.2096   4
   6  -8   3 250.709 20.9549   5
   6  -8   3 281.970 16.9352   2
  -6   8  -3 223.436 18.6164   5
   6  -8   3 265.171 18.6854   1
   6  -8   4 1.37414 10.0030   1
   6  -8   4-6.61967 12.9050   5
  -6   8  -4 12.5529 14.1255   5
   6  -8   4-3.23695 8.26973   2
   6  -8   5 125.801 16.6736   5
   6  -8   5 142.904 13.3920   1
  -6   8  -6 83.4175 18.0701   3
   6  -8   6 46.3687 10.7736   1
   6  -8   6 48.9315 14.8723   5
   6  -8   6 43.1540 13.1583   4
   6  -8   7 97.1703 10.8624   1
  -6   8  -7 123.341 20.6018   3
   6  -8   7 89.1783 16.4908   5
   6  -8   7 90.3814 14.4898   4
  -6   8  -8-1.12341 20.2872   3
   6  -8   8 4.63334 14.3923   5
   6  -8   8-8.29214 11.8980   4
  -6   8  -9-0.41547 22.4220   3
   6  -8   9-2.08145 12.3070   4
   6  -7 -12 7.66898 16.7028   8
  -6   7  12 7.03191 20.7366   8
   6  -7 -12 19.8506 27.6704   2
   6  -7 -11 14.0852 16.0681   8
   6  -7 -11 6.83515 27.0407   2
  -6   7  11-15.1972 20.0103   8
   6  -7 -10 100.516 17.1923   8
   6  -7 -10 101.318 28.1568   2
  -6   7  10 62.4170 19.0494   8
  -6   7   9 743.264 31.4534   8
   6  -7  -9 779.990 34.4168   8
   6  -7  -8 19.2613 13.7056   8
  -6   7   8 10.3099 15.5476   8
   6  -7  -7 346.028 20.7774   8
  -6   7   7 329.126 19.6832   8
   6  -7  -6 95.6456 13.2922   8
  -6   7   6 90.9541 18.3262   6
   6  -7  -6 122.954 15.4248   2
  -6   7   6 123.508 14.5723   8
   6  -7  -5 344.699 18.0416   8
  -6   7   5 303.893 20.1828   6
   6  -7  -5 334.538 21.4148   2
  -6   7   5 295.477 25.5740   5
  -6   7   5 302.486 16.6840   8
   6  -7  -4 212.253 13.6599   8
  -6   7   4 221.072 17.6824   6
   6  -7  -4 250.188 18.4586   2
  -6   7   4 224.080 22.0094   5
  -6   7   4 210.321 13.4524   8
  -6   7   3-7.95198 14.3518   4
  -6   7   3 9.46478 8.34460   8
  -6   7   3 2.14044 12.9856   6
  -6   7   3 1.35613 15.8850   5
   6  -7  -3 4.71619 10.5265   2
  -6   7   2 128.029 14.3673   6
   6  -7  -2 155.759 15.3253   2
  -6   7   2 131.617 17.0486   5
  -6   7   2 139.856 15.5432   4
  -6   7   2 141.493 8.18917   8
  -6   7   1 83.8239 12.2807   6
  -6   7   1 64.5623 14.8680   5
   6  -7  -1 77.5571 12.3898   2
  -6   7   1 86.7701 13.0344   4
   6  -7   0 1433.26 44.8043   2
   6  -7   0 1416.53 45.7548   1
  -6   7   0 1515.39 42.7795   4
  -6   7  -1 381.371 13.6116   7
  -6   7  -1 398.792 19.3717   4
   6  -7   1 374.018 20.0775   2
  -6   7  -1 325.104 20.6105   5
   6  -7   1 399.286 21.4827   1
  -6   7  -2 86.7237 13.9698   4
  -6   7  -2 71.1193 8.03503   7
   6  -7   2 106.094 15.0046   5
   6  -7   2 92.6264 11.7483   2
  -6   7  -2 81.2793 14.5707   5
   6  -7   2 100.372 12.8369   1
   6  -7   3 454.538 21.0412   1
   6  -7   3 397.521 23.5521   5
   6  -7   3 378.041 18.2089   2
  -6   7  -3 374.108 21.1499   5
   6  -7   4 212.565 19.0053   5
   6  -7   4 268.514 16.7025   1
  -6   7  -5 391.650 22.2688   3
   6  -7   5 350.452 17.7017   1
   6  -7   5 328.153 21.4412   5
   6  -7   5 293.036 19.3923   4
   6  -7   6 100.405 10.9013   1
  -6   7  -6 109.749 18.1560   3
   6  -7   6 103.081 15.0031   5
   6  -7   6 87.1264 13.3559   4
  -6   7  -7 269.184 22.9771   3
   6  -7   7 235.333 13.5947   1
   6  -7   7 196.774 18.6140   5
   6  -7   7 213.627 17.3480   4
  -6   7  -8-11.9749 20.3230   3
   6  -7   8-2.77145 13.1285   5
   6  -7   8-0.41466 11.1621   4
  -6   7  -9 46.7256 23.0728   3
   6  -7   9 60.5493 14.7702   5
   6  -7   9 59.1547 12.9186   4
   6  -6 -14-82.0534 44.0160   1
   6  -6 -13 35.9501 17.3081   8
   6  -6 -13 58.3895 26.5930   2
  -6   6  13 8.82310 22.6582   8
   6  -6 -12 107.312 19.0829   8
   6  -6 -12 157.239 27.8078   2
  -6   6  12 92.6203 22.5823   8
   6  -6 -11 3.67026 13.9327   8
  -6   6  11-22.4319 20.7891   8
   6  -6 -11 6.16941 24.7696   2
   6  -6 -10 80.3291 15.7584   8
   6  -6 -10 86.5701 24.9879   2
  -6   6  10 108.042 19.7815   8
   6  -6  -9 1413.27 50.5206   8
  -6   6   9 1544.63 50.3979   6
   6  -6  -9 1628.44 55.7268   2
  -6   6   9 1413.89 47.1479   8
   6  -6  -8 305.997 20.5551   8
  -6   6   8 310.394 23.3847   6
  -6   6   8 273.060 19.9884   8
   6  -6  -7 108.336 13.7481   8
  -6   6   7 113.729 18.1944   6
  -6   6   7 132.691 15.7952   8
   6  -6  -6 618.735 25.9958   8
  -6   6   6 584.175 26.8411   6
   6  -6  -6 643.118 28.2200   2
  -6   6   6 618.993 24.5449   8
   6  -6  -5 9.09000 8.97758   8
  -6   6   5 7.66982 14.2115   6
   6  -6  -5 3.66397 10.3908   2
  -6   6   5 6.28856 11.5032   8
   6  -6  -4 81.3725 9.90246   8
  -6   6   4 73.3957 14.4522   6
   6  -6  -4 65.9136 12.3035   2
  -6   6   4 70.0227 11.1335   8
  -6   6   3 61.7323 13.2296   6
   6  -6  -3 61.4045 11.5558   2
  -6   6   3 29.1941 14.1928   4
  -6   6   3 63.6234 9.60591   8
  -6   6   2 2129.79 60.4405   6
   6  -6  -2 2411.10 66.3510   2
  -6   6   2 2098.97 64.7532   5
  -6   6   2 2273.53 63.5321   4
  -6   6   2 2284.04 56.6287   8
   6  -6  -2 2368.05 66.1254   1
  -6   6   1 331.130 16.5999   6
   6  -6  -1 378.854 19.5561   2
  -6   6   1 305.608 19.8764   5
  -6   6   1 350.895 18.3637   4
   6  -6  -1 348.530 19.3671   1
   6  -6   0 54.8723 11.3933   1
  -6   6   0 57.1768 10.5765   6
   6  -6   0 66.6128 11.8603   5
  -6   6   0 39.8737 13.3252   5
   6  -6   0 61.9159 10.8753   2
  -6   6   0 74.9080 12.5714   4
  -6   6  -1 13.3570 10.9398   4
   6  -6   1 14.6423 9.25557   1
  -6   6  -1 14.5215 9.01191   6
   6  -6   1 0.20324 9.64734   5
  -6   6  -1 1.26740 12.8969   5
   6  -6   1 6.30832 8.92856   2
  -6   6  -2 530.110 18.0600   7
  -6   6  -2 520.332 17.0544   6
   6  -6   2 463.949 23.6005   5
   6  -6   2 475.512 20.1117   2
  -6   6  -2 473.589 23.1953   5
  -6   6  -2 474.010 21.8258   4
   6  -6   2 536.856 22.6990   1
  -6   6  -3 70.1333 9.80697   7
   6  -6   3 83.4242 13.0152   5
  -6   6  -3 82.9799 14.5256   5
   6  -6   3 93.4923 11.6686   1
   6  -6   4 4.46141 9.54042   1
   6  -6   4 21.2470 11.4646   5
   6  -6   4 2.82777 10.2283   4
  -6   6  -5 448.968 23.7682   3
   6  -6   5 442.437 19.1280   1
   6  -6   5 430.921 23.3104   5
   6  -6   5 436.703 21.9112   4
  -6   6  -6 37.7387 15.9617   3
   6  -6   6 24.3593 11.6638   5
   6  -6   6 25.3325 8.51745   1
   6  -6   6 21.9218 10.1261   4
  -6   6  -7 106.465 19.3621   3
   6  -6   7 82.3711 9.66321   1
   6  -6   7 86.9774 13.3453   5
   6  -6   7 84.9766 12.2056   4
  -6   6  -8-3.68781 18.8434   3
   6  -6   8 13.6305 6.83547   1
   6  -6   8 3.79000 11.5607   5
   6  -6   8-2.33625 10.0834   4
  -6   6  -9 52.2740 23.1464   3
   6  -6   9 69.6260 14.1607   5
   6  -6   9 68.8254 13.2434   4
  -6   6 -10-0.74350 23.8559   3
   6  -6  10 27.1156 12.0850   4
   6  -5 -14 201.360 27.9397   2
   6  -5 -14 120.893 28.0113   1
   6  -5 -13 15.2755 15.6820   8
   6  -5 -13 28.3690 23.8406   2
  -6   5  13 51.4198 23.7764   8
   6  -5 -13 12.0504 20.7601   1
   6  -5 -12 99.1572 18.3998   8
  -6   5  12 126.437 22.4941   8
   6  -5 -12 126.146 25.4096   2
   6  -5 -11 66.2309 15.8024   8
   6  -5 -11 82.8750 22.3788   2
  -6   5  11 68.3041 20.4313   8
   6  -5 -10 504.622 27.9113   8
   6  -5 -10 593.605 32.5735   2
  -6   5  10 556.518 28.5919   8
   6  -5  -9 325.721 21.9399   8
  -6   5   9 325.189 24.4407   6
   6  -5  -9 318.951 27.0945   2
  -6   5   9 301.268 22.5875   8
   6  -5  -8 336.319 21.0221   8
  -6   5   8 368.288 24.1173   6
  -6   5   8 310.355 21.3792   8
   6  -5  -7 412.304 21.2569   8
  -6   5   7 340.602 22.2365   6
  -6   5   7 332.220 21.7944   5
  -6   5   7 329.941 20.4598   8
  -6   5   6 19.5340 12.7843   8
   6  -5  -6 22.0535 9.32648   8
  -6   5   6 8.68271 14.5093   6
  -6   5   6 6.88541 9.98126   5
   6  -5  -6 19.5164 10.2075   2
  -6   5   5 223.222 17.5830   6
  -6   5   5 199.209 15.7357   5
   6  -5  -5 227.381 15.8675   2
   6  -5  -5 241.195 13.9165   8
  -6   5   5 217.347 15.3667   8
  -6   5   4 94.6818 14.1968   6
   6  -5  -4 94.4148 11.9231   2
  -6   5   4 72.6199 11.6090   8
  -6   5   3 10.4229 11.8571   6
   6  -5  -3 13.4210 9.07865   2
  -6   5   3-13.1186 14.3173   4
  -6   5   3 5.75648 9.58070   8
  -6   5   2 738.025 26.2918   6
   6  -5  -2 833.588 29.6451   1
   6  -5  -2 815.261 28.8274   2
  -6   5   2 726.587 28.2081   4
  -6   5   2 717.059 23.1313   8
  -6   5   1 1484.05 42.1908   6
   6  -5  -1 1625.39 45.9890   2
  -6   5   1 1463.63 43.9008   4
   6  -5  -1 1560.09 46.2064   1
  -6   5   1 1411.52 38.2489   8
  -6   5   0 1138.92 34.7098   6
   6  -5   0 1220.90 37.2809   2
  -6   5   0 1168.43 36.8917   4
   6  -5   0 1206.04 38.4711   1
  -6   5  -1 102.777 11.5226   6
  -6   5  -1 102.922 14.0615   5
  -6   5  -1 118.691 12.3570   4
   6  -5   1 117.357 11.5466   1
  -6   5  -2 106.869 12.8689   4
  -6   5  -2 132.753 11.2513   7
  -6   5  -2 113.108 10.8263   6
   6  -5   2 119.158 12.2757   5
  -6   5  -2 127.496 14.2527   5
   6  -5   2 129.153 11.9327   1
  -6   5  -3 133.818 11.9403   7
  -6   5  -3 102.276 9.65673   6
   6  -5   3 128.176 13.4642   5
  -6   5  -3 145.703 15.0052   5
   6  -5   3 114.859 11.9241   4
   6  -5   3 147.394 11.9725   1
   6  -5   4 221.088 14.0256   1
   6  -5   4 239.221 16.3344   5
   6  -5   4 227.055 15.2047   4
  -6   5  -5 8.12001 7.70448   8
  -6   5  -5 27.9001 14.6101   3
   6  -5   5 42.7504 10.5494   5
   6  -5   5 37.4775 8.77519   1
   6  -5   5 44.7651 10.1318   4
  -6   5  -6 381.359 22.8694   3
   6  -5   6 414.584 16.9752   1
   6  -5   6 421.230 21.1012   5
   6  -5   6 428.287 19.7740   4
  -6   5  -7 92.4592 18.6178   3
   6  -5   7 115.567 9.96901   1
   6  -5   7 90.4144 13.0964   5
   6  -5   7 98.3675 11.9489   4
  -6   5  -8-11.3435 13.7690   8
  -6   5  -8-6.94063 17.4108   3
   6  -5   8 6.77580 9.15391   4
   6  -5   8-2.25531 10.2006   5
   6  -5   8 3.07168 6.64622   1
  -6   5  -9 21.6976 20.9993   3
   6  -5   9 28.5873 11.6857   5
   6  -5   9 32.9170 10.4154   4
  -6   5 -10-12.5134 22.5527   3
   6  -5  10 7.02164 10.8926   4
   6  -4 -14 37.3953 19.6881   1
   6  -4 -14 65.6263 17.8195   8
  -6   4  14 102.741 25.5030   8
   6  -4 -13 216.101 22.1339   8
  -6   4  13 207.052 17.8390   6
   6  -4 -13 184.056 23.9587   2
   6  -4 -13 190.887 22.8991   1
  -6   4  13 235.988 28.1360   8
   6  -4 -12 42.2082 14.7933   8
  -6   4  12 55.5184 12.3414   6
   6  -4 -12 65.2557 20.7936   2
  -6   4  12 66.8349 22.4936   8
   6  -4 -12 47.4589 18.8640   1
   6  -4 -11 31.0694 14.3315   8
  -6   4  11 31.6821 11.5336   6
   6  -4 -11 36.3897 20.0928   2
  -6   4  11 38.6611 20.8379   8
   6  -4 -11 20.0650 17.7788   1
   6  -4 -10 530.182 27.9469   8
   6  -4 -10 553.362 30.2134   2
   6  -4 -10 485.373 26.9815   1
  -6   4  10 495.341 28.6645   8
   6  -4  -9-10.4557 13.1804   8
   6  -4  -9-13.0994 18.9967   2
  -6   4   9-16.2056 17.8007   8
   6  -4  -9-21.0347 18.4353   1
   6  -4  -8 234.799 17.5507   8
  -6   4   8 226.310 21.0715   6
   6  -4  -8 235.739 22.7225   2
   6  -4  -8 214.308 20.9854   1
  -6   4   8 214.552 19.9254   8
   6  -4  -7 1305.09 42.3712   8
  -6   4   7 1398.52 43.8093   6
  -6   4   7 1184.08 43.8127   5
   6  -4  -7 1435.85 45.0050   1
  -6   4   7 1270.94 42.2101   8
   6  -4  -6 291.995 16.0938   8
  -6   4   6 307.823 20.0949   6
  -6   4   6 262.271 17.3502   5
   6  -4  -6 328.932 21.5857   1
  -6   4   6 280.041 18.3624   8
   6  -4  -5 91.0796 17.8476   1
   6  -4  -5 85.8206 9.47449   8
  -6   4   5 96.5190 15.6196   6
  -6   4   5 83.2370 10.6001   5
   6  -4  -5 87.9227 10.9227   2
  -6   4   5 94.6559 13.0425   8
  -6   4   4 196.834 16.5715   6
  -6   4   4 229.309 15.9322   2
  -6   4   4 195.842 14.2242   5
   6  -4  -4 200.410 14.1030   2
  -6   4   4 209.803 14.2782   8
  -6   4   3 4134.55 105.473   6
  -6   4   3 4189.46 105.250   2
  -6   4   3 3905.20 107.660   5
   6  -4  -3 4172.03 107.889   2
  -6   4   3 4237.92 108.764   4
  -6   4   3 4047.74 103.315   8
   6  -4  -2 4.18849 7.26652   2
  -6   4   2 4.24989 8.89919   8
   6  -4  -2 4.27151 7.74082   1
  -6   4   2 12.1386 10.6419   2
  -6   4   2 0.78547 11.1953   4
  -6   4   1 21.5692 8.47564   8
   6  -4  -1 28.8722 8.02373   1
   6  -4  -1 20.8538 6.87013   2
  -6   4   1 32.3298 10.0589   4
  -6   4   0 48.3921 8.31447   8
   6  -4   0 73.6862 9.43258   1
  -6   4   0 65.3242 11.3844   4
  -6   4  -1 255.609 11.6008   8
  -6   4  -1 269.023 9.90078   8
  -6   4  -1 258.293 15.0064   4
   6  -4   1 283.914 15.0440   1
   6  -4   2 165.630 12.2362   1
  -6   4  -2 176.656 12.7261   7
  -6   4  -2 138.314 8.40426   8
   6  -4   2 162.335 12.3661   4
  -6   4  -2 149.164 13.2750   4
  -6   4  -3 4.59194 10.5114   7
   6  -4   3-5.79609 8.03109   1
   6  -4   3-5.95143 7.61783   4
  -6   4  -3 4.55347 7.78287   8
  -6   4  -4 569.083 21.9333   7
   6  -4   4 523.039 20.4314   1
   6  -4   4 527.052 22.0618   4
  -6   4  -5 216.194 18.9703   3
   6  -4   5 215.908 13.5029   1
   6  -4   5 207.340 14.8134   5
   6  -4   5 217.863 14.6532   4
  -6   4  -5 182.749 14.1329   8
  -6   4  -6 112.889 18.0115   3
   6  -4   6 121.017 12.6042   5
   6  -4   6 127.203 10.9498   1
   6  -4   6 127.619 12.3884   4
  -6   4  -6 109.800 14.7977   8
  -6   4  -7 179.047 21.0034   3
   6  -4   7 160.958 14.8365   5
   6  -4   7 187.706 11.6400   1
   6  -4   7 171.796 13.6711   4
  -6   4  -7 127.038 16.9837   8
  -6   4  -8-9.87895 16.6540   8
   6  -4   8 9.87973 7.43299   1
  -6   4  -8 7.19592 18.2885   3
   6  -4   8 8.40017 10.5637   5
   6  -4   8 17.2057 9.75293   4
  -6   4  -9 52.8367 18.8760   8
  -6   4  -9 50.5001 22.1934   3
   6  -4   9 27.1660 12.2861   5
   6  -4   9 56.5583 12.1735   4
  -6   4 -10 7.76911 22.4361   3
   6  -4  10-2.27131 11.3439   4
   6  -3 -14 3.30384 13.9457   8
   6  -3 -14 6.30387 18.1805   1
  -6   3  14 9.10512 12.2168   6
  -6   3  14 25.8919 24.9509   8
  -6   3  13 342.182 30.0889   8
   6  -3 -13 292.589 23.3596   8
  -6   3  13 303.113 19.8273   6
   6  -3 -13 258.898 21.8062   1
   6  -3 -12 202.225 19.4725   8
  -6   3  12 194.151 16.2145   6
   6  -3 -12 155.304 20.0633   1
  -6   3  12 186.352 25.5786   8
  -6   3  11 48.6291 21.8458   8
   6  -3 -11 45.3514 16.9265   1
   6  -3 -11 57.5894 14.5811   8
  -6   3  11 67.4476 11.8515   6
   6  -3 -11 70.1281 18.4163   2
   6  -3 -10-0.57863 16.5029   1
   6  -3 -10 16.4140 12.2315   8
   6  -3 -10-1.58280 17.1979   2
  -6   3  10 19.3431 20.2502   8
   6  -3  -9 17.2000 16.3710   1
   6  -3  -9 11.5797 10.6644   8
   6  -3  -9 13.4910 16.2991   2
  -6   3   9-5.12181 18.7789   8
   6  -3  -8 844.399 32.5905   8
   6  -3  -8 883.957 34.6976   2
   6  -3  -8 926.675 33.9599   1
  -6   3   8 925.282 35.0954   8
   6  -3  -7 169.654 13.1916   8
   6  -3  -7 181.357 17.7788   1
  -6   3   7 182.469 18.9935   6
  -6   3   7 142.006 13.9236   5
  -6   3   7 181.250 17.6431   8
   6  -3  -6 533.604 21.7904   8
  -6   3   6 580.921 25.7127   6
  -6   3   6 474.863 23.4898   2
  -6   3   6 525.012 23.8834   5
   6  -3  -6 596.647 25.7070   1
  -6   3   6 540.080 24.4566   8
  -6   3   5 680.400 26.0575   2
  -6   3   5 636.159 25.5266   5
   6  -3  -5 732.080 27.7336   1
  -6   3   5 658.104 25.8972   8
  -6   3   4 826.981 28.4391   2
  -6   3   4 810.384 28.3787   5
  -6   3   4 744.828 26.9874   8
  -6   3   3 1135.45 36.3157   2
  -6   3   3 1108.26 36.2140   5
  -6   3   3 1187.15 38.5910   4
  -6   3   3 1158.05 35.0394   8
  -6   3   2 95.1224 12.0033   8
  -6   3   2 110.353 13.0728   2
  -6   3   2 88.4778 8.81983   5
   6  -3  -2 93.1176 15.3807   5
  -6   3   2 96.7532 12.8489   4
   6  -3  -2 90.4628 9.95719   1
  -6   3   1 1157.01 32.4173   8
  -6   3   1 1139.75 34.1521   2
   6  -3  -1 1109.51 36.1391   5
  -6   3   1 950.470 32.6369   5
  -6   3   1 1064.65 33.7656   4
   6  -3  -1 1050.50 34.0378   1
   6  -3   0 11.1430 6.85501   1
  -6   3   0 10.8325 11.1638   2
   6  -3   0 3.62461 12.8160   5
  -6   3   0 7.81120 6.04781   5
  -6   3   0 10.1400 10.0095   4
   6  -3   1 610.594 23.1370   1
  -6   3  -1 729.749 23.5394   2
   6  -3   1 649.063 27.0324   5
   6  -3   1 594.792 24.2435   4
  -6   3  -1 588.694 23.1908   4
   6  -3   2 1551.24 46.0758   1
  -6   3  -2 1537.08 45.5070   7
   6  -3   2 1493.35 47.0734   4
  -6   3  -2 1597.91 42.0041   8
  -6   3  -2 1529.54 46.4214   4
  -6   3  -3 13.5712 10.7071   7
  -6   3  -3 1.61062 9.07736   8
  -6   3  -3 5.29850 8.84096   2
   6  -3   3 13.9238 8.15252   1
   6  -3   3 5.19773 7.07344   4
  -6   3  -4 91.7971 13.2391   7
   6  -3   4 83.6227 10.0268   1
   6  -3   4 90.4206 9.85158   4
  -6   3  -4 75.7924 11.5490   8
  -6   3  -5 592.082 26.0589   3
   6  -3   5 527.918 20.7312   1
   6  -3   5 527.329 21.8322   4
  -6   3  -5 465.010 21.0969   8
  -6   3  -6 1737.37 52.3272   3
   6  -3   6 1688.03 46.3237   1
   6  -3   6 1578.64 48.4793   4
  -6   3  -6 1501.98 47.4432   8
  -6   3  -7 11.0447 18.2787   3
  -6   3  -7 8.51793 9.77840   6
   6  -3   7 2.48278 9.62484   5
   6  -3   7 9.29910 7.77186   1
   6  -3   7 4.45526 8.98602   4
  -6   3  -7-10.7945 16.9046   8
  -6   3  -8 23.7183 18.0379   8
  -6   3  -8 15.3572 19.4433   3
  -6   3  -8 21.9048 10.5125   6
   6  -3   8 18.1775 8.35861   1
   6  -3   8 14.5014 10.5248   5
   6  -3   8 10.6054 9.52956   4
  -6   3  -9 7.82424 19.8006   8
  -6   3  -9 29.3895 23.4374   3
   6  -3   9 20.5077 11.1305   5
   6  -3   9 28.3096 8.12105   1
   6  -3   9 7.84055 11.0151   4
  -6   3 -10 44.1543 22.6063   8
  -6   3 -10 49.8567 24.8156   3
   6  -3  10 43.0940 12.9581   5
   6  -3  10 38.6447 12.5251   4
  -6   2  15 333.477 21.6157   6
   6  -2 -14 2.76017 13.3966   8
   6  -2 -14 3.43069 18.1405   1
  -6   2  14 11.7779 12.1344   6
  -6   2  14 8.25609 25.0536   8
   6  -2 -13 75.1823 14.9337   8
   6  -2 -13 68.2156 17.6810   1
  -6   2  13 90.5422 13.3802   6
  -6   2  13 89.2456 26.0206   8
   6  -2 -12 88.3544 14.3871   8
   6  -2 -12 78.7662 17.0436   1
  -6   2  12 87.8669 12.8785   6
  -6   2  12 85.1348 24.3031   8
   6  -2 -11 102.149 14.6640   8
   6  -2 -11 94.1350 16.7067   1
  -6   2  11 101.434 13.1691   6
  -6   2  11 103.279 12.2205   2
  -6   2  11 71.8984 23.2249   8
   6  -2 -10 1251.92 43.3242   8
  -6   2  10 1213.99 41.3141   6
  -6   2  10 1181.10 40.2106   2
   6  -2 -10 1238.35 40.7355   1
  -6   2   9 34.9573 18.2613   8
   6  -2  -9 17.1395 10.0446   8
   6  -2  -9 19.2983 14.5299   1
  -6   2   9 8.75541 8.16964   2
   6  -2  -8 2003.50 60.8877   8
  -6   2   8 1949.63 59.5205   2
   6  -2  -8 2158.04 59.6287   1
  -6   2   8 2277.09 63.8235   8
  -6   2   7 268.169 16.7042   5
   6  -2  -7 271.532 15.4931   8
   6  -2  -7 303.450 18.8557   1
  -6   2   7 303.033 21.5267   8
   6  -2  -6 754.649 28.4730   1
  -6   2   6 764.587 28.4604   5
  -6   2   6 758.341 29.4314   8
  -6   2   5 87.6338 14.0498   8
  -6   2   5 96.1394 10.3990   5
  -6   2   5 97.3154 14.6890   2
   6  -2  -5 102.443 14.3871   1
  -6   2   4 1357.16 42.2957   8
  -6   2   4 1399.50 42.5736   2
  -6   2   4 1390.22 42.0328   5
   6  -2  -4 1350.31 42.5246   1
  -6   2   3 1364.10 40.1682   8
  -6   2   3 1250.12 39.5624   2
  -6   2   3 1235.69 38.2380   5
   6  -2  -2 621.368 24.3887   5
  -6   2   2 569.296 23.2670   2
  -6   2   2 568.705 21.3964   5
  -6   2   2 646.851 23.0272   8
   6  -2  -1 800.918 27.5459   1
   6  -2  -1 854.024 29.5029   5
  -6   2   1 868.330 28.5807   2
  -6   2   1 768.726 26.5832   5
  -6   2   1 915.095 30.0279   1
  -6   2   0 90.0306 13.8384   1
   6  -2   0 83.8435 9.39621   1
   6  -2   0 113.875 13.8590   5
  -6   2   0 96.4555 8.68610   5
  -6   2   0 77.4702 12.3767   2
  -6   2  -1 56.6389 13.7593   1
  -6   2  -1 57.0208 7.50723   5
   6  -2   1 73.8285 12.9933   5
  -6   2  -1 42.6771 11.7869   2
   6  -2   1 50.2518 8.64585   1
  -6   2  -2 145.413 12.7776   7
   6  -2   2 160.316 11.5996   1
  -6   2  -2 194.551 13.7256   2
   6  -2   2 206.043 15.9953   5
  -6   2  -2 187.944 12.1697   8
  -6   2  -2 172.856 15.7067   1
  -6   2  -3 589.526 24.4478   7
  -6   2  -3 622.601 24.9800   1
   6  -2   3 604.663 22.9544   1
  -6   2  -3 707.140 22.3779   2
   6  -2   3 655.040 26.7628   5
  -6   2  -3 600.423 21.9121   8
  -6   2  -4 427.194 21.1787   7
  -6   2  -4 485.398 17.5216   2
   6  -2   4 441.643 18.5722   1
   6  -2   4 403.772 22.3794   5
  -6   2  -4 418.391 19.1047   8
  -6   2  -4 431.777 21.7488   1
  -6   2  -5 69.0632 15.4688   1
  -6   2  -5 95.3882 16.5135   3
  -6   2  -5 83.6291 14.6989   7
   6  -2   5 76.2837 9.61411   1
  -6   2  -5 76.2224 14.6202   8
  -6   2  -6 575.181 27.0966   3
   6  -2   6 513.553 22.4744   4
   6  -2   6 529.733 21.0260   1
  -6   2  -6 559.942 25.4676   1
  -6   2  -6 479.827 23.7468   8
  -6   2  -7 59.1251 17.5619   1
  -6   2  -7 50.1688 19.2756   3
   6  -2   7 29.3357 9.04420   1
  -6   2  -7 20.8449 17.5240   8
   6  -2   7 25.9574 9.86544   4
   6  -2   8 143.290 14.0823   4
  -6   2  -8 161.591 19.3953   1
  -6   2  -8 167.076 23.5199   3
  -6   2  -8 132.202 14.8815   6
   6  -2   8 167.960 12.0081   1
  -6   2  -9-2.76089 20.7926   8
  -6   2  -9 9.53195 23.7331   3
   6  -2   9 24.1813 9.17032   1
  -6   2  -9 3.09069 13.6103   6
   6  -2   9 10.0686 11.7139   5
   6  -2   9 3.25341 10.2231   4
  -6   2 -10 92.8687 24.6495   8
  -6   2 -10 161.500 27.7525   3
   6  -2  10 110.058 15.0265   5
   6  -2  10 125.659 14.7850   4
  -6   1  15 0.95221 12.4270   3
  -6   1  15-4.29972 12.2590   6
  -6   1  14 98.0163 14.0622   6
   6  -1 -14 83.3220 18.6581   1
  -6   1  13 291.439 18.9923   6
  -6   1  13 300.873 31.7704   8
   6  -1 -13 287.473 20.9247   1
   6  -1 -12 14.3815 12.7250   8
   6  -1 -12 12.3620 15.6624   1
  -6   1  12 10.5966 10.1038   6
  -6   1  12 13.8450 9.22782   2
  -6   1  12-22.6491 24.9422   8
  -6   1  11 32.5686 22.0509   8
   6  -1 -11 10.3237 11.1940   8
   6  -1 -11 6.97559 14.8582   1
  -6   1  11 8.30935 10.5999   6
  -6   1  11-5.84013 10.3020   2
   6  -1 -10 206.249 16.3669   8
  -6   1  10 202.334 15.8169   6
  -6   1  10 205.840 15.8085   2
  -6   1  10 245.274 24.6005   8
   6  -1 -10 218.867 17.7623   1
   6  -1  -9 1862.78 57.9513   8
  -6   1   9 1896.63 57.9002   6
  -6   1   9 1945.38 58.0406   2
   6  -1  -9 2002.33 56.2870   1
  -6   1   8 12.3732 16.8083   8
   6  -1  -8 9.81782 13.1819   1
  -6   1   8 3.85201 8.76029   2
  -6   1   7 61.1156 16.8821   8
   6  -1  -7 63.7253 13.4532   1
  -6   1   7 65.4273 9.81126   5
  -6   1   6 487.232 20.3721   5
   6  -1  -6 468.357 21.6564   1
  -6   1   6 489.158 24.1599   8
  -6   1   5 49.1323 14.3826   8
   6  -1  -5 67.7442 13.5791   1
  -6   1   5 62.6824 8.52194   5
  -6   1   5 55.0978 15.0449   2
  -6   1   4 53.4446 12.9469   8
   6  -1  -4 53.9865 13.5503   1
  -6   1   4 55.9681 7.69669   5
  -6   1   4 40.1412 14.7499   2
  -6   1   3 3031.11 79.3155   8
   6  -1  -3 2980.48 79.5030   5
  -6   1   3 3146.48 80.9343   2
  -6   1   3 2849.65 77.6820   5
   6  -1  -2 873.426 28.9801   5
  -6   1   2 912.794 30.5625   2
  -6   1   2 806.806 26.9139   5
  -6   1   1 34.4627 12.7156   1
   6  -1  -1 32.9826 10.8509   5
   6  -1  -1 34.6705 7.31480   1
  -6   1   1 33.8875 6.38784   5
  -6   1   1 34.1139 11.4372   2
   6  -1   0 2435.56 66.5996   1
   6  -1   0 2619.43 66.8645   5
  -6   1   0 2376.51 65.8373   2
  -6   1   0 2348.95 65.6166   5
  -6   1   0 2648.34 67.8238   1
   6  -1   1 2221.71 60.7234   1
  -6   1  -1 2237.71 61.3578   1
   6  -1   1 2255.48 60.5506   5
  -6   1  -1 2143.97 58.8283   2
  -6   1  -2 344.840 17.3475   7
   6  -1   2 338.727 15.8521   1
   6  -1   2 336.327 18.5634   5
  -6   1  -2 290.451 15.0146   2
  -6   1  -2 327.523 16.1360   8
  -6   1  -2 329.470 18.5980   1
  -6   1  -3 14.3690 13.0546   1
   6  -1   3 6.08613 7.87445   1
  -6   1  -3 2.82225 11.0049   8
   6  -1   3 6.32927 12.7116   5
  -6   1  -3-3.57761 11.3469   7
  -6   1  -3 2.86218 9.79926   2
  -6   1  -4 121.674 14.4932   7
  -6   1  -4 109.056 11.6267   2
   6  -1   4 131.012 16.1239   5
   6  -1   4 130.429 11.1889   1
  -6   1  -4 143.254 14.4248   8
  -6   1  -4 130.884 15.6694   1
  -6   1  -5 615.898 27.5579   7
  -6   1  -5 559.076 21.5348   2
   6  -1   5 674.490 28.2863   5
  -6   1  -5 659.887 26.6349   1
  -6   1  -5 695.590 27.1756   8
   6  -1   5 676.150 24.1259   1
  -6   1  -6 66.3143 16.8007   1
   6  -1   6 58.2479 10.5860   1
  -6   1  -6 51.7669 10.5413   2
   6  -1   6 66.4476 17.9981   5
  -6   1  -6 74.4999 17.2819   8
  -6   1  -7 54.0399 17.7920   1
   6  -1   7 36.6347 9.48308   1
   6  -1   7 24.8786 18.8388   5
  -6   1  -7 48.4447 18.0859   8
   6  -1   8 105.224 11.4028   1
  -6   1  -8 70.4609 20.7141   8
  -6   1  -9 11.4158 18.3838   1
  -6   1  -9 9.44437 15.6561   6
   6  -1   9 2.41261 9.54620   1
  -6   1  -9-5.12787 22.1679   8
  -6   1 -10-1.37141 23.9658   8
  -6   1 -11 34.2955 27.3352   8
  -6   0  16 61.4618 13.5688   6
   6   0 -15 88.8901 26.3194   8
  -6   0  15 40.7456 13.3687   3
  -6   0  15 69.0416 13.7409   6
  -6   0  15 50.6985 16.8605   8
  -6   0  14 10.5880 10.7662   6
  -6   0  14 3.00146 10.9580   2
   6   0 -14 8.02155 16.4238   1
  -6   0  13 92.2142 13.0931   2
  -6   0  13 84.3685 13.0718   6
   6   0 -13 103.362 17.5047   1
  -6   0  12 43.0416 11.4039   6
   6   0 -12 57.5233 16.3401   1
  -6   0  12 59.1779 11.8922   2
   6   0 -11 1001.83 33.2457   1
  -6   0  11 892.685 34.6025   6
  -6   0  11 945.383 35.5107   2
  -6   0  10 9.59517 20.4165   8
   6   0 -10 9.06407 13.8286   1
  -6   0  10-5.21870 10.3638   2
   6   0  -9 1507.73 45.7772   1
  -6   0   9 1610.42 49.7162   2
   6   0  -8 277.593 17.5101   1
  -6   0   8 288.206 16.0380   5
  -6   0   8 303.190 17.8735   2
  -6   0   8 283.724 22.8171   8
  -6   0   7-3.37206 15.7524   8
   6   0  -7 5.17624 11.9247   1
  -6   0   7 7.11744 7.22666   5
  -6   0   6 4.75593 15.0715   8
   6   0  -6-1.84529 12.2851   1
  -6   0   6-0.36903 7.13530   5
  -6   0   5 25.4341 8.24554   1
  -6   0   5 20.4452 14.1768   8
   6   0  -5 19.7963 12.0909   1
  -6   0   5 29.1195 6.88735   5
  -6   0   5 19.5263 15.5428   2
  -6   0   4 3665.73 94.9235   8
   6   0  -4 3559.50 93.0843   1
  -6   0   4 3483.46 91.4232   5
  -6   0   4 3709.63 95.9398   2
  -6   0   4 3700.28 95.7138   4
  -6   0   4 3510.54 93.8685   1
   6   0  -3-16.3871 10.5736   5
  -6   0   3-2.19705 6.34485   5
   6   0  -3-6.19340 11.9742   1
  -6   0   3-9.07769 13.2983   2
  -6   0   3-7.74270 6.78671   4
   6   0  -2 3793.56 94.4877   5
  -6   0   2 3762.19 94.0768   5
  -6   0   2 3526.49 94.2579   4
   6   0  -1 404.730 17.8788   5
  -6   0   1 392.007 15.9162   4
  -6   0   1 475.772 21.4534   1
  -6   0   0 102.662 14.1490   1
   6   0   0 98.8251 9.60079   1
   6   0   0 120.493 11.7955   5
  -6   0   0 93.1023 7.58189   4
   6   0   0 105.573 14.6679   4
  -6   0  -1 5.88590 5.29666   4
   6   0   1-0.12347 7.13764   1
  -6   0  -1 1.39441 13.1688   1
   6   0   1 2.04343 10.6365   5
   6   0   1 0.13286 12.1805   4
  -6   0  -2 202.303 14.7879   7
   6   0   2 182.215 14.5039   5
   6   0   2 188.402 12.2926   1
  -6   0  -2 138.993 13.6393   8
   6   0   2 215.498 15.8423   4
  -6   0  -2 190.136 16.2240   1
  -6   0  -3 484.201 23.0957   7
  -6   0  -3 513.032 23.4020   1
   6   0   3 493.329 22.3370   5
   6   0   3 503.472 20.8382   1
  -6   0  -3 510.561 22.0404   8
   6   0   3 563.282 23.1676   4
  -6   0  -4 102.252 10.4221   3
  -6   0  -4 80.5478 14.6178   7
  -6   0  -4 97.3087 15.9554   1
   6   0   4 92.8052 15.0059   5
   6   0   4 92.0421 10.6994   1
   6   0   4 132.519 15.2875   4
  -6   0  -4 97.4091 14.7441   8
  -6   0  -5 227.345 14.5553   3
  -6   0  -5 185.623 18.9527   7
   6   0   5 227.616 19.5371   5
  -6   0  -5 259.964 19.5267   8
   6   0   5 263.940 19.5110   4
  -6   0  -5 239.103 19.3710   1
   6   0   5 232.514 14.9005   1
  -6   0  -6 37.0202 11.0948   3
  -6   0  -6 54.3923 16.8616   1
   6   0   6 42.5908 10.5938   1
   6   0   6 52.0222 18.1073   5
  -6   0  -6 71.6607 18.1488   8
   6   0   6 45.2142 17.2427   4
  -6   0  -7 128.801 14.1525   3
  -6   0  -7 116.401 21.4507   8
  -6   0  -7 111.811 19.6924   1
   6   0   7 129.026 12.3053   1
   6   0   7 109.313 20.8026   5
   6   0   7 142.500 19.7023   4
  -6   0  -8 0.64396 12.1411   3
  -6   0  -8-0.88197 19.0259   1
  -6   0  -8 12.4729 20.6528   8
   6   0   8 16.9979 10.1912   1
   6   0   8 16.5203 20.4697   5
   6   0   8 3.30896 17.9436   4
   6   0   9-5.09860 11.6770   1
  -6   0  -9 18.5518 20.0664   1
  -6   0  -9-9.07082 17.9832   6
   6   0   9-12.5920 21.3826   5
  -6   0  -9-7.97249 23.6984   8
   6   0   9 8.72070 19.2594   4
  -6   0 -10 96.1299 28.1640   8
  -6   0 -11-0.83956 28.7411   8
  -6  -1  16 57.0873 13.5295   6
  -6  -1  15-1.69967 11.2529   3
  -6  -1  15 8.91206 11.4870   6
  -6  -1  15 13.6404 11.1556   2
  -6  -1  15-9.21815 15.1195   8
   6   1 -14 557.160 23.7092   1
  -6  -1  14 509.867 25.4629   6
  -6  -1  14 522.675 25.3349   2
  -6  -1  14 528.864 29.5574   8
  -6  -1  13 79.7469 15.5281   8
  -6  -1  13 64.8545 12.4572   6
  -6  -1  13 88.9065 13.6230   2
   6   1 -13 77.8055 15.8007   1
  -6  -1  12-5.10215 10.6202   6
  -6  -1  12-12.0520 11.1239   2
   6   1 -12 3.51424 14.1838   1
   6   1 -11 636.346 25.2939   1
  -6  -1  11 604.830 28.2726   2
   6   1 -10 320.272 19.0629   1
  -6  -1  10 327.706 20.6701   2
  -6  -1   9 39.8585 12.0533   2
   6   1  -9 43.9466 13.3637   1
  -6  -1   8 34.3608 17.6747   8
  -6  -1   8 41.6484 9.00487   5
  -6  -1   8 44.4537 11.1840   2
   6   1  -8 48.6967 12.8601   1
  -6  -1   7 660.942 30.4906   8
   6   1  -7 609.039 24.2512   1
  -6  -1   7 712.506 23.6246   5
  -6  -1   7 651.317 27.4373   2
  -6  -1   7 623.807 23.8224   1
  -6  -1   6 382.873 23.1477   8
   6   1  -6 380.428 18.9524   1
  -6  -1   6 416.880 16.4046   5
  -6  -1   6 392.642 18.0707   1
  -6  -1   5 708.879 28.9652   8
   6   1  -5 673.300 25.7642   1
  -6  -1   5 723.012 22.6038   5
  -6  -1   5 687.815 25.5204   1
   6   1  -4 2784.06 74.5209   1
  -6  -1   4 2778.17 71.8698   5
  -6  -1   4 2873.45 76.1196   4
  -6  -1   4 2766.59 75.3099   1
   6   1  -3 14.7059 12.2573   1
   6   1  -3 2.89086 9.46034   5
  -6  -1   3 12.3995 6.14393   4
  -6  -1   3 12.4174 5.64608   5
   6   1  -2 39.2500 9.78205   5
  -6  -1   2 28.5298 5.80481   4
  -6  -1   1 9.44958 5.12975   4
   6   1  -1 18.4177 8.69937   5
  -6  -1   0 1208.33 37.0238   1
   6   1   0 1127.51 33.5535   5
   6   1   0 1118.19 34.7534   1
   6   1   0 1226.32 37.8434   4
  -6  -1  -1 696.684 26.6932   1
   6   1   1 660.055 23.9350   5
   6   1   1 677.457 24.2061   1
   6   1   1 735.599 26.6823   4
  -6  -1  -1 589.687 21.9737   4
  -6  -1  -2 50.3187 12.6257   7
  -6  -1  -2 30.3975 13.5728   1
   6   1   2 44.9780 11.9119   5
   6   1   2 39.6973 8.56302   1
  -6  -1  -2 3.37310 11.9080   8
   6   1   2 54.7491 12.7594   4
  -6  -1  -3 822.673 30.5994   1
  -6  -1  -3 898.335 32.0936   7
   6   1   3 882.634 29.8028   4
   6   1   3 792.000 29.4097   5
  -6  -1  -3 718.014 29.2111   8
   6   1   3 830.614 29.2508   1
   6   1   4 240.190 15.4309   1
  -6  -1  -4 252.125 18.9276   1
  -6  -1  -4 230.504 13.9911   3
  -6  -1  -4 218.360 18.9697   7
   6   1   4 230.464 17.9199   4
   6   1   4 225.059 17.7374   5
  -6  -1  -4 218.723 18.0845   8
  -6  -1  -5 1.06108 8.78117   3
  -6  -1  -5-21.8002 16.6268   7
  -6  -1  -5-4.68126 15.8010   1
   6   1   5-18.1096 10.2791   1
   6   1   5-3.00236 14.9094   5
  -6  -1  -5 17.2117 16.0294   8
   6   1   5-6.90715 15.1936   4
  -6  -1  -6-1.56030 9.94635   3
  -6  -1  -6-3.33102 17.1863   1
   6   1   6 8.70465 9.62555   1
   6   1   6 5.17900 16.1686   5
  -6  -1  -6 5.98781 17.9733   8
   6   1   6-11.2087 16.7766   4
  -6  -1  -7 99.5214 13.6338   3
  -6  -1  -7 83.7510 20.4271   1
   6   1   7 103.485 13.7813   1
   6   1   7 101.490 19.8848   5
  -6  -1  -7 93.1320 21.4401   8
   6   1   7 110.162 19.0444   4
  -6  -1  -8 15.6562 12.6530   3
  -6  -1  -8 26.6809 20.4330   1
   6   1   8 10.2034 19.4783   5
  -6  -1  -8 19.5454 22.9748   8
   6   1   8 20.6381 12.1153   1
   6   1   8 28.7151 18.6416   4
   6   1   9 6.89539 19.0971   4
   6   1   9-14.3760 13.3833   1
  -6  -1  -9 10.0348 12.6014   3
  -6  -1  -9-18.1170 20.0251   6
  -6  -1  -9 4.45983 21.5915   1
   6   1   9 17.5628 20.7799   5
  -6  -1  -9 22.9946 25.7546   8
  -6  -1 -10 39.9766 29.6403   8
  -6  -2  16 383.969 22.7231   6
  -6  -2  16 381.724 21.8591   2
  -6  -2  15 14.9205 11.6617   3
  -6  -2  15 17.5563 12.5776   6
  -6  -2  15 24.3323 12.3554   2
  -6  -2  15 6.63714 14.9032   8
  -6  -2  14 191.692 17.2632   6
  -6  -2  14 197.022 18.0615   2
   6   2 -14 219.216 15.7321   1
  -6  -2  14 222.245 20.8332   8
  -6  -2  13 17.1205 12.9471   8
   6   2 -13 24.8736 13.6116   1
  -6  -2  13 1.85135 10.9759   6
  -6  -2  13 10.7724 11.7745   2
  -6  -2  12 89.6186 15.5378   8
   6   2 -12 107.577 15.0602   1
  -6  -2  12 79.0431 13.0002   6
  -6  -2  12 100.621 14.4446   2
  -6  -2  11 9.70750 13.1643   8
   6   2 -11 12.8756 13.4395   1
  -6  -2  11 3.85404 13.1457   2
   6   2 -10 348.246 19.2536   1
  -6  -2  10 386.863 23.4402   2
   6   2  -9 2533.53 69.3170   1
  -6  -2   9 2627.05 69.6879   5
  -6  -2   9 2680.63 77.1860   2
  -6  -2   8 76.3042 10.2087   1
   6   2  -8 85.8997 13.5442   1
  -6  -2   8 81.8030 9.10506   5
  -6  -2   8 67.9742 12.6497   2
   6   2  -7 807.793 29.4585   1
  -6  -2   7 947.885 26.9600   5
  -6  -2   7 849.971 29.8641   1
   6   2  -6 9.69172 11.9177   1
  -6  -2   6 23.3163 15.9798   8
  -6  -2   6 12.3312 8.04251   1
  -6  -2   6 1.57232 5.58238   5
   6   2  -5 1932.50 55.3588   1
  -6  -2   5 1987.93 51.6082   5
  -6  -2   5 2153.66 58.7248   4
  -6  -2   5 1934.75 56.6190   1
   6   2  -4 13.9747 12.4421   1
  -6  -2   4 26.4791 8.03655   1
  -6  -2   4 21.0845 7.48425   4
   6   2  -3 469.180 18.9032   5
   6   2  -3 571.089 22.7376   1
  -6  -2   3 519.071 18.8165   4
  -6  -2   3 503.182 20.8464   1
   6   2  -2 308.920 14.4765   5
  -6  -2   2 321.409 13.4525   4
   6   2  -1 131.940 10.7106   5
  -6  -2   1 125.804 8.12784   4
  -6  -2   0 1.36896 4.98096   4
  -6  -2   0-5.63237 13.6882   1
   6   2   0-1.61688 9.11684   5
   6   2   0-2.51361 7.49741   1
   6   2   0-20.7794 12.6278   4
  -6  -2  -1 449.663 22.2813   1
   6   2   1 401.418 18.5426   5
   6   2   1 459.358 21.0932   4
   6   2   1 436.591 19.2327   1
   6   2   2 22.4880 8.86342   1
  -6  -2  -2 9.48714 14.4148   1
   6   2   2 18.6602 11.3094   5
  -6  -2  -2 30.7236 13.0865   8
   6   2   2 39.8089 12.3637   4
   6   2   3 217.397 15.4222   1
  -6  -2  -3 225.588 13.1693   3
  -6  -2  -3 208.302 18.2594   1
  -6  -2  -3 223.925 18.7035   7
   6   2   3 198.988 16.2971   5
  -6  -2  -3 171.809 16.6078   8
   6   2   3 224.842 15.7589   4
  -6  -2  -4 278.439 15.5243   3
  -6  -2  -4 290.676 20.4733   1
  -6  -2  -4 291.639 21.4151   7
   6   2   4 266.793 16.8548   1
   6   2   4 247.990 18.5424   5
   6   2   4 286.351 18.8004   4
  -6  -2  -4 204.383 19.5281   8
  -6  -2  -5 328.558 18.3581   3
  -6  -2  -5 339.851 22.8689   1
  -6  -2  -5 287.938 23.5518   7
   6   2   5 312.916 18.3442   1
   6   2   5 290.771 21.0818   5
  -6  -2  -5 292.272 22.6277   8
   6   2   5 300.380 21.2820   4
  -6  -2  -6-5.03639 10.9824   3
   6   2   6 8.57864 10.8991   1
  -6  -2  -6-3.95849 18.6135   1
   6   2   6 7.54547 16.8662   5
  -6  -2  -6 5.51555 18.6459   8
   6   2   6-31.9340 16.9860   4
  -6  -2  -7 39.9087 21.7823   8
  -6  -2  -7 34.4552 12.9559   3
  -6  -2  -7 33.6108 19.9562   1
   6   2   7 29.5597 19.5288   5
   6   2   7 31.3764 13.0816   1
   6   2   7 51.1352 17.7504   4
  -6  -2  -8 28.0228 13.2137   3
  -6  -2  -8 51.1686 22.2669   1
   6   2   8 28.7520 13.7794   1
   6   2   8 62.5870 21.1764   5
  -6  -2  -8 41.6873 24.7994   8
   6   2   8 36.5891 19.1013   4
   6   2   9 68.3189 20.5440   4
  -6  -2  -9 103.331 29.4427   8
  -6  -2  -9 66.3407 14.9956   3
  -6  -2  -9 13.2846 21.7554   6
  -6  -2  -9 60.5476 24.7285   1
   6   2   9 55.6484 22.9293   5
   6   2   9 29.5707 14.6518   1
  -6  -2 -10-28.9731 23.4765   6
  -6  -3  16 153.421 16.2643   6
  -6  -3  15 134.342 16.3835   6
  -6  -3  15 91.3731 13.3313   3
  -6  -3  15 142.768 16.5537   2
  -6  -3  15 137.137 19.6266   8
  -6  -3  14 122.134 18.1094   8
  -6  -3  14 81.6890 12.7336   3
  -6  -3  14 92.4970 14.8234   6
  -6  -3  14 86.6377 15.2472   2
  -6  -3  13 97.0123 16.8877   8
  -6  -3  13 73.8179 14.1861   6
  -6  -3  13 97.2273 15.5263   2
   6   3 -13 95.8540 13.7724   1
  -6  -3  12 349.981 22.5841   2
   6   3 -12 353.907 18.4692   1
  -6  -3  12 317.324 23.1993   8
  -6  -3  11 430.785 24.6883   2
   6   3 -11 384.275 19.0911   1
  -6  -3  11 350.623 23.4388   8
  -6  -3  10 435.179 17.9517   5
  -6  -3  10 517.819 27.1235   2
   6   3 -10 485.533 20.9512   1
  -6  -3  10 446.106 24.9429   8
  -6  -3   9 736.565 33.1478   8
  -6  -3   9 845.481 25.2078   5
  -6  -3   9 733.727 31.8367   2
   6   3  -9 833.501 28.1501   1
  -6  -3   9 821.239 28.8856   1
  -6  -3   8 1024.24 27.5315   5
   6   3  -8 936.028 31.8756   1
  -6  -3   8 966.384 32.8679   1
  -6  -3   7 48.4972 9.73158   1
   6   3  -7 56.2282 12.5726   1
  -6  -3   7 48.5118 5.29157   5
  -6  -3   6 2.61898 8.26355   1
   6   3  -6 11.2242 11.7302   1
   6   3  -5 521.204 22.2280   1
  -6  -3   5 534.787 21.7160   4
  -6  -3   5 531.319 22.1484   1
  -6  -3   4 98.1955 10.3137   1
   6   3  -4 94.6907 13.6091   1
  -6  -3   4 97.7307 8.80633   4
  -6  -3   3 168.541 12.0062   1
   6   3  -3 129.195 10.9722   5
   6   3  -3 183.816 15.5695   1
  -6  -3   3 169.337 9.78135   4
   6   3  -2 1003.48 29.9435   5
   6   3  -2 1114.89 35.5334   1
  -6  -3   2 1033.77 30.2588   4
  -6  -3   1 2.22120 5.09852   4
   6   3  -1 2.55931 8.47083   5
   6   3   0 96.2333 10.8175   5
  -6  -3   0 93.6360 16.1833   1
   6   3   0 74.8803 14.1075   4
   6   3   1 124.207 12.0364   1
  -6  -3  -1 131.082 17.1229   1
   6   3   1 136.052 12.7399   5
   6   3   1 128.142 14.4220   4
  -6  -3  -2 851.873 27.8809   3
   6   3   2 858.418 31.0721   1
  -6  -3  -2 870.606 32.5244   1
   6   3   2 765.767 28.4671   5
  -6  -3  -2 915.735 32.4084   8
   6   3   2 811.990 29.5632   4
  -6  -3  -3 199.091 13.1872   3
  -6  -3  -3 194.089 19.9368   1
   6   3   3 190.299 14.8568   1
   6   3   3 161.018 15.5768   5
  -6  -3  -3 199.497 18.1126   8
   6   3   3 197.256 15.7441   4
   6   3   4 59.8874 11.8292   1
  -6  -3  -4 62.6086 10.8233   3
  -6  -3  -4 20.3625 15.7916   8
   6   3   4 32.2150 15.1206   5
  -6  -3  -4 46.5798 18.0746   1
   6   3   4 44.2644 14.7421   4
  -6  -3  -5 1.49626 10.2815   3
   6   3   5 9.36188 11.4423   1
   6   3   5 0.14898 15.9369   5
  -6  -3  -5 7.31863 18.2604   1
  -6  -3  -5-26.6854 18.4238   8
   6   3   5-14.8146 15.9347   4
  -6  -3  -6 185.860 16.1478   3
  -6  -3  -6 207.802 23.4468   1
   6   3   6 163.465 19.7340   4
   6   3   6 174.205 17.9742   1
  -6  -3  -6 121.280 22.3226   8
  -6  -3  -7 56.0042 14.1365   3
   6   3   7 60.2075 15.3108   1
  -6  -3  -7 69.8394 22.2418   1
   6   3   7 35.7154 19.6881   5
  -6  -3  -7 25.9603 22.9572   8
   6   3   7 54.4903 18.6170   4
   6   3   8 4.22326 14.1427   1
  -6  -3  -8 10.2390 13.0049   3
  -6  -3  -8 23.2962 23.3960   1
   6   3   8 25.8588 20.8114   5
  -6  -3  -8 11.2403 26.5779   8
   6   3   8 23.0750 19.0321   4
  -6  -3  -9-34.2350 23.7268   6
  -6  -3  -9 43.1831 25.5900   1
  -6  -3  -9 29.2325 29.5911   8
  -6  -3 -10-11.3686 24.3480   6
  -6  -4  16-4.77593 10.9933   3
  -6  -4  15 42.2901 11.4123   3
  -6  -4  15 60.2995 14.0122   6
  -6  -4  15 42.2659 14.2099   2
  -6  -4  14 113.652 13.5354   3
  -6  -4  14 131.105 16.5916   6
  -6  -4  14 164.947 17.5168   2
  -6  -4  14 150.945 19.9171   8
  -6  -4  13 31.8006 15.1108   8
   6   4 -13 33.8751 13.2052   1
  -6  -4  13 53.6952 14.6339   2
  -6  -4  12 7.91247 13.0150   8
   6   4 -12-12.4401 13.9895   1
  -6  -4  12 2.46770 7.30821   5
  -6  -4  12 9.59200 13.1852   2
   6   4 -11 17.7836 13.3740   1
  -6  -4  11 26.5796 13.9710   8
  -6  -4  11 20.5249 6.89639   5
  -6  -4  11 39.9701 14.0782   2
  -6  -4  10 1646.65 51.7171   2
  -6  -4  10 1636.65 45.9180   1
   6   4 -10 1672.57 45.1138   1
  -6  -4  10 1709.71 54.2176   8
  -6  -4   9 104.910 15.7194   8
  -6  -4   9 99.0195 11.4589   1
   6   4  -9 87.4935 14.2972   1
  -6  -4   8-2.32637 11.4882   8
  -6  -4   8-1.02746 8.96591   1
   6   4  -8 8.11051 12.7048   1
  -6  -4   7 215.438 18.3261   8
   6   4  -7 215.765 16.2828   1
  -6  -4   7 238.330 15.4880   1
  -6  -4   6 54.1657 9.99185   1
  -6  -4   6 46.4981 10.2567   4
   6   4  -6 54.1030 13.5027   1
  -6  -4   5 55.0001 10.2877   1
  -6  -4   5 61.9851 8.52333   4
   6   4  -5 54.2659 13.4167   1
   6   4  -4 39.7280 13.1181   1
  -6  -4   4 32.5686 9.29652   1
  -6  -4   4 41.8015 6.68343   4
  -6  -4   3 1052.28 33.0034   1
  -6  -4   3 1053.17 28.2007   4
   6   4  -3 1067.67 33.8048   1
   6   4  -2 175.077 18.5492   1
  -6  -4   2 160.922 13.1262   1
   6   4  -2 152.898 10.5013   5
  -6  -4   2 169.798 9.67185   4
   6   4  -1 126.644 10.7543   5
   6   4   0 351.630 16.0279   5
   6   4   0 314.803 19.8123   4
  -6  -4  -1 31.7702 7.89288   3
  -6  -4  -1 18.2419 8.21862   7
   6   4   1 19.0795 11.0006   5
   6   4   1 20.4977 10.0405   1
  -6  -4  -1 11.6260 16.4526   1
   6   4   1 7.84960 12.5568   4
  -6  -4  -2 31.3222 8.61385   3
  -6  -4  -2 22.5666 9.12638   7
   6   4   2 4.39977 12.2301   5
  -6  -4  -2 24.8180 17.5808   1
   6   4   2 33.4771 10.4844   1
   6   4   2 39.4378 13.1011   4
   6   4   3 4.79935 10.4082   1
  -6  -4  -3 3.24093 9.04685   3
  -6  -4  -3-6.84049 9.58388   7
  -6  -4  -3 30.6304 15.8313   8
  -6  -4  -3-1.76734 18.0327   1
   6   4   3 27.5303 12.3102   4
  -6  -4  -4 440.348 20.5501   3
  -6  -4  -4 358.307 20.9903   7
  -6  -4  -4 450.507 26.8434   1
   6   4   4 402.576 23.1091   1
  -6  -4  -4 387.931 25.7676   8
   6   4   4 375.063 20.8893   4
  -6  -4  -5 13.2014 10.8012   3
  -6  -4  -5 13.8671 19.7418   1
  -6  -4  -5-8.51102 19.9091   8
   6   4   5 20.9331 13.2079   1
   6   4   5-10.9657 16.1755   4
  -6  -4  -6 0.39694 11.6204   3
  -6  -4  -6 7.60503 21.4088   1
   6   4   6-4.65843 14.4528   1
   6   4   6-3.81231 17.3353   4
  -6  -4  -7 40.8104 14.4859   3
   6   4   7 25.9006 15.8709   1
  -6  -4  -7 70.3284 23.6134   1
   6   4   7 39.0610 19.3210   4
  -6  -4  -8 11.0340 25.3156   1
  -6  -4  -8-17.6423 27.0467   8
   6   4   8-11.1324 20.2733   4
  -6  -4  -9 29.2674 24.3487   6
  -6  -4  -9 17.7806 27.4313   1
  -6  -5  15 40.7335 10.9384   3
  -6  -5  15 51.5966 14.7632   2
  -6  -5  14 24.0187 15.6764   8
  -6  -5  14 10.0055 10.1446   3
  -6  -5  14 13.6443 13.3397   6
  -6  -5  14 25.4964 14.8629   2
  -6  -5  13 50.6326 16.5527   8
  -6  -5  13 37.7771 10.2528   3
  -6  -5  13 54.0166 15.8288   2
   6   5 -12 214.731 16.5043   1
  -6  -5  12 189.167 19.3891   2
  -6  -5  12 158.776 19.9672   8
   6   5 -11 195.957 16.2229   1
  -6  -5  11 142.073 16.2542   2
  -6  -5  11 117.284 11.9505   1
  -6  -5  11 174.201 19.2048   8
  -6  -5  10 153.357 18.2912   8
   6   5 -10 114.507 16.3361   1
  -6  -5  10 147.360 12.7885   1
  -6  -5   9 56.0317 16.1905   8
  -6  -5   9 32.8440 10.6521   1
   6   5  -9 9.30200 14.4271   1
  -6  -5   8 86.8170 15.3461   8
  -6  -5   8 88.6440 12.0848   1
  -6  -5   7 71.5981 13.8933   8
   6   5  -7 55.7957 14.5644   1
  -6  -5   7 72.2546 11.6145   1
  -6  -5   7 58.9360 12.0507   4
  -6  -5   6 171.072 14.2547   1
   6   5  -6 137.093 16.4177   1
  -6  -5   6 171.279 12.3955   4
   6   5  -5 735.197 29.8072   1
  -6  -5   5 819.305 30.4336   1
  -6  -5   5 808.800 25.1919   4
  -6  -5   4 128.803 13.2944   1
   6   5  -4 124.315 16.5951   1
  -6  -5   4 120.223 9.04296   4
   6   5  -3 1222.79 37.7536   1
  -6  -5   3 1297.63 37.4897   1
  -6  -5   3 1255.82 30.7350   4
   6   5  -2-4.16311 8.05121   5
   6   5  -2 27.0305 15.4769   1
  -6  -5   2 3.93644 9.80205   1
   6   5  -1 192.735 12.4496   5
  -6  -5   0 100.018 9.85223   3
  -6  -5   0 99.6394 10.7916   7
   6   5   0 85.4971 11.6078   5
  -6  -5  -1 313.973 21.4521   8
  -6  -5  -1 257.506 13.9593   3
  -6  -5  -1 222.317 14.7635   7
  -6  -5  -1 257.761 23.0491   1
   6   5   1 192.679 15.0975   5
   6   5   1 227.374 16.7651   1
   6   5   1 159.737 16.3671   4
  -6  -5  -2 512.808 21.3482   3
  -6  -5  -2 466.062 22.0604   7
  -6  -5  -2 532.114 28.8317   1
   6   5   2 455.531 24.1188   1
   6   5   2 398.049 21.6366   4
  -6  -5  -2 609.942 26.9037   8
  -6  -5  -3 20.7618 9.89673   7
  -6  -5  -3 23.0127 10.8415   3
   6   5   3 21.7544 12.3811   1
  -6  -5  -3 49.7965 18.3874   8
   6   5   3 37.5548 13.6243   4
  -6  -5  -3 31.4153 19.8642   1
   6   5   4 3.94050 12.9066   1
  -6  -5  -4 5.76264 10.1972   7
  -6  -5  -4 12.5675 11.3357   3
  -6  -5  -4 15.1531 18.9362   8
  -6  -5  -4 5.38416 19.9737   1
   6   5   4 53.7962 13.8838   4
  -6  -5  -5 12.1540 11.6742   3
   6   5   5-3.75307 14.6222   1
  -6  -5  -5-33.7793 23.7661   8
  -6  -5  -5 13.1733 21.2282   1
   6   5   5 12.4481 15.5998   4
  -6  -5  -6 9.74872 12.0808   3
   6   5   6-20.9625 17.2270   1
  -6  -5  -6-12.2111 23.2041   1
   6   5   6-1.72038 16.2740   4
  -6  -5  -7 1.77411 24.4677   1
  -6  -5  -7-3.33403 24.6786   8
   6   5   7-4.64322 19.1214   4
  -6  -5  -8 12.6975 26.3680   1
   6   5   8 2.22892 20.3448   4
  -6  -6  14 3.13358 16.2280   8
  -6  -6  14 5.72574 9.37688   3
  -6  -6  14 17.9260 15.6075   2
  -6  -6  13 9.27434 15.4016   8
  -6  -6  13-5.77426 9.43100   3
  -6  -6  13-2.54639 15.2409   2
  -6  -6  12 68.6409 17.7769   8
  -6  -6  12 54.3218 10.5115   3
   6   6 -12 78.4844 17.8496   1
  -6  -6  12 68.3721 15.6926   2
   6   6 -11 157.551 18.6894   1
  -6  -6  11 120.747 12.6290   1
  -6  -6  11 154.088 20.2043   8
   6   6 -10 109.585 17.2192   1
  -6  -6  10 117.316 18.7716   8
  -6  -6  10 92.0275 12.2722   1
  -6  -6   9 84.8796 17.4997   8
  -6  -6   9 83.8909 12.9133   1
   6   6  -9 115.702 16.1523   1
  -6  -6   8 110.027 18.0658   8
   6   6  -8 119.279 16.2129   1
  -6  -6   8 82.8331 13.4795   1
  -6  -6   8 103.694 12.9288   4
  -6  -6   7-12.7043 14.0074   8
  -6  -6   7-3.55985 10.8344   1
  -6  -6   7 10.0829 7.72998   4
  -6  -6   6-15.9081 12.0708   1
  -6  -6   6-13.3243 7.64099   4
  -6  -6   5 575.855 25.9643   1
   6   6  -5 511.053 24.9443   1
  -6  -6   5 570.276 18.8070   4
  -6  -6   4 289.792 19.0057   1
   6   6  -4 272.274 20.0350   1
  -6  -6   4 277.245 12.3125   4
  -6  -6   3 129.433 14.7937   1
   6   6  -3 154.355 17.7011   1
  -6  -6   2 161.757 15.3361   1
   6   6  -2 103.017 9.61200   5
  -6  -6   1 217.056 11.4781   3
  -6  -6   1 189.808 13.4007   7
  -6  -6   1 184.032 15.9013   1
   6   6  -1 150.845 11.9513   5
   6   6  -1 225.124 21.7980   1
  -6  -6   0 25.8073 9.16496   7
  -6  -6   0 27.5647 8.21945   3
   6   6   0 23.8595 10.3000   5
  -6  -6  -1-12.6381 20.2658   1
  -6  -6  -1 3.20737 9.35067   7
  -6  -6  -1 2.05483 7.89005   3
   6   6   1 7.72380 12.0731   5
   6   6   1-11.6233 13.9084   4
   6   6   2 45.3451 13.6842   1
  -6  -6  -2 65.1437 21.2727   1
  -6  -6  -2 46.4744 11.1085   7
  -6  -6  -2 54.3054 10.5012   3
   6   6   2 49.0350 14.1616   4
  -6  -6  -3 42.1530 21.2020   1
  -6  -6  -3 29.6188 10.7858   7
  -6  -6  -3 21.3199 10.9682   3
   6   6   3 19.1310 13.7469   1
  -6  -6  -3 51.2536 20.2360   8
   6   6   3 37.6470 13.5725   4
  -6  -6  -4-7.05956 21.7848   1
   6   6   4-5.19433 15.8548   1
  -6  -6  -4 10.7349 11.0695   3
  -6  -6  -4 5.88559 21.7102   8
   6   6   4 34.9995 13.9974   4
   6   6   5 0.32694 15.8879   1
  -6  -6  -5-32.0310 25.6165   8
   6   6   5 64.0058 15.4303   4
  -6  -6  -5 37.7157 23.5501   1
  -6  -6  -6 98.1855 31.2586   1
   6   6   6 82.6771 18.2601   4
  -6  -6  -7 37.4715 26.9422   1
   6   6   7-1.17388 19.3581   4
  -6  -7  14 48.7081 17.7279   2
  -6  -7  13 171.952 20.7460   2
  -6  -7  13 182.186 23.6929   8
  -6  -7  12 7.07819 16.3933   8
  -6  -7  12 5.18121 8.23034   3
  -6  -7  11 8.54577 16.8861   8
  -6  -7  11 19.8477 10.3310   1
   6   7 -11-4.98263 19.6819   1
  -6  -7  11 0.86325 8.02859   3
  -6  -7  10 345.305 27.8066   8
  -6  -7  10 274.280 14.0998   3
   6   7 -10 277.157 24.0041   1
  -6  -7  10 294.187 18.4258   1
  -6  -7   9-3.07163 16.1604   8
  -6  -7   9 3.30920 11.7206   1
   6   7  -9 13.4817 18.5637   1
  -6  -7   9-7.61911 10.2614   4
  -6  -7   8 6.55976 15.1687   8
   6   7  -8 9.47598 17.9157   1
  -6  -7   8-4.74625 12.4701   1
  -6  -7   8 4.43106 7.81986   4
  -6  -7   7 150.072 15.7085   1
   6   7  -7 132.502 19.1650   1
  -6  -7   7 152.848 9.77206   4
  -6  -7   6 170.981 16.4336   1
   6   7  -6 147.862 19.2729   1
  -6  -7   6 170.518 8.93898   4
   6   7  -5-3.18463 16.6051   1
  -6  -7   5 7.92091 11.9092   1
  -6  -7   4 271.577 19.4921   1
   6   7  -4 279.074 22.7625   1
  -6  -7   3 405.795 14.7011   3
  -6  -7   3 365.477 21.8722   1
   6   7  -3 371.581 25.7862   1
  -6  -7   2 52.6223 12.7033   1
  -6  -7   2 47.2799 9.63058   7
  -6  -7   2 41.8943 7.58187   3
   6   7  -2 14.8060 7.97365   5
   6   7  -2 54.2973 19.8943   1
  -6  -7   1 8.81669 11.4676   1
  -6  -7   1 16.7340 8.74724   7
  -6  -7   1 18.5875 7.17389   3
   6   7  -1 14.8413 9.16946   5
   6   7  -1 5.90401 20.6975   1
  -6  -7   0 1.85728 9.17840   7
  -6  -7   0 0.85978 7.75287   3
   6   7   0 1.24494 10.3766   5
  -6  -7   0 3.06189 10.4011   8
  -6  -7  -1 96.5695 10.9508   3
  -6  -7  -1 83.6419 12.4488   7
  -6  -7  -2 27.4158 22.6663   1
  -6  -7  -2 3.12909 10.3948   7
  -6  -7  -2 2.55232 9.61785   3
   6   7   2-14.9311 14.2132   4
   6   7   2 2.94384 13.5400   1
  -6  -7  -3 170.755 16.9142   7
   6   7   3 138.529 19.7214   1
   6   7   3 118.035 16.0701   4
  -6  -7  -4-7.10633 23.5402   1
   6   7   4 4.72708 15.7529   1
   6   7   4 35.5110 14.9985   4
  -6  -7  -5 15.4411 24.6301   1
   6   7   5 46.7759 16.0245   4
   6   7   6 59.2657 17.2142   4
  -6  -8  13 54.2345 17.4735   2
  -6  -8  12 11.0595 18.0193   8
  -6  -8  11 74.3054 21.4566   8
  -6  -8  10 89.7516 21.9003   8
  -6  -8  10 65.0840 13.6770   1
  -6  -8   9 297.442 20.2075   1
  -6  -8   9 309.126 27.7936   8
   6   8  -9 225.715 26.4672   1
  -6  -8   8 190.578 23.5649   8
  -6  -8   8 183.505 17.1338   1
  -6  -8   8 157.231 8.77224   3
   6   8  -8 126.566 23.6390   1
  -6  -8   8 191.030 8.34595   4
   6   8  -7 34.4047 20.7481   1
  -6  -8   7 78.7726 15.0091   1
   6   8  -6 32.2663 20.1340   1
  -6  -8   6 51.6002 13.7388   1
   6   8  -5 6.64037 20.0584   1
  -6  -8   5 1.69706 4.46839   3
  -6  -8   5 22.5331 12.6500   1
  -6  -8   4 80.4474 6.45758   3
   6   8  -4 81.0871 21.5904   1
  -6  -8   4 117.142 15.5994   1
  -6  -8   3 42.1172 13.6780   1
  -6  -8   3 72.2317 11.3335   7
  -6  -8   3 30.1180 6.61191   3
   6   8  -3 28.3520 21.4322   1
  -6  -8   2 70.8668 14.4110   1
  -6  -8   2 80.6050 11.7435   7
  -6  -8   2 47.3456 7.78510   3
   6   8  -2 33.1752 22.6167   1
   6   8  -2 36.6375 7.94467   5
  -6  -8   1 14.5118 12.6858   1
  -6  -8   1 33.5609 10.6360   7
  -6  -8   1 17.9137 7.50480   3
   6   8  -1 28.6865 9.68438   5
  -6  -8   0 7.90866 10.2958   7
   6   8   0 7.13426 10.7441   5
  -6  -8   0 28.9921 11.5882   8
  -6  -8  -1 81.0009 13.5828   7
  -6  -8  -1 99.8387 13.8541   8
  -6  -8  -2-3.21167 23.6604   1
   6   8   2 4.23642 15.2113   1
  -6  -8  -2 6.23912 12.3182   7
  -6  -8  -2 21.9653 11.7743   8
   6   8   2-26.1220 15.1957   4
  -6  -8  -3 12.6278 24.1466   1
  -6  -8  -3 11.7900 13.1288   8
  -6  -9  11 187.354 25.5044   8
  -6  -9  10-0.42885 19.2376   8
  -6  -9  10 9.12441 12.7749   1
  -6  -9   9 16.6262 19.2095   8
  -6  -9   9 33.7303 14.0296   1
  -6  -9   8 38.6040 18.8844   8
  -6  -9   8 31.0034 13.9776   1
  -6  -9   7 23.3819 13.3935   1
  -6  -9   6-0.95434 13.4009   1
  -6  -9   5-2.43581 13.5218   1
  -6  -9   4 248.888 15.9150   7
  -6  -9   4 231.246 20.1830   1
  -6  -9   3 45.6226 14.9535   1
  -6  -9   3 36.3039 10.4428   7
  -6  -9   2 49.6088 14.8913   1
  -6  -9   2 39.5320 11.2437   7
  -6  -9   1 17.5871 13.7575   1
  -6  -9   1 23.6329 11.2947   7
  -6  -9   1 37.6917 12.6809   8
  -6  -9   0 24.5031 14.0100   1
  -6  -9   0 17.1105 12.1508   7
  -6  -9   0 34.8263 12.3827   8
  -6  -9  -1 30.2660 12.9406   7
  -6 -10   8 6.63283 18.1148   8
  -6 -10   8 6.17281 13.1874   1
  -6 -10   7 12.3437 13.2863   1
  -6 -10   6 80.5406 11.8532   7
  -6 -10   6 61.4114 15.3051   1
  -6 -10   5 19.5755 10.1381   7
  -6 -10   5 18.7763 14.7587   1
  -6 -10   4 89.4862 12.4886   7
  -6 -10   4 69.3520 16.4611   1
  -6 -10   3 19.8028 14.6047   1
  -6 -10   3 21.9558 11.2258   7
  -6 -10   2 33.6778 11.9536   7
  -6 -10   1 30.8316 12.4600   7
  -6 -10   0 6.00899 12.5014   7
   7 -12  -2 19.6610 16.2338   2
   7 -12  -1 10.6371 16.0697   2
   7 -12   0 412.313 27.2875   2
   7 -12   2-10.3820 16.4692   1
  -7  11   5 71.1767 18.7832   4
   7 -11  -4 16.2898 17.2092   2
  -7  11   4 44.7139 16.5243   4
  -7  11   3 75.2510 23.7154   5
   7 -11  -3 68.8531 17.9363   2
  -7  11   3 89.0778 16.0747   4
   7 -11  -2 143.139 19.8024   2
  -7  11   2 130.243 23.1228   5
  -7  11   2 141.106 16.3582   4
  -7  11   1 67.6132 14.5380   4
   7 -11  -1 56.3817 16.9108   2
   7 -11   0 25.6989 14.7433   2
  -7  11   0 41.7579 18.8763   5
   7 -11   0 13.7852 15.8503   1
   7 -11   1 8.17633 16.5012   1
   7 -11   1 19.2836 14.0653   2
  -7  11  -1 5.00859 18.4967   5
   7 -11   2 96.3287 18.2434   1
  -7  11  -2 76.9104 20.2496   5
   7 -11   3 6.82947 15.1088   1
  -7  10   6 21.9666 26.6651   5
   7 -10  -6 3.35798 16.5486   2
  -7  10   6-26.8024 22.4463   4
   7 -10  -5 365.780 27.2654   2
  -7  10   5 394.535 32.5338   5
  -7  10   5 316.345 24.9991   4
  -7  10   4 8.93980 24.1035   5
   7 -10  -4 2.42799 15.7758   2
  -7  10   4 4.17677 16.9533   4
  -7  10   3 29.1055 21.5049   5
   7 -10  -3 34.2037 16.0696   2
  -7  10   3 65.8478 15.6341   4
  -7  10   2-7.65700 19.9697   5
   7 -10  -2 4.88140 13.7265   2
  -7  10   2-10.3627 15.0802   4
   7 -10  -1 273.417 21.7953   2
  -7  10   1 268.910 23.7363   5
   7 -10  -1 277.961 22.8764   1
  -7  10   1 298.988 19.1604   4
  -7  10   0 99.6422 15.6929   4
   7 -10   0 105.395 16.6890   2
  -7  10   0 117.849 19.6016   5
   7 -10   0 90.2623 18.4514   1
   7 -10   1 2.41350 14.5286   1
  -7  10  -1-14.0583 15.3409   4
   7 -10   1-3.99309 13.2494   2
  -7  10  -1-4.45071 16.9429   5
   7 -10   2 52.6914 15.3668   1
   7 -10   2 52.1511 14.4911   2
  -7  10  -2 12.9903 17.3069   5
   7 -10   3-2.87148 13.1850   1
  -7  10  -3-23.2014 17.9022   5
  -7  10  -4 58.7764 17.7550   3
   7 -10   4 15.1900 12.7443   1
   7  -9 -11 25.6531 16.5360   8
  -7   9  11 50.0503 19.9664   8
   7  -9 -10 69.6992 16.6123   8
  -7   9  10 110.094 19.8354   8
   7  -9  -9 42.5366 14.6168   8
  -7   9   9 71.6447 18.1438   8
   7  -9  -8 24.3872 13.3477   8
  -7   9   8 30.4940 27.7608   5
   7  -9  -8 48.1078 16.7164   2
  -7   9   8 63.3141 16.3449   8
   7  -9  -7 206.402 18.2455   8
  -7   9   7 237.103 30.2808   5
   7  -9  -7 271.535 23.6886   2
  -7   9   7 226.097 17.9513   8
   7  -9  -6 463.388 22.9427   8
   7  -9  -6 536.672 30.9480   2
  -7   9   6 583.914 36.0618   5
  -7   9   6 546.011 22.2662   8
   7  -9  -5 37.5929 10.3525   8
  -7   9   5 51.1602 24.3056   5
   7  -9  -5 19.9821 15.4487   2
  -7   9   5 33.1696 12.2794   8
  -7   9   5-8.79428 19.3948   4
  -7   9   4 77.7536 22.7288   5
   7  -9  -4 83.7786 16.9116   2
  -7   9   4 77.9625 17.6813   4
   7  -9  -3 225.408 20.2966   2
  -7   9   3 194.294 22.8983   5
  -7   9   3 244.901 18.8802   4
  -7   9   2 28.6113 13.5963   4
  -7   9   2 0.40905 17.4965   5
   7  -9  -2 7.51453 13.0720   2
  -7   9   1-4.56356 16.3906   5
   7  -9  -1 9.05157 13.1815   2
   7  -9  -1 19.9163 13.4726   1
  -7   9   1 5.31017 13.8148   4
  -7   9   0 60.0351 14.2847   4
   7  -9   0 51.0768 15.8916   1
  -7   9   0 35.6749 16.2895   5
   7  -9   0 41.9604 14.7417   2
   7  -9   1 187.617 17.9024   2
  -7   9  -1 154.124 18.6177   5
   7  -9   1 212.165 19.6018   1
  -7   9  -1 203.702 17.6776   4
  -7   9  -2-15.3714 16.1232   4
   7  -9   2-0.92414 13.0385   1
  -7   9  -2-8.51908 16.1052   5
   7  -9   2 9.93469 11.3943   2
   7  -9   3 6.72707 12.3803   1
  -7   9  -3-8.89319 16.3164   5
   7  -9   3 2.90892 10.2181   2
   7  -9   4 200.897 23.0643   5
   7  -9   4 243.293 19.1355   1
  -7   9  -5 34.0276 18.6640   3
   7  -9   5-0.75078 11.4151   1
   7  -9   5 3.84567 15.5980   5
  -7   9  -6 79.6689 20.7061   3
   7  -9   6 49.8772 17.5442   5
  -7   9  -7 33.7713 22.0130   3
  -7   8  12 13.7019 20.2140   8
   7  -8 -11 13.3095 15.4790   8
  -7   8  11-10.1476 19.2905   8
   7  -8 -10 33.2381 15.2825   8
  -7   8  10 7.40878 17.5899   8
   7  -8  -9 3.50124 13.5026   8
  -7   8   9-0.93227 16.7431   8
   7  -8  -8 376.479 23.0758   8
   7  -8  -8 397.546 26.3778   2
  -7   8   8 344.388 21.4058   8
   7  -8  -7 61.8977 12.7114   8
   7  -8  -7 81.5440 17.1221   2
  -7   8   7 56.9695 15.2133   8
   7  -8  -6 416.663 20.8430   8
   7  -8  -6 482.885 27.9123   2
  -7   8   6 428.256 20.4934   8
   7  -8  -5 79.9886 10.8488   8
  -7   8   5 85.5825 22.7735   5
   7  -8  -5 57.2898 15.5618   2
  -7   8   5 70.6162 12.7671   8
  -7   8   5 49.1831 19.9035   4
  -7   8   4 35.3908 20.1259   5
   7  -8  -4 30.1113 14.5221   2
  -7   8   4 39.9211 10.3412   8
  -7   8   4 16.1482 16.8776   4
  -7   8   3-2.32065 18.5991   5
   7  -8  -3 2.69500 12.6403   2
  -7   8   3-2.61300 15.0034   4
  -7   8   2 20.8168 17.3219   5
   7  -8  -2 16.4445 13.3527   2
  -7   8   2 38.4050 13.9261   4
   7  -8  -2 20.4766 13.0169   1
   7  -8  -1 500.270 26.6910   2
  -7   8   1 407.485 25.2070   5
  -7   8   1 495.852 23.2656   4
   7  -8  -1 511.989 27.8903   1
  -7   8   0 1.27405 13.7072   4
   7  -8   0-10.4685 12.6206   1
  -7   8   0-11.3209 15.8638   5
   7  -8   0-6.71052 12.5797   2
  -7   8  -1 587.174 18.8041   7
   7  -8   1 703.793 28.3889   2
  -7   8  -1 560.254 28.0041   5
  -7   8  -1 678.701 26.6406   4
   7  -8   1 724.860 30.1590   1
  -7   8  -2 51.6717 15.5060   4
   7  -8   2 63.2426 14.2782   1
   7  -8   2 60.7652 16.3449   5
  -7   8  -2 45.8973 16.0942   5
   7  -8   2 69.5154 12.2426   2
   7  -8   3 125.393 17.9927   5
  -7   8  -3 87.0361 16.4683   5
   7  -8   3 108.522 14.4491   1
   7  -8   4 3.68896 11.2268   1
   7  -8   4 3.39389 14.1092   5
   7  -8   5-18.4996 12.2324   1
   7  -8   5 5.74821 14.1840   5
  -7   8  -6 450.208 27.1305   3
   7  -8   6 388.870 19.7130   1
  -7   8  -7 27.5975 22.4196   3
   7  -8   7-2.00100 13.9515   5
   7  -8   7-10.3223 12.7763   4
  -7   8  -8 90.4815 24.5600   3
   7  -8   8 51.1576 15.0271   4
  -7   7  12-6.79457 21.2260   8
   7  -7 -12-0.97278 15.4903   8
   7  -7 -11 227.637 22.3829   8
   7  -7 -11 249.295 32.1850   2
   7  -7 -10 93.9172 16.7781   8
  -7   7  10 85.4231 15.5613   5
   7  -7 -10 98.6376 29.3371   2
  -7   7  10 58.3825 18.9574   8
   7  -7  -9-2.69283 12.9592   8
  -7   7   9 28.3877 20.6311   6
  -7   7   9-14.9123 13.1066   5
  -7   7   9-28.2608 18.0732   8
   7  -7  -8 534.708 26.4530   8
  -7   7   8 582.970 29.2132   6
  -7   7   8 468.386 28.2380   5
  -7   7   8 477.185 25.2738   8
   7  -7  -7 215.630 16.4704   8
  -7   7   7 222.163 21.5660   6
   7  -7  -7 242.341 20.8074   2
  -7   7   7 207.454 18.6300   8
   7  -7  -6 252.562 16.1869   8
  -7   7   6 246.406 21.1472   6
   7  -7  -6 279.849 21.6399   2
  -7   7   6 235.280 17.5200   8
  -7   7   5-1.35148 15.6237   6
   7  -7  -5-15.6240 13.7583   2
  -7   7   5-26.6532 13.0116   8
  -7   7   4 318.058 19.8546   6
   7  -7  -4 336.963 22.1103   2
  -7   7   4 269.743 22.4996   4
  -7   7   4 260.289 15.0637   8
   7  -7  -4 315.095 20.7901   1
  -7   7   3 177.381 16.8038   6
   7  -7  -3 213.319 18.8132   2
  -7   7   3 167.072 20.2263   5
  -7   7   3 177.387 18.6328   4
  -7   7   3 201.541 11.3917   8
   7  -7  -3 191.421 17.4687   1
   7  -7  -2-4.75429 12.4662   1
  -7   7   2 14.4559 13.3843   6
  -7   7   2 3.31797 15.6843   5
   7  -7  -2 0.64705 11.6724   2
  -7   7   2 12.5504 6.12751   8
  -7   7   2-8.76042 13.4237   4
  -7   7   1 786.077 27.3774   6
   7  -7  -1 807.123 32.1596   2
  -7   7   1 675.254 31.4780   5
  -7   7   1 778.353 29.0821   4
   7  -7  -1 799.422 32.7367   1
  -7   7   0 523.905 21.3325   6
   7  -7   0 525.509 25.2696   2
  -7   7   0 466.126 25.3579   5
  -7   7   0 546.410 23.6575   4
   7  -7   0 588.482 26.9647   1
  -7   7  -1 7.59890 12.7183   4
   7  -7   1 3.95109 11.5298   1
  -7   7  -1 14.8149 8.81993   7
  -7   7  -1 13.4358 10.4740   6
   7  -7   1 14.1538 12.3893   5
  -7   7  -1 6.42178 14.9598   5
   7  -7   1 6.09730 9.68523   2
  -7   7  -2-14.7367 14.2076   4
  -7   7  -2-1.96342 8.99673   7
   7  -7   2-2.26823 11.3226   1
   7  -7   2-6.05204 12.9451   5
  -7   7  -2 3.81905 14.2865   5
   7  -7   3 226.175 19.5295   5
  -7   7  -3 210.998 18.9950   5
   7  -7   3 216.162 17.3709   1
   7  -7   4 208.963 15.9659   1
   7  -7   4 181.405 18.0994   5
  -7   7  -5 21.1447 17.6450   3
   7  -7   5-2.00577 12.4488   5
   7  -7   5 0.45018 9.41660   1
   7  -7   5-14.8095 12.2450   4
   7  -7   6 312.176 16.7399   1
   7  -7   6 265.786 21.3592   5
   7  -7   6 247.681 20.3132   4
  -7   7  -7 28.3714 22.0153   3
   7  -7   7-8.69541 13.7222   5
   7  -7   7-11.5483 12.4234   4
  -7   7  -8 5.72512 22.7987   3
   7  -7   8 4.88271 12.1059   4
   7  -6 -14 4.62233 25.8807   1
   7  -6 -13 205.677 24.0384   8
  -7   6  13 130.464 26.5106   8
   7  -6 -13 183.685 28.1935   1
   7  -6 -12 17.3631 16.5008   8
  -7   6  12 46.9326 22.5464   8
   7  -6 -12 50.6524 26.8906   2
   7  -6 -12-3.78438 24.6621   1
   7  -6 -11 8.39069 14.8772   8
  -7   6  11 34.6076 22.3536   6
   7  -6 -11 15.1964 25.9866   2
  -7   6  11 37.7787 20.1163   8
   7  -6 -11-2.67451 22.7300   1
   7  -6 -10-6.98247 13.9626   8
  -7   6  10 17.2175 21.0119   6
   7  -6 -10 0.78929 25.0449   2
  -7   6  10 6.33069 18.6110   8
   7  -6  -9 479.322 25.7506   8
  -7   6   9 510.627 29.0667   6
  -7   6   9 397.359 25.1001   5
  -7   6   9 443.382 25.9486   8
   7  -6  -8 23.9207 12.1520   8
  -7   6   8 22.9680 18.3074   6
  -7   6   8 9.09589 12.2512   5
  -7   6   8 11.9581 16.3641   8
   7  -6  -7 32.7782 11.0154   8
  -7   6   7 28.7599 17.9659   6
  -7   6   7 47.2720 15.2334   8
  -7   6   7 24.8494 12.6024   5
   7  -6  -7 32.1448 13.4060   2
   7  -6  -6 708.739 27.0350   8
  -7   6   6 650.764 29.5128   6
  -7   6   6 619.184 29.7114   5
   7  -6  -6 748.546 32.2516   2
   7  -6  -6 779.614 36.4103   1
  -7   6   6 661.267 26.9905   8
  -7   6   5 24.5851 15.1341   6
   7  -6  -5 16.4087 12.4189   2
  -7   6   5 21.9895 12.7410   8
  -7   6   4 118.775 16.1315   6
   7  -6  -4 126.253 15.0675   2
  -7   6   4 102.389 12.7842   8
  -7   6   4 90.5318 18.2881   4
  -7   6   3 408.621 21.2729   6
   7  -6  -3 437.029 23.0884   2
  -7   6   3 408.677 23.5114   4
  -7   6   3 406.092 16.9678   8
   7  -6  -3 435.561 22.9855   1
  -7   6   2 919.992 31.9336   6
   7  -6  -2 1025.88 36.1439   2
  -7   6   2 911.416 33.5632   4
  -7   6   2 956.211 27.0071   8
   7  -6  -2 983.287 36.1385   1
   7  -6  -1 45.3796 12.3297   1
  -7   6   1 50.1172 13.0853   6
   7  -6  -1 45.6167 11.6508   2
  -7   6   1 62.5435 13.2597   4
   7  -6   0 891.629 32.8902   1
  -7   6   0 855.627 28.0184   6
  -7   6   0 744.789 31.5395   5
   7  -6   0 802.302 30.0684   2
  -7   6   0 873.298 30.3727   4
  -7   6  -1 1237.60 36.4096   6
   7  -6   1 1228.29 44.3585   5
  -7   6  -1 1235.43 41.6943   5
  -7   6  -1 1244.97 39.9256   4
   7  -6   1 1356.07 42.9482   1
  -7   6  -2 8.74775 13.3485   4
  -7   6  -2 25.1627 10.4280   7
   7  -6   2 19.6115 10.4721   1
  -7   6  -2 29.2489 10.1918   6
   7  -6   2 14.1677 10.8544   5
  -7   6  -2 17.4011 14.4440   5
  -7   6  -3-1.65503 10.8197   7
  -7   6  -3 12.6766 8.25941   6
   7  -6   3-4.26344 10.2727   1
   7  -6   3-2.85768 11.4474   5
   7  -6   4-0.90396 9.41514   1
   7  -6   4-12.8467 12.7201   5
   7  -6   4-6.28649 11.4048   4
  -7   6  -5 232.997 20.7255   3
   7  -6   5 192.712 13.9255   1
   7  -6   5 178.314 17.3882   5
   7  -6   5 175.079 16.0415   4
  -7   6  -6 9.70503 16.6440   3
   7  -6   6 0.64663 9.94584   4
   7  -6   6 15.8141 12.4091   5
   7  -6   6 3.53205 8.32727   1
  -7   6  -7 54.5707 21.1856   3
   7  -6   7 47.1439 9.78151   1
   7  -6   7 56.7085 13.8384   5
   7  -6   7 56.1876 12.7879   4
  -7   6  -8 71.0873 23.3945   3
   7  -6   8 50.7821 14.4778   5
   7  -6   8 61.9489 13.7555   4
   7  -5 -14 7.43574 22.7103   1
   7  -5 -13 99.8485 24.0939   1
   7  -5 -13 102.920 18.9440   8
  -7   5  13 107.269 15.1954   6
   7  -5 -13 117.923 24.3956   2
  -7   5  13 146.833 25.9506   8
   7  -5 -12 238.767 22.3758   8
   7  -5 -12 235.254 27.8811   2
   7  -5 -12 235.822 26.9924   1
  -7   5  12 246.268 26.4282   8
   7  -5 -11 155.778 24.0474   1
   7  -5 -11 164.185 18.1188   8
   7  -5 -11 143.819 25.0970   2
  -7   5  11 148.847 23.1698   8
   7  -5 -10-5.00199 20.6236   1
   7  -5 -10 6.16529 12.5975   8
  -7   5  10 35.9548 21.1924   6
   7  -5 -10 4.95664 22.2866   2
  -7   5  10 3.03237 19.0519   8
   7  -5  -9 584.917 27.7615   8
  -7   5   9 645.570 30.6140   6
  -7   5   9 489.460 27.3457   5
   7  -5  -9 624.259 32.2817   1
  -7   5   9 540.127 28.4241   8
   7  -5  -8 630.167 27.4405   8
  -7   5   8 668.085 30.9408   6
   7  -5  -8 667.156 33.1713   1
  -7   5   8 582.885 29.2594   5
  -7   5   8 609.795 28.7758   8
   7  -5  -7 3.59429 20.3030   1
   7  -5  -7 13.7696 10.0411   8
  -7   5   7 13.3511 17.3236   6
  -7   5   7-2.02008 10.9710   5
   7  -5  -7 9.03619 11.2503   2
  -7   5   7 0.67763 15.1002   8
   7  -5  -6 88.8679 21.9555   1
  -7   5   6 79.3688 17.2790   6
  -7   5   6 66.6782 12.7553   5
   7  -5  -6 89.3847 13.8417   2
  -7   5   6 67.6556 15.3076   8
  -7   5   5 1234.40 40.1842   6
  -7   5   5 1176.89 41.6952   5
   7  -5  -5 1278.81 42.6109   2
  -7   5   5 1144.54 37.2868   8
  -7   5   4 995.292 32.8328   8
  -7   5   4 1068.46 36.0958   6
  -7   5   4 971.625 36.6181   5
   7  -5  -4 1144.13 38.2226   2
  -7   5   4 1125.20 39.8714   4
  -7   5   3 142.373 16.7413   6
   7  -5  -3 142.976 14.0804   2
  -7   5   3 136.996 16.8530   4
   7  -5  -3 146.891 14.1727   1
  -7   5   3 133.863 12.8387   8
  -7   5   2 550.425 23.9725   6
   7  -5  -2 575.296 24.0903   2
  -7   5   2 589.411 24.8761   4
   7  -5  -2 600.755 25.4259   1
  -7   5   2 563.177 19.8854   8
  -7   5   1 41.2271 8.69675   8
   7  -5  -1 35.0082 10.6622   1
  -7   5   1 37.8770 12.8763   6
  -7   5   1 39.1011 12.4662   4
   7  -5   0 214.323 15.3735   1
  -7   5   0 195.265 14.7590   6
  -7   5   0 206.130 15.2172   4
  -7   5   0 154.085 9.23084   8
  -7   5  -1 171.462 14.7571   4
   7  -5   1 196.992 14.8330   1
  -7   5  -2 71.4541 12.0120   7
   7  -5   2 56.3897 11.0752   1
  -7   5  -3 82.7843 12.8550   7
   7  -5   3 77.5080 11.1751   1
   7  -5   3 65.4688 11.8926   4
  -7   5  -4 2.73708 12.7215   7
   7  -5   4 6.04184 10.5520   5
   7  -5   4-1.13249 9.54268   1
   7  -5   4-2.13744 10.1685   4
   7  -5   5 793.373 24.5102   1
   7  -5   5 690.582 27.6154   5
   7  -5   5 730.335 27.2439   4
  -7   5  -6 95.6714 18.2487   3
   7  -5   6 116.060 11.2320   1
   7  -5   6 89.5732 13.5701   5
   7  -5   6 101.521 13.4187   4
  -7   5  -7 31.6273 20.6459   3
   7  -5   7 30.7671 8.50740   1
   7  -5   7 27.4434 11.8234   5
   7  -5   7 22.5404 11.2884   4
  -7   5  -8 13.2233 21.1989   3
   7  -5   8 16.7585 12.1409   5
   7  -5   8 14.0844 10.9767   4
   7  -4 -14 237.165 22.6304   8
  -7   4  14 291.129 30.9117   8
   7  -4 -14 217.494 24.2775   1
   7  -4 -13-2.08027 20.4462   1
   7  -4 -13 23.5783 14.8913   8
  -7   4  13 20.3569 12.4942   6
  -7   4  13 12.6595 24.3521   8
   7  -4 -12 58.0578 19.9561   1
   7  -4 -12 81.3326 15.8253   8
  -7   4  12 68.6279 13.5272   6
  -7   4  12 74.9441 23.0647   8
   7  -4 -11 115.926 16.0387   8
   7  -4 -11 95.8446 20.0887   1
   7  -4 -11 116.762 20.5356   2
  -7   4  11 98.3793 23.4253   8
   7  -4 -10 12.8178 18.9486   1
   7  -4 -10 19.5362 12.5927   8
   7  -4 -10 2.62917 18.9578   2
  -7   4  10-3.25732 20.9706   8
   7  -4  -9 10.4752 18.6610   1
   7  -4  -9 6.20157 11.9615   8
  -7   4   9 23.2761 20.2561   6
  -7   4   9-2.21724 11.2008   5
   7  -4  -9 5.62553 18.7991   2
  -7   4   9-24.7081 20.1851   8
   7  -4  -8 488.060 23.6449   8
  -7   4   8 502.554 28.2523   6
  -7   4   8 443.007 24.2605   5
   7  -4  -8 547.523 28.3953   1
  -7   4   8 453.941 26.7129   8
   7  -4  -7 2047.19 60.2988   8
  -7   4   7 2095.29 62.7044   6
  -7   4   7 1885.16 62.3769   5
  -7   4   7 2109.26 61.6452   8
  -7   4   6 773.902 31.3002   6
  -7   4   6 694.943 28.7228   2
  -7   4   6 652.045 28.6648   5
   7  -4  -6 662.134 27.6307   2
   7  -4  -6 818.448 33.0205   1
  -7   4   6 686.705 28.6050   8
  -7   4   5 1906.38 54.9482   6
  -7   4   5 1850.69 53.5460   2
  -7   4   5 1741.69 55.1919   5
   7  -4  -5 1661.21 53.3646   2
   7  -4  -5 1974.04 57.4069   1
  -7   4   5 1775.80 52.6225   8
  -7   4   4 3.81467 11.5776   8
  -7   4   4 13.3214 13.4209   2
  -7   4   4 2.29438 8.20113   5
   7  -4  -4 9.31024 7.74175   2
  -7   4   4-9.60559 16.1385   4
  -7   4   3 292.515 17.9244   2
  -7   4   3 276.037 15.7448   5
  -7   4   3 249.594 19.1872   4
  -7   4   3 266.047 16.1222   8
  -7   4   2 87.3863 12.1214   8
  -7   4   2 120.789 14.4717   2
  -7   4   2 85.1889 10.0905   5
   7  -4  -2 111.624 11.7106   1
  -7   4   2 94.6398 13.8926   4
  -7   4   1 267.065 16.7376   2
  -7   4   1 202.690 13.5511   5
  -7   4   1 225.197 15.7387   4
   7  -4  -1 213.113 14.9333   1
  -7   4   1 201.590 13.9062   8
  -7   4   0 1221.98 36.1546   8
   7  -4   0 1279.97 43.5645   5
  -7   4   0 1175.98 39.0154   4
   7  -4   0 1247.79 40.7539   1
  -7   4  -1 87.5742 13.0410   4
   7  -4   1 95.2337 11.3552   1
  -7   4  -1 86.1166 10.8155   8
  -7   4  -1 102.577 8.66849   8
  -7   4  -2-2.52823 11.9290   4
  -7   4  -2-4.65597 11.6704   7
   7  -4   2 0.58241 8.81862   1
  -7   4  -2 3.92877 8.15456   8
   7  -4   2-16.6410 10.6833   4
  -7   4  -3 144.918 15.2740   7
   7  -4   3 127.012 11.9803   1
   7  -4   3 99.6107 12.8634   4
  -7   4  -3 126.058 11.4037   8
  -7   4  -4 38.2867 14.1629   7
   7  -4   4 42.9881 10.0342   1
   7  -4   4 28.2440 10.6718   4
  -7   4  -4 32.2572 11.2643   8
   7  -4   5 18.8553 9.28302   1
  -7   4  -5 23.6815 17.1663   3
   7  -4   5 14.3653 10.5317   4
  -7   4  -5-2.46028 13.3944   8
  -7   4  -6 3.66280 17.0697   3
   7  -4   6 6.02044 8.16153   1
   7  -4   6 4.15251 10.8239   5
   7  -4   6 15.9168 10.3802   4
  -7   4  -6 22.4556 14.6121   8
  -7   4  -7 124.798 17.9482   8
  -7   4  -7 171.545 23.6564   3
  -7   4  -7 97.6091 9.14668   6
   7  -4   7 131.482 14.5523   5
   7  -4   7 167.758 12.2060   1
   7  -4   7 141.089 14.6162   4
   7  -4   8 3.67140 7.83308   1
  -7   4  -8-9.33308 21.6380   3
   7  -4   8 9.28652 10.6068   5
   7  -4   8 0.42012 10.3593   4
   7  -3 -14 240.213 21.8188   8
  -7   3  14 244.120 19.1993   6
   7  -3 -14 223.794 22.7089   1
  -7   3  14 231.180 30.2879   8
   7  -3 -13 17.4595 14.2306   8
   7  -3 -13 7.36665 18.6621   1
  -7   3  13 21.9764 12.3406   6
  -7   3  13-12.4036 25.9321   8
   7  -3 -12 50.2393 14.0238   8
   7  -3 -12 27.8457 18.0301   1
  -7   3  12 45.3697 11.8304   6
  -7   3  12 25.8087 23.8841   8
   7  -3 -11 90.0186 14.7244   8
   7  -3 -11 50.0877 18.3223   1
  -7   3  11 71.0643 13.0515   6
  -7   3  11 71.1266 23.8047   8
   7  -3 -10 629.803 28.9115   8
  -7   3  10 574.875 25.1289   2
   7  -3 -10 621.409 28.8660   1
  -7   3  10 619.547 33.8932   8
   7  -3  -9 1419.33 45.8844   8
  -7   3   9 1230.90 43.2209   2
  -7   3   9 1246.38 45.3985   5
   7  -3  -9 1460.05 45.9631   1
  -7   3   9 1491.88 48.9087   8
  -7   3   8 478.461 28.0045   6
  -7   3   8 384.351 21.8156   5
   7  -3  -8 460.441 25.1370   1
  -7   3   8 449.116 26.3979   8
  -7   3   7 750.158 32.3154   6
  -7   3   7 665.805 29.4903   2
  -7   3   7 663.857 28.5285   5
   7  -3  -7 799.676 31.4112   1
  -7   3   7 763.238 31.7903   8
  -7   3   6 26.8710 15.8414   8
   7  -3  -6 36.0385 16.2560   1
  -7   3   6 34.4400 15.6421   2
  -7   3   6 22.3783 9.64085   5
  -7   3   5 978.801 35.3279   2
  -7   3   5 972.402 34.4502   5
   7  -3  -5 1015.16 36.4075   1
  -7   3   5 932.066 33.6417   8
  -7   3   4 22.0075 13.2112   8
  -7   3   4 8.53581 14.0670   2
  -7   3   4 17.5491 7.90613   5
  -7   3   4-5.96892 15.8911   4
  -7   3   3 13.5925 12.3591   8
  -7   3   3 24.2769 13.5031   2
  -7   3   3 24.7964 7.44986   5
  -7   3   3 20.3971 13.3943   4
  -7   3   2 11.8450 13.2495   8
   7  -3  -2 7.13697 7.77182   1
   7  -3  -2-14.0572 15.2619   5
  -7   3   2-1.29182 12.6271   2
  -7   3   2 1.79138 7.14099   5
  -7   3   2 11.5503 11.9389   4
   7  -3  -1 227.476 14.5113   1
  -7   3   1 261.791 15.8916   8
  -7   3   1 239.457 16.8028   2
   7  -3  -1 221.362 19.0036   5
  -7   3   1 214.427 13.2159   5
  -7   3   1 218.179 16.1286   4
   7  -3   0 1325.61 42.1697   1
  -7   3   0 1507.92 41.8883   2
   7  -3   0 1460.53 45.0804   5
  -7   3   0 1230.62 40.6673   5
  -7   3   0 1329.08 41.5326   4
   7  -3   1 204.810 13.9908   1
  -7   3  -1 228.680 16.3917   2
   7  -3   1 230.308 19.6553   5
  -7   3  -1 176.343 12.3986   5
  -7   3  -1 195.401 15.2465   4
  -7   3  -2 22.0225 13.0005   4
  -7   3  -2 21.7844 11.5707   7
  -7   3  -2 23.6390 12.7757   2
   7  -3   2 19.8847 15.8476   5
   7  -3   2 36.8284 9.75011   1
  -7   3  -2 32.3395 10.2854   8
   7  -3   2 13.9877 8.98890   4
  -7   3  -3 0.14007 12.5570   7
  -7   3  -3 20.9513 10.9475   2
   7  -3   3 23.3400 16.6307   5
  -7   3  -3 2.10849 10.4906   8
   7  -3   3 1.22089 8.80700   4
   7  -3   3 10.9103 8.38151   1
  -7   3  -4 285.102 19.3981   7
   7  -3   4 272.857 15.6041   1
   7  -3   4 275.598 17.0873   4
  -7   3  -4 241.709 16.0550   8
  -7   3  -5 544.595 27.0797   3
  -7   3  -5 518.810 25.7006   7
   7  -3   5 512.269 20.8496   1
   7  -3   5 468.803 22.6063   4
  -7   3  -5 449.884 22.2284   8
  -7   3  -6 32.7833 18.1828   3
   7  -3   6 16.3192 9.02800   1
   7  -3   6 13.8654 9.77796   4
  -7   3  -6 27.8625 16.2008   8
   7  -3   7 94.8026 12.7179   4
   7  -3   7 96.2586 11.0175   1
  -7   3  -7 60.2264 18.8036   8
  -7   3  -8 0.15820 19.3527   8
  -7   3  -8-18.2303 22.9765   3
   7  -3   8 2.75389 8.60782   1
   7  -3   8 7.12734 9.93598   4
  -7   2  15 106.530 15.7005   6
   7  -2 -14 15.1946 13.6397   8
   7  -2 -14 19.2898 19.0220   1
  -7   2  14 11.0875 12.1996   6
  -7   2  14-5.90382 27.0255   8
   7  -2 -13 33.0544 14.1352   8
   7  -2 -13 26.4388 18.1527   1
  -7   2  13 47.9473 12.8637   6
  -7   2  13-9.45360 27.6203   8
   7  -2 -12 415.736 24.2239   8
  -7   2  12 393.025 22.5406   6
  -7   2  12 418.225 21.7860   2
  -7   2  12 440.709 32.8149   8
   7  -2 -12 421.161 24.9012   1
   7  -2 -11 194.424 17.5574   8
  -7   2  11 200.330 16.7044   6
  -7   2  11 225.270 16.4240   2
  -7   2  11 256.035 27.4473   8
   7  -2 -11 220.964 20.3221   1
  -7   2  10 295.060 26.7996   8
   7  -2 -10 268.291 18.5027   8
  -7   2  10 250.895 17.3707   2
   7  -2 -10 253.346 20.6800   1
  -7   2   9 337.563 19.9693   2
  -7   2   9 331.468 19.8389   5
   7  -2  -9 370.384 22.2131   1
  -7   2   9 377.075 27.1613   8
  -7   2   8 1159.56 41.0896   5
   7  -2  -8 1230.35 41.2807   1
  -7   2   8 1324.09 45.1002   8
  -7   2   7-6.26636 16.9933   8
   7  -2  -7 1.68418 14.8533   1
  -7   2   7 0.17307 8.98500   5
  -7   2   6 101.243 17.3264   8
   7  -2  -6 94.7625 16.4300   1
  -7   2   6 98.2330 11.4056   5
  -7   2   6 80.3181 17.4839   2
  -7   2   5 721.368 29.6445   2
  -7   2   5 713.345 26.9932   5
   7  -2  -5 696.647 29.0166   1
  -7   2   5 692.496 29.3731   8
  -7   2   4 278.020 20.2252   8
  -7   2   4 282.688 19.2166   2
  -7   2   4 291.346 15.4897   5
  -7   2   3 30.1138 13.5072   8
   7  -2  -3-3.03806 14.6183   5
  -7   2   3 17.4722 13.7776   2
  -7   2   3 17.4482 7.71365   5
   7  -2  -2 1538.71 48.7293   1
  -7   2   2 1826.20 49.3926   8
   7  -2  -2 1769.57 51.3560   5
  -7   2   2 1700.38 49.8045   2
  -7   2   2 1622.99 48.6326   5
   7  -2  -1 724.411 27.4049   1
   7  -2  -1 827.013 30.4038   5
  -7   2   1 843.393 29.1309   2
  -7   2   1 717.307 26.6019   5
  -7   2   1 836.154 30.5502   1
   7  -2   0 175.699 12.6740   1
  -7   2   0 182.800 15.6496   2
   7  -2   0 195.752 17.6360   5
  -7   2   0 178.161 11.7802   5
  -7   2   0 202.778 18.0082   1
   7  -2   1 307.808 16.6263   1
  -7   2  -1 330.648 17.8831   2
   7  -2   1 376.719 20.9833   5
  -7   2  -1 340.500 21.0394   1
  -7   2  -2 864.667 31.8681   7
   7  -2   2 942.184 31.7056   1
  -7   2  -2 922.600 30.6057   2
   7  -2   2 981.508 34.0907   5
  -7   2  -2 921.825 29.5538   8
  -7   2  -2 986.638 34.2598   1
  -7   2  -3 49.3138 15.9883   1
   7  -2   3 50.6542 9.46210   1
  -7   2  -3 41.9579 13.3963   7
  -7   2  -3 51.2937 12.8032   2
   7  -2   3 71.3912 15.9440   5
  -7   2  -3 56.1478 12.2232   8
  -7   2  -4 167.476 16.9582   7
  -7   2  -4 182.369 14.3274   2
   7  -2   4 166.502 20.1806   5
   7  -2   4 168.309 12.9452   1
  -7   2  -4 159.342 15.7047   8
  -7   2  -4 172.071 18.9189   1
  -7   2  -5 36.4409 15.4742   8
  -7   2  -5 32.8447 17.4241   1
  -7   2  -5 28.8643 15.2591   7
  -7   2  -5 30.1603 10.0882   2
   7  -2   5 35.8380 9.93699   1
   7  -2   5 24.2387 19.1214   5
  -7   2  -6 543.316 28.4869   3
   7  -2   6 514.134 29.5517   5
  -7   2  -6 531.648 27.7935   1
  -7   2  -6 422.254 25.3278   8
   7  -2   6 516.026 21.8457   1
  -7   2  -7-1.71493 21.9564   3
   7  -2   7 2.20728 9.23030   1
  -7   2  -7 1.57237 18.7405   8
  -7   2  -7 5.85952 18.6396   1
  -7   2  -8 4.88001 22.6543   3
  -7   2  -8 4.09400 14.4765   6
   7  -2   8 30.1938 9.22026   1
  -7   2  -8 17.2364 19.1575   1
   7  -2   8 11.8698 10.4904   4
  -7   2  -8-10.5193 20.7030   8
  -7   2  -9 23.8837 22.5682   8
  -7   1  15 99.3828 15.0982   6
   7  -1 -14 342.882 23.9278   1
   7  -1 -14 331.022 22.8362   8
  -7   1  14 343.876 21.7451   6
  -7   1  14 337.179 34.9095   8
   7  -1 -13 24.1892 12.3380   8
  -7   1  13 13.3521 11.6638   6
   7  -1 -13 13.9744 17.7837   1
  -7   1  13 7.64253 10.4040   2
  -7   1  13-28.1908 27.4652   8
  -7   1  12 38.4019 24.0453   8
  -7   1  12 22.9860 11.6760   6
   7  -1 -12 25.2253 17.3470   1
  -7   1  12 44.9321 11.5684   2
  -7   1  11 37.0289 23.1377   8
  -7   1  11 19.2766 11.3466   6
   7  -1 -11 24.5085 16.4881   1
  -7   1  11 13.6361 11.3231   2
  -7   1  10 1706.58 56.5025   6
  -7   1  10 1833.61 57.7163   2
   7  -1 -10 1879.49 55.0959   1
  -7   1   9 36.0920 20.1220   8
   7  -1  -9 41.4343 15.2770   1
  -7   1   9 36.2029 10.3260   5
  -7   1   9 37.4333 11.6583   2
  -7   1   8 21.9293 18.2535   8
   7  -1  -8 12.7460 14.9339   1
  -7   1   8 18.5104 9.18117   5
  -7   1   7 69.4109 18.6296   8
  -7   1   7 88.2322 11.1333   5
   7  -1  -7 93.0685 16.1419   1
  -7   1   6 424.469 25.2336   8
   7  -1  -6 411.431 22.1301   1
  -7   1   6 454.149 25.9148   2
  -7   1   6 481.856 20.7915   5
  -7   1   5 0.16229 15.9519   8
   7  -1  -5 3.51695 13.7548   1
  -7   1   5 5.16491 7.06539   5
  -7   1   5-1.31158 15.9641   2
  -7   1   4 49.6379 15.1652   8
   7  -1  -4 47.2523 14.5765   1
  -7   1   4 37.0157 8.16462   5
  -7   1   4 33.9540 16.2942   2
  -7   1   4 33.0938 9.05737   4
  -7   1   3 1919.11 53.1641   8
   7  -1  -3 1806.70 53.2245   5
  -7   1   3 1881.64 54.6366   2
  -7   1   3 1794.51 51.1381   5
   7  -1  -2 341.550 19.1001   5
  -7   1   2 348.199 20.2515   2
  -7   1   2 336.852 15.7627   5
  -7   1   2 298.255 14.9373   4
  -7   1   2 357.926 21.6999   1
   7  -1  -1 463.148 20.3248   1
   7  -1  -1 510.586 22.1549   5
  -7   1   1 471.239 22.7294   2
  -7   1   1 484.869 19.4416   5
  -7   1   1 518.646 24.4918   1
   7  -1   0 648.709 24.8640   1
   7  -1   0 682.287 26.5222   5
  -7   1   0 635.175 25.5200   2
  -7   1   0 717.652 28.2427   1
   7  -1   1 6.58159 8.17965   1
  -7   1  -1-0.52150 14.3415   1
   7  -1   1 18.9264 13.3044   5
  -7   1  -1 4.87419 12.0823   2
   7  -1   1-16.0053 16.1257   4
  -7   1  -2 17.3583 15.1414   1
  -7   1  -2 27.1269 11.8471   7
   7  -1   2 14.0327 9.02025   1
   7  -1   2 29.6500 13.3907   5
  -7   1  -2 19.8333 12.2612   2
  -7   1  -2 11.5806 11.9920   8
   7  -1   2 5.22509 14.6489   4
  -7   1  -3 54.3535 15.5413   1
  -7   1  -3 38.3605 13.3582   7
   7  -1   3 59.3493 10.0638   1
   7  -1   3 60.7842 15.9278   5
  -7   1  -3 45.5260 13.2577   2
  -7   1  -3 69.9334 14.1864   8
   7  -1   3 63.6174 17.1849   4
  -7   1  -4 438.625 24.4186   7
  -7   1  -4 497.480 21.4892   2
   7  -1   4 524.744 26.3069   5
   7  -1   4 527.732 21.8300   1
  -7   1  -4 518.072 24.0282   8
  -7   1  -4 496.845 24.9568   1
  -7   1  -5 56.7128 17.6906   1
  -7   1  -5 31.2247 15.4913   7
   7  -1   5 66.4848 18.6847   5
  -7   1  -5 44.0505 13.5535   2
  -7   1  -5 66.8356 16.9889   8
   7  -1   5 53.4350 10.8589   1
   7  -1   6 375.948 19.3786   1
   7  -1   6 396.203 26.3256   5
  -7   1  -6 377.676 24.9059   8
  -7   1  -6 384.536 24.2059   1
   7  -1   7 242.539 16.4882   1
   7  -1   7 271.428 25.0162   5
  -7   1  -7 204.918 23.3631   8
  -7   1  -7 261.500 22.9662   1
  -7   1  -8 86.6736 21.2404   1
   7  -1   8 94.6040 12.4075   1
   7  -1   8 81.5749 23.1068   5
  -7   1  -8 52.1210 22.8909   8
  -7   1  -9 13.6056 24.5063   8
  -7   0  15 204.732 18.7573   6
  -7   0  15 230.549 18.1170   2
  -7   0  14 129.339 16.0321   6
  -7   0  14 124.918 15.7641   2
   7   0 -14 126.795 19.6316   1
   7   0 -13 374.867 23.3548   1
  -7   0  13 326.244 21.0328   6
  -7   0  13 379.816 21.9040   2
  -7   0  13 387.885 33.1630   8
  -7   0  12 16.1970 24.0102   8
  -7   0  12-0.64156 10.6397   6
  -7   0  12-3.22628 11.4498   2
   7   0 -12 2.57784 16.3415   1
  -7   0  11 156.611 26.1934   8
   7   0 -11 144.480 18.0655   1
  -7   0  11 135.860 15.0546   6
  -7   0  11 148.937 16.3820   2
   7   0 -10 238.434 19.3295   1
  -7   0  10 199.397 15.0508   5
  -7   0  10 236.217 18.9220   2
  -7   0  10 241.292 26.3709   8
   7   0  -9 185.833 17.4509   1
  -7   0   9 203.119 14.5515   5
  -7   0   9 219.860 17.6849   2
  -7   0   9 223.038 24.4152   8
  -7   0   8 70.2128 19.5740   8
  -7   0   8 78.9087 10.7956   5
   7   0  -8 46.8948 15.0491   1
  -7   0   7 111.024 19.4200   8
  -7   0   7 99.9054 11.1645   5
   7   0  -7 81.9196 14.6688   1
  -7   0   6 1121.26 40.3006   8
   7   0  -6 980.397 34.6347   1
  -7   0   6 1061.13 33.2355   5
  -7   0   6 1017.91 40.2011   2
  -7   0   6 983.331 34.3936   1
  -7   0   5 1948.74 58.2270   8
   7   0  -5 1819.95 55.1635   1
  -7   0   5 1943.43 53.9635   5
  -7   0   5 2056.81 60.3317   2
  -7   0   5 1957.61 58.9664   4
  -7   0   5 1936.81 57.0263   1
  -7   0   4 219.119 18.0551   8
   7   0  -4 209.958 17.4498   1
  -7   0   4 200.948 11.9712   5
  -7   0   4 202.216 19.4922   2
  -7   0   4 174.558 13.4952   4
  -7   0   4 187.907 13.6781   1
   7   0  -3 1611.84 47.3000   5
  -7   0   3 1529.69 48.4250   2
  -7   0   3 1659.12 45.8849   5
  -7   0   3 1566.81 46.7545   4
   7   0  -2 118.170 14.0121   5
  -7   0   2 133.298 10.3832   5
  -7   0   2 126.455 9.86762   4
   7   0  -1 1468.31 44.5939   1
   7   0  -1 1538.99 44.5949   5
  -7   0   1 1395.34 42.4228   4
   7   0   0 154.402 12.3359   1
   7   0   0 175.714 14.9237   5
   7   0   0 155.841 18.5423   4
  -7   0   0 148.678 10.2281   4
  -7   0   0 172.163 17.3291   1
   7   0   1 473.429 21.4740   5
   7   0   1 477.445 20.4788   1
   7   0   1 509.775 25.0489   4
  -7   0  -1 431.293 18.3296   4
  -7   0  -1 462.261 23.3005   1
  -7   0  -2 350.189 19.4367   7
   7   0   2 295.544 19.0461   5
   7   0   2 306.503 16.9568   1
   7   0   2 340.653 21.5791   4
  -7   0  -2 262.377 18.0155   8
  -7   0  -2 338.524 21.2446   1
  -7   0  -3 97.7251 15.5537   7
  -7   0  -3 110.190 16.9623   1
   7   0   3 92.3171 16.0908   5
   7   0   3 99.3557 11.7983   1
   7   0   3 144.023 17.9206   4
  -7   0  -3 102.737 15.2442   8
  -7   0  -4 115.577 11.8604   3
  -7   0  -4 104.278 16.9310   7
  -7   0  -4 105.738 18.1596   1
   7   0   4 130.262 18.1550   5
   7   0   4 161.748 18.7388   4
  -7   0  -4 142.709 17.3199   8
   7   0   4 108.770 12.5405   1
  -7   0  -5 3.26933 9.16303   3
  -7   0  -5-24.6495 16.7334   7
   7   0   5 4.27832 10.5811   1
  -7   0  -5 2.98300 17.7206   1
   7   0   5 14.4058 17.2853   5
   7   0   5 42.1716 16.7744   4
  -7   0  -5 5.65774 17.1208   8
  -7   0  -6 23.7004 11.4879   3
  -7   0  -6-4.05447 18.6371   1
   7   0   6-0.33527 10.8664   1
   7   0   6 1.76403 18.6444   5
  -7   0  -6 17.8422 19.0897   8
   7   0   6 60.0307 17.7233   4
   7   0   7 23.7114 10.1229   1
  -7   0  -7 4.18844 11.1679   3
  -7   0  -7 19.2268 20.2277   1
   7   0   7 6.74824 19.7410   5
  -7   0  -7-6.00965 12.9616   2
  -7   0  -7 10.1449 21.5121   8
   7   0   7 43.5262 18.9543   4
  -7   0  -8 36.1147 21.6093   1
  -7   0  -8 18.3394 12.6279   3
   7   0   8 34.1324 11.7637   1
   7   0   8 22.1066 21.4367   5
  -7   0  -8 19.2661 23.5818   8
   7   0   8 10.3664 20.4044   4
  -7   0  -9 155.206 29.8179   8
  -7   0 -10 6.61497 28.3294   8
  -7  -1  16 22.6917 12.8711   6
  -7  -1  16 21.0733 12.4717   2
  -7  -1  15 378.355 23.2407   6
  -7  -1  15 413.229 23.6778   2
  -7  -1  14 21.5521 12.7827   6
  -7  -1  14 8.17735 13.3462   2
   7   1 -14 3.00925 16.9488   1
  -7  -1  13 52.2543 13.0389   6
  -7  -1  13 41.1541 13.6506   2
   7   1 -13 42.8590 17.1219   1
  -7  -1  12 2.56381 10.8731   6
  -7  -1  12 16.1238 12.3017   2
   7   1 -12 20.7685 16.3575   1
   7   1 -11 326.581 20.9263   1
  -7  -1  11 274.978 16.3007   5
  -7  -1  11 339.120 22.2883   2
   7   1 -10 373.835 20.8665   1
  -7  -1  10 351.829 18.1092   5
  -7  -1  10 400.044 24.6041   2
  -7  -1  10 383.376 30.2393   8
  -7  -1   9 32.7731 21.9192   8
  -7  -1   9 6.41076 9.46748   5
  -7  -1   9 18.5724 12.5916   2
   7   1  -9 7.51870 14.4139   1
  -7  -1   8 2132.78 66.6781   8
   7   1  -8 2004.06 59.5062   1
  -7  -1   8 2260.20 59.8553   5
  -7  -1   8 2099.82 65.7135   2
  -7  -1   7 12.5966 9.47892   1
  -7  -1   7-3.85518 19.3804   8
  -7  -1   7 12.0604 8.26136   5
   7   1  -7 12.3464 13.4956   1
  -7  -1   6 11.9005 9.17677   1
  -7  -1   6 15.3221 17.1093   8
  -7  -1   6 18.0768 7.64481   5
   7   1  -6 10.3343 13.8058   1
  -7  -1   5 5.24750 15.8013   8
  -7  -1   5 2.20043 8.38386   1
  -7  -1   5-4.64575 7.21029   5
  -7  -1   5-11.3298 9.80620   4
   7   1  -5 4.13412 13.4872   1
   7   1  -4 923.410 32.4868   1
  -7  -1   4 917.167 28.5774   5
  -7  -1   4 926.215 31.4467   4
  -7  -1   4 862.279 31.4434   1
   7   1  -3 241.329 18.3536   1
   7   1  -3 206.635 14.8289   5
  -7  -1   3 239.205 13.0192   4
  -7  -1   2 65.1750 8.04041   4
   7   1  -2 74.6143 12.4656   5
   7   1  -1 1012.38 32.2149   5
  -7  -1   1 938.123 30.4930   4
  -7  -1   0 84.4610 16.4705   1
   7   1   0 78.7922 10.1434   1
   7   1   0 70.2364 11.8308   5
  -7  -1   0 63.5316 7.78738   4
   7   1   0 51.8759 16.1069   4
   7   1   1 302.024 17.7516   5
   7   1   1 311.031 16.7734   1
   7   1   1 289.206 20.9779   4
  -7  -1  -1 302.086 14.7734   4
  -7  -1  -1 316.209 21.0746   1
  -7  -1  -2 126.540 15.5177   7
  -7  -1  -2 125.910 17.9338   1
   7   1   2 102.099 14.9302   5
   7   1   2 115.937 12.2449   1
  -7  -1  -2 85.5076 14.9732   8
   7   1   2 105.211 16.6845   4
  -7  -1  -3 113.971 16.6400   7
  -7  -1  -3 95.1985 18.1869   1
   7   1   3 79.9485 16.0318   5
   7   1   3 122.111 17.3565   4
  -7  -1  -3 89.3487 15.5268   8
   7   1   3 103.435 12.7517   1
  -7  -1  -4 59.0510 10.2925   3
  -7  -1  -4 60.3100 17.3405   7
   7   1   4 52.5219 11.8322   1
  -7  -1  -4 63.0424 18.8353   1
   7   1   4 43.9673 16.9506   5
  -7  -1  -4 45.5442 15.8556   8
   7   1   4 85.5016 16.8579   4
  -7  -1  -5 117.709 13.2629   3
   7   1   5 104.030 13.4884   1
  -7  -1  -5 77.9538 19.2461   7
  -7  -1  -5 114.702 20.7929   1
   7   1   5 92.3388 18.5676   5
   7   1   5 153.038 18.6399   4
  -7  -1  -5 120.416 19.2554   8
  -7  -1  -6 388.143 21.4615   3
   7   1   6 335.802 19.7543   1
   7   1   6 344.764 25.3340   5
   7   1   6 438.018 25.2723   4
  -7  -1  -6 390.069 28.2832   8
  -7  -1  -6 365.260 26.5038   1
   7   1   7 19.2629 11.3243   1
  -7  -1  -7 23.2784 12.3974   3
  -7  -1  -7 18.7033 21.3465   1
   7   1   7 27.2978 20.5830   5
  -7  -1  -7 22.8713 23.3656   8
   7   1   7 10.0420 19.4186   4
  -7  -1  -8 7.45942 12.9398   3
  -7  -1  -8-4.72737 24.2805   1
   7   1   8-14.9992 22.1305   5
   7   1   8-12.5510 12.5060   1
  -7  -1  -8 20.2103 26.0026   8
   7   1   8-3.21329 20.6808   4
  -7  -1  -9 16.5234 28.5448   8
  -7  -2  16 222.179 19.7170   6
  -7  -2  16 241.151 19.4826   2
  -7  -2  15 55.3030 13.7549   6
  -7  -2  15 27.0627 13.9058   2
  -7  -2  14 47.7090 15.9277   8
   7   2 -14 53.2868 16.2004   1
  -7  -2  14 16.9906 13.9590   6
  -7  -2  14 27.7909 14.4534   2
  -7  -2  13 70.0051 16.7785   8
   7   2 -13 75.6449 16.8911   1
  -7  -2  13 49.8865 12.9552   6
  -7  -2  13 67.8642 14.4362   2
   7   2 -12 29.6912 16.0519   1
  -7  -2  12 21.6563 9.00132   5
  -7  -2  12 23.5833 13.2737   2
   7   2 -11 219.251 18.5922   1
  -7  -2  11 159.409 12.7436   5
  -7  -2  11 217.531 19.6990   2
   7   2 -10 710.585 28.5917   1
  -7  -2  10 719.669 25.8417   5
  -7  -2  10 818.228 35.2226   2
   7   2  -9 77.8848 15.5023   1
  -7  -2   9 80.2003 10.1445   5
  -7  -2   9 76.5607 15.7081   2
  -7  -2   8 364.274 28.8375   8
   7   2  -8 332.196 20.2688   1
  -7  -2   8 366.646 15.7905   5
  -7  -2   8 330.532 21.7748   2
  -7  -2   8 393.910 19.9813   1
  -7  -2   7 677.035 32.9693   8
   7   2  -7 594.897 26.2091   1
  -7  -2   7 684.221 22.2132   5
  -7  -2   7 664.109 26.5824   1
  -7  -2   6 1141.92 42.3232   8
   7   2  -6 1064.65 36.5490   1
  -7  -2   6 1118.33 32.3182   5
  -7  -2   6 1186.76 40.2067   4
  -7  -2   6 1097.80 37.4182   1
   7   2  -5 278.720 18.9434   1
  -7  -2   5 279.491 12.7253   5
  -7  -2   5 303.092 17.4292   4
  -7  -2   5 301.005 16.9907   1
   7   2  -4 173.837 15.3746   5
   7   2  -4 250.645 18.0423   1
  -7  -2   4 228.839 13.5003   4
  -7  -2   4 223.829 14.7617   1
   7   2  -3 870.630 30.3241   1
  -7  -2   3 781.518 25.7478   4
  -7  -2   3 772.978 28.5200   1
  -7  -2   2 232.983 12.2974   4
   7   2  -2 252.474 14.8960   5
   7   2  -1 136.252 12.4554   5
  -7  -2   1 125.508 9.53624   4
  -7  -2   0 49.4336 7.81909   4
  -7  -2   0 38.0928 16.3418   1
   7   2   0 43.9778 12.2911   5
   7   2   0 51.9140 9.92690   1
   7   2   0 8.47403 15.4032   4
  -7  -2  -1 325.262 22.1864   1
   7   2   1 288.503 17.8244   5
   7   2   1 302.301 20.9285   4
   7   2   1 311.048 17.9812   1
   7   2   2 44.0868 11.0171   1
  -7  -2  -2 56.5794 15.2784   7
  -7  -2  -2 53.4979 18.1411   1
   7   2   2 48.3091 13.9652   5
  -7  -2  -2 45.4350 14.6970   8
   7   2   2 42.5741 15.4002   4
  -7  -2  -3 384.600 24.3117   1
   7   2   3 376.264 20.2812   1
  -7  -2  -3 376.033 18.3061   3
  -7  -2  -3 398.425 24.5403   7
   7   2   3 321.582 21.0532   5
   7   2   3 398.816 22.6679   4
  -7  -2  -4 58.1910 11.0792   3
  -7  -2  -4 51.2267 18.4519   7
  -7  -2  -4 63.1081 19.5415   1
   7   2   4 44.8873 12.0895   1
   7   2   4 44.7676 16.2384   5
  -7  -2  -4 27.9343 16.3240   8
   7   2   4 83.6334 17.2814   4
  -7  -2  -5 99.2517 13.5622   3
  -7  -2  -5 73.1370 20.6951   7
   7   2   5 105.113 13.5343   1
  -7  -2  -5 105.606 21.8034   1
   7   2   5 75.5817 18.9787   5
   7   2   5 145.976 18.5139   4
  -7  -2  -5 85.0933 19.8720   8
   7   2   6 25.4085 12.2051   1
  -7  -2  -6 6.68186 11.9264   3
  -7  -2  -6-17.2729 21.3642   1
   7   2   6-6.94378 18.9144   5
  -7  -2  -6-18.7775 21.8631   8
   7   2   6 45.5039 17.9660   4
  -7  -2  -7 8.18180 12.3087   3
  -7  -2  -7-5.52665 22.5476   1
   7   2   7 4.35586 12.1366   1
   7   2   7-0.97051 20.1006   5
  -7  -2  -7-18.0440 25.1213   8
   7   2   7 9.35323 19.8010   4
   7   2   8-1.87191 13.9260   1
  -7  -2  -8-3.60744 24.9904   1
   7   2   8-11.4262 21.7724   5
  -7  -2  -8 2.04568 27.6808   8
   7   2   8-8.09720 21.6267   4
  -7  -3  16 229.692 20.1512   6
  -7  -3  16 252.064 20.5773   2
  -7  -3  15 106.510 16.2982   6
  -7  -3  15 105.303 16.5654   2
  -7  -3  14 94.1202 16.1380   6
  -7  -3  14 104.729 16.8917   2
  -7  -3  14 133.610 19.0233   8
  -7  -3  13 152.192 12.0140   5
  -7  -3  13 213.542 19.7835   2
   7   3 -13 216.608 18.0993   1
  -7  -3  13 165.906 20.2465   8
  -7  -3  12-1.93796 12.5620   8
   7   3 -12 17.0239 15.1880   1
  -7  -3  12-3.54629 7.92750   5
  -7  -3  12-0.55023 13.1808   2
  -7  -3  11 312.461 15.2558   5
  -7  -3  11 375.702 24.2373   2
   7   3 -11 338.994 20.6225   1
  -7  -3  11 317.476 22.7784   8
   7   3 -10 24.4215 14.6925   1
  -7  -3  10 15.5531 7.41601   5
  -7  -3  10 7.25655 13.9732   2
  -7  -3   9 2365.88 58.3222   5
   7   3  -9 2194.04 62.5226   1
  -7  -3   9 2233.82 64.7516   1
  -7  -3   8 49.2218 11.3314   1
   7   3  -8 46.7672 14.4952   1
  -7  -3   8 39.3739 6.31601   5
  -7  -3   7 14.0496 9.82250   1
   7   3  -7 23.7402 13.9724   1
  -7  -3   6 19.7128 19.1538   8
  -7  -3   6 30.0773 9.97748   1
   7   3  -6 29.2291 14.0699   1
  -7  -3   6 30.3635 10.5957   4
  -7  -3   5 2.19012 8.80559   1
   7   3  -5 10.3923 13.7633   1
  -7  -3   5 0.56991 7.74091   4
  -7  -3   4 49.0956 10.3053   1
   7   3  -4 37.2393 14.9948   1
  -7  -3   4 64.1208 8.07963   4
  -7  -3   3 251.647 15.5768   1
   7   3  -3 265.601 19.7056   1
  -7  -3   3 252.193 12.6850   4
   7   3  -2 299.171 15.6400   5
  -7  -3   2 344.970 14.5267   4
   7   3  -1 75.2592 11.1579   5
  -7  -3   1 69.6817 8.20633   4
  -7  -3   0 223.856 20.7125   1
   7   3   0 183.604 14.4202   5
   7   3   0 156.449 18.8232   4
   7   3   0 212.388 15.3501   1
   7   3   1 407.917 20.9819   1
  -7  -3  -1 444.664 25.1619   1
   7   3   1 357.194 19.1114   5
   7   3   1 337.436 21.9852   4
  -7  -3  -2 18.4156 9.19298   3
   7   3   2 5.25114 10.8248   1
  -7  -3  -2 10.5988 18.0062   1
   7   3   2 13.3427 13.3490   5
  -7  -3  -2 46.4389 15.1802   8
   7   3   2-3.37303 15.3749   4
  -7  -3  -3 135.760 12.7148   3
   7   3   3 140.892 14.3336   1
  -7  -3  -3 121.438 20.5315   1
   7   3   3 92.9302 16.5323   5
   7   3   3 137.423 17.7652   4
  -7  -3  -3 131.795 17.7690   8
  -7  -3  -4 3.22876 10.3643   3
  -7  -3  -4 15.7591 19.5751   1
   7   3   4 9.96288 15.3142   5
  -7  -3  -4-24.1846 17.9276   8
   7   3   4 26.1736 15.7466   4
   7   3   4 25.0392 11.4773   1
  -7  -3  -5 431.440 28.0285   1
  -7  -3  -5 382.482 21.1674   3
   7   3   5 303.708 23.4015   5
   7   3   5 360.303 22.3372   1
   7   3   5 391.044 23.3454   4
  -7  -3  -5 269.672 25.2265   8
  -7  -3  -6 8.56138 12.8074   3
  -7  -3  -6 30.4325 22.1141   1
   7   3   6 23.8384 13.6946   1
   7   3   6 9.13972 18.7026   5
  -7  -3  -6-30.2947 24.3130   8
   7   3   6 59.6523 18.6597   4
   7   3   7-14.2312 14.8234   1
  -7  -3  -7-1.38375 12.7130   3
  -7  -3  -7-17.0691 24.9112   1
   7   3   7-14.8854 20.0556   5
  -7  -3  -7-26.0502 26.6120   8
   7   3   7 32.3463 20.0688   4
  -7  -3  -8-5.30864 27.1413   1
   7   3   8-16.7005 16.0473   1
  -7  -3  -9-27.7422 24.6845   6
  -7  -4  16 16.2466 13.1958   6
  -7  -4  16 13.2732 14.0819   2
  -7  -4  15 63.3206 12.0320   3
  -7  -4  15 57.8168 16.1451   6
  -7  -4  15 86.4109 16.6183   2
  -7  -4  14 86.4181 18.5875   8
  -7  -4  14 110.253 17.4057   2
  -7  -4  13 1.27979 14.8081   8
   7   4 -13-7.44631 15.8365   1
  -7  -4  13 7.73777 15.2772   2
   7   4 -12 105.670 16.7980   1
  -7  -4  12 118.778 18.4970   8
  -7  -4  12 94.7243 7.41979   5
  -7  -4  12 110.123 17.2625   2
  -7  -4  11 654.107 30.3760   2
   7   4 -11 652.814 25.1866   1
  -7  -4  11 586.181 30.0124   8
  -7  -4  10 83.2474 12.7726   1
  -7  -4  10 70.2929 16.5632   8
  -7  -4  10 85.7689 15.0818   2
   7   4 -10 85.5948 16.2053   1
  -7  -4   9 204.963 21.0158   8
   7   4  -9 176.085 17.8633   1
  -7  -4   9 197.031 15.6522   1
   7   4  -8 184.337 17.3133   1
  -7  -4   8 192.406 15.6782   1
  -7  -4   7 191.409 16.1532   4
   7   4  -7 161.365 16.8545   1
  -7  -4   7 185.579 15.6092   1
  -7  -4   6 46.4540 11.2797   1
   7   4  -6 52.0531 14.8302   1
  -7  -4   6 48.0322 10.2893   4
  -7  -4   5 53.5737 11.0976   1
  -7  -4   5 69.3651 8.70879   4
   7   4  -5 45.4415 15.7227   1
  -7  -4   4 1174.79 36.2189   1
  -7  -4   4 1184.04 31.2750   4
   7   4  -4 1098.66 35.7349   1
  -7  -4   3-6.90518 6.99916   4
   7   4  -3-7.36081 15.8060   1
   7   4  -3-1.98163 9.84190   5
  -7  -4   3-1.89032 10.2127   1
   7   4  -2 353.681 23.4004   1
   7   4  -2 283.490 15.2292   5
  -7  -4   2 338.757 14.7294   4
   7   4  -1 18.9131 11.0672   5
  -7  -4   0 304.915 16.1765   7
  -7  -4   0 331.360 24.3612   1
   7   4   0 225.113 15.9603   5
   7   4   0 195.293 20.2269   4
  -7  -4  -1 169.426 12.5149   3
  -7  -4  -1 145.006 12.6302   7
   7   4   1 134.656 14.1969   1
   7   4   1 122.155 14.7410   5
  -7  -4  -1 144.598 21.6558   1
  -7  -4  -1 214.993 19.1985   8
   7   4   1 91.3162 16.9130   4
  -7  -4  -2 7.67423 9.10891   3
  -7  -4  -2-3.22296 9.29040   7
   7   4   2-4.90866 13.8187   5
  -7  -4  -2 1.77315 19.5022   1
  -7  -4  -2 40.7306 16.3833   8
   7   4   2 7.08054 10.3789   1
   7   4   2-3.94273 15.3986   4
  -7  -4  -3 153.597 13.9673   3
  -7  -4  -3 122.893 14.3004   7
   7   4   3 116.985 17.0761   5
   7   4   3 139.410 15.3952   1
  -7  -4  -3 140.279 22.0256   1
  -7  -4  -3 158.314 20.5887   8
   7   4   3 117.249 17.7547   4
  -7  -4  -4 67.3292 12.2063   3
   7   4   4 64.1463 14.2341   1
   7   4   4 29.5209 16.5701   5
  -7  -4  -4 64.5581 22.1534   1
  -7  -4  -4 48.5558 18.8934   8
   7   4   4 55.0785 16.3177   4
  -7  -4  -5 26.9539 12.5609   3
  -7  -4  -5 43.7220 22.8150   1
   7   4   5-3.34571 17.2681   5
   7   4   5 15.2351 14.7871   1
   7   4   5 54.0984 17.7810   4
  -7  -4  -6 4.84483 13.8802   3
   7   4   6-5.01523 15.3180   1
  -7  -4  -6 31.1130 24.5505   1
   7   4   6 8.89274 18.7955   5
   7   4   6 42.5564 18.5823   4
  -7  -4  -7 4.07446 13.5370   3
   7   4   7-13.4377 16.2394   1
  -7  -4  -7 22.5443 26.3168   1
   7   4   7 22.4427 20.5165   5
  -7  -4  -8 10.7044 27.6916   1
  -7  -5  15-3.18293 10.1551   3
  -7  -5  15-3.01700 13.9794   6
  -7  -5  15-0.28498 14.8677   2
  -7  -5  14 164.220 14.2729   3
  -7  -5  14 219.418 22.1167   2
  -7  -5  13 57.6425 17.7592   8
  -7  -5  13 65.8745 17.5262   2
  -7  -5  12 0.65955 15.8567   8
   7   5 -12 0.12157 15.8311   1
  -7  -5  12 1.75019 14.2962   2
  -7  -5  11 24.9683 11.2407   1
  -7  -5  11 11.3424 15.8550   8
   7   5 -11 9.74358 16.7915   1
  -7  -5  11 16.6291 12.7077   2
  -7  -5  10 38.0458 16.7418   8
  -7  -5  10 48.5118 12.1599   1
   7   5 -10 18.5740 16.4820   1
   7   5  -9 542.003 26.6625   1
  -7  -5   9 605.037 32.8022   8
  -7  -5   9 600.505 26.4492   1
  -7  -5   8 43.1612 15.7946   8
  -7  -5   8 51.9510 13.3209   1
   7   5  -8 38.3663 16.5586   1
  -7  -5   8 49.9488 13.2291   4
   7   5  -7 233.627 19.9812   1
  -7  -5   7 259.560 21.5965   8
  -7  -5   7 283.880 19.3457   1
   7   5  -6 56.0543 16.6222   1
  -7  -5   6 61.0317 12.7378   1
  -7  -5   6 78.2425 9.19753   4
   7   5  -5-19.7595 16.4907   1
  -7  -5   5-1.34667 11.8203   1
  -7  -5   5-5.46597 7.58414   4
   7   5  -4 52.9743 17.6389   1
  -7  -5   4 65.1326 13.4985   1
  -7  -5   4 80.3922 8.28562   4
   7   5  -3 268.361 21.9635   1
  -7  -5   3 282.908 18.7152   1
  -7  -5   3 311.373 13.4250   4
   7   5  -2 251.740 22.4402   1
  -7  -5   2 281.270 18.1660   1
   7   5  -2 212.004 13.0553   5
   7   5  -1 3.91124 10.4213   5
  -7  -5   0 57.7328 9.84255   3
  -7  -5   0 50.5613 9.89366   7
   7   5   0 33.4710 12.0839   5
   7   5   1 60.3499 12.6069   1
  -7  -5  -1 81.3127 10.6179   3
  -7  -5  -1 58.7760 10.3973   7
   7   5   1 62.3025 13.8801   5
  -7  -5  -1 126.042 19.2224   8
  -7  -5  -1 79.3370 21.8089   1
   7   5   1 10.5664 16.0251   4
  -7  -5  -2 34.5077 10.7747   3
  -7  -5  -2 27.6318 10.3816   7
   7   5   2 18.3237 11.5724   1
   7   5   2 14.5787 13.9005   5
  -7  -5  -2 25.9512 20.6761   1
   7   5   2 16.1233 15.5747   4
  -7  -5  -3 31.9285 11.5118   7
  -7  -5  -3 41.3563 11.3751   3
   7   5   3 25.5364 13.7712   1
   7   5   3 32.7363 15.2230   5
  -7  -5  -3 52.9497 22.0798   1
  -7  -5  -3 60.3551 20.2707   8
   7   5   3 38.4916 16.2480   4
  -7  -5  -4 19.8952 11.6154   7
  -7  -5  -4 30.1855 12.2585   3
   7   5   4 14.5133 15.9224   5
  -7  -5  -4 38.3018 23.1777   1
  -7  -5  -4 40.9117 22.2360   8
   7   5   4 40.9278 16.4197   4
   7   5   4 26.1410 15.1377   1
  -7  -5  -5-14.9198 24.5679   8
  -7  -5  -5 29.2453 13.4361   3
   7   5   5 5.93004 15.2838   1
   7   5   5 20.2663 17.6180   5
  -7  -5  -5 32.1101 24.6472   1
   7   5   5 46.6824 17.7234   4
  -7  -5  -6 23.6322 13.5112   3
   7   5   6 13.4893 16.8908   1
   7   5   6 13.0282 19.0488   5
  -7  -5  -6 15.8836 25.7402   1
   7   5   6 66.1273 18.8122   4
  -7  -6  14 1.28719 16.3407   2
  -7  -6  13-8.59991 17.5341   8
  -7  -6  13-6.72266 9.29323   3
  -7  -6  13-12.9570 15.9864   2
  -7  -6  12 47.8186 18.2446   8
  -7  -6  12 37.0793 16.1671   2
  -7  -6  12 35.6031 10.8455   1
  -7  -6  11 6.84753 11.3060   1
  -7  -6  11 30.5808 17.8638   8
   7   6 -11 57.7323 17.2311   1
  -7  -6  10-5.57173 17.8114   8
  -7  -6  10 8.05052 11.8813   1
   7   6 -10 36.0785 16.2657   1
  -7  -6   9 463.711 30.2246   8
   7   6  -9 465.430 24.3336   1
  -7  -6   9 540.237 25.3950   4
  -7  -6   9 438.651 23.7858   1
  -7  -6   8-1.61929 16.4151   8
  -7  -6   8 4.09239 12.5845   1
  -7  -6   8 0.60606 9.89684   4
  -7  -6   7 71.8793 14.2309   1
   7   6  -7 109.519 16.6227   1
  -7  -6   7 105.155 10.1586   4
  -7  -6   6 10.0678 12.1102   1
  -7  -6   6 6.66020 7.59729   4
  -7  -6   5 439.495 23.9377   1
   7   6  -5 431.672 24.1848   1
  -7  -6   5 446.178 16.9629   4
  -7  -6   4 59.9181 8.22991   4
  -7  -6   4 65.1859 13.7985   1
   7   6  -3 3.32273 9.01670   5
  -7  -6   3 14.3120 11.7310   1
  -7  -6   2 102.783 14.3185   1
   7   6  -2 83.9161 10.1131   5
  -7  -6   1 202.840 12.2782   3
  -7  -6   1 184.417 14.2168   7
   7   6  -1 221.146 22.8841   1
  -7  -6   0 46.0260 9.29278   3
  -7  -6   0 38.7097 10.4289   7
   7   6   0 23.1376 11.5553   5
  -7  -6  -1 9.15223 10.0129   7
  -7  -6  -1 14.6341 9.70798   3
   7   6   1 12.2683 12.8729   1
   7   6   1 5.95516 12.9128   5
  -7  -6  -1 55.3296 19.3373   8
  -7  -6  -1-7.61699 22.4372   1
  -7  -6  -2 12.8319 11.2378   7
  -7  -6  -2 17.5782 10.7269   3
   7   6   2 16.4433 13.8395   5
   7   6   2 8.34630 13.5249   1
  -7  -6  -2 59.6235 20.3625   8
  -7  -6  -2 6.69068 21.8252   1
   7   6   2-12.2468 16.0743   4
   7   6   3 20.2662 14.9828   1
  -7  -6  -3 7.05176 11.3829   7
  -7  -6  -3 22.2029 12.0262   3
   7   6   3 24.0295 15.2358   5
  -7  -6  -3 30.0363 22.0185   8
  -7  -6  -3 16.3435 23.1744   1
   7   6   3 2.70955 16.0628   4
  -7  -6  -4 35.3806 13.2126   3
   7   6   4 33.2392 16.7205   5
   7   6   4 21.2498 16.6024   1
  -7  -6  -4 30.4166 24.3952   1
  -7  -6  -4 18.6741 23.5840   8
   7   6   4 42.0667 17.2745   4
  -7  -6  -5 54.5774 14.5894   3
   7   6   5 54.5363 18.9471   5
  -7  -6  -5 56.8442 26.3319   1
   7   6   5 79.8865 19.2300   4
   7   6   6 11.5142 19.8900   5
   7   6   6 37.1282 19.0487   4
  -7  -7  13 1.63304 16.5850   2
  -7  -7  12 15.4802 18.8727   8
  -7  -7  11 12.2151 18.8623   8
  -7  -7  11 12.7000 12.1091   1
   7   7 -11 15.7260 20.3769   1
  -7  -7  10 296.646 29.4385   8
   7   7 -10 274.117 24.7358   1
  -7  -7  10 263.037 19.8229   1
  -7  -7   9 7.55164 17.5299   8
   7   7  -9 23.3971 18.5501   1
  -7  -7   9-7.20522 13.6371   1
  -7  -7   9-2.48852 9.20299   4
  -7  -7   8 298.179 21.4585   1
  -7  -7   8 286.709 26.2521   8
   7   7  -8 275.354 23.1391   1
  -7  -7   8 331.483 15.2291   4
  -7  -7   7 41.6565 7.79057   4
   7   7  -7 61.9392 18.0665   1
  -7  -7   7 43.3962 14.3741   1
  -7  -7   6 10.2876 6.45882   4
  -7  -7   6 24.6473 12.7023   1
   7   7  -5 57.2272 18.9466   1
  -7  -7   5 33.6347 13.3990   1
   7   7  -4 75.0876 19.9459   1
  -7  -7   4 53.3917 14.1988   1
  -7  -7   3 34.3481 7.63282   3
   7   7  -3 43.9914 19.8338   1
   7   7  -3 5.99508 8.52503   5
  -7  -7   3 33.8633 13.2656   1
  -7  -7   2 33.0878 10.2846   7
  -7  -7   2 40.7143 8.31313   3
   7   7  -2 52.1425 21.1150   1
   7   7  -2 19.6908 8.74381   5
  -7  -7   2 34.4782 13.1413   1
  -7  -7   1 56.3516 11.3047   7
  -7  -7   1 60.5390 9.68887   3
   7   7  -1 36.6426 10.7987   5
   7   7  -1 53.6904 24.6088   1
  -7  -7   1 48.0624 14.3810   1
  -7  -7   0 124.450 12.1249   3
  -7  -7   0 104.286 13.5534   7
   7   7   0 86.9478 13.1091   5
  -7  -7  -1 29.0310 12.1737   7
  -7  -7  -1 30.4228 11.2103   3
   7   7   1 27.9514 13.5922   5
  -7  -7  -1 22.5442 23.7048   1
  -7  -7  -2 61.9446 13.3808   7
  -7  -7  -2 71.3861 12.9134   3
   7   7   2 61.9097 16.9323   1
   7   7   2 60.5418 15.2032   5
   7   7   2 1.57434 16.6063   4
  -7  -7  -2 75.1084 25.0874   1
  -7  -7  -3 8.64696 12.4237   7
  -7  -7  -3 12.6856 11.7993   3
   7   7   3 8.68277 16.2490   1
   7   7   3-3.98901 15.6491   5
   7   7   3-16.3969 16.8051   4
  -7  -7  -3 10.0493 23.8877   1
   7   7   4 22.0926 17.2784   4
   7   7   4 27.1254 17.3803   5
   7   7   5 21.5814 19.1266   5
  -7  -8  10 281.636 29.6564   8
   7   8 -10 204.541 26.7447   1
  -7  -8  10 239.694 19.7871   1
   7   8  -9-12.8066 22.7431   1
  -7  -8   9 6.17105 18.1465   8
  -7  -8   9 5.11406 14.1741   1
  -7  -8   8-13.4262 17.7278   8
  -7  -8   8-6.68099 14.2405   1
   7   8  -8-2.36139 21.4369   1
  -7  -8   7 37.3875 14.6481   1
   7   8  -7 33.7846 22.2476   1
  -7  -8   6 106.306 16.2552   1
   7   8  -6 86.6076 22.0802   1
  -7  -8   5 64.9501 7.13530   3
  -7  -8   5 78.1002 16.0573   1
   7   8  -5 49.6495 22.0338   1
  -7  -8   4 79.7311 8.36663   3
  -7  -8   4 96.5719 16.9371   1
   7   8  -4 63.8719 24.3813   1
   7   8  -3 136.596 26.6461   1
  -7  -8   3 133.706 10.1540   3
  -7  -8   3 174.377 15.1526   7
  -7  -8   3 155.457 18.3978   1
   7   8  -2 34.7235 26.4482   1
  -7  -8   2 44.0801 12.2313   7
  -7  -8   2 22.3172 8.21874   3
  -7  -8   2 27.3885 14.3804   1
  -7  -8   1 59.6694 13.6662   7
  -7  -8   1 51.4003 9.62705   3
   7   8  -1 9.19560 26.4627   1
  -7  -8   1 60.4693 13.4611   8
  -7  -8   1 48.8790 14.4307   1
  -7  -8   0 7.29680 12.1740   7
  -7  -8   0 15.8238 11.4851   8
  -7  -8  -1 25.1271 13.2770   7
  -7  -8  -2 21.9494 14.1268   7
  -7  -9   9-2.21534 14.3980   1
  -7  -9   8 25.8382 18.3856   8
  -7  -9   8 36.7796 15.2016   1
   7   9  -7-20.8784 26.5179   1
  -7  -9   7 45.4669 15.0927   1
  -7  -9   6 15.1255 14.6826   1
   7   9  -6-38.7891 26.9931   1
  -7  -9   5 52.0624 15.8995   1
   7   9  -5 2.15319 26.3150   1
  -7  -9   4 26.4767 11.5559   7
  -7  -9   4 31.7331 15.2502   1
  -7  -9   3 56.4897 12.7419   7
  -7  -9   3 57.6386 16.0173   1
  -7  -9   2 11.1077 11.8399   7
  -7  -9   1 90.4445 14.5687   7
  -7  -9   0 56.9075 13.7072   7
  -7 -10   8 37.2570 15.4725   1
  -7 -10   7 38.4023 15.9424   1
  -7 -10   5 18.6277 11.0374   7
  -7 -10   4 111.648 14.2019   7
  -7 -10   3 44.9165 12.9618   7
  -7 -10   2 7.54105 12.4262   7
   8 -11  -3 5.31008 16.2433   2
   8 -11  -2 166.555 21.8625   2
   8 -11  -1 14.8610 16.1333   2
   8 -11   0 41.0995 17.7825   1
   8 -11   0 41.5944 17.1008   2
   8 -11   1 272.644 25.1665   1
   8 -11   2 43.3217 17.6170   1
  -8  10   7-34.2664 25.9501   4
   8 -10  -6 29.3018 18.4794   2
  -8  10   6-5.20191 22.4520   4
   8 -10  -5 298.767 26.5402   2
  -8  10   5 271.264 31.1640   5
  -8  10   5 267.284 24.2471   4
  -8  10   4 72.7261 24.9440   5
   8 -10  -4 76.0346 20.2036   2
  -8  10   4 103.603 18.8336   4
   8 -10  -4 87.1953 17.4929   1
  -8  10   3-15.8364 22.1164   5
   8 -10  -3-13.3655 16.9725   2
  -8  10   3 13.7544 16.0399   4
   8 -10  -3-0.87047 14.7817   1
   8 -10  -2 48.4410 18.1418   1
  -8  10   2 50.6409 20.6801   5
   8 -10  -2 53.0566 17.2628   2
  -8  10   2 55.3602 16.9755   4
  -8  10   1 22.6259 15.5854   4
   8 -10  -1 8.17796 16.4805   1
  -8  10   1 32.4723 19.9112   5
   8 -10  -1 17.5803 15.3460   2
  -8  10   0 11.2302 15.8077   4
   8 -10   0 7.08319 16.1670   1
  -8  10   0 27.9360 19.1264   5
   8 -10   0 10.3963 14.0920   2
   8 -10   1 159.028 17.7468   2
  -8  10  -1 127.641 21.0320   5
  -8  10  -1 160.143 19.2161   4
   8 -10   1 153.933 19.7001   1
   8 -10   2 3.18226 14.6975   1
   8 -10   3 43.0237 15.4569   1
   8  -9  -9 11.0350 12.2105   8
  -8   9   9 12.4370 17.0165   8
   8  -9  -8 0.81017 11.3898   8
  -8   9   8 20.8911 16.5164   8
   8  -9  -7 537.809 24.7954   8
   8  -9  -7 638.720 35.2262   2
  -8   9   7 517.934 36.5685   4
  -8   9   7 588.727 24.8424   8
  -8   9   6 5.29788 25.8360   5
   8  -9  -6-4.03620 17.6870   2
  -8   9   6 0.85590 13.1574   8
  -8   9   6-22.8163 22.6493   4
  -8   9   5 177.308 27.8131   5
   8  -9  -5 158.225 21.4975   2
  -8   9   5 168.559 13.7971   8
   8  -9  -5 138.991 18.6912   1
  -8   9   5 147.470 22.2891   4
  -8   9   4 17.5030 22.3910   5
   8  -9  -4 31.2531 16.4766   2
  -8   9   4 27.8044 18.0371   4
   8  -9  -4 17.2819 14.8970   1
   8  -9  -3 8.75393 14.8895   1
  -8   9   3-0.22836 20.8934   5
   8  -9  -3 15.6510 16.1111   2
  -8   9   3 34.6318 15.9900   4
   8  -9  -2 19.3592 15.4113   1
  -8   9   2 7.88084 19.3872   5
   8  -9  -2 32.3001 14.5552   2
  -8   9   2 24.2141 16.1122   4
  -8   9   1 16.1143 15.3943   4
   8  -9  -1 3.74490 14.8572   1
  -8   9   1-16.6231 19.2418   5
   8  -9  -1-0.25403 13.8400   2
   8  -9   0 342.699 22.9332   2
  -8   9   0 286.657 24.5991   5
  -8   9   0 356.474 21.5678   4
   8  -9   0 357.179 24.6583   1
  -8   9  -1 21.2534 16.3863   4
   8  -9   1 9.64560 14.1642   1
  -8   9  -1 14.7980 18.0556   5
   8  -9   1 18.7653 12.5427   2
   8  -9   2 5.35740 13.8008   1
  -8   9  -2 5.57679 17.4841   5
   8  -9   3 34.8163 13.6963   1
  -8   9  -3 26.1358 18.5035   5
   8  -9   4 13.3728 12.5005   1
   8  -9   4-1.37402 17.2513   5
  -8   9  -5 58.9918 21.7001   3
  -8   9  -6 43.9036 22.8521   3
   8  -8 -11 24.5127 14.5781   8
  -8   8  11 12.9463 20.0934   8
   8  -8 -10 149.522 17.4373   8
  -8   8  10 122.583 19.9684   8
   8  -8  -9 153.947 16.5443   8
   8  -8  -9 152.176 20.4222   2
  -8   8   9 99.9387 16.2543   5
  -8   8   9 108.578 19.2214   8
   8  -8  -9 135.909 31.7265   1
   8  -8  -8 123.987 15.2463   8
   8  -8  -8 129.406 19.6055   2
  -8   8   8 97.0113 17.2041   8
   8  -8  -8 92.6255 30.8913   1
  -8   8   7 109.382 20.9563   6
   8  -8  -7 93.7374 19.0687   2
  -8   8   7 67.6947 16.0455   8
   8  -8  -7 93.8070 29.9055   1
  -8   8   6 5.52090 18.7279   6
   8  -8  -6 1.85136 16.0390   2
  -8   8   6-9.65501 14.3039   8
  -8   8   6-18.9522 22.1747   4
   8  -8  -5 38.8446 15.8388   1
  -8   8   5 49.8910 17.7330   6
   8  -8  -5 57.7118 16.6699   2
  -8   8   5 45.1096 12.6914   8
  -8   8   5 38.2719 19.9097   4
   8  -8  -4 63.1534 16.0658   1
  -8   8   4 69.6764 17.1835   6
  -8   8   4 28.8025 20.2201   5
   8  -8  -4 60.5064 15.7143   2
  -8   8   4 63.2360 10.7183   8
  -8   8   4 49.7027 17.4097   4
   8  -8  -3 34.4986 14.4950   1
  -8   8   3 40.5471 16.1183   6
  -8   8   3 18.0830 18.6210   5
   8  -8  -3 37.7268 14.7577   2
  -8   8   3 47.8510 15.7274   4
  -8   8   2 123.531 16.9390   6
   8  -8  -2 145.492 18.4669   2
  -8   8   2 115.498 19.6807   5
  -8   8   2 135.229 16.9060   4
   8  -8  -2 151.946 17.8408   1
   8  -8  -1 2.70242 13.1653   1
  -8   8   1 18.0031 14.1825   6
  -8   8   1-16.3248 17.5701   5
   8  -8  -1-2.73523 12.9440   2
  -8   8   1-7.02702 14.6465   4
  -8   8   0 484.113 17.9328   7
   8  -8   0 423.881 23.8175   2
  -8   8   0 404.627 25.9591   5
  -8   8   0 475.024 23.4112   4
   8  -8   0 515.308 26.7061   1
  -8   8  -1 11.2946 15.6348   4
  -8   8  -1 5.12195 10.0148   7
   8  -8   1 10.5105 13.4689   1
  -8   8  -1 6.32456 16.9189   5
  -8   8  -2 124.311 19.3779   4
   8  -8   2 116.208 18.6198   5
  -8   8  -2 109.004 19.3392   5
   8  -8   2 130.094 16.2189   1
   8  -8   3 13.8834 12.3190   1
   8  -8   3 4.61201 15.5549   5
  -8   8  -3 17.2416 17.7716   5
   8  -8   4 88.8982 14.1292   1
   8  -8   4 86.1407 17.9917   5
   8  -8   5 145.480 15.0154   1
   8  -8   5 134.041 19.3817   5
  -8   8  -6 51.2816 22.6547   3
   8  -7 -12 171.302 20.0789   8
  -8   7  12 98.8187 23.2717   8
   8  -7 -11-45.4511 29.4577   1
   8  -7 -11 9.84511 13.9006   8
  -8   7  11-30.5979 21.5800   8
   8  -7 -10 6.08489 27.0585   1
   8  -7 -10 15.4280 12.9792   8
  -8   7  10 45.3734 23.2177   6
  -8   7  10 15.7720 12.7157   5
  -8   7  10 30.0948 18.8608   8
   8  -7  -9 29.3142 27.9233   1
   8  -7  -9 33.1584 13.0575   8
  -8   7   9 71.2553 22.1212   6
  -8   7   9 34.7809 13.5294   5
   8  -7  -9 42.6023 16.1967   2
  -8   7   9 62.1392 17.6724   8
   8  -7  -8 105.310 27.6577   1
   8  -7  -8 105.782 14.2801   8
  -8   7   8 115.722 21.4088   6
  -8   7   8 75.5046 14.9217   5
   8  -7  -8 113.445 18.1900   2
  -8   7   8 136.787 17.5585   8
   8  -7  -7-19.4141 26.0602   1
  -8   7   7-11.7375 18.9617   6
  -8   7   7 6.44156 12.2998   5
   8  -7  -7-8.68972 14.6133   2
  -8   7   7 9.58781 15.3608   8
  -8   7   6 31.8713 17.6281   6
   8  -7  -6 8.93319 14.0427   2
  -8   7   6-16.4551 21.8608   4
  -8   7   6 28.4052 14.0266   8
  -8   7   5 797.968 32.5517   6
   8  -7  -5 888.016 37.3352   2
  -8   7   5 813.060 36.8809   4
  -8   7   5 821.891 28.1990   8
   8  -7  -4 73.7731 14.6369   1
  -8   7   4 80.1766 17.3915   6
   8  -7  -4 78.0327 15.6544   2
  -8   7   4 79.0386 12.6078   8
  -8   7   4 60.0016 17.7026   4
   8  -7  -3-7.09335 12.5303   1
  -8   7   3 14.1652 15.0548   6
   8  -7  -3-0.23664 12.2928   2
  -8   7   3-4.98275 9.35518   8
  -8   7   3 0.65626 15.3951   4
   8  -7  -2 31.7823 13.2152   1
  -8   7   2 31.8440 14.9951   6
   8  -7  -2 9.82044 13.2608   2
  -8   7   2 32.3328 14.3077   4
  -8   7   1 918.705 31.1449   6
  -8   7   1 785.460 34.8833   5
   8  -7  -1 862.554 33.7792   2
  -8   7   1 947.906 33.4427   4
   8  -7  -1 950.231 36.9989   1
   8  -7   0 96.5157 15.1799   1
  -8   7   0 97.1903 14.3895   6
  -8   7   0 76.4432 18.1200   5
  -8   7   0 112.799 15.4454   4
  -8   7  -1 35.7238 14.4557   4
  -8   7  -1 46.4450 11.3275   7
   8  -7   1 41.0109 13.1443   1
  -8   7  -1 63.8432 12.7380   6
   8  -7   1 29.3553 14.3935   5
  -8   7  -1 36.2030 16.8395   5
  -8   7  -2 189.141 14.3204   7
  -8   7  -2 192.765 13.2132   6
   8  -7   2 172.671 18.8840   5
  -8   7  -2 176.723 19.3951   5
  -8   7  -2 177.603 18.7598   4
   8  -7   2 195.236 17.9106   1
   8  -7   3 10.1988 11.2941   1
   8  -7   3-8.11873 13.7777   5
   8  -7   4 46.6093 14.7012   5
   8  -7   4 74.8615 12.9205   1
   8  -7   5 55.8423 15.6609   5
   8  -7   5 52.4379 11.7658   1
   8  -7   6 33.9392 14.7128   4
   8  -7   6 79.0297 12.1312   1
  -8   6  13 271.695 27.9083   8
   8  -6 -13 221.634 30.0802   1
   8  -6 -12 25.7899 27.0117   1
   8  -6 -12 17.7395 14.4338   8
  -8   6  12 7.58649 12.1820   5
  -8   6  12 53.4977 22.5354   8
   8  -6 -11 40.8373 26.5256   1
   8  -6 -11 37.5144 15.1153   8
  -8   6  11 69.5652 24.2192   6
  -8   6  11 20.7585 12.6329   5
   8  -6 -11 45.4437 26.4549   2
  -8   6  11 54.1766 21.1832   8
   8  -6 -10 84.0628 27.5417   1
   8  -6 -10 86.9263 15.0229   8
  -8   6  10 93.5588 23.1658   6
  -8   6  10 63.4599 14.3471   5
  -8   6  10 87.7314 20.3372   8
   8  -6  -9 14.9629 23.8109   1
   8  -6  -9 15.0371 12.2281   8
  -8   6   9 22.5694 20.5966   6
  -8   6   9 1.78446 12.0117   5
  -8   6   9 27.0265 17.9980   8
   8  -6  -8 22.3867 23.8205   1
   8  -6  -8 20.5319 11.8996   8
  -8   6   8 46.1010 19.9368   6
  -8   6   8 17.1906 11.8956   5
   8  -6  -8 20.5558 13.6146   2
  -8   6   8 16.4662 16.9839   8
  -8   6   7 269.451 23.5220   6
  -8   6   7 220.746 18.7789   5
   8  -6  -7 284.758 21.3777   2
   8  -6  -7 313.269 28.9070   1
  -8   6   7 250.353 19.9252   8
  -8   6   6 231.918 21.8555   6
  -8   6   6 210.411 17.9770   5
   8  -6  -6 229.162 19.5583   2
   8  -6  -6 241.943 27.2303   1
  -8   6   6 197.460 18.0176   8
  -8   6   5 241.851 20.9186   6
  -8   6   5 243.727 18.6439   5
   8  -6  -5 272.391 20.4508   2
  -8   6   5 236.023 23.9866   4
  -8   6   5 233.843 17.3964   8
  -8   6   4 99.4254 17.1405   6
   8  -6  -4 111.606 15.1727   2
  -8   6   4 90.4043 13.3981   5
  -8   6   4 104.585 13.6909   8
   8  -6  -4 121.711 15.6885   1
  -8   6   4 89.3245 18.3982   4
  -8   6   3 714.999 28.6083   6
   8  -6  -3 715.772 30.0844   2
  -8   6   3 744.981 30.7205   4
  -8   6   3 681.049 24.0499   8
   8  -6  -3 774.716 31.5572   1
   8  -6  -2 31.5916 12.5003   1
  -8   6   2 30.8899 15.0002   6
  -8   6   2 29.2377 9.45566   8
  -8   6   2 29.5771 13.6303   4
  -8   6   1 285.377 19.3672   6
  -8   6   1 316.732 19.9926   4
   8  -6  -1 328.808 20.9357   1
  -8   6   0 210.324 17.1691   6
  -8   6   0 249.948 17.8256   4
   8  -6   0 255.974 19.1179   1
  -8   6  -1 201.710 15.0482   7
  -8   6  -1 155.183 15.0651   6
  -8   6  -1 156.315 16.3768   4
   8  -6   1 152.213 15.6984   1
  -8   6  -2-7.27775 14.9430   4
  -8   6  -2 21.9547 12.5715   7
  -8   6  -2 12.1381 11.9590   6
   8  -6   2 19.1707 11.4072   1
  -8   6  -2 9.61284 15.6570   5
  -8   6  -3 88.4172 14.5927   7
  -8   6  -3 68.6385 11.4923   6
   8  -6   3 55.2975 13.9448   5
   8  -6   3 89.0502 13.0527   1
   8  -6   4 371.148 19.3373   1
  -8   6  -4 285.468 11.6393   6
   8  -6   4 321.399 22.1330   5
   8  -6   5 38.7562 13.8198   5
   8  -6   5 23.8824 12.9445   4
   8  -6   5 44.5954 11.0437   1
   8  -6   6 63.2582 11.5558   1
  -8   6  -6 91.9721 21.8097   3
   8  -6   6 75.2527 15.1574   5
   8  -6   6 45.4234 13.7793   4
  -8   6  -7 88.7236 24.2725   3
   8  -6   7 55.1427 14.9868   4
   8  -5 -14 81.5290 25.1778   1
   8  -5 -13 181.395 20.6435   8
   8  -5 -13 152.428 26.7243   1
  -8   5  13 201.923 33.4172   8
   8  -5 -12-28.2830 25.1681   1
   8  -5 -12 12.7052 14.5500   8
  -8   5  12-2.02708 11.3474   5
  -8   5  12-4.59379 24.0161   8
   8  -5 -11 1.70297 21.4646   1
   8  -5 -11 24.2474 13.2068   8
  -8   5  11 35.3095 22.5817   6
  -8   5  11 14.4565 12.1452   5
   8  -5 -11 5.73817 22.4171   2
  -8   5  11 6.43099 21.2184   8
   8  -5 -10 216.743 18.2611   8
  -8   5  10 236.586 25.3113   6
  -8   5  10 179.829 17.2616   5
   8  -5 -10 214.631 25.8129   1
  -8   5  10 189.526 23.3657   8
   8  -5  -9 31.1505 22.2305   1
   8  -5  -9 21.9883 11.8906   8
  -8   5   9 49.2940 21.6464   6
  -8   5   9 14.5100 11.5798   5
  -8   5   9 10.0733 19.4679   8
  -8   5   8 244.877 24.1763   6
  -8   5   8 190.132 17.2544   5
   8  -5  -8 218.947 17.9519   2
   8  -5  -8 244.497 25.9284   1
  -8   5   8 198.290 22.0822   8
   8  -5  -7 49.0684 22.3966   1
  -8   5   7 44.2257 19.5683   6
  -8   5   7 28.1833 12.1855   5
   8  -5  -7 40.6583 11.9306   2
  -8   5   7 17.6224 16.8213   8
  -8   5   6 1892.93 57.0001   6
  -8   5   6 1754.72 57.4607   5
   8  -5  -6 1677.67 55.8479   2
  -8   5   6 1765.28 54.2649   8
  -8   5   5 784.797 32.7275   6
  -8   5   5 758.207 31.6857   5
   8  -5  -5 746.649 30.7782   2
  -8   5   5 823.778 36.2944   4
  -8   5   5 759.550 28.9445   8
  -8   5   4 10.5035 12.8010   8
  -8   5   4-10.8629 16.2814   6
  -8   5   4-0.39101 9.58844   5
  -8   5   4-8.23167 17.7822   4
  -8   5   3 131.141 17.9336   6
  -8   5   3 147.626 13.1135   5
  -8   5   3 155.178 17.9274   4
   8  -5  -3 162.418 15.4407   1
  -8   5   3 131.647 13.8519   8
  -8   5   2 138.397 17.2265   6
  -8   5   2 136.902 13.3494   5
  -8   5   2 150.761 15.9166   4
  -8   5   2 118.512 12.6055   8
   8  -5  -2 159.020 15.2576   1
   8  -5  -1 752.862 35.7828   5
  -8   5   1 594.696 25.8167   5
  -8   5   1 681.282 27.0577   4
  -8   5   1 579.930 21.2897   8
   8  -5  -1 729.977 28.9042   1
  -8   5   0 14.4426 12.3585   4
  -8   5   0 2.91412 8.80207   8
   8  -5   0-0.94481 11.1869   1
   8  -5   0-11.3473 22.0473   5
   8  -5   1 781.783 28.2904   1
  -8   5  -1 582.169 17.6313   8
  -8   5  -1 704.389 26.4277   4
  -8   5  -2-4.89782 14.6288   4
  -8   5  -2-9.01615 7.79870   8
  -8   5  -2 24.5343 13.4321   7
   8  -5   2 3.10543 10.7850   1
  -8   5  -2 9.05972 8.04260   8
  -8   5  -3-0.79532 7.88036   8
  -8   5  -3-1.68466 13.9137   7
   8  -5   3-4.31975 10.8290   1
  -8   5  -3-12.8521 8.76779   8
  -8   5  -4 141.700 17.2398   7
   8  -5   4 113.020 12.9229   1
   8  -5   4 103.344 14.8392   4
  -8   5  -5 11.5400 10.6858   8
   8  -5   5 16.4425 10.0162   1
  -8   5  -5 0.61024 18.3101   3
   8  -5   5-4.07401 13.3971   5
   8  -5   5-6.04576 12.1468   4
  -8   5  -6 8.08406 19.3925   3
   8  -5   6 20.4770 9.78704   1
   8  -5   6 11.3319 12.0083   5
   8  -5   6 10.3777 12.4014   4
  -8   5  -7 9.29439 21.2632   3
   8  -5   7 15.6076 12.6168   4
   8  -4 -14-19.1930 22.4932   1
   8  -4 -13 16.3945 14.7105   8
   8  -4 -13 13.5095 21.6988   1
  -8   4  13 5.07143 12.0064   6
  -8   4  13 3.86058 25.2426   8
   8  -4 -12-3.17419 13.9930   8
   8  -4 -12-6.24299 20.7927   1
  -8   4  12 0.94619 11.3002   5
  -8   4  12-9.31088 24.9007   8
   8  -4 -11 165.463 17.0223   8
   8  -4 -11 150.047 22.5799   1
  -8   4  11 109.513 14.8193   5
  -8   4  11 115.571 24.8499   8
   8  -4 -10 186.320 16.7568   8
  -8   4  10 197.846 25.4415   6
  -8   4  10 127.806 15.6267   5
   8  -4 -10 181.606 22.6075   1
  -8   4  10 168.011 24.6960   8
   8  -4  -9 118.655 21.1992   1
  -8   4   9 100.819 23.1469   6
  -8   4   9 80.2707 13.6969   5
  -8   4   8 1769.74 56.1853   6
  -8   4   8 1674.08 53.4861   2
   8  -4  -8 1763.52 55.5006   1
  -8   4   8 1661.10 53.6542   8
   8  -4  -7 163.694 22.7111   1
  -8   4   7 168.386 23.0690   6
  -8   4   7 187.168 20.6151   2
  -8   4   7 162.447 16.1960   5
  -8   4   7 171.707 20.3465   8
  -8   4   6 7.10484 16.0117   8
   8  -4  -6 1.30166 18.7788   1
  -8   4   6 5.45437 18.7708   6
  -8   4   6 12.3742 16.6820   2
  -8   4   6 9.37858 10.7273   5
  -8   4   5 9.76708 14.6932   8
  -8   4   5 7.52504 15.6411   2
  -8   4   5 1.93007 9.78831   5
  -8   4   5-9.65798 18.7874   4
  -8   4   4 372.038 21.7078   2
  -8   4   4 359.918 19.5393   5
  -8   4   4 364.171 23.7748   4
  -8   4   4 341.069 20.7475   8
  -8   4   3 272.820 19.5859   2
  -8   4   3 255.630 16.6671   5
  -8   4   3 268.496 20.2210   4
   8  -4  -3 257.428 17.5054   1
  -8   4   3 251.012 18.1171   8
  -8   4   2 58.8522 13.8463   8
   8  -4  -2 69.6020 12.4291   1
   8  -4  -2 43.3663 20.1684   5
  -8   4   2 72.3069 15.7215   2
  -8   4   2 64.4723 10.9385   5
  -8   4   2 65.8714 13.6771   4
  -8   4   1 1133.91 36.2237   8
  -8   4   1 1316.18 39.5838   2
   8  -4  -1 1290.03 45.2809   5
  -8   4   1 1108.92 38.4809   5
  -8   4   1 1164.40 39.3290   4
   8  -4  -1 1232.97 40.9110   1
  -8   4   0 10.7505 12.1536   4
  -8   4   0 0.16621 12.3192   8
  -8   4   0 22.6265 14.6156   2
   8  -4   0 7.30797 10.4533   1
   8  -4   0-1.32199 19.0535   5
  -8   4   0 8.63079 8.22767   5
  -8   4  -1 406.764 18.5146   8
   8  -4   1 415.886 21.0456   1
   8  -4   1 444.996 28.0211   5
  -8   4  -1 377.169 19.5256   5
  -8   4  -1 433.775 16.4473   8
  -8   4  -1 404.461 21.3786   4
  -8   4  -2 93.4352 15.6909   4
   8  -4   2 96.8689 12.9177   1
  -8   4  -2 104.161 15.1762   7
   8  -4   2 99.1870 22.3625   5
  -8   4  -2 74.5064 10.7413   8
  -8   4  -3 478.672 23.7269   7
   8  -4   3 395.143 20.2947   1
   8  -4   3 379.245 22.5380   4
  -8   4  -3 388.481 17.4404   8
  -8   4  -4 127.364 18.1243   7
   8  -4   4 128.312 13.3119   1
   8  -4   4 111.323 14.5983   4
  -8   4  -4 84.1019 13.7954   8
  -8   4  -5 67.4226 19.6640   3
   8  -4   5 51.3843 11.1798   1
   8  -4   5 51.6508 12.9621   4
  -8   4  -5 31.5993 15.0976   8
  -8   4  -6 273.856 25.6223   3
   8  -4   6 255.168 15.7564   1
   8  -4   6 243.800 19.1187   4
  -8   4  -6 209.086 19.5301   8
  -8   4  -7 10.0291 22.4695   3
   8  -4   7 17.8336 9.12966   1
   8  -4   7 16.0518 12.3590   4
   8  -3 -14-0.86752 13.8244   8
   8  -3 -14-0.52093 20.8701   1
  -8   3  14-19.9740 28.2800   8
   8  -3 -13 81.2597 15.7970   8
   8  -3 -13 73.3917 21.5704   1
  -8   3  13 75.0551 14.7031   6
  -8   3  13 47.1416 28.1539   8
   8  -3 -12 14.4277 13.0581   8
   8  -3 -12 20.4479 19.4210   1
  -8   3  12 9.23002 12.7325   6
  -8   3  12 1.54091 10.5249   5
  -8   3  12-10.7514 26.1929   8
  -8   3  11 595.471 26.5190   2
  -8   3  11 656.140 36.5204   8
   8  -3 -11 619.527 30.1287   1
  -8   3  10 247.229 17.6803   2
  -8   3  10 212.471 17.2304   5
  -8   3  10 291.146 26.6332   8
   8  -3 -10 245.363 22.7392   1
  -8   3   9 132.284 22.7516   8
   8  -3  -9 135.317 20.2777   1
  -8   3   9 154.439 25.5362   6
  -8   3   9 99.3956 13.5156   5
  -8   3   8 314.495 26.8739   6
  -8   3   8 289.026 24.0751   2
  -8   3   8 259.715 18.5626   5
   8  -3  -8 314.769 23.8033   1
  -8   3   8 271.481 24.6788   8
  -8   3   7 283.928 23.4983   2
  -8   3   7 263.976 18.2897   5
   8  -3  -7 273.054 23.0357   1
  -8   3   7 281.028 23.9586   8
  -8   3   6 921.759 36.4278   2
  -8   3   6 956.182 35.3542   5
   8  -3  -6 960.695 37.2434   1
  -8   3   6 915.268 36.2408   8
  -8   3   5 1067.86 38.6988   2
  -8   3   5 1038.95 36.6448   5
   8  -3  -5 1017.19 39.2114   1
  -8   3   5 1066.86 38.1875   8
  -8   3   4 606.100 27.6054   2
  -8   3   4 583.187 24.6706   5
  -8   3   4 624.701 27.6305   8
  -8   3   3 123.971 17.6553   8
  -8   3   3 127.137 12.5103   5
  -8   3   3 119.803 17.1014   2
  -8   3   3 130.302 16.8111   4
  -8   3   2 893.031 31.0252   8
   8  -3  -2 788.269 30.1888   1
  -8   3   2 804.603 31.0654   2
   8  -3  -2 826.493 34.0063   5
  -8   3   2 811.977 29.4107   5
  -8   3   2 748.176 29.8518   4
  -8   3   1 85.7600 15.5100   8
  -8   3   1 76.9105 10.5560   5
   8  -3  -1 78.3484 17.4610   5
   8  -3  -1 81.6105 11.8525   1
  -8   3   1 76.1653 15.7129   2
  -8   3   1 81.5228 14.3451   4
   8  -3   0 315.375 18.1049   1
  -8   3   0 336.605 20.2020   2
   8  -3   0 300.371 22.9149   5
  -8   3   0 279.437 16.2598   5
  -8   3   0 326.621 18.8032   4
   8  -3   1 271.602 17.2247   1
  -8   3  -1 297.156 19.8781   2
   8  -3   1 287.354 22.9939   5
  -8   3  -1 267.073 15.2105   8
  -8   3  -1 253.416 18.0930   4
  -8   3  -2-20.6611 14.5235   4
  -8   3  -2-3.05062 12.9825   7
  -8   3  -2 4.63817 14.5343   2
   8  -3   2 4.06931 18.7039   5
  -8   3  -2 0.48142 11.2274   8
   8  -3   2-19.9049 11.8997   4
   8  -3   2-4.28373 9.87287   1
   8  -3   3 12.4025 10.2930   1
  -8   3  -3-4.08097 14.4751   7
  -8   3  -3 18.0900 13.3157   2
   8  -3   3 22.7218 19.6148   5
  -8   3  -3 11.4311 12.2608   8
   8  -3   3-9.35261 11.1709   4
   8  -3   4 57.0534 11.9573   1
  -8   3  -4 71.1221 17.5395   7
   8  -3   4 94.7143 21.5600   5
  -8   3  -4 82.6366 14.7950   8
   8  -3   4 58.8338 12.5001   4
  -8   3  -5 60.9717 19.9378   3
  -8   3  -5 41.0490 18.0678   7
   8  -3   5 47.4402 10.9914   1
   8  -3   5 96.7105 22.3023   5
   8  -3   5 57.8052 12.6633   4
  -8   3  -5 48.3716 16.4275   8
  -8   3  -6 163.476 23.6636   3
   8  -3   6 131.075 13.2254   1
   8  -3   6 145.091 15.8890   4
   8  -3   7 9.18856 9.40281   1
  -8   3  -7 25.3451 23.9304   3
   8  -3   7 5.31328 11.3239   4
  -8   2  14 2.60861 12.2049   6
   8  -2 -14-11.7125 20.0454   1
  -8   2  14-29.9611 30.0717   8
  -8   2  13 156.705 16.9653   6
  -8   2  13 159.183 16.2519   2
   8  -2 -13 158.698 21.7409   1
  -8   2  13 107.554 29.8057   8
  -8   2  12 227.049 18.4296   6
  -8   2  12 259.011 18.9138   2
  -8   2  12 285.934 30.3482   8
   8  -2 -12 247.351 22.7723   1
  -8   2  11 83.2101 25.5386   8
   8  -2 -11 41.2614 18.7389   1
  -8   2  11 55.9073 13.9801   6
  -8   2  11 48.5829 11.6977   5
  -8   2  11 64.5086 13.3741   2
  -8   2  10 18.1697 23.7270   8
   8  -2 -10 4.19263 16.7571   1
  -8   2  10 4.07527 10.0890   5
  -8   2  10 13.6736 11.8039   2
  -8   2   9 968.593 36.5381   5
   8  -2  -9 1012.55 38.2097   1
  -8   2   8 23.1257 20.4211   8
   8  -2  -8 32.7581 17.6641   1
  -8   2   8 16.3684 10.7344   5
  -8   2   7 253.699 24.3482   2
  -8   2   7 270.654 17.8324   5
   8  -2  -7 243.638 21.3038   1
  -8   2   7 274.582 24.4067   8
  -8   2   6 1048.55 39.7357   2
  -8   2   6 1061.96 36.5505   5
   8  -2  -6 1026.45 38.6282   1
  -8   2   6 1057.27 39.9256   8
  -8   2   5 258.937 22.2220   8
   8  -2  -5 235.893 21.1413   1
  -8   2   5 243.352 20.9718   2
  -8   2   5 253.729 15.8409   5
  -8   2   4 217.904 21.4628   8
  -8   2   4 196.768 19.5862   2
  -8   2   4 203.655 14.5727   5
  -8   2   3 408.219 23.1214   8
   8  -2  -3 340.955 23.7393   5
  -8   2   3 369.846 22.1766   2
  -8   2   3 369.419 18.5486   5
  -8   2   2 1651.37 47.9489   8
   8  -2  -2 1446.80 46.9133   1
   8  -2  -2 1543.59 49.5392   5
  -8   2   2 1586.69 48.2745   2
  -8   2   2 1536.21 46.8605   5
   8  -2  -1 20.5225 15.7336   5
  -8   2   1 19.8228 15.2906   2
  -8   2   1 18.7717 8.57313   5
   8  -2  -1 17.7125 9.61087   1
  -8   2   1 27.4408 16.3893   1
   8  -2   0 17.0332 16.1086   5
  -8   2   0 28.2895 14.8815   2
   8  -2   0 36.4916 10.1808   1
  -8   2   0 38.5345 16.6212   1
   8  -2   1 545.478 24.5049   1
  -8   2  -1 631.833 25.8648   2
   8  -2   1 619.834 28.7513   5
  -8   2  -1 592.408 28.1661   1
  -8   2  -2 19.9604 18.0385   1
   8  -2   2 15.5950 10.4053   1
  -8   2  -2 7.87888 12.3154   7
   8  -2   2 29.2474 17.2040   5
  -8   2  -2 29.2602 14.5469   2
  -8   2  -2 22.0851 12.4798   8
  -8   2  -3 342.670 21.8288   7
  -8   2  -3 439.532 20.9331   2
   8  -2   3 414.629 25.5408   5
   8  -2   3 366.461 19.6249   1
  -8   2  -3 375.530 20.3023   8
  -8   2  -3 389.024 25.0678   1
  -8   2  -4 23.1271 19.5170   1
  -8   2  -4 23.6367 15.8252   7
   8  -2   4 33.7983 10.5836   1
  -8   2  -4 17.1077 13.7539   2
   8  -2   4 29.8167 18.5897   5
  -8   2  -4 10.2233 15.0291   8
  -8   2  -5 193.942 21.3928   7
  -8   2  -5 185.456 13.5255   2
   8  -2   5 215.300 23.3089   5
   8  -2   5 205.618 15.3729   1
  -8   2  -5 218.596 22.8605   1
  -8   2  -5 202.978 20.1854   8
   8  -2   6 8.68409 9.94345   1
   8  -2   6 0.61417 20.8597   5
  -8   2  -6 12.8393 18.7661   8
  -8   2  -6 16.2522 19.7772   1
   8  -2   7 18.8835 10.4186   1
   8  -2   7 4.84614 22.4171   5
  -8   2  -7 12.3787 20.1354   8
  -8   2  -7 6.80903 20.1396   1
   8  -1 -14 208.896 22.6292   1
  -8   1  14 210.769 18.9765   6
  -8   1  14 215.129 18.7448   2
  -8   1  14 162.757 32.2798   8
  -8   1  13 86.3908 27.8168   8
  -8   1  13 64.9296 14.0668   6
  -8   1  13 37.0374 11.0851   5
   8  -1 -13 65.0083 19.9310   1
  -8   1  13 55.4562 13.9481   2
  -8   1  12 194.504 28.9634   8
   8  -1 -12 163.472 20.4630   1
  -8   1  12 150.415 16.9379   6
  -8   1  12 171.405 17.4269   2
  -8   1  12 127.058 13.9489   5
   8  -1 -11 430.753 25.4551   1
  -8   1  11 432.372 24.1587   6
  -8   1  11 499.209 26.2226   2
  -8   1  11 398.682 21.8059   5
  -8   1  11 515.136 33.7130   8
  -8   1  10 39.3031 23.8156   8
   8  -1 -10 30.6582 16.9987   1
  -8   1  10 22.5326 10.8364   5
  -8   1  10 30.7596 12.4296   2
   8  -1  -9 183.494 19.5614   1
  -8   1   9 200.379 15.6905   5
  -8   1   9 221.077 25.6903   8
   8  -1  -8 163.761 19.0390   1
  -8   1   8 154.595 23.9554   8
  -8   1   8 168.749 14.8241   5
   8  -1  -7 1382.39 46.4239   1
  -8   1   7 1508.67 51.5282   2
  -8   1   7 1492.16 46.2536   5
  -8   1   7 1475.10 50.8871   8
  -8   1   6 5.32990 19.4597   8
   8  -1  -6-2.97282 16.1488   1
  -8   1   6 5.13751 8.78132   5
  -8   1   6 10.3558 19.4512   2
  -8   1   6-13.6915 12.3306   4
  -8   1   5 602.108 29.7538   8
   8  -1  -5 547.414 26.3346   1
  -8   1   5 589.803 29.3574   2
  -8   1   5 532.789 23.0731   5
  -8   1   5 559.787 25.7680   4
  -8   1   4 1497.17 47.1113   8
  -8   1   4 1442.37 47.4201   2
  -8   1   4 1392.00 43.2510   5
  -8   1   4 1319.65 44.2521   4
   8  -1  -3 41.8763 16.0523   5
  -8   1   3 54.5035 9.75143   5
  -8   1   3 57.2134 16.7620   2
  -8   1   3 59.6628 9.07831   4
  -8   1   2-0.80393 17.7303   1
   8  -1  -2-2.46615 14.9386   5
  -8   1   2 9.19792 8.12753   5
  -8   1   2-11.0347 16.3301   2
   8  -1  -2 4.26755 9.56040   1
  -8   1   2 2.99747 7.06936   4
   8  -1  -1 362.535 18.8715   1
   8  -1  -1 388.797 22.1238   5
  -8   1   1 398.258 22.2371   2
  -8   1   1 368.652 17.0999   4
  -8   1   1 417.765 24.1331   1
   8  -1   0 598.063 24.4726   1
   8  -1   0 617.107 26.5366   5
  -8   1   0 582.629 26.1227   2
  -8   1   0 508.137 21.2429   4
  -8   1   0 614.104 27.6790   1
  -8   1  -1 106.679 18.1083   1
   8  -1   1 89.2484 12.5108   1
   8  -1   1 102.815 17.0205   5
  -8   1  -1 77.0125 16.4907   2
  -8   1  -1 92.5317 10.1582   4
   8  -1   1 81.5549 20.1287   4
  -8   1  -2 5.11320 16.7317   1
  -8   1  -2 27.1627 12.8277   7
   8  -1   2 9.92243 9.42684   1
   8  -1   2 25.5551 16.2825   5
  -8   1  -2 1.05692 15.2365   2
  -8   1  -2-4.21548 13.6884   8
   8  -1   2-18.8081 19.7886   4
  -8   1  -3 113.568 19.2682   1
  -8   1  -3 108.771 16.3702   7
   8  -1   3 108.879 12.5292   1
   8  -1   3 119.327 18.5188   5
  -8   1  -3 110.693 16.8183   2
  -8   1  -3 134.252 16.9059   8
   8  -1   3 120.133 21.6995   4
  -8   1  -4 9.23810 18.8255   1
  -8   1  -4-11.7646 15.6464   7
   8  -1   4 2.63022 18.1981   5
  -8   1  -4 13.3852 15.5180   2
   8  -1   4 4.67653 10.0373   1
  -8   1  -4 6.46394 16.3106   8
   8  -1   4 4.60339 19.6458   4
  -8   1  -5 112.119 21.3580   1
  -8   1  -5 101.375 19.5381   7
  -8   1  -5 114.234 16.2977   2
   8  -1   5 124.204 22.0127   5
   8  -1   5 163.708 23.2019   4
   8  -1   5 133.097 13.9102   1
  -8   1  -5 133.738 20.9266   8
  -8   1  -6 10.9054 20.3027   1
   8  -1   6 10.9819 10.9658   1
   8  -1   6 16.4034 20.5740   5
  -8   1  -6 32.2495 20.6711   8
   8  -1   6 27.7059 21.0193   4
  -8   1  -7 70.3048 22.9627   1
   8  -1   7 61.0577 22.7304   5
   8  -1   7 80.3954 12.3562   1
  -8   1  -7 66.6762 22.7354   8
   8  -1   7 99.1821 23.0849   4
  -8   1  -8-5.42283 24.1220   8
  -8   0  15 64.5432 15.3487   6
  -8   0  15 72.9609 15.1254   2
   8   0 -14 439.613 25.8703   1
  -8   0  14 381.760 23.7541   6
  -8   0  14 410.038 24.3766   2
  -8   0  14 309.274 19.6141   5
  -8   0  14 499.170 37.3734   8
  -8   0  13 47.6580 27.2276   8
  -8   0  13 40.2235 14.0201   6
  -8   0  13 28.6694 10.6136   5
  -8   0  13 37.1461 14.2302   2
   8   0 -13 53.3732 19.1926   1
  -8   0  12-2.19656 25.6472   8
  -8   0  12-0.23237 11.9739   6
  -8   0  12 0.52043 9.70813   5
  -8   0  12-13.5222 13.5664   2
   8   0 -12-5.09935 17.4686   1
  -8   0  11 58.7637 25.6640   8
  -8   0  11 36.7640 9.82499   5
  -8   0  11 38.3765 14.5764   2
   8   0 -11 20.5837 17.7335   1
  -8   0  10-9.96303 22.7589   8
  -8   0  10-6.95984 9.60942   5
  -8   0  10 7.45952 12.4208   2
   8   0 -10 1.43922 16.4597   1
   8   0  -9 933.149 35.8286   1
  -8   0   9 986.290 39.2987   2
  -8   0   9 1016.05 34.8959   5
  -8   0   9 1020.02 43.2641   8
  -8   0   8-3.92223 21.7117   8
  -8   0   8 3.72963 10.3061   5
   8   0  -8 16.4743 15.9589   1
  -8   0   7 1536.34 52.4492   8
  -8   0   7 1515.30 53.1103   2
  -8   0   7 1510.68 44.8759   5
  -8   0   6 81.8566 20.6293   8
  -8   0   6 88.6450 10.9601   5
  -8   0   6 59.4463 21.4570   2
   8   0  -6 59.4253 16.5173   1
  -8   0   6 89.5482 12.3221   1
  -8   0   6 71.5260 13.5452   4
  -8   0   5 75.6573 12.5115   1
  -8   0   5 97.2133 19.5665   8
  -8   0   5 83.6608 10.4857   5
  -8   0   5 65.4637 20.2656   2
   8   0  -5 85.6295 17.2134   1
  -8   0   5 74.7702 12.0299   4
  -8   0   4 66.2095 17.7164   8
  -8   0   4 62.6871 9.64350   5
  -8   0   4 42.2598 17.7170   2
   8   0  -4 51.6389 16.3120   1
  -8   0   4 51.7754 9.55632   4
   8   0  -3 311.950 20.3283   5
  -8   0   3 289.630 21.8697   2
  -8   0   3 327.814 16.3501   5
  -8   0   3 331.386 16.1216   4
   8   0  -2 686.603 28.0372   5
  -8   0   2 643.407 28.4011   2
  -8   0   2 721.402 25.7266   4
  -8   0   2 765.206 31.5306   1
   8   0  -1 206.496 15.1132   1
   8   0  -1 234.351 18.4064   5
  -8   0   1 197.538 12.4325   4
  -8   0   1 218.891 20.7963   1
   8   0   0 321.506 19.6907   5
   8   0   0 307.611 17.7135   1
  -8   0   0 285.596 14.8374   4
  -8   0   0 301.155 22.4720   1
  -8   0  -1 45.4041 8.83620   4
  -8   0  -1 55.8965 17.9122   1
   8   0   1 51.6244 10.7448   1
   8   0   1 55.6199 15.2981   5
   8   0   1 20.4959 18.4848   4
  -8   0  -2 33.1276 13.9759   7
  -8   0  -2 3.43259 17.6900   1
   8   0   2 8.26531 9.83485   1
   8   0   2 14.9912 15.4414   5
  -8   0  -2 3.37342 13.6657   8
   8   0   2-21.8555 19.5387   4
  -8   0  -3 60.5262 16.1601   7
  -8   0  -3 44.9156 18.7113   1
   8   0   3 47.3149 17.6763   5
   8   0   3 48.3501 11.3295   1
  -8   0  -3 43.6223 16.3730   8
   8   0   3 43.2188 19.4468   4
  -8   0  -4 134.947 13.5415   3
  -8   0  -4 140.484 19.7859   7
  -8   0  -4 153.392 21.3954   1
   8   0   4 120.352 20.1776   5
   8   0   4 158.040 22.0565   4
  -8   0  -4 163.213 19.5910   8
   8   0   4 156.977 14.5250   1
   8   0   5 140.470 15.1877   1
  -8   0  -5 142.048 14.5627   3
  -8   0  -5 127.273 22.2744   1
  -8   0  -5 66.1933 19.9271   7
   8   0   5 120.583 21.0355   5
  -8   0  -5 116.639 16.4401   2
   8   0   5 169.656 23.2106   4
  -8   0  -5 146.097 21.9862   8
  -8   0  -6 31.6012 21.2689   1
  -8   0  -6 28.3470 11.9905   3
   8   0   6 14.1156 11.2819   1
   8   0   6 15.3107 20.7472   5
  -8   0  -6 23.5337 21.8356   8
   8   0   6 40.3172 20.7020   4
  -8   0  -7 185.808 17.9572   3
   8   0   7 202.202 16.2633   1
   8   0   7 187.312 25.6012   5
   8   0   7 216.361 25.1195   4
  -8   0  -7 228.336 26.4774   1
  -8   0  -7 181.889 26.9565   8
  -8   0  -8 14.5324 26.0477   8
  -8  -1  15 176.697 19.1934   6
  -8  -1  15 209.059 19.5879   2
   8   1 -14 62.3939 18.9490   1
  -8  -1  14 63.5346 15.3572   6
  -8  -1  14 48.5294 11.1152   5
  -8  -1  14 63.6803 16.7022   2
  -8  -1  13 17.9609 13.3895   6
  -8  -1  13 22.5666 9.37975   5
  -8  -1  13 18.4738 14.1470   2
   8   1 -13 28.3226 18.2634   1
  -8  -1  12 124.749 28.7466   8
  -8  -1  12 151.390 17.7951   2
  -8  -1  12 86.1533 11.1021   5
   8   1 -12 110.873 19.4689   1
  -8  -1  11 85.4449 26.5015   8
  -8  -1  11 107.159 11.8949   5
  -8  -1  11 106.851 17.4144   2
   8   1 -11 126.253 18.6278   1
  -8  -1  10 77.0737 25.4414   8
  -8  -1  10 80.7554 11.2880   5
  -8  -1  10 101.581 17.1840   2
   8   1 -10 66.7691 17.3186   1
  -8  -1   9 1420.91 42.5918   5
  -8  -1   9 1477.71 50.8671   2
  -8  -1   9 1429.61 52.5282   8
  -8  -1   8 311.111 28.2111   8
   8   1  -8 286.716 20.4202   1
  -8  -1   8 319.624 16.1192   5
  -8  -1   7 112.878 22.6491   8
  -8  -1   7 125.679 11.9605   5
  -8  -1   7 130.857 14.1777   1
   8   1  -7 104.681 17.5526   1
  -8  -1   6 727.549 34.1703   8
   8   1  -6 696.283 29.8476   1
  -8  -1   6 698.050 35.4877   2
  -8  -1   6 768.563 26.2318   5
  -8  -1   6 772.990 31.7559   4
  -8  -1   6 739.246 29.5053   1
  -8  -1   5 1176.08 42.8654   8
   8   1  -5 1093.87 39.0409   1
  -8  -1   5 1065.44 41.7618   2
  -8  -1   5 1179.46 35.8293   5
  -8  -1   5 1218.97 40.0859   4
  -8  -1   5 1155.48 39.2844   1
   8   1  -4 28.8475 15.9918   1
  -8  -1   4 37.4894 10.8225   1
   8   1  -4 11.4769 14.6482   5
  -8  -1   4 25.4015 8.34624   5
  -8  -1   4 27.9058 9.08613   4
   8   1  -3 53.9680 14.1772   5
  -8  -1   3 84.2537 10.1390   4
   8   1  -2 289.445 18.6830   5
  -8  -1   2 305.908 15.2462   4
   8   1  -1 478.647 22.5696   5
   8   1  -1 482.929 21.9339   1
  -8  -1   1 456.283 19.1616   4
  -8  -1   1 553.676 27.7153   1
  -8  -1   0 23.1967 7.96141   4
  -8  -1   0 19.8402 18.0928   1
   8   1   0 10.9733 9.74399   1
   8   1   0 27.8368 13.6253   5
  -8  -1  -1 10.9554 14.0884   7
  -8  -1  -1 7.46015 18.3749   1
   8   1   1 13.6606 13.9250   5
   8   1   1 2.23551 9.88219   1
  -8  -1  -2 79.6422 16.2975   7
  -8  -1  -2 63.9836 19.2906   1
   8   1   2 25.1932 15.8615   5
  -8  -1  -2 40.9605 14.6937   8
   8   1   2 61.7071 12.0859   1
   8   1   2 23.8399 18.5571   4
   8   1   3 83.5495 12.9093   1
  -8  -1  -3 95.2853 18.6973   7
  -8  -1  -3 84.0518 20.0314   1
   8   1   3 72.3302 17.4478   5
  -8  -1  -3 72.2403 16.7390   8
   8   1   3 70.1641 19.4887   4
  -8  -1  -4 35.7749 11.0336   3
  -8  -1  -4 23.1242 18.3816   7
  -8  -1  -4 33.8616 20.5635   1
   8   1   4 30.6015 12.1781   1
   8   1   4 15.6434 18.0251   5
  -8  -1  -4 17.1488 17.7295   8
   8   1   4 46.9292 19.9246   4
  -8  -1  -5 203.904 16.8945   3
   8   1   5 173.940 17.0469   1
  -8  -1  -5 154.270 24.2116   7
   8   1   5 154.978 21.8268   5
   8   1   5 227.102 24.1987   4
  -8  -1  -5 205.563 23.6534   8
  -8  -1  -5 194.677 24.5410   1
  -8  -1  -6 19.0144 12.2642   3
  -8  -1  -6 7.63451 22.5506   1
   8   1   6 11.7292 20.4422   5
   8   1   6 18.6256 10.8097   1
  -8  -1  -6-9.55123 23.0275   8
   8   1   6 49.9839 21.4196   4
   8   1   7 11.5639 12.2085   1
  -8  -1  -7 5.93940 23.6343   1
   8   1   7 9.69538 21.8137   5
  -8  -1  -7-8.75894 26.2482   8
  -8  -1  -8 12.5142 27.9187   8
  -8  -2  15 98.6296 16.9461   6
  -8  -2  15 122.565 18.7417   2
  -8  -2  14 96.6255 16.8888   6
  -8  -2  14 127.649 19.3696   2
   8   2 -13 20.3854 18.2106   1
  -8  -2  13 8.80709 8.67560   5
  -8  -2  13 40.4473 15.0466   2
   8   2 -12 80.8307 18.2130   1
  -8  -2  12 70.4838 10.5175   5
  -8  -2  12 81.3689 16.6981   2
   8   2 -11 38.2863 17.4393   1
  -8  -2  11 34.6969 9.32230   5
  -8  -2  11 23.8184 15.8682   2
   8   2 -10 729.781 31.2738   1
  -8  -2  10 791.454 26.8904   5
  -8  -2  10 818.951 37.1620   2
  -8  -2  10 842.180 42.0747   8
  -8  -2   9 10.9139 24.2674   8
   8   2  -9 7.90274 15.8847   1
  -8  -2   9 4.41917 7.97689   5
  -8  -2   9-2.44201 13.9556   2
  -8  -2   9 8.25654 11.3588   1
  -8  -2   8 439.455 32.8260   8
  -8  -2   8 384.923 16.5287   5
  -8  -2   8 380.967 21.3592   1
  -8  -2   7 102.107 23.3221   8
   8   2  -7 71.1168 16.5456   1
  -8  -2   7 84.3829 9.55523   5
  -8  -2   7 94.0245 13.4618   1
  -8  -2   7 88.2610 15.1172   4
  -8  -2   6 13.8339 20.7259   8
  -8  -2   6 12.5439 11.1091   1
   8   2  -6 2.13709 16.3072   1
  -8  -2   6 13.6215 7.36836   5
  -8  -2   6 18.3444 10.8135   4
  -8  -2   5 14.1838 10.9875   1
   8   2  -5 26.6692 15.8968   1
  -8  -2   5 31.3631 9.43736   4
   8   2  -4 332.417 21.2182   1
  -8  -2   4 349.881 16.6426   4
  -8  -2   4 321.214 18.8596   1
   8   2  -3 102.458 14.7091   5
   8   2  -3 140.593 18.2883   1
  -8  -2   3 144.845 11.5984   4
   8   2  -2 61.0633 13.6646   5
  -8  -2   2 71.9009 9.03385   4
   8   2  -1 691.539 27.2688   5
  -8  -2   1 748.240 25.9925   4
   8   2   0 453.496 21.7583   5
   8   2   0 481.429 22.8383   1
  -8  -2   0 465.951 19.9967   4
  -8  -2   0 535.889 28.4203   1
  -8  -2  -1 199.302 18.5200   7
   8   2   1 147.209 16.7021   5
   8   2   1 164.870 15.1578   1
  -8  -2  -1 171.337 22.2999   1
  -8  -2  -2 99.8500 17.5576   7
   8   2   2 81.1354 13.2730   1
  -8  -2  -2 92.9872 20.8735   1
   8   2   2 53.3247 16.2168   5
  -8  -2  -2 89.5373 15.9200   8
   8   2   2 56.7584 18.8112   4
  -8  -2  -3 3.95742 9.81541   3
  -8  -2  -3 7.19887 17.7205   7
  -8  -2  -3 14.4654 20.6294   1
   8   2   3 7.82728 11.4903   1
   8   2   3 10.3382 16.2259   5
  -8  -2  -3-14.9883 16.6084   8
   8   2   3-3.06393 18.2492   4
  -8  -2  -4 363.369 19.9457   3
  -8  -2  -4 378.139 28.1542   7
   8   2   4 350.529 21.3148   1
   8   2   4 309.560 23.9902   5
   8   2   4 352.428 25.7356   4
  -8  -2  -4 322.434 24.9274   8
  -8  -2  -4 394.262 28.5379   1
  -8  -2  -5 22.4361 12.3377   3
  -8  -2  -5-40.8481 24.2700   7
  -8  -2  -5-0.40621 22.8301   1
   8   2   5 10.6530 19.0093   5
  -8  -2  -5-15.5799 21.2471   8
   8   2   5 28.1145 12.6828   1
   8   2   5 26.0122 19.9803   4
   8   2   6 44.6503 13.6880   1
  -8  -2  -6 42.1680 13.0874   3
  -8  -2  -6 41.2923 25.1731   1
   8   2   6 48.5578 21.2511   5
  -8  -2  -6 19.5273 24.8959   8
   8   2   6 73.1259 21.6320   4
  -8  -2  -7-24.1246 27.2794   8
  -8  -2  -7-9.02351 26.5379   1
   8   2   7 4.24326 13.3447   1
  -8  -3  15 22.3528 14.5785   6
  -8  -3  15 5.72276 15.2929   2
  -8  -3  14 61.3934 16.9742   2
  -8  -3  13 100.708 18.4963   8
   8   3 -13 121.362 18.8337   1
  -8  -3  13 102.110 18.0708   2
   8   3 -12 81.6109 17.8407   1
  -8  -3  12 61.0302 9.02801   5
  -8  -3  12 63.1517 17.4824   2
   8   3 -11 100.826 17.7623   1
  -8  -3  11 108.458 9.34277   5
  -8  -3  11 117.846 18.8294   2
  -8  -3  10 809.612 24.5334   5
  -8  -3  10 831.186 37.7159   2
   8   3 -10 752.132 31.2311   1
  -8  -3  10 753.055 30.9751   1
  -8  -3   9-5.21505 12.2734   1
   8   3  -9 7.82235 15.7028   1
  -8  -3   9-0.27058 6.51923   5
  -8  -3   9 8.29992 13.2217   2
  -8  -3   8 29.3990 24.8008   8
  -8  -3   8 25.3848 12.0203   1
   8   3  -8 20.6481 15.5241   1
  -8  -3   8 13.4713 14.3532   4
  -8  -3   7 56.1192 24.5792   8
  -8  -3   7 44.3413 12.3372   1
   8   3  -7 45.7640 15.7222   1
  -8  -3   7 38.1022 13.3302   4
   8   3  -6 253.111 19.8451   1
  -8  -3   6 301.714 18.3165   4
  -8  -3   6 292.542 19.0832   1
   8   3  -5 213.033 19.8599   1
  -8  -3   5 235.080 14.3837   4
  -8  -3   5 230.680 17.4466   1
  -8  -3   4 45.7367 11.5172   1
   8   3  -4 49.0639 16.9975   1
  -8  -3   4 37.6532 8.99680   4
   8   3  -3 554.955 27.2998   1
  -8  -3   3 540.928 20.0536   4
  -8  -3   3 540.097 24.6935   1
  -8  -3   2 16.0508 7.45786   4
   8   3  -2 27.0750 12.8850   5
  -8  -3   1 0.12572 7.64280   4
   8   3  -1 21.0271 12.3634   5
   8   3   0 21.0883 11.3949   1
  -8  -3   0 23.0808 19.7858   1
   8   3   0 16.5525 13.2781   5
   8   3   1 80.9722 13.6876   1
  -8  -3  -1 73.0211 21.1839   1
   8   3   1 76.7723 15.4672   5
   8   3   1 29.0166 18.7885   4
  -8  -3  -2 47.9123 10.4022   3
  -8  -3  -2 33.8740 21.1543   1
   8   3   2 30.5991 12.2381   1
   8   3   2 22.6204 15.9571   5
  -8  -3  -2 74.9364 16.7103   8
   8   3   2 6.94047 18.0487   4
  -8  -3  -3 4.75834 9.58494   3
  -8  -3  -3-8.34177 21.1125   1
   8   3   3 8.76078 16.5219   5
   8   3   3 19.8258 11.2907   1
  -8  -3  -3-0.78228 17.1868   8
   8   3   3 0.37677 18.2374   4
  -8  -3  -4 157.071 15.8494   3
  -8  -3  -4 142.670 24.5217   7
   8   3   4 137.585 16.2605   1
  -8  -3  -4 150.801 25.0786   1
   8   3   4 116.701 19.8692   5
  -8  -3  -4 80.8559 20.8989   8
   8   3   4 149.461 22.1242   4
  -8  -3  -5 2.47978 11.8317   3
  -8  -3  -5-25.3869 24.4044   7
   8   3   5 9.88623 13.4018   1
  -8  -3  -5 7.48418 25.1005   1
   8   3   5 15.8558 19.5645   5
  -8  -3  -5-47.2713 23.3352   8
   8   3   5 13.2054 20.4956   4
  -8  -3  -6 18.2586 13.3893   3
  -8  -3  -6 6.18935 25.8298   1
   8   3   6 16.3916 14.0137   1
   8   3   6 9.09443 20.6978   5
   8   3   6 49.8226 25.5790   4
   8   3   7 1.81967 14.4667   1
  -8  -3  -7-3.21860 27.7614   1
  -8  -4  15 471.392 28.8063   6
  -8  -4  14 24.0738 16.0290   2
  -8  -4  13 72.2163 18.1024   8
   8   4 -13 79.5529 18.6992   1
  -8  -4  13 93.9959 18.9366   2
  -8  -4  12 3.94530 15.1229   8
  -8  -4  12 7.70063 15.7591   2
   8   4 -12 12.4578 17.1676   1
  -8  -4  11 57.6382 17.5733   8
  -8  -4  11 52.2867 17.2071   2
   8   4 -11 57.9568 17.4320   1
  -8  -4  10-2.32608 12.3534   1
  -8  -4  10 6.50811 13.7883   2
   8   4 -10 19.9415 16.8510   1
  -8  -4   9-7.88896 11.9789   1
   8   4  -9 12.5267 16.8086   1
  -8  -4   9-25.6298 16.5888   4
  -8  -4   8 319.777 22.1229   4
   8   4  -8 252.486 20.6394   1
  -8  -4   8 264.818 19.0608   1
  -8  -4   7 10.6762 11.5746   1
   8   4  -7 15.4413 15.8320   1
  -8  -4   7-15.7540 12.5508   4
  -8  -4   6 376.038 19.0205   4
   8   4  -6 317.146 21.8753   1
  -8  -4   6 376.460 21.8781   1
  -8  -4   5 392.223 18.4411   4
   8   4  -5 344.874 23.1294   1
  -8  -4   5 377.546 22.2565   1
  -8  -4   4-2.16092 8.02143   4
   8   4  -4-0.33070 16.9358   1
  -8  -4   4 1.82149 11.3199   1
   8   4  -4-11.3764 12.4182   5
  -8  -4   3 0.11451 7.23791   4
   8   4  -3 0.17228 18.0335   1
  -8  -4   3-2.75551 11.0788   1
   8   4  -3-15.3156 12.6004   5
   8   4  -2 97.8559 13.3108   5
  -8  -4   2 125.766 11.0725   4
   8   4  -1 384.156 18.9777   5
  -8  -4   0 16.9547 8.85173   7
   8   4   0 6.20012 11.6055   1
  -8  -4   0 21.2165 21.3231   1
   8   4   0 3.75984 13.2045   5
  -8  -4  -1 17.3321 9.86550   3
  -8  -4  -1 7.08320 9.39541   7
  -8  -4  -1 0.77822 20.4094   1
   8   4   1-8.33083 14.3007   5
   8   4   1-5.82619 11.7380   1
  -8  -4  -1 41.6846 17.4877   8
  -8  -4  -2 67.1787 11.9259   3
  -8  -4  -2 42.1684 12.0648   7
  -8  -4  -2 68.0639 22.6630   1
   8   4   2 39.1182 15.9121   5
  -8  -4  -2 113.484 19.0702   8
   8   4   2 60.1674 13.4064   1
   8   4   2 1.26439 18.0639   4
   8   4   3 49.6324 14.0235   1
  -8  -4  -3 31.4342 12.1644   3
  -8  -4  -3 43.2684 22.5959   1
   8   4   3 24.9915 16.2512   5
  -8  -4  -3 58.9496 20.8423   8
   8   4   3 15.9705 17.9846   4
  -8  -4  -4 18.4966 12.8848   3
   8   4   4 11.2761 13.3614   1
  -8  -4  -4 29.8487 24.2423   1
   8   4   4 8.88153 16.9798   5
  -8  -4  -4 16.4438 21.2458   8
   8   4   4 4.04174 18.9074   4
  -8  -4  -5 25.6716 13.2593   3
  -8  -4  -5 28.1007 26.4089   1
   8   4   5 25.4530 15.9628   1
   8   4   5 26.9103 19.3590   5
  -8  -4  -5-21.1292 24.7777   8
   8   4   5 56.2396 21.0899   4
  -8  -4  -6 43.6837 28.2159   1
  -8  -5  14 20.4874 17.8642   2
  -8  -5  13-1.01124 16.9724   2
  -8  -5  12 11.3428 16.6964   8
   8   5 -12-27.4743 19.2522   1
  -8  -5  12-0.97825 15.6569   2
  -8  -5  11 95.4463 15.2050   1
  -8  -5  11 107.869 20.9964   8
   8   5 -11 121.598 20.3294   1
  -8  -5  11 97.4637 17.9279   2
  -8  -5  10 492.138 32.5596   8
   8   5 -10 436.285 26.3586   1
  -8  -5  10 498.255 29.8157   4
  -8  -5  10 452.704 24.1012   1
  -8  -5   9-0.99585 16.1559   8
  -8  -5   9 6.49673 13.1624   1
   8   5  -9 16.1984 18.0361   1
  -8  -5   9-3.74541 14.4642   4
   8   5  -8 623.557 30.3139   1
  -8  -5   8 716.970 31.6511   1
   8   5  -7 72.7848 18.6226   1
  -8  -5   7 97.1447 14.9993   1
  -8  -5   7 92.6689 12.3579   4
   8   5  -6 32.8853 18.7150   1
  -8  -5   6 51.3558 13.9057   1
  -8  -5   6 47.4911 10.2030   4
  -8  -5   5 159.295 16.8818   1
   8   5  -5 103.937 19.9016   1
  -8  -5   5 145.573 11.5252   4
  -8  -5   4 288.749 20.6018   1
   8   5  -4 247.251 23.5363   1
  -8  -5   4 291.658 14.7131   4
  -8  -5   3 45.3197 8.81052   4
   8   5  -3 36.7352 19.8236   1
   8   5  -3 14.1533 11.6056   5
  -8  -5   3 54.3732 13.2803   1
   8   5  -2 63.1805 12.0840   5
  -8  -5   2 59.9021 13.4602   1
   8   5  -2 50.4369 21.0920   1
  -8  -5   1 40.3600 10.1030   7
   8   5  -1 38.1755 11.6837   5
  -8  -5   0 8.84418 9.32302   3
  -8  -5   0 12.9310 9.23939   7
   8   5   0 5.09431 13.0959   5
  -8  -5   0 16.5624 23.0658   1
   8   5   1 2.16348 11.4092   1
  -8  -5  -1 14.0186 9.91687   3
  -8  -5  -1-2.58486 9.70590   7
   8   5   1-3.34111 13.8563   5
  -8  -5  -1 7.82984 22.4398   1
  -8  -5  -2 20.2030 11.2511   3
   8   5   2 14.9478 13.2088   1
  -8  -5  -2 8.10264 10.6498   7
  -8  -5  -2 6.90769 23.2622   1
   8   5   2 18.5292 15.4038   5
   8   5   2-21.7398 19.0322   4
  -8  -5  -3 17.7736 11.4557   7
  -8  -5  -3 22.8136 12.0353   3
   8   5   3 25.1124 14.3014   1
  -8  -5  -3 32.5362 23.6702   1
   8   5   3 22.0263 16.6865   5
  -8  -5  -3 51.3464 22.2603   8
   8   5   3-11.5564 18.4758   4
  -8  -5  -4 45.5490 14.1039   3
  -8  -5  -4 40.2652 26.2089   1
   8   5   4 48.5929 18.5674   5
  -8  -5  -4 29.2715 23.7158   8
   8   5   4 41.4749 16.7189   1
   8   5   4 32.9958 20.0972   4
  -8  -5  -5 9.08145 13.8614   3
   8   5   5 20.3311 19.7052   5
   8   5   5 20.8722 21.1081   4
  -8  -6  12 14.7807 15.9085   2
  -8  -6  12 26.3114 12.3718   1
  -8  -6  11-6.94887 12.7981   1
  -8  -6  11 15.4297 18.7199   8
  -8  -6  11-29.3464 16.5988   4
  -8  -6  10 158.470 24.9316   8
  -8  -6  10 105.637 16.2532   1
   8   6 -10 165.089 20.4051   1
  -8  -6  10 136.957 17.5884   4
  -8  -6   9 342.464 28.8599   8
   8   6  -9 354.164 24.8862   1
  -8  -6   9 334.876 23.0106   1
  -8  -6   8 0.69823 17.2176   8
  -8  -6   8-8.86402 14.9453   1
   8   6  -8 1.69024 18.5910   1
  -8  -6   8 21.5343 10.0901   4
  -8  -6   7 57.4448 15.1592   1
   8   6  -7 49.8229 19.0003   1
  -8  -6   7 58.3024 10.5001   4
  -8  -6   6 203.502 19.0338   1
   8   6  -6 164.712 20.6817   1
  -8  -6   6 200.694 12.6785   4
  -8  -6   5-9.28381 8.01397   4
  -8  -6   5 4.33864 13.2496   1
  -8  -6   4 22.0972 13.4755   1
   8   6  -4 67.5382 18.3448   1
   8   6  -3 8.48926 10.6388   5
  -8  -6   3 43.4160 13.6022   1
  -8  -6   2 171.986 17.8190   1
   8   6  -2 126.326 12.9854   5
  -8  -6   1 17.9655 9.48495   3
  -8  -6   1 2.24714 10.0214   7
   8   6  -1 15.1675 11.3008   5
  -8  -6   0 40.4633 11.2051   3
  -8  -6   0 46.4939 12.0523   7
   8   6   0 25.4566 13.1745   5
  -8  -6  -1 52.3960 12.7635   7
  -8  -6  -1 64.4345 12.6209   3
   8   6   1 59.4764 14.8470   1
   8   6   1 37.7248 14.8409   5
  -8  -6  -1 62.1959 25.2942   1
  -8  -6  -1 114.492 22.2157   8
  -8  -6  -2 15.6952 11.7738   7
  -8  -6  -2 23.2494 11.9575   3
   8   6   2 10.2406 15.8256   5
   8   6   2 25.4447 14.8745   1
  -8  -6  -2 36.0575 25.1130   1
  -8  -6  -2 80.3166 22.5976   8
   8   6   2-27.6778 19.8471   4
  -8  -6  -3-11.4142 12.6804   3
   8   6   3-1.51555 16.7794   5
   8   6   3-34.0610 19.7936   4
  -8  -6  -4 8.82421 13.1958   3
   8   6   4 6.53429 18.6493   5
   8   6   4-25.4461 20.1605   4
   8   7 -11 170.342 23.6395   1
  -8  -7  11 159.301 17.5139   1
  -8  -7  10 5.80735 19.3846   8
   8   7 -10 48.5289 20.4945   1
  -8  -7  10 6.03999 13.7904   1
  -8  -7   9 145.677 23.6018   8
   8   7  -9 192.680 23.0174   1
  -8  -7   9 140.518 18.6298   1
  -8  -7   8 13.2167 17.6344   8
  -8  -7   8 21.1312 15.3511   1
  -8  -7   8 16.6171 8.74154   4
   8   7  -7 121.568 21.5501   1
  -8  -7   7 94.8706 17.9256   1
  -8  -7   7 101.258 9.87386   4
  -8  -7   6 4.04740 7.49132   4
  -8  -7   6 5.26048 14.1377   1
   8   7  -5 33.6209 21.0087   1
  -8  -7   5-7.50034 14.3887   1
   8   7  -4 99.8728 23.1728   1
  -8  -7   4 86.6789 16.9306   1
  -8  -7   3 13.8039 8.62023   3
  -8  -7   3 13.7519 14.0436   1
  -8  -7   2 127.718 11.8348   3
  -8  -7   2 125.574 14.2636   7
   8   7  -2 148.985 26.5265   1
  -8  -7   2 94.3305 16.4349   1
  -8  -7   1 23.8203 11.7758   7
  -8  -7   1 20.8896 10.4537   3
   8   7  -1 33.8994 26.6145   1
  -8  -7   0 1.31742 11.3435   7
  -8  -7   0 11.5681 10.6179   3
  -8  -7  -1 3.90619 11.6150   7
  -8  -7  -1-1.35741 10.9232   3
  -8  -8  10 34.8662 15.4039   1
   8   8 -10 55.6211 31.5682   1
  -8  -8   9 19.4241 15.0438   1
   8   8  -9 21.0823 24.1372   1
  -8  -8   8 8.42296 17.7228   8
  -8  -8   8 4.65825 14.8881   1
   8   8  -8 13.7820 23.7173   1
  -8  -8   7 5.58164 15.1819   1
   8   8  -7 26.9852 24.0968   1
  -8  -8   6 63.1740 17.2639   1
   8   8  -6 67.6058 25.1191   1
  -8  -8   5 6.49840 14.6323   1
   8   8  -5 4.71061 23.8686   1
  -8  -8   4 74.5853 17.1613   1
   8   8  -4 80.8334 26.5127   1
  -8  -8   3 19.0481 12.0617   7
  -8  -8   3 11.1543 15.0506   1
   8   8  -3-2.47290 25.3817   1
  -8  -8   2 0.42967 11.4323   7
  -8  -8   1 25.2224 13.0507   7
  -8  -9   9 99.1151 18.2973   1
   8   9  -9 33.5391 28.0900   1
  -8  -9   8-0.57838 15.2991   1
   8   9  -8-26.2862 27.7566   1
   8   9  -7-37.6237 28.2533   1
  -8  -9   7 8.38100 15.6923   1
  -8  -9   5 72.7996 14.0070   7
  -8  -9   4 28.9878 12.4986   7
  -8  -9   3 25.0641 12.7435   7
   9 -11  -2-15.8678 17.3677   2
  -9  10   7 6.47564 25.1821   4
  -9  10   6 313.180 27.6853   4
  -9  10   5 119.456 21.9001   4
   9 -10  -4 2.35731 16.2537   2
  -9  10   4 26.5640 18.1832   4
   9 -10  -3 13.6922 16.8065   2
  -9  10   3 8.41378 18.1759   4
  -9  10   2 17.2215 17.1039   4
   9 -10  -2 16.2171 15.8058   2
  -9  10   1 50.1788 17.1872   4
   9 -10  -1 30.6556 17.7320   1
   9 -10  -1 31.2457 15.3920   2
  -9  10   0 36.0086 18.3484   4
   9 -10   0 44.7684 17.5430   1
  -9  10  -1 617.244 30.3574   4
   9 -10   1 590.084 32.9299   1
   9 -10   2 1.39404 16.6150   1
  -9   9   8 49.4940 29.3926   4
  -9   9   7 28.7546 25.9271   4
   9  -9  -6 12.8683 17.5484   2
  -9   9   6 9.80072 23.1680   4
   9  -9  -5 43.9713 16.8950   1
   9  -9  -5 45.0137 18.7212   2
  -9   9   5 53.5017 22.0727   4
   9  -9  -4 83.1401 17.6530   1
  -9   9   4 49.2149 23.7392   5
   9  -9  -4 99.0186 19.2825   2
  -9   9   4 95.3895 20.2246   4
   9  -9  -3 22.2059 15.8936   1
  -9   9   3 22.5989 22.1968   5
   9  -9  -3 28.8362 16.2924   2
  -9   9   3 23.5527 17.5140   4
   9  -9  -2 63.3252 17.1973   1
  -9   9   2 56.1803 21.9768   5
   9  -9  -2 75.5391 16.3984   2
  -9   9   2 59.4709 17.7121   4
  -9   9   1 266.427 25.7491   5
   9  -9  -1 269.276 20.2186   2
  -9   9   1 280.006 21.1671   4
   9  -9  -1 318.659 24.2798   1
  -9   9   0-10.5567 17.0780   4
   9  -9   0 4.73653 15.7568   1
  -9   9   0-5.05603 19.7097   5
  -9   9  -1 31.4603 18.7739   4
   9  -9   1 17.9123 15.6275   1
   9  -9   2 34.6224 15.5412   1
   9  -9   3 288.882 21.7606   1
   9  -8 -11 141.080 17.1986   8
  -9   8  10-16.2880 19.0883   8
  -9   8   9 52.4718 23.1333   6
  -9   8   9-1.36465 17.9977   8
   9  -8  -8 28.8459 30.5324   1
  -9   8   8 51.1420 22.7429   6
  -9   8   8 21.7382 13.1474   5
   9  -8  -8 27.3304 16.6721   2
  -9   8   8 9.61100 16.8247   8
  -9   8   7 97.1605 22.1234   6
  -9   8   7 91.1483 16.1516   5
   9  -8  -7 84.1420 18.6679   2
  -9   8   7 38.6025 15.9858   8
  -9   8   7 66.9608 27.0767   4
  -9   8   6 150.606 21.6198   6
   9  -8  -6 181.384 21.6098   2
  -9   8   6 144.593 15.9652   8
  -9   8   6 164.744 26.5879   4
   9  -8  -5 9.61527 14.4167   1
  -9   8   5 26.8982 18.4316   6
   9  -8  -5 15.4008 15.8073   2
  -9   8   5-8.62387 12.9345   8
  -9   8   5-2.93848 19.6211   4
  -9   8   4 316.493 23.2067   6
   9  -8  -4 377.993 25.1436   2
  -9   8   4 349.740 24.3373   4
  -9   8   4 326.201 15.0097   8
   9  -8  -4 356.112 24.6903   1
   9  -8  -3 13.0669 14.6900   1
  -9   8   3 29.7529 17.1486   6
   9  -8  -3 18.8643 13.4729   2
  -9   8   3 29.4611 16.1978   4
   9  -8  -2 96.5191 18.0593   1
  -9   8   2 96.0904 17.6440   6
  -9   8   2 61.8613 21.7449   5
   9  -8  -2 75.6070 14.8973   2
  -9   8   2 86.9925 17.8641   4
  -9   8   1 11.3497 15.9050   4
   9  -8  -1-3.70945 14.7093   1
  -9   8   1 15.1719 15.2413   6
  -9   8   1 2.62269 20.0855   5
  -9   8   0 133.202 13.1342   7
  -9   8   0 148.814 16.3238   6
   9  -8   0 113.280 18.4182   1
  -9   8   0 114.268 21.4729   5
  -9   8   0 137.692 18.3791   4
  -9   8  -1 64.6587 18.7027   4
   9  -8   1 78.6231 16.8704   1
  -9   8  -1 65.5800 20.1644   5
   9  -8   2 39.8885 14.5103   1
   9  -8   2 22.0743 16.4617   5
  -9   8  -2 22.3785 19.2218   5
   9  -8   3 5.61576 12.6045   1
   9  -8   4 41.5879 13.0055   1
   9  -7 -12 205.455 19.9604   8
  -9   7  12 202.222 25.8015   8
   9  -7 -11 17.9171 13.2644   8
  -9   7  11 66.6009 21.5963   8
   9  -7 -10-9.88785 29.2929   1
  -9   7  10 26.4613 23.5704   6
  -9   7  10-5.40867 12.4109   5
  -9   7  10 45.7708 18.9632   8
   9  -7  -9 19.0422 29.1041   1
  -9   7   9 27.5522 22.5955   6
  -9   7   9 1.35767 12.2242   5
   9  -7  -9 7.61306 13.9320   2
  -9   7   9 34.6170 18.5681   8
   9  -7  -8-3.86802 29.6681   1
  -9   7   8 46.9067 21.6794   6
  -9   7   8 18.6871 12.7879   5
   9  -7  -8 16.6478 14.7208   2
  -9   7   8 35.1316 16.9241   8
   9  -7  -7-16.8075 29.5148   1
  -9   7   7 25.8987 19.8577   6
  -9   7   7 6.67812 12.3936   5
   9  -7  -7 0.57439 14.8278   2
  -9   7   7-26.2095 26.2925   4
  -9   7   7 30.3052 16.4481   8
  -9   7   6 600.632 30.3942   6
  -9   7   6 548.486 29.0646   5
   9  -7  -6 654.803 31.7844   2
  -9   7   6 708.439 35.7622   4
  -9   7   6 618.341 26.0431   8
  -9   7   5 82.2064 19.1531   6
  -9   7   5 76.1247 13.9627   5
   9  -7  -5 91.9516 16.0606   2
  -9   7   5 105.548 15.0696   8
  -9   7   5 72.4050 20.7207   4
   9  -7  -4 37.1108 14.7984   1
  -9   7   4 47.7098 17.6942   6
   9  -7  -4 40.9404 13.1838   2
  -9   7   4 57.3190 12.5943   8
  -9   7   4 25.4996 17.4006   4
   9  -7  -3 105.056 16.4318   1
  -9   7   3 96.9282 17.6779   6
  -9   7   3 120.755 17.1469   4
  -9   7   3 101.529 11.5494   8
  -9   7   2 519.118 25.0187   6
  -9   7   2 519.485 25.7836   4
   9  -7  -2 495.214 27.7240   1
  -9   7   1 91.8973 16.4829   4
   9  -7  -1 92.6695 15.8468   1
  -9   7   0-5.03441 14.2192   4
  -9   7   0 5.15068 14.5873   6
   9  -7   0-2.39561 12.7780   1
  -9   7  -1 100.313 16.9021   4
  -9   7  -1 112.439 14.3904   7
  -9   7  -1 102.638 14.8294   6
   9  -7   1 97.3781 16.0330   1
  -9   7  -1 103.503 20.3947   5
   9  -7   2 245.225 18.9693   1
  -9   7  -2 196.133 16.7958   7
   9  -7   2 198.307 21.3614   5
  -9   7  -2 219.862 23.0807   5
  -9   7  -2 183.037 21.7011   4
   9  -7   3 43.5878 15.3432   5
   9  -7   3 43.8883 13.2958   1
   9  -7   4 14.4051 11.4831   1
  -9   7  -5 149.561 24.4877   3
   9  -7   5 42.6279 11.7255   1
   9  -6 -12 74.6424 15.8466   8
   9  -6 -12 57.3263 28.3842   1
  -9   6  12 112.708 24.9433   8
   9  -6 -11 64.6675 28.4601   1
  -9   6  11 88.6150 25.2553   6
  -9   6  11 56.0863 13.6556   5
  -9   6  11 87.6139 23.5047   8
   9  -6 -10 3.82827 26.5627   1
  -9   6  10 57.5437 24.0872   6
  -9   6  10 13.4696 12.3124   5
  -9   6  10 43.2492 20.7328   8
   9  -6  -9 66.3182 28.4263   1
  -9   6   9 80.4376 22.8198   6
  -9   6   9 36.7456 13.2212   5
   9  -6  -9 33.3464 13.3994   2
  -9   6   9 40.3528 18.9691   8
   9  -6  -8 28.9605 26.5069   1
  -9   6   8 17.0236 20.7398   6
  -9   6   8 15.8230 12.6764   5
   9  -6  -8 7.98756 12.7809   2
  -9   6   8 18.0089 17.4076   8
  -9   6   7 628.898 32.5409   6
  -9   6   7 599.110 29.6766   5
   9  -6  -7 601.970 29.9950   2
  -9   6   7 724.419 38.7616   4
  -9   6   7 588.162 28.3808   8
   9  -6  -7 709.283 38.7091   1
  -9   6   6 16.4368 18.9243   6
  -9   6   6-2.18254 11.2589   5
  -9   6   6-16.1611 22.4189   4
  -9   6   6-8.06702 15.9053   8
  -9   6   5 478.649 27.3205   6
  -9   6   5 465.634 24.7235   5
  -9   6   5 438.256 23.0742   8
   9  -6  -4 101.019 15.4089   1
  -9   6   4 76.6217 19.1474   6
  -9   6   4 77.0815 12.5839   5
  -9   6   4 92.0975 18.5751   4
  -9   6   4 60.3148 14.6200   8
  -9   6   3 136.791 19.0443   6
  -9   6   3 118.934 14.3043   5
  -9   6   3 155.280 17.5247   4
   9  -6  -3 161.773 17.2092   1
  -9   6   3 111.938 13.8302   8
   9  -6  -2 13.9985 12.6614   1
  -9   6   2 10.2248 16.7887   6
  -9   6   2-6.12111 11.0101   5
  -9   6   2-6.61634 11.0856   8
  -9   6   2 23.4218 14.6007   4
  -9   6   1 10.6529 13.9422   4
  -9   6   1 1.86451 16.0026   6
   9  -6  -1-2.73823 12.6945   1
  -9   6   1-8.21487 8.75572   8
  -9   6   0 103.055 17.1750   6
  -9   6   0 123.896 16.3491   4
   9  -6   0 115.507 15.6850   1
  -9   6  -1 61.2056 16.0370   4
  -9   6  -1 84.0342 14.4403   7
  -9   6  -1 53.7747 15.6620   6
   9  -6   1 71.6515 13.9922   1
   9  -6   2 118.379 15.3761   1
  -9   6  -2 110.839 16.2336   7
  -9   6  -2 91.5071 15.3889   6
  -9   6  -3 83.4139 16.6805   7
   9  -6   3 99.1653 14.0348   1
   9  -6   4 5.69558 13.7996   5
   9  -6   4 5.61665 10.8334   1
   9  -6   5 65.5500 12.2520   1
  -9   6  -5 109.425 22.0769   3
   9  -5 -13 45.2354 25.8012   1
  -9   5  13 29.3484 26.2232   8
   9  -5 -12-5.90275 25.7919   1
  -9   5  12 5.74173 11.9088   5
  -9   5  12 15.0694 24.2664   8
   9  -5 -11 43.0088 24.9091   1
  -9   5  11 40.6706 24.4146   6
  -9   5  11 15.6769 11.7997   5
  -9   5  11 16.4930 22.5600   8
   9  -5 -10 29.7802 24.4603   1
  -9   5  10 51.6251 23.5993   6
  -9   5  10 20.0433 11.8964   5
  -9   5  10 26.9209 21.8974   8
   9  -5  -9 13.3070 22.8358   1
  -9   5   9 30.1111 23.0546   6
  -9   5   9 16.7310 11.1874   5
  -9   5   9-3.61744 21.0550   8
   9  -5  -8-0.22731 22.2275   1
  -9   5   8-6.16488 21.4595   6
  -9   5   8-7.20689 11.6106   5
  -9   5   8-15.7515 19.5265   8
  -9   5   7 827.579 37.0115   6
  -9   5   7 801.997 34.5480   5
  -9   5   7 835.126 34.9160   8
   9  -5  -7 929.360 40.9542   1
  -9   5   6 71.1228 17.7170   8
   9  -5  -6 64.8076 23.5310   1
  -9   5   6 49.8885 21.1751   6
  -9   5   6 66.7169 13.5137   5
  -9   5   6 52.3019 22.1141   4
  -9   5   5 43.9687 15.7302   8
  -9   5   5 25.6132 19.8262   6
  -9   5   5 36.8658 11.7402   5
  -9   5   5 35.4319 19.8936   4
  -9   5   4 88.4790 15.7770   8
   9  -5  -4 96.1356 14.7240   1
  -9   5   4 78.9031 19.4884   6
  -9   5   4 80.1155 12.5435   5
  -9   5   4 86.9171 18.3656   4
  -9   5   3 55.6827 14.2699   8
   9  -5  -3 82.4861 13.9950   1
  -9   5   3 75.0724 18.3319   6
  -9   5   3 56.0093 12.0841   5
  -9   5   3 86.3721 16.4805   4
  -9   5   2 370.015 20.4051   5
  -9   5   2 388.753 22.3512   4
  -9   5   2 308.719 17.9333   8
   9  -5  -2 399.836 22.4396   1
  -9   5   1 28.7571 14.4396   4
  -9   5   1 3.33330 11.4581   8
   9  -5  -1 8.89537 12.1846   1
   9  -5  -1-1.21239 24.7424   5
  -9   5   1 12.9843 9.91040   5
   9  -5   0 836.915 32.3428   1
   9  -5   0 933.839 40.9567   5
  -9   5   0 744.725 29.6043   5
  -9   5   0 766.319 22.4483   8
  -9   5   0 731.728 29.5235   4
  -9   5   0 650.258 23.7845   8
  -9   5  -1 16.2311 14.8918   4
  -9   5  -1 5.13088 9.90501   8
  -9   5  -1 30.5262 14.1852   7
   9  -5   1-13.9866 23.9717   5
   9  -5   1 11.1469 11.6613   1
  -9   5  -1 15.2337 10.5269   5
  -9   5  -1-2.35385 9.16207   8
  -9   5  -2-16.4943 16.2052   4
  -9   5  -2-6.56774 9.62178   8
  -9   5  -2 17.0633 15.1052   7
   9  -5   2-14.5827 24.6946   5
   9  -5   2-0.95352 11.1874   1
  -9   5  -2 11.8625 9.67098   8
  -9   5  -3 2.18212 9.42747   8
  -9   5  -3 8.43830 16.1241   7
   9  -5   3 2.54833 10.6781   1
  -9   5  -3-4.23543 10.6962   8
  -9   5  -4 210.920 21.1253   7
   9  -5   4 203.391 16.2363   1
  -9   5  -5 202.340 23.7427   3
   9  -5   5 172.299 14.9268   1
   9  -5   5 157.977 18.5674   4
   9  -4 -14-14.6479 24.2899   1
   9  -4 -13 8.80824 23.5667   1
  -9   4  13-4.08981 11.6096   5
  -9   4  13-19.8263 33.8638   8
  -9   4  12 561.533 36.2940   8
   9  -4 -12 547.315 32.6309   1
   9  -4 -11 23.8616 21.7857   1
  -9   4  11 35.8301 25.5028   6
  -9   4  11 14.4550 11.5589   5
  -9   4  11-0.94164 25.7370   8
   9  -4 -10 94.5902 22.0764   1
  -9   4  10 92.5452 25.5034   6
  -9   4  10 81.0776 13.3131   5
  -9   4  10 61.6808 24.7438   8
  -9   4   9 65.2646 22.3314   8
   9  -4  -9 55.2844 21.9726   1
  -9   4   9 47.9228 24.1428   6
  -9   4   9 84.1650 22.0411   2
  -9   4   9 40.5969 12.1438   5
  -9   4   8 769.068 36.8841   6
  -9   4   8 733.925 33.9684   2
  -9   4   8 632.408 29.9496   5
  -9   4   8 671.843 33.9141   8
   9  -4  -8 713.853 35.1016   1
  -9   4   7 28.8067 19.8439   8
   9  -4  -7 24.7687 21.6389   1
  -9   4   7 6.80104 21.6260   6
  -9   4   7 27.7843 19.7797   2
  -9   4   7 27.4201 12.2108   5
  -9   4   6 43.0851 19.0079   8
   9  -4  -6 33.1064 21.1061   1
  -9   4   6 63.0303 19.8740   2
  -9   4   6 39.9083 12.7557   5
  -9   4   6 37.9196 22.2565   4
  -9   4   5 733.571 31.7253   2
  -9   4   5 670.023 29.1402   5
  -9   4   5 727.259 34.7805   4
  -9   4   5 686.767 30.7644   8
  -9   4   4 28.6210 16.4976   8
  -9   4   4 51.6572 17.7115   2
  -9   4   4 31.8521 11.4854   5
  -9   4   4 32.5373 17.4126   4
  -9   4   3 6.99206 14.6652   8
   9  -4  -3 10.6113 11.2239   1
  -9   4   3 0.44144 16.2377   2
  -9   4   3-1.52700 10.6536   5
  -9   4   3 8.10515 14.6832   4
   9  -4  -2 310.532 19.7960   1
  -9   4   2 358.003 22.0039   2
   9  -4  -2 293.451 27.7470   5
  -9   4   2 308.697 18.7352   5
  -9   4   2 313.125 20.9652   4
  -9   4   2 261.468 19.9121   8
  -9   4   1 47.6430 15.1690   4
  -9   4   1 34.3224 15.1981   8
  -9   4   1 43.5623 17.2967   2
   9  -4  -1 28.0088 21.9849   5
   9  -4  -1 54.7645 12.9871   1
  -9   4   1 34.8036 10.7402   5
  -9   4   0 93.1896 15.5650   4
  -9   4   0 78.6461 15.0284   8
  -9   4   0 125.427 18.5125   2
  -9   4   0 87.6125 12.1638   5
   9  -4   0 86.7218 22.7743   5
   9  -4   0 85.2184 14.0399   1
  -9   4  -1 76.1777 15.6006   4
  -9   4  -1 87.3735 14.4590   8
  -9   4  -1 81.6376 15.5129   7
  -9   4  -1 112.628 16.6581   2
   9  -4   1 59.6997 22.9829   5
   9  -4   1 74.2502 12.8465   1
  -9   4  -1 62.4289 11.7334   8
  -9   4  -2 541.434 25.1156   7
   9  -4   2 499.478 23.3829   1
   9  -4   2 529.798 32.2466   5
  -9   4  -2 418.495 19.3466   8
  -9   4  -2 466.806 25.8598   4
   9  -4   3 16.3083 10.9865   1
  -9   4  -3 15.4278 16.9047   7
   9  -4   3 16.7579 23.4499   5
  -9   4  -3 27.1315 12.8415   8
   9  -4   4 69.0808 12.5579   1
  -9   4  -4 77.9898 19.1895   7
   9  -4   4 78.7984 24.5204   5
   9  -4   4 50.8658 14.6528   4
  -9   4  -4 58.8184 14.8331   8
   9  -4   5 150.348 14.1258   1
   9  -4   5 141.701 17.5110   4
   9  -4   6 24.9350 10.3703   1
  -9   3  14 187.566 17.4427   5
   9  -3 -14 294.732 26.9073   1
  -9   3  13 94.7335 15.8468   6
   9  -3 -13 99.7263 23.7232   1
  -9   3  13 60.3163 13.3025   5
  -9   3  13 72.4157 30.1610   8
  -9   3  12 112.247 15.1846   2
   9  -3 -12 118.213 23.1598   1
  -9   3  12 81.0423 13.4191   5
  -9   3  12 62.4503 28.7920   8
  -9   3  11 220.231 18.0813   2
  -9   3  11 262.976 29.0298   8
   9  -3 -11 201.605 23.3472   1
  -9   3  10 109.747 25.1187   8
   9  -3 -10 111.829 22.0529   1
  -9   3  10 99.2603 27.5649   6
  -9   3  10 69.2561 13.0074   5
  -9   3   9 39.7742 23.4274   8
   9  -3  -9 37.8201 19.7160   1
  -9   3   9 9.98678 24.5525   6
  -9   3   9 14.6995 10.7665   5
  -9   3   8 177.936 24.6655   8
  -9   3   8 184.394 24.0515   2
   9  -3  -8 162.114 22.9102   1
  -9   3   8 169.993 16.2180   5
  -9   3   7 538.172 30.3707   2
  -9   3   7 495.923 24.4757   5
  -9   3   7 469.962 29.4336   8
   9  -3  -7 486.053 29.0424   1
  -9   3   6-1.27089 19.1227   8
   9  -3  -6-8.45848 20.0677   1
  -9   3   6-5.51681 20.0126   2
  -9   3   6 5.36089 10.5657   5
  -9   3   5 548.665 29.1468   2
  -9   3   5 523.644 24.6455   5
  -9   3   5 534.278 28.5333   8
  -9   3   4 112.049 20.4137   8
  -9   3   4 114.121 13.9185   5
  -9   3   4 135.190 19.9538   2
  -9   3   3 449.093 25.9068   8
   9  -3  -3 391.046 21.3289   1
  -9   3   3 364.983 23.6293   2
  -9   3   3 384.265 20.8450   5
  -9   3   2 22.1493 17.2029   8
   9  -3  -2 20.5404 20.2723   5
  -9   3   2 32.7314 16.5809   2
   9  -3  -2 23.7091 11.4571   1
  -9   3   2 40.5544 10.9982   5
  -9   3   1 1447.11 44.0916   8
   9  -3  -1 1349.11 44.9478   1
  -9   3   1 1372.80 44.5409   2
   9  -3  -1 1378.09 48.4097   5
  -9   3   1 1299.70 43.6649   5
   9  -3   0 420.163 22.0842   1
  -9   3   0 469.716 25.0970   2
   9  -3   0 422.869 27.8643   5
  -9   3   0 375.847 22.0211   4
  -9   3  -1 11.4851 14.9062   4
  -9   3  -1 7.89678 16.9137   2
   9  -3   1 7.46823 19.7683   5
  -9   3  -1 33.4236 12.7233   8
   9  -3   1 15.1356 11.0041   1
   9  -3   2 67.1926 12.2088   1
  -9   3  -2 64.1169 17.2139   4
  -9   3  -2 78.4339 15.9376   7
  -9   3  -2 74.7309 17.2821   2
   9  -3   2 79.5881 21.9909   5
  -9   3  -2 75.1935 14.0560   8
   9  -3   3 48.9928 11.8629   1
  -9   3  -3 46.6341 17.9381   7
  -9   3  -3 77.6882 15.4569   2
   9  -3   3 38.1498 22.5171   5
  -9   3  -3 36.1544 14.7219   8
   9  -3   3 35.1148 13.8234   4
  -9   3  -4 246.307 23.0360   7
   9  -3   4 233.436 25.3761   5
   9  -3   4 232.588 16.4412   1
   9  -3   4 196.577 19.0216   4
  -9   3  -4 227.288 19.1096   8
  -9   3  -5 29.1049 21.7206   3
  -9   3  -5-27.6071 21.1808   7
   9  -3   5 5.07361 9.93161   1
   9  -3   5 33.5839 22.8666   5
   9  -3   5 3.08729 12.1646   4
  -9   3  -5 6.61163 17.1258   8
   9  -3   6 30.9577 10.7257   1
  -9   2  15 15.3055 11.6978   5
   9  -2 -14 133.838 25.2099   1
  -9   2  14 71.0845 13.1023   5
   9  -2 -13 380.939 26.7856   1
  -9   2  13 327.634 22.7496   6
  -9   2  13 336.061 22.3033   2
  -9   2  13 391.966 36.2870   8
  -9   2  12 60.3030 27.9555   8
  -9   2  12 16.1117 14.2288   6
   9  -2 -12 29.7535 20.4849   1
  -9   2  12 24.8077 13.0778   2
  -9   2  12 8.03967 10.0501   5
   9  -2 -11 175.629 22.6962   1
  -9   2  11 210.780 29.1379   8
  -9   2  11 188.498 18.4769   2
  -9   2  11 147.291 15.0513   5
   9  -2 -10 240.749 22.8710   1
  -9   2  10 198.195 16.9653   5
  -9   2  10 270.583 29.6917   8
  -9   2   9 19.6415 23.5825   8
   9  -2  -9 16.2638 18.7327   1
  -9   2   9 17.8012 10.8930   5
  -9   2   8 16.0424 21.7524   8
   9  -2  -8 2.84051 18.2329   1
  -9   2   8-14.0924 23.2639   2
  -9   2   8 6.52930 11.2827   5
   9  -2  -7 425.462 26.2581   1
  -9   2   7 451.623 29.9436   2
  -9   2   7 451.348 22.7998   5
  -9   2   7 405.200 25.9797   4
  -9   2   7 410.557 29.1052   8
   9  -2  -6 896.624 36.2378   1
  -9   2   6 911.611 38.3685   2
  -9   2   6 846.452 32.2092   5
  -9   2   6 813.289 35.8304   4
  -9   2   6 892.774 38.3188   8
   9  -2  -5 174.551 21.3996   1
  -9   2   5 167.308 23.3190   8
  -9   2   5 201.980 22.3831   2
  -9   2   5 157.082 14.7689   5
  -9   2   4 724.574 32.6566   8
  -9   2   4 641.835 30.6369   2
  -9   2   4 654.894 27.7071   5
  -9   2   3 374.119 24.6289   8
   9  -2  -3 313.253 25.6874   5
  -9   2   3 377.292 23.4257   2
  -9   2   3 379.338 20.1594   5
  -9   2   2 13.9993 17.9031   8
   9  -2  -2-2.93755 18.7071   5
  -9   2   2 5.84259 16.5842   2
  -9   2   2 9.41127 9.95582   5
   9  -2  -2 10.0608 10.6575   1
   9  -2  -1 214.657 16.7099   1
  -9   2   1 202.384 20.1032   2
   9  -2  -1 209.229 22.2737   5
  -9   2   1 256.238 23.5213   1
   9  -2   0 82.8865 20.5614   5
  -9   2   0 116.165 18.0887   2
   9  -2   0 87.1274 13.2107   1
  -9   2   0 110.323 20.0643   1
   9  -2   1 166.771 15.4330   1
  -9   2  -1 210.457 19.4143   2
   9  -2   1 191.494 22.2792   5
  -9   2  -1 178.397 16.6044   8
  -9   2  -1 201.645 21.4290   1
  -9   2  -2 7.30343 13.5337   7
   9  -2   2-0.71603 10.2397   1
   9  -2   2 5.18465 18.9463   5
  -9   2  -2 14.8493 16.2228   2
  -9   2  -2 9.02585 14.2782   8
  -9   2  -2 9.91325 18.6049   1
  -9   2  -3-8.85448 15.9769   7
   9  -2   3-5.43942 10.3828   1
  -9   2  -3 5.98288 16.5237   2
   9  -2   3 9.42256 19.7618   5
  -9   2  -3 0.84112 15.3195   8
  -9   2  -3-9.55200 19.6116   1
  -9   2  -4 174.164 21.4709   7
  -9   2  -4 189.640 18.1858   2
   9  -2   4 211.332 24.5546   5
   9  -2   4 179.309 15.3984   1
  -9   2  -4 173.495 20.0314   8
  -9   2  -4 178.084 22.4982   1
  -9   2  -5-16.7326 21.1772   7
   9  -2   5 27.6531 21.6294   5
   9  -2   5 21.1938 10.6899   1
  -9   2  -5 27.5371 18.8662   8
  -9   2  -5 9.99302 20.6994   1
   9  -2   6 22.8902 10.8548   1
  -9   1  14 68.0250 15.6685   2
  -9   1  14 30.7918 10.9901   5
   9  -1 -14 36.6743 20.8539   1
  -9   1  13 78.6968 29.5772   8
  -9   1  13 37.6550 14.4946   6
  -9   1  13 45.1419 14.9445   2
  -9   1  13 23.8019 10.3668   5
   9  -1 -13 49.0382 20.9174   1
  -9   1  12 6.02439 27.4686   8
  -9   1  12 4.82269 13.3232   6
  -9   1  12-0.91991 10.0800   5
  -9   1  12 7.56402 13.5932   2
   9  -1 -12 0.67005 19.1918   1
  -9   1  11 21.9909 26.3007   8
  -9   1  11-2.94640 10.3435   5
  -9   1  11-4.75844 14.1089   2
   9  -1 -11-2.67834 19.0342   1
  -9   1  10 119.027 27.2466   8
  -9   1  10 90.4851 13.2012   5
   9  -1 -10 66.7059 19.1672   1
  -9   1   9 1.46216 24.2242   8
  -9   1   9 7.03805 10.5453   5
   9  -1  -9-2.48632 17.5371   1
  -9   1   8 853.483 39.9993   2
  -9   1   8 748.870 29.6603   5
  -9   1   8 774.368 37.9540   8
  -9   1   7 9.92218 22.3100   8
  -9   1   7 10.8864 10.2368   5
   9  -1  -7-6.48066 17.9438   1
  -9   1   7 5.39802 23.0512   2
  -9   1   7 0.81980 13.4767   4
  -9   1   6 1265.91 47.3096   8
   9  -1  -6 1130.78 42.1030   1
  -9   1   6 1229.76 46.3823   2
  -9   1   6 1237.79 40.5863   5
  -9   1   6 1198.01 44.3647   4
  -9   1   5 310.727 25.7984   8
   9  -1  -5 277.197 22.4379   1
  -9   1   5 314.082 25.7659   2
  -9   1   5 300.588 17.8812   5
  -9   1   5 284.151 19.2242   4
  -9   1   4 67.8444 20.5088   8
  -9   1   4 59.0703 20.4972   2
  -9   1   4 61.5539 11.3244   5
  -9   1   4 59.6161 10.9461   4
  -9   1   3 29.5207 18.6158   8
   9  -1  -3 4.26901 17.3226   5
  -9   1   3 29.4662 17.7405   2
  -9   1   3 10.8976 9.45141   5
  -9   1   3 8.53647 8.75562   4
   9  -1  -2 501.778 23.3317   1
   9  -1  -2 448.218 26.1640   5
  -9   1   2 527.125 26.9985   2
  -9   1   2 468.988 21.2393   4
   9  -1  -1 1221.10 40.8834   1
   9  -1  -1 1234.19 43.0616   5
  -9   1   1 1242.75 42.0818   2
  -9   1   1 1359.08 45.2156   1
  -9   1   1 1099.79 37.6779   4
  -9   1   0 18.2103 8.31531   4
  -9   1   0 17.4148 18.6561   1
   9  -1   0 2.68496 11.4764   1
   9  -1   0 14.4518 18.1455   5
  -9   1   0 12.4008 17.0409   2
  -9   1  -1 21.5118 8.92921   4
  -9   1  -1 26.7039 18.9455   1
  -9   1  -1 82.4531 15.1694   7
   9  -1   1 30.4285 11.3703   1
   9  -1   1 32.8336 18.1458   5
  -9   1  -1 33.9165 17.7561   2
  -9   1  -1 11.9320 14.9642   8
  -9   1  -2-0.17039 18.8213   1
  -9   1  -2 25.2373 14.3431   7
   9  -1   2 3.78236 10.0966   1
   9  -1   2 8.23320 17.9624   5
  -9   1  -2 1.89589 16.6074   2
  -9   1  -2 1.96273 14.6748   8
  -9   1  -3 6.77468 19.9177   1
  -9   1  -3 15.8524 16.2146   7
   9  -1   3 16.3819 10.9446   1
   9  -1   3 36.2864 19.4840   5
  -9   1  -3 18.8693 17.2746   2
  -9   1  -3 22.3057 16.4471   8
   9  -1   3-21.7323 23.5118   4
  -9   1  -4 38.2477 20.8050   1
  -9   1  -4 48.9322 11.6468   3
  -9   1  -4 8.83389 17.7198   7
   9  -1   4 67.2290 20.6563   5
  -9   1  -4 35.6576 17.3014   2
   9  -1   4 22.8156 11.8109   1
  -9   1  -4 37.3306 18.5213   8
   9  -1   4 22.3094 23.4435   4
  -9   1  -5 29.3980 21.6777   1
   9  -1   5 22.4959 11.3884   1
  -9   1  -5 24.7845 11.4747   3
  -9   1  -5-19.9354 21.5715   7
   9  -1   5 48.4800 21.7620   5
  -9   1  -5 48.1872 20.6584   8
   9  -1   5-0.49478 23.7364   4
  -9   1  -6 41.7392 23.6689   1
   9  -1   6 40.7897 12.7806   1
  -9   1  -6 45.9220 22.4280   8
  -9   0  14 4.82554 14.0139   6
  -9   0  14 2.60971 9.69740   5
  -9   0  14 34.9638 15.3141   2
   9   0 -14 12.5833 20.1279   1
  -9   0  13 67.6677 29.6928   8
  -9   0  13 30.5447 14.3758   6
  -9   0  13 13.1949 9.85501   5
  -9   0  13 20.8719 15.2891   2
   9   0 -13 23.5117 19.8383   1
  -9   0  12 25.7242 27.9610   8
  -9   0  12 10.5861 10.1414   5
  -9   0  12 16.3583 14.6543   2
   9   0 -12 9.23716 19.1557   1
   9   0 -11 455.222 26.5192   1
  -9   0  11 516.094 28.6486   2
  -9   0  11 437.954 21.6494   5
  -9   0  11 468.885 35.9008   8
   9   0 -10 376.451 24.4859   1
  -9   0  10 435.947 26.4441   2
  -9   0  10 436.313 21.0035   5
  -9   0  10 423.076 33.4033   8
  -9   0   9 3.49616 23.4996   8
  -9   0   9 6.82497 9.24748   5
   9   0  -9-5.92021 17.3519   1
  -9   0   8 649.901 36.4306   8
   9   0  -8 584.254 29.2462   1
  -9   0   8 683.229 25.8706   5
  -9   0   7 1202.30 47.9460   8
  -9   0   7 1223.59 48.0676   2
  -9   0   7 1127.45 37.5358   5
  -9   0   7 1123.60 43.4893   4
  -9   0   6 527.314 31.6021   8
   9   0  -6 464.462 26.4250   1
  -9   0   6 535.355 33.4953   2
  -9   0   6 509.142 22.8783   5
  -9   0   6 534.094 26.7054   4
  -9   0   6 497.681 24.9319   1
  -9   0   5-1.46721 11.2393   1
  -9   0   5-10.7321 20.3481   8
  -9   0   5-7.48817 9.72337   5
  -9   0   5-1.02652 21.2278   2
   9   0  -5 3.41894 17.4241   1
  -9   0   5-7.39852 11.1188   4
  -9   0   4 15.9575 19.0404   8
  -9   0   4 7.87824 8.93720   5
  -9   0   4 22.8745 19.7274   2
  -9   0   4 14.1193 8.86981   4
   9   0  -4 7.97323 17.2200   1
   9   0  -3-5.88638 16.7833   5
  -9   0   3-15.9733 18.4360   2
  -9   0   3-8.46519 8.74707   4
  -9   0   2 6.89304 7.99352   4
  -9   0   2-1.07071 19.8473   1
   9   0  -2 5.56737 10.5130   1
   9   0  -2-9.67406 16.4173   5
  -9   0   2-9.33460 17.1338   2
   9   0  -1 265.885 21.2008   5
   9   0  -1 298.166 18.1672   1
  -9   0   1 237.090 20.6898   2
  -9   0   1 273.116 15.2357   4
  -9   0   1 325.047 24.9421   1
  -9   0   0 129.106 21.4573   1
   9   0   0 125.116 13.6956   1
   9   0   0 108.838 18.7614   5
  -9   0   0 93.3990 18.0520   2
  -9   0   0 107.631 11.0977   4
  -9   0  -1 4.50978 19.5017   1
  -9   0  -1 39.1936 14.9658   7
   9   0   1 10.9654 10.8111   1
   9   0   1 10.0941 16.6212   5
  -9   0  -1 0.13576 16.1172   2
  -9   0  -1-13.6097 15.6060   8
  -9   0  -2 8.08837 19.3496   1
  -9   0  -2 21.2487 15.5588   7
   9   0   2 10.8665 17.3767   5
   9   0   2-6.05247 10.4312   1
  -9   0  -2-1.46902 16.7518   2
  -9   0  -2-14.0613 15.4299   8
  -9   0  -3 125.014 22.7598   1
  -9   0  -3 136.807 20.5204   7
   9   0   3 148.657 20.5238   5
  -9   0  -3 131.727 18.9198   2
   9   0   3 141.385 15.0515   1
  -9   0  -3 130.126 19.5422   8
   9   0   3 108.011 24.5875   4
  -9   0  -4 217.388 16.3687   3
  -9   0  -4 171.752 23.7240   7
   9   0   4 220.284 23.6645   5
  -9   0  -4 163.742 20.7162   2
   9   0   4 207.371 26.3374   4
  -9   0  -4 208.129 22.8997   8
  -9   0  -4 189.746 24.0158   1
   9   0   4 190.201 17.3357   1
  -9   0  -5 12.4656 21.9387   1
  -9   0  -5 33.2899 11.6280   3
  -9   0  -5-44.5684 23.4657   7
   9   0   5 16.2454 12.5397   1
   9   0   5 34.0706 21.6474   5
  -9   0  -5 8.14838 21.4917   8
   9   0   5 26.1851 23.4695   4
  -9   0  -6 60.6869 24.6532   1
   9   0   6 48.2077 12.5618   1
  -9   0  -6 30.8035 24.3478   8
   9   1 -14 5.65957 19.8656   1
  -9  -1  14-6.43247 14.2708   6
  -9  -1  14 3.31751 15.4034   2
   9   1 -13 141.456 21.6841   1
  -9  -1  13 145.296 31.9576   8
  -9  -1  13 146.471 20.2241   2
  -9  -1  13 122.879 12.7441   5
  -9  -1  12 0.30165 27.8961   8
  -9  -1  12 8.77401 9.36282   5
  -9  -1  12 9.69722 15.5870   2
   9   1 -12 11.2513 19.3479   1
  -9  -1  11 70.0694 28.3923   8
  -9  -1  11 43.3572 10.3952   5
  -9  -1  11 34.9012 15.8179   2
   9   1 -11 24.0888 18.7589   1
  -9  -1  10 94.3279 27.6386   8
  -9  -1  10 111.031 11.9178   5
  -9  -1  10 124.291 18.5207   2
   9   1 -10 113.530 19.4363   1
  -9  -1   9 355.742 32.2578   8
   9   1  -9 329.046 23.4699   1
  -9  -1   9 374.624 18.2856   5
  -9  -1   8 5.69608 24.6919   8
  -9  -1   8-0.54131 9.10946   5
  -9  -1   8-19.4115 16.0258   4
   9   1  -8 2.20177 16.8802   1
  -9  -1   7 267.861 28.6478   8
   9   1  -7 232.765 21.7086   1
  -9  -1   7 266.721 30.7800   2
  -9  -1   7 275.691 16.1188   5
  -9  -1   7 279.748 22.1554   4
  -9  -1   7 270.885 19.7562   1
  -9  -1   6 768.522 38.2227   8
   9   1  -6 669.137 31.1780   1
  -9  -1   6 704.925 37.4812   2
  -9  -1   6 746.342 26.9464   5
  -9  -1   6 795.323 32.2657   4
  -9  -1   6 711.157 31.1264   1
  -9  -1   5 57.5193 12.4846   1
   9   1  -5 38.2655 18.1610   1
  -9  -1   5 37.2003 22.2965   8
  -9  -1   5 45.2951 10.5354   5
  -9  -1   5 31.5194 20.9418   2
  -9  -1   5 67.3908 11.7808   4
  -9  -1   4 2.32864 11.3948   1
   9   1  -4 17.3556 17.8260   1
   9   1  -4-26.7103 17.5933   5
  -9  -1   4 2.52154 18.9732   2
  -9  -1   4 4.55263 9.36595   4
   9   1  -3 72.6566 17.0181   5
  -9  -1   3 119.956 12.1835   4
   9   1  -2 434.899 23.8875   5
  -9  -1   2 471.608 20.2839   4
  -9  -1   2 519.301 29.6393   1
  -9  -1   1 40.4629 9.22423   4
  -9  -1   1 40.7476 20.4072   1
   9   1  -1 36.9154 11.3089   1
   9   1  -1 37.8692 16.2808   5
   9   1   0 464.832 24.7083   5
   9   1   0 469.598 23.0442   1
  -9  -1   0 467.946 20.7294   4
  -9  -1   0 503.986 29.2308   1
  -9  -1  -1 113.128 17.3724   7
  -9  -1  -1 80.3818 21.2680   1
   9   1   1 71.3211 17.2184   5
   9   1   1 75.9886 13.0768   1
  -9  -1  -1 58.7958 16.1920   8
  -9  -1  -2 72.8859 18.4442   7
  -9  -1  -2 89.9751 21.7826   1
   9   1   2 63.1569 17.3311   5
  -9  -1  -2 48.8022 16.8433   8
   9   1   2 70.1261 12.9083   1
  -9  -1  -3 29.7828 11.6492   3
   9   1   3 19.6135 12.2908   1
  -9  -1  -3 26.4103 20.3767   7
  -9  -1  -3 12.2566 21.4192   1
   9   1   3 20.4351 18.9947   5
  -9  -1  -3 17.2164 18.3559   8
   9   1   3-9.16464 22.4551   4
  -9  -1  -4 28.4149 11.4491   3
  -9  -1  -4-8.21037 21.4042   7
  -9  -1  -4-2.19356 22.7257   1
   9   1   4-0.43831 13.7894   1
   9   1   4 11.1310 20.3326   5
  -9  -1  -4 4.50811 19.7201   8
   9   1   4 8.23313 22.5698   4
  -9  -1  -5 71.7788 14.0030   3
  -9  -1  -5 11.4719 23.4644   7
  -9  -1  -5 78.7289 24.9690   1
   9   1   5 62.0681 22.1446   5
   9   1   5 67.0614 13.9146   1
  -9  -1  -5 44.2983 23.2258   8
   9   1   5 71.9569 24.6859   4
  -9  -1  -6 36.9885 25.6717   1
  -9  -1  -6-0.24763 24.8990   8
   9   1   6 15.9690 11.7984   1
  -9  -1  -7 13.8472 27.4695   8
  -9  -2  14 127.782 18.8504   6
  -9  -2  14 176.647 21.7121   2
   9   2 -13 68.6042 20.4983   1
  -9  -2  13 59.7392 17.4157   2
  -9  -2  12 389.700 27.6520   2
  -9  -2  12 346.322 16.9477   5
   9   2 -12 387.613 25.6350   1
  -9  -2  12 348.569 35.7231   8
  -9  -2  11 107.548 29.3567   8
   9   2 -11 119.216 20.2781   1
  -9  -2  11 99.6402 10.3941   5
  -9  -2  11 95.1760 19.0984   2
  -9  -2  10-14.7150 26.7859   8
   9   2 -10-10.0537 18.1726   1
  -9  -2  10 5.41535 8.12025   5
  -9  -2  10-11.8644 16.2389   2
  -9  -2   9 36.8688 27.7614   8
   9   2  -9 41.8150 17.9067   1
  -9  -2   9 51.7195 9.25550   5
  -9  -2   9 40.3290 17.0403   4
  -9  -2   9 59.8267 13.2820   1
  -9  -2   8 101.923 15.0112   1
  -9  -2   8 85.9603 27.4150   8
   9   2  -8 96.4241 18.5013   1
  -9  -2   8 97.1530 10.4821   5
  -9  -2   8 86.1094 16.9292   4
  -9  -2   7 186.730 27.6243   8
   9   2  -7 163.982 20.4993   1
  -9  -2   7 204.057 12.9223   5
  -9  -2   7 216.516 19.0440   4
  -9  -2   7 151.979 28.1200   2
  -9  -2   7 188.377 17.2847   1
  -9  -2   6 14.2451 23.4231   8
  -9  -2   6 11.4250 12.4164   1
   9   2  -6 2.56911 16.8369   1
  -9  -2   6 22.5229 11.2790   4
   9   2  -5 200.302 20.5243   1
  -9  -2   5 233.248 15.5718   4
  -9  -2   5 207.914 17.5463   1
   9   2  -4 215.236 20.9851   1
  -9  -2   4 205.051 14.8153   4
  -9  -2   4 208.472 17.1015   1
  -9  -2   3-13.7372 9.21028   4
   9   2  -2 310.968 20.9683   5
  -9  -2   2 354.009 17.2063   4
  -9  -2   1 64.6856 10.3690   4
  -9  -2   1 72.3771 22.8496   1
   9   2  -1 69.6008 16.3138   5
   9   2  -1 71.6435 12.8524   1
  -9  -2   0 93.4309 22.6105   1
   9   2   0 78.2455 16.5687   5
   9   2   0 103.594 14.1210   1
   9   2   1 0.61838 11.4223   1
  -9  -2  -1 24.4383 16.7949   7
  -9  -2  -1 0.57915 21.1060   1
   9   2   1 10.7408 15.8501   5
  -9  -2  -1 43.9254 16.8388   8
  -9  -2  -2 28.7742 20.0784   7
   9   2   2 23.4686 13.0237   1
  -9  -2  -2 36.8817 22.0713   1
   9   2   2 28.8056 17.1658   5
  -9  -2  -2 32.8015 16.5195   8
   9   2   2-29.9866 22.6630   4
  -9  -2  -3 95.9132 13.3463   3
  -9  -2  -3 87.3808 22.1138   7
  -9  -2  -3 78.5118 24.4823   1
   9   2   3 67.6772 15.3969   1
   9   2   3 69.0256 19.4368   5
  -9  -2  -3 53.6187 19.4980   8
   9   2   3 58.3649 22.8620   4
  -9  -2  -4 15.8829 11.3622   3
  -9  -2  -4-5.46570 22.6053   7
  -9  -2  -4-13.0734 24.5514   1
   9   2   4-9.76826 20.1425   5
   9   2   4 21.7097 13.0072   1
  -9  -2  -4-16.4833 21.1753   8
   9   2   4-6.30136 22.8528   4
  -9  -2  -5 53.1784 26.3681   1
   9   2   5 50.7965 21.4559   5
  -9  -2  -5 45.6000 24.0708   8
   9   2   5 75.0431 25.0543   4
   9   2   5 86.6548 14.7384   1
   9   2   6 22.5484 13.5852   1
  -9  -2  -6 4.79573 26.8301   1
   9   3 -13 69.4918 20.0102   1
  -9  -3  13 58.1574 18.4440   2
   9   3 -12 33.0350 18.9109   1
  -9  -3  12 6.49602 16.5159   2
   9   3 -11 25.7452 18.9218   1
  -9  -3  11 22.3959 7.60111   5
  -9  -3  11 10.3157 16.6408   2
  -9  -3  10-11.2736 28.9708   8
   9   3 -10 10.6526 18.0183   1
  -9  -3  10 5.97168 7.00575   5
  -9  -3  10-14.2513 16.6332   2
  -9  -3  10-7.92359 13.1565   1
  -9  -3   9 7.17472 13.2335   1
  -9  -3   9 24.2559 30.0217   8
   9   3  -9 25.0504 17.5895   1
  -9  -3   9 22.0651 15.0391   2
  -9  -3   9 4.59202 16.7992   4
  -9  -3   8 125.745 29.0258   8
   9   3  -8 113.567 18.7958   1
  -9  -3   8 120.118 15.9802   1
  -9  -3   8 131.000 18.5804   4
  -9  -3   7 619.411 38.2071   8
   9   3  -7 518.073 27.3871   1
  -9  -3   7 663.003 29.2140   4
  -9  -3   7 554.469 27.4196   1
  -9  -3   6 221.420 27.9216   8
   9   3  -6 237.788 21.3872   1
  -9  -3   6 265.018 17.5453   4
  -9  -3   6 205.240 18.4191   1
   9   3  -5 295.214 23.2267   1
  -9  -3   5 339.374 18.6797   4
  -9  -3   5 295.010 20.7189   1
   9   3  -4 142.448 20.7195   1
  -9  -3   4 99.8130 11.7895   4
  -9  -3   4 119.271 15.0783   1
   9   3  -3 132.885 21.0760   1
  -9  -3   3 115.407 11.5926   4
   9   3  -2 123.916 16.8541   5
  -9  -3   2 159.660 12.6916   4
   9   3  -1 19.1664 12.0525   1
  -9  -3   1 41.8832 23.5135   1
   9   3  -1 22.2255 14.4976   5
   9   3   0 418.211 23.5772   1
   9   3   0 350.037 21.7956   5
  -9  -3   0 452.494 30.7781   1
  -9  -3  -1-24.1167 23.7502   1
   9   3   1-18.7449 13.5395   1
   9   3   1 14.0120 15.4789   5
  -9  -3  -1 39.7522 17.2384   8
  -9  -3  -2 15.5076 11.2010   3
  -9  -3  -2-10.3002 23.8446   1
   9   3   2 1.40889 13.4528   1
   9   3   2 17.5845 17.1954   5
  -9  -3  -2 51.3841 18.7849   8
   9   3   2-43.1461 22.7688   4
  -9  -3  -3 2.81767 11.7030   3
  -9  -3  -3-11.9195 21.9435   7
  -9  -3  -3 0.44579 24.9071   1
   9   3   3 6.44156 17.6390   5
   9   3   3 18.8545 12.3384   1
  -9  -3  -3 16.1156 20.2999   8
   9   3   3-28.0444 23.0349   4
   9   3   4 15.0144 13.6535   1
  -9  -3  -4 10.4451 12.7986   3
  -9  -3  -4-3.02200 30.2474   1
   9   3   4-2.17766 19.3282   5
  -9  -3  -4-8.53873 22.6445   8
   9   3   4-15.6654 23.6576   4
  -9  -3  -5 9.08676 26.9853   1
   9   3   5 6.89229 20.8322   5
  -9  -4  13 22.5995 18.1646   2
  -9  -4  12 96.7034 20.9396   2
   9   4 -12 140.366 21.9195   1
  -9  -4  11-1.69343 16.7481   2
   9   4 -11 6.63550 19.3210   1
  -9  -4  11-6.01672 12.6223   1
  -9  -4  10 46.9808 14.8720   1
  -9  -4  10 34.3319 16.4444   2
   9   4 -10 48.6378 19.4188   1
  -9  -4  10 50.6502 18.0104   4
  -9  -4   9 532.976 29.0073   4
   9   4  -9 417.240 26.4261   1
  -9  -4   9 480.838 26.3728   1
  -9  -4   8 27.9988 29.2882   8
  -9  -4   8 27.2025 13.4907   1
   9   4  -8 11.6410 17.6707   1
  -9  -4   8 24.2056 14.1359   4
  -9  -4   7 109.975 29.5302   8
  -9  -4   7 80.7538 15.4783   1
  -9  -4   7 112.959 14.2387   4
   9   4  -7 67.1224 18.8576   1
  -9  -4   6 60.9960 14.7825   1
   9   4  -6 61.8386 19.0129   1
  -9  -4   6 52.6226 12.2552   4
  -9  -4   5 152.433 13.5690   4
  -9  -4   5 141.920 17.1543   1
   9   4  -5 147.196 21.3624   1
  -9  -4   4 82.1940 11.0825   4
   9   4  -4 91.1145 20.6383   1
  -9  -4   4 77.2057 15.0600   1
   9   4  -4 42.7893 14.9591   5
  -9  -4   3-0.13955 9.07049   4
   9   4  -3-1.37136 19.9445   1
  -9  -4   3 3.85242 12.1511   1
   9   4  -3-19.1849 14.3011   5
   9   4  -2 84.5615 15.3423   5
  -9  -4   2 122.447 12.1982   4
   9   4  -1 50.6721 14.6274   5
  -9  -4   0 85.5986 12.1828   7
  -9  -4   0 62.6327 24.6027   1
   9   4   0 49.1444 14.0949   1
   9   4   0 71.1863 15.3145   5
  -9  -4  -1 22.1727 10.9601   3
  -9  -4  -1 6.82996 23.4700   1
   9   4   1 7.41935 15.9591   5
   9   4   1 18.4966 12.2681   1
  -9  -4  -2 14.8329 11.3328   3
  -9  -4  -2-10.8218 23.9832   1
   9   4   2 2.47892 16.8931   5
   9   4   2 11.1214 12.3929   1
   9   4   3 10.9818 13.4966   1
  -9  -4  -3 17.5988 12.6455   3
  -9  -4  -3 10.0649 26.2789   1
   9   4   3 1.49501 18.0345   5
  -9  -4  -3 29.0903 21.8856   8
  -9  -4  -4 54.9094 14.4204   3
   9   4   4 44.9899 20.2294   5
   9   4   4 21.7389 23.6816   4
   9   5 -12 1.71319 20.7373   1
  -9  -5  12 1.23909 16.9905   4
  -9  -5  11 42.1848 15.1083   1
  -9  -5  11 52.5588 19.5398   8
   9   5 -11 36.6911 21.4130   1
  -9  -5  11 39.4353 17.5800   2
  -9  -5  11 38.6396 16.8462   4
  -9  -5  10-9.55657 14.1824   1
   9   5 -10-12.1139 20.4421   1
  -9  -5  10-8.94562 15.5481   4
   9   5  -9 121.523 22.2960   1
  -9  -5   9 176.615 19.0028   4
  -9  -5   9 148.791 18.7512   1
  -9  -5   8 420.706 22.2892   4
  -9  -5   8 369.375 24.1938   1
   9   5  -8 324.920 25.4330   1
   9   5  -7 87.2966 20.1704   1
  -9  -5   7 103.467 16.6413   1
  -9  -5   7 130.553 14.5929   4
  -9  -5   6 95.3454 16.0569   1
   9   5  -6 81.2040 20.5735   1
  -9  -5   6 93.7734 12.4359   4
  -9  -5   5 83.2473 16.7623   1
   9   5  -5 68.9774 21.6440   1
  -9  -5   5 110.250 12.0477   4
  -9  -5   4-3.99429 9.61091   4
  -9  -5   4-8.39185 14.1687   1
   9   5  -4-28.1601 22.8370   1
  -9  -5   3 53.6227 15.3439   1
   9   5  -3 27.0614 23.4907   1
   9   5  -3 20.1212 13.3584   5
   9   5  -2 11.6325 13.3365   5
  -9  -5   1 45.6663 11.5334   7
   9   5  -1 31.9587 13.7089   5
  -9  -5   0 21.3246 10.7395   3
  -9  -5   0 13.4307 10.2493   7
  -9  -5   0-11.8543 25.0844   1
   9   5   0 17.1134 14.0724   5
   9   5   0 22.8795 12.0163   1
   9   5   1 15.7373 12.8759   1
  -9  -5  -1 10.8595 11.0049   3
  -9  -5  -1 11.3756 11.0872   7
  -9  -5  -1 1.43395 24.6512   1
   9   5   1-4.49373 16.0717   5
  -9  -5  -2 29.4217 13.2669   3
   9   5   2 7.75401 17.0260   5
  -9  -5  -3 4.51894 13.2852   3
   9   5   3 5.83554 18.6510   5
   9   5   3-43.8376 22.9292   4
   9   5   4 3.80994 19.9816   5
  -9  -6  11 37.4269 15.0784   1
   9   6 -11 103.948 25.0607   1
   9   6 -10 212.660 24.8279   1
  -9  -6  10 246.100 21.5182   1
  -9  -6   9 1.57909 17.5636   8
  -9  -6   9 9.28056 14.7327   1
   9   6  -9-9.77116 21.5874   1
  -9  -6   9 25.3729 11.7919   4
  -9  -6   8 63.3783 19.5695   8
  -9  -6   8 44.9030 17.0665   1
   9   6  -8 23.5191 22.0106   1
  -9  -6   8 70.3379 12.8547   4
  -9  -6   7-2.09735 9.51149   4
  -9  -6   7 5.94680 14.9160   1
   9   6  -7-10.3370 21.4541   1
  -9  -6   6 40.2710 9.76433   4
  -9  -6   6 38.8921 15.8000   1
   9   6  -6 12.2159 21.3619   1
  -9  -6   5-8.48794 9.22412   4
  -9  -6   5 2.43386 14.5506   1
  -9  -6   4 16.3629 14.7221   1
   9   6  -4 98.4273 22.3932   1
  -9  -6   3 60.3389 16.1798   1
   9   6  -3 134.463 24.2122   1
  -9  -6   2 7.83078 11.1129   7
  -9  -6   2 1.80973 13.6959   1
  -9  -6   1 103.831 12.8770   3
  -9  -6   1 86.4793 13.5105   7
  -9  -6   0 37.2408 12.0518   3
  -9  -6  -1 5.91819 12.2215   3
  -9  -6  -2 18.1021 12.6715   3
   9   7 -10 100.384 23.5850   1
  -9  -7  10 40.8128 15.6988   1
   9   7  -9 75.0799 22.6823   1
  -9  -7   9 15.5279 14.8715   1
  -9  -7   8 102.313 18.6940   1
   9   7  -8 153.933 23.9118   1
   9   7  -7 78.1542 22.7332   1
  -9  -7   7 26.7442 17.4237   1
   9   7  -6 121.914 23.4797   1
  -9  -7   6 82.3062 18.0444   1
   9   7  -5 113.332 24.0676   1
  -9  -7   5 56.2987 17.3455   1
   9   7  -4 58.0717 24.1333   1
  -9  -7   4 17.4370 15.7777   1
  -9  -7   3 48.9823 13.4209   7
  -9  -7   2 12.7456 12.5168   7
  -9  -8   9 2.38106 16.1715   1
   9   8  -9 25.5719 25.9810   1
  10 -10  -3 210.087 21.4112   2
 -10  10   3 229.706 23.2695   4
 -10  10   2 55.2388 19.3126   4
 -10   9   6 73.1599 22.3354   6
 -10   9   6 72.1056 24.5642   4
 -10   9   5 195.935 23.2583   6
 -10   9   5 197.875 24.2925   4
  10  -9  -5 122.185 19.1421   2
 -10   9   4 33.5785 19.3139   6
  10  -9  -4 0.28554 14.2958   2
 -10   9   4 18.3749 19.4577   4
 -10   9   3 250.449 23.8375   4
 -10   9   2 39.7290 18.8819   4
 -10   9   1 40.5953 18.9065   4
 -10   9   0 40.5856 19.2359   4
 -10   8   8 139.683 25.0699   6
 -10   8   7 121.336 23.4793   6
  10  -8  -7 100.799 18.3990   2
 -10   8   7 111.965 28.7539   4
 -10   8   6 25.8131 20.6449   6
 -10   8   6 6.11938 24.0379   4
 -10   8   5 270.880 23.4799   6
 -10   8   5 226.352 19.7066   5
 -10   8   5 309.845 27.0086   4
  10  -8  -5 300.596 24.4428   1
  10  -8  -4 18.9301 15.1449   1
 -10   8   4 22.7909 18.9941   6
 -10   8   4 28.0027 19.4818   4
 -10   8   3 149.238 20.3443   6
 -10   8   3 167.572 22.1900   4
  10  -8  -3 158.341 20.1703   1
 -10   8   2 90.4877 19.7539   4
  10  -8  -2 84.9402 18.2354   1
 -10   8   2 107.328 18.4276   6
 -10   8   1 234.499 21.7430   4
  10  -8  -1 219.428 22.1018   1
 -10   8   0 40.4854 19.0453   4
  10  -8   0 59.4835 16.7627   1
 -10   8  -1 67.6856 21.0329   4
  10  -8   1 80.0645 16.8977   1
  10  -8   2 153.802 18.7004   1
  10  -8   3 32.2440 13.9513   1
 -10   7  11 63.9287 22.8937   8
 -10   7  10 197.076 23.2072   8
 -10   7   9 11.3955 23.6720   6
 -10   7   9 31.5194 19.3945   8
  10  -7  -8-9.35338 30.0140   1
 -10   7   8 17.1705 22.8339   6
 -10   7   8 5.27712 12.0609   5
 -10   7   8-44.9828 29.8713   4
 -10   7   8 17.3031 17.7738   8
 -10   7   7 34.6417 22.2250   6
 -10   7   7 14.0424 12.4407   5
 -10   7   7-5.13250 26.3670   4
 -10   7   7 26.7501 16.9372   8
 -10   7   6 442.597 27.7580   6
 -10   7   6 401.478 24.3995   5
 -10   7   6 494.288 32.7881   4
 -10   7   6 417.661 22.5937   8
  10  -7  -5 18.6116 14.7264   1
 -10   7   5 30.8464 19.5754   6
 -10   7   5 5.94505 11.3825   5
 -10   7   5 28.2520 14.1068   8
 -10   7   5 11.6509 20.9445   4
  10  -7  -4 62.4380 16.0506   1
 -10   7   4 68.1818 19.6444   6
 -10   7   4 42.3643 12.8220   5
 -10   7   4 75.9845 19.8016   4
 -10   7   3 146.821 20.1462   6
 -10   7   3 134.170 15.4543   5
 -10   7   3 173.318 21.2059   4
  10  -7  -3 172.272 19.5461   1
 -10   7   2 24.6626 17.3868   6
  10  -7  -2 22.9763 15.1972   1
 -10   7   2 10.9000 11.6548   5
 -10   7   2 24.0986 17.5182   4
 -10   7   1 16.8581 16.7023   4
 -10   7   1 25.6598 17.3414   6
  10  -7  -1 23.7338 15.0429   1
 -10   7   0 47.2227 17.8128   4
 -10   7   0 52.2144 14.6538   7
 -10   7   0 49.3345 16.9098   6
  10  -7   0 43.1971 15.8686   1
 -10   7  -1 78.1659 20.0233   4
  10  -7   1 121.893 17.1883   1
  10  -7   2 1.16093 13.1376   1
  10  -7   3 34.6831 13.1742   1
 -10   6  12 117.346 26.4470   8
 -10   6  11 5.14734 22.9520   8
  10  -6 -10 12.4805 28.3832   1
 -10   6  10 19.5310 24.4497   6
 -10   6  10 0.26112 12.0766   5
 -10   6  10 0.93525 20.4905   8
  10  -6  -9 48.3388 28.1692   1
 -10   6   9 58.1624 24.7691   6
 -10   6   9 42.0623 13.4471   5
 -10   6   9 51.0749 20.8424   8
 -10   6   8 275.522 28.2406   6
 -10   6   8 248.553 20.3155   5
 -10   6   8 308.616 34.1673   4
 -10   6   8 233.511 23.2586   8
  10  -6  -8 317.292 33.7832   1
  10  -6  -7 4.81429 28.3226   1
 -10   6   7 8.26371 22.4013   6
 -10   6   7 10.5625 12.4107   5
 -10   6   7-26.2446 26.4932   4
 -10   6   7-10.8793 18.4843   8
 -10   6   6 397.872 28.1340   6
 -10   6   6 405.654 23.9796   5
 -10   6   6 476.741 32.7613   4
 -10   6   6 364.532 24.0630   8
 -10   6   5 2.09678 19.5951   6
 -10   6   5 9.23921 11.3418   5
 -10   6   5-0.45655 20.8367   4
 -10   6   5-23.0208 16.3363   8
  10  -6  -4 99.3360 16.8482   1
 -10   6   4 73.2416 20.2180   6
 -10   6   4 72.6044 14.1923   5
 -10   6   4 90.2205 19.8207   4
 -10   6   4 52.0510 15.1134   8
 -10   6   3-4.57670 18.7346   6
  10  -6  -3 8.18199 13.2906   1
 -10   6   3-10.3706 11.6498   5
 -10   6   3 15.4574 17.6138   4
 -10   6   3-13.7180 13.2618   8
 -10   6   2 75.2678 19.3833   6
  10  -6  -2 108.080 17.3714   1
 -10   6   2 103.775 14.3334   5
 -10   6   2 129.686 19.3288   4
 -10   6   2 62.1323 12.3623   8
  10  -6  -1 344.088 23.1481   1
 -10   6   1 282.682 22.8911   6
 -10   6   1 292.309 19.6449   5
 -10   6   1 333.591 22.7156   4
 -10   6   0 1.56430 16.4574   4
 -10   6   0 0.38150 16.7782   6
  10  -6   0-27.1895 28.4979   5
  10  -6   0-0.95433 13.6189   1
 -10   6   0-7.70989 10.2761   5
 -10   6  -1 33.4118 18.3070   4
 -10   6  -1 74.2496 16.0218   7
 -10   6  -1 57.3936 17.4940   6
  10  -6   1 43.7649 28.8165   5
  10  -6   1 38.5094 15.2434   1
 -10   6  -2 34.4892 16.6444   7
  10  -6   2 18.7624 13.4578   1
  10  -6   3 60.1772 14.1058   1
  10  -6   4 5.57599 11.1863   1
 -10   5  12 4.31136 25.8640   8
 -10   5  11 512.661 33.9706   8
  10  -5 -11 569.953 36.4117   1
  10  -5 -10 26.0959 26.5008   1
 -10   5  10 29.7827 25.8962   6
 -10   5  10 12.7954 12.3561   5
 -10   5  10 19.5943 23.6235   8
  10  -5  -9 25.5381 26.2326   1
 -10   5   9 7.03805 24.4246   6
 -10   5   9 6.74618 12.2036   5
 -10   5   9-16.2138 22.7971   8
  10  -5  -8 16.3544 26.1777   1
 -10   5   8 12.1849 23.5558   6
 -10   5   8 1.22682 12.0836   5
 -10   5   8-31.2212 29.4802   4
 -10   5   8-7.93378 20.9094   8
  10  -5  -7 183.280 29.5025   1
 -10   5   7 143.477 25.6298   6
 -10   5   7 160.294 16.4855   5
 -10   5   7 153.199 21.2219   8
 -10   5   7 140.424 27.9050   4
 -10   5   6 30.5271 18.6430   8
 -10   5   6 17.5488 22.1089   6
 -10   5   6 33.3529 12.0439   5
 -10   5   6 23.8938 22.6107   4
 -10   5   5 128.350 19.0602   8
 -10   5   5 113.938 22.6045   6
 -10   5   5 123.991 15.6243   5
 -10   5   5 151.391 22.4798   4
 -10   5   4 151.079 22.8493   6
 -10   5   4 159.193 16.0811   5
 -10   5   4 178.713 20.5363   4
 -10   5   4 143.874 18.1412   8
  10  -5  -4 187.697 18.4004   1
 -10   5   3-4.85910 14.4806   8
  10  -5  -3 5.48755 12.3326   1
 -10   5   3 2.00220 10.8956   5
 -10   5   3-11.4634 16.7967   4
 -10   5   2 34.8823 14.1457   8
  10  -5  -2 34.1759 13.5060   1
 -10   5   2 38.2563 12.2322   5
 -10   5   2 36.4563 16.5678   4
  10  -5  -1 221.523 18.7845   1
 -10   5   1 196.370 16.7141   5
  10  -5  -1 173.519 28.8879   5
 -10   5   1 192.289 19.2728   4
 -10   5   1 139.254 14.8717   8
 -10   5   0 50.4188 16.9108   4
 -10   5   0 21.9073 12.0848   8
  10  -5   0 19.6873 25.7595   5
  10  -5   0 44.8836 13.8886   1
 -10   5   0 34.5580 11.3365   5
 -10   5   0 39.6431 10.6436   8
 -10   5  -1 15.8231 17.5353   4
 -10   5  -1 44.0760 16.0522   7
  10  -5   1-12.6598 25.0268   5
  10  -5   1 9.65414 12.9405   1
 -10   5  -2 40.7294 17.5848   7
  10  -5   2 1.05069 26.1330   5
  10  -5   2 30.1932 13.3043   1
 -10   5  -3 365.998 24.7478   7
  10  -5   3 330.615 21.0678   1
  10  -5   3 361.332 33.0568   5
  10  -5   4 59.1985 12.9350   1
 -10   5  -4 23.3908 19.9202   7
  10  -4 -13 90.0702 26.2603   1
 -10   4  13 54.1601 12.8815   5
  10  -4 -12 209.606 28.6510   1
 -10   4  12 137.122 15.7442   5
 -10   4  12 181.722 31.2687   8
  10  -4 -11 104.971 26.2351   1
 -10   4  11 98.4194 27.9296   6
 -10   4  11 78.6141 14.3553   5
 -10   4  11 79.5980 27.8443   8
  10  -4 -10 35.1327 24.2995   1
 -10   4  10 4.95178 26.0492   6
 -10   4  10 56.7153 23.1020   2
 -10   4  10 3.03167 12.2097   5
 -10   4  10 14.9520 23.8244   8
 -10   4   9 100.195 24.5304   8
  10  -4  -9 105.546 26.1329   1
 -10   4   9 94.0081 27.6411   6
 -10   4   9 141.414 24.1810   2
 -10   4   9 87.6054 14.3306   5
 -10   4   8 10.0772 21.4128   8
  10  -4  -8 0.68376 23.2109   1
 -10   4   8-21.6294 25.2272   6
 -10   4   8 7.43940 21.0149   2
 -10   4   8 1.82307 10.9340   5
 -10   4   8-48.9360 29.2735   4
 -10   4   7 9.79008 20.9413   8
 -10   4   7 15.8301 23.7783   6
  10  -4  -7 20.9655 23.0610   1
 -10   4   7 27.0785 20.2951   2
 -10   4   7 22.8866 11.5281   5
 -10   4   7-20.1906 25.7082   4
 -10   4   6 624.706 31.7190   2
 -10   4   6 597.184 27.8863   5
 -10   4   6 677.613 35.9155   4
 -10   4   6 578.424 30.9238   8
  10  -4  -6 642.377 35.9356   1
 -10   4   5 34.5871 18.9648   8
 -10   4   5 48.3728 18.9823   2
 -10   4   5 19.6817 12.3944   5
 -10   4   5 26.9057 20.7731   4
 -10   4   4 88.9749 19.0915   8
  10  -4  -4 89.0307 14.8515   1
 -10   4   4 91.5154 19.8581   2
 -10   4   4 90.6739 14.4884   5
 -10   4   4 102.979 19.2538   4
 -10   4   3 51.8256 16.9924   8
 -10   4   3 55.0440 19.1042   2
  10  -4  -3 63.3794 13.5799   1
 -10   4   3 31.8249 11.9254   5
 -10   4   3 33.9857 17.2116   4
  10  -4  -2 485.573 25.0935   1
 -10   4   2 513.836 27.0538   2
  10  -4  -2 446.600 32.7617   5
 -10   4   2 488.677 24.5286   5
 -10   4   2 470.394 25.6824   4
 -10   4   2 437.487 24.5880   8
 -10   4   1 68.9769 16.4830   4
 -10   4   1 63.9188 17.5126   8
 -10   4   1 74.2102 18.7800   2
  10  -4  -1 63.1733 24.2787   5
  10  -4  -1 79.6307 14.4414   1
 -10   4   1 86.1701 13.0934   5
 -10   4   0 131.180 17.6030   8
  10  -4   0 157.245 16.2230   1
 -10   4   0 199.204 20.2452   2
  10  -4   0 159.562 26.5736   5
 -10   4   0 153.088 14.0562   8
 -10   4   0 144.869 19.0083   4
 -10   4  -1 36.7100 18.3824   4
 -10   4  -1 34.1515 14.9734   8
 -10   4  -1 68.5913 17.0164   7
  10  -4   1 22.7283 23.9445   5
 -10   4  -1 46.9758 12.7545   8
  10  -4   1 44.9481 12.6083   1
 -10   4  -2 103.416 15.4575   8
 -10   4  -2 156.726 20.1757   7
  10  -4   2 129.635 16.0793   1
  10  -4   2 119.194 25.9002   5
 -10   4  -2 95.5891 14.5098   8
  10  -4   3 7.10474 12.0130   1
 -10   4  -3-3.03082 18.7061   7
  10  -4   3 22.6250 24.9142   5
 -10   4  -4-6.31108 20.2312   7
  10  -4   4-9.49914 11.5496   1
  10  -4   5 37.9804 11.2222   1
  10  -3 -14 318.726 28.2821   1
 -10   3  14 187.611 17.3510   5
  10  -3 -13 32.5420 24.1322   1
 -10   3  13 10.6367 11.2118   5
  10  -3 -12 551.791 32.9135   1
 -10   3  12 493.301 26.8256   2
 -10   3  12 573.746 39.7133   8
 -10   3  11 56.7582 29.4774   8
 -10   3  11 42.9205 28.7488   6
  10  -3 -11 36.1812 23.4821   1
 -10   3  11 27.0317 12.0485   5
 -10   3  10 8.38689 24.6948   8
 -10   3  10 0.25929 26.8808   6
  10  -3 -10 6.57710 22.2154   1
 -10   3  10 24.2621 23.6390   2
 -10   3  10-4.22145 11.0318   5
 -10   3   9-7.73277 23.9884   8
 -10   3   9-22.2610 27.4793   6
  10  -3  -9 19.0457 21.8497   1
 -10   3   9 6.45849 22.9550   2
 -10   3   9 0.87961 11.4233   5
 -10   3   8-2.27711 22.9885   8
  10  -3  -8 26.5298 20.9521   1
 -10   3   8 16.9693 23.2705   2
 -10   3   8 5.61973 10.6613   5
 -10   3   7 114.300 23.7002   8
 -10   3   7 138.144 14.6290   5
  10  -3  -7 136.215 23.4206   1
 -10   3   7 102.309 24.3604   2
  10  -3  -6 405.046 28.8988   1
 -10   3   6 372.601 27.8665   2
 -10   3   6 364.238 22.1044   5
 -10   3   6 368.796 28.5245   8
 -10   3   5 432.054 27.7221   2
 -10   3   5 411.519 23.1695   5
 -10   3   5 409.690 28.6832   8
 -10   3   4 138.471 22.8515   8
 -10   3   4 148.461 15.6933   5
 -10   3   4 147.938 21.6187   2
 -10   3   3 1.88779 20.2125   8
 -10   3   3 6.98639 19.1705   2
  10  -3  -3 5.96214 11.8578   1
 -10   3   3 22.3236 11.7412   5
 -10   3   2 289.467 23.3460   8
  10  -3  -2 233.879 18.2806   1
 -10   3   2 246.053 22.8339   2
  10  -3  -2 251.066 27.2624   5
 -10   3   2 278.404 18.3857   5
 -10   3   1 62.2889 18.6025   8
  10  -3  -1 45.0365 22.2971   5
 -10   3   1 74.7347 19.8324   2
  10  -3  -1 56.2623 13.0456   1
 -10   3   0 62.9957 17.1469   8
  10  -3   0 34.1303 22.1396   5
 -10   3   0 47.6821 19.5306   2
  10  -3   0 56.0247 13.1742   1
  10  -3   1 50.1069 12.9588   1
 -10   3  -1 61.1339 16.7622   7
  10  -3   1 40.1141 22.8565   5
 -10   3  -1 56.7634 14.4046   8
 -10   3  -2 295.369 22.8742   7
 -10   3  -2 319.761 21.8476   2
  10  -3   2 283.458 28.5774   5
  10  -3   2 267.189 19.4305   1
 -10   3  -2 264.353 18.6124   8
 -10   3  -3 73.1420 20.4837   7
  10  -3   3 67.8097 13.3708   1
  10  -3   3 71.4378 25.3961   5
 -10   3  -3 37.7550 16.9713   8
 -10   3  -4 27.3950 21.6834   7
  10  -3   4 36.9036 12.2289   1
 -10   3  -5 23.1835 23.3420   7
  10  -3   5 58.8083 12.7232   1
  10  -2 -14 326.015 27.4820   1
 -10   2  14 221.239 17.4974   5
 -10   2  13 47.2630 31.4311   8
 -10   2  13 7.31783 11.0551   5
  10  -2 -13 26.6113 22.5697   1
 -10   2  12 5.88519 29.7157   8
 -10   2  12 0.80187 14.0308   2
  10  -2 -12 12.9239 23.3393   1
 -10   2  12 10.2265 11.1383   5
 -10   2  11 189.341 31.2792   8
 -10   2  11 140.727 15.0213   5
  10  -2 -11 148.136 24.0589   1
 -10   2  10 3.50616 26.8369   8
  10  -2 -10-4.91445 19.6196   1
 -10   2  10 5.98530 10.7084   5
 -10   2   9 29.6174 25.4754   8
  10  -2  -9 49.6360 21.2218   1
 -10   2   9 26.4628 25.7514   2
 -10   2   9 42.3420 12.1906   5
 -10   2   8 12.3424 24.5306   8
  10  -2  -8 2.52530 20.3001   1
 -10   2   8 10.8666 24.0376   2
 -10   2   8 15.4381 11.7053   5
 -10   2   8-10.8144 14.7393   4
  10  -2  -7 1448.26 52.3020   1
 -10   2   7 1635.63 55.9478   2
 -10   2   7 1580.34 51.0680   5
 -10   2   7 1571.04 55.5645   4
 -10   2   7 1639.48 56.8150   8
 -10   2   6 56.4512 24.4080   8
 -10   2   6 48.0483 21.6117   2
  10  -2  -6 51.9505 21.1064   1
 -10   2   6 59.3150 13.0764   5
 -10   2   6 59.2608 13.9792   4
 -10   2   5 193.637 26.4488   8
 -10   2   5 226.361 23.7706   2
 -10   2   5 199.044 16.5863   5
 -10   2   5 176.369 16.4532   4
 -10   2   4 31.0319 22.6531   8
 -10   2   4 42.5475 19.3420   2
 -10   2   4 42.2406 12.0437   5
 -10   2   4 32.1170 10.7956   4
 -10   2   3 537.867 29.9146   8
  10  -2  -3 466.130 23.6072   1
  10  -2  -3 464.509 30.6589   5
 -10   2   3 517.544 28.0147   2
 -10   2   3 505.995 24.2932   5
 -10   2   3 441.047 22.4770   4
 -10   2   2 277.172 24.3919   8
  10  -2  -2 240.597 18.0514   1
  10  -2  -2 236.852 25.1884   5
 -10   2   2 254.099 22.8859   2
  10  -2  -1-7.85747 20.1015   5
 -10   2   1 18.2289 18.1633   2
  10  -2  -1 1.58943 11.0948   1
  10  -2   0 188.958 16.9037   1
 -10   2   0 213.432 21.5052   2
  10  -2   0 192.827 23.9215   5
 -10   2  -1 51.7560 15.4479   7
  10  -2   1 27.3422 12.0432   1
  10  -2   1 16.7573 21.0655   5
 -10   2  -1 41.1902 18.8401   2
 -10   2  -1 30.2811 15.1169   8
 -10   2  -1 42.2752 20.5752   1
 -10   2  -2 15.8955 15.9685   7
  10  -2   2 31.2703 12.3022   1
  10  -2   2 23.4564 22.7478   5
 -10   2  -2 15.1887 18.4531   2
 -10   2  -2 27.5531 16.3981   8
 -10   2  -2 24.9041 21.1807   1
 -10   2  -3 76.4116 20.8181   7
  10  -2   3 63.0821 13.7694   1
  10  -2   3 76.4838 23.7870   5
 -10   2  -3 60.0486 18.0804   8
 -10   2  -3 74.0779 22.5887   1
 -10   2  -4-13.5246 21.4713   7
  10  -2   4-5.06430 22.7585   5
  10  -2   4 4.82262 11.7021   1
 -10   2  -5-22.9066 23.5361   7
  10  -2   5 9.60277 11.4604   1
  10  -1 -14 13.5647 22.3313   1
 -10   1  13 7.90170 30.0042   8
 -10   1  13-6.68479 10.4933   5
  10  -1 -13 7.22114 21.7398   1
  10  -1 -12 197.003 24.8937   1
 -10   1  12 216.401 21.1455   6
 -10   1  12 234.420 22.6954   2
 -10   1  12 207.236 16.4723   5
 -10   1  12 258.686 34.4453   8
 -10   1  11 15.5701 28.7323   8
 -10   1  11 14.3229 10.7018   5
  10  -1 -11 0.36844 20.8515   1
  10  -1 -10 237.832 23.4252   1
 -10   1  10 263.880 17.7816   5
 -10   1  10 272.250 31.1960   8
 -10   1   9 183.839 29.1474   8
 -10   1   9 223.118 30.6863   2
 -10   1   9 191.992 15.7021   5
  10  -1  -9 162.261 22.3024   1
 -10   1   9 162.368 20.7694   4
 -10   1   8 83.0320 26.0451   8
 -10   1   8 71.0028 26.7272   2
 -10   1   8 75.8627 13.8929   5
  10  -1  -8 64.1884 20.7493   1
 -10   1   8 54.8087 15.5984   4
 -10   1   7 158.351 27.4520   8
 -10   1   7 188.990 27.0086   2
 -10   1   7 189.259 16.7324   5
 -10   1   7 172.287 18.5518   4
  10  -1  -7 159.254 22.1319   1
 -10   1   6 12.9483 25.0887   8
 -10   1   6 8.62641 22.3856   2
 -10   1   6 3.17372 12.2302   5
  10  -1  -6 10.1940 19.5049   1
 -10   1   6 7.21169 11.9929   4
 -10   1   5 169.463 25.5844   8
 -10   1   5 159.068 15.8634   5
 -10   1   5 151.507 24.4318   2
 -10   1   5 157.561 15.4776   4
  10  -1  -5 154.470 21.4953   1
 -10   1   4 35.2517 21.8723   8
 -10   1   4 19.9336 20.3065   2
 -10   1   4 18.7150 11.0996   5
 -10   1   4 29.3879 10.3350   4
 -10   1   3 11.1014 20.9551   8
  10  -1  -3-15.4294 20.5315   5
 -10   1   3 0.55235 19.3748   2
 -10   1   3-7.88957 21.8746   1
 -10   1   3 3.03232 9.33423   4
  10  -1  -2 429.947 22.6117   1
  10  -1  -2 418.094 27.5062   5
 -10   1   2 420.002 27.6561   2
 -10   1   2 510.682 30.1931   1
 -10   1   2 427.879 20.4252   4
 -10   1   1-19.8472 22.1283   1
 -10   1   1 12.5478 8.63641   4
  10  -1  -1 1.97708 11.3719   1
  10  -1  -1-11.4341 19.1878   5
 -10   1   1 9.25614 18.8609   2
  10  -1   0 233.175 24.1847   5
 -10   1   0 233.410 23.0252   2
  10  -1   0 274.803 18.9447   1
 -10   1   0 305.295 26.6507   1
 -10   1   0 259.485 16.3574   4
 -10   1  -1 12.8679 21.2948   1
 -10   1  -1 49.3420 15.7232   7
  10  -1   1 13.4799 11.4082   1
  10  -1   1 15.6114 20.4138   5
 -10   1  -1 13.4122 18.8720   2
 -10   1  -1-5.51244 15.5960   8
 -10   1  -2 66.1719 22.7847   1
 -10   1  -2 102.773 19.2015   7
  10  -1   2 69.6184 13.7631   1
  10  -1   2 73.5511 22.2876   5
 -10   1  -2 75.3662 19.8709   2
 -10   1  -2 77.9120 18.1315   8
 -10   1  -3 42.8002 23.2108   1
 -10   1  -3 34.7279 19.6602   7
  10  -1   3 52.2118 22.2916   5
 -10   1  -3 49.0829 19.7742   2
  10  -1   3 38.4034 13.6052   1
 -10   1  -3 31.9907 18.2012   8
 -10   1  -4 84.6600 25.0908   1
 -10   1  -4 40.1207 22.2793   7
  10  -1   4 111.467 24.0615   5
 -10   1  -4 64.2639 20.9001   8
  10  -1   4 91.5471 14.3246   1
 -10   1  -5 115.702 27.5231   1
  10  -1   5 84.6296 14.6333   1
  10   0 -14 139.208 24.6132   1
  10   0 -13 12.5075 21.6889   1
  10   0 -12 377.540 27.3122   1
 -10   0  12 359.843 26.7323   2
 -10   0  12 326.263 19.0677   5
 -10   0  12 397.752 37.2282   8
 -10   0  11 1.15964 27.9858   8
 -10   0  11 9.70483 10.1530   5
 -10   0  11 10.6219 14.9983   2
  10   0 -11 3.38229 19.9537   1
 -10   0  10 3.69300 27.3975   8
 -10   0  10 38.2868 10.8742   5
  10   0 -10 22.3858 19.1877   1
 -10   0   9-21.4600 27.1180   8
 -10   0   9-2.05763 10.3015   5
 -10   0   9 6.94458 28.2257   2
  10   0  -9-15.4355 19.0604   1
 -10   0   9-18.1619 16.2853   4
 -10   0   8 557.838 37.2341   8
  10   0  -8 510.253 29.1061   1
 -10   0   8 623.240 38.3531   2
 -10   0   8 588.973 25.2412   5
 -10   0   8 579.983 31.3762   4
 -10   0   7 105.772 27.1599   8
 -10   0   7 99.2105 13.0438   5
 -10   0   7 85.3505 26.8334   2
 -10   0   7 93.2181 16.5568   4
  10   0  -7 84.7292 20.4611   1
 -10   0   6 19.2519 24.2239   8
 -10   0   6 1.20586 10.3952   5
 -10   0   6-1.87843 23.4150   2
 -10   0   6 3.54034 12.2456   4
  10   0  -6-6.00100 19.3852   1
 -10   0   6 3.99200 12.4899   1
 -10   0   5 393.204 30.6349   8
  10   0  -5 358.746 25.8662   1
 -10   0   5 361.676 29.6465   2
 -10   0   5 390.370 20.3812   5
 -10   0   5 380.549 20.9712   4
 -10   0   5 355.828 21.7060   1
 -10   0   4 18.0776 22.1741   8
 -10   0   4 14.4823 20.5686   2
 -10   0   4 3.71372 10.2479   4
 -10   0   3 7.29716 9.27221   4
  10   0  -3-9.52896 19.7053   5
 -10   0   3 6.41552 20.6269   2
 -10   0   2 5.51399 8.25453   4
 -10   0   2-7.12780 21.7343   1
  10   0  -2-0.78056 10.7741   1
  10   0  -2-39.3040 19.6705   5
 -10   0   2-8.34781 20.1672   2
 -10   0   1 124.272 23.4697   1
  10   0  -1 127.156 14.7323   1
  10   0  -1 96.7144 20.1901   5
 -10   0   1 115.109 21.3838   2
 -10   0   1 127.479 12.3177   4
 -10   0   0 125.267 23.2642   1
  10   0   0 79.8452 20.3447   5
  10   0   0 106.402 14.2495   1
 -10   0   0 89.8602 20.4133   2
 -10   0   0 101.748 12.4075   4
 -10   0  -1 22.4247 21.4154   1
 -10   0  -1 50.1197 18.0543   7
  10   0   1 17.5184 19.9010   5
  10   0   1 5.13098 11.8320   1
 -10   0  -1-1.14168 18.7850   2
 -10   0  -1-3.74750 16.7135   8
 -10   0  -2 70.7189 23.3815   1
 -10   0  -2 74.6655 20.0147   7
  10   0   2 78.8811 21.4969   5
 -10   0  -2 60.0874 20.9389   2
  10   0   2 66.8760 14.1338   1
 -10   0  -2 62.9869 18.7158   8
  10   0   3 16.1794 13.2793   1
 -10   0  -3 2.83600 23.2391   1
 -10   0  -3-9.98525 20.2483   7
  10   0   3 28.1752 21.1706   5
 -10   0  -3-8.87519 19.6657   2
 -10   0  -3 27.4363 19.2112   8
 -10   0  -4 33.0273 24.3056   1
  10   0   4 26.5163 13.2055   1
  10   0   4 50.8538 22.4879   5
 -10   0  -4 34.1236 21.6828   8
 -10   0  -5 42.3810 25.6232   1
  10   0   5 6.85655 12.6234   1
 -10   0  -5 19.2403 24.2834   8
  10   1 -13 256.557 25.5617   1
 -10  -1  12 7.51680 29.2579   8
  10   1 -12-0.88734 20.9608   1
 -10  -1  12 20.6371 9.80468   5
 -10  -1  12 16.1745 16.4492   2
 -10  -1  11 228.541 33.4398   8
  10   1 -11 227.435 24.2803   1
 -10  -1  11 245.527 23.3142   2
 -10  -1  11 243.971 15.5498   5
  10   1 -10 149.238 21.6265   1
 -10  -1  10 185.637 31.8425   8
 -10  -1  10 161.173 13.8271   5
 -10  -1  10 140.496 21.1642   4
  10   1  -9 27.9497 19.3623   1
 -10  -1   9 0.86612 27.8554   8
 -10  -1   9 45.1219 10.7311   5
 -10  -1   9 23.8502 16.4218   4
  10   1  -8-6.73410 18.9905   1
 -10  -1   8-26.1745 28.5000   8
 -10  -1   8 3.73866 9.55375   5
 -10  -1   8-12.4166 29.1778   2
 -10  -1   8-7.85470 15.1403   4
  10   1  -7 109.143 20.7537   1
 -10  -1   7 94.2392 27.8171   8
 -10  -1   7 124.319 12.5464   5
 -10  -1   7 101.440 29.0475   2
 -10  -1   7 141.447 17.6920   4
 -10  -1   7 117.150 16.1963   1
 -10  -1   6 138.380 27.8088   8
  10   1  -6 103.359 20.9802   1
 -10  -1   6 113.927 27.3024   2
 -10  -1   6 160.016 16.2131   4
 -10  -1   6 145.994 17.6789   1
 -10  -1   5 91.3598 15.0084   1
 -10  -1   5 126.806 24.7826   8
  10   1  -5 102.230 21.1589   1
 -10  -1   5 94.6272 24.5499   2
 -10  -1   5 127.119 13.8655   4
  10   1  -4 3.92923 19.4280   1
 -10  -1   4 1.83593 20.8779   2
 -10  -1   4-12.6745 10.8372   4
 -10  -1   3 54.7672 10.6364   4
  10   1  -3 41.2395 18.7519   5
 -10  -1   3 64.6069 19.7746   2
 -10  -1   2 124.973 24.2942   1
  10   1  -2 49.6743 18.4546   5
  10   1  -2 103.568 14.0226   1
 -10  -1   2 84.5849 19.7762   2
 -10  -1   2 82.3710 11.3947   4
  10   1  -1 400.855 26.1151   5
 -10  -1   1 414.441 26.7474   2
  10   1  -1 460.739 23.9231   1
 -10  -1   1 466.150 21.4178   4
 -10  -1   0 139.711 20.2379   7
 -10  -1   0 88.9732 23.5102   1
  10   1   0 66.4130 19.3706   5
  10   1   0 87.4935 14.7463   1
  10   1   1 154.594 20.8629   5
 -10  -1  -1 160.295 20.0811   8
  10   1   1 181.986 17.6050   1
 -10  -1  -1 198.526 25.6228   1
  10   1   2 50.0316 13.5120   1
 -10  -1  -2 43.2177 24.0353   1
 -10  -1  -2 85.2035 21.5686   7
  10   1   2 44.8426 20.0059   5
 -10  -1  -2 25.4296 18.7249   2
 -10  -1  -2 41.0116 18.4073   8
 -10  -1  -3 38.8466 12.2856   3
 -10  -1  -3 49.7331 25.2928   1
 -10  -1  -3 34.2672 22.1255   7
  10   1   3 33.0177 14.4258   1
  10   1   3 59.5386 20.7660   5
 -10  -1  -3 14.2698 18.7626   2
 -10  -1  -3 32.8223 20.3715   8
  10   1   3-29.7540 26.8530   4
 -10  -1  -4 82.5856 26.7612   1
  10   1   4 54.5716 14.6662   1
  10   1   4 79.7673 21.8482   5
 -10  -1  -4 43.7672 22.5440   8
 -10  -1  -5-20.2188 25.0321   8
  10   2 -13 329.433 26.7071   1
 -10  -2  12-21.0832 31.7665   8
  10   2 -12 20.9219 21.0797   1
 -10  -2  12 31.1015 18.2255   2
 -10  -2  11 24.0109 30.4251   8
  10   2 -11 5.26271 20.7376   1
 -10  -2  11 12.1299 17.1166   2
 -10  -2  10 60.0397 31.0302   8
  10   2 -10 47.1962 20.6960   1
 -10  -2  10 63.1003 10.1303   5
 -10  -2  10 42.8476 18.9700   4
 -10  -2   9 25.6818 30.4508   8
  10   2  -9 18.2768 18.8533   1
 -10  -2   9 22.6098 8.87084   5
 -10  -2   9 8.29216 16.3289   4
 -10  -2   9 10.6651 12.9408   1
 -10  -2   8 268.856 33.2397   8
 -10  -2   8 266.404 34.6608   2
  10   2  -8 227.172 22.6839   1
 -10  -2   8 288.258 22.9170   4
 -10  -2   8 255.050 20.8439   1
 -10  -2   7 20.9244 13.8362   1
 -10  -2   7 32.6876 26.5284   8
  10   2  -7 53.2672 19.5172   1
 -10  -2   7 13.8769 27.2076   2
 -10  -2   7 51.3847 14.5158   4
 -10  -2   6 980.974 44.3460   8
 -10  -2   6 761.921 40.9201   2
  10   2  -6 836.939 35.9376   1
 -10  -2   6 990.649 35.2986   4
 -10  -2   6 888.606 36.4896   1
  10   2  -5 147.437 21.6933   1
 -10  -2   5 113.004 24.9324   2
 -10  -2   5 175.443 15.4552   4
 -10  -2   5 143.342 16.8658   1
 -10  -2   4-0.51028 9.63530   4
 -10  -2   4 7.99372 12.1324   1
  10   2  -4 27.2227 19.6647   1
 -10  -2   3 6.22140 9.03571   4
  10   2  -3-10.4121 17.2850   5
 -10  -2   2 116.083 25.4464   1
  10   2  -2 55.4505 17.4482   5
 -10  -2   2 110.255 12.2235   4
 -10  -2   1 82.4437 24.6912   1
  10   2  -1 70.7128 18.4413   5
  10   2  -1 70.4547 13.8557   1
 -10  -2   1 91.7848 12.0385   4
  10   2   0 12.4328 12.3983   1
 -10  -2   0 44.7304 19.6481   7
 -10  -2   0 16.9423 22.9994   1
  10   2   0 9.20621 17.3714   5
 -10  -2  -1 143.456 21.8318   7
 -10  -2  -1 130.378 25.6221   1
  10   2   1 98.3968 19.8665   5
 -10  -2  -1 178.114 21.1370   8
  10   2   1 128.852 16.7443   1
 -10  -2  -2 15.3563 11.4727   3
 -10  -2  -2 32.3094 21.3369   7
 -10  -2  -2 25.9787 24.8456   1
  10   2   2 5.15683 13.5188   1
  10   2   2 21.9934 18.8938   5
 -10  -2  -2 17.0519 19.0893   8
 -10  -2  -3 33.4784 12.6379   3
 -10  -2  -3 37.2900 26.1942   1
  10   2   3 6.23348 14.3196   1
  10   2   3 45.8796 20.2730   5
 -10  -2  -3 15.4835 20.7376   8
 -10  -2  -4 4.89991 22.9898   8
  10   3 -13 28.9496 22.1348   1
  10   3 -12 29.1504 21.1159   1
 -10  -3  11 68.7111 32.0520   8
  10   3 -11 72.7591 21.5338   1
 -10  -3  11 57.2274 19.5442   2
 -10  -3  11 16.5588 18.3503   4
 -10  -3  10 19.2813 31.4222   8
  10   3 -10 23.3919 20.3423   1
 -10  -3  10-8.40118 16.8198   2
 -10  -3  10 10.4381 16.4415   4
 -10  -3  10-1.67336 14.0510   1
 -10  -3   9 30.9385 15.4123   1
 -10  -3   9 10.7429 31.7023   8
  10   3  -9 15.4290 18.8867   1
 -10  -3   9 36.8724 16.0560   4
 -10  -3   8 375.341 36.3408   8
 -10  -3   8 306.326 33.8070   2
  10   3  -8 314.573 24.3739   1
 -10  -3   8 333.830 23.3128   1
 -10  -3   7-1.24664 13.4701   1
 -10  -3   7-7.17628 28.5684   8
  10   3  -7 14.4480 19.2243   1
 -10  -3   7 12.3349 26.5474   2
 -10  -3   7 11.0423 11.9224   4
 -10  -3   6 105.856 28.8193   8
 -10  -3   6 87.4733 16.6797   1
  10   3  -6 100.434 21.1384   1
 -10  -3   6 83.8334 14.4891   4
 -10  -3   5 5.98646 13.1706   1
  10   3  -5 28.0420 21.5212   1
 -10  -3   5-2.29130 11.1028   4
  10   3  -4 369.544 27.9902   1
 -10  -3   4 335.125 18.3994   4
 -10  -3   4 319.179 21.8901   1
 -10  -3   3 148.349 14.1050   4
 -10  -3   2 2.01244 10.1108   4
  10   3  -2-18.4598 17.0368   5
  10   3  -1 146.667 19.5567   5
  10   3  -1 180.528 17.3972   1
 -10  -3   0 20.4524 23.8114   1
  10   3   0 17.5064 13.3018   1
  10   3   0 30.8527 17.4654   5
 -10  -3  -1 20.4945 25.2683   1
  10   3   1-3.53549 13.5635   1
  10   3   1 47.9012 18.0475   5
 -10  -3  -1 76.3502 20.0462   8
 -10  -3  -2 32.6345 12.5488   3
  10   3   2 38.9159 18.8397   5
 -10  -3  -2 81.2766 22.0527   8
  10   3   3 65.5131 20.2337   5
 -10  -4  13 142.118 21.3385   4
 -10  -4  12-12.5114 17.0193   4
  10   4 -12 15.3759 29.1669   1
  10   4 -11 66.7255 22.7202   1
 -10  -4  11 97.4627 19.9415   4
 -10  -4  10 29.1339 15.5181   1
 -10  -4  10 53.7682 34.6545   8
 -10  -4  10 16.3959 17.1966   2
  10   4 -10 41.1601 21.7054   1
 -10  -4  10 40.3101 16.9021   4
 -10  -4   9 80.1601 17.7018   1
 -10  -4   9 91.0933 33.1218   8
  10   4  -9 77.9140 22.7222   1
 -10  -4   9 117.003 17.5568   4
 -10  -4   8 14.7110 30.4421   8
 -10  -4   8 16.5180 14.8106   1
  10   4  -8 19.9298 21.0278   1
 -10  -4   8 19.5296 12.8931   4
 -10  -4   7 158.696 32.6108   8
 -10  -4   7 179.034 17.2120   4
 -10  -4   7 158.147 19.1977   1
  10   4  -7 154.823 23.3130   1
 -10  -4   6 186.147 16.1693   4
  10   4  -6 202.544 25.0440   1
 -10  -4   6 189.920 19.8537   1
 -10  -4   5 15.5669 10.5821   4
  10   4  -5 48.9320 22.3732   1
 -10  -4   5 37.3424 14.9661   1
 -10  -4   4 16.5504 10.3037   4
  10   4  -4 34.1768 22.8529   1
 -10  -4   4 15.8617 13.9658   1
  10   4  -4 0.55413 16.2415   5
 -10  -4   3 5.35535 9.96390   4
  10   4  -3 12.4424 24.0399   1
 -10  -4   3 5.42699 14.1740   1
  10   4  -3-14.2044 15.8096   5
  10   4  -2 83.2495 16.9958   5
 -10  -4   1 33.8511 11.2811   7
 -10  -4   1 20.8874 25.9587   1
  10   4  -1 32.5967 13.5206   1
  10   4  -1 32.3793 16.9464   5
 -10  -4   0 15.1119 25.6556   1
  10   4   0 21.0331 16.9631   5
  10   4   0 5.61485 13.3027   1
 -10  -4  -1 48.6476 12.8193   3
  10   4   1 48.4305 17.7800   5
 -10  -4  -2 30.8798 13.1668   3
  10   4   2 39.3659 19.2207   5
  10   4   3 10.0441 19.8495   5
 -10  -5  11 64.3965 16.5161   1
  10   5 -11 29.8247 23.8776   1
 -10  -5  11 89.4031 18.1024   4
 -10  -5  10 22.5126 15.2786   1
  10   5 -10 2.18017 23.1268   1
 -10  -5  10 13.5152 14.2137   4
 -10  -5   9 109.331 18.5108   1
  10   5  -9 121.331 24.5776   1
 -10  -5   9 143.011 16.3273   4
 -10  -5   8-11.3452 32.6436   8
 -10  -5   8 23.6399 16.1984   1
  10   5  -8-4.86702 22.4402   1
 -10  -5   8 11.6624 12.2851   4
 -10  -5   7 20.5441 30.1030   8
 -10  -5   7 1.67986 14.7061   1
  10   5  -7-0.41611 22.7383   1
 -10  -5   7 13.3482 10.9363   4
 -10  -5   6 44.4174 10.9430   4
 -10  -5   6 43.7983 16.2194   1
  10   5  -6 21.8246 23.3710   1
 -10  -5   5-5.34286 9.69560   4
 -10  -5   5-5.79800 14.6935   1
  10   5  -5-33.6084 24.2488   1
 -10  -5   4 12.9984 9.89474   4
 -10  -5   4-0.27164 14.3106   1
  10   5  -4-14.4240 24.6877   1
 -10  -5   3 0.80744 13.7116   1
  10   5  -3-21.2973 25.3915   1
 -10  -5   2 125.798 15.2387   7
 -10  -5   1 46.9151 12.6010   3
 -10  -5   0 35.1576 12.4238   3
 -10  -5  -1 43.9137 13.5819   3
 -10  -6  11 59.8500 16.5898   1
  10   6 -11 83.3402 24.1333   1
 -10  -6  10 8.72180 14.8657   1
  10   6 -10-26.6638 23.6285   1
 -10  -6   9-5.24523 15.6106   1
  10   6  -9-36.4515 24.3710   1
 -10  -6   8 1.19441 15.8055   1
  10   6  -8-3.42184 24.0693   1
 -10  -6   7 82.3310 18.8283   1
  10   6  -7 68.9229 24.6663   1
 -10  -6   6 8.43926 16.5143   1
  10   6  -6 10.0473 23.2441   1
 -11   8   7 63.9096 23.4936   6
 -11   8   6 54.7261 22.3170   6
 -11   8   5 160.892 23.5415   6
 -11   8   4 50.9112 20.2368   6
 -11   7   8 330.808 29.3628   6
 -11   7   7 538.507 33.1119   6
 -11   7   6-6.10241 22.5420   6
 -11   7   5 57.2349 22.1500   6
 -11   7   5 70.9550 22.1057   4
 -11   7   4 10.3603 20.0486   6
 -11   7   4 10.7250 20.0200   4
 -11   7   3 78.5309 21.1322   6
 -11   7   3 93.6822 21.0425   4
 -11   7   2 9.66989 18.8070   4
  11  -7  -2 6.04311 15.0965   1
  11  -7  -1 15.1819 15.9201   1
 -11   6  10 282.059 27.9558   8
 -11   6   9 24.9628 21.5640   8
 -11   6   8 21.6935 28.6742   6
 -11   6   8 13.8595 12.6666   5
 -11   6   8-2.02537 20.3034   8
 -11   6   7 59.0826 24.1882   6
 -11   6   7 39.9813 13.2580   5
 -11   6   7 55.0300 27.3746   4
 -11   6   7 24.1679 19.4529   8
 -11   6   6 9.78509 22.6118   6
 -11   6   6 16.4558 13.2029   5
 -11   6   6 41.1970 24.6828   4
 -11   6   5 113.602 23.3736   6
  11  -6  -5 120.761 18.0398   1
 -11   6   5 126.208 16.4797   5
 -11   6   5 172.831 24.3678   4
 -11   6   4 25.9414 21.4683   6
  11  -6  -4 28.1359 15.0303   1
 -11   6   4 19.6813 12.5004   5
 -11   6   4 49.8605 20.8581   4
 -11   6   3 46.5143 21.4658   6
  11  -6  -3 72.1519 16.1213   1
 -11   6   3 71.0265 14.4088   5
 -11   6   3 76.3156 20.6385   4
  11  -6  -2 251.095 21.4334   1
 -11   6   2 202.448 23.6803   6
 -11   6   2 233.429 19.3625   5
 -11   6   2 246.613 22.5885   4
 -11   6   1 54.6665 18.5716   4
 -11   6   1 34.0838 19.3521   6
  11  -6  -1 56.1220 15.6856   1
 -11   6   0 50.2766 16.7634   7
  11  -6   0 29.2952 15.5087   1
  11  -6   1 83.0709 15.9879   1
  11  -6   2 148.877 17.5944   1
 -11   5  11 15.1879 27.2033   8
 -11   5  10 5.43228 12.2352   5
 -11   5  10-19.5072 25.5481   8
 -11   5   9 9.59572 27.4059   6
  11  -5  -9 53.7575 28.4299   1
 -11   5   9 1.98332 12.4842   5
 -11   5   9-4.40761 24.0440   8
 -11   5   8 267.096 31.2746   6
 -11   5   8 217.184 19.2702   5
 -11   5   8 270.854 33.1981   4
 -11   5   8 254.028 26.2539   8
  11  -5  -8 283.435 33.0520   1
 -11   5   7 103.039 22.1298   8
 -11   5   7 71.9144 26.6537   6
  11  -5  -7 112.935 30.0117   1
 -11   5   7 87.2744 14.5694   5
 -11   5   7 72.4415 26.8728   4
 -11   5   6 7.80659 18.9984   8
 -11   5   6-10.9584 24.8352   6
 -11   5   6 0.50260 12.7444   5
 -11   5   6 7.14224 24.0347   4
 -11   5   5 218.396 26.0380   6
 -11   5   5 222.376 19.5135   5
 -11   5   5 278.236 26.5168   4
 -11   5   5 215.984 21.8375   8
 -11   5   4 75.3252 18.2103   8
  11  -5  -4 99.3281 16.5338   1
 -11   5   4 85.3457 15.1995   5
 -11   5   4 117.619 22.1096   4
 -11   5   3 14.9968 16.2415   8
  11  -5  -3 5.61048 13.0955   1
 -11   5   3 16.9699 12.7565   5
 -11   5   3 25.5994 19.7090   4
 -11   5   2 11.7031 18.0029   4
  11  -5  -2-7.73797 13.6681   1
 -11   5   2-4.78847 11.4793   5
 -11   5   1 71.3445 18.8760   4
  11  -5  -1 74.2507 15.6992   1
 -11   5   1 74.3857 13.8072   5
 -11   5   0 70.0262 19.3329   4
 -11   5   0 74.7357 17.5926   7
  11  -5   0 28.5031 28.5727   5
  11  -5   0 53.1219 15.2658   1
 -11   5  -1 5.11536 17.1415   7
  11  -5   1 5.81851 12.9833   1
  11  -5   2 75.8432 14.8991   1
 -11   5  -2 88.7633 20.5460   7
  11  -5   3 13.6683 12.8992   1
 -11   4  12-16.4036 29.6620   8
 -11   4  11 8.51485 11.4877   5
 -11   4  11-14.1315 28.6681   8
 -11   4  10 67.3904 27.2100   8
 -11   4  10 32.5200 29.4684   6
  11  -4 -10 70.6772 26.9786   1
 -11   4  10 43.0453 12.8982   5
 -11   4   9 25.2887 24.6370   8
 -11   4   9-3.16999 28.3404   6
  11  -4  -9 47.3248 26.5206   1
 -11   4   9 21.3002 23.2228   2
 -11   4   9 13.7125 12.6624   5
 -11   4   8 13.0214 23.7480   8
 -11   4   8 5.00518 27.6317   6
  11  -4  -8 6.16804 26.2826   1
 -11   4   8 13.5409 22.8767   2
 -11   4   8 12.3878 12.6510   5
 -11   4   7 116.039 24.4190   8
 -11   4   7 127.079 17.0961   5
  11  -4  -7 157.555 28.5378   1
 -11   4   7 157.075 24.6055   2
 -11   4   6 87.0335 22.5740   8
 -11   4   6 108.873 22.9283   2
 -11   4   6 83.0394 15.4729   5
 -11   4   6 119.984 25.6624   4
 -11   4   5 114.095 21.9475   8
 -11   4   5 138.276 17.2993   5
 -11   4   5 158.321 23.1396   2
 -11   4   5 160.524 24.2857   4
  11  -4  -4 184.301 18.2040   1
 -11   4   4 193.264 22.7022   2
 -11   4   4 194.026 18.9473   5
 -11   4   4 210.874 24.5918   4
 -11   4   4 201.984 22.1953   8
  11  -4  -3 179.640 18.1741   1
 -11   4   3 226.517 22.8985   2
 -11   4   3 214.517 19.2447   5
 -11   4   3 207.980 23.7534   4
 -11   4   3 167.575 21.2840   8
 -11   4   2 39.5856 18.9372   4
 -11   4   2 12.3051 18.1356   8
 -11   4   2 64.5613 20.2810   2
 -11   4   2 34.1729 13.2275   5
  11  -4  -2 13.4782 13.5839   1
 -11   4   1 81.4392 19.3243   4
 -11   4   1 75.6354 18.3965   8
 -11   4   1 120.226 20.9142   2
  11  -4  -1 51.1486 27.3877   5
  11  -4  -1 99.9205 15.8963   1
 -11   4   0 40.2162 19.0517   4
 -11   4   0 46.6577 18.7389   2
  11  -4   0 12.6627 26.4675   5
  11  -4   0 18.9998 13.2303   1
 -11   4  -1 260.230 22.3357   7
  11  -4   1 210.626 19.3649   1
  11  -4   1 191.325 29.6427   5
  11  -4   2 29.0790 13.1513   1
 -11   4  -2 24.9524 19.7736   7
 -11   4  -3 90.9751 22.5252   7
  11  -4   3 62.8873 13.9834   1
  11  -4   4 44.8781 12.3537   1
 -11   3  13 274.219 19.7479   5
 -11   3  12 7.46655 29.7881   8
 -11   3  12 1.33845 11.5738   5
 -11   3  11 44.4154 29.0320   8
  11  -3 -11 53.0397 25.9997   1
 -11   3  11 24.8820 11.9746   5
 -11   3  10 105.684 29.6361   8
 -11   3  10 97.6505 30.8582   6
 -11   3  10 118.545 27.1914   2
  11  -3 -10 130.179 26.8558   1
 -11   3  10 94.3871 14.7380   5
 -11   3  10 73.5194 18.4243   4
 -11   3   9 23.1689 26.1204   8
 -11   3   9 29.4216 24.4689   2
  11  -3  -9 31.6661 24.8500   1
 -11   3   9-0.44292 11.6621   5
  11  -3  -8 264.454 29.1466   1
 -11   3   8 270.283 28.6981   2
 -11   3   8 251.815 19.4804   5
 -11   3   8 276.875 30.5294   8
 -11   3   7 88.3483 24.8261   8
 -11   3   7 87.1590 24.8728   2
  11  -3  -7 57.8553 26.4215   1
 -11   3   7 64.3464 14.9436   5
  11  -3  -6 433.391 32.3938   1
 -11   3   6 410.224 30.1856   2
 -11   3   6 429.480 24.7549   5
 -11   3   6 407.494 30.4712   8
 -11   3   5 8.50573 22.4334   8
 -11   3   5 19.8840 21.9689   2
 -11   3   5 19.7224 12.9772   5
 -11   3   4 47.7950 22.1139   8
 -11   3   4 64.4242 21.8096   2
 -11   3   4 63.0669 14.1170   5
  11  -3  -4 47.6865 14.1894   1
 -11   3   3 6.08184 21.6179   8
 -11   3   3 1.82858 20.0671   2
 -11   3   3-0.45153 12.0139   5
  11  -3  -3-1.80486 12.0125   1
 -11   3   2 51.3947 20.9839   8
  11  -3  -2 16.5040 25.0869   5
 -11   3   2 62.3494 20.9922   2
  11  -3  -2 60.8065 14.1116   1
 -11   3   1 72.1466 19.7017   8
  11  -3  -1 70.1056 26.3012   5
 -11   3   1 71.6127 21.4772   2
  11  -3  -1 85.3528 15.7230   1
  11  -3   0 34.4582 13.3991   1
 -11   3   0 29.5228 18.1723   8
  11  -3   0-9.95754 24.5576   5
 -11   3   0 26.6958 20.3218   2
 -11   3   0 30.1427 15.0996   8
 -11   3  -1 140.072 20.2708   7
  11  -3   1 109.032 16.1972   1
  11  -3   1 75.8080 26.3207   5
 -11   3  -2 23.7949 19.7767   7
  11  -3   2 9.98687 12.3269   1
 -11   3  -3 19.1338 21.6279   7
  11  -3   3 33.7520 12.8094   1
 -11   2  12 20.1145 32.0354   8
 -11   2  12 21.9493 11.6692   5
  11  -2 -12 10.5218 24.4240   1
  11  -2 -11 277.863 29.0311   1
 -11   2  11 260.127 18.6758   5
 -11   2  11 335.246 36.3926   8
 -11   2  10 17.6815 29.7972   8
 -11   2  10 27.3450 28.2055   2
 -11   2  10 11.1158 10.9544   5
  11  -2 -10-11.6741 23.6294   1
 -11   2  10-9.60429 15.8759   4
 -11   2   9 43.7190 26.7004   8
 -11   2   9 38.3116 26.9041   2
 -11   2   9 37.8763 12.4076   5
  11  -2  -9 32.7523 23.4894   1
 -11   2   9 14.2488 15.0048   4
 -11   2   8 191.806 29.1760   8
 -11   2   8 145.835 16.4217   5
 -11   2   8 142.573 26.9781   2
  11  -2  -8 151.664 26.3488   1
 -11   2   8 160.525 19.6769   4
 -11   2   7 60.9963 26.2531   8
 -11   2   7 49.8284 24.9421   2
 -11   2   7 81.1696 14.4779   5
  11  -2  -7 55.5375 25.4796   1
 -11   2   7 82.7195 16.1085   4
 -11   2   6-13.2663 24.8397   8
 -11   2   6-19.2001 23.0650   2
 -11   2   6 13.2305 12.5040   5
  11  -2  -6-14.5435 24.0425   1
 -11   2   6 21.9662 12.4934   4
 -11   2   5-16.2516 24.4722   8
 -11   2   5 14.3632 21.1796   2
 -11   2   5-1.78397 13.3271   5
 -11   2   5 13.8367 10.9915   4
 -11   2   4 395.053 30.5971   8
 -11   2   4 387.711 27.1140   2
 -11   2   4 389.251 22.9205   5
 -11   2   4 342.371 20.8760   4
 -11   2   3 5.06517 9.57615   4
 -11   2   3 17.4786 22.0217   8
  11  -2  -3-25.6241 24.6935   5
 -11   2   3 27.6500 19.8245   2
  11  -2  -3 11.9935 11.7278   1
  11  -2  -2 47.9696 13.2405   1
 -11   2   2 48.2093 10.5807   4
 -11   2   2 51.7000 22.0107   8
  11  -2  -2 23.8216 23.3330   5
 -11   2   2 56.1152 20.4187   2
 -11   2   1 211.628 23.2776   8
 -11   2   1 211.706 23.2240   2
  11  -2  -1 183.843 17.9127   1
  11  -2  -1 183.336 26.1782   5
 -11   2   1 193.889 15.0998   4
 -11   2   0 4.84540 9.40629   4
  11  -2   0 12.1368 12.6857   1
  11  -2   0-40.7413 24.1270   5
 -11   2   0 12.3161 20.0495   2
 -11   2   0-11.8680 16.1098   8
 -11   2  -1 39.3700 18.2997   7
  11  -2   1 12.2004 12.5479   1
  11  -2   1-4.98279 24.2162   5
 -11   2  -1 5.60500 20.2284   2
 -11   2  -1 12.3266 16.0055   8
 -11   2  -2 78.2772 21.0637   7
  11  -2   2 68.6181 14.1445   1
  11  -2   2 41.4501 25.8614   5
  11  -2   3 130.703 16.2065   1
  11  -1 -13 662.256 35.4171   1
 -11   1  12 12.8654 10.7581   5
  11  -1 -12 1.00525 23.2014   1
  11  -1 -11 265.568 27.7556   1
 -11   1  11 259.484 17.7785   5
 -11   1  11 303.205 43.5693   8
 -11   1  10 30.7542 29.5037   8
 -11   1  10 50.0621 29.8074   2
 -11   1  10 27.2511 11.6372   5
  11  -1 -10 11.5078 22.1853   1
 -11   1  10 38.3324 16.8696   4
 -11   1   9 157.768 31.6910   8
 -11   1   9 145.430 15.5808   5
 -11   1   9 166.976 29.6029   2
  11  -1  -9 152.002 24.2877   1
 -11   1   9 128.658 19.6290   4
 -11   1   8 54.9374 28.5568   8
 -11   1   8 125.810 27.7030   2
 -11   1   8 76.1929 14.1774   5
  11  -1  -8 56.0181 23.6568   1
 -11   1   8 65.4656 17.1927   4
 -11   1   7 370.857 33.9064   8
  11  -1  -7 364.693 29.0358   1
 -11   1   7 386.446 31.6150   2
 -11   1   7 377.616 22.2251   5
 -11   1   7 397.120 25.7815   4
 -11   1   6 182.627 29.9465   8
 -11   1   6 190.108 17.6103   5
 -11   1   6 168.925 25.7875   2
 -11   1   6 181.941 18.1940   4
  11  -1  -6 171.617 25.8733   1
 -11   1   5 206.881 28.7123   8
 -11   1   5 200.460 25.4054   2
 -11   1   5 195.570 17.2462   5
 -11   1   5 184.687 16.9687   4
 -11   1   4 76.1384 24.6281   8
 -11   1   4 55.7372 21.8119   2
 -11   1   4 41.5799 12.3934   4
 -11   1   3 28.8314 10.9154   4
  11  -1  -3 29.1028 12.3029   1
 -11   1   3 46.8027 23.1688   8
  11  -1  -3-0.68355 22.5260   5
 -11   1   3 35.6254 21.2025   2
 -11   1   3 44.1188 23.7882   1
 -11   1   2 47.6369 10.8473   4
  11  -1  -2 40.7261 13.0856   1
  11  -1  -2 40.7537 22.2597   5
 -11   1   2 52.4089 21.2260   2
 -11   1   2 44.1802 23.2147   1
 -11   1   1 26.4769 10.0277   4
  11  -1  -1 25.4933 12.7643   1
  11  -1  -1-20.5160 22.4844   5
 -11   1   1 31.1493 20.9840   2
 -11   1   1 18.4130 22.6214   1
 -11   1   0 30.7737 23.1386   1
 -11   1   0 34.9049 10.9435   4
  11  -1   0 34.2019 12.6838   1
  11  -1   0 3.05703 23.6177   5
 -11   1   0 44.1511 21.3611   2
 -11   1   0 32.9224 17.3011   8
 -11   1  -1 39.2704 24.2883   1
 -11   1  -1 94.3278 19.4760   7
  11  -1   1 44.4232 13.0312   1
  11  -1   1 34.1427 23.9290   5
 -11   1  -1 68.8633 21.5155   2
 -11   1  -1 36.5117 17.3656   8
 -11   1  -2 29.1295 24.1652   1
 -11   1  -2 46.0087 21.0948   7
  11  -1   2 10.1552 24.5779   5
  11  -1   2 11.5119 13.2487   1
 -11   1  -2 8.04619 18.5266   8
  11   0 -13 157.471 25.6282   1
  11   0 -12 257.547 27.4687   1
 -11   0  11 39.4024 32.9844   8
 -11   0  11 14.4294 10.7634   5
 -11   0  11 6.93682 16.7166   4
  11   0 -11 12.4325 22.7002   1
 -11   0  10 2.15478 30.2892   8
 -11   0  10 28.5722 30.4273   2
 -11   0  10 15.8925 11.1029   5
 -11   0  10 0.67917 16.0580   4
  11   0 -10 10.0751 22.1615   1
 -11   0   9 24.8549 29.4663   8
 -11   0   9 50.3582 28.5573   2
 -11   0   9 38.4650 12.0339   5
 -11   0   9 28.4878 16.7876   4
  11   0  -9 35.6902 21.9319   1
 -11   0   8 3.18889 29.0615   8
 -11   0   8 35.3554 27.2154   2
 -11   0   8 40.5569 12.0420   5
 -11   0   8 33.8884 15.8680   4
  11   0  -8 41.2696 21.9895   1
  11   0  -7-4.37928 22.3708   1
 -11   0   7 8.11319 29.0835   8
 -11   0   7-2.35195 26.6004   2
 -11   0   7 5.18313 11.3232   5
 -11   0   7 12.4381 14.3130   4
 -11   0   6 469.152 35.6316   8
  11   0  -6 445.124 30.7881   1
 -11   0   6 432.716 33.7777   2
 -11   0   6 472.941 23.6678   5
 -11   0   6 477.330 25.3343   4
  11   0  -5 16.8173 22.4543   1
 -11   0   5-3.75001 26.1643   8
 -11   0   5 41.2557 23.9603   2
 -11   0   5 15.9933 12.8773   4
 -11   0   5 16.6216 14.5150   1
 -11   0   4-2.85650 23.9714   8
 -11   0   4 16.9336 22.6558   2
 -11   0   4-7.59137 11.8885   4
 -11   0   3 67.2694 12.2252   4
 -11   0   3 100.168 26.2082   1
  11   0  -3 33.9408 21.4540   5
 -11   0   3 72.6729 22.7875   2
  11   0  -2 299.660 26.4974   5
 -11   0   2 344.521 27.4396   2
  11   0  -2 383.549 22.0660   1
 -11   0   2 409.357 30.1953   1
 -11   0   2 359.532 19.9407   4
 -11   0   1 133.772 25.0528   1
  11   0  -1 76.6062 21.7973   5
  11   0  -1 115.786 15.2001   1
 -11   0   1 116.704 22.9046   2
 -11   0   1 115.289 13.4884   4
 -11   0   0 1.72034 23.5611   1
 -11   0   0 53.0874 18.7642   7
  11   0   0-17.6426 22.2360   5
  11   0   0 6.66528 12.0596   1
 -11   0   0 10.3164 21.7486   2
 -11   0   0 5.07937 17.7624   8
 -11   0  -1-1.08444 24.5987   1
 -11   0  -1 41.7997 19.8961   7
  11   0   1-10.8834 22.4046   5
 -11   0  -1 7.61713 22.0473   2
  11   0   1 2.77665 12.5795   1
 -11   0  -1 6.61566 17.7476   8
 -11   0  -2 139.001 27.3740   1
  11   0   2 130.606 25.3969   5
 -11   0  -2 138.434 27.8454   8
  11   1 -13-7.58207 23.5733   1
  11   1 -12 112.180 24.5779   1
 -11  -1  11 10.6070 31.3790   8
  11   1 -11 31.9542 23.1519   1
 -11  -1  11-11.0458 17.8092   4
 -11  -1  10 15.5539 30.8971   8
  11   1 -10 0.77952 22.3923   1
 -11  -1  10-2.02994 16.9452   4
 -11  -1   9-30.0118 31.5878   8
  11   1  -9 18.3685 21.5393   1
 -11  -1   9 2.84032 30.2729   2
 -11  -1   9 4.13815 9.76990   5
 -11  -1   9-0.63572 15.6217   4
 -11  -1   8-17.6885 31.8352   8
  11   1  -8 10.2135 21.4481   1
 -11  -1   8-2.38023 28.5358   2
 -11  -1   8 13.5644 10.1481   5
 -11  -1   8 6.46314 15.0536   4
 -11  -1   7 266.699 33.5013   8
 -11  -1   7 284.490 33.1089   2
  11   1  -7 262.760 26.5550   1
 -11  -1   7 325.833 22.4989   4
 -11  -1   7 263.598 22.0563   1
 -11  -1   6 20.8903 15.2278   1
 -11  -1   6 17.2965 27.0614   8
  11   1  -6 3.83051 22.6787   1
 -11  -1   6 15.3448 26.7838   2
 -11  -1   6 37.9678 13.7173   4
 -11  -1   5 77.0291 15.9529   1
 -11  -1   5 108.569 28.4692   8
  11   1  -5 93.2498 23.7077   1
 -11  -1   5 66.3638 26.2144   2
 -11  -1   5 92.0581 15.1710   4
 -11  -1   4 29.5852 12.0325   4
 -11  -1   4 34.9505 23.9137   2
 -11  -1   3 63.6463 12.1732   4
  11   1  -3 19.9290 20.4924   5
 -11  -1   3 30.0073 22.6586   2
 -11  -1   2 6.51350 10.1619   4
 -11  -1   2 9.36777 23.6049   1
  11   1  -2-30.1755 20.4932   5
  11   1  -2 2.16668 11.6244   1
 -11  -1   2-13.8292 21.3979   2
 -11  -1   1-0.77811 10.5508   4
 -11  -1   1 17.9959 23.5339   1
  11   1  -1-12.0040 19.7992   5
  11   1  -1 12.7525 12.4140   1
 -11  -1   1-4.49566 20.6185   2
 -11  -1   0 136.467 26.3709   1
 -11  -1   0 213.396 23.4933   7
  11   1   0 115.848 22.8281   5
 -11  -1   0 162.641 22.0461   8
 -11  -1   0 139.976 23.4924   2
  11   1   0 148.481 16.7618   1
  11   1   1 10.8144 22.1699   5
 -11  -1  -1-0.38158 21.7282   2
 -11  -1  -1 9.84467 18.8976   8
  11   1   2 53.3110 22.5376   5
 -11  -1  -2 31.2335 20.3749   8
 -11  -1  -3 49.7240 22.4578   8
  11   2 -13 33.5251 23.2766   1
  11   2 -12 53.0619 22.7343   1
 -11  -2  12 15.6816 17.1756   4
  11   2 -11 13.6532 22.0298   1
 -11  -2  11 8.18200 16.1323   4
 -11  -2  10-4.13727 31.9047   8
  11   2 -10 38.1290 22.4578   1
 -11  -2  10 12.8221 16.7863   4
 -11  -2   9 56.0486 32.8174   8
  11   2  -9 83.3912 22.7143   1
 -11  -2   9 51.9909 32.6250   2
 -11  -2   9 50.3072 17.5371   4
 -11  -2   8-4.28918 31.3451   8
  11   2  -8 16.4612 21.2721   1
 -11  -2   8-3.45318 30.2286   2
 -11  -2   8 15.3820 15.5848   4
 -11  -2   8 13.8852 14.4113   1
 -11  -2   7 468.350 39.1276   8
 -11  -2   7 442.833 37.6802   2
  11   2  -7 475.509 30.1622   1
 -11  -2   7 560.801 28.0008   4
 -11  -2   7 448.000 27.8328   1
 -11  -2   6 15.8621 14.4459   1
 -11  -2   6 34.8774 29.4763   8
  11   2  -6 36.7541 22.5460   1
 -11  -2   6-19.9843 26.8917   2
 -11  -2   6 4.74794 13.7643   4
 -11  -2   5 14.3952 12.6911   4
 -11  -2   5 12.0215 13.6812   1
 -11  -2   5 34.8613 28.1289   8
  11   2  -5 39.2392 22.6064   1
 -11  -2   5-1.45568 24.7418   2
 -11  -2   4-3.17034 11.3712   4
  11   2  -4 20.7135 23.1534   1
 -11  -2   4-4.37717 22.7205   2
 -11  -2   3 81.5596 13.4889   4
  11   2  -3 26.2175 19.9157   5
 -11  -2   3 57.2630 24.0942   2
 -11  -2   2 48.7358 12.6140   4
 -11  -2   2 52.7639 24.9569   1
  11   2  -2-1.79653 19.2135   5
  11   2  -2 32.6280 12.5069   1
 -11  -2   1 41.2162 20.9482   7
 -11  -2   1 29.5129 24.4489   1
  11   2  -1-8.15180 19.3513   5
  11   2  -1 7.61945 12.4488   1
  11   2   0 39.6140 20.6682   5
 -11  -2   0 120.872 22.1101   8
  11   2   1 0.60500 20.8334   5
 -11  -2  -1 65.6035 20.8958   8
  11   2   2 17.0491 21.2258   5
  11   3 -12 228.478 26.6479   1
 -11  -3  12 206.208 23.9803   4
  11   3 -11 52.2727 23.1855   1
 -11  -3  11 48.7040 18.1300   4
  11   3 -10 44.5432 22.9567   1
 -11  -3  10 30.0496 17.2631   4
 -11  -3   9 36.3194 16.3743   1
 -11  -3   9 29.7879 35.0268   8
  11   3  -9 48.3185 22.5267   1
 -11  -3   9 51.6704 16.1939   4
 -11  -3   8 157.643 34.4113   8
  11   3  -8 168.371 24.4852   1
 -11  -3   8 161.334 33.8756   2
 -11  -3   8 223.439 19.8022   4
 -11  -3   8 166.021 20.0383   1
 -11  -3   7 38.0265 15.9633   1
 -11  -3   7 51.9333 31.7115   8
  11   3  -7 35.0254 22.6685   1
 -11  -3   7 11.5572 28.7027   2
 -11  -3   7 8.18536 14.5880   4
 -11  -3   6 86.1310 31.4749   8
 -11  -3   6 68.8212 16.4419   1
  11   3  -6 90.5718 24.2944   1
 -11  -3   6 47.7546 27.1527   2
 -11  -3   6 73.1480 14.8781   4
 -11  -3   5 112.894 17.7846   1
  11   3  -5 153.934 25.3924   1
 -11  -3   5 121.938 15.0175   4
 -11  -3   4 15.7601 11.7455   4
 -11  -3   4 30.3287 14.2853   1
  11   3  -4 27.5126 23.6440   1
 -11  -3   3 18.8696 11.3936   4
  11   3  -3-7.38669 18.2657   5
  11   3  -2-17.7281 18.6967   5
  11   3  -1 4.39841 18.8429   5
  11   3   0 31.8745 20.3790   5
  11   3   1 31.1316 21.0390   5
 -11  -4  11 19.5898 16.3420   4
  11   4 -11 33.9710 24.2296   1
 -11  -4  10 34.6947 15.9997   1
 -11  -4  10 53.9318 16.2080   4
  11   4 -10 33.5233 23.5419   1
 -11  -4   9 18.2706 16.0499   1
  11   4  -9 41.8739 24.1084   1
 -11  -4   9 28.7652 14.1197   4
 -11  -4   8 39.1609 16.6978   1
 -11  -4   8 39.1745 15.4458   4
  11   4  -8 36.0049 23.7173   1
  11   4  -7 93.8589 24.6125   1
 -11  -4   7 88.8404 18.2212   1
 -11  -4   7 70.8460 15.0649   4
 -11  -4   6 22.9776 12.4395   4
  11   4  -6 35.3977 23.9835   1
 -11  -4   6 11.0621 29.9648   8
 -11  -4   6 31.1684 16.2834   1
 -11  -4   5 53.2409 13.1286   4
 -11  -4   4 12.2676 11.9143   4
 -11  -5   7 21.3690 12.3422   4
 -11  -5   6 27.3778 12.1331   4
 -11  -5   5-5.52995 11.3377   4
 -12   7   6 28.4858 23.0733   6
 -12   7   5 23.1452 22.8635   6
 -12   6   6 94.2537 25.8255   6
 -12   6   5 83.0425 24.7241   6
 -12   6   4 65.8677 24.2371   6
 -12   5   7 118.396 29.1979   6
 -12   5   6 120.635 28.0200   6
 -12   5   5 183.298 27.9827   6
 -12   4  10 70.4026 29.0392   8
 -12   4   9 47.1996 26.8807   8
 -12   4   9 51.0939 13.7464   5
 -12   4   8 13.4126 24.6769   8
 -12   4   8-16.3237 29.8305   6
 -12   4   8-5.00860 12.8883   5
 -12   4   7 161.242 26.7493   8
 -12   4   7 188.552 26.4452   2
 -12   4   7 154.857 17.9015   5
 -12   4   6 2.61139 22.6729   8
 -12   4   6 24.8751 22.5826   2
 -12   4   6-4.12314 14.3055   5
 -12   4   5 218.318 25.4935   2
 -12   4   5 203.287 20.6338   5
 -12   4   5 182.849 24.2635   8
 -12   4   4 23.2566 21.9341   2
 -12   4   4 26.8246 14.5711   5
 -12   4   3 53.9085 21.8805   2
 -12   4   3 38.1465 15.0435   5
 -12   4   2 30.6700 20.5325   2
 -12   4   0 49.8156 18.6671   7
 -12   4  -1 17.6866 20.3896   7
 -12   3  11 84.0557 14.4476   5
 -12   3  10 192.406 32.7463   8
 -12   3  10 159.890 16.7964   5
 -12   3   9 113.750 30.1690   8
 -12   3   9 67.5981 14.7337   5
 -12   3   8 120.663 29.0540   8
 -12   3   8 119.560 26.4951   2
 -12   3   8 97.2002 15.7999   5
 -12   3   7 206.265 28.3787   2
 -12   3   7 191.652 19.0155   5
 -12   3   7 207.262 28.8062   8
 -12   3   6-10.8688 25.3751   8
 -12   3   6 31.7553 24.5881   2
 -12   3   6 16.8256 14.0723   5
 -12   3   5 102.811 25.7863   8
 -12   3   5 134.593 17.8577   5
 -12   3   5 103.948 24.9162   2
 -12   3   4 3.82584 23.0757   8
 -12   3   4 5.85966 22.5304   2
 -12   3   4 13.6989 14.0755   5
  12  -3  -4-0.73984 12.8902   1
 -12   3   3 222.455 26.2221   8
 -12   3   3 270.739 27.0584   2
  12  -3  -2-21.3098 28.1623   5
 -12   3   2 2.44591 21.4631   2
  12  -3  -1-43.3593 28.9964   5
 -12   3   1 12.8152 21.4783   2
 -12   3   0 33.9691 18.7132   7
 -12   2  11 18.3842 11.4627   5
 -12   2  10 28.0667 31.7758   8
 -12   2  10 4.78385 11.5043   5
 -12   2   9 14.7483 28.6878   8
 -12   2   9 23.5058 13.1429   5
 -12   2   8 47.9063 29.6655   8
 -12   2   8 61.4378 27.3988   2
 -12   2   8 80.0400 15.4313   5
 -12   2   7 56.1570 27.8741   8
 -12   2   7 60.1499 25.8825   2
 -12   2   7 63.5235 15.3465   5
  12  -2  -7 70.2623 25.8953   1
 -12   2   7 69.4287 15.4320   4
 -12   2   6-20.9821 27.4494   8
 -12   2   6-2.00821 26.5168   2
 -12   2   6 3.57955 13.2336   5
  12  -2  -6 7.71856 25.0831   1
 -12   2   6 14.9163 12.0144   4
 -12   2   5 99.0908 28.2756   8
 -12   2   5 120.799 17.3102   5
 -12   2   5 86.0425 24.4552   2
 -12   2   5 107.265 15.6132   4
 -12   2   4 117.541 28.7137   8
 -12   2   4 77.6912 23.5994   2
  12  -2  -4 91.8006 15.5890   1
 -12   2   4 94.1598 13.9062   4
  12  -2  -3 41.7872 14.0519   1
 -12   2   3 40.2231 24.9996   8
 -12   2   3 35.6908 22.4145   2
 -12   2   2 55.4500 23.4710   8
  12  -2  -2 6.34467 26.0045   5
 -12   2   2 30.5915 21.7661   2
  12  -2  -1-33.3819 26.3445   5
 -12   2   1-9.82772 21.7661   2
 -12   1  10 159.353 33.9377   8
 -12   1  10 148.431 16.2636   5
 -12   1   9-17.4159 30.2283   8
 -12   1   9 3.36115 11.7994   5
 -12   1   8 39.2231 30.9102   8
 -12   1   8 48.1602 27.3269   2
 -12   1   8 46.6896 13.4552   5
 -12   1   8 43.7207 15.9431   4
  12  -1  -8 57.4545 24.4723   1
 -12   1   7 94.6968 30.7697   8
 -12   1   7 121.355 27.9458   2
 -12   1   7 99.6421 15.2477   5
 -12   1   7 91.3758 16.0012   4
  12  -1  -7 84.4936 25.3109   1
  12  -1  -6 30.6221 25.0120   1
 -12   1   6-1.68025 28.6290   8
 -12   1   6 21.3186 24.5509   2
 -12   1   6 30.5815 13.3770   5
 -12   1   6 19.3683 13.2427   4
 -12   1   5 39.9910 27.6655   8
 -12   1   5 66.3539 24.6173   2
 -12   1   5 28.0738 13.2093   4
 -12   1   4 165.327 28.5181   8
 -12   1   4 170.159 25.5802   2
 -12   1   4 161.343 16.2263   4
 -12   1   3 66.9619 12.7512   4
 -12   1   3 83.7280 26.5029   8
  12  -1  -3 41.0097 26.0453   5
 -12   1   3 87.8507 23.3477   2
 -12   1   2 23.3568 23.9474   8
  12  -1  -2 14.3892 24.3862   5
 -12   1   2 25.7855 21.8183   2
  12  -1  -1 26.5106 24.1007   5
 -12   1   1 52.6834 22.2787   2
 -12   0   9 91.7394 33.2784   8
 -12   0   8 27.4069 31.6619   8
 -12   0   8 30.8616 12.1465   5
 -12   0   8 48.3513 16.1908   4
 -12   0   7 27.9708 31.8869   8
  12   0  -7 45.9642 24.0323   1
 -12   0   7 45.1540 27.1689   2
 -12   0   7 55.3814 14.9359   4
 -12   0   6 212.141 33.7022   8
  12   0  -6 178.866 27.0662   1
 -12   0   6 207.141 30.2247   2
 -12   0   6 200.331 19.3129   4
 -12   0   5-1.64675 27.9186   8
 -12   0   5 7.96835 25.5699   2
 -12   0   5-0.23330 12.5817   4
 -12   0   4 26.4763 12.5362   4
 -12   0   4 53.1710 28.3782   8
 -12   0   4 37.1737 24.7385   2
 -12   0   3 138.109 27.9920   8
  12   0  -3 61.5448 24.9740   5
 -12   0   3 91.2830 25.0400   2
 -12   0   3 106.976 14.4183   4
  12   0  -2-32.7018 23.9443   5
 -12   0   2 16.3582 23.3819   2
  12   0  -1-15.4509 23.7627   5
 -12   0   1 17.5175 23.9706   2
  12   0   0-16.4127 24.0728   5
 -12   0   0 23.4952 19.4989   8
 -12  -1   8 156.274 36.8296   8
 -12  -1   8 188.787 20.5876   4
 -12  -1   7 45.6841 33.3969   8
 -12  -1   7 15.0692 28.7738   2
 -12  -1   7 4.53542 14.9878   4
 -12  -1   6 176.718 33.5707   8
 -12  -1   6 171.101 31.3409   2
 -12  -1   6 175.707 19.1925   4
 -12  -1   5-1.59702 12.9228   4
 -12  -1   5 30.7113 30.3564   8
 -12  -1   5 13.8008 31.5932   2
 -12  -1   4 196.163 31.6196   8
 -12  -1   4 148.486 27.9776   2
 -12  -1   4 165.992 16.6001   4
 -12  -1   3 27.1305 12.5996   4
  12   1  -3-10.5544 22.7695   5
 -12  -1   3 18.7359 24.9545   2
  12   1  -2-8.73658 22.5268   5
 -12  -1   2 15.2426 24.3511   2
  12   1  -1 35.9800 23.4398   5
 -12  -1   1 70.1576 25.4164   2
  12   1   0 8.96475 22.5042   5
 -12  -1   0 52.2141 20.7447   8
 -12  -2   9 16.5376 15.1944   4
 -12  -2   8 8.62627 14.1772   4
 -12  -2   7 34.3981 15.0789   4
 -12  -2   6 22.3013 13.4275   4
 -12  -2   6 24.1887 32.8672   8
 -12  -2   5 10.6738 12.1269   4
 -12  -2   5 11.1867 31.0453   8
 -12  -2   5-0.53557 27.3105   2
 -12  -2   4 59.5804 13.2018   4
 -12  -2   4 47.2512 26.6800   2
 -12  -2   3-0.71990 24.9195   2
 -12  -2   2-6.43700 23.9512   2
 -12  -2   1 16.1682 24.3100   2
 -12  -3   9 122.206 18.6534   4
 -12  -3   8 21.9706 15.5937   4
 -12  -3   7 19.7950 14.2185   4
 -12  -3   6 51.6524 14.3134   4
 -12  -3   5 74.0340 14.1373   4
 -12  -3   4 3.52257 12.1224   4
 -12  -4   7 36.8424 13.2986   4
 -12  -4   6 74.6559 14.3515   4
 -12  -4   5 49.0213 13.5805   4
 -13   4   4 241.830 26.8730   2
 -13   3   4 225.416 27.5749   2
 -13   2   8 11.4515 30.3842   8
 -13   2   8 9.58902 12.4713   5
 -13   2   7-21.2579 29.6921   8
 -13   2   7-3.19181 12.9115   5
 -13   2   6 62.1439 30.0871   8
 -13   2   6 72.1045 16.1770   5
 -13   2   4 5.75304 23.4063   2
 -13   2   3 43.8700 24.2363   2
 -13   1   7 15.7543 31.3227   8
 -13   1   6-7.37458 30.7088   8
 -13   1   5 153.607 33.6529   8
 -13   1   3 57.8070 24.1129   2
 -13   0   5 18.1509 30.4316   8
 -13   0   4 26.0146 29.9398   8
 -13   0   3 176.269 32.0446   8
   0   0   0    0.00    0.00   0
TITL exp_390 in P-1
REM P-1 (#2 in standard setting)
CELL 0.71073   9.200231   9.430639  11.765147  94.6386 110.0908  97.5987
ZERR    4.00   0.000351   0.000404   0.000424   0.0032   0.0035   0.0034
LATT  1
SFAC C H N O
UNIT 44.00 40.00 4.00 4.00
TREF
HKLF 4
END
;
_shelx_hkl_checksum              45286
_shelx_res_file
;
TITL exp_390_a.res in P-1
    exp_390.res
    created by SHELXL-2018/3 at 11:41:32 on 02-Jul-2020
REM Old TITL exp_390 in P-1
REM SHELXT solution in P-1
REM R1 0.162, Rweak 0.012, Alpha 0.064, Orientation as input
REM Formula found by SHELXT: C21 Cl3 Zn2
CELL 0.71073 9.200231 9.430639 11.765147 94.6386 110.0908 97.5987
ZERR 1 0.000351 0.000404 0.000424 0.0032 0.0035 0.0034
LATT 1
SFAC C H Cl N O Zn
UNIT 26 26 6 12 4 4
L.S. 4 0 0
PLAN  20
BOND $H
list 4
fmap 2 53
ACTA
SHEL 999 0.78
OMIT 0 -1 2
OMIT -1 1 2
OMIT 0 1 2
OMIT -1 -1 2
OMIT -2 1 1
DFIX 0.83 O1 H1A O1 H1B
REM <olex2.extras>
REM <HklSrc "%.\\exp_390.hkl">
REM </olex2.extras>
CONF
EQIV $2 -x+2, -y+1, -z+1
HTAB O1 Cl3_$2
EQIV $3 x, y+1, z
HTAB O1 Cl2_$3
HTAB C8 Cl1
EQIV $4 -x+1, -y+2, -z
HTAB C2 O1_$4
EQIV $5 -x+1, -y+1, -z+1
HTAB C6 Cl3_$5
HTAB N3 O2_$5
WGHT    0.058300    0.503800
FVAR       0.78726
ZN1   6    0.802552    0.264141    0.428604    11.00000    0.03130    0.03637 =
         0.03306    0.00942    0.01808    0.01189
ZN2   6    0.573621    0.623370    0.142744    11.00000    0.03940    0.04184 =
         0.03062    0.01138    0.02281    0.01887
CL1   3    0.669949    0.595645   -0.011404    11.00000    0.04565    0.04753 =
         0.03645    0.00702    0.02906    0.01111
CL2   3    0.616341    0.065232    0.348848    11.00000    0.04304    0.04495 =
         0.07566   -0.01033    0.03105    0.00069
CL3   3    0.934838    0.257846    0.627649    11.00000    0.03430    0.08516 =
         0.03730    0.01418    0.01523    0.02317
O1    5    0.738722    0.811334    0.241716    11.00000    0.03973    0.04286 =
         0.04501    0.00469    0.01103    0.01764
H1A   2    0.823071    0.801623    0.291077    11.00000   -1.50000
H1B   2    0.717608    0.878479    0.278415    11.00000   -1.50000
N1    4    0.406230    0.766948    0.069960    11.00000    0.03269    0.03730 =
         0.02853    0.00781    0.01521    0.00972
N4    4    0.669472    0.492688    0.281266    11.00000    0.03494    0.04077 =
         0.03089    0.01060    0.02092    0.01868
N5    4    0.784746    0.408545    0.303024    11.00000    0.02874    0.03298 =
         0.03290    0.00769    0.01729    0.01232
O2    5    0.646040    0.414597    0.457741    11.00000    0.04698    0.04797 =
         0.03233    0.01830    0.02631    0.02699
N2    4    0.451782    0.641860    0.265159    11.00000    0.03368    0.03708 =
         0.02748    0.01014    0.01748    0.01628
C5    1    0.320666    0.796040    0.138894    11.00000    0.03307    0.04189 =
         0.03290    0.00766    0.01355    0.01524
C7    1    0.608037    0.486520    0.369657    11.00000    0.02960    0.03595 =
         0.02788    0.00468    0.01547    0.01226
N3    4    0.493245    0.568882    0.361697    11.00000    0.04195    0.05106 =
         0.03264    0.01659    0.02515    0.02735
H3N   2    0.441636    0.567422    0.408946    11.00000   -1.20000
C1    1    0.386374    0.830714   -0.030257    11.00000    0.04407    0.04331 =
         0.03402    0.00976    0.01654    0.00595
AFIX  43
H1    2    0.444294    0.809996   -0.078687    11.00000   -1.20000
AFIX   0
C10   1    1.115991    0.329273    0.227827    11.00000    0.04056    0.04655 =
         0.05191    0.00592    0.03107    0.01003
AFIX  43
H10   2    1.115666    0.386847    0.167216    11.00000   -1.20000
AFIX   0
N6    4    0.996579    0.240712    0.364722    11.00000    0.03301    0.04460 =
         0.04021    0.00916    0.02121    0.01679
C9    1    0.999987    0.324345    0.277680    11.00000    0.02852    0.03943 =
         0.03594    0.00457    0.01880    0.00827
C4    1    0.214721    0.890471    0.109595    11.00000    0.04614    0.05616 =
         0.05220    0.01661    0.02105    0.02824
AFIX  43
H4    2    0.156102    0.908579    0.158053    11.00000   -1.20000
AFIX   0
C8    1    0.876746    0.413366    0.242961    11.00000    0.03477    0.03668 =
         0.03769    0.01020    0.02297    0.01363
AFIX  43
H8    2    0.866238    0.470241    0.180546    11.00000   -1.20000
AFIX   0
C2    1    0.282551    0.926629   -0.064628    11.00000    0.04885    0.05155 =
         0.04300    0.02097    0.01111    0.01202
AFIX  43
H2    2    0.270608    0.969450   -0.135049    11.00000   -1.20000
AFIX   0
C11   1    1.233373    0.246645    0.269805    11.00000    0.03859    0.05744 =
         0.07026    0.00088    0.03693    0.01079
AFIX  43
H11   2    1.312414    0.247754    0.237298    11.00000   -1.20000
AFIX   0
C6    1    0.349870    0.724758    0.248061    11.00000    0.04014    0.05262 =
         0.03680    0.01241    0.02469    0.02270
AFIX  43
H6    2    0.297366    0.738940    0.301839    11.00000   -1.20000
AFIX   0
C3    1    0.197946    0.957177    0.006918    11.00000    0.04897    0.05735 =
         0.06183    0.02331    0.01534    0.02908
AFIX  43
H3    2    0.129191    1.022847   -0.013639    11.00000   -1.20000
AFIX   0
C13   1    1.109981    0.162461    0.404423    11.00000    0.04606    0.05445 =
         0.05058    0.01550    0.02662    0.02358
AFIX  43
H13   2    1.107789    0.104825    0.464524    11.00000   -1.20000
AFIX   0
C12   1    1.230945    0.163677    0.359621    11.00000    0.04023    0.06504 =
         0.06497    0.01060    0.02811    0.02940
AFIX  43
H12   2    1.309318    0.108995    0.390059    11.00000   -1.20000
AFIX   0
HKLF 4
REM  exp_390_a.res in P-1
REM wR2 = 0.1025, GooF = S = 1.045, Restrained GooF = 1.045 for all data
REM R1 = 0.0386 for 3343 Fo > 4sig(Fo) and 0.0526 for all 4127 data
REM 244 parameters refined using 2 restraints
END
WGHT      0.0583      0.5038
REM Highest difference peak  0.804,  deepest hole -0.941,  1-sigma level  0.125
Q1    1   0.7762  0.1659  0.4007  11.00000  0.05    0.80
Q2    1   0.8257  0.3594  0.4550  11.00000  0.05    0.75
Q3    1   0.6083  0.7254  0.1749  11.00000  0.05    0.70
Q4    1   0.5521  0.5212  0.1244  11.00000  0.05    0.69
Q5    1   0.7254  0.6773  0.0328  11.00000  0.05    0.56
Q6    1   0.6441  0.1538  0.3817  11.00000  0.05    0.56
Q7    1   0.9091  0.3400  0.2357  11.00000  0.05    0.52
Q8    1   0.6147 -0.0188  0.3417  11.00000  0.05    0.50
Q9    1   0.8852  0.1772  0.5844  11.00000  0.05    0.48
Q10   1   0.3628  0.7779 -0.0048  11.00000  0.05    0.47
Q11   1   0.4961  0.6852  0.1012  11.00000  0.05    0.47
Q12   1   0.6447  0.4965 -0.0461  11.00000  0.05    0.41
Q13   1   0.6245  0.6749 -0.0361  11.00000  0.05    0.39
Q14   1   0.5458  0.0379  0.2761  11.00000  0.05    0.39
Q15   1   0.9554  0.3879  0.2799  11.00000  0.05    0.38
Q16   1   0.7369  0.4631  0.2989  11.00000  0.05    0.37
Q17   1   0.9375  0.3846  0.6400  11.00000  0.05    0.36
Q18   1   0.2316  0.8115  0.1087  11.00000  0.05    0.36
Q19   1   0.5398  0.5017  0.3587  11.00000  0.05    0.36
Q20   1   1.2218  0.3405  0.2933  11.00000  0.05    0.35
;
_shelx_res_checksum              91025
loop_
_space_group_symop_operation_xyz
'x, y, z'
'-x, -y, -z'
loop_
_atom_site_type_symbol
_atom_site_label
_atom_site_fract_x
_atom_site_fract_y
_atom_site_fract_z
_atom_site_U_iso_or_equiv
_atom_site_adp_type
_atom_site_calc_flag
_atom_site_occupancy
_atom_site_disorder_assembly
_atom_site_disorder_group
Zn Zn1 0.80255(4) 0.26414(4) 0.42860(3) 0.03096(12) Uani d 1 . .
Zn Zn2 0.57362(4) 0.62337(4) 0.14274(3) 0.03302(12) Uani d 1 . .
Cl Cl1 0.66995(10) 0.59565(10) -0.01140(7) 0.0390(2) Uani d 1 . .
Cl Cl2 0.61634(11) 0.06523(11) 0.34885(11) 0.0537(3) Uani d 1 . .
Cl Cl3 0.93484(10) 0.25785(12) 0.62765(8) 0.0500(3) Uani d 1 . .
O O1 0.7387(3) 0.8113(3) 0.2417(2) 0.0427(6) Uani d 1 . .
H H1A 0.823(3) 0.802(5) 0.291(4) 0.064 Uiso d 1 . .
H H1B 0.718(6) 0.878(4) 0.278(4) 0.064 Uiso d 1 . .
N N1 0.4062(3) 0.7669(3) 0.0700(2) 0.0312(6) Uani d 1 . .
N N4 0.6695(3) 0.4927(3) 0.2813(2) 0.0316(6) Uani d 1 . .
N N5 0.7847(3) 0.4085(3) 0.3030(2) 0.0290(5) Uani d 1 . .
O O2 0.6460(3) 0.4146(3) 0.4577(2) 0.0366(5) Uani d 1 . .
N N2 0.4518(3) 0.6419(3) 0.2652(2) 0.0297(5) Uani d 1 . .
C C5 0.3207(4) 0.7960(4) 0.1389(3) 0.0345(7) Uani d 1 . .
C C7 0.6080(4) 0.4865(3) 0.3697(3) 0.0291(6) Uani d 1 . .
N N3 0.4932(3) 0.5689(3) 0.3617(3) 0.0362(7) Uani d 1 . .
H H3N 0.442(5) 0.567(4) 0.409(4) 0.043 Uiso d 1 . .
C C1 0.3864(4) 0.8307(4) -0.0303(3) 0.0397(8) Uani d 1 . .
H H1 0.444294 0.809996 -0.078687 0.048 Uiso calc 1 . .
C C10 1.1160(4) 0.3293(4) 0.2278(4) 0.0423(8) Uani d 1 . .
H H10 1.115666 0.386847 0.167216 0.051 Uiso calc 1 . .
N N6 0.9966(3) 0.2407(3) 0.3647(3) 0.0359(6) Uani d 1 . .
C C9 1.0000(4) 0.3243(4) 0.2777(3) 0.0325(7) Uani d 1 . .
C C4 0.2147(5) 0.8905(4) 0.1096(4) 0.0481(9) Uani d 1 . .
H H4 0.156102 0.908579 0.158053 0.058 Uiso calc 1 . .
C C8 0.8767(4) 0.4134(4) 0.2430(3) 0.0327(7) Uani d 1 . .
H H8 0.866238 0.470241 0.180546 0.039 Uiso calc 1 . .
C C2 0.2826(5) 0.9266(4) -0.0646(3) 0.0480(9) Uani d 1 . .
H H2 0.270608 0.969450 -0.135049 0.058 Uiso calc 1 . .
C C11 1.2334(5) 0.2466(5) 0.2698(4) 0.0510(10) Uani d 1 . .
H H11 1.312414 0.247754 0.237298 0.061 Uiso calc 1 . .
C C6 0.3499(4) 0.7248(4) 0.2481(3) 0.0385(8) Uani d 1 . .
H H6 0.297366 0.738940 0.301839 0.046 Uiso calc 1 . .
C C3 0.1979(5) 0.9572(5) 0.0069(4) 0.0544(10) Uani d 1 . .
H H3 0.129191 1.022847 -0.013639 0.065 Uiso calc 1 . .
C C13 1.1100(4) 0.1625(4) 0.4044(4) 0.0459(9) Uani d 1 . .
H H13 1.107789 0.104825 0.464524 0.055 Uiso calc 1 . .
C C12 1.2309(5) 0.1637(5) 0.3596(4) 0.0522(10) Uani d 1 . .
H H12 1.309318 0.108995 0.390059 0.063 Uiso calc 1 . .
loop_
_atom_site_aniso_label
_atom_site_aniso_U_11
_atom_site_aniso_U_22
_atom_site_aniso_U_33
_atom_site_aniso_U_12
_atom_site_aniso_U_13
_atom_site_aniso_U_23
Zn1 0.0313(2) 0.0364(2) 0.0331(2) 0.01189(15) 0.01808(15) 0.00942(15)
Zn2 0.0394(2) 0.0418(2) 0.0306(2) 0.01887(17) 0.02281(16) 0.01138(16)
Cl1 0.0456(5) 0.0475(5) 0.0364(4) 0.0111(4) 0.0291(4) 0.0070(3)
Cl2 0.0430(5) 0.0450(5) 0.0757(7) 0.0007(4) 0.0311(5) -0.0103(5)
Cl3 0.0343(4) 0.0852(7) 0.0373(4) 0.0232(5) 0.0152(4) 0.0142(4)
O1 0.0397(14) 0.0429(15) 0.0450(15) 0.0176(12) 0.0110(11) 0.0047(11)
N1 0.0327(13) 0.0373(15) 0.0285(13) 0.0097(11) 0.0152(11) 0.0078(11)
N4 0.0349(14) 0.0408(15) 0.0309(13) 0.0187(12) 0.0209(11) 0.0106(11)
N5 0.0287(13) 0.0330(14) 0.0329(13) 0.0123(11) 0.0173(11) 0.0077(11)
O2 0.0470(13) 0.0480(14) 0.0323(12) 0.0270(11) 0.0263(10) 0.0183(10)
N2 0.0337(13) 0.0371(14) 0.0275(12) 0.0163(11) 0.0175(11) 0.0101(11)
C5 0.0331(16) 0.0419(18) 0.0329(16) 0.0152(14) 0.0136(13) 0.0077(14)
C7 0.0296(15) 0.0359(17) 0.0279(15) 0.0123(13) 0.0155(12) 0.0047(12)
N3 0.0420(16) 0.0511(18) 0.0326(14) 0.0273(14) 0.0251(12) 0.0166(13)
C1 0.0441(19) 0.043(2) 0.0340(17) 0.0059(16) 0.0165(15) 0.0098(15)
C10 0.0406(19) 0.047(2) 0.052(2) 0.0100(16) 0.0311(17) 0.0059(16)
N6 0.0330(14) 0.0446(16) 0.0402(15) 0.0168(12) 0.0212(12) 0.0092(12)
C9 0.0285(15) 0.0394(17) 0.0359(16) 0.0083(13) 0.0188(13) 0.0046(13)
C4 0.046(2) 0.056(2) 0.052(2) 0.0282(19) 0.0211(18) 0.0166(18)
C8 0.0348(16) 0.0367(17) 0.0377(17) 0.0136(14) 0.0230(14) 0.0102(13)
C2 0.049(2) 0.052(2) 0.043(2) 0.0120(18) 0.0111(17) 0.0210(17)
C11 0.0386(19) 0.057(2) 0.070(3) 0.0108(18) 0.0369(19) 0.001(2)
C6 0.0401(18) 0.053(2) 0.0368(17) 0.0227(16) 0.0247(15) 0.0124(15)
C3 0.049(2) 0.057(3) 0.062(3) 0.029(2) 0.0153(19) 0.023(2)
C13 0.046(2) 0.054(2) 0.051(2) 0.0236(18) 0.0266(17) 0.0155(18)
C12 0.040(2) 0.065(3) 0.065(3) 0.0294(19) 0.0281(19) 0.011(2)
loop_
_atom_type_symbol
_atom_type_description
_atom_type_scat_dispersion_real
_atom_type_scat_dispersion_imag
_atom_type_scat_source
C C 0.0033 0.0016 'International Tables Vol C Tables 4.2.6.8 and 6.1.1.4'
H H 0.0000 0.0000 'International Tables Vol C Tables 4.2.6.8 and 6.1.1.4'
Cl Cl 0.1484 0.1585 'International Tables Vol C Tables 4.2.6.8 and 6.1.1.4'
N N 0.0061 0.0033 'International Tables Vol C Tables 4.2.6.8 and 6.1.1.4'
O O 0.0106 0.0060 'International Tables Vol C Tables 4.2.6.8 and 6.1.1.4'
Zn Zn 0.2839 1.4301 'International Tables Vol C Tables 4.2.6.8 and 6.1.1.4'
loop_
_geom_angle_atom_site_label_1
_geom_angle_atom_site_label_2
_geom_angle_atom_site_label_3
_geom_angle_site_symmetry_1
_geom_angle_site_symmetry_3
_geom_angle
_geom_angle_publ_flag
N5 Zn1 N6 . . 75.82(10) y
N5 Zn1 O2 . . 72.76(9) y
N6 Zn1 O2 . . 144.87(10) y
N5 Zn1 Cl3 . . 138.36(8) y
N6 Zn1 Cl3 . . 97.10(8) y
O2 Zn1 Cl3 . . 96.00(6) y
N5 Zn1 Cl2 . . 110.85(8) y
N6 Zn1 Cl2 . . 108.19(9) y
O2 Zn1 Cl2 . . 97.45(7) y
Cl3 Zn1 Cl2 . . 110.31(4) y
N2 Zn2 O1 . . 90.19(11) y
N2 Zn2 N4 . . 73.95(9) y
O1 Zn2 N4 . . 92.86(10) y
N2 Zn2 N1 . . 74.29(9) y
O1 Zn2 N1 . . 87.40(10) y
N4 Zn2 N1 . . 148.24(10) y
N2 Zn2 Cl1 . . 171.67(8) y
O1 Zn2 Cl1 . . 95.98(8) y
N4 Zn2 Cl1 . . 111.20(7) y
N1 Zn2 Cl1 . . 100.33(7) y
N2 Zn2 Cl1 . 2_665 85.59(8) y
O1 Zn2 Cl1 . 2_665 172.20(7) y
N4 Zn2 Cl1 . 2_665 92.27(8) y
N1 Zn2 Cl1 . 2_665 85.15(8) y
Cl1 Zn2 Cl1 . 2_665 87.63(3) y
Zn2 Cl1 Zn2 . 2_665 92.37(3) y
Zn2 O1 H1A . . 119(3) ?
Zn2 O1 H1B . . 124(4) ?
H1A O1 H1B . . 101(5) ?
C1 N1 C5 . . 118.6(3) ?
C1 N1 Zn2 . . 127.0(2) ?
C5 N1 Zn2 . . 114.4(2) ?
C7 N4 N5 . . 108.9(2) ?
C7 N4 Zn2 . . 116.75(19) ?
N5 N4 Zn2 . . 134.33(19) ?
C8 N5 N4 . . 120.9(3) ?
C8 N5 Zn1 . . 119.3(2) ?
N4 N5 Zn1 . . 119.75(19) ?
C7 O2 Zn1 . . 109.38(18) ?
C6 N2 N3 . . 123.3(3) ?
C6 N2 Zn2 . . 119.7(2) ?
N3 N2 Zn2 . . 116.96(18) ?
N1 C5 C4 . . 122.1(3) ?
N1 C5 C6 . . 115.8(3) ?
C4 C5 C6 . . 122.1(3) ?
O2 C7 N4 . . 126.6(3) ?
O2 C7 N3 . . 117.8(3) ?
N4 C7 N3 . . 115.6(3) ?
N2 N3 C7 . . 116.7(3) ?
N2 N3 H3N . . 120(3) ?
C7 N3 H3N . . 123(3) ?
N1 C1 C2 . . 122.3(3) ?
N1 C1 H1 . . 118.9 ?
C2 C1 H1 . . 118.9 ?
C9 C10 C11 . . 118.9(3) ?
C9 C10 H10 . . 120.6 ?
C11 C10 H10 . . 120.6 ?
C13 N6 C9 . . 118.7(3) ?
C13 N6 Zn1 . . 128.7(2) ?
C9 N6 Zn1 . . 112.5(2) ?
N6 C9 C10 . . 121.8(3) ?
N6 C9 C8 . . 115.8(3) ?
C10 C9 C8 . . 122.3(3) ?
C3 C4 C5 . . 118.5(4) ?
C3 C4 H4 . . 120.8 ?
C5 C4 H4 . . 120.8 ?
N5 C8 C9 . . 116.3(3) ?
N5 C8 H8 . . 121.9 ?
C9 C8 H8 . . 121.9 ?
C3 C2 C1 . . 118.7(3) ?
C3 C2 H2 . . 120.6 ?
C1 C2 H2 . . 120.6 ?
C12 C11 C10 . . 119.1(3) ?
C12 C11 H11 . . 120.4 ?
C10 C11 H11 . . 120.4 ?
N2 C6 C5 . . 115.8(3) ?
N2 C6 H6 . . 122.1 ?
C5 C6 H6 . . 122.1 ?
C2 C3 C4 . . 119.9(3) ?
C2 C3 H3 . . 120.1 ?
C4 C3 H3 . . 120.1 ?
N6 C13 C12 . . 122.5(4) ?
N6 C13 H13 . . 118.7 ?
C12 C13 H13 . . 118.7 ?
C11 C12 C13 . . 119.0(3) ?
C11 C12 H12 . . 120.5 ?
C13 C12 H12 . . 120.5 ?
loop_
_geom_bond_atom_site_label_1
_geom_bond_atom_site_label_2
_geom_bond_site_symmetry_2
_geom_bond_distance
_geom_bond_publ_flag
Zn1 N5 . 2.069(2) y
Zn1 N6 . 2.191(3) y
Zn1 O2 . 2.237(2) y
Zn1 Cl3 . 2.2477(9) y
Zn1 Cl2 . 2.2573(10) y
Zn2 N2 . 2.117(2) y
Zn2 O1 . 2.132(3) y
Zn2 N4 . 2.139(3) y
Zn2 N1 . 2.184(3) y
Zn2 Cl1 . 2.2873(8) y
Zn2 Cl1 2_665 2.7489(10) y
O1 H1A . 0.816(19) ?
O1 H1B . 0.819(19) ?
N1 C1 . 1.335(4) ?
N1 C5 . 1.346(4) ?
N4 C7 . 1.345(4) ?
N4 N5 . 1.374(3) ?
N5 C8 . 1.274(4) ?
O2 C7 . 1.258(4) ?
N2 C6 . 1.273(4) ?
N2 N3 . 1.344(3) ?
C5 C4 . 1.382(5) ?
C5 C6 . 1.457(4) ?
C7 N3 . 1.374(4) ?
N3 H3N . 0.85(4) ?
C1 C2 . 1.384(5) ?
C1 H1 . 0.9300 ?
C10 C9 . 1.381(4) ?
C10 C11 . 1.391(5) ?
C10 H10 . 0.9300 ?
N6 C13 . 1.333(4) ?
N6 C9 . 1.348(4) ?
C9 C8 . 1.465(4) ?
C4 C3 . 1.378(5) ?
C4 H4 . 0.9300 ?
C8 H8 . 0.9300 ?
C2 C3 . 1.367(6) ?
C2 H2 . 0.9300 ?
C11 C12 . 1.369(6) ?
C11 H11 . 0.9300 ?
C6 H6 . 0.9300 ?
C3 H3 . 0.9300 ?
C13 C12 . 1.385(5) ?
C13 H13 . 0.9300 ?
C12 H12 . 0.9300 ?
loop_
_geom_hbond_atom_site_label_D
_geom_hbond_atom_site_label_H
_geom_hbond_atom_site_label_A
_geom_hbond_site_symmetry_A
_geom_hbond_distance_DH
_geom_hbond_distance_HA
_geom_hbond_distance_DA
_geom_hbond_angle_DHA
_geom_hbond_publ_flag
O1 H1A Cl3 2_766 0.816(19) 2.27(2) 3.052(3) 161(5) yes
O1 H1B Cl2 1_565 0.819(19) 2.32(2) 3.129(3) 169(5) yes
C8 H8 Cl1 . 0.93 2.82 3.649(3) 149.0 yes
C2 H2 O1 2_675 0.93 2.50 3.342(4) 150.7 yes
C6 H6 Cl3 2_666 0.93 2.55 3.425(3) 157.8 yes
N3 H3N O2 2_666 0.85(4) 2.00(4) 2.837(3) 170(4) yes
loop_
_geom_torsion_atom_site_label_1
_geom_torsion_atom_site_label_2
_geom_torsion_atom_site_label_3
_geom_torsion_atom_site_label_4
_geom_torsion_site_symmetry_1
_geom_torsion_site_symmetry_2
_geom_torsion_site_symmetry_3
_geom_torsion_site_symmetry_4
_geom_torsion
_geom_torsion_publ_flag
C7 N4 N5 C8 . . . . -169.4(3) ?
Zn2 N4 N5 C8 . . . . 10.8(5) ?
C7 N4 N5 Zn1 . . . . 13.8(3) ?
Zn2 N4 N5 Zn1 . . . . -166.03(17) ?
C1 N1 C5 C4 . . . . -0.6(5) ?
Zn2 N1 C5 C4 . . . . 176.8(3) ?
C1 N1 C5 C6 . . . . -179.0(3) ?
Zn2 N1 C5 C6 . . . . -1.6(4) ?
Zn1 O2 C7 N4 . . . . -10.3(4) ?
Zn1 O2 C7 N3 . . . . 170.3(2) ?
N5 N4 C7 O2 . . . . -1.0(5) ?
Zn2 N4 C7 O2 . . . . 178.8(3) ?
N5 N4 C7 N3 . . . . 178.4(3) ?
Zn2 N4 C7 N3 . . . . -1.7(4) ?
C6 N2 N3 C7 . . . . -178.3(3) ?
Zn2 N2 N3 C7 . . . . -1.6(4) ?
O2 C7 N3 N2 . . . . -178.4(3) ?
N4 C7 N3 N2 . . . . 2.2(5) ?
C5 N1 C1 C2 . . . . 0.8(5) ?
Zn2 N1 C1 C2 . . . . -176.2(3) ?
C13 N6 C9 C10 . . . . 0.9(5) ?
Zn1 N6 C9 C10 . . . . 177.9(3) ?
C13 N6 C9 C8 . . . . -176.8(3) ?
Zn1 N6 C9 C8 . . . . 0.1(4) ?
C11 C10 C9 N6 . . . . -0.7(6) ?
C11 C10 C9 C8 . . . . 176.9(4) ?
N1 C5 C4 C3 . . . . -0.5(6) ?
C6 C5 C4 C3 . . . . 177.8(4) ?
N4 N5 C8 C9 . . . . 177.2(3) ?
Zn1 N5 C8 C9 . . . . -6.0(4) ?
N6 C9 C8 N5 . . . . 3.7(5) ?
C10 C9 C8 N5 . . . . -174.0(3) ?
N1 C1 C2 C3 . . . . 0.2(6) ?
C9 C10 C11 C12 . . . . -0.4(6) ?
N3 N2 C6 C5 . . . . 179.5(3) ?
Zn2 N2 C6 C5 . . . . 2.9(4) ?
N1 C5 C6 N2 . . . . -0.7(5) ?
C4 C5 C6 N2 . . . . -179.1(4) ?
C1 C2 C3 C4 . . . . -1.3(7) ?
C5 C4 C3 C2 . . . . 1.5(7) ?
C9 N6 C13 C12 . . . . -0.1(6) ?
Zn1 N6 C13 C12 . . . . -176.5(3) ?
C10 C11 C12 C13 . . . . 1.2(7) ?
N6 C13 C12 C11 . . . . -1.0(7) ?

_cod_database_fobs_code 2243507
