#------------------------------------------------------------------------------
#$Date: 2019-07-11 07:09:03 +0300 (Thu, 11 Jul 2019) $
#$Revision: 216956 $
#$URL: file:///home/coder/svn-repositories/cod/cif/2/24/30/2243005.cif $
#------------------------------------------------------------------------------
#
# This file is available in the Crystallography Open Database (COD),
# http://www.crystallography.net/. The original data for this entry
# were provided by IUCr Journals, http://journals.iucr.org/.
#
# The file may be used within the scientific community so long as
# proper attribution is given to the journal article from which the
# data were obtained.
#
data_2243005
loop_
_publ_author_name
'Peloquin, Andrew J.'
'Corley, Cynthia A.'
'Adas, Sonya K.'
'Balaich, Gary J.'
'Iacono, Scott T.'
_publ_section_title
;
 Crystal structures and Hirshfeld surface analysis of a series of
 4-<i>O</i>-arylperfluoropyridines
;
_journal_coeditor_code           HB7833
_journal_issue                   8
_journal_name_full               'Acta Crystallographica Section E'
_journal_page_first              1102
_journal_page_last               1107
_journal_paper_doi               10.1107/S2056989019009344
_journal_volume                  75
_journal_year                    2019
_chemical_formula_iupac          'C15 H6 Br F4 N O'
_chemical_formula_moiety         'C15 H6 Br F4 N O'
_chemical_formula_sum            'C15 H6 Br F4 N O'
_chemical_formula_weight         372.12
_chemical_name_systematic
;
4-[(6-Bromonaphthalen-2-yl)oxy]-2,3,5,6-tetrafluoropyridine
;
_space_group_crystal_system      monoclinic
_space_group_IT_number           4
_space_group_name_Hall           'P 2yb'
_space_group_name_H-M_alt        'P 1 21 1'
_symmetry_space_group_name_Hall  'P 2yb'
_symmetry_space_group_name_H-M   'P 1 21 1'
_atom_sites_solution_hydrogens   geom
_atom_sites_solution_primary     direct
_cell_angle_alpha                90
_cell_angle_beta                 101.401(2)
_cell_angle_gamma                90
_cell_formula_units_Z            2
_cell_length_a                   6.0135(3)
_cell_length_b                   7.4994(4)
_cell_length_c                   14.6318(7)
_cell_measurement_reflns_used    7392
_cell_measurement_temperature    100.(2)
_cell_measurement_theta_max      27.3803
_cell_measurement_theta_min      3.0652
_cell_volume                     646.84(6)
_computing_cell_refinement
;
SAINT (Bruker, 2017)
;
_computing_data_collection
;
APEX3 (Bruker, 2017)
;
_computing_data_reduction
;
SAINT (Bruker, 2017)
;
_computing_molecular_graphics
;
Mercury (Macrae <i>et al.</i>, 2008)
;
_computing_publication_material
;
<i>publCIF</i> (Westrip, 2010)
;
_computing_structure_refinement
;
<i>SHELXL2016/6</i> (Sheldrick, 2015b)
;
_computing_structure_solution
;
SHELXT (Sheldrick, 2015<i>a</i>)
;
_diffrn_ambient_temperature      100.(2)
_diffrn_detector_area_resol_mean 8.3333
_diffrn_measured_fraction_theta_full 0.980
_diffrn_measured_fraction_theta_max 0.980
_diffrn_measurement_device_type  'Bruker SMART APEX CCD'
_diffrn_measurement_method       'Omega Scans'
_diffrn_radiation_monochromator  graphite
_diffrn_radiation_type           'Mo K\a'
_diffrn_radiation_wavelength     0.71073
_diffrn_reflns_av_R_equivalents  0.0403
_diffrn_reflns_av_unetI/netI     0.0431
_diffrn_reflns_limit_h_max       7
_diffrn_reflns_limit_h_min       -7
_diffrn_reflns_limit_k_max       9
_diffrn_reflns_limit_k_min       -9
_diffrn_reflns_limit_l_max       18
_diffrn_reflns_limit_l_min       -18
_diffrn_reflns_number            12954
_diffrn_reflns_theta_full        27.10
_diffrn_reflns_theta_max         27.10
_diffrn_reflns_theta_min         1.42
_diffrn_source                   'fine focus sealed tube'
_exptl_absorpt_coefficient_mu    3.226
_exptl_absorpt_correction_T_max  0.89
_exptl_absorpt_correction_T_min  0.63
_exptl_absorpt_correction_type   multi-scan
_exptl_absorpt_process_details
;
(SADABS; Bruker, 2017)
;
_exptl_crystal_colour            colourless
_exptl_crystal_density_diffrn    1.911
_exptl_crystal_density_method    'not measured'
_exptl_crystal_description       plate
_exptl_crystal_F_000             364
_exptl_crystal_size_max          0.297
_exptl_crystal_size_mid          0.136
_exptl_crystal_size_min          0.038
_refine_diff_density_max         0.695
_refine_diff_density_min         -0.465
_refine_ls_abs_structure_details
;
Refined as an inversion twin
;
_refine_ls_abs_structure_Flack   0.171(12)
_refine_ls_extinction_method     none
_refine_ls_goodness_of_fit_ref   1.143
_refine_ls_hydrogen_treatment    constr
_refine_ls_matrix_type           full
_refine_ls_number_parameters     200
_refine_ls_number_reflns         2775
_refine_ls_number_restraints     1
_refine_ls_restrained_S_all      1.143
_refine_ls_R_factor_all          0.0342
_refine_ls_R_factor_gt           0.0305
_refine_ls_shift/su_max          0.001
_refine_ls_shift/su_mean         0.000
_refine_ls_structure_factor_coef Fsqd
_refine_ls_weighting_details
'w=1/[\s^2^(Fo^2^)+(0.0174P)^2^+0.1470P] where P=(Fo^2^+2Fc^2^)/3'
_refine_ls_weighting_scheme      calc
_refine_ls_wR_factor_gt          0.0568
_refine_ls_wR_factor_ref         0.0575
_reflns_number_gt                2566
_reflns_number_total             2775
_reflns_threshold_expression     'I > 2\s(I)'
_cod_data_source_file            hb7833sup1.cif
_cod_data_source_block           IV
_cod_database_code               2243005
_shelx_hkl_file
;
   2   0   0    1.10    1.70
   2   0   0    1.90    2.80
  -2   0   0    0.90    1.40
   2   0   0   -0.40    1.20
   2   0   0    0.10    1.10
   2   0   0    1.30    1.30
   3   0   0 1477.75   67.89
  -3   0   0 1420.56   69.09
   3   0   0 1383.36   69.29
   3   0   0 1345.77   68.89
   3   0   0 1320.17   67.69
   3   0   0 1398.06   70.09
   3   0   0 1318.67   73.19
   3   0   0 1409.56   69.29
  -3   0   0 1349.56   73.09
   4   0   0  900.11   46.60
   4   0   0  951.70   49.80
   4   0   0  968.00   53.79
   4   0   0  957.40   48.60
  -4   0   0  944.91   53.59
  -4   0   0  982.10   48.30
   4   0   0  946.01   48.50
   4   0   0  897.81   48.00
   4   0   0  906.71   47.00
   5   0   0  199.38   13.50
  -5   0   0  205.08   13.40
   5   0   0  181.28   13.00
   5   0   0  209.18   11.80
   5   0   0  199.38   15.80
   5   0   0  198.88   13.50
   6   0   0   53.89   13.40
   7   0   0   18.40    9.70
   7   0   0    3.50    5.70
  -7   0   0   22.10   10.60
   0  -1   0    3.50    0.90
   0  -1   0    3.40    0.80
   0   1   0    2.90    0.90
   0   1   0    5.30    1.50
   0   1   0    4.00    1.00
  -1  -1   0   35.10    3.20
  -1   1   0   33.00    3.70
  -1   1   0   30.70    2.50
   1   1   0   29.40    2.30
   1   1   0   28.80    2.60
  -1   1   0   28.20    2.40
   1   1   0   31.30    2.90
  -1   1   0   33.50    2.70
   1   1   0   29.30    2.80
   1   1   0   28.60    2.30
   2  -1   0  716.23   33.50
   2  -1   0  739.63   33.30
  -2  -1   0  728.73   34.80
   2  -1   0  694.73   33.50
   2  -1   0  699.23   33.90
   2  -1   0  705.53   34.00
   2  -1   0  735.43   34.60
   2  -1   0  686.13   33.40
  -2   1   0  657.63   32.90
   2   1   0  624.24   34.00
  -2   1   0  648.74   34.00
   2   1   0  598.74   37.10
   2   1   0  680.43   33.20
   2   1   0  645.24   33.40
   2   1   0  636.54   32.90
   2   1   0  651.33   34.30
  -2   1   0  645.54   36.50
   2   1   0  620.34   34.50
  -2   1   0  611.94   33.10
   2   1   0  610.54   34.20
   3  -1   0  365.46   19.40
   3  -1   0  411.26   19.60
   3  -1   0  377.06   20.30
   3  -1   0  404.16   20.10
  -3  -1   0  414.66   21.70
   3  -1   0  411.76   19.80
   3  -1   0  401.76   21.20
   3   1   0  351.96   20.80
   3   1   0  351.66   21.40
   3   1   0  344.07   19.60
   3   1   0  358.96   18.80
  -3   1   0  353.66   23.70
  -3   1   0  357.06   20.30
   3   1   0  338.47   20.50
   4  -1   0   26.20    4.70
   4  -1   0   25.70    3.20
   4  -1   0   32.30    4.50
   4  -1   0   29.20    5.60
  -4  -1   0   30.30    6.40
   4  -1   0   30.00    4.00
   4  -1   0   28.50    4.80
   4  -1   0   30.00    3.50
  -4  -1   0   26.60    4.00
   4   1   0   30.60    4.00
  -4   1   0   41.10    5.60
  -4   1   0   27.60    7.50
   4   1   0   28.80    4.90
   4   1   0   28.90    8.30
   4   1   0   36.80    5.50
   4   1   0   30.20    2.70
   4   1   0   27.20    4.90
   4   1   0   28.30    6.00
   5  -1   0  101.79   11.10
  -5  -1   0  101.99   11.90
   5  -1   0  102.19    8.60
   5  -1   0   97.79    9.50
   5  -1   0   93.99    7.20
  -5  -1   0  108.29    8.40
   5   1   0  103.99   11.90
   5   1   0   99.79    6.60
   5   1   0  105.29    9.90
  -5   1   0  106.19    9.20
   5   1   0  102.19    8.10
   5   1   0  110.09   10.70
   5   1   0  111.19    9.90
  -6  -1   0  145.49   15.80
  -6   1   0  150.78   12.50
   6   1   0  154.18   13.10
   6   1   0  146.89   14.20
   6   1   0  141.99   15.80
   7   1   0  139.59   15.10
   7   1   0  137.19   16.60
   0  -2   0 5140.59  248.18
   0  -2   0 4610.94  246.98
   0  -2   0 4872.41  248.98
   0  -2   0 5071.69  247.88
   0   2   0 4785.12  255.17
   0   2   0 5378.56  248.18
   0   2   0 5004.00  247.08
   0   2   0 5354.86  249.48
   0   2   0 5209.48  247.88
   1  -2   0  253.17   13.40
  -1  -2   0  262.77   13.40
  -1  -2   0  258.47   13.00
   1  -2   0  261.57   13.40
   1  -2   0  277.17   13.60
  -1  -2   0  261.47   13.10
  -1  -2   0  285.57   13.50
  -1   2   0  228.18   13.20
   1   2   0  224.38   13.00
   1   2   0  225.28   13.40
   1   2   0  216.48   15.60
  -1   2   0  224.58   13.10
  -1   2   0  227.48   13.20
   1   2   0  227.48   13.10
   1   2   0  227.08   13.30
  -1   2   0  220.88   15.50
   1   2   0  221.08   13.10
   2  -2   0   15.40    2.50
   2  -2   0   17.80    2.80
   2  -2   0   20.10    2.00
  -2  -2   0   22.30    3.80
   2  -2   0   17.80    2.70
   2  -2   0   19.50    3.30
   2   2   0   12.70    2.80
   2   2   0   28.60    5.10
  -2   2   0   17.00    3.00
   2   2   0   17.80    3.10
  -2   2   0   17.40    2.50
   2   2   0   19.00    2.60
   2   2   0   20.30    2.50
  -2   2   0   25.40    5.10
   2   2   0   15.40    3.00
   2   2   0   17.00    2.00
   3  -2   0  193.48   12.60
   3  -2   0  191.08   11.50
  -3  -2   0  175.28   12.90
   3  -2   0  204.58   11.80
   3  -2   0  203.68   11.00
  -3   2   0  199.98   10.50
   3   2   0  194.68   10.80
   3   2   0  199.28   10.90
  -3   2   0  200.48   15.20
  -3   2   0  198.08   12.30
   3   2   0  188.38   17.00
   3   2   0  196.98   12.50
   3   2   0  191.08   12.50
   3   2   0  192.58   10.90
   3   2   0  196.28   12.60
   3   2   0  178.18   12.90
   4  -2   0  284.97   16.60
  -4  -2   0  263.07   18.80
   4  -2   0  286.77   18.40
  -4  -2   0  301.07   16.20
   4  -2   0  283.87   17.20
   4  -2   0  308.87   16.50
   4   2   0  294.07   18.40
   4   2   0  295.67   18.40
  -4   2   0  306.47   21.70
   4   2   0  266.27   18.90
   4   2   0  268.37   23.90
  -4   2   0  308.67   17.80
   4   2   0  292.87   16.10
   4   2   0  301.67   15.80
   4   2   0  297.77   15.80
   4   2   0  287.87   17.90
   5  -2   0   96.89    7.90
  -5  -2   0   86.89   11.60
   5  -2   0   94.39   11.20
   5   2   0  122.09   11.00
   5   2   0  118.49   11.50
   5   2   0  111.49   10.80
  -5   2   0  107.99    9.80
   5   2   0  102.99   12.30
   6  -2   0  196.28   17.60
  -6  -2   0  181.48   18.40
   6   2   0  183.28   15.30
  -6   2   0  188.18   15.20
   6   2   0  210.88   17.20
   6   2   0  148.69   18.20
   7  -2   0   12.20    9.50
  -7   2   0    9.20    6.80
   7   2   0   10.00    7.90
   7   2   0   11.80    7.50
   7   2   0   -3.40    7.80
   0  -3   0   -0.70    1.10
   0  -3   0    0.10    1.60
   0  -3   0   -0.40    1.40
   0  -3   0    1.00    1.70
   0  -3   0    1.60    1.30
   0   3   0   -0.30    1.40
   0   3   0    0.00    2.30
   0   3   0    0.90    1.40
   0   3   0   -0.60    1.80
   0   3   0    0.80    1.40
   0   3   0    3.20    2.90
  -1  -3   0    7.80    2.10
  -1  -3   0   13.00    2.70
   1  -3   0   12.30    2.20
   1  -3   0    7.80    2.10
   1  -3   0    9.60    2.40
  -1  -3   0   13.90    2.70
   1   3   0    3.70    2.00
   1   3   0    5.30    1.50
  -1   3   0    3.10    1.80
  -1   3   0    5.60    3.40
   1   3   0    4.90    2.30
  -1   3   0    2.50    2.10
   1   3   0    5.50    3.00
   1   3   0    4.70    2.30
   1   3   0    4.80    2.10
  -1   3   0    2.40    1.20
   1   3   0    6.00    2.20
   2  -3   0  931.81   49.10
  -2  -3   0  880.21   48.00
   2  -3   0  979.90   49.10
  -2  -3   0  941.51   49.00
   2  -3   0  916.81   48.80
  -2  -3   0  925.81   49.00
  -2   3   0  972.70   48.70
   2   3   0  983.20   49.50
   2   3   0  977.70   49.10
  -2   3   0  952.60   53.29
  -2   3   0  994.60   49.00
   2   3   0  958.80   48.50
   2   3   0  977.90   48.70
   2   3   0 1011.70   49.50
   2   3   0  900.31   53.69
   2   3   0  977.50   47.60
   3  -3   0  229.58   13.70
  -3  -3   0  223.78   14.10
  -3  -3   0  233.38   14.60
   3  -3   0  235.58   12.00
   3  -3   0  233.58   14.40
   3  -3   0  237.88   13.40
   3   3   0  209.58   12.70
  -3   3   0  214.18   17.90
   3   3   0  212.68   12.90
  -3   3   0  213.48   13.70
   3   3   0  210.58   13.90
   3   3   0  205.38   14.20
   3   3   0  199.28   14.10
   3   3   0  209.98   11.90
   4  -3   0   35.00    5.10
  -4  -3   0   29.70    5.70
   4  -3   0   31.70    4.90
  -4  -3   0   29.60    7.00
   4  -3   0   37.70    6.70
   4   3   0   33.40    6.40
   4   3   0   44.30    7.00
   4   3   0   34.70    4.40
   4   3   0   42.10    7.10
  -4   3   0   41.80    6.20
   4   3   0   30.30   10.70
  -5  -3   0  142.19   13.00
  -5  -3   0  122.29   14.00
   5  -3   0  143.99   13.70
   5   3   0  144.29   13.10
   5   3   0  144.99   12.50
  -5   3   0  140.59   12.00
   5   3   0  154.58   13.70
   6  -3   0  204.98   18.20
  -6  -3   0  179.38   17.90
  -6  -3   0  204.08   16.60
  -6   3   0  185.08   15.40
   6   3   0  196.88   16.80
   6   3   0  193.18   17.50
   6   3   0  189.58   16.50
  -7  -3   0    6.00    7.40
   7  -3   0    5.90    9.90
  -7  -3   0    7.60    9.00
  -7   3   0   14.40    8.20
   7   3   0   12.40    8.10
   7   3   0   10.60    5.90
   7   3   0    7.30    8.30
   0  -4   0  569.14   30.20
   0  -4   0  595.14   30.60
   0  -4   0  621.44   31.40
   0  -4   0  615.64   30.00
   0   4   0  591.74   30.10
   0   4   0  563.84   30.20
   0   4   0  523.55   30.80
   0   4   0  591.34   30.20
   0   4   0  541.45   35.30
   0   4   0  568.14   31.00
  -1  -4   0  780.72   43.40
   1  -4   0  804.92   43.90
   1  -4   0  819.82   43.20
   1  -4   0  801.02   43.70
   1  -4   0  825.02   42.40
  -1  -4   0  828.72   43.50
   1  -4   0  838.72   44.30
  -1  -4   0  824.52   43.80
   1   4   0  919.71   44.10
   1   4   0  879.51   43.00
   1   4   0  796.22   49.00
  -1   4   0  897.21   44.20
  -1   4   0  813.32   48.70
  -1   4   0  879.61   43.50
   1   4   0  870.11   44.10
  -1   4   0  865.11   42.60
   1   4   0  827.12   43.80
   1   4   0  908.51   43.70
   2  -4   0    7.30    2.60
   2  -4   0   11.50    3.60
   2  -4   0    7.80    3.40
   2  -4   0    4.80    2.00
  -2  -4   0    6.60    3.40
  -2  -4   0    8.10    3.50
   2  -4   0    5.00    1.30
  -2  -4   0    5.30    1.90
  -2   4   0    9.30    2.90
  -2   4   0   14.30    5.60
   2   4   0   12.60    5.90
   2   4   0    7.60    3.40
   2   4   0   11.80    3.40
   2   4   0   10.70    2.00
   2   4   0   11.30    3.50
   2   4   0    6.70    3.30
  -2   4   0   11.10    3.50
   2   4   0   12.30    3.70
   3  -4   0  163.78   12.00
   3  -4   0  155.68   10.80
   3  -4   0  155.98   11.40
   3   4   0  173.98   12.50
  -3   4   0  142.39   10.90
   3   4   0  143.09   11.30
   3   4   0  156.58   10.60
  -4  -4   0  436.96   26.70
   4  -4   0  407.06   26.00
   4  -4   0  416.56   25.00
  -4  -4   0  384.76   25.60
   4   4   0  441.26   35.30
   4   4   0  467.85   26.90
   4   4   0  427.36   26.30
   4   4   0  447.36   26.60
  -4   4   0  437.56   31.70
   4   4   0  439.76   26.00
  -4   4   0  441.56   25.60
   5  -4   0  154.58   15.80
  -5  -4   0  140.69   14.90
  -5  -4   0  154.68   14.30
   5   4   0  184.78   15.20
  -5   4   0  167.88   13.60
   5   4   0  166.58   14.90
   5   4   0  175.98   14.40
  -6  -4   0   82.49   13.10
  -6  -4   0  103.09   13.70
   6  -4   0  103.59   14.30
   6   4   0  117.29   15.00
  -6   4   0  100.49   12.90
   6   4   0   95.69   12.80
   6   4   0  130.59   15.70
   0  -5   0   -0.10    1.90
   0  -5   0   -0.50    2.40
   0  -5   0   -0.20    2.40
   0  -5   0   -0.60    2.80
   0   5   0    1.00    3.40
   0   5   0    0.00    2.20
   0   5   0   -0.20    2.30
   0   5   0    4.70    5.00
  -1  -5   0   79.29    6.90
   1  -5   0   85.59    7.40
   1  -5   0   80.99    5.40
   1  -5   0   80.19    6.40
   1  -5   0   74.69    7.70
  -1  -5   0   79.79    7.20
  -1   5   0   57.59    7.10
   1   5   0   63.29    5.70
  -1   5   0   58.79    5.30
   1   5   0   64.99    6.60
   1   5   0   64.59   11.10
  -1   5   0   56.89    6.20
   1   5   0   61.39    7.30
   1   5   0   57.89    6.90
  -1   5   0   65.79   10.20
   2  -5   0  562.64   31.30
   2  -5   0  505.85   30.40
  -2  -5   0  553.94   30.70
   2  -5   0  598.04   32.00
  -2  -5   0  572.14   31.20
  -2   5   0  549.54   37.30
   2   5   0  573.64   31.70
   2   5   0  556.84   38.60
  -2   5   0  559.84   30.80
   2   5   0  577.14   31.10
   2   5   0  565.34   31.10
  -3  -5   0  170.58   13.20
  -3  -5   0  182.08   13.00
   3  -5   0  171.68   13.10
  -3  -5   0  188.28   13.50
   3  -5   0  168.58   13.30
   3   5   0  165.68   13.80
   3   5   0  157.48   13.00
   3   5   0  187.08   20.60
   3   5   0  149.88   13.00
  -3   5   0  157.78   12.70
   3   5   0  165.28   12.10
  -3   5   0  189.28   18.70
   4  -5   0  108.59   12.00
  -4  -5   0  120.79   13.00
  -4  -5   0  108.89   10.60
  -4  -5   0  113.99   12.40
   4   5   0  111.99   11.20
   4   5   0  116.19   12.50
  -4   5   0  105.49   10.60
   4   5   0  102.29   12.40
  -4   5   0  137.29   16.30
  -5  -5   0   70.19   10.90
  -5  -5   0   80.29   11.80
  -5  -5   0   48.00    8.60
   5  -5   0   57.69   10.40
   5   5   0   77.49   11.50
   5   5   0   64.89   10.60
  -5   5   0   60.19    9.40
   5   5   0   69.99   10.50
   6  -5   0   90.79   14.00
  -6  -5   0   80.99   12.20
  -6  -5   0   81.79   13.30
   6   5   0  132.79   16.00
   6   5   0  101.89   14.60
  -6   5   0  121.99   14.60
   6   5   0   91.29   13.50
   0  -6   0  978.80   46.70
   0  -6   0  961.80   45.80
   0  -6   0  964.00   47.20
   0   6   0  814.92   54.49
   0   6   0  842.02   46.00
   0   6   0  800.32   46.10
   0   6   0  820.42   47.30
   1  -6   0   41.50   10.00
  -1  -6   0   66.99    8.10
  -1  -6   0   64.39    8.00
  -1  -6   0   55.59    6.40
   1  -6   0   52.49    7.50
   1  -6   0   37.80    5.60
   1   6   0   45.30   11.90
   1   6   0   49.80    7.10
  -1   6   0   61.79   12.30
   1   6   0   38.90    5.90
   1   6   0   55.39    7.80
   2  -6   0    4.70    4.60
   2  -6   0    1.30    3.60
  -2  -6   0    6.90    4.50
  -2  -6   0    6.70    4.50
  -2  -6   0    8.10    5.30
   2   6   0    8.40    8.70
   2   6   0    2.80    4.30
   2   6   0    4.70    3.80
  -2   6   0   11.40    7.60
  -2   6   0    1.30    3.90
   2   6   0    2.50    4.00
  -3  -6   0   50.19    7.90
  -3  -6   0   64.49    9.40
  -3  -6   0   61.29    8.80
   3  -6   0   61.89    8.40
   3  -6   0   68.59    9.60
  -3   6   0   79.19   14.90
  -3   6   0   40.50    7.40
   3   6   0   37.00    7.40
   3   6   0   53.69    9.40
   3   6   0   93.09   17.70
  -4  -6   0  107.99   12.20
   4  -6   0  109.19   13.80
  -4  -6   0  105.89   12.50
  -4  -6   0  107.19   11.40
   4   6   0  100.89   11.50
   4   6   0  103.59   12.60
   4   6   0  104.29   12.40
  -4   6   0  107.89   11.20
  -5  -6   0  108.39   14.20
  -5  -6   0   99.79   12.00
  -5  -6   0   97.79   13.40
   5  -6   0   83.89   13.70
   5   6   0  112.89   14.80
   5   6   0   98.79   13.90
   5   6   0   87.99   12.40
  -5   6   0  103.29   12.00
   0  -7   0   -0.90    3.80
   0  -7   0    2.10    4.80
   0   7   0    1.80    3.50
   0   7   0   -3.60    3.40
   0   7   0   13.80    8.90
  -1  -7   0   26.30    6.60
   1  -7   0   17.90    5.60
   1  -7   0   19.90    6.70
  -1  -7   0   17.70    5.60
  -1  -7   0   32.30    6.20
   1   7   0   37.20    7.10
   1   7   0   28.70    5.60
  -1   7   0   41.60    6.90
  -1   7   0   49.80   14.00
   1   7   0   53.19   14.80
  -2  -7   0  169.78   14.50
  -2  -7   0  167.38   13.10
   2  -7   0  162.08   14.50
  -2  -7   0  160.88   13.90
   2   7   0  181.38   14.40
  -2   7   0  157.58   13.40
  -2   7   0  193.18   25.40
   2   7   0  171.48   13.40
   2   7   0  165.88   14.20
  -3  -7   0   42.50    8.00
  -3  -7   0   54.19   10.30
   3  -7   0   59.59   10.20
   3   7   0   47.60    8.70
  -3   7   0   54.29    9.20
  -3   7   0   76.99   18.70
   3   7   0   56.89   10.50
  -4  -7   0   33.90    8.70
  -4  -7   0   26.10    7.70
   4  -7   0   31.80    9.30
  -4  -7   0   39.40   10.00
   4   7   0   21.10    8.50
  -4   7   0   41.60    9.00
   4   7   0   28.30    8.20
  -5  -7   0   29.90    8.50
   5  -7   0   37.00   10.50
  -5  -7   0   41.90   10.50
  -5   7   0   23.70    7.80
   5   7   0   38.40    9.30
   5   7   0   30.40   10.70
   0  -8   0  460.85   29.50
   0   8   0  513.95   41.20
  -1  -8   0   58.19    9.00
   1  -8   0   64.19   10.60
  -1  -8   0   47.50    9.10
  -1   8   0   58.09    8.60
   1   8   0   94.39   19.50
   1   8   0   37.10    8.00
  -1   8   0   95.29   19.20
  -2  -8   0   14.80    7.10
  -2  -8   0    0.30    2.20
  -2  -8   0    8.20    7.40
  -2   8   0    9.90    6.10
  -2   8   0   41.70   15.50
   2   8   0   34.80   17.50
   2   8   0    4.90    6.60
   2   8   0    9.80    5.80
  -3  -8   0   33.50    9.10
   3  -8   0   25.10    9.00
  -3  -8   0   28.60    8.00
  -3  -8   0   32.60    8.70
   3   8   0   32.10    8.60
   3   8   0   21.60    8.70
  -3   8   0   34.40    8.70
   4  -8   0  104.79   15.00
  -4  -8   0  112.89   15.30
  -4  -8   0  125.59   14.80
   4   8   0   78.49   13.20
  -4   8   0  131.49   15.20
   4   8   0  136.99   16.00
   0  -9   0    0.40    6.50
   0   9   0   38.50   16.30
   1  -9   0   26.10    8.90
  -1  -9   0   25.40    8.50
   1   9   0  109.69   21.60
   2  -9   0  155.78   17.40
  -2  -9   0  145.89   14.40
  -2  -9   0  147.09   15.20
  -2   9   0  129.19   12.30
   7   0  -1  139.39   17.80
   6   0  -1  117.19   10.60
  -6   0   1  119.99   10.60
   6   0  -1  106.69   11.90
   6   0  -1  126.89   15.20
   6   0  -1  113.09   10.30
  -5   0   1  589.34   31.80
   5   0  -1  567.54   33.50
   5   0  -1  617.04   39.00
   5   0  -1  615.14   29.60
   5   0  -1  575.64   32.40
  -5   0   1  571.74   39.00
   5   0  -1  569.84   31.90
   5   0  -1  552.34   31.50
   5   0  -1  554.84   31.70
   4   0  -1    0.40    5.90
   4   0  -1    2.20    3.80
  -4   0   1    1.60    2.80
  -4   0   1    1.10    5.70
   4   0  -1    4.50    3.10
   4   0  -1   -2.00    2.30
   4   0  -1    3.10    2.80
   4   0  -1    1.60    2.60
  -3   0   1  229.88   17.70
   3   0  -1  240.38   14.20
   3   0  -1  234.18   13.60
   3   0  -1  231.38   13.30
   3   0  -1  238.08   13.60
   3   0  -1  230.78   18.10
  -3   0   1  235.38   13.30
   2   0  -1 1770.22   87.29
   2   0  -1 1675.43   90.99
   2   0  -1 1812.02   87.19
   2   0  -1 1801.12   87.29
   1   0  -1   76.09    4.30
   1   0  -1   69.09    4.40
   1   0  -1   76.49    6.20
   1   0  -1   72.59    4.30
   0   0  -1    2.60    0.60
   0   0   1    4.20    0.80
   0   0  -1    4.80    0.70
  -1   0  -1   44.00    2.80
   1   0   1   41.30    2.70
  -1   0  -1   42.30    2.60
   1   0   1   42.70    3.40
  -1   0  -1   42.40    2.60
   1   0   1   42.00    2.80
   1   0   1   43.00    2.90
   1   0   1   41.90    2.90
   1   0   1   41.20    3.10
   2   0   1  403.86   19.80
   2   0   1  380.06   19.60
   2   0   1  394.86   21.00
   2   0   1  393.46   20.20
  -2   0  -1  399.56   20.10
   2   0   1  368.96   19.90
   2   0   1  379.36   20.50
   2   0   1  379.56   22.10
   3   0   1   40.30    4.60
   3   0   1   55.59    6.30
  -3   0  -1   40.30    4.10
   3   0   1   43.20    3.70
   3   0   1   38.40    3.20
   3   0   1   39.90    4.10
  -3   0  -1   39.40    6.30
   3   0   1   40.70    3.90
   3   0   1   40.00    5.50
   4   0   1  154.68   12.30
  -4   0  -1  174.68   10.60
  -4   0  -1  154.28   13.80
   4   0   1  162.18   11.50
   4   0   1  162.58   10.60
   4   0   1  157.38    9.80
   4   0   1  148.89    9.10
   5   0   1  155.78   11.80
   5   0   1  147.69   12.50
   5   0   1  150.98   13.90
  -5   0  -1  149.09   10.90
   6   0   1   67.89   10.20
  -6   0  -1   66.09   11.90
  -7   0  -1   55.99   12.40
   7   0   1   45.90    8.90
   7   0   1   31.90   10.90
  -7  -1   1   58.09   11.50
   7  -1  -1   61.09   12.00
  -7   1   1   70.79    9.70
   7   1  -1   55.79    9.50
   7   1  -1   49.10   11.00
   6  -1  -1   -0.70   11.00
  -6  -1   1   -4.00    7.80
   6   1  -1    3.90    5.90
   6   1  -1    1.00    5.60
  -6   1   1    2.30    5.30
   6   1  -1    0.20    1.00
   6   1  -1    5.10    7.00
  -5  -1   1   25.90    8.00
   5  -1  -1   28.00    4.90
  -5  -1   1   32.20    5.40
   5  -1  -1   28.50    6.80
   5  -1  -1   27.00    3.80
   5  -1  -1   34.10    6.10
   5   1  -1   38.50    5.60
   5   1  -1   43.90    7.20
  -5   1   1   33.90   11.00
   5   1  -1   26.20    5.60
   5   1  -1   32.50    2.80
   5   1  -1   34.30    5.90
   5   1  -1   32.00    7.70
  -5   1   1   48.10    6.90
   5   1  -1   59.99   12.20
   4  -1  -1  505.15   26.60
   4  -1  -1  530.35   28.20
   4  -1  -1  526.65   27.70
   4  -1  -1  533.35   34.00
   4  -1  -1  521.25   26.70
  -4  -1   1  553.44   29.80
   4  -1  -1  521.55   29.20
   4  -1  -1  518.85   28.20
   4  -1  -1  523.35   27.60
  -4   1   1  533.85   27.30
   4   1  -1  449.66   34.40
   4   1  -1  510.15   27.60
   4   1  -1  524.15   28.90
  -4   1   1  531.95   28.40
   4   1  -1  514.75   28.40
  -4   1   1  533.55   33.80
   3  -1  -1  662.03   34.40
   3  -1  -1  668.63   36.00
   3  -1  -1  645.84   35.20
   3  -1  -1  647.84   34.40
   3  -1  -1  691.43   35.00
  -3  -1   1  697.73   36.40
   3  -1  -1  659.43   35.50
   3  -1  -1  656.23   34.90
   3  -1  -1  677.63   40.10
  -3   1   1  741.63   40.60
  -3   1   1  725.03   34.90
   3   1  -1  695.53   35.10
   3   1  -1  708.23   36.00
   3   1  -1  724.83   36.10
  -3   1   1  760.92   35.90
   3   1  -1  690.63   35.70
   3   1  -1  620.44   40.90
  -2  -1   1   86.19    6.40
   2  -1  -1   78.69    6.00
   2  -1  -1   83.99    5.40
   2  -1  -1   84.89    6.00
   2  -1  -1   77.19    5.30
   2  -1  -1   80.79    5.30
   2  -1  -1   79.19    5.20
   2  -1  -1   79.19    5.50
  -2   1   1   98.19    5.40
   2   1  -1   97.09    6.40
   2   1  -1  103.09    4.80
  -2   1   1  101.19    6.20
   2   1  -1  102.79    6.80
   2   1  -1   89.69    6.00
   2   1  -1   98.69    4.80
   2   1  -1   99.59    5.70
  -2   1   1  100.89    8.90
   2   1  -1   97.59    6.40
   1  -1  -1 1456.15   75.89
  -1  -1   1 1555.04   76.39
   1  -1  -1 1534.55   75.99
   1  -1  -1 1601.44   75.99
  -1  -1   1 1607.74   76.19
   1  -1  -1 1461.65   76.09
  -1  -1   1 1519.35   75.99
  -1  -1   1 1529.55   75.59
  -1  -1   1 1510.55   75.99
   1   1  -1 1582.64   76.29
  -1   1   1 1543.75   76.09
   1   1  -1 1480.25   76.09
   1   1  -1 1576.14   75.69
  -1   1   1 1561.84   78.39
   1   1  -1 1542.35   75.69
  -1   1   1 1549.74   75.89
   1   1  -1 1631.84   75.89
  -1   1   1 1623.24   75.89
   1   1  -1 1437.36   78.39
   1   1  -1 1544.55   76.29
   0  -1   1  859.91   38.70
   0  -1   1  852.91   38.60
   0  -1   1  806.92   38.60
   0  -1  -1  780.42   38.60
   0  -1  -1  865.31   38.70
   0  -1  -1  869.91   38.70
   0   1  -1  711.53   38.60
   0   1   1  721.83   38.60
   0   1  -1  706.63   38.50
   0   1  -1  700.93   39.80
   0   1   1  658.53   39.60
   0   1   1  751.02   38.50
   0   1  -1  806.12   38.60
   0   1   1  786.82   38.70
   1  -1   1  797.32   42.20
   1  -1   1  731.93   42.10
   1  -1   1  786.42   42.00
  -1  -1  -1  779.92   42.00
   1  -1   1  784.82   42.30
  -1  -1  -1  763.52   41.90
   1   1   1  912.91   42.60
   1   1   1  861.51   42.40
  -1   1  -1  854.91   42.20
   1   1   1  844.82   43.80
   1   1   1  949.71   42.10
   1   1   1  916.41   42.20
  -1   1  -1  851.01   43.50
  -1   1  -1  932.31   42.40
  -1   1  -1  907.71   42.30
   1   1   1  885.51   42.50
   2  -1   1  831.12   41.40
   2  -1   1  845.92   42.20
  -2  -1  -1  809.02   42.50
  -2  -1  -1  837.42   40.90
   2  -1   1  835.02   40.80
   2  -1   1  783.22   41.20
   2  -1   1  794.02   41.20
   2   1   1  796.72   44.40
   2   1   1  819.82   41.90
   2   1   1  817.02   41.20
  -2   1  -1  816.92   43.40
   2   1   1  838.72   40.80
  -2   1  -1  782.82   41.10
   2   1   1  862.61   41.00
  -2   1  -1  855.71   41.70
   2   1   1  806.02   42.60
   2   1   1  819.52   42.00
   2   1   1  843.32   41.90
  -2   1  -1  832.62   40.90
  -3  -1  -1   68.09    7.30
  -3  -1  -1   66.69    4.80
   3  -1   1   66.69    4.70
   3  -1   1   64.19    6.40
   3  -1   1   68.09    5.10
   3  -1   1   66.89    5.20
   3  -1   1   63.49    4.70
  -3   1  -1   61.49    7.60
   3   1   1   63.49    4.60
   3   1   1   66.09    6.30
   3   1   1   60.29    7.00
   3   1   1   67.19    4.50
   3   1   1   60.89    4.80
   3   1   1   69.79    5.90
  -3   1  -1   66.59    5.50
   4  -1   1  260.17   15.00
   4  -1   1  241.48   16.50
  -4  -1  -1  261.47   17.50
   4  -1   1  233.78   14.90
   4  -1   1  252.37   14.50
   4  -1   1  233.08   14.00
   4   1   1  276.57   16.10
  -4   1  -1  249.38   18.80
   4   1   1  246.18   16.20
   4   1   1  244.38   14.20
   4   1   1  252.97   15.80
   4   1   1  257.97   13.80
   4   1   1  249.18   17.20
   4   1   1  295.67   19.80
   4   1   1  245.28   14.20
  -5  -1  -1  513.35   31.30
   5  -1   1  506.45   28.90
   5  -1   1  519.85   27.90
   5  -1   1  480.05   30.80
   5   1   1  529.55   29.90
   5   1   1  521.45   30.40
   5   1   1  527.85   29.80
   5   1   1  523.65   27.30
   5   1   1  525.55   31.70
  -5   1  -1  541.75   29.20
   6  -1   1   77.79   12.00
  -6  -1  -1   98.89   13.30
   6  -1   1   75.59   10.10
   6   1   1   67.29   12.10
   6   1   1   78.19   11.30
   6   1   1   80.69   10.90
  -6   1  -1   73.69    9.20
  -7  -1  -1    9.00   10.10
   7  -1   1    3.70    9.90
  -7   1  -1   -3.90    9.80
   7   1   1    3.80    4.60
   7   1   1    1.90    8.80
   7   1   1    5.90    7.40
   7  -2  -1   75.69   13.40
  -7  -2   1   70.09   12.30
   7   2  -1   97.09   12.50
   7   2  -1   76.59   12.30
  -6  -2   1  202.88   18.30
  -6  -2   1  218.98   16.80
   6   2  -1  235.88   17.60
  -6   2   1  254.17   17.40
   6   2  -1  229.08   17.90
  -5  -2   1  634.94   38.10
   5  -2  -1  666.23   35.20
   5  -2  -1  644.34   38.00
   5   2  -1  705.63   37.50
   5   2  -1  654.93   45.60
  -5   2   1  706.73   37.10
   5   2  -1  691.73   37.90
   5   2  -1  674.73   37.80
   5   2  -1  667.33   34.00
  -5   2   1  659.13   43.30
   4  -2  -1   85.19    6.60
   4  -2  -1   84.79    7.10
   4  -2  -1   81.99    8.60
  -4  -2   1   78.59    9.10
   4  -2  -1   78.59    7.70
   4  -2  -1   88.69    8.30
   4   2  -1   90.89    8.70
   4   2  -1   85.89    8.20
  -4   2   1   99.29    8.10
   4   2  -1   87.09    6.50
   4   2  -1   88.19    5.70
   4   2  -1   78.79   14.60
  -4   2   1   92.49   12.20
   4   2  -1   90.69    5.70
   4   2  -1   86.59    7.90
   3  -2  -1   17.40    2.80
  -3  -2   1   15.30    4.10
   3  -2  -1   17.30    3.60
   3  -2  -1   17.30    2.70
   3  -2  -1   17.40    2.80
   3  -2  -1   12.40    3.60
  -3  -2   1   14.50    3.30
   3   2  -1   16.10    3.50
  -3   2   1   17.60    3.60
   3   2  -1   10.10    3.30
   3   2  -1   16.50    2.40
   3   2  -1   13.00    6.10
   3   2  -1   14.00    4.00
  -3   2   1   18.40    2.30
  -3   2   1   18.60    5.80
   3   2  -1   14.50    2.30
   3   2  -1   12.80    3.40
   3   2  -1   18.80    2.70
   2  -2  -1 1089.19   58.89
  -2  -2   1 1086.69   59.09
  -2  -2   1 1146.19   57.89
  -2  -2   1 1122.09   59.19
   2  -2  -1 1133.09   59.09
   2  -2  -1 1166.58   58.49
   2  -2  -1 1103.39   59.29
   2  -2  -1 1077.09   58.79
   2   2  -1 1239.08   59.49
   2   2  -1 1178.38   59.59
  -2   2   1 1211.48   59.19
  -2   2   1 1213.78   58.19
   2   2  -1 1216.08   58.49
  -2   2   1 1216.58   63.09
   2   2  -1 1281.77   58.59
  -2   2   1 1247.88   58.69
   2   2  -1 1200.28   59.59
   2   2  -1 1217.88   58.49
   2   2  -1 1198.88   64.09
   1  -2  -1 5609.94  269.17
  -1  -2   1 5541.95  268.07
   1  -2  -1 5653.73  270.37
   1  -2  -1 5981.00  271.17
  -1  -2   1 5649.93  268.47
   1  -2  -1 5694.23  267.97
  -1  -2   1 5625.34  268.47
  -1  -2   1 5381.16  267.97
  -1  -2   1 5479.55  270.17
   1  -2  -1 5429.26  268.17
   1   2  -1 4906.61  271.17
   1   2  -1 5355.66  268.57
   1   2  -1 5268.97  268.07
   1   2  -1 5629.14  268.37
  -1   2   1 5442.36  270.07
  -1   2   1 5425.66  267.87
   1   2  -1 5480.35  268.27
  -1   2   1 5153.48  278.07
  -1   2   1 5526.85  268.87
   1   2  -1 5081.19  267.87
  -1   2   1 5692.73  269.87
   0  -2   1  841.42   42.20
   0  -2   1  818.42   42.40
   0  -2  -1  754.92   42.60
   0  -2  -1  830.62   42.70
   0  -2   1  865.31   42.80
   0  -2   1  827.32   42.30
   0  -2  -1  816.12   42.10
   0  -2  -1  804.52   42.50
   0  -2   1  782.22   42.60
   0   2   1  920.41   42.40
   0   2  -1  829.12   45.20
   0   2   1  877.61   42.70
   0   2   1  891.21   42.20
   0   2  -1  890.81   42.30
   0   2  -1  859.61   42.80
   0   2   1  928.91   42.10
   0   2   1  826.52   45.10
   0   2   1  893.61   42.50
   0   2  -1  875.11   42.70
   0   2   1  800.72   42.70
  -1  -2  -1  177.88   10.50
   1  -2   1  184.38   10.30
   1  -2   1  176.78   10.70
  -1  -2  -1  192.48   11.00
   1  -2   1  186.58   10.80
   1  -2   1  178.68   10.60
   1  -2   1  188.28   10.90
  -1  -2  -1  173.48   10.30
  -1   2  -1  202.08   10.90
  -1   2  -1  190.28   10.70
  -1   2  -1  191.18   10.80
   1   2   1  189.68   10.60
   1   2   1  190.68   10.90
   1   2   1  193.28   10.90
   1   2   1  202.38   10.80
  -1   2  -1  177.78   12.70
   1   2   1  190.28   10.70
   2  -2   1  881.01   43.40
   2  -2   1  876.71   44.00
   2  -2   1  855.81   44.20
  -2  -2  -1  786.42   44.50
   2  -2   1  863.91   44.40
  -2  -2  -1  847.02   43.30
   2  -2   1  840.32   43.80
   2   2   1  889.11   43.70
   2   2   1  850.31   47.60
  -2   2  -1  880.21   44.10
   2   2   1  879.51   42.70
  -2   2  -1  868.41   43.60
   2   2   1  867.31   44.30
   2   2   1  880.51   43.50
   2   2   1  888.11   44.50
   2   2   1  871.11   44.50
  -3  -2  -1  461.45   22.00
   3  -2   1  441.46   23.10
   3  -2   1  438.06   23.50
   3  -2   1  422.16   24.00
   3  -2   1  416.66   22.80
   3  -2   1  433.06   22.50
  -3  -2  -1  408.56   24.50
  -3   2  -1  438.56   23.60
  -3   2  -1  410.96   26.20
   3   2   1  442.16   22.40
   3   2   1  426.36   23.80
   3   2   1  418.56   24.00
   3   2   1  422.66   21.90
   3   2   1  450.85   22.60
   3   2   1  395.16   24.70
   3   2   1  395.76   27.90
   3   2   1  419.36   24.00
   4  -2   1  417.56   24.70
   4  -2   1  437.76   22.80
  -4  -2  -1  434.96   25.50
   4  -2   1  440.86   23.90
   4  -2   1  416.66   22.80
   4   2   1  394.26   24.30
   4   2   1  411.06   24.20
   4   2   1  425.96   28.60
   4   2   1  380.46   25.50
  -4   2  -1  422.56   23.80
  -4   2  -1  422.16   27.00
   4   2   1  398.36   21.90
   4   2   1  385.26   23.90
   5  -2   1   26.30    5.80
  -5  -2  -1   37.10    8.80
   5  -2   1   32.10    7.50
   5  -2   1   31.10    6.60
  -5   2  -1   40.40    7.10
   5   2   1   39.10    7.10
   5   2   1   22.20    7.80
   5   2   1   37.70    7.90
   5   2   1   40.60    7.30
   5   2   1   28.60    3.70
  -6  -2  -1   22.70    9.50
   6  -2   1   28.80    9.10
  -6   2  -1   38.70    8.00
   6   2   1   25.60    7.50
   6   2   1   41.80    8.40
   6   2   1   23.60    7.90
   6   2   1   17.30    9.10
  -7  -2  -1  156.58   18.70
   7   2   1  155.58   16.90
  -7   2  -1  144.29   13.70
   7   2   1  167.48   19.20
   7   2   1  151.48   14.70
   7  -3  -1   46.00   11.60
  -7  -3   1   47.20    9.00
  -7  -3   1   54.69   10.90
   7   3  -1   55.29   11.70
   7   3  -1   54.79   10.40
  -7   3   1   49.50   10.30
   7   3  -1   68.99   11.90
  -6  -3   1   17.00    8.10
   6  -3  -1   16.60    8.10
  -6  -3   1   23.20    7.90
   6   3  -1   20.00    7.80
   6   3  -1   19.20    7.10
  -6   3   1   15.70    6.80
   6   3  -1   16.30    8.40
   5  -3  -1   52.79    9.00
  -5  -3   1   49.70    9.30
  -5  -3   1   56.99    8.50
   5   3  -1   73.89    9.80
  -5   3   1   78.59    8.90
   5   3  -1   91.09   11.20
   5   3  -1   78.59    9.20
   4  -3  -1  358.16   21.10
  -4  -3   1  346.87   21.40
  -4  -3   1  351.26   20.80
   4  -3  -1  348.07   19.60
   4  -3  -1  327.37   21.90
   4   3  -1  314.97   20.90
   4   3  -1  329.77   21.00
  -4   3   1  325.57   20.10
  -4   3   1  349.87   25.80
   4   3  -1  319.57   20.30
   4   3  -1  330.67   18.40
   4   3  -1  320.67   29.30
   3  -3  -1  562.74   29.70
  -3  -3   1  566.84   30.30
   3  -3  -1  563.74   30.40
   3  -3  -1  569.54   29.00
  -3  -3   1  583.74   30.30
   3  -3  -1  600.84   30.50
   3   3  -1  526.55   30.40
   3   3  -1  519.35   30.00
   3   3  -1  544.55   28.80
   3   3  -1  519.45   28.30
   3   3  -1  550.04   29.00
  -3   3   1  540.65   34.60
  -3   3   1  557.34   30.00
   3   3  -1  527.75   30.40
  -2  -3   1   35.70    4.40
   2  -3  -1   36.50    4.30
   2  -3  -1   28.10    3.80
   2  -3  -1   26.60    3.10
   2  -3  -1   30.90    4.10
  -2  -3   1   23.80    3.60
   2   3  -1   20.10    3.70
  -2   3   1   18.30    3.10
   2   3  -1   16.60    3.10
   2   3  -1   14.30    3.60
  -2   3   1   16.00    6.30
   2   3  -1   19.30    4.00
  -2   3   1   21.00    3.60
   2   3  -1   18.00    3.30
  -2   3   1   18.80    1.90
   2   3  -1   20.70    6.20
   1  -3  -1  194.78   11.90
   1  -3  -1  189.88   11.00
  -1  -3   1  183.18   11.60
  -1  -3   1  181.48   11.40
   1  -3  -1  193.78   12.10
   1  -3  -1  197.58   10.40
  -1  -3   1  186.98   11.40
  -1  -3   1  192.28   11.70
   1  -3  -1  180.68   11.80
  -1   3   1  203.28   15.40
   1   3  -1  194.68   15.40
  -1   3   1  202.78   11.50
   1   3  -1  203.78   11.90
  -1   3   1  215.38   12.10
   1   3  -1  206.28   12.00
   1   3  -1  212.98   11.60
  -1   3   1  214.08   11.00
   1   3  -1  214.18   11.80
   1   3  -1  224.58   12.20
   0  -3  -1 1203.18   57.49
   0  -3   1 1170.68   57.69
   0  -3  -1 1195.48   57.99
   0  -3  -1 1120.09   58.19
   0  -3  -1 1212.78   57.29
   0  -3   1 1190.98   57.39
   0  -3   1 1172.08   58.09
   0  -3   1 1117.29   57.59
   0  -3  -1 1143.99   58.09
   0  -3   1 1203.08   58.29
   0   3  -1 1137.09   58.19
   0   3   1 1049.00   61.49
   0   3   1 1150.78   57.29
   0   3  -1 1050.09   61.49
   0   3  -1 1165.28   58.19
   0   3   1 1173.58   57.69
   0   3  -1 1076.29   57.39
   0   3   1 1160.78   58.09
  -1  -3  -1  252.37   15.10
   1  -3   1  222.38   14.80
   1  -3   1  230.98   14.70
  -1  -3  -1  241.98   14.80
  -1  -3  -1  250.87   14.90
   1  -3   1  255.17   14.80
   1  -3   1  244.68   15.20
   1  -3   1  258.17   14.20
  -1   3  -1  279.57   15.30
  -1   3  -1  283.87   15.00
   1   3   1  290.57   14.00
   1   3   1  287.27   15.30
   1   3   1  266.87   14.80
  -1   3  -1  260.07   18.30
   1   3   1  264.57   18.60
   1   3   1  282.67   15.40
   1   3   1  285.77   15.30
   1   3   1  286.37   15.20
  -1   3  -1  278.87   13.80
   2  -3   1   81.89    6.90
   2  -3   1   80.79    5.40
   2  -3   1   72.09    6.20
  -2  -3  -1   77.69    6.70
  -2  -3  -1   87.59    7.40
  -2  -3  -1   83.09    5.90
   2  -3   1   65.39    6.30
   2  -3   1   90.39    6.90
   2   3   1   86.39    7.20
   2   3   1   79.79    4.60
   2   3   1   83.19    9.20
  -2   3  -1   92.69    9.70
  -2   3  -1   75.99    6.50
   2   3   1   78.09    6.30
   2   3   1   77.59    6.30
   2   3   1   74.39    6.50
  -2   3  -1   80.49    6.40
   3  -3   1   32.20    4.80
  -3  -3  -1   27.80    5.80
   3  -3   1   28.50    4.70
   3  -3   1   22.80    2.90
   3  -3   1   28.40    5.20
   3   3   1   25.20    3.70
   3   3   1   27.60    5.20
   3   3   1   25.70    5.30
  -3   3  -1   25.50    4.60
   3   3   1   27.10    5.10
   3   3   1   28.80    3.90
  -3   3  -1   30.00    7.60
  -4  -3  -1  143.09   13.90
   4  -3   1  146.69   11.30
   4  -3   1  169.28   11.80
   4  -3   1  160.38   13.10
   4   3   1  161.88   10.50
  -4   3  -1  167.58   12.30
  -4   3  -1  155.28   16.20
   4   3   1  179.28   19.00
   4   3   1  185.58   12.80
   4   3   1  179.98   13.40
   4   3   1  170.68   12.90
   5  -3   1  113.89   12.60
  -5  -3  -1   84.89   12.60
   5   3   1  121.89   12.80
   5   3   1  133.39   12.70
  -5   3  -1  119.69   11.00
   5   3   1  124.89   11.60
  -6  -3  -1  189.58   18.70
   6  -3   1  209.18   18.40
   6   3   1  193.78   17.00
  -6   3  -1  179.88   15.10
   6   3   1  170.68   16.30
   6   3   1  183.18   17.70
   7  -3   1    0.50    9.90
  -7  -3  -1    6.60    8.50
  -7   3  -1    5.70    7.20
   7   3   1    6.60    8.00
   7   3   1   -0.70    8.00
  -6  -4   1  109.49   12.50
  -6  -4   1  102.59   13.40
  -6  -4   1  101.19   17.40
   6  -4  -1  101.89   14.30
   6   4  -1  124.29   14.20
  -6   4   1  114.49   12.60
   6   4  -1  119.69   15.00
   6   4  -1  116.79   13.80
  -5  -4   1  118.69   12.60
   5  -4  -1  135.59   13.50
  -5  -4   1  137.09   13.30
  -5  -4   1  122.99   11.20
   5   4  -1  103.59   11.60
  -5   4   1   97.99   10.90
   5   4  -1  119.59   13.50
  -5   4   1   90.79   18.90
   5   4  -1  161.88   20.90
   5   4  -1  106.59   13.00
   4  -4  -1   21.00    4.90
   4  -4  -1   16.20    5.70
  -4  -4   1   10.10    4.30
  -4  -4   1   13.80    5.60
  -4  -4   1   17.20    5.70
  -4   4   1   11.20    4.90
   4   4  -1   11.90    5.00
   4   4  -1   14.40    3.50
   4   4  -1   13.70    5.30
   4   4  -1   13.20    6.00
  -4   4   1    3.80    9.30
  -3  -4   1    5.10    4.10
  -3  -4   1    5.20    3.70
   3  -4  -1    5.50    2.80
   3  -4  -1    4.20    3.60
   3  -4  -1    8.20    3.60
  -3  -4   1    6.80    3.60
  -3   4   1    6.90    6.70
  -3   4   1    2.30    3.30
   3   4  -1    4.10    3.90
   3   4  -1   13.40    6.90
   3   4  -1    3.60    2.90
   3   4  -1    5.80    3.90
   3   4  -1    0.30    3.80
   2   4  -1  143.99   10.00
   2   4  -1  135.39   10.30
   2   4  -1  143.09   10.00
   2   4  -1  160.28   10.50
   2   4  -1  145.89   15.40
  -2   4   1  138.19    8.00
  -2   4   1  135.59    9.60
  -2   4   1  132.79    9.60
  -2   4   1  145.09   14.30
   2   4  -1  138.89   10.30
   2   4  -1  139.09    8.90
  -1  -4   1 1421.06   70.39
  -1  -4   1 1461.75   70.49
  -1  -4   1 1364.46   70.59
  -1  -4   1 1453.95   70.99
   1  -4  -1 1498.85   69.29
   1  -4  -1 1401.96   70.79
   1  -4  -1 1476.95   70.09
   1  -4  -1 1303.67   70.89
   1   4  -1 1420.26   70.59
   1   4  -1 1365.86   70.79
  -1   4   1 1402.26   70.99
   1   4  -1 1228.68   75.79
   1   4  -1 1446.46   70.39
  -1   4   1 1370.76   69.79
   1   4  -1 1352.46   70.89
   1   4  -1 1400.56   70.89
   0  -4   1  338.47   17.80
   0  -4   1  322.87   18.20
   0  -4  -1  329.57   18.50
   0  -4  -1  329.27   17.90
   0  -4  -1  350.76   17.70
   0  -4  -1  345.97   19.10
   0  -4   1  282.07   18.50
   0   4   1  345.17   17.80
   0   4  -1  303.57   18.60
   0   4  -1  334.67   19.00
   0   4  -1  331.37   18.00
   0   4  -1  312.77   18.00
   0   4   1  342.67   17.70
   0   4   1  330.87   18.20
   0   4   1  308.57   22.90
   0   4   1  319.37   18.80
   0   4  -1  303.27   22.90
   0   4   1  334.27   18.90
   1  -4   1   62.39    5.90
   1  -4   1   57.49    5.50
   1  -4   1   62.59    5.60
  -1  -4  -1   54.79    5.50
  -1  -4  -1   56.39    5.90
  -1  -4  -1   64.39    6.60
   1  -4   1   63.89    4.80
   1  -4   1   70.19    6.60
   1   4   1   67.69    6.50
  -1   4  -1   69.09    6.00
  -1   4  -1   68.19    9.40
   1   4   1   60.89    6.10
   1   4   1   65.09    5.80
  -1   4  -1   64.19    4.60
  -1   4  -1   64.29    6.50
   1   4   1   67.19    6.30
   1   4   1   65.49    4.90
   1   4   1   69.89    9.40
   1   4   1   71.49    6.00
   2  -4   1  207.88   13.20
  -2  -4  -1  203.98   13.30
   2  -4   1  174.68   12.60
  -2  -4  -1  206.78   14.10
   2  -4   1  205.18   13.30
  -2  -4  -1  198.08   12.90
   2  -4   1  197.48   13.50
   2   4   1  197.98   13.30
   2   4   1  197.88   12.70
   2   4   1  200.98   12.90
   2   4   1  195.78   17.90
  -2   4  -1  189.28   12.60
   2   4   1  201.68   13.30
  -2   4  -1  204.58   17.10
  -2   4  -1  207.48   13.60
   3  -4   1  374.96   21.20
   3  -4   1  348.77   20.80
   3  -4   1  359.36   21.40
  -3  -4  -1  372.16   21.90
  -3  -4  -1  349.47   21.30
   3   4   1  314.47   21.20
   3   4   1  350.16   20.20
  -3   4  -1  340.67   25.40
   3   4   1  363.66   27.60
   3   4   1  359.06   21.40
   3   4   1  349.77   21.70
  -4  -4  -1  447.46   27.60
  -4  -4  -1  447.46   27.10
   4  -4   1  474.05   27.10
   4  -4   1  445.26   27.30
   4  -4   1  465.55   26.30
   4   4   1  425.46   27.30
  -4   4  -1  429.26   26.40
  -4   4  -1  449.66   31.90
   4   4   1  541.15   35.60
   4   4   1  425.16   24.90
   4   4   1  420.06   26.70
   4   4   1  436.96   27.50
  -5  -4  -1   25.20    9.90
   5  -4   1   20.40    7.40
  -5  -4  -1   23.70    7.80
  -5   4  -1   23.00    6.70
   5   4   1   38.20    9.00
   5   4   1   32.40    7.90
   6  -4   1   14.30    8.90
  -6  -4  -1   14.20    8.20
  -6  -4  -1   17.10    9.90
   6   4   1    9.20    7.80
   6   4   1   -0.70    6.50
   6   4   1   16.20    8.70
  -6   4  -1    6.30    7.50
  -6  -5   1    8.80    6.50
  -6  -5   1    6.70    7.90
   6  -5  -1   19.20    9.20
   6   5  -1   14.50    8.10
   6   5  -1   16.30    8.70
   6   5  -1   10.90    8.80
  -6   5   1   10.50    7.30
  -5  -5   1   25.20    8.00
  -5  -5   1   19.90    7.00
   5  -5  -1   20.10    8.90
   5   5  -1   49.30    9.70
  -5   5   1   37.90    7.80
   5   5  -1   35.80    9.00
   5   5  -1   43.10   10.50
  -4  -5   1   96.79   10.20
  -4  -5   1  106.49   11.60
  -4  -5   1  105.89   11.40
   4  -5  -1  106.99   11.80
   4   5  -1  111.09   11.60
  -4   5   1  129.49   17.50
   4   5  -1  108.89   11.10
   4   5  -1  115.29   12.50
  -4   5   1  115.39   10.70
   3  -5  -1  341.57   21.60
  -3  -5   1  343.37   21.10
  -3  -5   1  331.47   21.30
  -3  -5   1  340.27   20.80
   3  -5  -1  325.97   21.40
   3   5  -1  333.97   21.80
  -3   5   1  347.77   21.10
   3   5  -1  349.17   21.60
  -3   5   1  365.96   27.80
   3   5  -1  346.37   20.70
   3   5  -1  397.96   31.00
   3   5  -1  327.17   21.60
   2  -5  -1   25.00    3.90
  -2  -5   1   35.10    5.40
   2  -5  -1   34.20    5.90
   2  -5  -1   23.70    4.90
  -2  -5   1   30.60    5.30
  -2  -5   1   31.40    5.60
   2   5  -1   25.60    9.10
  -2   5   1   11.50    6.90
   2   5  -1   27.30    5.80
  -2   5   1   19.30    4.20
   2   5  -1   31.10    5.60
   2   5  -1   29.00    5.50
   1  -5  -1   -0.10    2.10
  -1  -5   1    5.00    3.40
  -1  -5   1    3.40    3.20
   1  -5  -1    0.60    2.70
  -1  -5   1    0.40    0.80
   1  -5  -1    2.70    1.50
   1  -5  -1    0.30    3.00
   1   5  -1    5.60    2.50
   1   5  -1    4.10    3.40
   1   5  -1    3.00    3.10
  -1   5   1    0.80    2.00
   1   5  -1    1.50    3.30
  -1   5   1    5.10    5.20
  -1   5   1    0.10    1.70
  -1   5   1    1.70    2.90
   1   5  -1    5.50    5.30
   0  -5  -1  312.37   19.50
   0  -5  -1  309.07   20.00
   0  -5   1  316.57   19.20
   0  -5   1  328.37   20.10
   0  -5  -1  315.27   18.80
   0  -5  -1  338.57   18.50
   0  -5   1  326.17   18.60
   0   5  -1  348.87   19.20
   0   5   1  359.06   18.80
   0   5  -1  342.07   19.00
   0   5   1  349.77   20.30
   0   5   1  343.87   19.30
   0   5  -1  351.76   20.40
   0   5   1  347.57   18.80
   0   5  -1  333.47   25.60
   0   5   1  337.07   25.50
   1  -5   1  255.97   15.50
   1  -5   1  253.47   16.50
   1  -5   1  267.07   14.50
  -1  -5  -1  252.97   16.00
   1  -5   1  251.87   15.90
  -1  -5  -1  243.28   15.60
  -1  -5  -1  240.88   15.10
   1   5   1  246.38   21.10
  -1   5  -1  251.17   15.60
  -1   5  -1  248.38   14.30
  -1   5  -1  259.57   21.50
  -1   5  -1  246.78   16.30
   1   5   1  267.77   14.60
   1   5   1  258.57   16.10
   1   5   1  260.77   16.30
   1   5   1  265.67   15.60
  -2  -5  -1  146.49   11.10
  -2  -5  -1  144.99   11.00
   2  -5   1  138.89   10.40
   2  -5   1  147.59   11.20
   2  -5   1  154.68   11.10
   2   5   1  127.39   10.50
  -2   5  -1  122.89   10.30
   2   5   1  117.69   10.50
   2   5   1  136.39   16.40
   2   5   1  127.89   10.90
   2   5   1  119.89   10.30
  -2   5  -1  130.49   15.50
  -3  -5  -1    8.90    4.90
  -3  -5  -1    8.20    5.70
   3  -5   1    4.70    4.40
   3   5   1    2.10    4.70
   3   5   1    6.10    4.30
  -3   5  -1   19.10    8.60
   3   5   1    2.50    4.10
  -3   5  -1    3.50    4.50
  -4  -5  -1  207.38   16.70
   4  -5   1  219.88   16.80
  -4  -5  -1  215.88   17.00
   4   5   1  216.28   15.90
   4   5   1  207.58   16.80
  -4   5  -1  212.08   15.90
   4   5   1  205.98   16.60
  -4   5  -1  195.78   20.20
  -5  -5  -1  153.88   16.40
  -5  -5  -1  183.98   16.90
   5  -5   1  173.78   16.40
  -5   5  -1  151.08   14.60
   5   5   1  150.68   15.10
   5   5   1  164.88   16.30
   5   5   1  148.39   16.00
  -6  -5  -1   88.69   13.90
  -6  -5  -1  114.79   15.50
   6  -5   1  115.29   16.00
   6   5   1  150.58   17.70
  -6   5  -1  123.89   13.50
   6   5   1  120.99   14.10
   6   5   1   85.59   13.90
  -5  -6   1  143.09   16.40
  -5  -6   1  159.28   15.00
   5   6  -1  136.29   16.40
   5   6  -1  152.98   15.40
   5   6  -1  147.09   16.80
  -5   6   1  146.89   14.70
  -4  -6   1   33.20    8.80
  -4  -6   1   16.70    6.40
  -4  -6   1   25.10    7.10
   4  -6  -1   20.40    7.50
  -4   6   1   35.20    7.90
   4   6  -1   23.00    7.60
   4   6  -1   20.50    6.90
  -3  -6   1   31.50    6.60
   3  -6  -1   46.50    7.80
  -3  -6   1   32.90    6.60
  -3  -6   1   36.90    8.00
   3  -6  -1   38.40    7.70
  -3   6   1   21.10    5.80
   3   6  -1   45.00   14.70
   3   6  -1   21.40    7.10
  -3   6   1   22.30   10.40
   3   6  -1   19.50    6.10
  -2  -6   1  489.05   26.80
   2  -6  -1  466.45   28.10
  -2  -6   1  509.25   27.80
  -2  -6   1  513.65   27.10
   2  -6  -1  495.35   27.80
  -2   6   1  420.86   26.30
   2   6  -1  443.16   27.40
   2   6  -1  469.95   27.40
  -2   6   1  459.25   34.90
   2   6  -1  430.26   26.80
   2   6  -1  437.46   35.10
   1  -6  -1  554.54   35.90
  -1  -6   1  498.95   29.70
  -1  -6   1  491.75   29.00
   1  -6  -1  516.85   28.90
  -1  -6   1  490.65   29.30
   1  -6  -1  499.85   29.90
   1   6  -1  568.34   29.40
   1   6  -1  571.84   30.20
  -1   6   1  539.65   29.30
   1   6  -1  568.64   30.80
  -1   6   1  547.55   38.10
   1   6  -1  528.25   38.30
   0  -6   1  380.26   22.50
   0  -6  -1  395.96   22.40
   0  -6   1  388.86   23.60
   0  -6  -1  386.16   23.10
   0  -6  -1  404.56   24.30
   0   6  -1  444.16   24.90
   0   6  -1  411.46   23.40
   0   6   1  415.56   31.80
   0   6  -1  416.86   23.30
   0   6   1  429.86   23.00
   0   6   1  426.96   24.60
   0   6   1  399.76   23.40
   1  -6   1    1.50    3.30
  -1  -6  -1    3.80    4.50
  -1  -6  -1    4.90    3.90
  -1  -6  -1    3.40    3.50
   1  -6   1    4.50    4.00
  -1   6  -1   11.50    7.30
  -1   6  -1    1.20    3.40
   1   6   1    3.90    3.70
   1   6   1   12.10    7.70
   1   6   1    3.30    3.50
   1   6   1    2.20    3.90
  -2  -6  -1  179.58   13.80
   2  -6   1  171.38   13.90
   2  -6   1  174.18   13.70
  -2  -6  -1  175.98   13.10
   2  -6   1  170.88   12.90
  -2  -6  -1  171.28   13.80
  -2   6  -1  172.48   13.40
  -2   6  -1  184.48   20.20
   2   6   1  174.18   14.10
   2   6   1  176.38   13.30
   2   6   1  173.98   13.50
   2   6   1  210.28   22.30
   3  -6   1  291.77   21.00
  -3  -6  -1  297.87   20.80
  -3  -6  -1  324.57   21.30
  -3  -6  -1  298.97   20.20
   3  -6   1  286.27   20.60
  -3   6  -1  334.57   21.00
   3   6   1  358.46   31.20
   3   6   1  324.97   21.40
   3   6   1  325.67   22.00
   3   6   1  321.67   20.80
  -3   6  -1  351.26   28.70
  -4  -6  -1  144.89   15.40
  -4  -6  -1  166.58   15.10
  -4  -6  -1  149.79   14.10
   4  -6   1  149.29   15.10
  -4   6  -1  163.38   13.80
   4   6   1  163.48   15.90
   4   6   1  166.28   15.70
   4   6   1  149.69   14.50
  -5  -6  -1   14.10    8.50
  -5  -6  -1    8.60    8.80
  -5  -6  -1    7.10    7.10
   5  -6   1    9.30    8.20
   5   6   1    9.60    7.80
   5   6   1   12.30    8.30
   5   6   1   19.40    9.30
  -5   6  -1   16.90    8.00
  -4  -7   1   50.89   10.20
  -4  -7   1   57.59    9.80
   4  -7  -1   60.89   11.20
   4   7  -1   41.60    9.00
  -4   7   1   43.70    8.60
   4   7  -1   64.89   12.20
  -3  -7   1  196.18   16.60
  -3  -7   1  191.48   15.60
   3  -7  -1  198.58   17.00
  -3  -7   1  202.08   15.40
   3   7  -1  190.78   15.90
   3   7  -1  201.98   16.90
  -3   7   1  188.88   15.30
   3   7  -1  259.07   28.20
  -3   7   1  242.28   25.90
  -2  -7   1   65.59    8.70
  -2  -7   1   53.69    8.00
  -2  -7   1   74.19   10.10
   2  -7  -1   72.69   10.30
   2   7  -1   73.09   18.60
  -2   7   1   50.49    8.20
   2   7  -1   45.60    7.90
  -2   7   1   87.89   17.60
   2   7  -1   48.10    8.90
   2   7  -1   55.99    8.30
  -1  -7   1    8.50    4.50
   1  -7  -1    6.20    5.60
  -1  -7   1   10.00    5.70
  -1  -7   1    9.90    5.60
  -1   7   1   23.00   10.30
   1   7  -1    9.30    3.40
   1   7  -1    3.40    4.60
  -1   7   1    8.90    4.30
   1   7  -1   28.80   11.30
   0  -7   1   59.09    7.60
   0  -7   1   89.49    9.50
   0  -7  -1   95.09    8.90
   0  -7  -1   93.19   10.20
   0   7   1   69.09    8.20
   0   7  -1   96.39   17.20
   0   7  -1   75.09    8.20
   0   7   1   75.39   14.10
  -1  -7  -1  252.97   15.70
   1  -7   1  244.48   16.90
   1  -7   1  251.37   16.30
  -1  -7  -1  239.48   17.40
   1   7   1  245.68   26.10
  -1   7  -1  230.98   25.00
   1   7   1  220.48   17.40
   1   7   1  200.88   16.10
   1   7   1  217.58   15.40
  -2  -7  -1  188.68   15.10
   2  -7   1  167.68   14.80
  -2  -7  -1  168.28   13.20
  -2  -7  -1  186.98   14.90
   2   7   1  171.78   14.80
  -2   7  -1  165.98   14.00
   2   7   1  193.68   24.40
  -2   7  -1  207.58   23.10
   2   7   1  153.58   14.60
   2   7   1  163.18   13.30
  -3  -7  -1    5.40    7.60
  -3  -7  -1    6.40    6.60
   3  -7   1   -0.40    5.80
  -3  -7  -1    2.60    6.20
  -3   7  -1   33.20   13.30
   3   7   1    3.90    5.90
   3   7   1   37.20   14.60
   3   7   1    1.90    6.60
  -3   7  -1    6.70    5.60
  -4  -7  -1  117.89   13.50
   4  -7   1  120.59   14.60
  -4  -7  -1  126.99   15.30
  -4  -7  -1  117.09   14.30
   4   7   1  137.19   16.50
  -4   7  -1   97.79   12.70
   4   7   1  107.09   13.30
  -5  -7  -1  105.29   14.30
  -5  -7  -1  130.29   16.50
   5  -7   1   96.79   14.80
  -5  -7  -1  115.79   19.30
  -5   7  -1  126.29   15.10
   5   7   1  131.79   16.90
   5   7   1  140.39   18.00
   5   7   1  140.59   15.50
  -3  -8   1   29.20   10.00
   3  -8  -1   20.10    9.40
  -3  -8   1   22.20    7.90
   3   8  -1   25.90    8.30
  -3   8   1   61.89   19.40
   3   8  -1   34.20    9.60
  -3   8   1   27.20    7.80
  -2  -8   1  137.29   13.80
  -2  -8   1  146.29   13.10
  -2  -8   1  146.59   14.10
   2  -8  -1  136.69   14.90
   2   8  -1  191.38   26.40
  -2   8   1  188.98   25.10
   2   8  -1  128.99   14.20
  -2   8   1  140.89   12.90
   1  -8  -1  112.69   13.20
  -1  -8   1  110.19   12.60
  -1   8   1  136.69   22.00
   1   8  -1  122.29   19.20
   0  -8  -1   64.29   10.50
   0  -8   1   68.29   10.00
   0  -8   1   66.79    9.60
   0   8  -1   99.69   19.80
  -1  -8  -1    2.50    6.50
  -1  -8  -1    1.70    2.60
   1  -8   1    1.30    5.90
   1   8   1   20.80   12.90
   1   8   1    2.90    5.40
  -1   8  -1   -1.30    4.30
  -2  -8  -1  105.99   12.90
   2  -8   1  104.69   12.90
  -2  -8  -1   96.29   12.40
   2   8   1  100.09   11.20
   2   8   1  113.09   13.10
  -2   8  -1   85.09   10.70
   2   8   1  149.59   24.50
   3  -8   1   69.19   11.50
  -3  -8  -1   51.79    9.20
  -3  -8  -1   74.29   11.80
  -3  -8  -1   77.69   11.60
   3   8   1   61.69   10.80
  -3   8  -1   64.69   10.10
   3   8   1   61.49    9.70
  -2   9   1  105.49   22.00
   1  -9  -1   24.80   10.00
   1   9  -1   58.19   18.60
   0  -9  -1   73.89   12.50
   0  -9   1   73.69   11.20
   0   9   1  124.89   23.60
  -1  -9  -1   91.19   12.70
   1  -9   1   91.79   12.60
  -7   0   2  164.48   17.80
  -6   0   2  101.79    9.90
   6   0  -2   91.59   10.30
   6   0  -2  100.29    9.90
   6   0  -2   87.39   12.10
   5   0  -2   -0.50    1.90
   5   0  -2    1.80    5.20
   5   0  -2    0.90    3.60
  -5   0   2   -1.30    7.70
   5   0  -2   -0.80    3.40
  -5   0   2   -0.40    4.00
   5   0  -2    4.20    8.20
   5   0  -2   -0.30    3.20
  -5   0   2   -1.00    3.20
   4   0  -2  113.29    8.50
   4   0  -2  116.29   15.50
   4   0  -2  107.39    8.40
  -4   0   2  113.09    8.30
  -4   0   2  105.09   14.40
   4   0  -2  107.69    8.00
   3   0  -2  150.78    9.30
   3   0  -2  152.08    9.90
   3   0  -2  148.59    9.50
   3   0  -2  150.18    9.40
   3   0  -2  161.98    9.80
   2   0  -2 1248.58   72.99
  -2   0   2 1389.56   68.69
   2   0  -2 1430.26   68.59
   2   0  -2 1386.36   68.79
   2   0  -2 1434.16   68.79
   2   0  -2 1405.76   68.49
   1   0  -2 1450.35   66.89
  -1   0   2 1397.06   66.69
  -1   0   2 1396.16   66.89
   1   0  -2 1364.76   67.29
   1   0  -2 1331.47   67.19
  -1   0   2 1403.66   67.19
  -1   0   2 1349.56   66.69
   1   0  -2 1180.48   69.79
   1   0  -2 1373.56   66.79
   0   0   2   15.00    2.00
   0   0  -2   17.20    2.20
   0   0   2   15.80    1.60
   0   0   2   15.10    1.70
   0   0  -2   15.50    2.10
   0   0   2   16.20    2.00
  -1   0  -2  931.51   44.00
  -1   0  -2  872.61   44.20
  -1   0  -2  880.11   44.10
   1   0   2  907.81   44.70
   1   0   2  851.61   44.40
   1   0   2  874.21   44.10
   1   0   2  883.61   44.20
   1   0   2  863.71   44.20
   1   0   2  912.61   44.40
   2   0   2  836.92   41.50
   2   0   2  822.72   41.70
  -2   0  -2  849.22   40.50
  -2   0  -2  815.32   40.00
  -2   0  -2  776.92   39.90
   2   0   2  813.42   40.70
   2   0   2  765.22   41.10
   2   0   2  813.02   40.80
   2   0   2  802.92   40.90
   2   0   2  813.32   40.50
  -2   0  -2  759.72   41.50
   3   0   2  333.57   18.30
   3   0   2  328.57   18.20
   3   0   2  325.37   18.60
   3   0   2  324.67   19.00
   3   0   2  351.26   19.80
  -3   0  -2  335.37   18.00
   3   0   2  331.37   17.70
   4   0   2   12.60    5.00
   4   0   2   12.60    3.20
   4   0   2   11.30    4.20
   4   0   2   13.90    2.60
  -4   0  -2   19.20    3.80
   4   0   2   18.60    3.90
   4   0   2   16.80    4.00
  -5   0  -2    8.60    7.20
   5   0   2   11.60    3.30
   5   0   2   17.70    6.20
   5   0   2    9.10    6.60
  -5   0  -2   16.00    4.50
   6   0   2  396.36   27.90
  -6   0  -2  403.76   27.70
   6   0   2  401.26   26.40
   6   0   2  415.76   25.20
  -7   0  -2   68.39   14.40
   7   0   2   67.39   11.30
   7   0   2   90.19   15.20
  -7  -1   2    2.20    4.60
   7  -1  -2    8.60    9.30
  -7  -1   2    6.80    7.90
   7   1  -2   12.80    3.70
   7   1  -2   -2.10    4.00
  -7   1   2    4.20    6.50
   6  -1  -2   74.99    9.60
  -6  -1   2   66.19   10.60
   6  -1  -2   62.09   10.50
   6   1  -2   76.59    9.60
   6   1  -2   74.29    8.70
  -6   1   2   79.89    9.70
   5  -1  -2  735.93   40.40
   5  -1  -2  701.63   38.60
  -5  -1   2  729.83   40.40
   5  -1  -2  728.83   38.90
   5  -1  -2  748.43   47.10
  -5  -1   2  737.13   38.40
   5  -1  -2  723.93   36.70
   5   1  -2  700.93   48.60
  -5   1   2  729.23   38.90
  -5   1   2  717.63   46.60
   5   1  -2  709.93   39.50
   5   1  -2  691.53   38.20
   4  -1  -2  133.19   16.10
   4  -1  -2  134.39    9.20
   4  -1  -2  133.69    7.90
   4  -1  -2  133.29   10.00
   4  -1  -2  136.79    8.00
   4  -1  -2  132.59    8.80
  -4  -1   2  130.49   10.70
   4  -1  -2  133.39    9.30
   4  -1  -2  140.39   10.60
   4   1  -2  124.59   17.20
   4   1  -2  112.79    9.40
  -4   1   2  148.69   15.60
  -4   1   2  147.79   10.20
  -4   1   2  146.69    9.00
   4   1  -2  145.89    9.40
   4   1  -2  147.89    9.90
   3  -1  -2   55.09    5.20
   3  -1  -2   49.00    4.10
   3  -1  -2   46.30    4.20
   3  -1  -2   45.70    4.70
   3  -1  -2   47.20    3.50
   3  -1  -2   46.40    3.50
  -3  -1   2   50.69    5.60
   3  -1  -2   44.80    3.70
  -3   1   2   37.40    8.00
   3   1  -2   40.20    4.50
  -3   1   2   39.20    4.50
   3   1  -2   44.00    5.40
   3   1  -2   38.60    4.10
   3   1  -2   35.00    4.20
   2  -1  -2  841.42   40.80
  -2  -1   2  839.12   41.60
   2  -1  -2  847.32   41.70
   2  -1  -2  880.31   46.10
   2  -1  -2  886.41   41.10
  -2  -1   2  847.02   41.60
  -2  -1   2  875.71   41.70
   2  -1  -2  872.51   41.00
   2  -1  -2  848.42   41.00
   2   1  -2  753.72   41.30
   2   1  -2  767.22   41.60
   2   1  -2  795.22   41.90
  -2   1   2  827.02   40.50
   2   1  -2  760.42   46.20
  -2   1   2  783.42   40.50
   2   1  -2  801.02   40.50
  -2   1   2  837.72   45.80
   2   1  -2  758.22   41.60
   2   1  -2  780.82   41.70
  -2   1   2  843.62   41.30
  -1  -1   2 1025.60   52.69
   1  -1  -2  943.31   52.59
   1  -1  -2  972.60   52.59
   1  -1  -2  967.00   52.59
  -1  -1   2  978.00   52.29
  -1  -1   2  987.00   52.69
  -1   1   2 1118.59   52.69
  -1   1   2 1092.49   52.69
   1   1  -2 1200.58   52.69
   1   1  -2 1134.39   53.09
  -1   1   2 1145.49   55.89
   1   1  -2 1145.29   52.59
  -1   1   2  993.30   52.79
   1   1  -2 1172.48   52.99
   1   1  -2 1059.39   55.89
   0  -1   2   67.99    3.90
   0  -1  -2   62.79    4.30
   0  -1  -2   65.39    4.40
   0  -1   2   68.89    4.40
   0  -1   2   67.79    4.30
   0  -1  -2   60.49    4.30
   0  -1   2   61.19    4.20
   0  -1   2   68.29    4.10
  -1  -1  -2  513.95   24.50
   1  -1   2  486.45   24.40
   1  -1   2  541.85   24.70
  -1  -1  -2  476.15   24.10
   1  -1   2  433.86   24.60
  -1   1  -2  479.35   24.30
   1   1   2  460.85   24.30
   1   1   2  469.05   24.50
  -1   1  -2  464.95   24.40
  -1   1  -2  446.96   24.20
   1   1   2  501.55   24.50
  -1   1  -2  440.36   24.90
   1   1   2  479.15   24.50
   1   1   2  454.65   25.20
   1   1   2  468.85   24.20
   2  -1   2  399.36   21.90
  -2  -1  -2  440.36   21.40
   2  -1   2  416.46   22.60
   2  -1   2  410.16   22.10
   2  -1   2  453.95   22.40
  -2  -1  -2  447.36   21.50
  -2  -1  -2  423.46   23.30
   2  -1   2  417.16   22.70
   2  -1   2  438.76   21.40
   2   1   2  422.06   22.40
   2   1   2  405.06   24.10
   2   1   2  420.66   22.70
   2   1   2  406.96   23.30
   2   1   2  420.36   22.40
   2   1   2  422.76   21.80
  -2   1  -2  416.16   23.20
   2   1   2  400.16   22.20
  -2   1  -2  417.96   22.20
  -2   1  -2  418.56   21.70
   3  -1   2  126.89    8.40
   3  -1   2  115.99    7.90
  -3  -1  -2  121.49    7.60
   3  -1   2  116.69    9.40
  -3  -1  -2  122.09   10.40
   3  -1   2  124.49    7.70
   3  -1   2  119.99    9.10
   3  -1   2  123.69    8.50
  -3   1  -2  136.09   10.00
  -3   1  -2  131.89    8.60
   3   1   2  129.19    7.80
   3   1   2  143.19   10.80
   3   1   2  127.89    8.90
   3   1   2  120.49    9.10
   3   1   2  127.49   10.40
   3   1   2  129.39    8.90
   3   1   2  129.09    8.40
   4  -1   2 1223.48   56.49
  -4  -1  -2 1147.29   55.69
   4  -1   2 1118.09   57.39
  -4  -1  -2 1156.08   58.69
   4  -1   2 1129.99   56.59
   4  -1   2 1089.89   57.99
   4   1   2 1005.60   57.19
   4   1   2 1054.09   58.49
   4   1   2 1068.09   56.99
  -4   1  -2 1099.39   56.49
   4   1   2 1068.49   55.49
   4   1   2 1045.30   56.99
  -5  -1  -2   70.19   10.80
   5  -1   2   72.49   10.30
   5  -1   2   78.39    9.50
   5  -1   2   81.29    8.30
   5  -1   2   80.19    7.10
   5   1   2   83.39   11.40
   5   1   2   83.09    8.90
   5   1   2   82.89    9.50
  -5   1  -2   79.49    8.50
   5   1   2   86.19   10.40
   6  -1   2   27.20    9.10
   6  -1   2   20.90    5.80
  -6  -1  -2   19.90    9.70
   6   1   2   30.70    7.70
   6   1   2   38.00   10.20
   6   1   2   27.90    8.30
  -7  -1  -2   65.89   13.30
  -7   1  -2   70.99   14.90
   7   1   2   53.19   10.30
   7   1   2   60.79   12.60
   7   1   2   72.89   11.00
  -7  -2   2  102.89   11.60
   7  -2  -2  119.29   16.20
  -7  -2   2  119.99   13.70
   7   2  -2  121.69   14.30
  -7   2   2  114.99   13.20
   7   2  -2  134.99   13.60
   6  -2  -2   77.99   11.50
  -6  -2   2   72.19   10.90
  -6  -2   2   88.49   10.60
   6   2  -2   56.39    9.50
  -6   2   2   73.39   10.00
   6   2  -2   64.99   10.60
   6   2  -2   57.09    9.10
   6   2  -2   45.40    8.50
  -5  -2   2   36.00    8.10
   5  -2  -2   46.80    7.50
  -5  -2   2   41.50    7.00
   5  -2  -2   35.80    7.70
   5  -2  -2   43.40    4.80
   5   2  -2   36.90    7.10
  -5   2   2   48.40    7.50
   5   2  -2   43.30    7.80
   5   2  -2   36.20    3.40
   5   2  -2   29.70    7.60
   5   2  -2   34.70    6.40
   5   2  -2   46.10    8.10
   5   2  -2   33.70   13.90
  -5   2   2   29.30   12.20
  -4  -2   2   96.19    8.70
   4  -2  -2   94.79    7.20
  -4  -2   2   85.29    8.90
   4  -2  -2   96.19    8.70
   4  -2  -2  103.99    9.30
   4  -2  -2   96.69    7.30
   4   2  -2  111.09    7.70
   4   2  -2  111.19    6.40
   4   2  -2   92.99    9.20
   4   2  -2  104.09    9.10
  -4   2   2  112.09    9.00
   4   2  -2  104.59    6.30
   4   2  -2  108.39    9.30
   4   2  -2   95.89    8.40
  -4   2   2   92.39   13.50
   3  -2  -2  447.56   22.20
  -3  -2   2  434.76   23.20
   3  -2  -2  461.15   23.40
  -3  -2   2  460.55   23.20
   3  -2  -2  462.65   23.10
   3  -2  -2  440.96   21.20
   3  -2  -2  454.15   22.30
   3  -2  -2  449.16   21.80
   3   2  -2  385.56   29.20
  -3   2   2  390.96   27.60
   3   2  -2  393.76   23.10
   3   2  -2  399.66   23.40
  -3   2   2  402.56   21.80
   3   2  -2  392.36   21.40
  -3   2   2  394.96   22.70
   3   2  -2  391.06   22.00
   3   2  -2  400.86   23.00
   3   2  -2  393.56   21.40
   3   2  -2  349.67   22.80
  -2  -2   2  435.86   21.70
  -2  -2   2  447.66   20.40
  -2  -2   2  457.45   21.90
   2  -2  -2  466.75   21.80
   2  -2  -2  432.36   21.50
   2  -2  -2  434.46   21.90
   2  -2  -2  447.06   21.60
   2  -2  -2  455.65   20.50
  -2  -2   2  457.85   21.50
   2   2  -2  366.76   20.80
   2   2  -2  374.06   21.10
  -2   2   2  370.66   21.40
  -2   2   2  343.77   20.90
  -2   2   2  356.06   25.10
   2   2  -2  360.36   20.80
   2   2  -2  367.36   21.90
   2   2  -2  349.57   21.50
   2   2  -2  364.36   21.70
  -2   2   2  379.66   21.00
   1  -2  -2  703.33   35.40
   1  -2  -2  675.43   35.40
  -1  -2   2  670.33   35.10
   1  -2  -2  688.13   35.40
  -1  -2   2  682.53   35.10
  -1  -2   2  675.63   35.20
   1  -2  -2  708.33   35.10
  -1  -2   2  727.43   35.40
  -1  -2   2  709.63   34.70
   1   2  -2  677.03   35.30
  -1   2   2  700.83   38.70
   1   2  -2  668.03   35.40
  -1   2   2  725.23   35.40
   1   2  -2  583.64   35.30
  -1   2   2  742.53   35.50
   1   2  -2  682.73   35.20
   1   2  -2  647.74   38.60
   1   2  -2  727.63   35.30
  -1   2   2  754.82   35.10
  -1   2   2  715.53   35.10
   0  -2  -2  178.98    9.30
   0  -2  -2  167.88    9.90
   0  -2   2  159.88    9.80
   0  -2   2  170.48   10.00
   0  -2   2  181.78    9.80
   0  -2  -2  173.68    9.90
   0  -2   2  179.38    9.40
   0  -2  -2  183.08    9.10
   0  -2  -2  179.58   10.10
   0   2  -2  160.88   10.00
   0   2   2  168.98    9.40
   0   2  -2  167.98    9.80
   0   2   2  171.88   10.00
   0   2   2  161.88   11.90
   0   2   2  168.98    9.30
   0   2  -2  164.48   12.10
   0   2  -2  172.78    9.50
   0   2   2  166.68    9.70
   0   2  -2  164.88   10.00
   0   2   2  177.38    9.10
   0   2   2  162.18   10.00
  -1  -2  -2  380.86   18.60
   1  -2   2  400.66   18.90
   1  -2   2  400.86   19.10
   1  -2   2  375.86   19.00
  -1  -2  -2  367.66   18.60
   1  -2   2  373.16   18.60
   1  -2   2  404.96   18.80
  -1  -2  -2  403.56   19.30
   1   2   2  329.37   18.80
  -1   2  -2  301.37   18.60
   1   2   2  294.27   20.40
   1   2   2  326.27   18.50
   1   2   2  310.17   18.50
   1   2   2  330.17   18.60
  -1   2  -2  324.67   18.60
   1   2   2  313.17   18.50
  -1   2  -2  298.47   20.20
   2  -2   2  461.35   24.30
  -2  -2  -2  453.05   23.90
   2  -2   2  435.76   24.30
   2  -2   2  470.15   24.70
   2  -2   2  498.95   24.10
  -2  -2  -2  431.86   25.20
   2   2   2  446.96   24.70
   2   2   2  462.95   24.60
  -2   2  -2  447.66   24.00
  -2   2  -2  444.56   26.40
   2   2   2  449.86   27.30
   2   2   2  472.65   24.10
   2   2   2  445.26   24.70
   2   2   2  467.65   24.20
  -2   2  -2  460.15   24.40
   3  -2   2  202.88   12.80
  -3  -2  -2  213.18   11.60
  -3  -2  -2  207.68   15.10
   3  -2   2  197.78   12.60
   3  -2   2  217.68   13.20
   3  -2   2  211.58   14.10
   3   2   2  227.08   14.10
   3   2   2  229.08   12.70
   3   2   2  216.78   14.00
  -3   2  -2  227.98   13.50
   3   2   2  233.48   15.50
  -3   2  -2  221.08   16.10
   3   2   2  223.98   13.80
   3   2   2  226.98   17.20
  -3   2  -2  230.88   12.30
  -4  -2  -2    9.80    6.40
   4  -2   2   16.00    4.40
   4  -2   2   15.00    4.90
   4  -2   2   14.60    3.50
   4  -2   2   15.00    3.60
   4   2   2   15.40    6.10
   4   2   2   10.90    4.40
  -4   2  -2   21.00    5.10
   4   2   2   14.00    2.90
   4   2   2   17.00    4.60
   4   2   2   14.90    4.90
  -5  -2  -2  236.48   18.20
   5  -2   2  249.68   17.20
   5  -2   2  257.17   16.20
  -5   2  -2  183.98   14.60
   5   2   2  172.68   17.10
   5   2   2  196.88   15.50
   5   2   2  176.58   15.50
   6  -2   2  163.88   17.30
   6  -2   2  155.68   14.70
  -6  -2  -2  146.69   17.50
   6   2   2  203.08   17.40
   6   2   2  194.78   16.10
  -6   2  -2  185.58   14.50
   6   2   2  222.68   23.50
   7  -2   2   73.29   13.80
  -7  -2  -2   97.19   15.60
   7   2   2  117.19   15.10
   7   2   2  115.19   13.40
  -7  -3   2   -2.10    7.20
   7  -3  -2    3.60    8.80
  -7  -3   2    5.00    5.40
  -7   3   2    2.90    6.70
   7   3  -2    3.80    6.50
   7   3  -2    9.70    8.10
   7   3  -2    7.60    7.30
  -6  -3   2   81.19   10.90
   6  -3  -2   85.29   12.50
  -6  -3   2   78.69    9.70
  -6   3   2  103.79   12.10
   6   3  -2   68.39   10.30
   6   3  -2   97.59   12.20
   6   3  -2  106.79   13.40
  -5  -3   2  434.56   25.80
  -5  -3   2  413.76   26.40
   5  -3  -2  448.46   27.20
  -5  -3   2  427.06   25.30
   5   3  -2  439.26   26.10
   5   3  -2  365.56   35.60
   5   3  -2  412.76   26.10
   5   3  -2  414.46   23.60
   5   3  -2  441.66   26.90
  -5   3   2  400.66   25.20
  -5   3   2  470.05   33.00
  -4  -3   2  191.18   14.10
   4  -3  -2  204.98   13.80
   4  -3  -2  199.98   15.10
   4  -3  -2  208.08   14.90
  -4  -3   2  197.28   14.80
  -4  -3   2  204.18   15.00
   4   3  -2  226.48   15.90
   4   3  -2  223.18   13.30
   4   3  -2  230.08   15.60
   4   3  -2  229.18   13.00
  -4   3   2  262.57   21.00
   4   3  -2  260.97   20.90
  -4   3   2  237.68   15.10
   4   3  -2  232.18   15.00
  -3  -3   2   32.00    4.80
   3  -3  -2   34.00    4.70
  -3  -3   2   24.70    4.40
   3  -3  -2   31.90    5.20
   3  -3  -2   28.00    5.10
  -3  -3   2   33.10    5.30
   3  -3  -2   27.00    4.40
   3   3  -2   29.10    5.00
   3   3  -2   28.70    3.70
  -3   3   2   34.40    2.70
   3   3  -2   27.20    3.70
   3   3  -2   29.70    4.00
  -3   3   2   26.80    4.50
  -3   3   2   40.00    8.30
   3   3  -2   30.00    5.50
   3   3  -2   18.50    4.50
   3   3  -2   31.90    9.30
   2  -3  -2 1688.43   82.69
  -2  -3   2 1728.83   81.99
  -2  -3   2 1662.73   82.89
  -2  -3   2 1748.93   82.29
   2  -3  -2 1662.23   82.99
  -2  -3   2 1690.73   82.79
   2  -3  -2 1754.62   83.09
   2  -3  -2 1694.23   82.89
   2  -3  -2 1510.75   81.59
   2   3  -2 1723.63   82.39
   2   3  -2 1626.34   82.39
  -2   3   2 1627.24   82.59
   2   3  -2 1564.74   83.09
  -2   3   2 1661.63   81.59
   2   3  -2 1556.44   88.49
   2   3  -2 1702.03   82.39
   2   3  -2 1583.94   83.09
   2   3  -2 1623.44   82.89
  -2   3   2 1626.04   82.49
  -2   3   2 1562.84   87.59
   1  -3  -2  273.57   18.30
   1  -3  -2  285.07   18.30
  -1  -3   2  307.77   18.30
   1  -3  -2  312.57   17.00
   1  -3  -2  290.97   18.50
   1  -3  -2  292.17   17.30
  -1  -3   2  293.07   18.00
  -1  -3   2  290.47   18.20
  -1   3   2  391.96   18.90
   1   3  -2  374.96   18.60
   1   3  -2  371.16   18.70
   1   3  -2  352.96   23.10
   1   3  -2  393.96   18.90
  -1   3   2  361.26   17.90
  -1   3   2  371.76   23.10
   1   3  -2  394.06   18.90
   1   3  -2  379.66   18.80
   0  -3   2  286.87   15.90
   0  -3  -2  275.57   16.40
   0  -3   2  274.97   15.90
   0  -3   2  264.47   16.40
   0  -3  -2  282.67   16.60
   0  -3  -2  266.27   16.60
   0  -3  -2  262.47   15.70
   0  -3   2  279.07   16.60
   0  -3   2  256.27   16.10
   0   3   2  310.37   15.60
   0   3   2  317.17   15.90
   0   3  -2  313.87   16.10
   0   3   2  303.47   20.10
   0   3  -2  308.27   20.30
   0   3  -2  311.67   16.90
   0   3   2  330.17   16.90
   0   3   2  307.47   16.30
   0   3  -2  324.17   16.50
   0   3   2  324.57   17.00
   0   3  -2  326.77   17.00
  -1  -3  -2 1209.68   57.39
   1  -3   2 1261.07   56.59
  -1  -3  -2 1133.09   56.89
  -1  -3  -2 1034.00   56.59
   1  -3   2 1201.88   57.39
   1  -3   2 1155.88   56.79
   1  -3   2 1152.08   57.19
  -1   3  -2 1057.79   56.99
  -1   3  -2 1050.19   60.29
   1   3   2 1134.89   56.99
   1   3   2 1119.79   56.69
   1   3   2 1079.89   57.09
   1   3   2 1060.69   56.79
  -1   3  -2 1156.38   55.59
  -1   3  -2 1046.50   56.69
  -2  -3  -2   65.39    5.50
   2  -3   2   58.69    5.60
   2  -3   2   54.09    6.00
   2  -3   2   65.49    6.20
  -2  -3  -2   65.39    7.10
   2  -3   2   55.99    5.90
   2  -3   2   59.49    5.10
   2   3   2   78.19    6.70
   2   3   2   73.19    6.40
   2   3   2   74.09    6.00
   2   3   2   75.79    6.00
  -2   3  -2   71.29    6.10
  -2   3  -2   68.99    6.00
   2   3   2   79.19    9.50
   2   3   2   67.89    6.30
  -2   3  -2   57.59    7.70
   3  -3   2  279.07   18.30
  -3  -3  -2  267.17   19.40
   3  -3   2  285.87   18.20
   3  -3   2  287.27   16.80
   3  -3   2  297.77   17.90
   3   3   2  325.07   19.00
  -3   3  -2  311.07   18.10
   3   3   2  334.27   23.40
  -3   3  -2  312.87   21.20
   3   3   2  318.37   17.40
   3   3   2  300.87   18.60
   3   3   2  307.47   18.30
  -4  -3  -2 1260.67   65.89
   4  -3   2 1317.07   64.59
   4  -3   2 1261.77   65.19
   4  -3   2 1300.57   64.09
   4   3   2 1140.29   73.99
   4   3   2 1236.48   65.09
  -4   3  -2 1223.08   68.69
   4   3   2 1294.97   65.29
   4   3   2 1177.28   62.89
   4   3   2 1191.38   64.49
  -4   3  -2 1218.08   64.09
   5  -3   2  158.68   14.60
  -5  -3  -2  148.89   15.80
   5  -3   2  164.68   13.00
   5   3   2  145.29   13.70
   5   3   2  149.59   13.70
  -5   3  -2  133.49   12.20
   5   3   2  141.39   13.50
  -6  -3  -2    9.10    9.80
   6  -3   2   10.40    9.10
   6   3   2   20.60    8.30
  -6   3  -2   11.80    6.50
   6   3   2    8.60    5.90
   6   3   2   12.70    7.20
  -6  -4   2  130.49   12.90
   6  -4  -2  130.59   16.00
   6   4  -2  138.29   14.10
   6   4  -2  146.79   16.00
  -6   4   2  133.59   14.20
   6   4  -2  156.48   16.30
  -5  -4   2   84.29    9.50
   5  -4  -2   72.19   11.00
  -5  -4   2   95.39   11.60
  -5  -4   2   92.99   11.00
   5   4  -2   89.99   12.40
   5   4  -2   73.59   10.30
  -5   4   2   80.09    9.80
  -5   4   2  112.49   16.90
   5   4  -2  101.09   12.70
  -4  -4   2   48.30    7.00
  -4  -4   2   49.70    7.60
  -4  -4   2   43.00    6.60
   4  -4  -2   44.20    7.40
   4  -4  -2   54.59    7.10
  -4   4   2   37.40    7.00
  -4   4   2   49.50   13.40
   4   4  -2   41.30    8.10
   4   4  -2   38.90   16.60
   4   4  -2   42.50    7.80
   4   4  -2   40.70    5.40
   4   4  -2   28.20    6.30
   3  -4  -2  651.93   34.30
   3  -4  -2  608.94   34.40
  -3  -4   2  626.24   33.40
  -3  -4   2  599.74   33.80
  -3  -4   2  614.14   34.20
   3   4  -2  615.84   34.30
   3   4  -2  639.34   42.60
   3   4  -2  643.84   33.50
   3   4  -2  634.64   32.70
  -3   4   2  632.64   34.00
  -3   4   2  607.84   40.70
   3   4  -2  633.14   34.90
  -2  -4   2  804.42   40.60
  -2  -4   2  819.32   41.40
   2  -4  -2  768.62   41.30
   2  -4  -2  823.42   41.70
  -2  -4   2  811.82   40.50
   2  -4  -2  785.62   41.40
  -2  -4   2  830.32   41.20
  -2   4   2  791.72   41.10
   2   4  -2  725.73   47.50
   2   4  -2  781.02   41.00
   2   4  -2  743.63   40.60
   2   4  -2  809.72   42.80
  -2   4   2  758.82   40.80
   2   4  -2  740.03   41.40
  -2   4   2  774.12   39.70
   2   4  -2  792.42   41.40
  -2   4   2  748.93   46.90
  -1  -4   2  687.53   35.40
   1  -4  -2  678.23   35.40
   1  -4  -2  676.63   35.60
   1  -4  -2  679.43   34.20
  -1  -4   2  644.14   34.50
  -1  -4   2  627.84   35.00
  -1  -4   2  666.83   34.80
   1  -4  -2  698.83   33.60
   1   4  -2  657.53   35.20
  -1   4   2  647.94   35.40
  -1   4   2  674.23   34.70
   1   4  -2  670.23   35.50
   1   4  -2  674.73   35.10
   1   4  -2  650.33   35.30
  -1   4   2  697.73   34.50
   1   4  -2  601.94   40.30
   1   4  -2  703.03   35.20
   0  -4  -2  450.35   25.30
   0  -4  -2  454.45   25.00
   0  -4   2  465.05   24.20
   0  -4   2  435.86   24.60
   0  -4   2  452.75   24.40
   0  -4  -2  448.26   24.10
   0  -4   2  485.65   25.50
   0   4  -2  453.25   24.30
   0   4   2  450.95   23.80
   0   4  -2  476.65   25.40
   0   4  -2  442.66   29.80
   0   4   2  444.16   29.70
   0   4   2  482.25   24.10
   0   4   2  479.35   25.40
   0   4  -2  463.95   25.50
   0   4   2  447.16   24.60
   0   4   2  426.56   25.10
   1  -4   2  658.13   31.20
  -1  -4  -2  621.64   32.20
   1  -4   2  629.34   31.80
   1  -4   2  586.14   32.10
  -1  -4  -2  627.24   32.30
   1  -4   2  603.24   32.50
   1   4   2  615.94   30.40
   1   4   2  543.15   36.50
  -1   4  -2  571.74   31.70
  -1   4  -2  573.44   32.10
   1   4   2  598.54   32.20
  -1   4  -2  592.64   30.40
   1   4   2  589.34   31.50
   1   4   2  582.34   31.80
   1   4   2  600.64   32.10
  -1   4  -2  557.34   36.30
  -2  -4  -2  568.74   31.50
   2  -4   2  586.04   31.90
   2  -4   2  587.94   31.60
  -2  -4  -2  590.24   32.10
   2  -4   2  538.05   31.70
   2   4   2  591.34   31.60
  -2   4  -2  592.54   31.60
   2   4   2  581.04   31.30
   2   4   2  607.04   32.00
  -2   4  -2  557.54   35.90
   2   4   2  589.24   32.10
   3  -4   2   29.00    5.20
  -3  -4  -2   26.70    5.60
  -3  -4  -2   30.50    7.00
   3  -4   2   27.90    5.60
   3  -4   2   16.00    4.70
   3   4   2   32.80    9.10
  -3   4  -2   30.10    5.80
   3   4   2   29.40    5.80
  -3   4  -2   17.60    6.50
   3   4   2   31.00    5.00
   3   4   2   32.10    6.30
   3   4   2   24.90    6.00
   4  -4   2   11.70    5.90
   4  -4   2   16.00    4.50
  -4  -4  -2   11.50    5.40
   4  -4   2   17.60    5.10
  -4  -4  -2   15.70    7.70
   4   4   2   14.30    4.60
   4   4   2   14.50    5.70
   4   4   2    9.10    5.30
  -4   4  -2   17.40    5.40
   4   4   2   18.60    6.60
  -5  -4  -2  145.09   16.80
  -5  -4  -2  149.29   14.00
   5  -4   2  148.29   14.80
   5   4   2  151.78   14.30
   5   4   2  133.99   14.50
   5   4   2  137.89   13.80
  -5   4  -2  132.49   12.60
  -6  -4  -2   54.89   12.60
  -6  -4  -2   59.99   11.10
   6  -4   2   68.49   12.30
   6   4   2   72.29   11.40
   6   4   2   89.89   13.10
   6   4   2   70.89   12.20
  -6   4  -2   81.49   11.70
  -6  -5   2   42.30   11.10
  -6  -5   2   48.10    9.80
   6  -5  -2   51.29   11.50
  -6   5   2   70.09   11.50
   6   5  -2   56.09   11.30
   6   5  -2   63.59   12.80
   6   5  -2   46.20   10.90
   5  -5  -2  211.78   17.60
  -5  -5   2  218.88   16.90
  -5  -5   2  213.68   16.20
  -5   5   2  183.68   26.90
   5   5  -2  196.78   17.30
  -5   5   2  177.28   15.70
   5   5  -2  185.68   16.80
   5   5  -2  175.78   16.40
  -4  -5   2  101.19   10.80
  -4  -5   2   93.89    9.80
  -4  -5   2   93.29   10.30
   4  -5  -2   77.79   10.70
   4   5  -2  148.69   22.60
   4   5  -2   99.39   12.10
  -4   5   2   95.19    9.90
   4   5  -2   93.99   10.40
   4   5  -2   90.39   11.00
  -4   5   2  108.29   19.10
   3  -5  -2   29.20    5.80
  -3  -5   2   26.60    5.70
  -3  -5   2   31.60    6.20
  -3  -5   2   33.50    6.00
   3  -5  -2   30.90    6.40
   3   5  -2   34.30    6.70
   3   5  -2   48.40   12.90
   3   5  -2   40.70    6.10
  -3   5   2   37.10    6.60
   3   5  -2   31.20    6.30
  -3   5   2   35.00   10.70
  -2  -5   2  448.56   25.00
  -2  -5   2  424.36   25.10
   2  -5  -2  428.86   25.50
  -2  -5   2  454.55   24.50
   2  -5  -2  425.06   25.70
   2   5  -2  481.05   25.60
   2   5  -2  437.76   32.70
  -2   5   2  444.76   31.50
   2   5  -2  443.76   25.60
  -2   5   2  436.56   24.70
   2   5  -2  380.66   24.30
   2   5  -2  484.25   25.60
   1  -5  -2  273.57   16.40
  -1  -5   2  265.17   15.40
  -1  -5   2  261.17   15.90
  -1  -5   2  260.77   15.20
   1  -5  -2  275.47   14.80
   1  -5  -2  254.57   16.50
   1   5  -2  233.28   15.60
  -1   5   2  242.88   14.80
  -1   5   2  239.38   21.30
   1   5  -2  256.77   16.50
  -1   5   2  247.38   15.00
   1   5  -2  239.18   21.50
   1   5  -2  247.58   15.50
  -1   5   2  252.67   16.10
   0  -5   2  252.77   15.70
   0  -5   2  266.67   16.60
   0  -5  -2  265.17   15.30
   0  -5  -2  254.27   14.80
   0  -5   2  256.87   15.10
   0  -5   2  264.97   15.60
   0  -5  -2  267.17   16.70
   0  -5  -2  261.27   16.30
   0   5  -2  248.48   15.20
   0   5   2  263.77   14.80
   0   5   2  249.58   15.60
   0   5  -2  271.67   16.90
   0   5  -2  247.28   21.50
   0   5   2  263.07   15.00
   0   5   2  264.77   16.50
   0   5   2  242.78   21.30
   1  -5   2  187.98   12.50
   1  -5   2  185.38   13.30
   1  -5   2  192.58   11.50
   1  -5   2  187.48   12.50
  -1  -5  -2  196.28   13.20
   1   5   2  186.38   12.90
   1   5   2  188.98   12.10
  -1   5  -2  187.08   13.20
  -1   5  -2  176.98   17.60
  -1   5  -2  165.58   12.20
   1   5   2  192.18   13.10
   2  -5   2   50.99    7.10
  -2  -5  -2   54.59    7.30
   2  -5   2   59.79    7.40
  -2  -5  -2   68.79    8.50
   2  -5   2   53.49    7.20
   2   5   2   46.60    6.60
   2   5   2   68.09   12.00
   2   5   2   55.39    7.20
   2   5   2   40.60    6.70
  -2   5  -2   55.39    7.30
   2   5   2   60.29    7.80
  -2   5  -2   65.59   11.80
   3  -5   2  189.98   14.00
   3  -5   2  149.88   13.40
   3  -5   2  178.78   14.00
  -3  -5  -2  181.88   15.00
  -3  -5  -2  181.08   14.40
  -3   5  -2  181.28   13.90
   3   5   2  237.08   22.50
   3   5   2  187.28   13.20
   3   5   2  184.98   13.70
   3   5   2  185.48   14.20
   3   5   2  184.28   14.70
  -3   5  -2  208.78   19.90
  -4  -5  -2  340.87   23.40
   4  -5   2  341.17   23.40
  -4  -5  -2  351.36   24.80
  -4   5  -2  401.46   27.50
   4   5   2  338.47   22.70
  -4   5  -2  353.36   22.80
   4   5   2  351.46   23.40
   4   5   2  339.77   23.50
  -5  -5  -2   56.89   10.60
   5  -5   2   65.09   11.20
  -5  -5  -2   82.59   13.20
   5   5   2   79.39   12.00
  -5   5  -2   97.79   12.20
   5   5   2   67.79   10.90
   5   5   2   70.39   10.70
   6  -5   2    5.90    8.70
  -6  -5  -2   -4.90    9.70
  -6  -5  -2    4.10    9.80
   6   5   2    2.20    7.40
  -6   5  -2   11.00    8.00
   6   5   2    2.00    7.40
   6   5   2    6.30    9.40
   6  -6  -2   30.40   10.90
  -6  -6   2   33.70    8.40
  -6  -6   2   33.00   11.00
  -6   6   2   45.80   10.80
   6   6  -2   33.70   10.60
   6   6  -2   31.40    9.30
  -5  -6   2    5.30    7.50
   5  -6  -2   15.20    8.60
  -5  -6   2    9.50    6.50
   5   6  -2    7.20    6.70
   5   6  -2    7.80    7.80
  -5   6   2    5.80    6.10
   4  -6  -2   88.39   12.00
  -4  -6   2   86.29   11.80
  -4  -6   2   95.09   11.20
   4   6  -2   89.89   12.60
  -4   6   2   67.29    9.60
   4   6  -2  102.99   20.00
  -3  -6   2  120.89   11.70
  -3  -6   2  112.59   10.80
   3  -6  -2  120.29   11.30
  -3  -6   2  121.99   10.90
   3  -6  -2  124.49   12.10
  -3   6   2  131.49   18.20
   3   6  -2  105.69   12.20
   3   6  -2  138.79   20.90
  -3   6   2  102.49   10.70
   3   6  -2   97.39   10.70
   2  -6  -2  324.77   20.50
  -2  -6   2  311.77   19.10
   2  -6  -2  301.07   19.90
  -2  -6   2  317.57   18.90
  -2  -6   2  303.57   19.80
   2   6  -2  302.07   19.30
  -2   6   2  299.27   26.70
   2   6  -2  308.67   28.20
   2   6  -2  294.17   19.90
   2   6  -2  293.37   19.70
  -1  -6   2  185.78   13.60
   1  -6  -2  202.78   13.60
   1  -6  -2  195.68   14.00
  -1  -6   2  189.58   12.90
   1   6  -2  189.18   13.50
   1   6  -2  185.08   20.40
  -1   6   2  190.18   20.10
  -1   6   2  162.48   12.20
  -1   6   2  181.98   12.30
   1   6  -2  194.58   14.40
   1   6  -2  187.38   13.00
   0  -6  -2   89.79    9.40
   0  -6  -2   95.89    7.30
   0  -6   2   95.59    8.60
   0  -6  -2   93.49    8.20
   0  -6   2   81.49    8.50
   0  -6   2   98.49    7.80
   0   6   2  103.49   15.00
   0   6   2   97.49    7.60
   0   6  -2   92.39   13.70
   0   6   2   85.39    8.60
   0   6   2   88.39    7.40
   0   6  -2   86.39    8.50
   0   6   2   96.29    9.10
   0   6  -2   90.19    9.50
   0   6  -2   86.29    8.00
   1  -6   2  202.88   14.20
  -1  -6  -2  208.18   13.50
   1  -6   2  216.68   14.30
  -1  -6  -2  211.28   14.90
  -1   6  -2  196.98   14.10
   1   6   2  200.58   14.50
   1   6   2  218.98   21.80
   1   6   2  185.38   13.40
  -1   6  -2  207.68   21.20
   1   6   2  181.98   14.30
   2  -6   2  276.07   18.00
  -2  -6  -2  258.57   17.20
   2  -6   2  257.07   17.40
  -2  -6  -2  246.68   16.40
  -2  -6  -2  254.37   17.90
  -2   6  -2  251.37   17.20
   2   6   2  246.78   16.60
   2   6   2  236.88   16.90
   2   6   2  288.37   26.10
  -2   6  -2  248.88   23.60
   2   6   2  256.87   18.00
   2   6   2  233.18   16.90
   3  -6   2   70.39    9.60
  -3  -6  -2   69.99   10.20
   3  -6   2   64.39    8.30
  -3  -6  -2   70.69   10.40
  -3   6  -2   73.09    9.90
   3   6   2   67.49   10.40
   3   6   2   57.09    8.70
   3   6   2   69.49   10.20
  -3   6  -2   82.39   15.20
  -4  -6  -2   25.60   10.20
  -5  -6  -2    5.70    8.10
  -5  -6  -2   -1.20    9.90
   5  -6   2    5.00    8.10
  -5   6  -2   13.70    7.00
   5   6   2   11.70    7.30
   5   6   2   17.30    8.90
   5   6   2   20.20    9.70
  -5  -7   2   78.09   11.80
  -5  -7   2  125.99   15.80
   5  -7  -2  111.79   16.00
   5   7  -2   73.09   12.00
  -5   7   2   91.09   12.80
   5   7  -2   88.99   14.80
  -4  -7   2   59.59   11.90
  -4  -7   2   53.49   10.50
   4  -7  -2   53.39   11.60
   4   7  -2   77.09   12.10
  -4   7   2   62.79   10.40
  -4   7   2  103.19   19.80
   4   7  -2   59.29   11.20
  -3  -7   2   41.50    8.10
  -3  -7   2   54.89   10.40
   3  -7  -2   47.30    9.50
   3   7  -2   41.10    8.00
  -3   7   2   48.60    8.40
   3   7  -2   38.60    8.60
  -2  -7   2   42.60    7.30
   2  -7  -2   45.80    9.10
  -2  -7   2   42.50    7.30
   2   7  -2   73.79   18.10
   2   7  -2   48.50    8.70
   2   7  -2   35.50    7.40
  -2   7   2   34.70    6.40
  -1  -7   2  327.67   21.40
   1  -7  -2  319.07   21.80
  -1  -7   2  317.07   20.80
  -1  -7   2  326.47   20.30
   1   7  -2  348.67   31.20
   1   7  -2  353.26   22.70
  -1   7   2  343.47   30.60
   1   7  -2  323.07   21.10
  -1   7   2  339.87   20.20
   0  -7  -2  227.58   16.80
   0  -7   2  305.27   20.00
   0  -7   2  271.27   17.90
   0  -7  -2  256.37   18.80
   0  -7   2  266.77   18.00
   0   7   2  297.57   27.80
   0   7  -2  272.57   25.90
   0   7  -2  279.67   18.10
   0   7   2  284.07   17.90
  -1  -7  -2   49.00    8.50
  -1  -7  -2   37.30    6.10
   1  -7   2   42.80    7.40
   1  -7   2   54.79    8.10
  -1  -7  -2   52.19    7.90
  -1   7  -2   27.70   10.40
   1   7   2   70.59   17.60
  -1   7  -2   51.19    8.00
   1   7   2   47.30    7.90
   1   7   2   33.10    5.70
   2  -7   2   61.39    9.60
  -2  -7  -2   35.20    6.70
  -2  -7  -2   46.60    8.00
  -2  -7  -2   61.89    9.60
   2   7   2   56.99    9.30
   2   7   2   49.80    7.90
  -2   7  -2   52.19    8.60
  -3  -7  -2   97.69   13.10
  -3  -7  -2   82.69   11.00
   3  -7   2   96.79   12.40
  -3  -7  -2  101.29   12.80
   3   7   2  102.49   11.60
  -3   7  -2   97.99   11.80
   3   7   2  105.69   12.50
  -4  -7  -2  144.59   14.10
   4  -7   2  148.09   16.90
  -4  -7  -2  142.89   16.20
  -4  -7  -2  155.88   16.50
   4   7   2  151.78   16.00
  -4   7  -2  142.39   14.10
   4   7   2  145.39   14.30
   4   7   2  154.88   16.50
   4   8  -2   41.90   10.50
  -3  -8   2  207.28   19.30
  -3  -8   2  216.78   17.30
   3  -8  -2  226.78   19.60
  -3   8   2  244.98   28.70
   3   8  -2  287.87   30.00
   3   8  -2  176.38   18.00
  -2  -8   2  122.89   14.40
   2  -8  -2   99.29   13.80
  -2  -8   2   95.39   11.30
   2   8  -2  101.69   12.90
   2   8  -2  156.68   24.20
  -2   8   2  152.78   23.00
  -1  -8   2   74.69    9.50
   1  -8  -2   96.69   12.70
  -1  -8   2   82.59   10.20
  -1  -8   2   86.59   11.20
  -1   8   2  129.39   21.40
   1   8  -2  110.29   21.40
   0  -8  -2   64.29   10.80
   0  -8   2   64.99   10.20
   0   8   2   41.00   14.80
   0   8  -2   95.99   18.80
   1  -8   2  100.69   12.90
  -1  -8  -2  102.49   13.00
  -1  -8  -2   99.29   11.20
  -1   8  -2  147.59   22.30
  -1   8  -2   93.89   11.00
   1   8   2   91.49   11.20
  -2  -8  -2  147.79   14.20
   2  -8   2  157.78   15.20
  -2  -8  -2  172.08   15.90
  -2  -8  -2  127.69   12.60
  -2   8  -2  203.28   24.50
   2   8   2  175.68   13.90
   2   8   2  148.79   14.60
  -2   8  -2  164.08   14.70
  -3  -8  -2   46.90    9.50
   3  -8   2   42.30   10.60
  -3  -8  -2   62.69   11.40
  -3   8  -2   42.50    9.20
   3   8   2   51.19   11.20
   3   8   2   55.79   10.30
  -1  -9   2   64.19   10.40
   1  -9  -2   77.09   12.70
   1   9  -2   96.89   18.90
   0  -9  -2   70.79   13.00
   0  -9   2   72.69   10.70
  -1   9  -2   62.89   19.00
   7   0  -3   28.50   10.40
  -7   0   3   25.60    7.30
  -7   0   3   27.90   10.70
   6   0  -3   -2.50    0.90
  -6   0   3    2.10    5.00
  -6   0   3   -1.90    9.80
   5   0  -3  140.79   10.70
   5   0  -3  134.59   12.30
   5   0  -3  146.19   11.20
   5   0  -3  139.69   10.50
  -5   0   3  135.59   19.90
   5   0  -3  161.48   21.10
  -5   0   3  143.09   10.70
  -5   0   3  145.59   10.00
  -5   0   3  145.69   10.90
   5   0  -3  137.99   10.90
   4   0  -3   24.40    4.60
   4   0  -3   29.10    4.30
   4   0  -3   21.50    4.70
  -4   0   3   29.70    4.60
  -4   0   3   18.40    8.50
   4   0  -3   29.50    4.50
  -4   0   3   23.60    3.70
   4   0  -3   25.60    4.40
   3   0  -3  616.94   30.90
   3   0  -3  679.73   31.10
   3   0  -3  574.04   39.10
   3   0  -3  619.34   32.40
  -3   0   3  633.84   32.10
   3   0  -3  620.44   32.30
   3   0  -3  646.34   32.90
   3   0  -3  609.14   32.70
  -3   0   3  633.34   32.60
   2   0  -3   91.19   11.00
  -2   0   3  110.39    6.40
   2   0  -3  108.09    6.60
  -2   0   3  110.69    6.90
   2   0  -3  105.99    6.50
   2   0  -3  103.89    6.90
   2   0  -3  110.39    7.10
   2   0  -3  109.59    6.60
  -2   0   3  109.99    6.50
   2   0  -3  116.49    6.30
   2   0  -3  113.19    6.10
  -1   0   3   29.00    2.20
   1   0  -3   31.60    3.10
  -1   0   3   26.50    2.70
  -1   0   3   30.50    2.70
   1   0  -3   28.80    2.90
   1   0  -3   29.00    5.10
  -1   0   3   29.10    2.50
  -1   0   3   28.60    2.40
   1   0  -3   27.10    3.10
   0   0   3   23.00    2.60
   0   0  -3   21.80    2.60
   0   0  -3   19.60    2.40
   0   0  -3   28.10    3.40
   0   0  -3   22.30    3.00
   0   0   3   20.10    2.30
   0   0   3   15.50    2.50
   0   0   3   19.60    2.30
   0   0  -3   17.20    3.80
   0   0   3   22.20    2.90
   1   0   3  979.70   50.29
   1   0   3 1006.50   49.90
  -1   0  -3 1007.40   50.19
   1   0   3  993.90   50.09
  -1   0  -3 1037.20   49.70
   1   0   3  976.30   50.39
  -1   0  -3 1031.90   50.39
  -1   0  -3  960.20   50.19
  -2   0  -3  110.29    6.90
   2   0   3  112.89    7.30
   2   0   3  111.49    7.70
   2   0   3  108.99    7.80
  -2   0  -3  118.59    7.00
   2   0   3  113.19    7.50
   2   0   3  119.59    8.40
   2   0   3  114.39    7.10
   3   0   3   59.99    5.10
   3   0   3   57.49    6.10
  -3   0  -3   60.99    5.10
   3   0   3   56.69    6.90
   3   0   3   59.59    5.30
   3   0   3   59.39    5.60
  -3   0  -3   65.89    5.40
   3   0   3   55.89    5.60
   4   0   3  685.63   34.90
   4   0   3  634.64   36.60
  -4   0  -3  678.23   36.90
   4   0   3  625.74   34.80
   4   0   3  624.34   35.10
  -4   0  -3  670.43   34.40
   4   0   3  657.13   36.00
   5   0   3   44.30    7.60
  -5   0  -3   39.50    9.10
   5   0   3   31.30    8.20
   5   0   3   50.39    8.50
   6   0   3   82.39   11.40
  -6   0  -3  101.19   14.70
   6   0   3   90.49   14.10
   7   0   3    4.20    9.00
  -7   0  -3    2.00   10.10
   7   0   3    7.40    7.70
   7  -1  -3  139.09   15.90
   7  -1  -3  130.29   12.80
  -7   1   3  134.69   12.80
   6  -1  -3  182.98   16.20
   6  -1  -3  185.28   14.60
  -6  -1   3  167.48   24.20
  -6  -1   3  197.28   13.50
  -6  -1   3  170.08   15.60
  -6  -1   3  187.88   14.20
  -6  -1   3  182.98   13.90
  -6   1   3  183.38   22.40
   6   1  -3  161.78   13.80
   6   1  -3  174.78   14.60
  -6   1   3  197.68   14.80
   6   1  -3  179.38   13.40
  -5  -1   3   43.10    6.20
  -5  -1   3   48.00    6.60
  -5  -1   3   49.30    8.50
   5  -1  -3   44.30    4.30
   5  -1  -3   42.50    7.70
   5  -1  -3   46.10    7.40
   5   1  -3   50.89    7.50
  -5   1   3   57.49    8.50
   5   1  -3   79.19   14.00
   5   1  -3   44.60    8.00
   5   1  -3   58.99    7.00
  -5   1   3   60.59    7.90
  -5   1   3   53.09   13.80
   4  -1  -3   69.69    6.90
  -4  -1   3   77.19    6.60
   4  -1  -3   73.99    6.20
  -4  -1   3   77.49    8.10
   4  -1  -3   72.89    5.80
   4  -1  -3   75.09    5.20
   4  -1  -3   74.99    5.10
   4  -1  -3   74.29    6.70
  -4  -1   3   71.09    6.80
   4   1  -3   85.59   13.00
  -4   1   3   77.49    7.00
   4   1  -3   69.09    6.70
  -4   1   3   75.19   12.80
   4   1  -3   77.19    7.70
  -4   1   3   79.89    6.40
   4   1  -3   71.79    6.70
   3  -1  -3 1409.46   73.59
  -3  -1   3 1487.45   74.49
   3  -1  -3 1454.15   73.79
   3  -1  -3 1431.56   74.79
  -3  -1   3 1504.05   74.69
   3  -1  -3 1483.15   73.69
   3  -1  -3 1427.26   80.99
   3   1  -3 1528.35   74.99
   3   1  -3 1535.85   73.29
   3   1  -3 1529.05   75.39
   3   1  -3 1495.25   72.99
   3   1  -3 1353.56   81.79
   3   1  -3 1523.55   74.89
  -3   1   3 1559.64   73.79
  -3   1   3 1547.35   81.49
  -3   1   3 1561.34   74.49
  -2  -1   3  299.67   16.90
   2  -1  -3  299.47   16.90
   2  -1  -3  299.57   17.10
   2  -1  -3  286.67   16.20
   2  -1  -3  296.67   16.50
   2  -1  -3  318.37   16.70
  -2  -1   3  303.07   16.90
   2  -1  -3  291.77   21.10
  -2  -1   3  307.07   16.80
  -2   1   3  345.87   16.20
   2   1  -3  319.37   17.10
  -2   1   3  338.77   21.70
   2   1  -3  328.97   17.60
  -2   1   3  339.47   16.20
  -2   1   3  313.87   16.40
  -2   1   3  344.97   17.10
   2   1  -3  322.77   16.80
   2   1  -3  332.27   16.30
   2   1  -3  317.07   22.40
   2   1  -3  330.37   17.20
  -1  -1   3 1674.83   79.29
   1  -1  -3 1634.14   79.49
   1  -1  -3 1668.83   83.19
   1  -1  -3 1647.34   79.59
  -1  -1   3 1630.54   79.69
   1  -1  -3 1578.84   79.39
   1  -1  -3 1616.14   79.59
  -1  -1   3 1632.54   79.49
  -1  -1   3 1692.73   79.49
  -1  -1   3 1606.14   79.59
  -1   1   3 1642.24   79.59
   1   1  -3 1529.75   83.09
   1   1  -3 1580.54   79.39
   1   1  -3 1566.24   79.79
   1   1  -3 1684.53   79.69
   1   1  -3 1540.55   79.79
  -1   1   3 1608.24   82.89
  -1   1   3 1384.56   79.69
  -1   1   3 1629.94   79.49
   0  -1   3  587.44   29.90
   0  -1  -3  572.54   29.90
   0  -1   3  614.94   29.90
   0  -1   3  548.35   29.80
   0  -1   3  611.84   29.80
   0  -1   3  607.64   29.50
   0  -1   3  613.34   29.30
   0  -1  -3  605.74   30.00
   0  -1  -3  592.54   29.20
   0   1   3  576.64   29.30
   0   1   3  563.74   29.90
   0   1   3  562.94   31.30
   0   1  -3  616.54   30.00
   0   1   3  594.74   29.90
   0   1  -3  564.54   29.80
   0   1  -3  600.14   30.00
   0   1   3  562.14   29.40
   0   1  -3  533.05   31.10
   0   1   3  585.14   29.90
   1  -1   3  310.77   15.50
   1  -1   3  268.27   16.40
  -1  -1  -3  294.87   16.40
   1  -1   3  310.77   16.50
  -1  -1  -3  276.97   15.80
   1  -1   3  283.57   16.20
  -1  -1  -3  272.57   16.60
   1  -1   3  303.17   16.20
   1  -1   3  298.77   16.10
   1   1   3  315.47   16.50
   1   1   3  293.57   16.00
  -1   1  -3  303.37   16.40
   1   1   3  318.47   16.20
   1   1   3  292.47   16.50
  -1   1  -3  308.77   16.00
   1   1   3  295.17   16.10
  -1   1  -3  311.17   16.20
   1   1   3  315.97   16.20
  -1   1  -3  289.07   16.40
  -2  -1  -3  592.94   28.60
   2  -1   3  544.75   30.20
  -2  -1  -3  551.84   30.70
  -2  -1  -3  577.24   29.20
   2  -1   3  621.84   30.20
   2  -1   3  536.25   29.40
   2  -1   3  587.54   28.80
   2   1   3  557.34   30.80
  -2   1  -3  577.04   29.30
   2   1   3  547.75   29.90
   2   1   3  551.04   30.00
  -2   1  -3  577.34   29.60
  -2   1  -3  560.74   29.90
   2   1   3  567.14   30.50
   2   1   3  579.44   29.40
   2   1   3  560.04   29.80
   3  -1   3 1512.15   74.09
   3  -1   3 1422.86   72.59
   3  -1   3 1548.45   72.19
   3  -1   3 1628.34   73.59
   3  -1   3 1460.15   73.79
  -3  -1  -3 1522.15   71.99
  -3  -1  -3 1477.35   74.49
   3  -1   3 1223.68   72.59
   3   1   3 1377.06   73.59
   3   1   3 1426.46   74.59
   3   1   3 1428.56   73.29
  -3   1  -3 1480.15   72.89
  -3   1  -3 1422.56   71.69
   3   1   3 1461.25   72.49
   3   1   3 1454.45   73.29
  -3   1  -3 1406.96   73.79
   3   1   3 1412.96   74.59
   3   1   3 1397.66   72.99
   4  -1   3  193.28   12.90
   4  -1   3  192.98   14.10
   4  -1   3  180.08   14.30
  -4  -1  -3  198.88   13.40
   4  -1   3  186.98   12.90
  -4  -1  -3  192.38   15.40
   4   1   3  203.98   12.30
   4   1   3  199.38   13.90
   4   1   3  191.88   13.60
   4   1   3  207.08   13.50
   4   1   3  206.98   15.30
  -4   1  -3  208.28   13.00
   5  -1   3   23.10    5.70
   5  -1   3   17.40    7.20
   5  -1   3   20.90    6.50
  -5  -1  -3   19.10    8.20
   5   1   3   19.00    7.80
   5   1   3   20.70    7.10
  -5   1  -3   27.30    5.70
   5   1   3   17.40    5.00
   5   1   3   35.70    7.40
   6  -1   3  128.69   13.80
   6  -1   3  101.69   13.90
  -6  -1  -3   92.59   14.10
   6   1   3  104.39   12.20
   6   1   3   95.09   12.80
   6   1   3   80.89   13.40
   7  -1   3  111.49   13.20
  -7  -1  -3   89.79   14.90
   7  -1   3   89.49   14.80
  -7   1  -3   97.89   15.70
   7   1   3   82.39   12.70
   7   1   3  112.89   12.00
   7   1   3   86.39   14.50
  -7  -2   3   46.30    9.10
  -7  -2   3   35.50    7.20
  -7  -2   3   36.90    7.00
   7  -2  -3   36.40    9.90
   7   2  -3   30.80    7.60
   7   2  -3   49.80    9.80
  -7   2   3   51.69   10.00
   6  -2  -3   25.80    8.20
   6  -2  -3   31.50    8.00
  -6  -2   3   27.60    6.90
  -6  -2   3   24.70    5.80
  -6  -2   3   14.90    7.50
   6   2  -3   26.30    7.60
   6   2  -3   24.50    6.70
   6   2  -3   20.70    7.30
  -6   2   3   13.10   13.50
  -6   2   3   27.30    7.70
   6   2  -3   18.80    8.90
   5  -2  -3  357.56   21.70
  -5  -2   3  344.97   20.20
  -5  -2   3  327.77   19.50
   5  -2  -3  329.57   18.00
  -5  -2   3  304.97   20.80
   5  -2  -3  333.37   20.00
  -5   2   3  310.67   19.70
   5   2  -3  305.77   20.50
  -5   2   3  299.47   28.70
   5   2  -3  299.67   20.40
   5   2  -3  273.97   20.50
   5   2  -3  314.77   20.10
   5   2  -3  319.57   16.60
   5   2  -3  314.67   18.80
   4  -2  -3  202.18   13.30
  -4  -2   3  202.38   12.30
   4  -2  -3  192.08   12.60
   4  -2  -3  210.28   11.50
  -4  -2   3  206.48   12.80
  -4  -2   3  187.68   12.90
   4   2  -3  177.28   12.40
   4   2  -3  178.18   10.30
   4   2  -3  177.48   10.20
   4   2  -3  154.98   12.70
  -4   2   3  180.18   11.20
  -4   2   3  180.78   12.40
   4   2  -3  169.18   20.70
   4   2  -3  177.88   11.60
   4   2  -3  179.68   13.40
  -4   2   3  178.98   19.00
   4   2  -3  178.98   12.90
   3  -2  -3  555.54   30.00
   3  -2  -3  554.04   30.70
  -3  -2   3  571.34   30.70
  -3  -2   3  546.75   30.40
   3  -2  -3  559.74   30.90
  -3  -2   3  551.64   30.50
   3  -2  -3  550.94   30.00
   3   2  -3  591.54   31.50
   3   2  -3  582.64   38.50
  -3   2   3  616.34   28.80
   3   2  -3  566.14   30.80
  -3   2   3  596.64   37.00
   3   2  -3  603.64   31.20
   3   2  -3  593.14   30.30
  -3   2   3  613.84   30.90
   3   2  -3  570.44   29.40
   3   2  -3  585.24   29.40
  -3   2   3  588.74   30.20
   2  -2  -3  129.29    8.70
  -2  -2   3  135.39    7.40
   2  -2  -3  125.99    8.30
  -2  -2   3  126.99    8.40
  -2  -2   3  134.29    7.80
  -2  -2   3  128.59    8.50
   2  -2  -3  124.69    8.50
   2  -2  -3  131.09    8.30
  -2   2   3  130.19   12.60
   2   2  -3  130.39   13.40
   2   2  -3  135.09    8.00
  -2   2   3  134.99    8.40
   2   2  -3  147.09    8.70
   2   2  -3  131.39    8.60
  -2   2   3  134.79    8.10
  -2   2   3  122.49    8.30
   2   2  -3  129.39    8.00
   2   2  -3  139.39    9.10
   1  -2  -3  294.67   15.70
  -1  -2   3  285.37   15.80
   1  -2  -3  285.87   16.20
   1  -2  -3  274.97   16.10
  -1  -2   3  276.67   15.80
   1  -2  -3  289.67   16.00
  -1  -2   3  285.07   15.80
  -1  -2   3  297.67   15.10
  -1  -2   3  304.97   16.10
   1   2  -3  265.37   16.30
   1   2  -3  307.97   16.30
  -1   2   3  306.97   16.10
  -1   2   3  301.77   16.10
   1   2  -3  302.77   16.00
   1   2  -3  290.67   19.50
   1   2  -3  305.27   16.10
  -1   2   3  320.67   16.10
  -1   2   3  291.17   19.30
   0  -2   3 1240.28   57.59
   0  -2   3 1147.79   57.69
   0  -2   3 1149.78   57.89
   0  -2  -3 1140.49   57.89
   0  -2  -3 1015.70   57.69
   0  -2   3 1189.58   57.89
   0  -2  -3 1261.07   57.99
   0  -2  -3 1221.88   56.89
   0  -2   3 1213.78   57.19
   0  -2   3 1225.08   57.09
   0   2  -3 1103.29   57.79
   0   2   3 1152.78   57.19
   0   2  -3 1170.98   57.89
   0   2  -3 1029.90   60.09
   0   2   3 1129.39   57.89
   0   2  -3 1119.69   57.89
   0   2   3 1134.59   57.09
   0   2   3 1099.19   57.69
   0   2   3 1168.68   57.89
   0   2  -3 1107.59   57.29
  -1  -2  -3 1101.19   60.49
  -1  -2  -3 1070.99   60.29
   1  -2   3 1129.59   60.69
   1  -2   3 1203.88   61.09
   1  -2   3 1091.29   60.49
  -1  -2  -3 1229.88   61.09
   1  -2   3 1221.08   60.39
   1  -2   3 1133.99   60.59
   1  -2   3 1353.06   59.79
   1   2   3 1278.07   60.69
   1   2   3 1187.68   62.89
   1   2   3 1254.67   60.49
  -1   2  -3 1262.57   60.79
   1   2   3 1234.48   60.59
  -1   2  -3 1206.08   62.69
  -1   2  -3 1303.27   60.79
   1   2   3 1201.48   60.79
   1   2   3 1235.28   60.69
  -2  -2  -3    2.50    2.00
   2  -2   3    3.60    2.50
   2  -2   3    3.60    2.60
  -2  -2  -3    3.90    3.80
   2  -2   3    5.90    2.20
   2  -2   3    3.60    2.10
   2  -2   3    3.50    1.90
   2   2   3    4.40    2.30
  -2   2  -3    4.20    2.10
   2   2   3    4.20    2.70
   2   2   3    5.00    2.20
   2   2   3    3.10    2.10
   2   2   3    3.00    2.20
  -2   2  -3    5.70    2.70
   3  -2   3  127.89    8.90
   3  -2   3  133.89   10.10
  -3  -2  -3  120.29   11.30
   3  -2   3  135.19    9.50
   3  -2   3  132.79   10.20
   3  -2   3  128.39   10.30
  -3   2  -3  133.09   10.40
   3   2   3  120.99    9.50
   3   2   3  130.39    8.70
  -3   2  -3  134.99    9.40
   3   2   3  116.49    9.70
   3   2   3  129.99    9.00
   3   2   3  126.09    9.50
   4  -2   3  424.76   26.70
   4  -2   3  445.56   25.60
   4  -2   3  429.76   26.40
   4  -2   3  437.06   25.10
  -4  -2  -3  400.46   27.50
   4   2   3  497.05   26.70
  -4   2  -3  485.45   25.80
   4   2   3  477.05   26.90
   4   2   3  479.75   26.60
   4   2   3  453.05   24.70
   4   2   3  460.75   28.20
  -5  -2  -3  229.18   19.20
   5  -2   3  240.38   18.20
   5   2   3  229.38   17.20
   5   2   3  231.88   19.40
   5   2   3  235.48   18.10
  -5   2  -3  241.18   16.30
   6  -2   3   67.49   11.90
  -6  -2  -3   62.49   12.60
   6   2   3   70.99   12.10
  -6   2  -3   59.29    8.80
   6   2   3   71.19   10.60
   6   2   3   59.19   12.30
   7  -2   3   10.10    9.50
  -7  -2  -3   14.90   12.10
   7   2   3    6.80    8.60
   7   2   3    8.60    7.70
  -7  -3   3  105.99   12.50
   7  -3  -3   98.49   14.50
  -7  -3   3  113.09   14.30
   7   3  -3   98.99   13.10
   7   3  -3  131.29   15.40
   7   3  -3  100.19   13.80
  -7   3   3  116.69   14.00
  -6  -3   3  125.79   11.80
   6  -3  -3  147.99   16.20
  -6  -3   3  131.59   13.50
   6   3  -3  128.09   12.90
   6   3  -3  134.29   14.40
   6   3  -3  118.19   13.50
  -6   3   3  129.99   13.60
  -5  -3   3   55.49    8.80
   5  -3  -3   57.79    8.70
  -5  -3   3   55.39    8.00
   5  -3  -3   58.19    9.20
  -5  -3   3   50.69    7.90
   5   3  -3   71.59    6.40
   5   3  -3   83.19    9.70
  -5   3   3   64.39    8.40
   5   3  -3   58.79    8.70
   5   3  -3   95.09   11.30
   4  -3  -3    4.60    4.70
  -4  -3   3   -0.70    3.50
   4  -3  -3    2.00    3.80
  -4  -3   3   -1.20    3.60
   4  -3  -3    0.20    2.60
  -4  -3   3   -1.20    3.00
   4   3  -3   -0.10    3.40
   4   3  -3    0.50    2.20
   4   3  -3   -1.50    3.30
   4   3  -3   -0.50    4.00
  -4   3   3    0.70    3.70
  -4   3   3    9.10    7.10
   4   3  -3    1.90    2.50
   4   3  -3   -2.30    8.30
   3  -3  -3  183.38   12.80
  -3  -3   3  189.18   12.60
  -3  -3   3  186.18   11.90
   3  -3  -3  189.48   12.40
  -3  -3   3  187.08   12.70
   3  -3  -3  205.18   13.10
   3   3  -3  201.08   11.90
   3   3  -3  192.18   11.70
   3   3  -3  206.48   20.70
   3   3  -3  197.38   13.40
   3   3  -3  206.28   13.30
  -3   3   3  191.18   11.40
   3   3  -3  201.28   13.10
  -3   3   3  210.58   18.00
  -3   3   3  199.88   12.70
   3   3  -3  198.08   11.90
  -2  -3   3  470.55   26.20
  -2  -3   3  471.65   25.30
  -2  -3   3  469.25   25.20
   2  -3  -3  517.95   24.90
   2  -3  -3  477.25   26.00
   2  -3  -3  444.46   26.10
   2  -3  -3  449.66   26.10
   2  -3  -3  467.45   26.20
  -2  -3   3  467.85   26.00
   2   3  -3  493.55   26.00
   2   3  -3  504.75   26.20
   2   3  -3  513.35   26.50
  -2   3   3  492.55   26.00
   2   3  -3  484.35   32.20
   2   3  -3  497.95   25.90
  -2   3   3  488.65   25.90
  -2   3   3  487.45   31.40
  -2   3   3  533.85   25.60
   2   3  -3  492.75   26.80
  -1  -3   3  940.91   48.20
  -1  -3   3  959.80   48.40
  -1  -3   3  960.80   47.50
   1  -3  -3  966.50   48.60
   1  -3  -3  958.60   47.90
   1  -3  -3  969.90   48.80
  -1  -3   3  917.11   48.30
   1  -3  -3  907.61   48.70
   1  -3  -3 1011.70   47.20
  -1   3   3  930.61   47.90
   1   3  -3  957.30   48.50
  -1   3   3  909.51   52.99
  -1   3   3  961.00   46.90
  -1   3   3  965.80   48.70
   1   3  -3  997.20   48.70
   1   3  -3  865.91   52.89
   0  -3   3   27.70    3.90
   0  -3   3   24.80    3.70
   0  -3  -3   22.80    3.00
   0  -3  -3   27.60    4.10
   0  -3  -3   26.00    4.10
   0   3   3   32.00    3.10
   0   3  -3   34.10    6.10
   0   3  -3   29.70    3.50
   0   3   3   34.30    4.30
   0   3   3   31.60    3.80
   0   3  -3   30.20    4.00
   0   3  -3   27.90    4.00
   0   3   3   33.30    2.80
   0   3   3   32.40    4.10
   0   3   3   34.30    3.40
   0   3  -3   41.50    5.00
   0   3   3   37.10    6.00
  -1  -3  -3  745.93   35.80
   1  -3   3  685.03   35.30
   1  -3   3  740.53   33.60
   1  -3   3  746.23   34.90
   1  -3   3  651.13   35.10
   1  -3   3  729.93   35.60
   1  -3   3  703.83   34.80
  -1  -3  -3  632.24   34.90
   1   3   3  609.54   38.30
   1   3   3  655.03   34.70
   1   3   3  657.03   34.90
  -1   3  -3  655.73   35.20
  -1   3  -3  614.04   34.80
   1   3   3  665.53   35.10
   1   3   3  641.54   35.10
   1   3   3  630.74   35.10
  -1   3  -3  620.24   38.00
   2  -3   3  747.23   41.70
   2  -3   3  810.72   41.40
  -2  -3  -3  823.92   41.00
   2  -3   3  837.62   41.60
   2  -3   3  751.92   40.80
  -2  -3  -3  806.52   42.20
   2  -3   3  789.12   41.20
   2   3   3  748.13   41.00
  -2   3  -3  751.92   44.10
   2   3   3  824.02   41.10
   2   3   3  772.92   41.20
   2   3   3  761.12   45.10
  -2   3  -3  795.92   41.10
   2   3   3  780.92   41.40
   2   3   3  795.72   41.70
  -2   3  -3  821.12   41.40
   3  -3   3  806.32   42.30
  -3  -3  -3  787.12   43.80
   3  -3   3  843.42   41.50
   3  -3   3  795.92   42.70
   3   3   3  784.12   42.80
   3   3   3  814.02   42.90
   3   3   3  787.72   46.60
  -3   3  -3  799.62   42.20
   3   3   3  761.92   42.30
   3   3   3  783.42   41.60
   4  -3   3  191.38   14.70
   4  -3   3  165.58   14.70
  -4  -3  -3  175.38   17.20
   4   3   3  199.18   15.00
   4   3   3  210.78   13.10
   4   3   3  211.78   14.70
   4   3   3  230.48   15.60
  -4   3  -3  222.68   14.70
  -5  -3  -3    8.10    9.50
   5  -3   3   13.30    7.00
   5   3   3   14.40    6.30
  -5   3  -3   18.90    7.00
   5   3   3   10.40    6.60
   5   3   3    5.80    5.30
   6  -3   3  170.38   17.70
  -6  -3  -3  164.08   20.20
   6   3   3  177.68   15.30
   6   3   3  161.48   16.50
   6   3   3  157.78   15.30
  -6   3  -3  164.28   14.20
  -7  -4   3   15.40    7.00
   7  -4  -3   16.10    9.60
  -7  -4   3   12.20    8.80
  -7   4   3   12.60    8.80
   7   4  -3   19.20    8.60
   7   4  -3    9.60    9.00
   7   4  -3   14.90    8.60
  -5  -4   3  323.97   21.70
  -5  -4   3  346.07   23.00
   5  -4  -3  319.77   23.30
  -5   4   3  345.27   22.50
   5   4  -3  364.06   24.00
   5   4  -3  366.76   24.40
   5   4  -3  335.97   36.40
  -5   4   3  398.76   31.10
   5   4  -3  336.77   22.60
  -4  -4   3  318.97   19.80
   4  -4  -3  319.17   20.20
  -4  -4   3  302.37   18.90
   4  -4  -3  333.37   19.10
  -4  -4   3  321.87   18.60
   4   4  -3  270.27   19.80
   4   4  -3  298.47   30.80
   4   4  -3  287.47   17.60
   4   4  -3  283.67   19.20
  -4   4   3  291.57   19.10
   4   4  -3  290.37   20.00
  -4   4   3  300.77   26.10
  -3  -4   3   51.99    6.10
  -3  -4   3   64.39    7.60
   3  -4  -3   57.29    6.70
   3  -4  -3   60.69    7.50
  -3  -4   3   60.29    5.90
   3  -4  -3   57.79    7.10
   3   4  -3   46.50    5.90
  -3   4   3   50.99   12.00
  -3   4   3   45.80    6.30
   3   4  -3   34.10    6.50
   3   4  -3   45.70    5.60
   3   4  -3   36.50    6.20
   2  -4  -3   30.10    5.10
  -2  -4   3   38.10    5.40
  -2  -4   3   30.40    5.10
  -2  -4   3   29.80    4.70
   2  -4  -3   22.20    4.20
  -2  -4   3   31.20    4.10
  -2   4   3   35.70    4.90
  -2   4   3   29.90    9.30
   2   4  -3   33.30    5.40
  -2   4   3   22.10    4.50
   2   4  -3   24.90    4.50
   2   4  -3   36.60    9.20
  -2   4   3   33.10    3.60
   2   4  -3   38.60    5.50
   2   4  -3   28.30    5.40
   1  -4  -3  265.27   13.10
   1  -4  -3  261.47   15.60
  -1  -4   3  247.98   14.80
  -1  -4   3  250.57   14.50
   1  -4  -3  257.87   15.20
   1  -4  -3  256.27   13.50
  -1  -4   3  236.78   14.80
  -1  -4   3  252.77   13.90
   1  -4  -3  241.88   15.00
   1   4  -3  234.48   14.90
  -1   4   3  235.98   14.00
  -1   4   3  240.78   19.60
  -1   4   3  235.38   14.10
   1   4  -3  223.78   14.60
  -1   4   3  246.58   13.10
   1   4  -3  241.98   15.30
   1   4  -3  230.58   19.90
  -1   4   3  246.78   15.10
   0  -4  -3  241.18   13.80
   0  -4   3  239.88   13.40
   0  -4  -3  237.58   12.50
   0  -4   3  245.68   12.80
   0  -4   3  249.38   12.80
   0  -4  -3  244.18   14.10
   0  -4   3  256.67   14.00
   0   4  -3  192.38   12.40
   0   4   3  191.38   12.10
   0   4   3  181.88   13.00
   0   4   3  196.88   11.80
   0   4   3  191.38   12.80
   0   4  -3  200.58   13.10
   0   4  -3  177.08   16.70
   0   4   3  203.38   13.50
   0   4  -3  205.58   13.80
   0   4  -3  194.98   13.10
   0   4   3  193.78   17.10
   1  -4   3  356.46   20.60
   1  -4   3  370.06   21.10
   1  -4   3  374.36   20.20
   1  -4   3  390.46   20.00
  -1  -4  -3  335.67   20.50
  -1  -4  -3  372.76   21.20
  -1   4  -3  347.87   20.40
   1   4   3  340.27   20.00
   1   4   3  351.26   20.80
  -1   4  -3  373.86   18.90
  -1   4  -3  360.16   20.90
   1   4   3  338.07   25.00
   1   4   3  369.56   20.80
   1   4   3  349.07   20.30
  -1   4  -3  334.27   24.60
   1   4   3  381.36   18.70
   2  -4   3    2.00    0.80
   2  -4   3    3.70    2.50
   2  -4   3    4.80    3.00
   2  -4   3    7.00    3.40
  -2  -4  -3    3.60    4.70
  -2  -4  -3    4.50    2.90
   2   4   3    4.10    3.30
   2   4   3    9.20    4.90
   2   4   3    4.00    3.60
  -2   4  -3    8.20    4.90
  -2   4  -3    4.50    3.10
   2   4   3    8.20    3.60
   2   4   3    6.90    3.10
  -3  -4  -3    7.50    6.30
   3  -4   3    9.30    4.30
   3  -4   3    1.90    4.10
   3  -4   3   12.60    4.30
   3   4   3    7.10    4.40
  -3   4  -3   22.80    6.90
   3   4   3   13.60    5.10
  -3   4  -3   11.40    4.30
   3   4   3   14.80    3.90
   3   4   3   11.60    4.50
  -4  -4  -3   70.59   11.00
   4  -4   3   93.79   10.30
   4  -4   3   87.09    8.80
  -4   4  -3   52.29    8.10
   4   4   3   45.80    8.00
   4   4   3   55.19    8.40
   4   4   3   63.49    9.60
  -5  -4  -3  177.88   18.30
   5  -4   3  203.58   17.40
  -5   4  -3  178.28   15.40
   5   4   3  194.28   16.20
   5   4   3  168.18   16.00
   5   4   3  187.58   15.60
  -6  -4  -3   46.30   13.60
   6  -4   3   40.60   11.70
   6   4   3   64.69   11.60
   6   4   3   60.39   12.30
  -6   4  -3   51.19    9.60
   6   4   3   51.79   11.30
  -6  -5   3   95.39   12.50
   6  -5  -3  117.29   15.80
  -6  -5   3  101.09   13.30
   6   5  -3   89.19   13.10
   6   5  -3  117.19   15.80
   6   5  -3  132.99   15.80
  -6   5   3   83.69   12.00
  -5  -5   3  102.89   13.00
  -5  -5   3   90.59   10.70
   5  -5  -3   91.69   12.70
   5   5  -3   99.09   11.70
   5   5  -3  133.19   30.90
  -5   5   3  102.79   24.30
  -5   5   3  100.49   11.20
   5   5  -3  108.29   13.20
  -4  -5   3   14.50    6.30
  -4  -5   3   10.90    5.10
   4  -5  -3    7.00    5.90
   4   5  -3    6.00    5.20
   4   5  -3   17.20   16.10
  -4   5   3   -1.50   11.00
  -4   5   3   11.60    5.60
   4   5  -3   11.20    6.80
  -3  -5   3  261.87   15.50
   3  -5  -3  246.88   16.80
  -3  -5   3  254.17   16.30
  -3  -5   3  258.57   16.80
   3  -5  -3  262.37   17.20
   3   5  -3  227.68   17.30
  -3   5   3  238.88   23.20
  -3   5   3  237.28   16.20
   3   5  -3  237.88   16.10
   3   5  -3  233.58   16.50
   3   5  -3  254.97   25.30
  -2  -5   3  339.57   21.60
   2  -5  -3  350.26   22.40
  -2  -5   3  358.66   22.10
  -2  -5   3  348.97   21.00
   2  -5  -3  355.66   22.60
  -2   5   3  403.86   29.50
   2   5  -3  311.07   21.70
  -2   5   3  428.86   21.40
   2   5  -3  400.76   22.50
   2   5  -3  435.16   22.90
   2   5  -3  395.06   30.40
   2   5  -3  396.06   22.70
  -2   5   3  392.26   21.80
  -1  -5   3  464.75   25.50
  -1  -5   3  452.25   25.90
   1  -5  -3  445.46   26.60
  -1  -5   3  444.76   25.10
   1  -5  -3  445.26   24.50
   1  -5  -3  451.25   26.30
  -1   5   3  489.85   27.30
  -1   5   3  472.45   25.20
   1   5  -3  454.05   25.90
   1   5  -3  495.85   26.80
   1   5  -3  447.86   32.90
  -1   5   3  478.85   25.30
   1   5  -3  466.55   25.90
   0  -5   3    2.80    2.70
   0  -5  -3    3.70    3.20
   0  -5   3    7.10    3.00
   0  -5  -3    4.50    2.70
   0  -5   3    2.10    3.10
   0  -5  -3    6.60    3.90
   0  -5   3    6.60    2.90
   0   5   3    4.50    3.20
   0   5  -3    4.10    4.00
   0   5   3   12.40    6.30
   0   5   3    6.50    3.60
   0   5   3    6.40    2.20
   0   5  -3    5.20    2.90
   0   5  -3   10.90    6.20
   0   5  -3    4.80    3.20
  -1  -5  -3   82.69    8.70
   1  -5   3   74.89    7.60
   1  -5   3   77.49    6.50
  -1  -5  -3   58.99    6.80
   1  -5   3   84.09    8.30
   1   5   3   80.39    7.40
  -1   5  -3   78.19    7.50
   1   5   3   92.99   12.80
   1   5   3   81.29    7.20
   1   5   3   80.39    8.00
  -1   5  -3   76.49   12.00
   1   5   3   80.89    7.70
  -2  -5  -3  279.17   18.50
   2  -5   3  274.37   18.90
   2  -5   3  278.67   18.50
  -2  -5  -3  304.97   19.70
   2  -5   3  284.17   19.00
   2  -5   3  281.97   20.10
  -2   5  -3  321.67   19.10
   2   5   3  311.87   18.80
   2   5   3  291.27   19.00
   2   5   3  320.17   18.80
  -2   5  -3  332.87   25.20
   2   5   3  311.07   19.10
  -3  -5  -3  505.95   30.30
   3  -5   3  507.75   30.20
   3  -5   3  519.05   30.20
  -3  -5  -3  520.55   31.20
   3   5   3  518.45   29.90
   3   5   3  507.45   30.60
   3   5   3  525.45   30.70
   3   5   3  505.85   29.30
  -3   5  -3  514.15   30.00
  -3   5  -3  503.35   35.40
   3   5   3  573.24   38.20
  -4  -5  -3   15.70    6.60
   4  -5   3   19.80    6.90
   4  -5   3   22.00    7.00
  -4  -5  -3   23.00    9.30
  -4   5  -3   28.50    7.30
   4   5   3   18.10    6.70
   4   5   3   26.20    8.10
   5  -5   3    7.50    7.60
  -5  -5  -3    9.30    7.80
  -5  -5  -3    9.00    9.80
   5   5   3    5.70    7.10
  -5   5  -3    7.60    6.30
   5   5   3   16.00    8.60
   5   5   3   10.40    7.60
  -6  -5  -3  125.59   17.60
  -6  -5  -3  101.89   15.50
   6  -5   3   89.39   14.70
   6   5   3  149.69   17.60
   6   5   3  146.09   16.50
  -6   5  -3  132.99   14.90
   6   5   3  142.29   15.80
   5  -6  -3   70.29   12.20
  -5  -6   3   66.09   10.30
  -5  -6   3   80.89   12.60
   5   6  -3   64.49   10.80
  -5   6   3   88.99   12.00
   5   6  -3   55.69   11.50
  -4  -6   3  314.27   21.40
   4  -6  -3  286.07   21.80
  -4  -6   3  279.57   20.60
   4   6  -3  306.17   21.50
   4   6  -3  316.67   22.80
  -4   6   3  334.87   30.20
  -4   6   3  299.77   20.70
  -3  -6   3  173.88   13.40
  -3  -6   3  193.48   14.50
   3  -6  -3  189.48   15.00
   3  -6  -3  174.18   13.90
   3   6  -3  174.28   23.30
   3   6  -3  145.59   13.20
  -3   6   3  181.18   21.00
  -3   6   3  138.89   12.40
   3   6  -3  147.69   14.40
  -2  -6   3   37.50    6.70
  -2  -6   3   33.50    6.60
   2  -6  -3   19.20    5.10
   2  -6  -3   26.20    6.50
  -2  -6   3   32.70    5.60
  -2   6   3   31.50    5.50
   2   6  -3   25.00    5.90
  -2   6   3   11.80    8.40
   2   6  -3   33.40    6.80
   2   6  -3   35.80   12.00
  -1  -6   3  318.27   20.10
   1  -6  -3  326.87   20.50
  -1  -6   3  316.17   19.10
  -1  -6   3  312.47   19.10
   1   6  -3  310.67   27.90
  -1   6   3  329.87   19.10
   1   6  -3  305.17   19.80
  -1   6   3  314.17   18.70
   1   6  -3  328.47   19.80
   1   6  -3  334.17   20.90
  -1   6   3  321.17   26.90
   0  -6  -3  213.98   16.00
   0  -6  -3  210.78   14.40
   0  -6   3  196.68   14.90
   0  -6   3  205.48   14.90
   0  -6   3  216.48   14.40
   0   6  -3  244.88   23.10
   0   6   3  250.47   23.20
   0   6  -3  244.68   14.80
   0   6   3  255.37   15.70
   0   6  -3  257.07   18.10
   0   6   3  271.37   15.20
  -1  -6  -3  347.47   21.30
  -1  -6  -3  332.87   20.10
   1  -6   3  329.87   20.20
   1  -6   3  342.47   19.30
  -1   6  -3  285.07   26.40
   1   6   3  344.67   20.90
   1   6   3  337.77   19.80
  -1   6  -3  323.87   20.30
   1   6   3  323.07   20.80
   2  -6   3   28.30    6.20
  -2  -6  -3   24.60    6.20
   2  -6   3   22.70    6.10
  -2  -6  -3   37.20    7.90
   2  -6   3   29.20    6.20
  -2   6  -3   18.30    5.60
   2   6   3   22.10    5.70
  -2   6  -3   26.60    9.90
   2   6   3   39.10   12.30
   2   6   3   22.30    5.30
   2   6   3   21.90    6.40
   2   6   3   20.10    5.90
  -3  -6  -3   63.19   10.80
   3  -6   3   60.09    9.20
  -3  -6  -3   45.90    8.40
   3  -6   3   52.89    8.70
   3   6   3   63.89    9.40
   3   6   3   82.89   10.00
  -3   6  -3   52.99    8.50
   3   6   3   69.99   10.20
  -4  -6  -3  157.08   15.00
   4  -6   3  153.08   15.00
  -4  -6  -3  162.08   16.70
   4   6   3  134.79   14.30
  -4   6  -3  130.59   13.20
   4   6   3  132.19   13.20
   4   6   3  137.29   15.30
  -5  -6  -3   54.79   12.30
  -5  -6  -3   61.39   14.10
   5  -6   3   62.39   11.80
   5   6   3   78.99   13.10
   5   6   3   85.59   12.90
   5   6   3   81.79   13.60
  -5   6  -3   77.09   12.20
   5  -7  -3   41.40   12.00
  -5  -7   3   46.60   11.50
  -5  -7   3   41.20   10.30
   5   7  -3   41.30   10.80
   5   7  -3   60.69   12.00
  -5   7   3   24.80    7.90
   4  -7  -3   23.70    8.90
  -4  -7   3   26.20    9.00
  -4   7   3   56.59   17.10
   3  -7  -3  334.17   24.00
  -3  -7   3  353.36   22.80
  -3  -7   3  345.47   23.30
   3   7  -3  365.16   35.00
   3   7  -3  337.77   23.50
  -3   7   3  301.77   21.50
  -3   7   3  374.36   33.50
  -2  -7   3  134.19   12.90
  -2  -7   3  130.29   11.70
   2  -7  -3  140.69   13.70
  -2   7   3  165.88   21.80
   2   7  -3  132.19   13.10
   2   7  -3  154.98   22.40
  -1  -7   3   79.99    9.20
  -1  -7   3   80.09    9.70
   1  -7  -3  109.89   12.50
  -1   7   3   96.89   17.90
   1   7  -3   90.29   18.40
   1   7  -3   79.79    9.90
   1   7  -3   61.59    8.70
   0  -7   3    6.90    5.00
   0  -7   3    5.90    3.70
   0  -7  -3   15.20    6.70
   0  -7   3   10.00    4.60
   0   7   3    8.80    4.60
   0   7  -3   20.10   10.70
   0   7  -3    1.00    3.00
   0   7   3   26.00   11.00
  -1  -7  -3   73.09   10.40
  -1  -7  -3   80.89    8.20
   1  -7   3   74.59    9.40
  -1  -7  -3   58.59    8.20
   1   7   3   68.69    9.40
   1   7   3   72.29    7.80
  -1   7  -3  115.89   18.60
  -1   7  -3   82.09    9.90
   2  -7   3  182.88   14.70
  -2  -7  -3  179.78   14.90
  -2  -7  -3  179.68   16.90
   2   7   3  198.78   23.80
  -2   7  -3  168.98   21.40
  -2   7  -3  144.39   13.60
   2   7   3  157.78   14.90
   2   7   3  155.78   13.40
   3  -7   3  146.99   14.60
  -3  -7  -3  143.69   13.20
  -3  -7  -3  149.39   15.20
  -3  -7  -3  136.29   15.90
  -3   7  -3  147.99   13.80
   3   7   3  172.38   16.10
   3   7   3  152.58   13.40
   3   7   3  159.78   15.20
  -4  -7  -3   48.80   12.00
   4  -7   3   37.00    9.50
  -4  -7  -3   30.10    8.00
  -4  -7  -3   29.50    9.50
   4   7   3   47.10   11.30
   4   7   3   34.60    8.60
  -4   7  -3   36.90    9.40
   4   7   3   40.80    9.70
  -3  -8   3  240.78   18.30
   3  -8  -3  240.58   20.30
  -3  -8   3  227.98   19.00
  -3   8   3  245.08   29.30
   3   8  -3  190.68   18.80
  -3   8   3  185.48   16.60
   3   8  -3  293.77   31.80
   2  -8  -3   12.40    8.30
  -2  -8   3    6.10    5.20
  -2  -8   3   15.40    7.60
   2   8  -3   42.30   17.40
  -2   8   3   13.40    5.20
   2   8  -3   11.00    6.80
  -2   8   3   45.60   17.30
  -1  -8   3   70.49   11.20
   1  -8  -3   62.79   11.70
   1   8  -3   69.69   20.50
  -1   8   3  100.69   20.20
   0  -8   3   56.39    8.80
   0  -8  -3   82.59   12.20
   0  -8   3   78.79    9.80
   0   8   3  115.49   21.10
   0   8  -3   72.89   10.00
   1  -8   3  139.89   14.10
   1  -8   3  146.99   13.40
  -1  -8  -3  145.79   15.20
   1   8   3  124.29   13.10
   1   8   3  195.78   25.30
  -1   8  -3  114.69   13.10
   2  -8   3   27.00    7.70
  -2  -8  -3   29.20    7.20
  -2  -8  -3   34.00    7.60
  -2  -8  -3   33.30    9.70
   2   8   3   28.70    6.80
   2   8   3   25.10    8.70
  -2   8  -3   31.50    8.60
  -2  -9   3   75.09   12.10
   2  -9  -3   86.49   14.10
  -1  -9   3   52.39   10.10
   1  -9  -3   56.39   11.70
   0   9  -3   55.59   18.50
  -2  -9  -3   79.69   13.10
   2  -9   3   85.19   12.60
   2   9   3   96.49   13.80
  -2   9  -3   85.29   12.40
  -7   0   4   10.40    6.70
   6   0  -4  222.68   16.20
  -6   0   4  220.98   27.80
  -6   0   4  225.88   16.10
   6   0  -4  220.48   18.00
  -5   0   4  502.95   27.00
   5   0  -4  490.05   27.60
   5   0  -4  444.56   24.10
   5   0  -4  462.45   27.10
  -5   0   4  473.45   26.00
  -5   0   4  475.65   26.40
   5   0  -4  476.15   26.50
   5   0  -4  468.35   26.80
   5   0  -4  506.25   38.00
  -5   0   4  489.45   37.60
   5   0  -4  481.95   24.10
   5   0  -4  479.25   28.00
  -4   0   4  315.37   27.00
  -4   0   4  342.17   19.20
   4   0  -4  342.17   19.60
   4   0  -4  353.56   17.10
   4   0  -4  335.17   19.70
  -4   0   4  333.27   18.40
  -4   0   4  339.77   18.50
   4   0  -4  332.17   18.70
   4   0  -4  325.97   19.30
   4   0  -4  322.47   17.30
   4   0  -4  331.67   18.80
   4   0  -4  299.87   27.50
  -3   0   4   25.60    3.10
   3   0  -4   24.30    3.60
  -3   0   4   24.00    3.10
   3   0  -4   21.00    3.80
   3   0  -4   20.00    2.70
   3   0  -4   13.90    7.90
   3   0  -4   22.00    3.20
   3   0  -4   18.30    3.60
   3   0  -4   19.40    2.40
  -3   0   4   24.80    3.80
   3   0  -4   18.60    2.90
  -2   0   4  624.34   32.70
   2   0  -4  637.34   32.10
  -2   0   4  652.33   31.50
  -2   0   4  635.84   31.50
  -2   0   4  653.03   32.00
  -2   0   4  655.03   32.20
   2   0  -4  609.54   32.70
   2   0  -4  635.34   33.00
   2   0  -4  585.74   38.20
   2   0  -4  633.24   32.10
   2   0  -4  661.43   32.50
  -1   0   4 9851.81  472.15
   1   0  -4 9629.44  472.25
  -1   0   4 9999.00  474.85
   1   0  -4 9513.15  471.85
   1   0  -4 9084.19  473.25
  -1   0   4 9720.73  474.15
  -1   0   4 9810.92  472.05
   1   0  -4 9474.95  469.45
  -1   0   4 9415.06  473.25
   0   0  -4 1079.59   58.09
   0   0   4 1166.98   56.69
   0   0  -4 1152.48   57.09
   0   0  -4 1120.89   56.49
   0   0   4 1047.60   56.39
   0   0   4 1147.69   56.79
   0   0   4 1121.09   56.99
   0   0  -4 1110.19   56.09
   0   0   4 1188.78   57.09
   0   0  -4 1158.88   57.09
   1   0   4   89.99    6.30
   1   0   4   98.49    6.20
  -1   0  -4   89.99    6.80
   1   0   4   92.69    6.60
  -1   0  -4   92.29    6.70
   1   0   4   84.09    6.80
   1   0   4   91.29    6.70
  -1   0  -4   86.49    6.60
  -1   0  -4  104.19    6.10
   1   0   4   91.49    6.80
   2   0   4 2450.85  121.39
   2   0   4 2471.05  121.89
   2   0   4 2338.97  122.09
   2   0   4 2480.15  122.39
  -2   0  -4 2516.35  122.59
  -2   0  -4 2493.15  121.19
  -2   0  -4 2444.56  121.39
  -3   0  -4  760.42   38.80
  -3   0  -4  766.82   38.10
   3   0   4  765.92   40.40
   3   0   4  722.33   39.50
   3   0   4  753.32   39.80
   3   0   4  762.12   39.10
  -3   0  -4  744.13   40.60
  -4   0  -4   36.80    5.00
   4   0   4   24.50    6.60
   4   0   4   30.10    5.00
  -4   0  -4   34.70    7.50
   4   0   4   36.10    6.30
   4   0   4   35.80    5.20
   4   0   4   34.30    5.70
  -5   0  -4  125.99   14.30
   5   0   4  128.79   12.70
   5   0   4  134.69   12.00
   5   0   4  136.69   14.20
   6   0   4   51.59    9.90
   6   0   4   57.59   11.70
  -6   0  -4   50.19   11.60
   7   0   4   39.00   11.60
   7   0   4   45.30   10.40
  -7   0  -4   57.99   13.40
   7  -1  -4  104.49   12.60
  -7   1   4  116.99   12.70
  -6  -1   4   12.00   13.00
  -6  -1   4   11.10    7.50
  -6  -1   4   13.30    5.60
  -6  -1   4   15.10    4.70
   6  -1  -4    8.90    6.60
  -6  -1   4   16.90    5.50
   6   1  -4   15.20    5.30
   6   1  -4   18.90    5.80
   6   1  -4   17.00    6.40
  -6   1   4   21.50    7.00
  -6   1   4   19.30   13.20
   6   1  -4   21.70    6.30
   6   1  -4   23.70    9.20
   5  -1  -4    3.00    2.00
  -5  -1   4    5.60    3.50
   5  -1  -4    5.00    5.00
  -5  -1   4    5.20    4.40
  -5  -1   4    6.80    3.90
   5  -1  -4    4.60    4.50
  -5  -1   4    1.30    5.00
   5  -1  -4   12.50   11.50
  -5   1   4   -4.80    4.00
   5   1  -4   -0.40    4.40
   5   1  -4    1.50    4.10
  -5   1   4    1.30    9.80
   5   1  -4   10.60   12.50
   5   1  -4    2.60    3.00
  -5   1   4    2.80    3.10
   5   1  -4    0.00    3.90
   5   1  -4   -0.10    3.60
  -4  -1   4  493.45   25.20
   4  -1  -4  486.85   25.80
   4  -1  -4  481.85   34.40
  -4  -1   4  487.55   25.60
   4  -1  -4  478.05   24.40
  -4  -1   4  477.55   25.00
   4  -1  -4  479.85   25.90
   4  -1  -4  471.35   23.80
   4  -1  -4  473.55   23.80
   4  -1  -4  483.25   24.40
  -4   1   4  438.36   23.90
  -4   1   4  433.76   24.80
  -4   1   4  449.36   33.40
   4   1  -4  414.16   25.50
   4   1  -4  436.26   25.80
   4   1  -4  388.36   34.00
   4   1  -4  432.66   23.00
   4   1  -4  422.36   25.20
  -3  -1   4  555.94   28.30
   3  -1  -4  548.55   28.00
   3  -1  -4  536.25   27.10
   3  -1  -4  547.55   26.90
   3  -1  -4  549.35   35.30
  -3  -1   4  548.75   27.70
  -3  -1   4  550.44   27.70
   3  -1  -4  562.04   27.20
   3  -1  -4  546.15   28.20
   3   1  -4  497.45   26.90
   3   1  -4  534.85   28.60
  -3   1   4  510.85   34.50
  -3   1   4  507.25   27.70
   3   1  -4  483.95   27.70
  -3   1   4  508.45   26.70
   3   1  -4  500.35   27.80
   3   1  -4  490.15   27.60
   3   1  -4  509.35   26.50
   3   1  -4  495.75   35.50
   2  -1  -4  441.16   28.80
  -2  -1   4  432.66   23.40
   2  -1  -4  457.85   23.10
   2  -1  -4  440.56   23.30
  -2  -1   4  450.25   23.00
   2  -1  -4  475.85   23.00
   2  -1  -4  470.65   23.20
  -2  -1   4  440.86   22.00
  -2  -1   4  458.65   22.50
  -2  -1   4  412.56   22.20
  -2  -1   4  427.36   23.00
  -2   1   4  459.25   28.70
   2   1  -4  391.16   28.60
  -2   1   4  462.25   23.40
   2   1  -4  432.06   22.60
   2   1  -4  437.86   23.70
  -2   1   4  427.96   22.80
   2   1  -4  402.96   22.40
  -2   1   4  447.86   22.30
   2   1  -4  419.56   23.30
  -1  -1   4  257.77   13.80
   1  -1  -4  263.47   17.90
   1  -1  -4  255.97   14.10
  -1  -1   4  234.98   14.10
  -1  -1   4  251.97   13.70
  -1  -1   4  263.77   13.80
   1  -1  -4  250.37   14.20
   1  -1  -4  253.97   13.80
  -1  -1   4  253.27   13.90
   1  -1  -4  260.47   13.60
  -1   1   4  260.27   17.40
   1   1  -4  243.78   14.30
   1   1  -4  254.67   17.90
  -1   1   4  246.48   13.40
   1   1  -4  244.28   13.90
  -1   1   4  236.78   14.30
   1   1  -4  262.67   14.20
   1   1  -4  259.77   14.40
  -1   1   4  255.27   13.90
  -1   1   4  270.97   14.20
   0  -1   4  737.23   34.40
   0  -1   4  666.73   34.70
   0  -1   4  745.53   35.00
   0  -1   4  761.62   33.90
   0  -1  -4  703.73   34.90
   0  -1  -4  737.73   34.00
   0  -1   4  731.83   34.70
   0  -1   4  751.82   34.80
   0  -1  -4  691.63   34.80
   0   1   4  626.64   34.60
   0   1   4  638.14   34.00
   0   1   4  663.93   34.20
   0   1  -4  626.64   34.70
   0   1   4  612.14   36.10
   0   1  -4  591.44   36.10
   0   1   4  653.03   34.70
   0   1  -4  623.54   34.60
   0   1  -4  643.44   34.80
   0   1   4  640.24   34.70
   1  -1   4  992.40   50.49
   1  -1   4 1070.79   50.59
  -1  -1  -4  982.30   49.90
   1  -1   4  959.20   49.99
   1  -1   4  913.91   50.09
  -1  -1  -4  926.71   50.19
  -1  -1  -4  987.70   50.39
   1  -1   4 1042.70   49.90
  -1  -1  -4 1029.10   49.10
   1  -1   4  996.20   49.50
  -1   1  -4  923.61   49.99
  -1   1  -4  972.70   50.29
   1   1   4  985.30   49.80
  -1   1  -4 1043.40   49.90
   1   1   4  947.61   50.19
   1   1   4  976.40   49.90
   1   1   4 1012.50   50.09
   1   1   4  980.30   49.99
   1   1   4  990.90   50.49
  -1   1  -4 1011.60   50.09
  -2  -1  -4 1286.47   60.79
  -2  -1  -4 1145.99   61.59
   2  -1   4 1193.78   61.89
   2  -1   4 1232.48   60.99
   2  -1   4 1203.28   62.59
   2  -1   4 1291.17   62.59
   2  -1   4 1223.98   62.29
  -2  -1  -4 1176.48   62.79
   2  -1   4 1232.88   62.09
  -2   1  -4 1245.88   61.69
   2   1   4 1206.08   61.99
  -2   1  -4 1248.78   61.69
   2   1   4 1194.48   63.09
   2   1   4 1205.08   62.29
   2   1   4 1286.07   61.99
   3  -1   4   40.80    6.00
  -3  -1  -4   44.90    7.40
  -3  -1  -4   45.00    4.00
   3  -1   4   44.60    5.80
   3  -1   4   46.70    6.40
   3  -1   4   50.09    5.00
  -3  -1  -4   46.80    4.10
   3  -1   4   48.70    4.10
   3   1   4   44.00    7.00
   3   1   4   46.80    6.40
  -3   1  -4   43.50    3.90
   3   1   4   44.20    5.10
   3   1   4   43.70    5.70
  -3   1  -4   41.30    5.10
   3   1   4   47.50    6.10
   4  -1   4   50.29    7.40
  -4  -1  -4   39.80    7.80
   4  -1   4   40.10    7.30
   4  -1   4   47.50    6.20
   4   1   4   29.30    4.70
   4   1   4   39.20    7.80
  -4   1  -4   46.30    6.20
   4   1   4   30.10    5.30
   4   1   4   33.70    6.30
   4   1   4   34.40    6.10
  -5  -1  -4  352.86   25.50
   5  -1   4  396.16   23.30
   5  -1   4  368.56   25.00
   5  -1   4  406.16   24.60
  -5   1  -4  376.06   22.30
   5   1   4  391.36   24.90
   5   1   4  345.87   25.50
   5   1   4  374.16   23.60
   6  -1   4  210.68   18.80
  -6  -1  -4  194.98   19.80
   6  -1   4  261.77   22.10
  -6   1  -4  214.78   20.10
   6   1   4  224.98   17.40
   6   1   4  217.58   20.40
   6   1   4  237.38   19.70
  -7  -1  -4   40.80   12.80
   7  -1   4   45.90   10.00
   7  -1   4   37.00   11.60
   7   1   4   34.20   10.00
  -7   1  -4   45.50   12.80
   7   1   4   44.00    9.40
   7   1   4   27.90   11.10
  -7  -2   4   50.39    9.10
   7  -2  -4   51.39    9.90
  -7  -2   4   37.70    7.00
   7  -2  -4   40.70   10.10
  -7  -2   4   54.89    9.70
  -7   2   4   44.20    9.60
   7   2  -4   24.40    5.80
   6  -2  -4  119.49   14.70
  -6  -2   4  102.89   11.30
  -6  -2   4  110.79   10.60
  -6  -2   4  100.79   12.20
   6  -2  -4  112.09   12.50
   6   2  -4  100.09   10.90
  -6   2   4  117.29   23.70
   6   2  -4  137.69   13.60
   6   2  -4  136.89   12.40
  -6   2   4  144.19   12.90
  -5  -2   4  151.68   12.50
   5  -2  -4  169.28   14.40
   5  -2  -4  148.19   10.70
  -5  -2   4  157.68   11.90
   5  -2  -4  154.28   13.30
  -5  -2   4  126.29   14.40
   5   2  -4  162.78   13.50
  -5   2   4  196.18   13.70
   5   2  -4  196.08   12.50
   5   2  -4  187.08    9.90
   5   2  -4  163.58   24.80
   5   2  -4  184.08   13.10
   5   2  -4  188.88   14.10
   5   2  -4  196.58   13.90
  -5   2   4  189.48   23.80
   4  -2  -4  173.78   11.60
   4  -2  -4  185.98   12.30
  -4  -2   4  164.78   10.80
   4  -2  -4  166.38   10.00
  -4  -2   4  177.78   11.40
   4   2  -4  144.99    8.90
   4   2  -4  142.19   11.70
   4   2  -4  134.89   10.80
   4   2  -4  147.39    9.10
   4   2  -4  158.88   11.60
  -4   2   4  147.89   11.00
   4   2  -4  142.09   10.90
   4   2  -4  136.09   19.50
  -4   2   4  151.08   18.30
   4   2  -4  148.39   10.60
   3  -2  -4    4.80    2.20
  -3  -2   4    6.40    2.70
  -3  -2   4    4.40    2.80
   3  -2  -4    5.50    1.00
   3  -2  -4    5.10    3.30
  -3  -2   4    4.60    2.30
   3  -2  -4    5.90    2.10
   3  -2  -4    4.10    2.70
   3   2  -4    7.70    2.20
  -3   2   4    5.90    2.60
  -3   2   4    6.50    2.70
   3   2  -4    4.90    2.80
  -3   2   4    5.70    6.50
   3   2  -4    7.00    2.00
  -3   2   4    4.40    1.40
   3   2  -4    9.60    2.90
   3   2  -4    3.40    3.20
   3   2  -4   10.40    3.10
   3   2  -4    9.70    7.20
  -2  -2   4   78.49    6.40
  -2  -2   4   81.09    5.20
   2  -2  -4   81.69    6.40
  -2  -2   4   77.39    5.40
   2  -2  -4   79.69    6.30
   2  -2  -4   76.79    6.10
   2  -2  -4   84.39    6.70
  -2  -2   4   79.59    6.20
   2   2  -4   96.19   11.80
   2   2  -4  113.39    7.50
  -2   2   4  108.39   11.70
   2   2  -4  105.49    6.80
  -1  -2   4 1115.89   55.39
  -1  -2   4 1066.59   55.19
   1  -2  -4 1085.69   55.29
   1  -2  -4 1085.89   54.89
   1  -2  -4 1102.49   55.59
  -1  -2   4 1080.89   55.19
  -1  -2   4 1076.29   55.19
   1  -2  -4 1002.10   55.39
  -1  -2   4 1132.59   55.29
  -1   2   4 1138.69   55.49
  -1   2   4 1161.68   55.59
   1   2  -4 1129.19   55.39
  -1   2   4 1093.19   59.59
  -1   2   4 1134.59   55.49
   1   2  -4 1089.29   55.49
   1   2  -4 1059.49   59.59
  -1   2   4 1149.19   54.19
   1   2  -4 1074.19   55.99
   1   2  -4 1071.69   55.39
   0  -2  -4  133.39    9.50
   0  -2   4  144.39    8.90
   0  -2   4  144.09    8.70
   0  -2   4  135.29    9.40
   0  -2   4  147.09    9.30
   0  -2   4  132.09    9.40
   0  -2   4  140.59    9.60
   0  -2  -4  136.99    9.60
   0  -2  -4  142.19    8.60
   0  -2  -4  138.29    9.80
   0   2   4  189.08    9.20
   0   2   4  181.78   10.10
   0   2  -4  190.78    9.60
   0   2  -4  177.88   10.10
   0   2  -4  181.68   12.50
   0   2   4  186.88    9.10
   0   2  -4  190.58   10.20
   1  -2   4   32.80    3.70
   1  -2   4   37.60    5.00
   1  -2   4   34.40    4.20
  -1  -2  -4   28.60    4.60
   1  -2   4   30.90    2.80
   1  -2   4   28.70    3.70
  -1  -2  -4   33.00    4.30
   1  -2   4   31.70    3.70
   1   2   4   27.20    3.40
   1   2   4   27.90    3.80
   1   2   4   31.50    4.50
   1   2   4   28.50    3.90
   1   2   4   27.10    3.30
  -1   2  -4   27.60    4.10
  -1   2  -4   21.80    3.60
  -1   2  -4   30.60    4.70
   1   2   4   24.30    3.70
   2  -2   4  193.58   12.80
   2  -2   4  199.18   13.30
  -2  -2  -4  194.58   12.90
   2  -2   4  204.68   13.10
  -2  -2  -4  200.98   14.70
   2  -2   4  201.08   13.00
   2  -2   4  213.38   11.30
   2  -2   4  175.78   13.40
  -2   2  -4  229.28   13.10
  -2   2  -4  219.08   14.10
   2   2   4  237.58   13.50
   2   2   4  229.78   13.10
  -2   2  -4  219.28   13.00
   2   2   4  219.38   13.30
   2   2   4  226.58   13.50
   2   2   4  225.28   13.20
   2   2   4  242.08   14.80
  -3  -2  -4  356.26   19.10
   3  -2   4  363.86   21.00
   3  -2   4  380.86   20.70
   3  -2   4  362.96   21.30
   3  -2   4  371.06   20.10
   3   2   4  336.97   19.60
  -3   2  -4  340.07   20.00
   3   2   4  336.37   20.90
   3   2   4  314.07   20.10
   3   2   4  317.87   20.30
  -4  -2  -4    9.60    6.70
   4  -2   4   12.40    4.20
   4  -2   4    5.60    3.50
   4  -2   4   10.90    5.30
   4  -2   4   14.20    5.30
  -4   2  -4   12.30    4.50
   4   2   4   13.30    6.70
   4   2   4   14.50    4.90
   4   2   4   14.90    5.00
   4   2   4   10.60    3.30
   4   2   4    8.70    4.70
   5  -2   4   99.19   12.40
  -5  -2  -4  121.89   14.50
   5  -2   4  104.79   12.40
   5  -2   4  109.59   10.20
   5   2   4   98.09   12.50
   5   2   4   82.39   13.00
   5   2   4  111.29   11.30
  -5   2  -4  103.59   10.30
   5   2   4  101.59   10.30
  -6  -2  -4   33.20   11.20
   6  -2   4   22.20    9.30
   6  -2   4   31.10    8.30
   6   2   4   25.70    8.90
   6   2   4   18.90   10.10
  -6   2  -4   31.50    7.30
   6   2   4   34.80   10.10
  -7  -3   4   65.09   11.30
  -7  -3   4   58.89    9.60
  -7  -3   4   53.99   10.00
   7  -3  -4   59.29   11.90
   7   3  -4   82.79   12.30
  -7   3   4   54.39   10.40
   7   3  -4   42.20   10.30
  -6  -3   4   72.59   10.00
   6  -3  -4   63.09   11.30
  -6  -3   4   68.79    8.90
   6  -3  -4   68.99   10.40
   6   3  -4   42.10    9.30
   6   3  -4   63.39   10.20
  -6   3   4   56.19    9.30
   6   3  -4   43.00    8.50
   5  -3  -4   12.30    6.20
  -5  -3   4   15.70    5.70
   5  -3  -4   12.50    5.90
  -5  -3   4   10.50    4.50
   5   3  -4    7.10    5.80
   5   3  -4   12.40   14.90
  -5   3   4   20.50   10.80
  -5   3   4    5.20    4.80
   5   3  -4   11.90    5.50
   5   3  -4   12.10    6.70
  -4  -3   4  382.76   22.10
   4  -3  -4  393.16   23.00
   4  -3  -4  393.26   22.60
  -4  -3   4  385.96   22.50
  -4  -3   4  385.06   21.50
   4  -3  -4  380.36   21.50
   4   3  -4  375.96   22.90
   4   3  -4  366.96   22.50
   4   3  -4  360.06   20.50
  -4   3   4  380.66   29.90
   4   3  -4  362.26   23.10
   4   3  -4  355.66   21.20
  -4   3   4  376.76   22.30
   4   3  -4  369.46   33.10
   3  -3  -4  649.24   35.40
   3  -3  -4  651.83   35.10
  -3  -3   4  655.23   35.20
  -3  -3   4  646.44   34.00
   3  -3  -4  658.43   35.00
  -3  -3   4  663.03   35.10
   3   3  -4  668.53   35.50
  -3   3   4  677.83   42.30
   3   3  -4  627.34   43.90
   3   3  -4  655.33   34.30
   3   3  -4  678.33   34.90
  -3   3   4  677.03   34.60
   3   3  -4  670.23   36.00
   3   3  -4  649.93   34.30
  -3   3   4  644.54   35.00
  -2  -3   4  263.77   15.90
   2  -3  -4  270.87   16.30
  -2  -3   4  300.87   16.50
  -2  -3   4  279.77   14.90
   2  -3  -4  282.57   16.40
   2  -3  -4  281.07   16.00
   2  -3  -4  257.67   16.20
  -2   3   4  294.37   15.90
   2   3  -4  284.57   16.20
   2   3  -4  266.27   16.60
  -2   3   4  265.67   15.90
  -2   3   4  286.47   21.50
   2   3  -4  273.57   16.50
   2   3  -4  282.07   16.00
  -2   3   4  278.77   15.90
  -1  -3   4   45.30    4.40
   1  -3  -4   32.90    4.40
  -1  -3   4   41.50    3.30
  -1  -3   4   40.30    4.10
   1  -3  -4   32.70    4.00
   1  -3  -4   38.10    4.60
  -1  -3   4   41.60    4.40
   1  -3  -4   38.50    5.00
   1  -3  -4   35.40    2.70
   1   3  -4   26.70    4.50
  -1   3   4   34.70    4.10
  -1   3   4   35.10    4.50
  -1   3   4   35.80    7.30
   1   3  -4   45.30    7.90
   1   3  -4   45.50    5.60
   1   3  -4   38.20    4.50
  -1   3   4   32.90    3.60
  -1   3   4   35.60    2.70
   0  -3   4  194.38   12.60
   0  -3  -4  192.18   12.40
   0  -3  -4  200.28   11.10
   0  -3   4  201.78   11.50
   0  -3   4  201.88   12.50
   0  -3  -4  199.08   12.70
   0  -3   4  205.98   11.60
   0  -3   4  187.28   11.90
   0  -3  -4  194.78   12.70
   0   3   4  212.08   11.60
   0   3  -4  214.48   13.10
   0   3  -4  213.68   12.70
   0   3  -4  211.88   12.80
   0   3   4  206.98   11.10
   0   3   4  216.58   11.70
   0   3   4  219.78   12.80
   0   3  -4  209.78   11.90
   0   3   4  201.38   12.40
   0   3  -4  194.58   15.70
   0   3   4  203.68   15.80
   0   3   4  219.88   12.90
  -1  -3  -4  590.44   32.80
   1  -3   4  619.04   33.20
   1  -3   4  596.44   33.20
   1  -3   4  557.74   32.70
  -1  -3  -4  604.44   33.30
   1  -3   4  609.04   32.70
   1  -3   4  597.44   32.30
  -1   3  -4  646.04   33.00
   1   3   4  657.43   33.20
  -1   3  -4  641.44   33.20
   1   3   4  665.83   32.80
   1   3   4  636.34   33.10
   1   3   4  655.73   33.10
   1   3   4  609.84   36.40
  -1   3  -4  592.84   35.80
   1   3   4  639.04   32.50
  -2  -3  -4  213.38   15.30
   2  -3   4  220.98   14.20
   2  -3   4  226.78   14.50
   2  -3   4  189.48   13.60
  -2  -3  -4  210.08   13.70
   2  -3   4  216.38   13.90
   2  -3   4  203.68   14.60
   2   3   4  239.88   17.30
   2   3   4  236.78   14.10
   2   3   4  240.88   14.40
  -2   3  -4  239.68   14.20
   2   3   4  232.88   14.50
  -2   3  -4  247.98   14.50
   2   3   4  237.88   14.20
   2   3   4  224.38   14.10
  -2   3  -4  234.98   16.50
   3  -3   4  428.16   25.20
   3  -3   4  439.56   24.30
   3  -3   4  381.86   25.20
  -3  -3  -4  445.46   26.80
   3  -3   4  447.96   25.10
   3   3   4  506.55   28.10
  -3   3  -4  415.86   24.60
   3   3   4  421.36   24.30
  -3   3  -4  459.45   26.90
   3   3   4  415.56   25.20
   3   3   4  406.66   25.20
   3   3   4  417.96   24.90
  -4  -3  -4  149.59   15.20
   4  -3   4  159.88   11.30
   4  -3   4  142.59   13.00
   4  -3   4  162.48   12.20
   4  -3   4  156.18   13.30
   4   3   4  155.58   12.90
  -4   3  -4  156.88   12.10
   4   3   4  147.99   11.00
   4   3   4  151.38   13.50
   4   3   4  155.48   13.00
  -5  -3  -4  178.28   18.30
   5  -3   4  173.68   16.30
   5   3   4  187.18   15.90
  -5   3  -4  187.08   15.00
   5   3   4  197.88   16.10
   5   3   4  201.78   17.00
   6  -3   4   53.79   11.70
  -6  -3  -4   80.99   14.70
   6  -3   4   53.59    9.90
   6   3   4  115.69   14.20
  -6   3  -4   69.69    9.60
   6   3   4  103.99   13.10
   6   3   4   77.79   12.30
  -7  -4   4   18.90    7.40
  -7  -4   4   16.00    8.70
   7  -4  -4   17.40    9.30
   7   4  -4   23.30    9.30
   7   4  -4   11.40    8.40
   7   4  -4   20.40    9.60
  -7   4   4   10.80    8.20
  -6  -4   4   87.79   12.20
   6  -4  -4   79.19   12.90
   6   4  -4   89.59   13.10
  -6   4   4   96.79   12.00
   6   4  -4  101.09   13.80
   6   4  -4   79.39   11.50
   5  -4  -4  128.79   13.80
  -5  -4   4  133.49   13.30
   5  -4  -4  134.59   12.80
  -5  -4   4  130.59   11.80
   5   4  -4  157.38   14.40
  -5   4   4  145.19   12.50
   5   4  -4  153.28   13.20
   5   4  -4  169.78   27.80
   4  -4  -4  173.78   14.10
  -4  -4   4  178.38   13.00
   4  -4  -4  190.38   13.10
   4  -4  -4  181.08   13.50
  -4  -4   4  197.48   14.20
   4   4  -4  170.38   13.00
  -4   4   4  177.88   13.20
   4   4  -4  164.68   13.40
   4   4  -4  160.38   14.20
  -4   4   4  199.18   20.80
   4   4  -4  180.38   25.30
   4   4  -4  171.08   14.40
   3  -4  -4    4.70    4.00
  -3  -4   4    7.90    2.90
  -3  -4   4    7.50    3.90
   3  -4  -4    6.60    4.40
   3  -4  -4    5.40    3.40
  -3  -4   4    6.50    3.80
   3   4  -4   10.10    3.70
   3   4  -4    8.10    4.30
   3   4  -4    4.70    5.00
  -3   4   4    6.50    3.50
   3   4  -4   12.60    8.00
  -3   4   4   17.10    8.00
   3   4  -4    8.10    3.50
   2  -4  -4  283.77   17.70
   2  -4  -4  266.77   16.90
  -2  -4   4  278.67   17.00
  -2  -4   4  279.67   15.90
  -2  -4   4  266.87   17.10
   2  -4  -4  263.37   17.30
   2   4  -4  304.87   24.40
  -2   4   4  317.07   16.50
  -2   4   4  312.97   17.00
   2   4  -4  320.17   17.70
  -2   4   4  290.97   23.80
   2   4  -4  311.67   18.10
   2   4  -4  238.58   17.10
  -1  -4   4  440.46   24.60
  -1  -4   4  439.46   24.20
   1  -4  -4  442.16   24.80
  -1  -4   4  453.65   24.60
   1  -4  -4  463.45   23.00
   1  -4  -4  462.65   23.80
   1  -4  -4  455.05   25.20
  -1  -4   4  449.16   23.40
   1   4  -4  425.36   30.30
   1   4  -4  449.36   25.10
  -1   4   4  449.86   22.80
  -1   4   4  411.26   24.00
  -1   4   4  434.86   24.80
  -1   4   4  443.06   23.70
  -1   4   4  437.46   30.10
   1   4  -4  418.76   24.40
   0  -4   4  302.87   18.90
   0  -4  -4  271.87   18.70
   0  -4  -4  287.47   18.80
   0  -4   4  287.87   17.60
   0  -4  -4  282.87   17.40
   0  -4   4  297.47   18.50
   0   4   4  340.27   18.80
   0   4   4  346.37   17.30
   0   4  -4  349.57   19.10
   0   4  -4  333.17   19.40
   0   4   4  334.37   18.90
   0   4   4  342.97   18.00
   0   4   4  349.96   19.20
   0   4   4  327.67   23.80
   0   4  -4  350.56   18.10
   0   4   4  344.67   17.70
   0   4  -4  329.07   23.70
  -1  -4  -4   26.70    5.60
   1  -4   4   26.40    4.90
  -1  -4  -4   20.70    3.90
   1  -4   4   28.30    4.40
   1  -4   4   15.40    3.80
   1  -4   4   25.50    4.10
  -1   4  -4   19.70    4.20
  -1   4  -4   28.10    5.30
   1   4   4   32.30    5.30
   1   4   4   24.30    4.50
   1   4   4   31.50    5.30
  -1   4  -4   23.00    3.00
   1   4   4   28.90    4.60
  -1   4  -4   36.60    7.40
   1   4   4   28.90    4.40
   2  -4   4  133.19   10.20
   2  -4   4  151.38   11.30
   2  -4   4  132.19   11.20
   2  -4   4  152.58   10.80
  -2  -4  -4  146.09   12.60
   2   4   4  153.78   11.00
  -2   4  -4  155.98   14.30
  -2   4  -4  151.18   10.90
   2   4   4  142.69   14.60
   2   4   4  153.48   11.30
   2   4   4  144.99   10.80
   2   4   4  151.88   11.00
   3  -4   4  553.74   33.80
   3  -4   4  573.94   32.90
   3  -4   4  595.74   34.10
  -3  -4  -4  565.34   35.00
   3   4   4  627.94   33.50
   3   4   4  629.14   34.10
   3   4   4  580.94   34.30
  -3   4  -4  613.74   33.80
   3   4   4  624.94   34.40
   3   4   4  714.83   39.90
  -3   4  -4  602.74   37.60
   4  -4   4  100.39   11.60
  -4  -4  -4  116.69   14.70
   4  -4   4  122.39   12.60
   4   4   4  140.79   12.70
   4   4   4  145.19   12.60
  -4   4  -4  142.49   11.80
   4   4   4  143.49   13.20
  -5  -4  -4   52.99   12.40
   5  -4   4   46.70    9.90
   5  -4   4   51.49    9.20
   5   4   4   49.40   10.10
  -5   4  -4   45.50    9.10
   5   4   4   53.89    9.90
   5   4   4   52.89    9.60
  -6  -4  -4   31.00   13.70
   6  -4   4   23.50    9.70
  -6   4  -4   36.00    8.50
   6   4   4   40.50    8.40
   6   4   4   42.90   10.90
   6   4   4   42.80   11.10
  -6  -5   4   30.70    9.80
   6  -5  -4   21.80   10.50
  -6  -5   4   24.10    7.40
  -6   5   4   36.80    9.60
  -6   5   4   64.99   20.70
   6   5  -4   17.60    8.40
   6   5  -4   23.40    9.40
  -5  -5   4  192.68   15.30
   5  -5  -4  219.98   18.10
  -5  -5   4  205.18   17.10
   5   5  -4  195.98   32.00
   5   5  -4  191.78   16.10
  -5   5   4  190.88   16.10
   5   5  -4  195.58   18.10
  -5   5   4  182.68   28.80
   4  -5  -4  243.48   17.90
  -4  -5   4  225.98   15.70
  -4  -5   4  220.58   16.80
  -4   5   4  203.58   15.40
   4   5  -4  219.78   17.70
  -4   5   4  185.08   25.00
   4   5  -4  221.58   29.30
   4   5  -4  230.78   16.40
  -3  -5   4  539.85   30.60
   3  -5  -4  549.65   30.90
  -3  -5   4  542.95   30.30
   3  -5  -4  530.25   31.00
   3   5  -4  509.95   30.90
  -3   5   4  507.35   29.80
   3   5  -4  527.85   39.70
   3   5  -4  547.15   30.10
  -3   5   4  502.45   37.90
   3   5  -4  549.15   30.90
   3   5  -4  560.24   29.90
   2  -5  -4   64.19    8.20
  -2  -5   4   62.39    7.10
  -2  -5   4   75.09    8.60
  -2  -5   4   54.89    5.70
   2  -5  -4   61.59    7.80
  -2   5   4   67.09   12.50
  -2   5   4   62.69    6.40
   2   5  -4   45.90    7.10
   2   5  -4   79.09   14.10
  -2   5   4   63.29    5.90
   2   5  -4   50.89    7.20
  -1  -5   4   39.30    4.80
   1  -5  -4   50.19    7.00
  -1  -5   4   38.00    5.30
   1  -5  -4   26.40    5.10
  -1  -5   4   43.40    6.20
   1   5  -4   40.60    6.40
   1   5  -4   35.70    5.50
  -1   5   4   53.59   10.30
   1   5  -4   37.30    9.90
  -1   5   4   35.60    4.60
  -1   5   4   32.80    4.90
   0  -5  -4  155.58   10.50
   0  -5   4  182.28   14.60
   0  -5  -4  162.38   12.30
   0  -5   4  156.78   11.70
   0  -5   4  163.18   10.90
   0  -5   4  154.08   10.70
   0  -5  -4  179.58   12.70
   0   5   4  160.48   17.00
   0   5   4  162.48   12.00
   0   5  -4  171.18   10.90
   0   5  -4  167.28   12.80
   0   5   4  165.98   10.00
   0   5   4  157.68   11.30
   0   5  -4  168.88   17.40
   0   5  -4  160.68   11.90
   1  -5   4  843.02   42.00
   1  -5   4  811.82   43.20
  -1  -5  -4  848.12   43.30
   1  -5   4  797.72   42.60
   1  -5   4  836.92   41.80
  -1  -5  -4  804.12   41.90
   1   5   4  781.02   42.00
  -1   5  -4  733.13   42.10
   1   5   4  756.72   49.00
  -1   5  -4  751.42   48.40
   1   5   4  769.62   42.60
   1   5   4  770.92   42.50
   1   5   4  796.52   41.70
   2  -5   4  145.99   11.50
   2  -5   4  136.29   11.20
  -2  -5  -4  139.19   11.20
  -2  -5  -4  140.79   12.60
   2  -5   4  143.29   10.80
   2  -5   4  136.59   10.00
  -2   5  -4  128.79   15.30
  -2   5  -4  124.29   11.10
   2   5   4  118.39   10.90
   2   5   4  130.79   16.00
   2   5   4  119.39   10.50
   2   5   4  114.89   10.80
   2   5   4  119.89   10.60
   3  -5   4  240.78   17.00
  -3  -5  -4  235.68   19.60
   3  -5   4  220.38   17.50
  -3  -5  -4  222.38   16.80
   3  -5   4  213.18   16.60
   3   5   4  239.78   17.40
  -3   5  -4  251.97   17.20
   3   5   4  250.27   17.10
   3   5   4  249.48   16.20
  -3   5  -4  281.97   22.20
   3   5   4  249.48   17.40
  -4  -5  -4  109.19   14.40
  -4  -5  -4   88.79   12.00
   4  -5   4  101.59   12.30
  -4   5  -4  102.49   10.90
   4   5   4  117.79   13.70
   4   5   4   89.19   10.80
   4   5   4  104.19   12.10
  -5  -5  -4  137.59   17.10
  -5  -5  -4   99.09   13.80
   5  -5   4  120.99   14.90
   5   5   4  107.09   12.80
   5   5   4  114.49   14.80
  -5   5  -4  109.09   12.50
   5   5   4  119.39   14.90
   6  -6  -4  106.69   15.40
  -6  -6   4   97.99   13.30
  -6  -6   4  123.69   15.80
   6   6  -4   74.89   13.40
   6   6  -4  137.79   16.40
  -6   6   4   74.69   11.80
   5  -6  -4   57.69   11.50
  -5  -6   4   59.99   10.80
  -5  -6   4   64.99   10.70
   5   6  -4   66.49   11.50
  -5   6   4   44.60    9.10
   5   6  -4   54.59   12.00
   4  -6  -4   70.29   11.10
  -4  -6   4   85.59   11.80
  -4  -6   4   85.29   11.00
  -4   6   4   44.80    8.40
   4   6  -4   68.89   10.90
   4   6  -4   55.89   11.20
  -4   6   4   91.29   18.80
   4   6  -4  122.29   23.90
  -3  -6   4   10.70    5.10
   3  -6  -4   11.00    6.30
   3  -6  -4    7.10    4.50
  -3  -6   4   11.10    6.00
   3   6  -4   10.70    6.20
   3   6  -4   35.10   13.80
  -3   6   4   10.80    5.10
  -3   6   4   24.60   10.80
  -2  -6   4   51.69    7.30
   2  -6  -4   49.70    7.90
  -2  -6   4   45.70    7.30
   2  -6  -4   49.99    8.10
  -2   6   4   40.50   11.80
   2   6  -4   18.80    6.20
   2   6  -4   39.80   12.70
   2   6  -4   29.70    6.40
   1  -6  -4  358.66   20.30
  -1  -6   4  348.57   18.80
  -1  -6   4  347.17   18.20
  -1   6   4  290.27   18.10
   1   6  -4  274.57   18.50
   1   6  -4  253.97   18.50
   1   6  -4  274.27   19.50
   1   6  -4  266.07   25.40
  -1   6   4  273.37   17.40
  -1   6   4  289.67   26.50
   0  -6   4  116.59    9.20
   0  -6  -4  113.59    8.70
   0  -6   4  116.09   10.30
   0  -6  -4  119.29   11.20
   0  -6   4  112.09    9.10
   0   6   4  100.89    9.80
   0   6   4  106.79   16.30
   0   6  -4   84.69    9.70
   0   6  -4  109.49   16.10
   1  -6   4   46.80    7.40
  -1  -6  -4   39.30    8.00
   1  -6   4   46.00    6.70
   1  -6   4   56.29    6.90
  -1  -6  -4   40.20    6.40
   1   6   4   52.69    7.70
   1   6   4   54.99    7.00
  -1   6  -4   70.09   13.80
  -1   6  -4   44.70    7.30
   1   6   4   70.49   14.40
   1   6   4   34.00    5.80
   1   6   4   55.59    8.40
  -2  -6  -4   91.19   10.40
   2  -6   4   96.69    9.80
  -2  -6  -4  100.89   12.00
   2   6   4   90.79   10.10
   2   6   4   84.69    9.20
   2   6   4   91.49   10.00
   2   6   4  102.69    9.30
  -2   6  -4   80.89    9.70
  -3  -6  -4   50.69   10.70
   3  -6   4   45.10    6.10
  -3  -6  -4   44.40    9.00
   3  -6   4   42.40    8.10
   3   6   4   48.10    9.70
   3   6   4   57.59    9.20
  -3   6  -4   32.50    7.60
   3   6   4   50.19    9.20
  -4  -6  -4   62.69   10.80
  -4  -6  -4   84.09   13.90
  -4   6  -4   83.99   12.30
   4   6   4   86.09   12.60
   4   6   4   66.89   10.40
   4   6   4   60.09   10.50
  -5  -6  -4   43.70   11.80
   5  -6   4   30.70    9.60
  -5  -6  -4   42.30   13.00
   5   6   4   47.40   11.50
   5   6   4   29.30    9.60
   5   6   4   38.70   10.50
  -5   6  -4   38.30    9.20
   5  -7  -4   36.40   11.00
  -4  -7   4   78.89   12.80
  -4  -7   4   67.19   10.30
   4  -7  -4   81.99   12.70
  -4   7   4   53.99    9.30
   4   7  -4   44.50   10.50
   3  -7  -4  160.88   16.40
  -3  -7   4  149.99   14.30
  -3  -7   4  145.19   15.70
   3   7  -4  173.18   15.50
   3   7  -4  223.38   27.20
  -3   7   4  178.38   14.20
   2  -7  -4   47.20    9.30
  -2  -7   4   38.20    7.10
  -2  -7   4   38.00    8.80
  -2   7   4   32.40    5.80
   2   7  -4   38.70    8.00
  -1  -7   4   11.70    6.50
  -1  -7   4    2.70    3.00
   1  -7  -4   12.60    6.70
  -1   7   4   19.90   11.20
   1   7  -4    4.20    4.70
   1   7  -4   18.50   11.40
   1   7  -4    6.70    5.40
   0  -7   4   23.70    5.80
   0  -7   4   19.20    5.00
   0  -7   4   24.30    6.70
   0  -7  -4   25.10    7.70
   0   7  -4   58.29   15.10
   0   7  -4   29.80    6.90
   0   7   4   41.50    7.30
  -1  -7  -4  291.47   21.80
   1  -7   4  278.67   19.10
   1  -7   4  300.97   20.10
   1   7   4  288.77   19.80
  -1   7  -4  291.67   19.80
  -1   7  -4  304.07   30.50
   2  -7   4  151.58   13.70
  -2  -7  -4  165.78   14.10
  -2  -7  -4  157.38   16.10
  -2   7  -4  130.49   13.90
   2   7   4  212.28   24.50
   2   7   4  141.09   12.90
  -2   7  -4  193.58   21.80
   2   7   4  141.19   14.00
  -4  -7  -4   -0.20    7.50
   4  -7   4   17.30    8.90
  -4  -7  -4   12.30   12.00
  -4   7  -4   11.30    7.20
   4   7   4   10.40    7.30
   4   7   4   13.10    7.60
   4   7   4   18.30    9.90
  -3  -8   4    0.10    6.20
   3  -8  -4    4.70    8.40
  -3  -8   4    7.80    8.50
   3   8  -4    8.60    7.40
  -3   8   4    5.50    5.30
  -2  -8   4   56.19    9.30
   2  -8  -4   60.29   11.70
  -2  -8   4   74.19   12.00
   2   8  -4  106.99   22.60
   2   8  -4   40.60    8.50
  -1  -8   4  180.18   14.30
  -1  -8   4  184.68   15.90
   1  -8  -4  171.58   17.50
  -1   8   4  218.18   27.30
   1   8  -4  207.08   26.90
   0  -8   4   91.99   11.90
   0  -8  -4   90.99   13.70
   0   8  -4  130.19   21.50
   0   8   4   79.59    9.80
   0   8   4  119.09   21.80
   1  -8   4    6.70    4.30
   1  -8   4    6.80    5.40
  -1  -8  -4    4.10    8.30
  -1   8  -4    3.60    6.00
   1   8   4    6.80    6.10
  -2  -8  -4   76.19   13.00
   2  -8   4   59.99    9.80
   2   8   4   63.79   10.40
  -2   8  -4   67.99   10.30
  -3  -8  -4  110.49   15.80
  -3  -8  -4   88.39   11.80
   3  -8   4   89.39   12.90
  -3  -8  -4   93.79   12.80
  -3   8  -4   74.49   11.60
   3   8   4   89.29   13.30
  -2   9   4  117.39   23.10
   1  -9  -4   10.90   10.30
  -1  -9   4    2.60    7.30
  -1   9   4   52.69   18.10
   1   9  -4   57.49   17.70
   0  -9  -4   94.09   15.50
   0   9   4  159.08   23.10
   0   9  -4  157.38   25.30
  -1  -9  -4  144.49   17.40
   1   9   4  104.69   12.70
  -1   9  -4  111.59   12.90
  -7   0   5  105.59   19.30
  -6   0   5  359.36   22.70
   6   0  -5  381.56   36.00
   6   0  -5  370.46   22.90
  -6   0   5  341.77   21.70
  -6   0   5  338.27   34.40
   6   0  -5  361.16   22.90
   5   0  -5    3.30    3.50
   5   0  -5    0.90    4.30
   5   0  -5   -0.20   12.70
  -5   0   5   -1.30    9.70
   5   0  -5    1.70    4.30
  -5   0   5    0.00    2.90
  -5   0   5   -0.40    3.70
  -5   0   5   -0.80    2.40
   5   0  -5    0.70    3.00
   5   0  -5    0.40    4.60
   5   0  -5    0.80    1.60
  -4   0   5  199.38   11.80
   4   0  -5  197.58   10.90
   4   0  -5  186.78   21.90
  -4   0   5  195.68   12.60
   4   0  -5  196.38   12.20
   4   0  -5  190.58   11.30
   4   0  -5  190.08   12.70
  -4   0   5  190.48   21.10
   4   0  -5  193.58   13.00
   3   0  -5  430.96   24.40
   3   0  -5  460.15   24.90
   3   0  -5  427.06   32.30
  -3   0   5  449.26   23.40
   3   0  -5  458.95   23.90
  -3   0   5  446.86   24.40
   3   0  -5  475.15   23.90
  -3   0   5  448.26   23.60
   3   0  -5  442.46   23.30
   2   0  -5  231.18   13.20
   2   0  -5  232.58   12.80
  -2   0   5  220.88   12.10
   2   0  -5  221.68   13.30
  -2   0   5  229.68   12.20
  -2   0   5  223.78   12.40
   2   0  -5  225.38   12.10
   2   0  -5  219.18   18.50
   1   0  -5 1293.47   70.99
   1   0  -5 1335.07   66.89
  -1   0   5 1362.76   66.79
  -1   0   5 1376.86   66.29
  -1   0   5 1297.47   66.59
   1   0  -5 1385.36   66.79
   1   0  -5 1263.47   66.99
  -1   0   5 1372.76   65.99
   1   0  -5 1324.97   65.49
  -1   0   5 1292.67   66.69
   0   0  -5   -0.40    2.00
   0   0   5    1.20    1.80
   0   0   5    2.30    1.80
   0   0  -5    0.10    2.00
   0   0  -5    1.20    1.80
   0   0   5    0.70    1.60
   0   0   5    0.20    1.70
   0   0  -5    0.80    2.90
   0   0   5    0.40    1.90
  -1   0  -5  367.36   21.00
   1   0   5  375.36   21.20
  -1   0  -5  361.96   20.90
   1   0   5  400.06   21.40
   1   0   5  383.16   20.80
   1   0   5  380.46   20.40
   1   0   5  387.26   20.80
   1   0   5  369.66   20.80
   2   0   5   11.90    3.40
   2   0   5   13.70    3.30
   2   0   5   12.90    3.70
   2   0   5   15.90    4.00
  -2   0  -5   11.40    4.00
   2   0   5   12.50    2.70
  -2   0  -5   10.30    2.60
  -2   0  -5   10.20    2.90
   3   0   5  214.58   13.00
   3   0   5  208.78   14.50
   3   0   5  210.18   14.00
   3   0   5  205.68   14.80
   3   0   5  204.98   13.50
  -3   0  -5  221.58   12.70
  -3   0  -5  207.88   14.80
  -4   0  -5   66.39    6.60
   4   0   5   62.59    8.60
   4   0   5   63.19    7.40
  -4   0  -5   64.69    9.60
   4   0   5   80.89   10.10
   4   0   5   77.99    7.10
   4   0   5   71.69    8.70
  -5   0  -5  193.18   17.80
   5   0   5  224.38   16.20
   5   0   5  214.48   17.60
   5   0   5  196.48   17.70
   6   0   5  125.19   15.60
   6   0   5  129.99   12.70
   6   0   5  108.69   15.00
  -6   0  -5  106.09   15.00
  -7  -1   5   96.89   15.20
   6  -1  -5   56.39    9.60
  -6  -1   5   33.80    6.90
  -6  -1   5   50.89    7.10
  -6  -1   5   26.90   16.30
   6  -1  -5   49.50   19.10
   6   1  -5   62.59   22.30
   6   1  -5   70.89    9.00
  -6   1   5   59.59    9.10
  -6   1   5   67.59   20.00
   5  -1  -5  235.68   13.60
  -5  -1   5  231.38   14.90
   5  -1  -5  242.28   16.50
  -5  -1   5  240.68   15.30
   5  -1  -5  242.68   27.50
  -5  -1   5  226.58   15.70
  -5  -1   5  216.08   16.20
   5  -1  -5  235.58   16.70
   5   1  -5  242.58   15.80
  -5   1   5  243.58   26.10
   5   1  -5  222.28   28.40
   5   1  -5  247.38   16.70
   5   1  -5  245.18   16.00
   5   1  -5  240.38   15.60
  -5   1   5  259.87   15.60
   4  -1  -5  567.74   41.70
   4  -1  -5  609.24   32.80
   4  -1  -5  572.74   31.20
  -4  -1   5  586.04   32.80
  -4  -1   5  581.54   32.00
  -4  -1   5  590.44   32.10
   4  -1  -5  603.64   31.30
   4  -1  -5  565.04   32.70
   4   1  -5  583.14   43.30
  -4   1   5  653.33   42.10
   4   1  -5  632.64   32.70
   4   1  -5  617.34   30.80
   4   1  -5  606.74   32.60
   4   1  -5  603.64   31.20
   4   1  -5  611.04   32.60
  -4   1   5  645.44   32.60
  -4   1   5  636.34   31.30
   4   1  -5  628.34   33.60
   3  -1  -5  169.08   18.80
  -3  -1   5  191.88   12.40
   3  -1  -5  183.38   12.50
   3  -1  -5  194.08   11.70
   3  -1  -5  188.88   11.50
   3  -1  -5  195.38   12.10
  -3  -1   5  190.78   11.80
  -3  -1   5  184.38   11.70
   3   1  -5  189.38   19.90
  -3   1   5  216.78   10.90
  -3   1   5  209.98   12.30
   3   1  -5  220.88   13.40
  -3   1   5  213.68   11.10
   3   1  -5  206.18   12.40
  -3   1   5  192.88   18.90
   3   1  -5  209.68   11.90
   3   1  -5  198.88   11.60
   3   1  -5  203.68   11.20
   2  -1  -5   71.29    5.80
   2  -1  -5   71.99    5.40
  -2  -1   5   67.29    4.80
   2  -1  -5   71.89    6.00
   2  -1  -5   74.89    6.10
  -2  -1   5   72.69    5.60
   2  -1  -5   71.69   11.10
  -2  -1   5   74.59    5.50
  -2  -1   5   70.39    5.80
  -2   1   5   86.89    5.00
   2   1  -5   82.09   11.60
   2   1  -5   83.49    6.50
   2   1  -5   74.39    5.60
  -2   1   5   81.39   10.40
   2   1  -5   86.19    6.70
  -2   1   5   84.39    6.40
  -2   1   5   81.19    5.80
   1  -1  -5 2332.77  113.99
  -1  -1   5 2286.47  113.29
   1  -1  -5 2231.18  113.59
   1  -1  -5 2311.67  112.99
   1  -1  -5 2224.08  117.79
  -1  -1   5 2404.66  113.49
   1  -1  -5 2298.07  113.29
  -1  -1   5 2256.37  113.39
  -1  -1   5 2255.37  113.89
  -1  -1   5 2261.67  113.19
  -1   1   5 2348.86  113.49
   1   1  -5 2321.77  113.99
  -1   1   5 2294.17  112.59
  -1   1   5 2304.57  113.09
   1   1  -5 2354.56  113.59
  -1   1   5 2321.27  114.09
   1   1  -5 2250.97  118.09
   1   1  -5 2119.49  113.89
  -1   1   5 2309.67  113.79
  -1   1   5 2357.56  118.09
   0  -1   5  980.50   49.90
   0  -1   5  943.31   49.50
   0  -1  -5  958.60   48.90
   0  -1  -5  934.81   49.70
   0  -1   5  961.00   49.50
   0  -1   5  971.70   48.60
   0  -1  -5  953.30   49.80
   0   1  -5 1002.60   50.09
   0   1   5  934.51   49.80
   0   1   5  990.10   49.80
   0   1  -5  992.40   49.90
   0   1   5  984.90   51.79
   0   1  -5  981.60   49.80
   0   1   5 1010.70   49.80
   0   1   5 1000.50   49.30
   0   1  -5  944.21   51.69
   0   1   5 1029.50   49.10
  -1  -1  -5  420.26   22.50
   1  -1   5  393.36   21.50
  -1  -1  -5  414.86   22.60
  -1  -1  -5  448.76   21.30
   1  -1   5  423.56   22.20
   1  -1   5  404.56   22.20
   1  -1   5  406.66   22.60
   1  -1   5  449.86   22.90
   1  -1   5  428.26   21.80
  -1   1  -5  388.46   22.00
   1   1   5  376.16   21.90
   1   1   5  382.96   21.90
   1   1   5  398.86   21.90
  -1   1  -5  393.76   21.70
   1   1   5  377.06   22.40
  -1   1  -5  390.56   22.20
   1   1   5  399.66   22.10
   1   1   5  389.36   21.80
  -2  -1  -5  147.69    8.60
  -2  -1  -5  134.89   10.90
   2  -1   5  150.08    8.90
  -2  -1  -5  136.49    9.80
   2  -1   5  138.79   10.10
   2  -1   5  152.88   10.70
   2  -1   5  140.79    9.70
   2  -1   5  141.69   10.60
   2  -1   5  153.28   10.20
  -2   1  -5  155.78    9.70
   2   1   5  146.69   11.10
   2   1   5  149.49   10.40
   2   1   5  149.29    9.70
   2   1   5  150.38    9.90
  -2   1  -5  156.48    9.90
   2   1   5  145.79   10.30
   2   1   5  147.39   10.00
   3  -1   5  371.56   22.50
  -3  -1  -5  331.77   22.90
   3  -1   5  371.16   22.70
   3  -1   5  379.56   20.70
   3  -1   5  371.66   22.70
   3  -1   5  367.86   21.90
   3   1   5  397.96   22.00
   3   1   5  394.06   23.70
  -3   1  -5  420.46   21.70
   3   1   5  390.46   22.10
   3   1   5  391.36   22.60
   3   1   5  396.56   22.00
   4  -1   5  319.17   19.50
   4  -1   5  301.47   20.60
  -4  -1  -5  297.47   21.20
   4  -1   5  313.07   19.20
   4  -1   5  351.06   21.30
  -4   1  -5  306.17   18.60
   4   1   5  321.87   19.30
   4   1   5  317.57   20.30
   4   1   5  299.57   21.20
   4   1   5  279.17   18.70
   4   1   5  318.17   19.90
   5  -1   5  194.28   16.30
   5  -1   5  172.98   16.40
  -5  -1  -5  177.48   16.50
   5   1   5  165.08   14.40
  -5   1  -5  143.39   11.80
   5   1   5  161.48   15.50
   5   1   5  142.89   15.80
   6  -1   5   13.30    8.90
  -6  -1  -5   10.60   11.00
   6  -1   5    5.70    5.80
   6  -1   5   17.10    8.70
   6   1   5    5.60    7.30
  -6   1  -5    5.60    9.90
   6   1   5   14.60    8.70
   6   1   5    6.20    9.90
  -7  -2   5  234.78   24.60
  -7   2   5  222.28   24.10
  -6  -2   5  414.06   25.40
  -6  -2   5  439.06   26.50
   6  -2  -5  420.36   26.10
  -6  -2   5  414.46   25.00
   6   2  -5  350.56   25.30
   6   2  -5  437.96   25.70
   6   2  -5  440.16   26.20
  -6   2   5  408.36   25.80
   6   2  -5  399.76   41.00
   6   2  -5  461.25   27.80
  -6   2   5  425.76   38.40
  -5  -2   5   50.19    8.10
   5  -2  -5   44.70    5.30
  -5  -2   5   51.49    6.80
  -5  -2   5   52.89    7.20
   5  -2  -5   59.79    8.60
   5   2  -5   57.89   19.90
  -5   2   5   46.90    7.60
   5   2  -5   44.90    4.40
   5   2  -5   51.69    7.10
   5   2  -5   48.40    7.40
  -5   2   5   53.69   15.90
   5   2  -5   51.59    8.90
   4  -2  -5   45.70    5.10
  -4  -2   5   51.19    6.30
   4  -2  -5   42.60    6.50
  -4  -2   5   60.09    7.30
  -4  -2   5   45.10    5.50
   4   2  -5   52.09    4.80
   4   2  -5   47.90    6.50
   4   2  -5   46.30    7.20
   4   2  -5   34.10    5.50
  -4   2   5   43.00    6.20
  -4   2   5   51.49    5.90
  -4   2   5   45.80   12.80
   4   2  -5   50.59   14.40
   4   2  -5   32.00    7.50
  -3  -2   5  650.23   34.40
  -3  -2   5  629.74   34.80
   3  -2  -5  650.33   34.20
  -3  -2   5  635.94   33.30
  -3  -2   5  645.14   34.40
   3  -2  -5  628.34   34.10
   3  -2  -5  653.83   34.80
   3   2  -5  666.23   43.80
   3   2  -5  646.84   35.30
   3   2  -5  683.13   33.80
  -3   2   5  593.14   33.50
  -3   2   5  691.93   42.50
   3   2  -5  714.23   34.10
   3   2  -5  663.83   34.70
  -3   2   5  653.53   34.70
   2  -2  -5 1617.74   78.99
  -2  -2   5 1624.44   78.89
  -2  -2   5 1577.14   78.19
   2  -2  -5 1559.94   78.99
  -2  -2   5 1606.54   79.19
   2  -2  -5 1629.44   79.09
  -2  -2   5 1617.44   78.89
   2   2  -5 1531.45   85.99
  -2   2   5 1478.65   79.29
   2   2  -5 1541.95   79.39
   2   2  -5 1593.14   79.59
   2   2  -5 1674.53   79.09
  -2   2   5 1501.45   85.09
   2   2  -5 1568.44   78.69
  -2   2   5 1487.95   78.69
   1  -2  -5   16.70    3.00
  -1  -2   5   14.80    2.80
   1  -2  -5   12.90    3.10
  -1  -2   5   15.70    2.90
  -1  -2   5   14.60    2.80
  -1  -2   5   19.80    3.30
   1  -2  -5   13.80    3.10
  -1   2   5   28.10    4.30
  -1   2   5   16.20    2.90
   1   2  -5   25.20    4.20
   1   2  -5   26.50    3.70
  -1   2   5   20.50    2.00
  -1   2   5   25.40    6.30
   1   2  -5   17.30    3.30
  -1   2   5   21.90    2.30
   1   2  -5   23.00    6.30
   1   2  -5   20.60    4.00
   0  -2   5  131.39    7.50
   0  -2  -5  133.39    8.90
   0  -2   5  121.59    8.50
   0  -2   5  124.69    8.70
   0  -2  -5  117.09    8.60
   0  -2   5  125.89    7.90
   0  -2  -5  128.19    7.50
   0  -2  -5  119.19    8.80
   0  -2   5  126.49    8.50
   0  -2   5  131.39    8.80
   0   2  -5  119.09   10.60
   0   2  -5  132.99    9.40
   0   2   5  136.49    8.90
   0   2   5  127.59   10.80
   0   2   5  128.59    8.80
   0   2   5  140.89    7.90
   0   2  -5  142.99    9.00
   0   2   5  142.29    8.90
   0   2  -5  125.39    8.80
   0   2   5  127.99    7.90
   1  -2   5 1422.56   73.49
  -1  -2  -5 1459.45   73.59
   1  -2   5 1471.45   72.59
   1  -2   5 1415.96   73.99
   1  -2   5 1431.06   73.59
   1  -2   5 1503.95   72.89
   1  -2   5 1541.95   73.99
  -1  -2  -5 1342.07   73.69
  -1  -2  -5 1475.35   71.59
   1   2   5 1420.16   73.49
  -1   2  -5 1490.45   73.69
   1   2   5 1483.75   73.79
   1   2   5 1535.85   73.59
   1   2   5 1507.35   73.19
   1   2   5 1483.95   73.09
   1   2   5 1423.96   75.29
  -1   2  -5 1458.95   73.29
  -1   2  -5 1322.77   74.69
   2  -2   5  426.16   25.10
  -2  -2  -5  469.55   26.40
   2  -2   5  462.45   25.20
   2  -2   5  448.56   25.10
   2  -2   5  489.65   25.90
   2  -2   5  449.16   26.00
  -2  -2  -5  459.35   25.30
   2  -2   5  494.65   23.60
   2   2   5  453.75   25.00
   2   2   5  455.65   25.40
   2   2   5  453.25   25.50
  -2   2  -5  421.86   25.40
  -2   2  -5  454.65   25.00
   2   2   5  466.55   26.20
  -2   2  -5  453.05   25.00
   2   2   5  439.96   25.20
   2   2   5  439.86   25.00
   3  -2   5  252.27   16.60
   3  -2   5  265.27   16.70
  -3  -2  -5  260.27   18.10
   3  -2   5  228.08   16.90
   3   2   5  252.37   15.70
   3   2   5  253.57   16.30
   3   2   5  257.07   16.60
   3   2   5  253.97   16.20
  -3   2  -5  272.57   15.90
  -4  -2  -5   40.20    8.90
   4  -2   5   48.30    8.60
   4  -2   5   49.80    7.20
   4  -2   5   40.90    7.50
   4   2   5   44.60    6.90
   4   2   5   38.50    7.50
   4   2   5   43.70    6.00
   4   2   5   44.20    7.40
  -4   2  -5   46.80    7.00
   5  -2   5  154.18   12.70
   5  -2   5  147.49   14.80
   5  -2   5  146.69   15.30
   5   2   5  148.19   15.10
   5   2   5  152.28   13.20
  -5   2  -5  141.79   12.30
   5   2   5  152.68   13.60
   6  -2   5  159.88   16.90
  -6  -2  -5  156.48   18.60
   6  -2   5  141.19   16.90
   6   2   5  159.88   17.80
   6   2   5  162.58   16.20
  -7  -3   5    1.00    5.40
   7  -3  -5    6.50    8.70
  -7  -3   5   -1.40    5.90
   7  -3  -5   -3.50    6.70
  -7  -3   5    3.60    7.60
   7   3  -5    3.90    7.00
   7   3  -5   -0.30    7.20
  -7   3   5   -1.50    7.60
   7   3  -5    2.10    5.90
   6  -3  -5   63.99   11.00
   6  -3  -5   95.29   12.30
  -6  -3   5   80.59    9.40
  -6  -3   5  117.89   13.20
  -6  -3   5   70.69   10.10
   6   3  -5   86.69   12.60
   6   3  -5   77.79   11.10
   6   3  -5   77.69   10.60
  -6   3   5  102.39   12.10
   6   3  -5  124.39   32.30
   5  -3  -5  242.58   17.20
  -5  -3   5  264.77   16.90
   5  -3  -5  275.87   18.00
  -5  -3   5  257.87   16.10
   5   3  -5  223.88   18.00
  -5   3   5  218.08   16.50
  -5   3   5  224.58   25.90
   5   3  -5  209.48   16.20
   5   3  -5  204.48   29.90
   5   3  -5  222.38   15.30
   4  -3  -5  405.96   24.60
   4  -3  -5  416.06   23.50
  -4  -3   5  400.96   23.70
   4  -3  -5  409.66   24.50
  -4  -3   5  412.86   24.10
   4   3  -5  410.76   23.70
   4   3  -5  405.96   22.70
  -4   3   5  422.66   33.00
  -4   3   5  418.66   24.30
   4   3  -5  435.46   36.80
   4   3  -5  432.86   25.60
   4   3  -5  421.86   24.40
   3  -3  -5    5.70    3.00
  -3  -3   5    3.80    2.20
  -3  -3   5    7.10    3.50
   3  -3  -5    2.70    3.80
  -3  -3   5    4.10    3.10
   3  -3  -5    4.90    3.30
  -3   3   5    1.60    2.70
   3   3  -5    0.60    4.30
   3   3  -5   -1.50    7.30
  -3   3   5    2.40    2.80
   3   3  -5    0.90    2.90
   3   3  -5    1.80    2.70
  -3   3   5    5.40    6.00
  -2  -3   5    6.40    2.80
   2  -3  -5    5.90    2.90
  -2  -3   5    7.50    2.20
   2  -3  -5    3.90    2.80
   2  -3  -5    4.70    2.20
  -2  -3   5    7.10    1.60
   2  -3  -5    9.90    3.60
  -2  -3   5    7.90    2.90
   2   3  -5   10.70    3.90
  -2   3   5   12.50    3.20
   2   3  -5    6.90    6.10
  -2   3   5   14.50    5.50
   2   3  -5   10.50    4.10
   2   3  -5    9.90    3.50
  -2   3   5   15.70    3.30
   2   3  -5    8.50    2.90
  -2   3   5   10.60    3.30
   1  -3  -5  421.86   23.20
   1  -3  -5  421.16   23.60
  -1  -3   5  391.06   22.50
   1  -3  -5  426.46   22.40
  -1  -3   5  428.26   22.80
  -1  -3   5  433.06   23.10
   1  -3  -5  433.66   21.30
  -1  -3   5  379.96   24.00
   1  -3  -5  431.26   23.40
   1   3  -5  395.06   27.90
  -1   3   5  432.56   23.40
  -1   3   5  422.76   22.20
  -1   3   5  413.46   27.90
   1   3  -5  430.66   23.20
  -1   3   5  429.56   23.20
  -1   3   5  430.16   21.40
  -1   3   5  419.96   21.50
   1   3  -5  447.26   23.70
   1   3  -5  390.46   23.60
   1   3  -5  400.96   23.10
   0  -3  -5  726.13   38.10
   0  -3   5  733.13   37.40
   0  -3   5  732.83   38.00
   0  -3  -5  748.13   38.10
   0  -3   5  742.73   36.90
   0  -3   5  726.73   36.60
   0  -3  -5  718.33   36.20
   0  -3   5  714.53   37.70
   0   3   5  676.53   37.80
   0   3   5  739.53   38.10
   0   3  -5  692.73   37.90
   0   3   5  720.03   36.20
   0   3  -5  666.73   41.40
   0   3   5  679.03   37.70
   0   3  -5  728.23   37.10
   0   3  -5  740.83   38.30
   0   3   5  732.53   36.80
   0   3   5  722.43   36.80
   1  -3   5  304.77   16.70
   1  -3   5  307.37   17.30
   1  -3   5  325.77   15.90
  -1  -3  -5  285.77   17.90
  -1  -3  -5  320.17   17.60
   1  -3   5  295.87   17.70
   1   3   5  286.87   17.30
  -1   3  -5  297.47   17.70
   1   3   5  289.67   16.70
  -1   3  -5  257.67   19.40
   1   3   5  299.57   17.50
   1   3   5  281.47   17.30
  -1   3  -5  272.27   17.10
   1   3   5  277.17   16.70
   1   3   5  272.87   19.90
   2  -3   5   48.10    7.20
   2  -3   5   46.40    5.70
   2  -3   5   44.60    6.40
   2  -3   5   47.40    6.50
  -2  -3  -5   49.20    7.70
   2   3   5   62.39    7.60
  -2   3  -5   42.70    6.00
   2   3   5   52.19    5.90
   2   3   5   66.89    7.50
  -2   3  -5   58.79    7.20
   2   3   5   48.70    6.10
   2   3   5   50.09    6.10
   3  -3   5   89.99    9.10
   3  -3   5   86.99    8.50
   3  -3   5   67.99    9.10
  -3  -3  -5   90.19   11.40
   3  -3   5   94.09    9.20
   3   3   5  102.29    9.20
   3   3   5  108.19   10.10
   3   3   5  101.29    9.00
   3   3   5  104.19    8.60
  -3   3  -5  111.99    9.60
   4  -3   5  112.59   11.80
   4  -3   5  109.89   10.70
   4  -3   5  119.39   10.00
  -4  -3  -5  116.89   14.10
   4  -3   5  105.19   12.30
   4   3   5  120.29   12.30
   4   3   5  126.79   11.70
  -4   3  -5  104.19   10.70
   4   3   5  113.99   10.90
  -5  -3  -5  231.18   20.40
   5  -3   5  222.38   18.30
   5   3   5  204.88   17.00
   5   3   5  184.18   16.40
   5   3   5  225.38   18.70
  -5   3  -5  211.98   15.80
   6  -3   5   17.60    9.50
  -6  -3  -5   19.70   11.70
   6  -3   5   23.70    8.90
   6   3   5   25.30    9.70
   6   3   5   15.90    8.70
  -6   3  -5   19.00    7.00
   6   3   5   13.60    4.90
   6  -4  -5  101.29   12.80
  -6  -4   5  102.79   12.90
   6  -4  -5  112.29   14.70
   6   4  -5  109.39   14.80
   6   4  -5   88.49   12.20
  -6   4   5   89.59   11.90
  -5  -4   5   30.90    7.40
  -5  -4   5   21.00    6.00
   5  -4  -5   21.40    7.60
   5  -4  -5   18.90    6.90
  -5   4   5   14.90    6.00
   5   4  -5   18.00    6.60
   5   4  -5   17.90    7.40
   5   4  -5   28.90   22.10
  -5   4   5   49.99   15.00
   4  -4  -5    6.00    3.70
  -4  -4   5    9.10    4.40
   4  -4  -5    6.20    5.20
  -4  -4   5    8.60    4.80
   4  -4  -5    5.70    5.00
  -4   4   5   24.20   10.40
   4   4  -5    4.80    6.10
  -4   4   5    5.70    4.30
   4   4  -5   10.10   14.10
   4   4  -5    7.50    3.50
   4   4  -5    8.00    4.10
   4   4  -5    4.20    4.70
   3  -4  -5  177.08   12.40
   3  -4  -5  179.98   12.30
  -3  -4   5  170.48   12.60
  -3  -4   5  180.98   12.00
   3  -4  -5  183.58   12.80
   3   4  -5  169.68   12.10
   3   4  -5  138.69   20.50
  -3   4   5  176.18   18.90
  -3   4   5  166.98   11.10
   3   4  -5  149.59   12.70
  -3   4   5  154.08   11.50
   3   4  -5  150.68   11.70
   2  -4  -5  477.65   25.20
   2  -4  -5  477.75   26.10
   2  -4  -5  447.66   26.00
  -2  -4   5  475.75   25.50
  -2  -4   5  485.65   23.90
  -2  -4   5  482.55   25.90
  -2   4   5  425.26   24.80
   2   4  -5  454.95   25.80
  -2   4   5  438.36   24.90
   2   4  -5  435.36   32.80
   2   4  -5  437.16   26.00
  -2   4   5  432.36   32.10
   1  -4  -5  133.59    8.90
  -1  -4   5  123.69    8.00
   1  -4  -5  123.89    7.60
  -1  -4   5  122.89    9.10
   1  -4  -5  134.99   10.40
   1  -4  -5  138.99   10.10
  -1  -4   5  119.79    9.30
  -1   4   5  128.49   14.40
  -1   4   5  129.59    7.60
  -1   4   5  123.49    8.50
   1   4  -5  125.29    9.30
   1   4  -5  130.89   10.60
  -1   4   5  130.49    9.20
   1   4  -5  118.89    9.90
   1   4  -5  131.89    9.70
  -1   4   5  138.79    9.90
   1   4  -5  139.69   15.00
   0  -4   5   21.30    4.50
   0  -4   5   20.80    3.80
   0  -4   5   20.80    3.30
   0  -4   5   17.20    3.10
   0  -4  -5   20.90    4.90
   0  -4   5   12.00    3.20
   0  -4  -5   12.50    3.80
   0  -4  -5   18.10    3.10
   0   4  -5   16.40    6.60
   0   4   5   19.80    4.30
   0   4  -5   19.00    3.70
   0   4  -5   18.70    4.30
   0   4   5   16.90    3.00
   0   4   5   24.10    7.10
   0   4  -5   20.50    5.10
   0   4   5   17.60    3.20
   0   4   5   21.70    2.80
   0   4   5   15.50    3.90
   1  -4   5  414.56   23.70
   1  -4   5  391.06   24.10
   1  -4   5  404.36   23.20
  -1  -4  -5  416.86   24.80
   1  -4   5  378.16   24.10
   1  -4   5  378.06   23.00
   1   4   5  452.75   24.50
   1   4   5  439.66   29.10
  -1   4  -5  424.96   24.10
  -1   4  -5  436.46   28.50
   1   4   5  440.36   23.70
   1   4   5  446.66   24.30
  -1   4  -5  436.26   24.60
   1   4   5  439.26   23.40
   2  -4   5  448.16   25.90
  -2  -4  -5  468.25   27.70
   2  -4   5  448.06   26.20
   2  -4   5  428.16   26.90
   2   4   5  470.65   31.10
   2   4   5  463.55   26.10
  -2   4  -5  478.85   30.30
   2   4   5  445.36   26.10
   2   4   5  476.25   26.90
  -2   4  -5  467.45   26.50
   2   4   5  451.35   26.30
  -3  -4  -5  153.18   14.50
   3  -4   5  159.58   13.70
   3  -4   5  167.18   12.50
   3  -4   5  150.48   12.20
   3  -4   5  153.38   11.70
   3   4   5  140.39   12.60
  -3   4  -5  146.09   11.90
   3   4   5  144.59   12.20
   3   4   5  147.09   12.20
   3   4   5  133.39   11.20
  -4  -4  -5   48.70   10.90
   4  -4   5   51.69    8.40
   4  -4   5   42.00    8.70
   4   4   5   42.80    8.00
  -4   4  -5   43.50    7.70
   4   4   5   39.70    7.70
   4   4   5   42.50    8.20
   5  -4   5   50.39   10.30
  -5  -4  -5   48.60   12.50
   5   4   5   74.69   12.00
   5   4   5   45.10   10.30
   5   4   5   57.99   11.00
  -5   4  -5   47.40    9.60
  -6  -4  -5  110.09   16.80
   6  -4   5   99.49   14.50
   6   4   5   80.99   13.60
   6   4   5  129.39   14.90
   6   4   5   63.89   11.10
  -6   4  -5  106.19   12.10
  -6   5   5   48.90   19.70
  -5  -5   5   82.19   10.20
  -5  -5   5   83.79   11.40
   5  -5  -5   94.59   12.90
  -5   5   5   73.79   10.40
   5   5  -5   74.29   11.10
  -5   5   5  127.59   25.80
   5   5  -5  141.09   30.70
   5   5  -5  104.39   14.00
  -4  -5   5  168.88   14.40
   4  -5  -5  164.08   14.60
  -4  -5   5  163.68   13.10
   4   5  -5  174.28   15.50
   4   5  -5  168.18   27.10
  -4   5   5  156.68   23.00
  -4   5   5  162.98   13.60
   4   5  -5  168.48   13.90
   3  -5  -5   24.80    6.10
   3  -5  -5   22.00    5.50
  -3  -5   5   23.50    5.80
  -3  -5   5   17.60    5.10
   3  -5  -5   18.20    6.00
   3   5  -5   14.40    4.90
   3   5  -5   22.80   10.50
  -3   5   5    9.00    4.40
   3   5  -5   10.80    4.50
   3   5  -5    9.40    6.00
  -3   5   5    8.60    8.60
  -2  -5   5   30.20    6.20
   2  -5  -5   25.10    5.70
  -2  -5   5   26.00    5.20
   2  -5  -5   28.00    6.10
   2   5  -5   21.30    5.90
  -2   5   5   32.20   10.40
   2   5  -5   18.60    5.90
   2   5  -5   31.00   10.70
  -2   5   5   29.70    4.90
  -1  -5   5  183.28   11.10
   1  -5  -5  188.48   13.30
   1  -5  -5  173.58   13.20
  -1  -5   5  175.78   12.10
  -1  -5   5  184.28   12.80
   1   5  -5  161.88   12.30
  -1   5   5  177.58   12.10
   1   5  -5  178.38   13.60
  -1   5   5  187.28   18.50
   1   5  -5  174.08   19.10
   1   5  -5  165.28   12.80
  -1   5   5  168.48   11.10
   0  -5  -5  384.16   22.50
   0  -5  -5  344.17   20.20
   0  -5   5  359.06   20.40
   0  -5   5  363.66   20.20
   0  -5   5  353.26   21.50
   0   5  -5  360.56   21.70
   0   5   5  348.37   20.30
   0   5   5  359.86   20.20
   0   5   5  360.26   28.00
   0   5   5  368.56   21.40
   0   5  -5  369.16   22.50
   0   5   5  389.56   22.20
   0   5  -5  364.16   28.20
   0   5  -5  363.86   20.60
  -1  -5  -5  120.69    9.60
   1  -5   5  120.99   10.50
   1  -5   5  119.19    9.30
  -1  -5  -5  130.29   11.50
   1  -5   5  126.39    9.30
   1  -5   5  121.19   10.40
  -1   5  -5  106.39   10.30
   1   5   5  114.79   10.30
   1   5   5  108.09   10.00
   1   5   5  100.09    8.70
   1   5   5  135.69   10.30
   1   5   5  101.89    9.30
  -1   5  -5  110.39   14.30
  -2  -5  -5   54.39    9.30
   2  -5   5   46.80    7.80
   2  -5   5   52.49    7.50
   2  -5   5   46.80    7.00
   2  -5   5   67.09    8.90
   2   5   5   73.89   12.20
  -2   5  -5   81.69   12.90
   2   5   5   48.10    7.30
  -2   5  -5   59.59    8.50
   2   5   5   76.99    9.00
   2   5   5   70.99    9.50
   2   5   5   65.89    8.40
   3  -5   5  187.78   14.80
   3  -5   5  208.98   15.10
  -3  -5  -5  200.18   17.40
   3  -5   5  206.78   16.50
   3   5   5  179.68   15.40
   3   5   5  178.08   15.20
   3   5   5  179.98   14.30
  -3   5  -5  177.48   14.40
   4  -5   5  142.79   14.70
  -4  -5  -5  128.89   16.30
  -4   5  -5  111.69   12.10
   4   5   5  126.09   13.40
   4   5   5  128.89   14.40
   4   5   5  122.09   12.30
  -5  -5  -5  165.48   17.00
  -5  -5  -5  177.68   19.90
   5  -5   5  172.98   18.40
  -5   5  -5  158.68   15.70
   5   5   5  165.78   16.60
   5   5   5  178.18   16.00
   5   5   5  164.38   17.80
  -5  -6   5    8.70    6.30
  -5  -6   5   11.30    7.90
   5  -6  -5    4.60    7.90
  -5   6   5   21.30   16.90
  -5   6   5    3.50    6.30
   5   6  -5   37.90   24.00
   5   6  -5    8.40    7.90
   5   6  -5   12.80    7.30
  -4  -6   5   11.80    7.60
  -4  -6   5   20.00    6.50
   4  -6  -5   23.90    8.30
  -4   6   5   38.80   15.00
  -4   6   5   11.50    6.50
   4   6  -5   12.60    8.10
   4   6  -5   12.30   20.30
   3  -6  -5  182.18   15.10
  -3  -6   5  198.28   15.00
   3  -6  -5  202.78   16.70
  -3  -6   5  214.78   16.60
  -3   6   5  220.68   24.70
   3   6  -5  196.98   16.10
  -3   6   5  204.38   15.00
   3   6  -5  243.18   26.80
   2  -6  -5  302.37   20.90
   2  -6  -5  281.97   20.20
  -2  -6   5  276.07   19.70
  -2  -6   5  290.27   19.20
   2   6  -5  342.27   30.10
   2   6  -5  335.17   20.70
  -2   6   5  347.07   29.10
   2   6  -5  287.77   20.20
   2   6  -5  318.47   20.40
  -2   6   5  310.27   18.90
  -1  -6   5  236.38   17.30
   1  -6  -5  258.77   18.50
  -1  -6   5  240.88   16.60
   1   6  -5  271.87   26.00
   1   6  -5  272.47   17.40
  -1   6   5  297.07   26.60
  -1   6   5  266.87   16.00
   1   6  -5  268.97   18.40
  -1   6   5  280.47   17.20
   0  -6  -5    9.70    6.00
   0  -6   5   13.60    4.40
   0  -6   5   12.90    5.30
   0  -6   5   11.70    4.00
   0   6  -5   15.60    9.40
   0   6  -5    7.40    5.30
   0   6   5   14.10    5.30
   0   6   5   22.60   10.00
   1  -6   5   92.09   10.10
  -1  -6  -5   85.09    9.20
  -1  -6  -5   98.19   11.90
   1  -6   5   92.89    8.80
   1  -6   5   89.09    9.30
   1   6   5  120.29    9.40
   1   6   5  108.79   10.00
  -1   6  -5  130.99   16.90
   1   6   5  109.89   10.40
  -1   6  -5  107.39   11.00
   1   6   5  117.09    9.80
   2  -6   5  407.56   29.10
  -2  -6  -5  451.25   30.20
   2  -6   5  445.96   28.30
  -2  -6  -5  416.06   28.30
   2   6   5  500.85   29.00
   2   6   5  501.65   29.00
   2   6   5  517.25   28.70
  -2   6  -5  556.34   37.40
  -2   6  -5  494.35   29.40
   2   6   5  567.64   38.60
   2   6   5  525.65   30.20
  -3  -6  -5   96.09   14.00
  -3  -6  -5  107.39   13.00
   3  -6   5  112.79   12.70
   3   6   5   98.99   11.90
  -3   6  -5  102.69   12.20
   3   6   5  118.89   13.60
   3   6   5   96.19   10.70
  -4  -6  -5    2.80    7.30
  -4  -6  -5    5.00   10.60
   4  -6   5    5.90    6.90
  -4   6  -5   12.40    7.50
   4   6   5   11.70    7.40
   4   6   5    9.50    7.30
  -5  -6  -5   32.30   13.00
  -5  -6  -5   38.10   11.40
   5  -6   5   48.30   10.70
  -5   6  -5   29.80    8.90
   5   6   5   40.60   11.30
   5   6   5   33.10    9.80
   5   6   5   47.20   10.90
  -5  -7   5  100.19   13.50
   5  -7  -5   66.49   13.30
  -5  -7   5   99.99   14.80
   5   7  -5   65.69   14.10
  -5   7   5   87.99   12.70
   4  -7  -5  233.88   21.60
  -4  -7   5  237.08   19.40
  -4  -7   5  227.78   18.40
  -4   7   5  288.37   29.90
   4   7  -5  206.18   20.00
  -4   7   5  191.38   17.50
   4   7  -5  268.47   33.60
  -3  -7   5   57.39    9.90
   3  -7  -5   51.69   10.90
  -3  -7   5   61.59   11.10
   3   7  -5   30.10    9.00
  -3   7   5   90.39   18.70
   2  -7  -5    3.00    6.50
  -2  -7   5    2.90    5.90
  -2  -7   5    0.40    6.20
   2   7  -5   -2.00    5.10
   2   7  -5   20.90   12.70
  -2   7   5   20.30   11.50
   1  -7  -5  318.07   21.50
  -1  -7   5  297.07   20.10
  -1  -7   5  298.67   19.00
   1   7  -5  305.97   30.10
  -1   7   5  315.97   30.20
   1   7  -5  265.97   19.90
   1   7  -5  275.87   18.90
  -1   7   5  283.87   18.80
   0  -7   5  377.56   21.50
   0  -7   5  338.77   22.10
   0  -7  -5  349.27   23.10
   0   7   5  315.27   21.30
   0   7  -5  294.67   30.40
   0   7  -5  307.47   21.50
   1  -7   5  128.89   12.50
   1  -7   5  128.69   11.30
  -1  -7  -5  114.29   14.30
  -1   7  -5  154.08   20.30
  -1   7  -5   99.89   12.40
   1   7   5  123.89   12.70
   1   7   5  147.39   21.10
   2  -7   5   52.89    9.20
  -2  -7  -5   51.49   11.40
  -2   7  -5   44.80    8.90
   2   7   5   70.09   11.20
   2   7   5   38.30    7.10
   3  -7   5  194.08   16.30
  -3  -7  -5  180.48   16.00
   3  -7   5  187.48   20.60
  -3  -7  -5  173.58   18.70
   3   7   5  172.98   15.30
  -3   7  -5  157.08   15.30
   3   7   5  176.38   16.60
   3   7   5  174.48   15.80
  -4  -7  -5   55.89   11.20
  -4  -7  -5   92.79   15.60
   4  -7   5   79.79   12.20
   4   7   5  125.79   16.60
   4   7   5  100.29   13.40
  -4   7  -5   90.89   13.20
   4   7   5   73.89   11.80
  -3  -8   5   48.00   10.40
  -3  -8   5   49.80    9.30
   3  -8  -5   73.99   14.30
  -3   8   5   32.10    6.20
   3   8  -5   26.20    8.90
  -2  -8   5  101.99   12.60
  -2  -8   5   72.79   12.10
   2  -8  -5   80.69   13.70
  -2   8   5  120.99   22.70
   2   8  -5  116.49   22.50
   1  -8  -5   15.20    9.40
  -1  -8   5   12.10    7.60
  -1   8   5   39.90   16.90
   1   8  -5   43.40   16.50
   0  -8  -5   11.10    8.80
   0  -8   5   18.90    7.50
   0   8   5   53.39   17.40
   0   8   5   14.40    6.50
   0   8  -5   30.00    7.00
   1  -8   5  184.88   18.10
  -1  -8  -5  127.49   15.70
   1  -8   5  137.79   14.20
   1   8   5  111.89   13.00
  -1   8  -5  114.99   13.60
   2  -8   5   38.20    8.30
  -2  -8  -5   52.39   12.40
   2   8   5   81.29   12.40
  -2   8  -5   54.59    9.80
  -3  -8  -5   77.59   15.80
   3  -8   5   60.69   10.50
  -3  -8  -5   53.69   10.90
  -3  -8  -5   49.10    9.20
   3   8   5   69.89   13.30
   3   8   5   65.89   12.50
  -3   8  -5   53.29   11.00
  -2  -9   5    4.20    5.10
  -2  -9   5   -3.60    7.90
   2  -9  -5    9.50    9.60
  -1   9   5  211.68   27.60
   1   9  -5  188.48   25.80
   0   9  -5  324.87   30.30
   0   9   5  334.17   31.90
   1  -9   5   60.29    9.60
  -1  -9  -5   99.19   15.30
  -1   9  -5   76.79   11.80
   1   9   5   89.89   12.70
   6   0  -6    0.30   17.80
   6   0  -6    0.60    6.30
  -6   0   6   -0.40    4.30
  -6   0   6   -3.60   14.10
   5   0  -6   22.60    6.90
   5   0  -6   30.60    4.00
  -5   0   6   26.60   13.40
   5   0  -6   31.90    6.50
   5   0  -6   24.00   16.10
  -5   0   6   37.30    5.00
  -5   0   6   34.10    6.30
  -4   0   6  312.77   18.30
   4   0  -6  308.47   17.20
  -4   0   6  290.27   27.00
   4   0  -6  300.57   18.30
   4   0  -6  304.27   16.60
  -4   0   6  295.87   17.00
   4   0  -6  309.87   17.90
   4   0  -6  284.87   28.20
   3   0  -6  410.86   21.80
   3   0  -6  412.76   22.00
   3   0  -6  399.06   31.20
   3   0  -6  405.46   22.40
  -3   0   6  413.86   21.50
   3   0  -6  401.36   22.80
  -3   0   6  416.66   21.80
  -3   0   6  407.66   22.70
  -2   0   6  121.39    7.70
   2   0  -6  116.79    8.70
  -2   0   6  121.29    7.30
   2   0  -6  118.09    7.00
   2   0  -6  127.19    8.70
   2   0  -6  115.69   14.40
  -2   0   6  118.89    7.60
  -2   0   6  122.59    8.50
   2   0  -6  125.79    8.60
  -1   0   6  281.17   14.90
   1   0  -6  273.37   16.10
  -1   0   6  255.57   16.40
  -1   0   6  275.27   15.70
   1   0  -6  271.77   15.70
   1   0  -6  269.57   16.10
  -1   0   6  280.87   15.20
   1   0  -6  281.57   14.20
   1   0  -6  269.77   20.00
  -1   0   6  245.68   15.50
   0   0   6 1021.10   56.69
   0   0   6 1110.19   55.49
   0   0  -6 1029.00   55.29
   0   0  -6 1123.79   54.89
   0   0  -6 1056.89   57.09
   0   0   6 1130.79   54.79
   0   0  -6 1093.19   54.19
   0   0   6 1080.59   55.39
   0   0   6 1068.19   54.79
   0   0   6 1059.19   54.99
  -1   0  -6 1603.84   86.19
   1   0   6 1650.73   86.49
   1   0   6 1701.03   86.19
  -1   0  -6 1812.42   85.59
   1   0   6 1675.43   85.89
   1   0   6 1729.23   86.09
   1   0   6 1803.92   86.79
   2   0   6  330.97   19.50
   2   0   6  326.67   19.50
   2   0   6  328.27   19.00
  -2   0  -6  319.37   18.70
   2   0   6  320.47   19.30
   2   0   6  302.27   19.00
  -2   0  -6  334.27   18.00
  -2   0  -6  307.97   19.20
   2   0   6  337.97   18.40
  -3   0  -6   23.30    4.10
  -3   0  -6   27.30    6.20
   3   0   6   24.50    5.50
   3   0   6   24.80    5.10
   3   0   6   24.40    5.20
   3   0   6   26.60    6.10
   3   0   6   26.10    4.30
   4   0   6  133.19   11.40
   4   0   6  121.89   12.50
   4   0   6  117.09   12.20
  -4   0  -6  112.99   12.50
   4   0   6  118.79   10.60
  -5   0  -6  260.27   21.00
   5   0   6  242.88   20.60
   5   0   6  280.47   19.60
   5   0   6  289.57   21.30
  -6   0  -6  101.39   15.20
   6   0   6  111.29   15.40
   6   0   6  134.19   16.60
   6   0   6  117.99   12.90
   7  -1  -6   85.69   11.60
  -7  -1   6   73.99   10.30
  -7  -1   6   98.19   26.60
  -7   1   6   82.89   11.20
  -7   1   6  101.49   24.60
   6  -1  -6  416.76   25.60
  -6  -1   6  396.06   23.80
  -6  -1   6  382.36   39.00
  -6  -1   6  430.16   25.60
   6  -1  -6  456.75   41.00
   6   1  -6  403.06   26.30
   6   1  -6  410.36   25.30
   6   1  -6  385.26   40.50
  -6   1   6  399.36   25.20
  -6   1   6  427.86   39.40
   5  -1  -6  123.79    8.30
   5  -1  -6  120.29   10.80
  -5  -1   6  120.19    9.30
  -5  -1   6  120.09    9.40
  -5  -1   6  111.39   10.20
   5  -1  -6  111.59   10.30
   5  -1  -6  117.09   22.50
   5   1  -6  116.09   11.10
   5   1  -6  120.09   10.40
   5   1  -6  110.89   23.60
  -5   1   6  115.69   10.00
   5   1  -6  116.99   10.00
  -5   1   6  119.69   20.60
  -4  -1   6   39.60    5.10
   4  -1  -6   39.20    6.40
   4  -1  -6   30.30    4.00
   4  -1  -6   30.20    5.00
  -4  -1   6   30.00    5.20
   4  -1  -6   27.40   12.80
  -4  -1   6   38.20    4.90
   4   1  -6   28.40    4.20
   4   1  -6   26.10    5.60
  -4   1   6   32.60    5.30
   4   1  -6   28.20    5.20
   4   1  -6   22.50    3.30
  -4   1   6   22.60    3.20
   4   1  -6   20.40   12.00
  -4   1   6   21.70   10.80
   3  -1  -6  201.88   11.80
  -3  -1   6  202.68   12.50
   3  -1  -6  187.38   20.00
   3  -1  -6  209.18   12.10
  -3  -1   6  194.68   11.50
  -3  -1   6  193.58   11.60
   3  -1  -6  190.68   12.40
   3  -1  -6  203.58   11.80
   3   1  -6  177.08   10.80
   3   1  -6  185.78   12.50
  -3   1   6  194.08   10.80
   3   1  -6  189.28   11.30
   3   1  -6  169.68   19.80
  -3   1   6  180.78   11.00
  -3   1   6  194.78   10.30
   3   1  -6  189.78   13.00
  -3   1   6  179.68   18.90
   3   1  -6  187.68   12.10
  -3   1   6  183.08   12.10
   2  -1  -6  453.75   23.70
  -2  -1   6  446.66   22.50
  -2  -1   6  442.16   22.70
   2  -1  -6  453.65   23.30
   2  -1  -6  460.35   22.60
   2  -1  -6  453.95   23.40
  -2  -1   6  467.85   23.00
   2  -1  -6  438.66   30.10
  -2  -1   6  438.46   23.30
  -2   1   6  413.96   21.60
   2   1  -6  392.36   29.60
   2   1  -6  374.56   22.80
  -2   1   6  414.96   22.20
  -2   1   6  420.16   23.60
  -2   1   6  390.76   28.70
   2   1  -6  393.36   23.50
   2   1  -6  403.26   23.60
  -1  -1   6  275.77   15.70
   1  -1  -6  286.07   15.40
  -1  -1   6  284.97   16.00
   1  -1  -6  279.17   16.60
   1  -1  -6  282.57   16.40
  -1  -1   6  278.37   15.60
   1  -1  -6  285.27   15.90
   1  -1  -6  262.57   20.30
  -1  -1   6  272.27   15.80
  -1   1   6  279.57   19.90
  -1   1   6  285.47   15.00
   1   1  -6  278.17   20.60
  -1   1   6  284.97   16.40
   1   1  -6  293.37   16.30
   1   1  -6  270.87   16.70
  -1   1   6  302.97   16.80
   1   1  -6  277.77   16.60
   0  -1   6  233.78   12.10
   0  -1  -6  240.38   13.80
   0  -1   6  224.68   13.10
   0  -1  -6  239.58   13.60
   0  -1  -6  205.58   12.70
   0  -1   6  241.18   13.70
   0  -1   6  224.28   13.50
   0  -1   6  232.28   13.20
   0   1  -6  214.48   13.90
   0   1   6  217.58   12.70
   0   1  -6  208.58   12.00
   0   1  -6  214.68   13.40
   0   1   6  202.98   14.80
   0   1   6  196.98   13.10
   0   1   6  199.28   13.10
   0   1  -6  191.18   13.20
   0   1   6  212.98   13.30
   0   1  -6  193.58   14.90
   1  -1   6  174.08   11.20
  -1  -1  -6  175.28   12.40
   1  -1   6  171.98   11.90
   1  -1   6  190.28   12.40
  -1  -1  -6  180.98   12.10
   1  -1   6  178.48   12.30
   1  -1   6  162.38   11.10
  -1  -1  -6  195.58   10.90
  -1   1  -6  189.38   11.80
  -1   1  -6  189.58   11.50
   1   1   6  189.28   11.70
   1   1   6  186.78   12.30
   1   1   6  187.28   11.80
   1   1   6  187.68   11.60
  -1   1  -6  194.78   12.40
   1   1   6  183.78   12.10
   1   1   6  188.48   11.80
   2  -1   6   58.49    6.20
   2  -1   6   55.29    5.60
   2  -1   6   62.39    5.10
   2  -1   6   54.49    6.60
  -2  -1  -6   65.79    4.70
  -2  -1  -6   49.20    5.80
  -2  -1  -6   58.49    7.40
   2  -1   6   55.09    6.80
   2  -1   6   44.90    6.10
   2   1   6   51.49    6.10
   2   1   6   57.79    5.70
   2   1   6   55.89    6.20
  -2   1  -6   60.29    6.10
   2   1   6   56.09    7.60
   2   1   6   51.29    5.90
  -2   1  -6   49.70    5.60
   2   1   6   55.59    6.60
   3  -1   6  479.75   26.90
   3  -1   6  489.55   27.90
   3  -1   6  505.25   25.60
   3  -1   6  485.65   27.60
  -3  -1  -6  459.45   27.90
   3   1   6  444.06   28.00
  -3   1  -6  482.05   26.20
   3   1   6  474.75   27.60
   3   1   6  457.75   26.90
   3   1   6  458.95   26.80
   3   1   6  465.15   26.60
   4  -1   6   96.69   11.00
   4  -1   6   87.99   10.60
   4  -1   6   74.29    9.20
  -4  -1  -6   75.99   11.10
   4  -1   6   94.99    9.40
   4   1   6   88.79    8.80
   4   1   6   94.59   10.50
   4   1   6   97.09   11.80
   4   1   6  104.89    9.40
   4   1   6   94.59    9.60
  -4   1  -6  100.89    8.90
   5  -1   6    8.30    6.30
  -5  -1  -6    9.40    8.10
   5  -1   6    5.70    7.00
   5   1   6    4.00    6.60
  -5   1  -6    7.90    8.20
   5   1   6    1.00    7.30
   5   1   6    7.50    7.20
   6  -1   6   32.40   10.60
   6  -1   6   35.00   10.50
  -6  -1  -6   30.60   11.30
   6   1   6   34.30    9.50
  -6   1  -6   31.10   11.40
   6   1   6   24.30   10.40
   6   1   6   32.10    9.90
  -7  -2   6   85.29   11.70
  -7  -2   6   73.19   23.10
   7  -2  -6   79.89   11.40
  -7   2   6   48.20   21.10
   7   2  -6   66.99   11.90
  -7   2   6   59.89   10.40
  -6  -2   6    5.40    4.10
  -6  -2   6    3.50    6.10
   6  -2  -6    7.50    6.20
  -6  -2   6    4.20    4.70
   6  -2  -6    8.60    7.50
   6   2  -6    6.90    5.50
   6   2  -6   19.40   22.50
  -6   2   6    9.30    6.70
   6   2  -6    5.60    7.30
  -6   2   6   -4.10   15.20
   6   2  -6    4.00    4.70
   5  -2  -6   63.99    8.80
   5  -2  -6   59.39    8.80
  -5  -2   6   75.99    9.50
  -5  -2   6   63.99    7.80
  -5  -2   6   63.69    7.40
   5   2  -6   73.99   10.30
   5   2  -6   56.49   21.50
  -5   2   6   58.99    8.10
   5   2  -6   85.09    9.60
  -5   2   6   72.89   18.30
  -4  -2   6  287.47   17.40
   4  -2  -6  306.37   18.30
   4  -2  -6  291.97   18.20
   4  -2  -6  300.27   17.20
  -4  -2   6  303.27   17.70
  -4  -2   6  275.37   18.10
  -4   2   6  302.57   18.00
   4   2  -6  282.17   18.90
  -4   2   6  327.37   28.30
   4   2  -6  284.97   17.90
   4   2  -6  286.67   16.80
   4   2  -6  270.37   28.80
   3  -2  -6  232.88   16.30
  -3  -2   6  213.58   12.50
   3  -2  -6  216.88   13.00
   3  -2  -6  223.58   12.80
  -3  -2   6  228.38   12.80
   3  -2  -6  211.78   13.40
  -3  -2   6  220.48   13.20
   3   2  -6  164.08   19.10
   3   2  -6  186.58   11.90
   3   2  -6  184.78   13.10
  -3   2   6  175.98   12.90
  -3   2   6  168.48   19.20
   3   2  -6  173.48   13.30
   3   2  -6  184.88   12.50
   2  -2  -6   11.30    3.40
   2  -2  -6   16.70    3.30
   2  -2  -6   15.60    3.50
  -2  -2   6   18.10    3.40
  -2  -2   6   18.20    3.70
  -2  -2   6   18.60    3.40
   2  -2  -6   18.70    4.20
  -2   2   6   23.70    2.50
   2   2  -6   22.10    3.60
  -2   2   6   32.10    5.10
   2   2  -6   21.30    8.40
   2   2  -6   17.50    4.30
   2   2  -6   20.20    4.30
   2   2  -6   25.20    4.50
  -2   2   6   24.70    3.80
  -2   2   6   26.60    7.70
   1  -2  -6  167.78   10.90
  -1  -2   6  174.78   10.50
   1  -2  -6  181.88   11.20
   1  -2  -6  174.48   10.00
  -1  -2   6  177.28   10.50
  -1  -2   6  171.58   10.20
  -1  -2   6  171.88   10.20
   1   2  -6  138.69   14.40
   1   2  -6  151.08   11.10
   1   2  -6  156.18   11.30
   1   2  -6  160.58   10.60
  -1   2   6  138.89   10.60
  -1   2   6  146.49   10.40
  -1   2   6  159.78    9.40
   1   2  -6  157.08   10.50
  -1   2   6  149.09   14.10
  -1   2   6  161.28    8.80
   0  -2  -6  321.17   18.40
   0  -2   6  316.37   18.30
   0  -2   6  347.07   17.10
   0  -2  -6  332.57   18.60
   0  -2   6  319.57   18.50
   0  -2   6  332.67   18.20
   0  -2   6  339.07   18.50
   0  -2  -6  358.06   17.20
   0  -2   6  334.37   17.70
   0  -2  -6  332.37   18.80
   0   2   6  318.17   17.40
   0   2   6  309.27   21.10
   0   2  -6  301.87   18.50
   0   2  -6  309.07   18.90
   0   2   6  306.47   18.40
   0   2  -6  263.77   18.00
   0   2   6  307.87   18.50
   0   2   6  314.67   17.60
   1  -2   6  585.64   32.70
   1  -2   6  556.44   33.80
  -1  -2  -6  577.04   33.70
   1  -2   6  588.94   32.70
   1  -2   6  572.84   33.40
   1  -2   6  583.54   33.60
  -1  -2  -6  561.34   33.70
  -1   2  -6  685.03   33.80
   1   2   6  691.63   33.50
   1   2   6  688.93   34.30
  -1   2  -6  617.74   35.00
   1   2   6  685.83   33.40
   1   2   6  680.73   33.90
   1   2   6  682.43   34.00
  -1   2  -6  683.63   34.20
   2  -2   6  224.28   16.50
   2  -2   6  276.57   17.50
   2  -2   6  263.07   17.80
   2  -2   6  272.07   15.20
  -2  -2  -6  286.17   18.20
   2  -2   6  264.57   16.70
   2   2   6  263.07   16.50
   2   2   6  269.97   16.90
   2   2   6  279.87   16.90
   2   2   6  305.97   18.20
   2   2   6  270.97   16.70
  -2   2  -6  309.07   16.60
  -2   2  -6  266.57   16.50
   3  -2   6    1.50    3.60
   3  -2   6   -1.40    3.90
  -3  -2  -6    0.50    5.40
   3  -2   6   -0.70    3.40
   3  -2   6    1.80    3.80
   3   2   6    0.60    3.20
   3   2   6    1.10    2.70
  -3   2  -6   -1.60    3.30
   3   2   6    1.60    3.90
   3   2   6    2.10    3.10
   4  -2   6  146.59   13.40
   4  -2   6  137.49   12.90
   4  -2   6  164.08   12.40
  -4   2  -6  129.29   11.20
   4   2   6  123.49   11.00
   4   2   6  120.59   11.60
   4   2   6  119.79   12.80
   5  -2   6  224.48   16.40
   5  -2   6  218.88   19.20
   5  -2   6  208.98   18.40
   5   2   6  222.58   18.80
   5   2   6  225.58   17.20
  -5   2  -6  202.48   15.50
   6  -2   6  101.79   15.00
   6  -2   6  130.69   15.50
   6   2   6  141.69   15.30
   6   2   6  123.09   16.10
   7  -3  -6   46.60    9.70
  -7  -3   6   39.30    9.50
   7  -3  -6   34.40    9.60
  -7  -3   6   38.60    8.30
  -7  -3   6   51.89    8.80
  -7   3   6   45.90    9.70
   7   3  -6   33.50   10.10
   7   3  -6   56.29   10.40
  -6  -3   6  203.58   15.80
  -6  -3   6  213.48   17.40
  -6  -3   6  212.78   15.20
   6  -3  -6  206.68   16.50
   6  -3  -6  206.88   17.50
  -6   3   6  192.38   15.90
   6   3  -6  178.68   32.00
   6   3  -6  194.78   15.90
  -6   3   6  200.38   28.50
   6   3  -6  198.58   18.20
   5  -3  -6   96.89   10.70
  -5  -3   6  107.29   10.00
  -5  -3   6  104.79   10.50
  -5  -3   6   93.89   11.40
   5  -3  -6  109.09   11.50
   5   3  -6  124.59   28.10
   5   3  -6  105.59   12.80
   5   3  -6  113.09   10.40
   5   3  -6  107.59   11.20
  -5   3   6  106.69   21.00
  -5   3   6   93.79   10.20
  -4  -3   6   27.50    5.90
   4  -3  -6   29.00    6.20
  -4  -3   6   25.50    5.10
  -4  -3   6   27.90    5.60
   4  -3  -6   23.80    4.60
   4  -3  -6   28.90    6.30
  -4   3   6   19.70    5.00
   4   3  -6   23.40   13.70
  -4   3   6   29.20    5.40
   4   3  -6   22.10    6.30
   4   3  -6   28.40    4.40
   4   3  -6   26.30    5.50
  -4   3   6   25.60   11.50
  -3  -3   6   68.09    6.80
  -3  -3   6   66.09    6.60
   3  -3  -6   64.59    7.20
  -3  -3   6   61.59    6.90
   3   3  -6   63.59    8.40
  -3   3   6   62.49   11.20
  -3   3   6   57.59    6.30
   3   3  -6   58.59    6.80
   3   3  -6   56.69   14.10
  -3   3   6   56.69    7.00
  -2  -3   6  695.23   37.50
  -2  -3   6  708.83   37.40
   2  -3  -6  720.43   37.60
  -2  -3   6  706.03   37.30
   2  -3  -6  693.03   37.70
   2  -3  -6  729.13   37.90
   2  -3  -6  716.13   37.20
  -2  -3   6  698.73   36.80
   2   3  -6  699.23   45.00
  -2   3   6  701.23   44.20
  -2   3   6  746.63   37.60
  -2   3   6  703.93   37.70
   2   3  -6  726.93   37.80
   2   3  -6  738.13   38.20
   2   3  -6  624.64   38.00
   2   3  -6  710.03   37.80
   1  -3  -6  359.36   20.90
   1  -3  -6  366.06   21.40
  -1  -3   6  327.47   20.10
  -1  -3   6  360.06   18.90
   1  -3  -6  350.46   19.90
  -1  -3   6  363.66   20.80
   1  -3  -6  342.07   20.90
  -1  -3   6  353.76   20.60
  -1  -3   6  338.27   20.30
  -1   3   6  404.36   21.30
   1   3  -6  372.66   21.80
  -1   3   6  397.76   21.30
  -1   3   6  389.16   19.40
   1   3  -6  373.96   26.20
  -1   3   6  376.46   26.00
   1   3  -6  378.96   20.90
   1   3  -6  405.06   21.70
   0  -3   6  963.40   46.60
   0  -3   6 1001.80   48.00
   0  -3  -6  987.60   45.90
   0  -3   6  988.20   46.10
   0  -3   6  934.41   47.60
   0  -3  -6  951.20   47.80
   0  -3   6  948.11   47.30
   0  -3  -6  978.00   48.00
   0   3  -6  860.31   47.50
   0   3   6  873.71   46.30
   0   3   6  875.81   46.30
   0   3   6  860.01   51.59
   0   3   6  913.61   47.70
   0   3  -6  823.12   50.99
   0   3  -6  919.41   48.00
   0   3   6  896.61   47.60
   0   3   6  851.71   47.40
   0   3  -6  783.42   47.20
   1  -3   6   41.90    5.90
   1  -3   6   49.70    6.50
  -1  -3  -6   51.09    7.30
   1  -3   6   41.70    4.90
   1  -3   6   45.00    4.30
  -1  -3  -6   47.60    6.20
   1  -3   6   54.19    7.10
   1   3   6   65.19    7.90
   1   3   6   54.99    5.50
   1   3   6   51.99    6.20
  -1   3  -6   55.69    6.90
  -1   3  -6   59.89    7.80
   1   3   6   55.09    5.60
  -1   3  -6   51.59    6.90
   1   3   6   50.09    5.50
   1   3   6   52.29    5.90
  -2  -3  -6  217.78   16.80
   2  -3   6  226.38   16.50
   2  -3   6  234.68   16.20
   2  -3   6  210.68   15.10
   2   3   6  246.48   15.60
  -2   3  -6  286.47   17.30
   2   3   6  237.78   15.80
   2   3   6  281.37   17.90
   2   3   6  231.18   15.80
   2   3   6  248.98   15.90
  -2   3  -6  258.87   16.10
   3  -3   6  883.81   47.60
   3  -3   6  952.60   48.10
  -3  -3  -6  976.80   49.70
   3  -3   6  882.21   48.90
   3  -3   6  999.20   48.90
   3   3   6  807.52   47.10
   3   3   6  892.31   48.20
   3   3   6  834.32   47.80
  -3   3  -6  836.42   47.20
   3   3   6  856.51   47.60
   4  -3   6  265.97   19.00
   4  -3   6  255.47   20.00
  -4  -3  -6  286.57   21.20
   4  -3   6  308.17   18.20
  -4   3  -6  249.28   17.80
   4   3   6  235.98   17.90
   4   3   6  247.48   19.20
   4   3   6  246.78   18.40
   5  -3   6   -1.20    7.10
  -5  -3  -6    1.00    9.70
   5  -3   6   -1.20    7.60
   5   3   6    3.80    7.20
   5   3   6    3.00    5.80
   5   3   6    2.20    6.20
  -5   3  -6    2.20    5.00
   6  -3   6   50.49   10.60
  -6  -3  -6   67.39   14.60
   6  -3   6   59.29   12.40
  -6   3  -6   62.89    9.40
   6   3   6   72.19   12.70
   6  -4  -6   31.00    9.90
   6  -4  -6   30.70    9.60
  -6  -4   6   25.70    8.80
  -6  -4   6   37.10    8.00
  -6  -4   6   39.20    9.10
   6   4  -6   21.60    8.70
   6   4  -6   35.70    9.00
  -6   4   6   36.20    9.10
  -5  -4   6   15.30    5.50
  -5  -4   6   18.10    6.80
   5  -4  -6   11.50    6.70
  -5  -4   6   14.70    6.50
   5  -4  -6   17.20    7.30
   5   4  -6   13.50    6.40
  -5   4   6    8.40    5.60
   5   4  -6   11.60    7.10
  -4  -4   6  385.66   23.60
  -4  -4   6  394.26   23.80
   4  -4  -6  375.36   23.40
   4  -4  -6  375.36   24.00
   4  -4  -6  422.96   25.20
  -4   4   6  432.36   33.80
   4   4  -6  377.66   24.90
   4   4  -6  383.26   37.50
  -4   4   6  393.16   23.90
   4   4  -6  397.36   23.60
   4   4  -6  409.96   25.40
   3  -4  -6  354.26   21.80
   3  -4  -6  357.96   21.70
   3  -4  -6  365.46   21.60
  -3  -4   6  351.56   21.40
  -3  -4   6  355.36   21.20
  -3   4   6  358.76   21.00
   3   4  -6  364.96   22.00
   3   4  -6  335.17   31.50
   3   4  -6  362.66   22.60
  -3   4   6  362.86   21.20
  -3   4   6  365.36   29.40
   3   4  -6  354.86   21.30
   2  -4  -6  124.79    9.50
  -2  -4   6  119.29    9.70
  -2  -4   6  125.89    9.90
   2  -4  -6  128.09   10.80
  -2  -4   6  116.69    9.40
   2  -4  -6  117.49   10.40
   2   4  -6  143.69   11.10
   2   4  -6  133.09   10.90
  -2   4   6  150.88   16.50
  -2   4   6  147.59   10.10
   2   4  -6  110.69   10.40
   1  -4  -6  296.97   17.90
  -1  -4   6  264.97   16.50
  -1  -4   6  248.18   16.00
  -1  -4   6  271.87   17.00
   1  -4  -6  277.57   17.40
   1  -4  -6  280.47   16.00
   1   4  -6  274.77   17.80
  -1   4   6  274.57   23.20
  -1   4   6  285.07   15.10
  -1   4   6  270.37   15.70
   1   4  -6  280.87   17.00
   1   4  -6  271.27   22.90
   1   4  -6  256.47   17.50
  -1   4   6  303.57   17.20
  -1   4   6  304.47   17.50
   0  -4  -6  636.74   34.40
   0  -4   6  613.34   34.10
   0  -4   6  639.24   34.00
   0  -4   6  640.94   32.40
   0  -4   6  666.73   32.70
   0  -4   6  649.34   33.50
   0  -4  -6  667.33   31.90
   0  -4  -6  668.33   34.50
   0   4  -6  558.34   38.50
   0   4  -6  615.14   32.90
   0   4   6  600.64   32.50
   0   4   6  581.54   32.40
   0   4   6  613.04   39.40
   0   4  -6  571.74   33.80
   0   4   6  592.44   31.70
   0   4  -6  627.34   34.60
   0   4   6  629.64   34.20
   0   4   6  612.04   33.90
   1  -4   6  216.08   15.10
   1  -4   6  200.28   14.90
   1  -4   6  206.58   13.80
  -1  -4  -6  207.88   15.60
   1   4   6  235.48   15.10
   1   4   6  247.38   19.80
   1   4   6  244.38   15.30
   1   4   6  240.88   14.40
  -1   4  -6  222.98   14.90
  -1   4  -6  230.38   18.80
   1   4   6  225.38   14.20
   2  -4   6   89.09    9.40
   2  -4   6   75.69    9.80
   2  -4   6   82.89    8.80
   2  -4   6   88.89    8.30
  -2  -4  -6   89.69   11.20
   2   4   6   88.89    8.80
  -2   4  -6   98.99    9.20
   2   4   6   95.49    9.20
  -2   4  -6  112.99   11.80
   2   4   6   92.99    8.60
   2   4   6   89.99    9.20
   3  -4   6   47.30    7.20
  -3  -4  -6   53.59   10.80
   3  -4   6   50.19    7.50
   3  -4   6   44.60    9.00
   3  -4   6   36.90    6.60
   3   4   6   54.79    8.10
   3   4   6   46.80    6.70
   3   4   6   67.09    9.40
   3   4   6   41.50    7.40
  -3   4  -6   50.99    8.20
   4  -4   6  122.99   14.10
  -4  -4  -6  159.88   18.10
   4  -4   6  145.39   13.90
   4   4   6  141.49   13.50
   4   4   6  135.89   13.70
   4   4   6  148.19   14.60
  -4   4  -6  134.29   12.50
   5  -4   6  187.38   18.00
   5  -4   6  177.18   17.90
  -5  -4  -6  208.98   22.00
   5   4   6  182.28   17.30
   5   4   6  210.08   17.90
  -5   4  -6  206.78   16.70
   5   4   6  184.98   17.80
  -6  -5   6  145.19   14.90
  -6  -5   6  145.59   16.50
  -6  -5   6  154.78   14.50
   6  -5  -6  148.49   16.90
  -6   5   6  118.59   13.90
   6   5  -6  111.49   16.40
   5  -5  -6  174.08   15.30
  -5  -5   6  162.78   14.10
   5  -5  -6  202.18   18.20
  -5  -5   6  176.08   15.40
  -5   5   6  153.08   14.40
  -5   5   6  223.68   26.90
   5   5  -6  156.48   16.90
   5   5  -6  167.98   30.90
   4  -5  -6   24.60    7.50
  -4  -5   6   23.90    7.30
   4  -5  -6   19.80    7.30
  -4  -5   6   20.90    5.90
   4   5  -6   30.30   18.90
  -4   5   6   29.10   13.30
  -4   5   6   19.80    5.80
   4   5  -6   18.90    7.60
   3  -5  -6   39.90    6.80
   3  -5  -6   41.70    7.60
  -3  -5   6   38.30    6.70
  -3  -5   6   45.30    7.40
   3  -5  -6   49.40    8.10
   3   5  -6   53.39   15.70
   3   5  -6   39.80    8.00
  -3   5   6   31.30   13.30
   3   5  -6   32.20    7.20
  -3   5   6   43.30    7.10
   3   5  -6   32.80    6.30
  -2  -5   6  499.25   29.20
   2  -5  -6  533.45   30.00
   2  -5  -6  513.75   28.60
   2  -5  -6  507.35   29.90
  -2  -5   6  519.95   29.00
  -2   5   6  500.45   37.80
   2   5  -6  531.15   29.80
   2   5  -6  519.95   29.70
  -2   5   6  496.05   28.20
  -2   5   6  527.75   28.60
   2   5  -6  490.05   37.80
   1  -5  -6  262.77   17.70
  -1  -5   6  268.97   17.20
   1  -5  -6  274.97   17.80
  -1  -5   6  253.77   16.30
  -1  -5   6  260.27   16.10
  -1   5   6  271.37   23.80
  -1   5   6  266.17   16.80
   1   5  -6  265.57   18.00
   1   5  -6  269.27   16.80
   1   5  -6  262.17   24.10
   1   5  -6  249.97   17.50
  -1   5   6  243.88   15.20
   0  -5   6  325.57   20.70
   0  -5  -6  362.26   21.80
   0  -5  -6  345.97   19.20
   0  -5   6  357.56   20.30
   0  -5   6  344.37   19.30
   0  -5   6  345.87   19.30
   0   5  -6  338.67   21.10
   0   5  -6  328.17   21.40
   0   5   6  340.67   21.00
   0   5   6  347.37   20.90
   0   5  -6  325.27   26.90
   0   5   6  338.07   19.30
   0   5  -6  346.67   19.80
   0   5   6  332.47   27.20
   0   5   6  320.27   19.10
   1  -5   6   38.00    6.70
   1  -5   6   51.79    7.10
   1  -5   6   48.10    5.80
  -1  -5  -6   35.80    5.70
  -1  -5  -6   51.19    8.50
   1  -5   6   53.39   10.30
  -1   5  -6   56.49   11.40
   1   5   6   42.20    7.00
  -1   5  -6   48.20    7.80
   1   5   6   49.60    7.30
   1   5   6   50.59    6.70
   1   5   6   36.70    5.80
   2  -5   6  112.09   10.40
   2  -5   6  109.59   10.10
  -2  -5  -6  113.39   13.00
   2  -5   6  109.69   11.60
   2   5   6  118.69   10.60
   2   5   6  118.29   11.20
   2   5   6  121.09   10.70
  -2   5  -6  120.19   11.00
  -2   5  -6  151.68   15.90
   2   5   6  120.19   11.10
  -3  -5  -6  262.77   21.10
   3  -5   6  259.97   20.20
   3  -5   6  261.07   18.40
   3  -5   6  249.18   18.20
   3   5   6  256.67   18.40
   3   5   6  269.07   19.30
   3   5   6  271.07   19.50
  -3   5  -6  261.07   18.30
  -4  -5  -6   99.89   15.40
   4  -5   6   89.79   12.20
   4   5   6  128.19   14.70
  -4   5  -6   99.89   12.00
   4   5   6  119.69   14.70
   4   5   6  113.49   14.60
   5  -5   6    2.80    2.80
   5  -5   6    5.90    8.10
  -5  -5  -6    3.40   11.60
   5   5   6    4.80    7.10
   5   5   6    2.40    7.60
  -5   5  -6    0.40    7.30
   5   5   6    2.20    6.90
   5  -6  -6   14.40    9.50
  -5  -6   6    7.30    8.50
  -5  -6   6   12.40    6.60
  -5   6   6    6.10   19.80
   5   6  -6   69.89   27.20
  -5   6   6   18.00    7.80
   5   6  -6   15.40    8.60
  -4  -6   6  135.39   12.50
   4  -6  -6  145.19   15.20
  -4  -6   6  139.99   13.80
   4   6  -6  132.59   28.20
  -4   6   6  126.09   12.20
   4   6  -6  125.09   14.80
  -4   6   6  135.89   24.50
   3  -6  -6   99.49    9.60
  -3  -6   6   91.79    9.90
  -3  -6   6  104.19   11.80
   3  -6  -6   98.59   12.60
  -3   6   6   92.69    9.90
   3   6  -6   63.59   10.60
   3   6  -6   89.59   11.90
  -3   6   6  105.89   19.10
   2  -6  -6   34.20    8.40
  -2  -6   6   29.30    6.70
  -2  -6   6   30.90    6.30
   2  -6  -6   24.50    5.70
   2   6  -6   17.30    5.50
   2   6  -6   17.30    6.60
  -2   6   6   31.50   10.70
  -2   6   6   24.10    6.90
  -2   6   6   18.40    4.70
   2   6  -6   42.40   13.80
   2   6  -6   18.30    5.90
  -1  -6   6   13.00    5.30
  -1  -6   6    8.40    4.30
  -1  -6   6    7.60    3.90
   1  -6  -6   11.00    6.20
   1   6  -6    6.00    4.70
   1   6  -6    7.70    5.40
   1   6  -6   20.60   10.70
  -1   6   6    7.80    7.40
  -1   6   6   10.00    4.80
   1   6  -6    0.30    4.60
   0  -6  -6  310.97   21.00
   0  -6   6  288.07   19.70
   0   6  -6  295.17   27.30
   0   6   6  331.07   28.40
   0   6   6  297.57   19.60
   0   6  -6  290.77   19.60
  -1  -6  -6  209.68   14.50
   1  -6   6  197.78   14.50
   1  -6   6  205.08   16.20
   1  -6   6  205.88   14.40
  -1  -6  -6  206.98   17.10
   1   6   6  255.57   23.70
   1   6   6  187.58   15.70
  -1   6  -6  224.08   22.30
   1   6   6  207.58   14.20
  -1   6  -6  188.58   15.40
   1   6   6  195.18   14.30
   1   6   6  200.08   15.80
   2  -6   6   50.49    7.50
  -2  -6  -6   49.30   10.60
   2  -6   6   40.70    8.30
   2   6   6   60.69    8.60
   2   6   6   60.99    9.60
   2   6   6   48.10    6.30
  -2   6  -6   42.50    8.20
   2   6   6   53.69    8.40
  -3  -6  -6   22.60   10.70
  -3  -6  -6   23.10    8.20
  -3   6  -6   24.40    7.50
   3   6   6   34.20    7.90
   3   6   6   24.70    8.00
   3   6   6   21.60    7.60
  -4  -6  -6   23.00    8.90
   4  -6   6   37.00    9.50
  -4  -6  -6   38.30   13.10
  -4   6  -6   34.20    8.40
   4   6   6   32.30    9.50
   4   6   6   34.20    9.70
   4   6   6   49.80   10.10
   5  -7  -6   73.99   13.70
  -5  -7   6   78.59   11.80
  -5  -7   6   89.29   13.60
  -5   7   6   94.99   12.80
   5   7  -6   55.99   11.80
  -4  -7   6    9.20    8.70
   4  -7  -6   13.10    9.20
  -4  -7   6   12.50    7.50
   4   7  -6   11.90    9.10
   4   7  -6   26.60   24.40
  -4   7   6   15.50    7.00
   3  -7  -6    9.80    8.50
  -3  -7   6   11.80    7.30
  -3  -7   6    9.50    6.50
   3   7  -6   13.60    7.90
  -3   7   6    7.60    5.20
  -3   7   6   44.40   15.10
  -2  -7   6  179.38   15.40
   2  -7  -6  174.98   16.60
  -2  -7   6  154.58   13.70
   2   7  -6  210.88   24.30
   1  -7  -6  268.47   20.70
  -1  -7   6  269.67   19.90
  -1  -7   6  262.57   18.30
  -1   7   6  264.37   18.20
   1   7  -6  291.17   29.40
  -1   7   6  316.47   30.50
   1   7  -6  254.07   19.20
   0  -7  -6  116.19   13.70
   0  -7   6   93.19   10.10
   0  -7   6   92.59   12.00
   0   7   6   90.89   10.60
   0   7  -6  133.49   20.60
   0   7   6  148.59   21.80
   0   7  -6  120.29   12.20
   1  -7   6   39.00    8.60
  -1  -7  -6   47.80   10.80
   1  -7   6   38.90    6.90
   1   7   6   40.00    8.10
  -1   7  -6   31.50    7.90
  -2  -7  -6   66.29   13.00
  -2  -7  -6   47.50    8.80
   2  -7   6   62.99    9.00
  -2   7  -6   55.89    9.90
   2   7   6   83.59   12.40
   2   7   6   70.99    9.60
   2   7   6   66.69   10.00
  -3  -7  -6  122.89   17.00
  -3  -7  -6  118.79   13.50
   3  -7   6  122.99   14.30
   3   7   6  120.89   13.90
   3   7   6  124.79   15.20
  -3   7  -6  134.89   14.60
   3   7   6  112.39   12.20
  -4  -7  -6   52.39   11.80
   4  -7   6   74.79   12.60
  -4  -7  -6   79.09   15.80
   4   7   6  116.09   16.40
   4   7   6   73.29   11.40
  -4   7  -6   66.89   11.40
   4   7   6   72.69   11.80
  -3  -8   6   62.19   10.90
   3  -8  -6   58.59   13.00
  -3  -8   6   60.69   12.70
   3   8  -6   45.60   10.20
  -2  -8   6   22.30    9.20
   2  -8  -6    7.80   10.10
  -2  -8   6   10.60    6.60
  -2   8   6   49.20   17.80
   2   8  -6    8.30    6.00
  -1  -8   6  117.99   12.10
  -1  -8   6  131.39   15.10
   1  -8  -6  147.19   17.30
  -1   8   6  154.38   25.30
   1   8  -6  157.58   24.10
   0  -8   6   86.79   12.70
   0  -8  -6  103.09   15.20
   0   8  -6  146.19   22.30
   0   8  -6  120.09   12.70
   0   8   6   89.89   11.50
   1  -8   6  194.18   17.90
  -1  -8  -6  190.78   19.70
   1   8   6  241.38   24.70
   1   8   6  201.28   17.50
  -1   8  -6  188.68   17.00
  -1   9   6  290.87   31.90
   1   9  -6  322.47   31.00
   0  -9  -6   23.00   12.60
   6   0  -7   67.59    9.80
   6   0  -7   91.99   28.00
  -6   0   7   68.59    9.30
  -6   0   7   73.29   22.60
  -5   0   7   96.49   20.10
  -5   0   7  112.89   10.50
   5   0  -7  103.69    7.80
   5   0  -7  114.79   23.40
   5   0  -7  110.59   11.10
  -4   0   7  279.47   15.60
  -4   0   7  264.67   26.40
   4   0  -7  279.77   16.10
   4   0  -7  272.07   28.20
  -4   0   7  277.67   15.90
  -4   0   7  277.87   17.40
   4   0  -7  281.17   17.50
   3   0  -7   37.90   11.40
   3   0  -7   39.20    5.20
   3   0  -7   39.90    5.10
  -3   0   7   35.60    9.80
   3   0  -7   27.20    3.70
  -3   0   7   46.00    6.00
  -3   0   7   38.50    3.70
  -3   0   7   39.20    4.10
   3   0  -7   39.10    6.00
  -2   0   7  457.05   24.70
   2   0  -7  443.76   22.80
   2   0  -7  444.66   31.80
   2   0  -7  441.66   24.70
   2   0  -7  461.45   24.80
  -2   0   7  451.05   23.30
  -2   0   7  437.66   23.70
   2   0  -7  437.16   24.90
  -1   0   7   41.60    5.20
   1   0  -7   45.40    3.60
  -1   0   7   44.30    5.20
   1   0  -7   40.40    5.70
   1   0  -7   42.70    9.10
   1   0  -7   43.60    5.70
   1   0  -7   43.10    5.30
  -1   0   7   45.10    4.50
   0   0  -7  541.45   27.70
   0   0  -7  508.25   30.20
   0   0   7  504.05   27.70
   0   0   7  509.45   27.50
   0   0   7  482.15   29.50
   0   0   7  481.85   28.00
   0   0  -7  512.95   26.80
   0   0   7  523.45   27.40
  -1   0  -7   65.29    7.50
   1   0   7   78.29    7.20
   1   0   7   77.09    7.00
   1   0   7   75.09    7.10
   1   0   7   67.99    6.70
  -1   0  -7   69.29    6.40
  -1   0  -7   77.69    7.10
   1   0   7   80.99    7.80
  -2   0  -7    8.40    4.80
   2   0   7    9.80    3.80
   2   0   7    8.90    3.20
   2   0   7    9.50    4.50
   2   0   7   10.50    4.10
   2   0   7    9.40    4.00
  -2   0  -7   13.40    3.30
  -3   0  -7  474.55   25.80
   3   0   7  480.45   27.80
   3   0   7  479.55   28.30
   3   0   7  463.75   28.10
   3   0   7  486.55   26.50
   3   0   7  470.25   27.30
  -3   0  -7  451.85   28.10
   4   0   7  294.87   20.10
   4   0   7  264.37   20.00
  -4   0  -7  262.17   20.70
   4   0   7  304.87   19.50
   4   0   7  264.37   21.30
   5   0   7   55.29   10.80
   5   0   7   61.39   10.60
   5   0   7   46.50    9.90
  -5   0  -7   51.59   11.20
  -6   0  -7    1.80   10.30
   6   0   7   -0.70    8.50
   6   0   7    1.00    6.60
   6   0   7   -2.80    7.90
   7  -1  -7  158.68   15.60
  -7  -1   7  131.89   12.80
   7   1  -7  153.08   14.20
  -7   1   7  160.18   15.20
   6  -1  -7    5.20    7.00
  -6  -1   7    7.60    6.00
   6  -1  -7    1.30   20.50
  -6  -1   7   -2.20   15.90
   6   1  -7    1.10    5.30
  -6   1   7    2.40   16.00
   6   1  -7    5.50    6.90
   6   1  -7    4.20   21.60
   5  -1  -7   12.60    5.20
   5  -1  -7   15.00   16.80
   5  -1  -7   16.40    3.30
  -5  -1   7   19.30    4.20
   5  -1  -7   19.90    6.90
  -5  -1   7   17.40    4.40
  -5  -1   7   11.60    4.80
   5   1  -7   15.00    5.80
  -5   1   7    8.00   12.50
  -5   1   7    8.30    4.50
   5   1  -7   22.40    6.60
   5   1  -7    7.50   16.50
   4  -1  -7  137.29   21.10
  -4  -1   7  152.08   11.40
   4  -1  -7  147.99   10.70
   4  -1  -7  141.99   11.30
  -4  -1   7  143.69    9.80
  -4  -1   7  149.79   10.20
   4  -1  -7  142.99   10.00
   4   1  -7  162.38   12.50
  -4   1   7  144.79   11.10
   4   1  -7  134.69   21.60
   4   1  -7  145.89   11.40
  -4   1   7  139.59   19.90
   3  -1  -7  233.98   14.90
  -3  -1   7  236.78   14.60
  -3  -1   7  233.98   15.20
  -3  -1   7  239.18   14.30
   3  -1  -7  236.68   15.40
   3  -1  -7  244.58   14.50
   3  -1  -7  228.98   23.70
   3   1  -7  271.67   15.90
  -3   1   7  259.47   15.70
  -3   1   7  264.67   14.00
   3   1  -7  258.97   24.70
  -3   1   7  247.18   22.90
   3   1  -7  266.47   14.90
   3   1  -7  252.87   16.00
  -3   1   7  262.37   14.00
   2  -1  -7 1123.19   55.59
  -2  -1   7 1114.79   54.79
  -2  -1   7 1091.99   54.79
  -2  -1   7 1105.69   54.99
   2  -1  -7 1158.08   54.59
  -2  -1   7 1064.89   55.49
   2  -1  -7 1147.69   55.59
   2  -1  -7 1155.38   56.19
   2  -1  -7 1083.09   62.99
  -2   1   7 1049.20   55.89
  -2   1   7 1095.49   54.59
   2   1  -7  992.00   62.49
  -2   1   7 1046.30   55.39
   2   1  -7 1043.90   55.89
   2   1  -7 1010.50   55.29
  -2   1   7 1033.20   62.09
   1  -1  -7  640.34   31.90
  -1  -1   7  625.34   31.80
   1  -1  -7  624.54   31.30
   1  -1  -7  601.14   37.20
  -1  -1   7  616.24   32.00
   1  -1  -7  579.14   32.60
   1  -1  -7  620.94   32.60
  -1  -1   7  630.64   31.70
  -1  -1   7  600.94   32.20
   1   1  -7  624.54   32.90
  -1   1   7  610.24   31.10
   1   1  -7  561.14   32.30
  -1   1   7  585.14   31.60
   1   1  -7  565.54   36.90
  -1   1   7  606.14   32.70
  -1   1   7  596.14   32.50
   1   1  -7  573.84   32.80
   0  -1   7  243.88   15.50
   0  -1   7  233.28   14.90
   0  -1  -7  256.07   15.90
   0  -1  -7  235.08   14.50
   0  -1   7  237.88   15.20
   0  -1   7  262.47   13.90
   0  -1   7  254.77   15.20
   0  -1  -7  258.37   14.50
   0  -1  -7  232.48   15.30
   0   1   7  260.87   15.60
   0   1   7  251.27   17.50
   0   1   7  253.17   14.80
   0   1   7  246.08   15.30
   0   1  -7  262.37   15.50
   0   1  -7  259.47   16.10
   0   1  -7  223.88   15.10
   0   1   7  252.07   14.50
   0   1  -7  242.98   17.60
   0   1  -7  261.17   13.90
  -1  -1  -7  207.88   11.50
   1  -1   7  175.78   12.30
   1  -1   7  192.48   11.80
   1  -1   7  165.08   12.70
   1  -1   7  178.38   11.80
   1  -1   7  187.58   12.70
  -1  -1  -7  194.48   12.70
  -1   1  -7  203.08   13.20
   1   1   7  175.98   12.60
   1   1   7  180.18   12.10
  -1   1  -7  176.58   11.80
   1   1   7  191.78   12.80
  -1   1  -7  192.98   12.10
   1   1   7  188.88   12.20
   1   1   7  181.18   12.30
   1   1   7  184.98   12.20
   2  -1   7 1142.09   61.09
   2  -1   7 1237.88   61.39
   2  -1   7 1136.19   60.59
  -2  -1  -7 1142.89   58.79
   2  -1   7 1185.08   59.49
   2   1   7 1212.38   60.49
   2   1   7 1110.59   60.49
   2   1   7 1169.78   60.29
  -2   1  -7 1180.18   59.69
  -2   1  -7 1105.19   60.09
   2   1   7 1209.38   60.79
   3  -1   7   53.99    7.60
   3  -1   7   51.69    8.60
  -3  -1  -7   35.30    7.80
   3  -1   7   38.10    6.80
   3   1   7   74.09    8.70
   3   1   7   80.39    9.40
  -3   1  -7   53.59    8.10
  -3   1  -7   64.39    6.90
   3   1   7   59.39    8.80
   3   1   7   50.69    7.10
   3   1   7   65.09    7.00
  -4  -1  -7    9.80    7.30
   4  -1   7    3.90    6.60
   4  -1   7    3.60    5.80
   4  -1   7    8.50    5.30
   4   1   7   11.60    5.60
   4   1   7    6.70    6.20
   4   1   7   12.30    4.80
   4   1   7    9.30    6.30
  -4   1  -7   11.20    7.30
  -4   1  -7   11.20    4.80
   5  -1   7  113.19   14.50
   5  -1   7  139.19   13.60
   5  -1   7  135.99   16.00
  -5  -1  -7  106.09   15.20
  -5   1  -7  101.49   14.30
   5   1   7  121.89   15.60
   5   1   7  134.89   13.90
   5   1   7  125.19   14.50
   6  -1   7  163.78   18.80
   6  -1   7  157.08   17.80
   6  -1   7  164.88   15.20
  -6  -1  -7  145.49   18.50
   6   1   7  166.88   16.60
   6   1   7   98.79   16.10
   6   1   7  175.98   19.10
  -6   1  -7  154.88   18.60
  -7  -2   7   17.00   19.50
  -6  -2   7   82.89   10.50
  -6  -2   7   98.09    9.40
   6  -2  -7   74.39   10.70
   6   2  -7   82.09   28.60
  -6   2   7   68.99   23.10
   6   2  -7   44.50    9.40
  -6   2   7   64.99    9.70
  -5  -2   7  184.58   13.30
  -5  -2   7  199.98   13.30
   5  -2  -7  199.78   15.30
   5  -2  -7  202.68   15.10
  -5  -2   7  186.78   14.80
   5   2  -7  169.58   28.30
   5   2  -7  190.28   16.10
  -5   2   7  198.18   14.10
   5   2  -7  190.68   14.20
  -5   2   7  181.88   26.00
   4  -2  -7  219.88   15.70
   4  -2  -7  223.78   14.60
  -4  -2   7  220.78   14.50
   4  -2  -7  249.58   15.60
  -4  -2   7  218.88   14.40
  -4  -2   7  227.58   15.60
  -4   2   7  239.68   25.10
   4   2  -7  236.48   25.60
   4   2  -7  235.28   15.70
   4   2  -7  232.48   14.60
  -4   2   7  224.28   15.40
   4   2  -7  247.48   17.00
   3  -2  -7  169.08   11.80
  -3  -2   7  166.08   11.30
  -3  -2   7  165.68   11.30
  -3  -2   7  168.08   12.00
   3  -2  -7  170.48   11.50
   3  -2  -7  170.18   12.10
  -3   2   7  165.88   12.40
   3   2  -7  186.28   13.20
  -3   2   7  162.78   18.20
   3   2  -7  194.78   12.50
   3   2  -7  180.38   20.10
   3   2  -7  189.98   12.90
   2  -2  -7  302.77   17.90
   2  -2  -7  266.47   17.90
   2  -2  -7  310.37   18.20
  -2  -2   7  276.97   17.00
   2  -2  -7  294.47   17.40
  -2  -2   7  301.47   17.50
  -2  -2   7  291.57   17.70
  -2  -2   7  296.17   17.60
  -2   2   7  337.97   18.80
   2   2  -7  310.57   17.80
  -2   2   7  323.57   16.70
   2   2  -7  351.56   19.10
   2   2  -7  322.07   25.70
   2   2  -7  324.77   18.60
  -2   2   7  313.37   18.00
  -2   2   7  300.77   24.40
   2   2  -7  299.27   18.70
  -1  -2   7  420.86   21.40
   1  -2  -7  414.06   22.00
  -1  -2   7  405.46   21.50
   1  -2  -7  408.46   21.10
  -1  -2   7  431.86   21.40
   1  -2  -7  401.26   20.80
   1  -2  -7  355.26   21.60
  -1  -2   7  408.46   21.10
  -1   2   7  328.17   25.40
  -1   2   7  325.17   21.50
   1   2  -7  341.37   26.20
  -1   2   7  364.26   20.40
   1   2  -7  351.76   21.30
  -1   2   7  361.26   21.40
   1   2  -7  362.66   22.20
   1   2  -7  366.86   22.20
   0  -2   7  772.12   39.30
   0  -2   7  751.32   40.10
   0  -2  -7  808.12   39.60
   0  -2   7  804.62   41.30
   0  -2   7  764.22   40.70
   0  -2   7  754.12   40.80
   0  -2  -7  765.22   41.20
   0   2  -7  730.43   44.00
   0   2   7  784.32   41.10
   0   2   7  795.92   40.20
   0   2  -7  741.73   41.10
   0   2   7  778.12   41.20
   0   2   7  803.92   39.90
   0   2  -7  818.52   41.70
   0   2   7  768.22   44.20
   0   2   7  790.62   41.20
   0   2  -7  744.13   40.90
   1  -2   7   16.20    4.40
   1  -2   7   15.40    3.10
  -1  -2  -7   16.90    5.40
   1  -2   7   18.40    3.50
   1  -2   7   18.60    3.50
   1  -2   7   17.00    4.20
   1  -2   7   15.60    4.10
  -1  -2  -7   14.20    2.60
  -1  -2  -7   14.60    4.20
   1   2   7   17.90    3.80
   1   2   7   17.10    4.10
  -1   2  -7   11.60    4.30
   1   2   7   11.10    3.30
   1   2   7   16.20    4.00
  -1   2  -7   15.00    4.10
   1   2   7   17.90    3.90
  -2  -2  -7   67.59    8.90
   2  -2   7   68.89    8.00
   2  -2   7   63.69    7.90
   2  -2   7   61.89    6.80
   2  -2   7   60.59    7.20
   2  -2   7   72.69    5.60
   2   2   7   68.79    7.10
  -2   2  -7   65.99    7.40
   2   2   7   73.79    7.20
   2   2   7   61.39    7.20
   2   2   7   69.49    7.40
  -3  -2  -7  442.86   27.60
   3  -2   7  444.96   26.40
   3  -2   7  430.56   27.20
   3  -2   7  426.86   26.20
   3  -2   7  416.56   26.60
   3   2   7  446.06   26.00
  -3   2  -7  485.95   26.00
   3   2   7  456.55   26.30
   3   2   7  446.16   26.10
   3   2   7  450.55   26.70
  -4  -2  -7  411.56   27.70
   4  -2   7  397.76   27.50
   4  -2   7  436.56   26.00
   4  -2   7  425.56   26.50
   4   2   7  412.16   26.60
   4   2   7  416.46   25.90
  -4   2  -7  422.76   24.90
   5  -2   7   46.00   10.70
  -5  -2  -7   45.60   11.90
   5  -2   7   54.19   10.50
   5   2   7   45.30    9.40
   5   2   7   33.60    9.40
  -5   2  -7   40.20    7.20
  -6  -2  -7    5.00   11.30
   6  -2   7    4.50    9.30
   6  -2   7   -2.30    8.50
   6   2   7   -1.30    8.10
  -6   2  -7    2.20   10.30
   6   2   7   -1.50    8.00
  -7   3   7  194.98   26.80
  -6  -3   7   34.50    8.30
  -6  -3   7   43.60    7.90
  -6  -3   7   48.50    8.00
   6  -3  -7   21.50    7.00
   6  -3  -7   34.10    9.60
  -6   3   7   44.00   20.50
  -6   3   7   51.39    9.40
   6   3  -7   61.89   27.30
   6   3  -7   41.30    9.70
   5  -3  -7    1.70    4.30
   5  -3  -7   -3.50    6.30
  -5  -3   7    3.40    4.00
  -5  -3   7    6.20    4.90
  -5  -3   7    1.80    5.60
   5   3  -7    5.10    4.80
  -5   3   7    6.70    5.70
  -5   3   7   -7.80   12.30
   5   3  -7    5.50    7.10
   5   3  -7    0.80   18.50
  -4  -3   7  140.89   11.00
   4  -3  -7  144.79   11.00
   4  -3  -7  147.89   12.20
  -4  -3   7  142.49   11.40
  -4  -3   7  149.69   11.00
   4   3  -7  139.09   12.50
  -4   3   7  128.59   11.20
  -4   3   7  122.49   11.30
  -4   3   7  125.49   20.30
   4   3  -7  136.49   10.30
   4   3  -7  112.69   22.50
   4   3  -7  130.19   11.30
   3  -3  -7  191.08   13.70
  -3  -3   7  194.28   13.00
  -3  -3   7  177.68   13.00
   3  -3  -7  185.78   13.40
  -3  -3   7  191.28   12.80
   3   3  -7  204.18   21.90
  -3   3   7  202.48   14.00
   3   3  -7  194.68   14.30
  -3   3   7  193.78   21.00
   3   3  -7  209.48   13.70
   3   3  -7  206.08   14.40
   2  -3  -7  749.73   37.80
  -2  -3   7  694.63   37.90
  -2  -3   7  737.53   37.80
   2  -3  -7  706.23   38.40
  -2  -3   7  740.63   38.00
  -2   3   7  679.33   38.30
  -2   3   7  697.53   45.20
   2   3  -7  759.02   38.70
   2   3  -7  741.13   38.70
   2   3  -7  644.74   38.80
   2   3  -7  680.53   46.20
  -1  -3   7   74.29    6.90
  -1  -3   7   76.99    6.60
  -1  -3   7   76.59    7.40
   1  -3  -7   78.09    7.50
   1  -3  -7   84.39    6.80
   1  -3  -7   73.19    8.10
  -1  -3   7   79.09    7.00
  -1   3   7  102.59   12.00
  -1   3   7   89.39    7.60
  -1   3   7   91.09    8.30
   1   3  -7   77.99    8.30
   1   3  -7   88.79    8.00
   1   3  -7   83.39    8.90
  -1   3   7   82.69    5.30
  -1   3   7   81.69    5.80
   0  -3   7  552.64   27.50
   0  -3  -7  548.45   29.70
   0  -3   7  532.65   29.40
   0  -3   7  512.55   28.70
   0  -3  -7  556.24   27.40
   0  -3   7  528.65   29.20
   0  -3   7  537.85   28.10
   0  -3  -7  537.55   29.50
   0   3  -7  492.35   32.90
   0   3  -7  534.55   29.90
   0   3   7  517.55   29.30
   0   3   7  486.95   33.20
   0   3   7  526.35   27.90
   0   3   7  520.05   28.00
   0   3   7  545.25   29.60
   0   3  -7  492.85   29.40
  -1  -3  -7  513.75   29.90
   1  -3   7  531.05   30.10
   1  -3   7  572.34   28.50
   1  -3   7  519.55   29.40
   1  -3   7  545.85   28.10
   1  -3   7  584.84   30.30
   1   3   7  505.95   28.60
   1   3   7  486.15   29.20
  -1   3  -7  524.55   29.40
   1   3   7  511.55   28.60
  -1   3  -7  469.65   31.40
  -1   3  -7  545.55   30.00
   1   3   7  521.65   32.40
   1   3   7  532.55   29.70
   2  -3   7  438.66   25.10
   2  -3   7  418.06   26.10
   2  -3   7  446.56   25.90
  -2  -3  -7  458.85   27.00
   2  -3   7  439.76   26.60
   2   3   7  449.26   25.90
   2   3   7  431.06   25.10
  -2   3  -7  430.56   25.40
   2   3   7  438.56   25.60
   3  -3   7  167.38   14.10
   3  -3   7  174.98   16.10
  -3  -3  -7  176.68   16.60
   3   3   7  216.58   15.40
   3   3   7  208.28   15.00
  -3   3  -7  213.58   14.90
   3   3   7  216.58   15.10
   3   3   7  220.08   14.60
  -4  -3  -7   49.30   11.10
   4  -3   7   38.10    8.10
   4   3   7   49.80    8.70
   4   3   7   51.99    9.60
  -4   3  -7   39.90    7.50
   4   3   7   55.49   10.00
   5  -3   7   51.39   11.80
  -5  -3  -7   62.69   13.40
   5  -3   7   68.19   11.40
   5   3   7   78.19   11.60
   5   3   7   58.19   11.00
   5   3   7   63.99   10.20
  -5   3  -7   59.79    9.60
   6  -3   7   61.89   13.00
  -6  -3  -7   63.89   14.50
   6  -3   7   58.99   13.20
   6   3   7   77.09   13.80
   6   3   7  101.89   14.50
  -6  -4   7  123.49   15.20
   6  -4  -7  143.59   15.50
   6  -4  -7  112.99   13.70
  -6  -4   7  137.39   14.10
  -6  -4   7  145.09   13.30
  -6   4   7  138.79   13.80
   6   4  -7  143.59   16.70
   6   4  -7  205.08   40.70
   5  -4  -7  225.38   17.60
   5  -4  -7  207.78   16.90
  -5  -4   7  209.18   16.50
  -5  -4   7  219.28   16.40
  -5  -4   7  199.88   15.40
   5   4  -7  221.78   32.80
  -5   4   7  186.98   15.90
   5   4  -7  185.18   17.10
   4  -4  -7   61.99    9.30
  -4  -4   7   64.39    9.10
  -4  -4   7   68.09    8.80
   4  -4  -7   47.70    8.10
  -4  -4   7   61.09    8.00
   4   4  -7   44.50    8.80
  -4   4   7   38.20    6.80
   4   4  -7   61.29    8.80
   4   4  -7   52.69   19.30
   3  -4  -7   60.99    8.30
   3  -4  -7   55.89    8.00
   3  -4  -7   51.89    7.60
  -3  -4   7   62.79    7.60
  -3  -4   7   72.99    8.60
  -3  -4   7   62.59    7.10
   3   4  -7   57.09    8.50
  -3   4   7   65.69    7.50
   3   4  -7   65.39   16.40
  -3   4   7   89.69   14.80
   3   4  -7   68.79    8.30
   3   4  -7   54.29    8.20
  -3   4   7   64.79    7.80
  -2  -4   7  127.69    9.80
   2  -4  -7  133.79   11.00
  -2  -4   7  126.89   10.30
   2  -4  -7  125.09    9.60
   2  -4  -7  125.69   10.90
  -2  -4   7  124.79    9.80
   2   4  -7  117.19   10.90
   2   4  -7  125.29   17.70
  -2   4   7  115.09   15.50
  -2   4   7  118.19   10.30
   2   4  -7  103.39   11.10
  -1  -4   7  158.48    9.90
   1  -4  -7  169.08   11.90
   1  -4  -7  159.28   11.40
  -1  -4   7  160.38   11.00
   1  -4  -7  158.68    9.80
  -1  -4   7  144.59   10.20
   1   4  -7  105.09   10.70
   1   4  -7  118.49   10.40
  -1   4   7  109.19   15.50
   1   4  -7  136.19   16.00
  -1   4   7  116.19    8.20
  -1   4   7  114.49    8.80
   1   4  -7  123.29   11.50
  -1   4   7  124.09   10.60
   0  -4   7  504.15   29.10
   0  -4   7  486.65   28.00
   0  -4   7  505.55   26.70
   0  -4   7  483.95   27.10
   0  -4   7  498.55   28.60
   0  -4  -7  523.75   29.10
   0  -4  -7  501.25   29.00
   0   4   7  501.75   27.10
   0   4   7  505.45   28.80
   0   4   7  525.05   28.90
   0   4  -7  518.55   29.00
   0   4  -7  496.35   33.70
   0   4  -7  508.25   29.30
   1  -4   7   40.90    6.40
   1  -4   7   46.30    5.70
   1  -4   7   52.29    7.40
  -1  -4  -7   51.39    8.20
   1  -4   7   54.59    8.00
   1   4   7   47.60    5.80
   1   4   7   70.09    8.80
   1   4   7   53.49    7.20
  -1   4  -7   38.90    6.70
  -1   4  -7   58.39    9.70
   1   4   7   51.89    6.30
   2  -4   7    3.00    4.10
   2  -4   7    0.60    3.40
  -2  -4  -7    0.30    6.40
   2  -4   7   -0.10    1.50
   2  -4   7    2.90    5.10
   2   4   7    1.80    4.30
   2   4   7    2.50    4.20
   2   4   7    2.10    3.70
  -2   4  -7    4.00    4.40
   2   4   7    4.60    3.50
   3  -4   7   84.19    9.90
   3  -4   7   95.89   11.80
  -3  -4  -7   96.59   13.00
   3  -4   7   91.89   10.60
   3  -4   7   70.09    9.30
   3   4   7   99.49   11.70
  -3   4  -7   82.89   10.60
   3   4   7   83.59   10.60
   3   4   7   72.99    8.50
   3   4   7   78.99    9.40
  -4  -4  -7  301.77   23.70
   4  -4   7  257.77   21.90
   4  -4   7  283.97   21.10
  -4   4  -7  300.27   20.20
   4   4   7  308.47   21.70
   4   4   7  285.77   21.30
   4   4   7  304.27   21.30
   5  -4   7   42.10   11.20
   5  -4   7   63.49   11.50
  -5  -4  -7   79.39   15.10
  -5   4  -7   81.99   11.90
   5   4   7   80.59   12.30
   5   4   7   55.39   11.20
   5   4   7  101.19   13.90
   6  -5  -7   80.19   13.10
   6  -5  -7   62.69   11.60
  -6  -5   7   88.29   12.40
  -6  -5   7   77.29   11.20
  -6  -5   7   74.29   12.00
  -6   5   7   71.89   11.00
   6   5  -7   42.00   11.10
   5  -5  -7    7.90    8.10
  -5  -5   7    6.20    7.00
  -5  -5   7   11.20    5.80
   5  -5  -7    7.60    8.30
  -5   5   7    3.30    6.40
   5   5  -7   -0.30    7.30
   5   5  -7   10.90   23.40
  -5   5   7   46.00   17.70
  -4  -5   7   80.69   10.10
  -4  -5   7   96.59   11.60
  -4  -5   7   75.09   10.70
   4  -5  -7   92.99   11.60
   4  -5  -7   84.99   12.30
   4   5  -7   56.49   10.50
  -4   5   7   96.09   11.00
   4   5  -7   85.99   10.20
   4   5  -7   94.99   25.90
  -4   5   7  115.09   20.30
  -3  -5   7  128.69   11.70
   3  -5  -7  127.99   11.50
  -3  -5   7  128.39   12.20
   3  -5  -7  125.39   11.90
  -3  -5   7  121.29   11.40
   3  -5  -7  135.99   12.90
  -3   5   7  146.59   11.20
   3   5  -7  164.28   13.30
   3   5  -7  153.08   13.10
   3   5  -7  158.78   24.10
  -3   5   7  153.28   21.70
   2  -5  -7  603.14   33.10
  -2  -5   7  547.85   32.10
   2  -5  -7  537.95   32.80
  -2  -5   7  584.14   32.10
  -2  -5   7  567.14   31.80
   2  -5  -7  567.94   31.40
  -2   5   7  563.94   31.80
   2   5  -7  595.94   33.00
  -2   5   7  540.25   31.00
   2   5  -7  598.94   32.80
   2   5  -7  606.64   33.60
  -2   5   7  541.65   41.50
   1  -5  -7   28.50    6.60
  -1  -5   7   23.60    5.10
  -1  -5   7   24.40    4.80
   1  -5  -7   15.70    4.60
  -1  -5   7   29.90    6.20
   1  -5  -7   23.90    4.70
   1   5  -7   13.70    5.30
  -1   5   7   25.70   10.00
   1   5  -7    9.40    5.40
  -1   5   7   19.40    3.90
   1   5  -7   13.70    5.20
  -1   5   7   14.40    4.70
   1   5  -7   25.50   10.00
   0  -5  -7   57.79    9.10
   0  -5   7   49.20    8.10
   0  -5   7   60.99    7.90
   0  -5   7   43.00    5.40
   0   5  -7   88.89   14.10
   0   5  -7   61.89    7.10
   0   5  -7   83.59    8.60
   0   5   7   61.69    7.70
   0   5   7   60.79    6.00
   0   5   7   77.19   13.50
   1  -5   7  281.87   19.10
   1  -5   7  272.87   17.20
  -1  -5  -7  271.67   19.90
   1   5   7  304.77   25.00
   1   5   7  271.67   18.60
  -1   5  -7  282.77   18.80
   1   5   7  271.27   17.40
   1   5   7  282.07   17.80
   1   5   7  296.27   19.20
  -1   5  -7  287.87   23.90
   2  -5   7  305.87   19.20
  -2  -5  -7  299.07   22.00
   2  -5   7  310.47   21.30
   2  -5   7  335.07   20.30
   2  -5   7  277.07   20.60
   2   5   7  289.07   19.70
   2   5   7  302.47   19.80
  -2   5  -7  292.37   20.10
   2   5   7  303.27   20.50
   2   5   7  307.07   19.60
  -3  -5  -7   22.10    9.90
   3  -5   7    6.20    3.30
   3  -5   7   14.00    8.20
   3  -5   7   15.50    6.00
   3   5   7   18.30    6.60
   3   5   7   20.50    7.30
   3   5   7   18.20    7.60
  -3   5  -7    8.50    6.00
  -4  -5  -7    7.20   10.60
   4  -5   7    9.20    8.70
   4  -5   7   13.40    7.40
   4   5   7   15.20    8.20
   4   5   7   20.10    8.40
  -4   5  -7   14.70    7.10
   5  -5   7   70.19   12.00
  -5  -5  -7   60.99   14.90
   5  -5   7   50.19   11.20
   5   5   7   61.09   11.00
  -5   5  -7   73.69   11.60
   5   5   7   85.29   13.30
   5   5   7   68.39   11.50
  -5  -6   7  147.19   15.10
  -5  -6   7  124.79   13.20
  -5  -6   7  138.09   16.00
   5  -6  -7  136.89   16.60
   5   6  -7  172.68   32.40
  -5   6   7  145.79   34.10
   5   6  -7  131.79   16.90
  -5   6   7  127.19   14.20
  -4  -6   7   81.09   10.60
  -4  -6   7   92.79   12.20
   4  -6  -7   76.99   12.00
  -4  -6   7   85.19   11.60
   4   6  -7   99.69   28.40
  -4   6   7   59.89    9.10
   4   6  -7   66.69   12.00
  -4   6   7   68.89   22.70
  -3  -6   7    7.10    6.20
   3  -6  -7    9.50    4.80
  -3  -6   7   15.50    7.00
   3  -6  -7   16.00    7.60
  -3  -6   7   11.30    5.60
  -3   6   7   21.90   12.30
   3   6  -7    4.90    6.90
   3   6  -7    4.50    6.30
  -3   6   7    3.70    4.50
   3   6  -7   27.00   15.30
  -2  -6   7  432.56   25.60
   2  -6  -7  457.55   27.50
  -2  -6   7  445.16   26.60
  -2  -6   7  436.26   25.60
   2   6  -7  416.56   26.20
  -2   6   7  414.66   24.60
   2   6  -7  474.55   37.20
  -2   6   7  419.36   25.20
   2   6  -7  413.56   26.20
  -2   6   7  429.46   35.80
   2   6  -7  347.27   26.00
   1  -6  -7  163.18   15.40
  -1  -6   7  149.69   12.10
  -1  -6   7  150.78   11.40
  -1  -6   7  151.98   13.40
   1   6  -7  156.68   13.30
  -1   6   7  140.59   12.50
  -1   6   7  169.88   21.60
   1   6  -7  154.68   12.70
   1   6  -7  137.09   13.90
   1   6  -7  179.48   21.60
   0  -6   7  219.48   17.40
   0  -6  -7  239.58   18.70
   0  -6   7  214.28   15.90
   0   6  -7  249.78   17.50
   0   6  -7  256.07   25.00
   0   6   7  248.28   17.40
   0   6   7  277.97   26.20
   1  -6   7    1.80    3.00
   1  -6   7    2.80    5.80
  -1  -6  -7    4.90    7.50
  -1  -6  -7    4.20    5.20
   1  -6   7    3.50    4.10
   1   6   7    5.20    3.80
   1   6   7    9.90    5.80
  -1   6  -7    4.20    6.20
  -1   6  -7   25.50   10.70
   1   6   7    6.10    4.20
   2  -6   7   22.40    7.80
  -2  -6  -7   15.20    4.70
  -2  -6  -7   33.40   10.30
   2  -6   7   32.50    6.90
  -2   6  -7   23.80    7.30
   2   6   7   46.80    8.30
   2   6   7   42.40    7.60
  -3  -6  -7  149.39   14.90
  -3  -6  -7  137.29   17.50
   3  -6   7  159.38   16.40
   3   6   7  130.39   13.40
   3   6   7  128.79   14.40
   3   6   7  133.79   14.50
  -3   6  -7  126.49   13.40
   4  -6   7  154.78   16.90
  -4  -6  -7  134.29   15.80
   4  -6   7  162.98   15.90
  -4  -6  -7  157.68   19.70
  -4   6  -7  155.48   16.00
   4   6   7  146.09   16.10
   4   6   7  139.59   15.20
   4   6   7  137.29   15.70
   4  -7  -7   69.99   13.00
  -4  -7   7   70.09   11.80
  -4  -7   7   65.09   10.60
  -4  -7   7   87.19   13.80
   4   7  -7   71.49   12.60
  -4   7   7   71.19   10.50
   4   7  -7  103.89   30.00
  -3  -7   7  135.99   15.60
   3  -7  -7  135.29   16.10
  -3  -7   7   99.89   11.80
  -3  -7   7  109.49   12.70
   3   7  -7   97.79   13.60
   3   7  -7  151.38   23.80
  -2  -7   7  122.99   12.20
   2  -7  -7  128.19   15.40
  -2  -7   7  120.09   14.30
  -2   7   7  150.18   23.40
   2   7  -7  183.28   24.70
   2   7  -7  125.39   13.70
   1  -7  -7  126.39   14.70
  -1  -7   7  100.19   11.00
  -1  -7   7  101.59   12.60
  -1   7   7  142.09   21.80
   1   7  -7   74.59   11.40
   1   7  -7  135.09   21.60
  -1   7   7   93.09   10.80
   0  -7  -7   45.50   10.80
   0  -7   7   33.80    8.90
   0   7   7   45.50    8.90
   0   7   7   59.99   18.00
   0   7  -7   39.30    9.00
   1  -7   7   74.79   11.30
  -1  -7  -7   73.79   13.00
   1   7   7   52.99    9.40
  -1   7  -7   50.59    9.60
   2  -7   7   96.69   13.30
  -2  -7  -7  106.39   16.00
  -2  -7  -7  110.29   13.60
   2  -7   7  114.39   11.70
   2   7   7  123.99   15.00
   2   7   7  101.59   11.20
   2   7   7   87.69   10.50
  -2   7  -7  109.99   13.90
   3  -7   7   11.20    7.20
  -3  -7  -7    7.60    7.20
  -3  -7  -7    6.90   11.90
   3  -7   7   20.10    8.40
  -3   7  -7   14.80    8.10
   3   7   7   15.30    7.00
   3   7   7   10.90    8.60
   3  -8  -7    7.50   10.20
   2  -8  -7  144.79   18.10
  -2  -8   7  107.19   12.30
  -2  -8   7  124.59   15.50
   2   8  -7  170.28   25.50
   1  -8  -7   87.69   14.50
  -1  -8   7   74.29   11.60
  -1  -8   7   86.99   11.30
   1   8  -7   54.09   10.40
  -1   8   7  125.49   22.50
   0  -8   7   77.29   11.30
   0  -8  -7  123.79   16.50
   0   8  -7  105.19   14.00
   0   8   7  100.69   12.20
   2  -8   7   12.70    7.40
  -2  -8  -7    7.10   11.20
   2   8   7   17.80    8.60
  -2   8  -7    2.20    7.70
   7   0  -8   73.89   12.00
  -7   0   8   63.89   25.60
   6   0  -8  127.39   13.00
   6   0  -8  163.08   33.60
  -6   0   8  131.89   27.50
   5   0  -8  258.57   32.30
  -5   0   8  268.87   17.70
   5   0  -8  264.07   17.90
  -5   0   8  242.68   29.00
   4   0  -8  361.26   33.40
   4   0  -8  342.97   20.30
  -4   0   8  360.16   31.30
  -4   0   8  351.66   19.80
   4   0  -8  347.57   21.40
  -4   0   8  351.16   21.30
  -3   0   8  223.78   12.80
   3   0  -8  232.98   14.90
  -3   0   8  209.18   21.50
  -3   0   8  224.28   13.30
   3   0  -8  232.28   24.20
  -3   0   8  234.38   14.80
  -3   0   8  225.98   12.60
   3   0  -8  222.68   14.50
  -2   0   8 1967.40  108.39
  -2   0   8 1936.31  100.99
   2   0  -8 2013.50  101.79
  -2   0   8 1979.20  101.49
  -2   0   8 2022.40  100.59
   2   0  -8 2102.39  109.79
  -2   0   8 2033.20  100.19
   2   0  -8 2036.40  102.09
   2   0  -8 2089.49  101.79
   2   0  -8 2015.30   99.39
   1   0  -8  308.27   22.90
  -1   0   8  293.47   17.10
   1   0  -8  308.57   18.30
  -1   0   8  282.57   17.60
  -1   0   8  293.37   21.60
   1   0  -8  284.77   15.70
   1   0  -8  292.37   18.40
   1   0  -8  282.47   17.50
  -1   0   8  297.37   17.80
   0   0  -8   25.80    4.90
   0   0   8   21.20    4.50
   0   0   8   19.20    4.50
   0   0   8   23.60    4.20
   0   0   8   25.90    4.90
   0   0  -8   17.60    5.80
   0   0  -8   21.00    3.90
   0   0   8   18.00    5.00
   0   0  -8   22.60    3.80
   1   0   8  485.45   27.50
   1   0   8  501.35   28.00
  -1   0  -8  491.45   27.20
   1   0   8  541.45   28.80
   1   0   8  490.45   27.80
  -1   0  -8  491.15   28.40
  -1   0  -8  486.55   27.30
   1   0   8  490.35   28.30
   2   0   8  838.72   45.80
  -2   0  -8  810.92   45.20
   2   0   8  819.12   45.30
   2   0   8  808.72   45.30
   2   0   8  895.71   45.00
   2   0   8  873.01   46.10
  -2   0  -8  878.81   44.20
   3   0   8  164.68   11.80
   3   0   8  142.69   13.10
   3   0   8  165.98   13.10
   3   0   8  152.08   13.50
   3   0   8  171.08   13.40
  -3   0  -8  160.68   11.20
  -3   0  -8  152.58   13.60
   4   0   8   81.59   10.40
   4   0   8   80.89   11.70
  -4   0  -8   67.79   10.90
   4   0   8   62.99   10.10
   5   0   8   12.20    8.00
   5   0   8   17.70    9.60
   5   0   8   19.40    8.40
  -5   0  -8    9.10    9.50
   6   0   8   29.30   11.70
   6   0   8   32.30    9.50
   6   0   8   33.60   10.90
  -6   0  -8   32.80   12.20
   7  -1  -8   44.30   10.60
  -7  -1   8   24.40    6.90
  -7  -1   8   41.90   24.90
  -7   1   8   44.40   22.20
  -7   1   8   50.19   10.10
   7   1  -8   55.99   10.40
  -6  -1   8   10.10    6.20
  -6  -1   8    3.20   17.50
   6  -1  -8   12.30   22.40
   6  -1  -8   13.10    7.90
   6   1  -8   10.80    7.20
  -6   1   8    7.10   17.30
   6   1  -8   15.20   23.60
   5  -1  -8  199.18   14.70
  -5  -1   8  203.98   13.00
  -5  -1   8  206.58   14.50
   5  -1  -8  188.48   28.70
   5   1  -8  181.98   28.90
  -5   1   8  180.78   14.00
   5   1  -8  177.08   15.00
  -5   1   8  159.68   25.20
   5   1  -8  172.38   14.70
   4  -1  -8  189.68   12.90
   4  -1  -8  201.68   14.50
   4  -1  -8  200.88   13.70
   4  -1  -8  195.08   25.20
  -4  -1   8  204.38   14.10
  -4  -1   8  196.28   12.40
  -4  -1   8  193.68   12.70
   4   1  -8  204.98   14.60
  -4   1   8  186.08   23.00
  -4   1   8  187.28   13.90
   4   1  -8  199.08   23.80
  -3  -1   8  533.05   27.70
  -3  -1   8  503.55   27.20
   3  -1  -8  511.85   28.50
   3  -1  -8  527.85   38.70
   3  -1  -8  524.05   28.20
   3  -1  -8  526.05   27.20
  -3  -1   8  504.05   28.30
   3   1  -8  511.35   37.70
   3   1  -8  512.55   28.80
  -3   1   8  501.25   28.70
  -3   1   8  479.35   36.70
  -3   1   8  481.95   26.70
   2  -1  -8  269.77   16.90
  -2  -1   8  269.77   15.80
  -2  -1   8  277.37   15.60
   2  -1  -8  283.87   24.10
   2  -1  -8  288.97   16.80
  -2  -1   8  267.07   15.80
  -2  -1   8  260.77   16.20
   2  -1  -8  277.27   15.10
   2  -1  -8  278.77   16.80
   2   1  -8  273.57   16.50
  -2   1   8  258.77   14.60
  -2   1   8  269.27   16.90
  -2   1   8  260.67   16.20
  -2   1   8  277.37   22.80
  -2   1   8  259.97   15.40
   2   1  -8  249.58   23.40
   2   1  -8  278.47   17.40
  -1  -1   8  382.86   20.50
   1  -1  -8  375.06   19.20
   1  -1  -8  389.86   21.00
  -1  -1   8  386.16   19.80
  -1  -1   8  367.76   20.00
   1  -1  -8  385.46   20.10
   1  -1  -8  371.16   25.70
   1  -1  -8  351.86   20.80
  -1  -1   8  377.46   19.90
  -1   1   8  337.47   20.50
  -1   1   8  337.57   19.50
  -1   1   8  329.57   18.80
   1   1  -8  343.67   20.60
   1   1  -8  310.47   20.10
   1   1  -8  296.27   17.90
  -1   1   8  302.17   20.00
   1   1  -8  305.27   24.60
   1   1  -8  340.27   21.00
  -1   1   8  313.97   24.00
   0  -1   8  737.33   38.40
   0  -1   8  727.53   38.20
   0  -1   8  724.93   37.00
   0  -1   8  719.73   38.30
   0  -1  -8  661.33   38.70
   0  -1  -8  729.83   37.70
   0  -1   8  680.23   38.60
   0  -1  -8  744.43   37.70
   0   1   8  698.43   38.50
   0   1   8  705.43   38.70
   0   1  -8  738.53   36.90
   0   1   8  713.13   37.60
   0   1   8  691.03   41.10
   0   1  -8  683.73   38.60
   0   1  -8  713.03   41.50
   0   1   8  711.73   37.90
   0   1  -8  801.72   38.90
   0   1  -8  727.63   39.20
   1  -1   8  773.72   41.70
   1  -1   8  740.03   40.80
   1  -1   8  747.13   41.40
   1  -1   8  713.43   40.40
   1  -1   8  740.73   41.90
  -1  -1  -8  837.22   40.30
   1   1   8  767.12   41.60
  -1   1  -8  782.52   41.10
  -1   1  -8  844.12   41.50
   1   1   8  797.32   41.20
  -1   1  -8  765.62   40.50
  -1   1  -8  779.42   41.90
   1   1   8  788.92   41.20
   1   1   8  769.92   41.80
   1   1   8  738.63   41.20
   2  -1   8    9.00    4.70
   2  -1   8    4.40    4.40
  -2  -1  -8   10.90    2.80
  -2  -1  -8    9.40    5.20
   2  -1   8   10.60    3.40
   2  -1   8   10.60    4.50
   2   1   8   14.40    4.40
   2   1   8   15.00    4.50
   2   1   8   11.00    4.40
  -2   1  -8   17.10    4.60
   2   1   8   18.40    4.80
   3  -1   8   55.89    8.20
  -3  -1  -8   60.89    9.60
   3  -1   8   62.79    9.90
   3  -1   8   51.59    7.80
   3  -1   8   69.89    9.30
   3   1   8   61.29    9.20
   3   1   8   56.59    8.40
  -3   1  -8   68.09    9.20
   3   1   8   66.49    7.80
   3   1   8   66.79    8.60
  -3   1  -8   67.99    7.60
   3   1   8   65.29    8.10
   4  -1   8  245.08   18.70
   4  -1   8  240.68   19.90
  -4  -1  -8  222.08   19.20
   4  -1   8  257.87   18.50
   4   1   8  237.58   19.20
   4   1   8  252.37   19.10
   4   1   8  254.07   18.50
  -4   1  -8  230.48   18.90
  -4   1  -8  267.47   17.10
   4   1   8  257.17   17.20
   5  -1   8  222.68   19.90
   5  -1   8  214.68   19.40
   5  -1   8  241.68   18.60
  -5  -1  -8  198.48   19.70
   5   1   8  208.08   19.60
   5   1   8  243.28   19.30
   5   1   8  243.38   20.80
  -5   1  -8  215.98   19.90
   6  -1   8   26.70   11.20
   6  -1   8   38.70    9.40
   6  -1   8   18.50   10.90
  -6  -1  -8   32.40   12.20
   6   1   8   30.60    9.50
  -6   1  -8   32.00   11.90
   6   1   8   35.30   11.40
   6   1   8   15.70    9.60
   7  -2  -8   67.09   12.30
  -7  -2   8   76.49   26.10
  -7  -2   8   74.19   12.10
  -7   2   8   80.39   27.20
  -7   2   8   79.49   12.30
   7   2  -8   78.19   12.50
  -6  -2   8   63.49   10.30
   6  -2  -8   59.49   10.50
  -6  -2   8   71.49    8.70
  -6   2   8   80.09   24.20
   6   2  -8   78.29   11.70
   6   2  -8   88.79   30.50
  -6   2   8   59.89    9.50
  -5  -2   8  104.29    9.20
   5  -2  -8   94.29   11.40
  -5  -2   8  111.29    9.70
  -5  -2   8  100.59   11.20
   5  -2  -8  104.69   11.20
   5   2  -8  113.79   12.90
  -5   2   8  114.29   10.80
   5   2  -8  114.69   11.50
   5   2  -8  111.69   27.30
  -5   2   8  104.79   19.50
   4  -2  -8  140.79   10.80
   4  -2  -8  126.19   11.00
  -4  -2   8  125.49    9.80
   4  -2  -8  135.69    9.80
  -4  -2   8  126.09   10.00
  -4  -2   8  123.29   11.00
   4   2  -8  123.19   10.30
  -4   2   8  123.79   11.20
   4   2  -8  127.09   12.50
   4   2  -8  135.19   11.80
   4   2  -8  121.29   22.10
  -4   2   8  114.19   19.80
   3  -2  -8  199.48   13.20
  -3  -2   8  185.98   12.10
   3  -2  -8  195.18   13.00
  -3  -2   8  180.18   12.70
   3  -2  -8  197.18   12.40
  -3  -2   8  188.78   12.20
   3   2  -8  183.28   13.40
  -3   2   8  173.38   20.20
   3   2  -8  182.58   13.50
   3   2  -8  178.68   13.60
  -3   2   8  183.98   13.70
   3   2  -8  165.28   21.90
   2  -2  -8  421.76   23.10
   2  -2  -8  421.66   23.60
  -2  -2   8  433.66   23.30
  -2  -2   8  413.76   23.70
  -2  -2   8  430.26   23.40
   2  -2  -8  424.16   24.20
  -2   2   8  378.56   30.30
   2   2  -8  439.46   24.90
   2   2  -8  418.66   31.70
  -2   2   8  426.76   22.50
  -2   2   8  422.76   24.60
   2   2  -8  385.56   24.40
   1  -2  -8  171.08   12.40
   1  -2  -8  169.98   11.10
  -1  -2   8  165.88   11.10
   1  -2  -8  165.38   11.80
  -1  -2   8  163.48   11.40
  -1  -2   8  165.28   11.20
  -1  -2   8  168.88   11.20
   1  -2  -8  167.98   11.10
  -1   2   8  164.88   12.10
  -1   2   8  173.38    9.90
  -1   2   8  164.98   10.60
   1   2  -8  186.88   12.80
  -1   2   8  167.88   11.80
   1   2  -8  176.58   13.20
   1   2  -8  152.38   16.50
   0  -2  -8   -0.70    0.60
   0  -2   8    3.80    3.10
   0  -2  -8   -0.10    3.20
   0  -2   8    0.90    2.50
   0  -2   8    1.60    2.30
   0  -2  -8    0.80    2.60
   0  -2   8    1.50    3.10
   0  -2   8    1.80    1.60
   0   2   8    2.50    2.20
   0   2   8    0.90    2.60
   0   2  -8    3.20    3.90
   0   2   8    8.70    3.80
   0   2   8    2.90    3.20
   0   2  -8   -1.30    3.90
   0   2   8    0.60    2.60
   0   2  -8    2.70    4.60
   1  -2   8   40.20    5.10
   1  -2   8   42.20    6.40
   1  -2   8   49.00    7.30
   1  -2   8   35.60    6.40
   1  -2   8   41.60    5.50
  -1  -2  -8   47.40    7.20
   1   2   8   52.89    6.70
   1   2   8   45.20    6.00
  -1   2  -8   55.09    6.20
   1   2   8   49.40    6.70
  -1   2  -8   42.40    7.10
   1   2   8   55.69    7.60
   2  -2   8  439.16   24.80
   2  -2   8  426.96   26.10
   2  -2   8  418.26   25.60
  -2  -2  -8  459.45   26.40
   2  -2   8  454.75   26.50
  -2   2  -8  417.86   24.70
   2   2   8  415.66   25.10
   2   2   8  424.16   25.20
   2   2   8  414.16   24.90
   3  -2   8   82.69   11.20
   3  -2   8   75.69    9.90
   3  -2   8   89.09    9.80
  -3  -2  -8   84.99   11.40
   3  -2   8   79.89    9.70
   3   2   8   95.49   10.30
   3   2   8   96.49    9.70
  -3   2  -8   92.19    9.00
   3   2   8   91.39    9.70
   3   2   8   94.69    9.40
   4  -2   8   76.59   12.60
   4  -2   8   93.19   11.70
   4  -2   8   97.49   11.70
  -4  -2  -8   89.49   12.90
   4   2   8   88.29   10.80
  -4   2  -8   90.39   10.00
   4   2   8   98.99   12.30
   5  -2   8   27.00   10.80
  -5  -2  -8   24.00   10.90
   5  -2   8    7.30    7.60
   5  -2   8   26.50    7.40
  -5   2  -8   27.00   10.30
   5   2   8   27.40    8.60
   5   2   8   28.00   10.10
   6  -2   8   32.60   10.70
   6  -2   8   22.10   11.20
  -6  -2  -8   29.30   12.40
   6   2   8   25.20    9.80
  -6   2  -8   20.70   11.30
   7  -3  -8   31.00    9.60
  -7  -3   8   26.40    8.90
  -7  -3   8   36.30    7.40
   7   3  -8   16.60    9.10
  -7   3   8   22.80    8.60
  -7   3   8   68.09   23.30
  -6  -3   8   -1.00    6.30
   6  -3  -8    3.90    8.00
  -6  -3   8    7.10    5.30
  -6  -3   8    5.50    5.30
  -6   3   8    5.10    6.50
   6   3  -8    3.50    5.20
   6   3  -8    3.80    7.40
   6   3  -8    8.00   25.00
  -5  -3   8  115.39   10.70
  -5  -3   8  123.29   11.70
   5  -3  -8  106.79   11.70
  -5  -3   8  121.89   12.30
   5   3  -8  136.49   29.80
   5   3  -8  120.39   13.90
  -5   3   8  108.49   24.10
  -5   3   8   99.89   10.80
   5   3  -8  120.29   12.00
   4  -3  -8  124.59   11.50
  -4  -3   8  118.29   10.50
   4  -3  -8  140.39   12.00
   4  -3  -8  120.39   10.70
  -4  -3   8  128.99   11.60
  -4  -3   8  115.69   10.20
   4   3  -8  142.19   12.00
  -4   3   8  142.69   12.00
   4   3  -8  130.39   23.90
  -4   3   8  126.19   21.30
   4   3  -8  152.38   13.70
   4   3  -8  138.99   10.60
  -3  -3   8  506.65   28.50
  -3  -3   8  502.75   28.40
   3  -3  -8  524.35   29.20
   3  -3  -8  502.55   28.80
  -3  -3   8  495.65   28.90
   3  -3  -8  516.95   29.00
   3   3  -8  547.85   30.20
   3   3  -8  542.05   29.30
  -3   3   8  521.45   29.60
   3   3  -8  488.55   29.60
  -3   3   8  493.95   38.10
   3   3  -8  484.55   39.50
  -2  -3   8   16.30    4.40
  -2  -3   8   12.40    3.90
  -2  -3   8   16.60    4.10
   2   3  -8   14.30    5.30
  -2   3   8   17.00    7.00
  -2   3   8   10.90    4.40
   2   3  -8    7.10    9.00
   2   3  -8    7.80    4.90
   2   3  -8    9.40    5.40
  -1  -3   8   74.49    7.40
   1  -3  -8   78.39    8.70
  -1  -3   8   72.89    7.00
  -1  -3   8   74.89    6.90
   1  -3  -8   75.19    7.60
   1  -3  -8   80.19    7.10
  -1   3   8   96.79   11.90
  -1   3   8   87.39    7.80
   1   3  -8   95.09   10.00
  -1   3   8   90.69    8.60
   1   3  -8   73.39   13.40
  -1   3   8   90.29    6.40
   1   3  -8   80.89    8.90
   0  -3  -8  387.56   21.70
   0  -3  -8  354.06   23.50
   0  -3   8  347.07   22.90
   0  -3   8  375.16   22.40
   0  -3  -8  378.26   23.90
   0  -3   8  363.56   23.40
   0  -3   8  374.36   23.70
   0   3   8  455.55   22.60
   0   3   8  453.55   24.40
   0   3  -8  470.25   25.30
   0   3   8  443.06   24.20
   0   3   8  442.46   22.80
   0   3   8  423.96   28.90
   0   3  -8  435.16   24.40
   1  -3   8  140.79   12.40
  -1  -3  -8  151.88   13.20
   1  -3   8  152.28   10.80
   1  -3   8  147.39   12.20
   1  -3   8  167.88   13.00
   1  -3   8  156.08   10.90
   1   3   8  179.48   12.00
   1   3   8  180.48   12.00
  -1   3  -8  188.28   14.60
   1   3   8  186.98   12.90
   1   3   8  174.48   12.80
  -1   3  -8  185.08   12.90
   1   3   8  158.58   14.00
   2  -3   8   89.29   10.60
  -2  -3  -8   81.99   10.80
   2  -3   8   77.19    8.00
   2  -3   8   85.49    9.40
   2  -3   8   84.39    9.70
   2   3   8   80.89    8.60
   2   3   8   85.89    8.50
  -2   3  -8   76.39    8.70
   2   3   8   85.79    9.20
   2   3   8   71.69    9.00
   3  -3   8   69.09    9.40
   3  -3   8   46.50    8.70
   3  -3   8   60.09   10.60
   3  -3   8   52.39    8.50
  -3  -3  -8   68.89   11.40
   3   3   8   82.49    8.70
  -3   3  -8   84.29   10.00
   3   3   8   91.19   10.10
   3   3   8   90.29    9.70
   3   3   8  106.59   11.80
   4  -3   8  191.88   16.50
  -4  -3  -8  189.18   18.70
  -4   3  -8  181.88   14.80
   4   3   8  192.58   16.00
   4   3   8  192.38   17.40
   4   3   8  210.18   16.80
  -5  -3  -8  160.68   19.00
   5  -3   8  138.59   16.30
   5  -3   8  117.09   17.30
  -5   3  -8  162.48   14.50
   5   3   8  157.38   14.90
   5   3   8  167.48   18.20
   5   3   8  148.69   15.40
  -6  -4   8   37.10    8.10
  -6  -4   8   44.70    8.40
  -6  -4   8   36.90   10.20
   6  -4  -8   26.80    9.30
  -6   4   8   22.00    7.90
   6   4  -8  100.09   28.60
   6   4  -8   39.30   11.20
   5  -4  -8   63.49   10.60
  -5  -4   8   76.79   10.00
   5  -4  -8   69.99   10.70
  -5  -4   8   58.39    9.70
  -5  -4   8   79.99   10.40
  -5   4   8   59.79    9.70
   5   4  -8   64.19    9.60
   5   4  -8   34.40    9.30
   5   4  -8   79.99   28.00
  -5   4   8  116.99   21.50
  -4  -4   8   -0.90    3.70
  -4  -4   8    1.80    4.50
   4  -4  -8    4.10    6.40
  -4  -4   8    4.60    4.90
   4  -4  -8    2.40    5.00
  -4   4   8   22.90   11.50
   4   4  -8   -2.00    6.00
  -4   4   8    2.50    4.70
   4   4  -8    3.10    5.00
   4   4  -8    0.90   14.90
  -3  -4   8  440.56   26.40
  -3  -4   8  454.55   26.70
   3  -4  -8  455.75   26.80
   3  -4  -8  479.45   27.60
   3  -4  -8  479.55   27.50
  -3  -4   8  437.76   26.80
  -3   4   8  457.15   27.10
   3   4  -8  465.65   28.00
  -3   4   8  483.95   26.60
   3   4  -8  410.66   27.50
   3   4  -8  465.95   27.10
  -3   4   8  485.45   36.70
   3   4  -8  449.86   38.70
   2  -4  -8  197.38   13.30
   2  -4  -8  190.38   14.20
  -2  -4   8  184.48   13.10
   2  -4  -8  195.88   14.30
  -2  -4   8  202.08   13.50
  -2  -4   8  195.48   13.10
  -2   4   8  201.58   20.80
  -2   4   8  179.78   13.60
   2   4  -8  189.68   14.80
   2   4  -8  184.18   14.50
  -2   4   8  175.38   12.40
   2   4  -8  171.88   23.00
   1  -4  -8  306.57   17.70
  -1  -4   8  289.17   18.90
   1  -4  -8  317.17   19.50
  -1  -4   8  295.67   18.00
  -1  -4   8  287.67   18.40
   1  -4  -8  308.67   19.80
   1   4  -8  314.87   19.10
  -1   4   8  288.07   26.00
   1   4  -8  283.47   19.80
   1   4  -8  316.37   20.40
  -1   4   8  334.17   19.80
   0  -4  -8   12.20    5.60
   0  -4   8   10.80    4.30
   0  -4   8    9.00    3.90
   0  -4   8    9.20    3.00
   0   4   8   13.90    3.30
   0   4   8   22.50    7.60
   0   4  -8    7.60    4.80
   0   4  -8   19.40    7.60
   0   4   8   20.80    5.10
   0   4   8   13.20    5.10
   0   4   8   10.30    3.50
   0   4  -8   15.20    6.00
   1  -4   8  100.09   10.30
   1  -4   8   96.19    9.90
  -1  -4  -8  110.09   11.90
   1  -4   8  105.39    8.60
   1  -4   8  100.29   10.20
   1   4   8  104.49    9.20
   1   4   8  102.89    9.20
   1   4   8  105.49    9.90
   1   4   8  107.39   10.50
  -1   4  -8  134.29   13.90
  -1   4  -8  104.69   10.10
   2  -4   8  555.64   31.90
   2  -4   8  525.05   30.80
  -2  -4  -8  531.15   33.10
   2  -4   8  537.45   32.40
   2  -4   8  554.04   33.10
   2   4   8  528.05   31.50
   2   4   8  565.04   31.70
   2   4   8  550.14   31.10
   2   4   8  566.64   32.40
  -2   4  -8  544.55   31.80
   3  -4   8  197.18   16.70
   3  -4   8  245.28   17.90
  -3  -4  -8  238.38   20.40
   3  -4   8  244.68   20.00
   3   4   8  277.67   19.20
  -3   4  -8  239.18   19.80
   3   4   8  236.98   17.40
   3   4   8  261.57   18.90
  -4  -4  -8   36.90   12.20
   4  -4   8   26.70    9.60
   4  -4   8   27.30    8.40
   4   4   8   26.50    8.90
  -4   4  -8   23.80    7.40
   4   4   8   44.60   10.20
   4   4   8   26.40    9.10
   5  -4   8   14.80    9.90
  -5  -4  -8   41.30   13.40
   5  -4   8   31.60    9.60
   5   4   8   45.10   11.80
   5   4   8   49.60   10.80
   5   4   8   40.80   10.90
  -5   4  -8   44.70   10.10
   6  -5  -8   39.00   10.40
  -6  -5   8   46.60    8.90
  -6  -5   8   62.69   11.20
  -6  -5   8   69.59   12.50
   6  -5  -8   53.19   11.50
  -6   5   8   37.10    9.30
   6   5  -8   49.10   12.90
  -5  -5   8  145.29   14.70
  -5  -5   8  139.79   14.40
  -5  -5   8  131.39   12.70
   5  -5  -8  146.09   15.60
   5  -5  -8  132.29   15.00
   5   5  -8  123.99   15.30
   5   5  -8  161.48   35.90
  -5   5   8  136.29   14.00
  -5   5   8  203.78   27.20
  -4  -5   8  141.09   12.70
  -4  -5   8  142.89   13.90
   4  -5  -8  154.78   14.70
  -4  -5   8  136.99   13.20
   4  -5  -8  128.79   13.60
  -4   5   8  186.88   24.80
  -4   5   8  139.39   12.90
   4   5  -8  125.29   14.10
   4   5  -8  146.09   27.90
   4   5  -8  134.29   13.50
   3  -5  -8  106.89   12.10
   3  -5  -8  109.69   11.30
  -3  -5   8   95.59   11.20
  -3  -5   8  105.49   10.70
   3  -5  -8  108.09   11.00
  -3  -5   8  107.99   11.20
   3   5  -8   92.09   12.40
   3   5  -8  121.29   12.90
  -3   5   8  129.09   10.80
  -3   5   8  117.79   10.60
  -3   5   8  149.39   21.40
   3   5  -8  122.79   20.50
  -2  -5   8    9.70    4.50
   2  -5  -8   13.80    5.80
   2  -5  -8   12.00    5.20
   2  -5  -8   11.40    6.30
  -2  -5   8   14.20    4.80
  -2  -5   8   10.60    4.90
   2   5  -8    8.70    5.10
   2   5  -8   30.90   11.30
  -2   5   8   10.20    5.20
  -2   5   8   12.40    4.30
   2   5  -8   14.80    7.20
   2   5  -8   10.50    5.60
  -2   5   8   10.60   11.20
  -1  -5   8  156.58   12.30
   1  -5  -8  176.38   14.40
  -1  -5   8  160.78   13.20
  -1  -5   8  151.48   11.70
   1   5  -8  197.68   20.70
   1   5  -8  169.08   13.20
  -1   5   8  157.68   12.90
  -1   5   8  180.98   20.60
   1   5  -8  152.68   13.80
   1   5  -8  182.48   14.90
   0  -5   8  319.27   19.50
   0  -5   8  316.57   20.20
   0  -5  -8  333.27   21.60
   0   5  -8  301.57   20.90
   0   5   8  296.57   20.00
   0   5   8  304.17   18.70
   0   5  -8  297.47   26.10
  -1  -5  -8   86.39   11.90
   1  -5   8   77.99    9.10
   1  -5   8   93.79   11.70
   1  -5   8   91.39    8.40
  -1   5  -8   80.79   10.70
   1   5   8   80.39    8.70
   1   5   8   80.79    8.90
   1   5   8   81.89    8.80
   1   5   8  108.89   14.40
   1   5   8  104.69   12.40
  -1   5  -8  112.99   15.50
  -2  -5  -8   23.40    9.30
   2  -5   8   21.80    5.60
   2  -5   8   18.80    7.50
   2   5   8   21.50    5.80
   2   5   8   26.20    7.20
   2   5   8   24.10    5.20
  -2   5  -8   23.40    7.00
   2   5   8   39.20    7.00
   3  -5   8   24.40    8.50
  -3  -5  -8   23.40   10.60
   3   5   8   24.80    8.20
   3   5   8   30.00    9.20
  -3   5  -8   12.90    7.00
   3   5   8   25.10    7.30
  -4  -5  -8  120.99   17.30
   4  -5   8  122.69   14.80
   4  -5   8  104.49   15.30
   4   5   8   94.49   13.50
   4   5   8  109.69   14.90
  -4   5  -8  120.29   14.00
   4   5   8  116.99   14.10
  -5  -6   8   59.79   10.60
  -5  -6   8   62.19   10.40
   5  -6  -8   43.10   10.70
  -5  -6   8   64.89   12.30
   5   6  -8   37.90   11.70
  -5   6   8   32.30   25.50
  -5   6   8   53.79   10.40
   4  -6  -8   40.80   10.10
  -4  -6   8   34.70    8.90
  -4  -6   8   39.20    9.50
   4  -6  -8   32.70    9.30
  -4  -6   8   30.70    7.60
   4   6  -8   34.50   23.90
  -4   6   8   32.30    7.70
   4   6  -8   28.60    9.70
  -4   6   8   26.70   20.50
   3  -6  -8   99.39   11.60
  -3  -6   8   91.09   11.30
  -3  -6   8   83.29   10.00
   3  -6  -8   94.19   12.80
  -3  -6   8   91.39   11.60
   3   6  -8   85.09   25.10
  -3   6   8  102.69   23.00
   3   6  -8   68.89   11.00
   2  -6  -8  220.48   17.10
  -2  -6   8  219.88   14.50
  -2  -6   8  191.18   13.60
  -2  -6   8  205.98   15.50
  -2   6   8  170.68   23.60
  -2   6   8  158.38   13.80
   2   6  -8  144.59   14.10
   2   6  -8  154.18   15.50
   2   6  -8  140.99   13.70
  -2   6   8  166.58   14.60
   1  -6  -8  181.28   16.30
  -1  -6   8  173.38   12.60
  -1  -6   8  172.68   14.80
  -1  -6   8  168.68   13.40
   1   6  -8  147.99   15.20
  -1   6   8  205.08   23.70
   1   6  -8  197.08   23.30
  -1   6   8  161.38   14.20
   1   6  -8  167.78   13.70
   0  -6   8    6.40    5.00
   0  -6   8    3.50    5.10
   0  -6  -8    5.60    7.50
   0   6  -8    2.80    6.60
   0   6   8   27.00   11.40
   0   6  -8   27.00   11.00
   0   6   8   12.70    6.50
  -1  -6  -8   30.90    9.90
  -1   6  -8   19.90    6.90
   1   6   8   23.20    5.20
   1   6   8   34.20    8.00
  -2  -6  -8  156.28   13.90
   2  -6   8  149.29   14.30
  -2  -6  -8  159.58   19.00
   2  -6   8  159.08   16.20
   2   6   8  156.38   13.80
   2   6   8  145.49   12.80
   2   6   8  138.79   14.30
  -2   6  -8  132.69   13.80
   3  -6   8  195.98   16.80
   3  -6   8  202.98   19.30
  -3  -6  -8  186.68   20.60
  -3  -6  -8  174.68   17.20
  -3   6  -8  189.48   17.40
   3   6   8  198.58   16.60
   3   6   8  192.38   17.70
   4  -6   8   37.90   11.00
   4  -6   8   26.40    8.70
  -4  -6  -8   39.20   14.50
  -4  -6  -8   26.60   10.20
   4   6   8   42.20   10.20
   4   6   8   22.70    9.00
   4   6   8   19.10    9.30
  -4   6  -8   21.50    9.50
  -4  -7   8   37.90    9.30
  -4  -7   8   46.00    9.50
  -4  -7   8   37.70   10.00
   4  -7  -8   55.59   12.10
   4   7  -8   41.00   10.10
  -4   7   8   48.30    8.70
   4   7  -8   71.79   28.60
  -3  -7   8   36.20    8.60
  -3  -7   8   51.89   10.30
   3  -7  -8   54.99   11.80
  -3  -7   8   53.89    9.90
  -3   7   8   49.20    8.40
   3   7  -8   36.40    9.80
   3   7  -8   92.89   25.20
  -2  -7   8   32.20    8.10
   2  -7  -8   41.90   10.80
  -2  -7   8   39.80    9.00
   2   7  -8   33.70    9.30
   2   7  -8   24.20    7.90
  -1  -7   8   36.10    8.00
  -1  -7   8   39.30    9.10
   1  -7  -8   35.90   10.70
   1   7  -8   40.20    9.20
   0  -7  -8  140.09   16.40
   0  -7   8  130.79   12.60
   0  -7   8  109.39   13.40
   0   7  -8  179.48   22.80
   0   7  -8  122.79   14.00
   0   7   8  178.38   23.80
   0   7   8  138.79   14.10
   1  -7   8  122.09   14.70
  -1  -7  -8  140.29   17.10
   1  -7   8  124.99   12.70
  -1   7  -8  136.59   14.20
   1   7   8  115.09   13.30
   2  -7   8   11.30    7.80
  -2  -7  -8    4.00   10.70
   2   7   8   22.30    6.40
   2   7   8   24.00    9.30
  -2   7  -8   15.90    7.90
  -3  -7  -8   16.30    7.50
  -3  -7  -8   13.80   13.00
   3  -7   8   15.10    7.90
   3  -7   8   17.40    9.40
   3   7   8   27.20    8.00
   3   7   8   14.50    8.70
   3   7   8   17.40    7.80
  -3   7  -8   11.70    8.80
   3  -8  -8   64.29   13.40
  -3  -8   8   71.09   13.70
  -3  -8   8   50.79    9.90
  -3  -8   8   63.89   10.80
  -3   8   8  111.89   23.00
  -2  -8   8  179.88   18.40
   2  -8  -8  220.08   21.40
  -2  -8   8  181.98   17.20
   2   8  -8  260.87   29.40
  -2   8   8  271.37   30.80
  -1  -8   8   50.39    8.80
  -1  -8   8   93.69   13.40
   1  -8  -8   66.89   14.10
   1   8  -8   62.29   11.50
   0  -8   8   -1.10    2.20
   0  -8  -8   -3.60   10.10
   0  -8   8    3.00    7.00
   0   8  -8   -1.30    7.30
  -2  -8  -8   95.79   17.10
   2  -8   8  111.09   13.90
   2   8   8  148.39   18.20
  -2   8  -8   76.19   12.50
  -7   0   9   88.09   28.80
   7   0  -9  100.49   13.50
   6   0  -9    9.40    7.00
  -6   0   9    2.50   18.00
   6   0  -9   -9.90   22.70
  -6   0   9   11.80    5.90
  -5   0   9   46.60   17.10
   5   0  -9   69.09   23.10
   5   0  -9   50.29    8.80
  -5   0   9   42.20    7.30
  -4   0   9  440.56   36.20
   4   0  -9  419.66   37.60
   4   0  -9  436.26   25.70
   4   0  -9  424.96   24.70
  -4   0   9  426.66   23.70
  -4   0   9  425.56   25.20
  -3   0   9  208.58   21.80
  -3   0   9  214.38   12.60
   3   0  -9  238.48   25.00
  -3   0   9  208.48   13.20
  -3   0   9  224.78   14.60
   3   0  -9  207.68   14.90
   3   0  -9  221.08   15.40
  -2   0   9  134.29   10.50
  -2   0   9  125.89    8.70
   2   0  -9  145.99   17.90
   2   0  -9  130.39   11.10
  -2   0   9  131.19    9.30
   2   0  -9  129.49   11.10
  -2   0   9  128.89   15.20
   1   0  -9    5.20    4.00
  -1   0   9    2.90    2.70
  -1   0   9    6.90    3.80
   1   0  -9    6.80    4.60
  -1   0   9    3.30    4.30
   1   0  -9    8.00    3.00
   1   0  -9    5.10    2.10
  -1   0   9    4.70    2.60
   1   0  -9    5.40    6.70
  -1   0   9    6.40    3.00
   0   0   9  157.28   13.80
   0   0  -9  162.78   14.60
   0   0  -9  175.18   12.20
   0   0   9  176.38   12.00
   0   0  -9  174.48   11.00
   0   0   9  177.08   12.70
   0   0   9  162.38   11.60
   0   0   9  163.68   12.20
  -1   0  -9  100.09   10.10
   1   0   9  110.49    9.40
  -1   0  -9   95.09    9.30
   1   0   9  115.69   10.10
  -1   0  -9  116.19    9.10
   1   0   9  102.29    9.30
   1   0   9   90.99    8.70
   2   0   9  132.19   10.90
  -2   0  -9  138.59   10.50
   2   0   9  136.39   12.40
  -2   0  -9  140.29   12.30
   2   0   9  142.59   11.70
   2   0   9  155.78   12.30
   2   0   9  139.39   11.70
   3   0   9  225.38   17.30
  -3   0  -9  217.68   17.00
   3   0   9  216.98   16.40
   3   0   9  240.88   16.70
   3   0   9  228.48   15.30
   3   0   9  206.28   16.50
   4   0   9  386.66   24.30
   4   0   9  347.87   24.60
  -4   0  -9  343.07   24.80
   4   0   9  356.06   25.00
   5   0   9  142.49   18.00
   5   0   9  140.79   16.10
  -5   0  -9  128.29   16.60
   5   0   9  150.98   15.20
  -7  -1   9   27.20   25.40
  -7   1   9   28.90   22.70
  -6  -1   9  147.09   14.20
   6  -1  -9  139.39   34.70
   6  -1  -9  131.69   13.90
  -6  -1   9  136.19   28.80
  -6   1   9  163.38   13.20
   6   1  -9  165.48   31.90
   6   1  -9  159.88   15.00
  -6   1   9  146.09   29.20
  -5  -1   9   61.89    7.40
   5  -1  -9   60.39   23.00
  -5  -1   9   47.20    8.00
   5  -1  -9   53.09    8.80
  -5   1   9   38.10    7.00
  -5   1   9   51.39   18.50
   5   1  -9   61.29    9.70
   5   1  -9   62.29   23.00
   4  -1  -9  272.77   17.00
  -4  -1   9  265.27   16.50
  -4  -1   9  262.07   17.80
   4  -1  -9  255.17   18.20
   4  -1  -9  252.27   29.20
  -4  -1   9  270.07   16.00
   4   1  -9  266.87   30.30
   4   1  -9  274.97   18.20
  -4   1   9  295.77   28.90
  -4   1   9  279.67   18.20
   3  -1  -9   88.49    9.00
   3  -1  -9   93.79    9.60
  -3  -1   9   98.19    9.00
   3  -1  -9   85.79    9.30
  -3  -1   9   90.99    7.40
   3  -1  -9   82.49   17.80
   3   1  -9  103.09   18.10
  -3   1   9   97.89   16.00
   3   1  -9   96.89    9.50
  -3   1   9   96.59    9.50
   2  -1  -9  598.54   31.80
  -2  -1   9  539.55   30.50
   2  -1  -9  560.44   30.00
   2  -1  -9  570.24   32.00
  -2  -1   9  542.15   30.80
   2  -1  -9  585.64   40.10
  -2  -1   9  522.65   31.30
  -2   1   9  619.24   39.50
  -2   1   9  570.74   30.60
  -2   1   9  625.44   30.00
   2   1  -9  552.84   32.20
   2   1  -9  576.14   39.80
  -2   1   9  604.94   32.40
   1  -1  -9  718.33   39.40
  -1  -1   9  679.03   39.40
   1  -1  -9  729.33   40.40
  -1  -1   9  711.53   39.10
  -1  -1   9  695.63   39.20
  -1  -1   9  694.23   39.80
   1  -1  -9  721.03   45.40
   1  -1  -9  654.53   38.30
  -1   1   9  831.42   39.60
   1   1  -9  751.22   46.00
  -1   1   9  765.82   38.60
   1   1  -9  831.92   40.80
   1   1  -9  806.12   41.00
  -1   1   9  749.23   45.10
  -1   1   9  784.72   40.50
  -1   1   9  785.42   40.40
   0  -1   9  177.88   11.90
   0  -1   9  179.88   11.90
   0  -1  -9  185.08   11.70
   0  -1   9  180.38   11.90
   0  -1   9  164.98   12.30
   0  -1  -9  184.28   11.60
   0  -1  -9  171.48   13.10
   0   1   9  151.58   12.00
   0   1  -9  159.98   12.00
   0   1  -9  144.29   14.60
   0   1   9  155.28   10.90
   0   1  -9  155.88   13.00
   0   1   9  158.98   11.40
   0   1   9  146.09   13.90
   0   1  -9  146.29   10.00
   0   1   9  149.69   12.10
   1  -1   9   19.50    5.00
   1  -1   9   18.50    4.40
   1  -1   9   25.20    5.60
   1  -1   9   19.50    4.00
   1  -1   9   25.20    5.80
   1   1   9   13.80    4.80
  -1   1  -9   26.90    5.80
  -1   1  -9   18.90    8.10
   1   1   9   18.10    4.90
  -1   1  -9   18.20    4.50
   1   1   9   25.30    5.30
   1   1   9   19.80    5.10
   2  -1   9  158.68   13.40
   2  -1   9  130.89   10.80
   2  -1   9  151.38   11.80
   2  -1   9  132.69   12.30
   2  -1   9  142.89   12.60
  -2  -1  -9  146.19   12.80
   2   1   9  159.08   12.60
  -2   1  -9  169.38   11.70
   2   1   9  147.49   12.40
   2   1   9  156.68   11.80
   2   1   9  171.08   12.30
   3  -1   9  175.78   14.10
   3  -1   9  161.48   14.20
   3  -1   9  160.08   14.20
   3  -1   9  153.58   15.10
   3   1   9  160.48   12.90
   3   1   9  158.58   13.30
   3   1   9  158.58   14.70
   3   1   9  159.38   13.30
  -3   1  -9  152.88   12.50
  -3   1  -9  158.98   14.00
  -4  -1  -9  132.29   15.50
   4  -1   9  115.99   13.60
   4  -1   9  113.69   14.70
   4  -1   9  143.49   13.50
   4   1   9  112.09   14.40
   4   1   9  134.99   12.60
   4   1   9  117.29   12.70
   5  -1   9    8.60    9.20
   5  -1   9   22.20    8.10
   5  -1   9   13.10    9.90
  -5  -1  -9   23.30   10.60
   5   1   9   18.10    9.20
   5   1   9   11.30    8.50
  -5   1  -9   11.20    9.80
   5   1   9   17.50    8.50
   7  -2  -9  121.19   15.40
  -7  -2   9  118.39   31.10
  -7   2   9  121.59   34.30
  -7   2   9  105.89   14.10
   7   2  -9  129.29   13.30
   6  -2  -9   61.59   10.60
  -6  -2   9   46.10    7.00
  -6  -2   9   65.59   10.40
   6   2  -9   84.69   31.80
   6   2  -9   69.09   10.90
  -6   2   9   56.39   23.40
  -6   2   9   43.80    8.70
   6   2  -9   54.09   10.80
  -5  -2   9  126.69   10.00
  -5  -2   9  119.59   11.60
  -5  -2   9  114.79   10.10
   5  -2  -9  105.29   11.90
   5   2  -9  113.99   11.80
   5   2  -9  105.89   13.50
   5   2  -9  135.79   29.50
  -5   2   9  106.89   11.50
  -5   2   9  116.59   23.70
   4  -2  -9  592.74   32.20
   4  -2  -9  544.05   32.60
   4  -2  -9  580.04   32.10
  -4  -2   9  554.04   31.70
  -4  -2   9  566.24   31.40
  -4  -2   9  564.34   32.60
   4   2  -9  572.14   33.60
   4   2  -9  584.74   32.40
   4   2  -9  621.24   33.60
  -4   2   9  567.74   44.40
   4   2  -9  592.34   46.60
  -3  -2   9  740.33   39.60
  -3  -2   9  777.32   39.10
   3  -2  -9  736.03   39.60
   3  -2  -9  764.52   39.80
   3  -2  -9  791.42   39.00
  -3  -2   9  742.73   38.70
  -3   2   9  717.23   40.30
   3   2  -9  696.13   40.40
   3   2  -9  704.83   39.90
  -3   2   9  658.33   48.50
   3   2  -9  672.83   49.90
  -2  -2   9   21.80    4.50
   2  -2  -9   17.60    4.10
   2  -2  -9   20.50    5.30
  -2  -2   9   20.00    4.50
  -2  -2   9   22.70    4.60
   2  -2  -9   17.30    4.90
   2   2  -9   29.80    6.50
   2   2  -9   32.90   11.70
  -2   2   9   32.20   10.50
   2   2  -9   30.40    6.30
  -2   2   9   37.80    6.40
  -2   2   9   37.50    4.40
  -1  -2   9    9.50    3.50
   1  -2  -9    6.80    4.40
   1  -2  -9    5.90    3.70
  -1  -2   9    5.80    2.90
  -1  -2   9    8.90    3.40
   1  -2  -9    9.10    3.90
  -1   2   9    9.20    2.40
   1   2  -9    7.30    4.70
  -1   2   9    5.90    5.90
   1   2  -9    8.40    7.50
  -1   2   9   12.10    5.10
  -1   2   9   11.00    3.50
   1   2  -9    8.30    5.10
   0  -2   9  407.26   24.40
   0  -2   9  401.56   24.00
   0  -2   9  387.46   23.70
   0  -2   9  397.26   23.40
   0  -2  -9  395.66   24.60
   0  -2  -9  440.46   22.90
   0   2   9  392.16   24.20
   0   2   9  448.36   23.20
   0   2  -9  393.06   27.80
   0   2   9  391.86   24.40
   0   2   9  392.26   27.10
   0   2  -9  451.65   25.60
   0   2  -9  421.36   22.10
   0   2   9  425.66   23.50
   0   2  -9  421.36   24.80
   1  -2   9  431.56   23.70
  -1  -2  -9  440.26   25.20
   1  -2   9  408.06   24.50
   1  -2   9  399.96   25.00
   1  -2   9  413.66   24.90
   1   2   9  397.26   24.60
   1   2   9  420.96   24.10
   1   2   9  391.86   24.40
   1   2   9  420.56   24.00
  -1   2  -9  384.96   24.10
   2  -2   9  398.86   24.10
  -2  -2  -9  444.96   26.30
   2  -2   9  411.56   25.70
   2  -2   9  423.36   25.50
   2  -2   9  416.26   25.60
   2   2   9  370.06   24.50
   2   2   9  405.26   24.40
  -2   2  -9  409.56   24.20
   2   2   9  405.86   25.00
   2   2   9  412.76   25.00
   3  -2   9   42.80    7.80
   3  -2   9   53.59   10.00
   3  -2   9   44.80    8.00
  -3  -2  -9   49.60   10.00
   3  -2   9   44.20    8.60
   3   2   9   47.70    7.50
   3   2   9   65.79    9.60
   3   2   9   69.49   10.10
   3   2   9   49.99    8.30
  -3   2  -9   70.89    9.00
   4  -2   9  140.49   16.90
   4  -2   9  143.69   14.30
  -4  -2  -9  154.48   17.10
   4   2   9  171.48   15.50
  -4   2  -9  147.09   16.60
  -4   2  -9  159.98   13.30
   5  -2   9  108.09   14.00
  -5  -2  -9  107.59   16.90
   5  -2   9   97.69   15.80
   5  -2   9  119.99   15.00
  -5   2  -9   97.89   14.40
   5   2   9  118.99   14.00
   5   2   9   82.99   13.40
  -6  -3   9   70.59   11.70
  -6  -3   9   73.79    9.90
   6  -3  -9   73.99   12.10
  -6   3   9   37.00   24.70
   6   3  -9   56.09   11.80
   6   3  -9   60.39    9.70
   6   3  -9   90.09   31.90
  -6   3   9   54.69   10.10
  -5  -3   9  168.78   12.80
   5  -3  -9  140.49   13.70
  -5  -3   9  157.08   12.60
   5   3  -9  150.38   29.70
   5   3  -9  160.68   14.50
  -5   3   9  138.59   26.60
   5   3  -9  164.38   15.40
  -5   3   9  134.79   13.00
  -4  -3   9   10.90    5.50
   4  -3  -9   14.80    5.40
  -4  -3   9   12.80    4.80
  -4  -3   9   15.40    5.10
   4  -3  -9   12.60    6.40
  -4   3   9   23.50    6.40
   4   3  -9   22.80    7.80
   4   3  -9   30.60    8.10
   4   3  -9   18.70   16.20
  -4   3   9   13.60   10.70
  -3  -3   9   55.79    7.00
   3  -3  -9   53.99    8.20
   3  -3  -9   43.70    7.10
   3  -3  -9   51.29    7.50
  -3  -3   9   45.50    6.60
  -3  -3   9   45.30    7.00
   3   3  -9   50.69    7.70
  -3   3   9   56.19    8.60
  -3   3   9   41.30   13.60
   3   3  -9   35.20    7.70
   3   3  -9   47.00   15.90
   3   3  -9   41.60    7.90
   2  -3  -9  167.68   12.50
  -2  -3   9  164.78   12.00
  -2  -3   9  172.58   12.30
  -2  -3   9  171.28   12.00
   2  -3  -9  171.88   13.30
   2  -3  -9  175.38   12.70
  -2   3   9  161.28   18.60
  -2   3   9  167.48   13.20
   2   3  -9  177.88   14.00
   2   3  -9  167.88   19.50
   1  -3  -9  370.56   23.60
  -1  -3   9  385.86   22.70
  -1  -3   9  361.86   22.30
   1  -3  -9  397.56   21.90
   1   3  -9  428.96   24.80
  -1   3   9  374.16   23.50
  -1   3   9  392.46   21.50
   0  -3   9  208.58   13.10
   0  -3   9  195.48   13.80
   0  -3   9  205.18   14.40
   0  -3  -9  197.18   14.40
   0  -3  -9  193.08   15.70
   0  -3  -9  220.28   12.20
   0   3  -9  191.58   15.30
   0   3  -9  182.98   14.90
   0   3   9  192.38   14.00
   0   3  -9  190.88   18.40
   0   3   9  204.58   13.00
   0   3   9  203.78   12.60
   0   3   9  199.08   14.80
   0   3   9  167.08   17.60
   1  -3   9    7.70    4.30
   1  -3   9    5.40    4.20
  -1  -3  -9   15.30    7.10
   1  -3   9   12.10    5.00
   1  -3   9    8.50    3.20
   1  -3   9    8.80    3.10
   1   3   9   16.70    4.90
  -1   3  -9   17.70    5.30
   1   3   9    9.80    4.10
   1   3   9   10.60    4.70
   1   3   9    9.30    4.40
  -2  -3  -9  295.07   20.80
   2  -3   9  286.67   18.50
   2  -3   9  263.77   17.20
   2  -3   9  238.98   18.50
   2  -3   9  273.57   19.10
  -2   3  -9  255.57   17.70
   2   3   9  267.47   18.60
   2   3   9  254.67   18.00
   2   3   9  249.38   17.80
   2   3   9  241.18   17.20
   3  -3   9   67.79    9.50
   3  -3   9   71.19   11.00
  -3  -3  -9   83.69   12.70
   3  -3   9   71.29    9.80
   3  -3   9   63.49   10.20
   3   3   9  107.99   12.30
   3   3   9   81.59   11.10
   3   3   9   85.99   11.10
  -3   3  -9   88.39   10.90
  -4  -3  -9  139.89   16.80
   4  -3   9  114.49   15.60
   4  -3   9  125.89   13.70
   4  -3   9  117.39   13.40
   4   3   9  136.79   14.00
   4   3   9  122.89   13.40
   4   3   9  127.09   15.40
  -4   3  -9  109.09   12.40
   5  -3   9   15.80    8.50
   5  -3   9   21.40   11.50
  -5  -3  -9   29.70   12.50
   5   3   9   20.40    9.60
  -5   3  -9   38.10    8.40
   5   3   9   34.30   11.20
   5   3   9   17.50    6.70
  -6  -4   9   36.90    8.40
   6  -4  -9   35.50    9.80
  -6  -4   9   37.80    9.50
  -6  -4   9   42.90    8.80
  -6   4   9   21.00    7.60
   6   4  -9   14.40    9.10
   6   4  -9   43.80   28.10
  -5  -4   9   80.09   11.20
   5  -4  -9   60.59   10.40
   5  -4  -9   65.09   10.30
  -5  -4   9   75.89   10.10
  -5  -4   9   79.49   10.10
   5   4  -9   42.10    8.30
  -5   4   9   58.89    9.30
   5   4  -9   94.69   29.80
   5   4  -9   51.89   11.00
  -4  -4   9  199.88   14.90
  -4  -4   9  199.48   15.20
  -4  -4   9  209.68   16.00
   4  -4  -9  210.58   16.60
  -4   4   9  253.77   27.40
  -4   4   9  222.88   16.10
   4   4  -9  203.28   30.20
   4   4  -9  221.68   17.50
   4   4  -9  203.58   17.10
  -4   4   9  209.38   15.90
   3  -4  -9  417.46   24.30
  -3  -4   9  399.66   23.20
  -3  -4   9  393.96   23.00
   3  -4  -9  394.46   23.20
  -3  -4   9  404.76   23.50
   3   4  -9  348.87   23.90
  -3   4   9  354.16   23.70
  -3   4   9  390.06   33.20
  -3   4   9  373.46   22.70
   3   4  -9  392.36   23.90
   3   4  -9  312.37   23.90
   3   4  -9  368.56   35.70
  -2  -4   9   20.70    5.10
  -2  -4   9   18.80    4.90
   2  -4  -9   22.00    6.10
   2  -4  -9   22.00    5.80
   2  -4  -9   23.90    6.40
  -2  -4   9   19.30    5.10
   2   4  -9   17.70    6.20
   2   4  -9   13.80    5.80
   2   4  -9   27.60    7.50
  -2   4   9   38.00   11.70
   2   4  -9   22.60   12.50
  -2   4   9   26.00    6.80
   1  -4  -9   13.10    5.60
   1  -4  -9    9.80    4.20
  -1  -4   9   11.10    3.70
  -1  -4   9    8.70    4.30
   1  -4  -9    6.20    4.90
  -1  -4   9   10.30    4.80
   1   4  -9   10.80   10.50
  -1   4   9   16.40    5.60
  -1   4   9   10.40    9.10
   1   4  -9    8.10    5.60
   1   4  -9   11.10    6.10
   0  -4   9  167.28   13.40
   0  -4   9  172.58   13.00
   0  -4   9  175.18   11.90
   0  -4  -9  164.08   14.40
   0   4   9  202.88   19.60
   0   4   9  179.28   13.90
   0   4  -9  175.58   14.70
   0   4   9  188.48   12.20
   1  -4   9  272.27   19.40
   1  -4   9  250.77   19.50
  -1  -4  -9  280.17   20.70
   1  -4   9  315.97   21.10
  -1   4  -9  302.17   19.90
   1   4   9  314.57   18.90
  -1   4  -9  361.96   31.20
   1   4   9  290.57   18.50
   1   4   9  278.47   19.70
   1   4   9  292.07   19.60
  -2  -4  -9  339.17   23.70
   2  -4   9  319.17   20.40
   2  -4   9  354.16   23.10
   2  -4   9  347.97   22.20
   2  -4   9  325.87   22.20
  -2   4  -9  307.67   21.60
   2   4   9  310.07   20.70
   2   4   9  315.77   21.30
   2   4   9  323.07   21.90
   3  -4   9   84.99   10.50
   3  -4   9  116.99   14.00
   3  -4   9  125.79   12.50
  -3  -4  -9  148.89   16.80
   3   4   9  104.69   11.60
   3   4   9   91.19   12.10
  -3   4  -9  108.79   12.60
   3   4   9  105.09   12.30
   4  -4   9   41.50    9.00
  -4  -4  -9   42.80   12.70
   4  -4   9   16.10    7.30
   4  -4   9   35.50   11.50
  -4   4  -9   25.30    7.70
   4   4   9   33.80    8.90
   4   4   9   32.70    9.90
   4   4   9   38.30    9.90
   5  -4   9   29.60   11.70
  -5  -4  -9   63.89   14.70
   5  -4   9   55.99   11.50
   5   4   9   37.50   10.50
   5   4   9   77.29   13.30
  -5   4  -9   64.29   11.10
  -5  -5   9   45.30   10.10
   5  -5  -9   46.40   10.90
  -5  -5   9   51.39   10.00
  -5  -5   9   46.00    8.60
   5  -5  -9   46.30   10.60
   5   5  -9   40.70   10.70
  -5   5   9   65.89   10.40
   5   5  -9   74.79   30.40
  -4  -5   9   38.90    7.80
  -4  -5   9   54.09    9.30
   4  -5  -9   27.40    8.10
  -4  -5   9   30.70    7.60
   4  -5  -9   32.20    8.60
   4   5  -9   15.10    7.90
   4   5  -9   38.40   22.80
   4   5  -9   20.80    7.00
  -4   5   9   17.50    6.30
  -3  -5   9   81.39    9.70
  -3  -5   9   83.09   10.20
   3  -5  -9   79.69   10.30
  -3  -5   9   98.39   11.50
   3  -5  -9   97.79   12.00
  -3   5   9   85.09   10.30
  -3   5   9   83.99    9.80
   3   5  -9   66.19   11.30
  -3   5   9  106.59   20.40
   3   5  -9   66.49   10.80
   3   5  -9   68.59   20.80
   2  -5  -9   20.70    6.10
  -2  -5   9   23.50    5.90
   2  -5  -9   15.30    4.80
  -2  -5   9   22.30    5.90
   2  -5  -9   38.70    8.80
  -2  -5   9   23.00    5.80
   2   5  -9   29.60    7.20
  -2   5   9   32.70    7.50
  -2   5   9   19.70    4.60
   2   5  -9   28.80   16.00
  -2   5   9   15.60   13.40
   2   5  -9   27.50    8.00
   2   5  -9   20.10    7.10
  -1  -5   9  187.18   13.20
  -1  -5   9  187.68   14.50
   1  -5  -9  190.38   15.90
  -1  -5   9  189.38   14.00
  -1   5   9  197.78   22.60
   1   5  -9  202.58   16.00
  -1   5   9  194.78   15.30
   1   5  -9  168.38   15.40
   0  -5   9   69.69    8.50
   0  -5  -9   84.89   12.20
   0  -5   9   72.59    9.80
   0   5  -9   75.19   10.30
   0   5   9   86.69   10.60
  -1  -5  -9   19.20    8.80
   1  -5   9   13.70    6.00
   1  -5   9   14.80    6.90
  -1   5  -9   17.40    5.90
   1   5   9   16.40    4.90
   1   5   9   20.10    5.20
   1   5   9   14.80    6.90
   2  -5   9  182.38   13.10
   2  -5   9  127.09   12.50
   2  -5   9  182.08   17.00
  -2  -5  -9  175.38   17.50
   2   5   9  177.98   14.70
   2   5   9  164.38   12.80
   2   5   9  167.08   13.70
  -2   5  -9  176.38   15.40
  -3  -5  -9   37.70   12.20
   3  -5   9   35.30   10.60
   3  -5   9   25.30    7.00
   3  -5   9   32.70    7.40
   3   5   9   30.50    8.50
   3   5   9   47.50   11.00
   3   5   9   30.90    8.10
  -3   5  -9   27.60    9.70
  -4  -5  -9  223.78   22.30
   4  -5   9  196.08   19.60
   4   5   9  190.58   18.40
   4   5   9  186.88   18.90
  -4   5  -9  209.38   18.20
   4   5   9  190.78   18.20
  -5  -6   9   22.10    8.90
   5  -6  -9   14.70    9.80
  -5  -6   9   16.50    7.60
   5  -6  -9   15.00    9.60
  -5  -6   9   11.80    8.20
   5   6  -9   38.70   26.70
  -5   6   9   23.00   22.60
  -5   6   9   25.20    8.60
   5   6  -9   15.20    9.10
  -4  -6   9  185.48   17.00
   4  -6  -9  188.68   16.60
   4  -6  -9  210.58   18.30
  -4  -6   9  173.98   15.80
  -4  -6   9  175.68   15.10
   4   6  -9  180.78   16.60
   4   6  -9  166.18   16.80
  -4   6   9  154.88   30.40
   4   6  -9  189.38   32.40
  -4   6   9  177.58   15.40
  -3  -6   9  241.08   18.60
  -3  -6   9  240.08   18.20
  -3  -6   9  249.38   17.90
   3  -6  -9  245.28   18.00
   3  -6  -9  266.07   21.20
   3   6  -9  273.57   33.30
   3   6  -9  229.48   18.80
  -3   6   9  250.97   31.10
   3   6  -9  238.08   19.80
  -2  -6   9   69.59    9.30
  -2  -6   9   69.99    9.60
  -2  -6   9   69.29   10.30
   2   6  -9   67.79   10.50
  -2   6   9   82.09   11.00
   2   6  -9   84.69   12.50
   2   6  -9   40.10   17.00
  -2   6   9  105.99   20.20
  -1  -6   9    2.30    4.70
   1  -6  -9   -1.70    8.20
  -1  -6   9    0.80    4.50
  -1   6   9    0.00    5.20
   1   6  -9   -3.20    4.80
  -1   6   9   23.90   11.20
   0  -6   9  140.09   13.00
   0  -6  -9  136.09   16.30
   0  -6   9  127.19   14.00
   0   6   9  154.08   14.50
   0   6  -9  130.49   14.70
   0   6  -9  182.38   21.10
   1  -6   9  218.18   17.80
   1  -6   9  228.08   19.00
  -1  -6  -9  235.28   20.90
   1   6   9  261.57   19.70
  -1   6  -9  285.07   19.60
   2  -6   9  135.49   13.00
  -2  -6  -9  148.19   18.50
   2  -6   9  124.49   15.90
  -2  -6  -9  123.99   13.10
   2   6   9  141.89   13.10
   2   6   9  146.09   15.60
   2   6   9  141.99   13.00
  -2   6  -9  119.99   13.60
   3  -6   9   61.09   12.70
  -3  -6  -9   84.99   15.90
   3  -6   9   73.49   10.50
   3   6   9   96.49   14.80
   3   6   9  102.19   13.50
  -3   6  -9   57.29   10.80
  -4  -7   9   64.89   11.50
  -4  -7   9   54.19   10.40
  -4  -7   9   76.09   13.30
   4  -7  -9   73.29   13.70
  -4   7   9   91.79   21.60
   4   7  -9   24.40    9.30
  -4   7   9   42.10    8.40
  -3  -7   9   27.40    8.20
  -3  -7   9   14.20    8.10
   3  -7  -9   15.60    9.70
  -3  -7   9   14.50    6.90
   3   7  -9    7.20    7.70
   3   7  -9   14.90   22.00
   2  -7  -9  184.78   19.60
  -2  -7   9  167.48   16.60
  -2  -7   9  160.18   14.80
   2   7  -9  131.99   23.00
   2   7  -9  150.68   15.60
  -2   7   9  214.88   27.10
   2   7  -9  147.69   14.60
   1  -7  -9  221.98   20.40
  -1  -7   9  202.98   18.50
  -1  -7   9  218.68   16.60
  -1   7   9  198.78   17.30
   1   7  -9  180.88   18.50
  -1   7   9  258.27   28.60
   1   7  -9  246.78   27.90
   0  -7  -9   25.30   11.30
   0  -7   9   19.20    8.00
   0  -7   9   21.00    7.00
   0   7   9   29.10    8.80
   0   7  -9   11.60    7.50
   1  -7   9   11.20    7.70
  -1  -7  -9   -1.90   10.00
   1  -7   9    3.30    3.90
   1   7   9   -1.00    6.30
  -1   7  -9   14.40    6.50
   2  -7   9   81.79   12.90
  -2  -7  -9  124.19   17.60
   2   7   9  141.69   17.70
  -2   7  -9  103.39   14.80
  -2  -8   9   40.20    8.50
   2  -8  -9   55.69   13.40
   2   8  -9   34.00    8.60
   1  -8  -9    2.60   10.60
  -1  -8   9    5.90    7.40
   1   8  -9    3.20    6.20
  -1   8   9   10.90    5.00
  -1  -8  -9   85.69   16.50
   1  -8   9   77.89   13.40
   1   8   9   98.89   14.90
  -1   8  -9   89.59   13.40
  -7   0  10    4.20   22.00
  -6   0  10   14.70   21.10
   6   0 -10   24.60   26.40
   6   0 -10    9.80    7.60
  -6   0  10   18.50    7.00
  -5   0  10  435.86   27.20
  -5   0  10  451.55   41.10
   5   0 -10  435.86   27.50
   5   0 -10  449.56   43.60
  -4   0  10  358.06   33.10
  -4   0  10  361.26   20.60
   4   0 -10  346.17   34.90
  -4   0  10  348.27   22.10
   4   0 -10  355.66   21.90
   4   0 -10  365.56   22.80
   3   0 -10   42.50    7.00
   3   0 -10   41.90    7.40
  -3   0  10   40.00    6.70
  -3   0  10   39.80   12.00
  -3   0  10   46.10    5.90
   3   0 -10   45.50   15.50
  -2   0  10   18.20    4.90
  -2   0  10   22.60    8.90
  -2   0  10   19.90    4.40
   2   0 -10   18.60   10.70
   2   0 -10   16.60    5.40
  -2   0  10   23.70    4.00
   2   0 -10   22.60    6.00
  -1   0  10  597.94   31.60
  -1   0  10  570.84   31.90
   1   0 -10  518.75   30.50
  -1   0  10  571.24   37.10
   1   0 -10  610.04   32.80
  -1   0  10  586.84   32.80
   1   0 -10  624.44   38.50
   0   0 -10  590.44   32.80
   0   0 -10  613.04   31.70
   0   0  10  609.74   32.90
   0   0  10  549.95   35.30
   0   0 -10  597.74   36.20
   0   0  10  579.44   33.40
   1   0  10 1066.29   55.69
   1   0  10  969.00   55.19
  -1   0 -10 1045.80   54.79
   1   0  10 1010.40   55.49
  -1   0 -10 1132.29   56.69
   1   0  10 1064.39   56.29
   2   0  10   50.19    8.30
  -2   0 -10   39.60    7.30
  -2   0 -10   42.90    6.70
   2   0  10   49.50    7.50
   2   0  10   47.70    7.70
   2   0  10   51.89    7.90
   2   0  10   66.29    9.50
   3   0  10  138.29   12.70
  -3   0 -10  141.69   14.00
   3   0  10  154.08   13.70
   3   0  10  166.08   12.30
   3   0  10  137.09   13.50
   3   0  10  147.29   14.40
   4   0  10  122.69   14.30
   4   0  10  119.39   14.90
  -4   0 -10  122.79   14.90
   4   0  10  142.69   14.20
   5   0  10   68.39   13.20
   5   0  10   83.19   13.50
   5   0  10   73.09   13.60
  -5   0 -10   87.29   14.60
   7  -1 -10  130.39   15.90
  -7  -1  10  147.89   33.70
   7   1 -10  126.69   15.40
  -7   1  10  106.69   31.00
   6  -1 -10   45.40    9.90
  -6  -1  10   57.89   10.10
  -6  -1  10   59.59   21.30
   6  -1 -10   52.99   28.60
  -6   1  10   49.90   20.60
   6   1 -10   57.69   10.80
  -6   1  10   52.99    9.10
   6   1 -10   94.89   31.30
  -5  -1  10  109.69   12.20
  -5  -1  10  114.49   10.00
   5  -1 -10  122.79   12.50
   5  -1 -10  140.49   29.80
  -5  -1  10  122.89   21.80
  -5   1  10  118.89   24.50
   5   1 -10  114.49   23.20
  -5   1  10  101.29   12.00
   5   1 -10  124.59   13.50
  -4  -1  10   38.20    7.20
   4  -1 -10   33.00    6.00
  -4  -1  10   41.10    6.20
   4  -1 -10   37.80   15.50
   4  -1 -10   31.00    7.80
  -4   1  10   21.20   12.80
  -4   1  10   20.40    6.40
   4   1 -10   26.30    7.00
   4   1 -10   13.10   15.20
  -3  -1  10  227.38   13.70
   3  -1 -10  238.78   26.20
  -3  -1  10  229.48   14.10
   3  -1 -10  228.18   15.60
  -3  -1  10  235.98   15.40
   3  -1 -10  224.88   15.50
  -3   1  10  196.58   15.20
   3   1 -10  207.98   25.10
  -3   1  10  191.88   13.20
   3   1 -10  200.08   16.10
  -3   1  10  210.28   23.30
  -2  -1  10   67.59    7.50
   2  -1 -10   69.09    5.80
  -2  -1  10   72.39    6.90
   2  -1 -10   68.09    7.90
  -2  -1  10   70.09    6.30
   2  -1 -10   74.59   15.30
  -2   1  10   44.80    6.10
   2   1 -10   42.10    7.90
  -2   1  10   40.50    7.50
  -2   1  10   39.70   11.20
   2   1 -10   40.60   12.30
   1  -1 -10   92.09   13.90
   1  -1 -10   78.39    9.40
   1  -1 -10   81.59    8.70
   1  -1 -10   73.09    7.10
  -1  -1  10   83.99    8.30
  -1  -1  10   84.09    7.70
  -1  -1  10   82.59    7.70
  -1   1  10   86.19    7.90
   1   1 -10   80.39   10.10
   1   1 -10   80.69    9.20
   1   1 -10   79.39   13.20
  -1   1  10   86.29    8.90
  -1   1  10   74.39   11.30
   0  -1 -10   99.39    8.60
   0  -1 -10   93.79    8.50
   0  -1  10   80.59    8.80
   0  -1  10   92.49    8.50
   0  -1 -10   76.89    9.50
   0  -1  10   80.69    8.20
   0  -1  10   92.29    8.80
   0   1  10   83.19    8.50
   0   1  10   74.89    7.50
   0   1  10   76.29    8.60
   0   1 -10   80.69    8.90
   0   1  10   81.29    8.70
   0   1 -10   83.59    6.90
   0   1  10   71.69   10.50
   0   1 -10   70.79    9.80
   1  -1  10  158.28   12.90
   1  -1  10  149.59   11.20
  -1  -1 -10  159.08   12.10
   1  -1  10  180.88   13.20
   1  -1  10  167.88   12.70
   1  -1  10  172.98   12.10
  -1  -1 -10  179.78   11.50
  -1   1 -10  149.88   12.30
   1   1  10  141.19   12.00
  -1   1 -10  135.19   11.20
   1   1  10  123.89   12.00
   1   1  10  129.39   12.10
   1   1  10  135.99   11.80
   2  -1  10  174.08   14.10
  -2  -1 -10  186.38   14.20
   2  -1  10  191.28   14.90
   2  -1  10  161.28   12.60
   2  -1  10  181.18   14.00
   2  -1  10  131.09   11.70
   2   1  10  163.48   13.10
   2   1  10  146.49   13.60
   2   1  10  149.49   13.10
   2   1  10  160.38   13.10
  -2   1 -10  127.19   12.40
  -2   1 -10  158.38   12.60
   3  -1  10   72.09   10.00
   3  -1  10   59.59   10.60
   3  -1  10   68.69   10.70
  -3  -1 -10   73.39   11.10
   3   1  10   67.09   10.00
   3   1  10   82.79   10.60
  -3   1 -10   90.89    8.80
  -3   1 -10   62.49   10.10
   3   1  10   62.99    8.20
   3   1  10   69.29   11.00
  -4  -1 -10    9.10   10.20
   4  -1  10   14.00    7.40
   4  -1  10   15.80    9.40
   4  -1  10    7.30    7.90
   4   1  10   16.80    7.70
   4   1  10    9.60    7.50
  -4   1 -10   12.70    8.80
   5  -1  10    4.40   10.30
   5  -1  10   19.60    8.80
   5  -1  10   22.60    9.40
  -5  -1 -10    4.40   10.10
   5   1  10   22.10   10.60
  -5   1 -10   11.90    9.80
   5   1  10   13.30    9.60
  -7  -2  10    1.30   21.70
  -6  -2  10   25.30    7.50
  -6  -2  10   37.60    6.80
   6  -2 -10   31.90    9.20
   6   2 -10   37.60    9.90
  -6   2  10   22.90   21.80
   6   2 -10   50.59   29.60
  -5  -2  10  302.67   19.40
   5  -2 -10  270.47   20.60
  -5  -2  10  301.87   20.80
  -5   2  10  313.67   35.30
   5   2 -10  318.37   37.70
  -5   2  10  315.47   21.30
   5   2 -10  319.47   21.50
  -4  -2  10  200.28   13.90
  -4  -2  10  196.68   14.90
  -4  -2  10  202.58   13.60
   4  -2 -10  207.58   15.50
   4   2 -10  205.58   16.60
   4   2 -10  170.48   27.10
  -4   2  10  211.28   15.60
  -4   2  10  194.18   26.10
  -3  -2  10    6.10    3.70
   3  -2 -10    5.30    5.30
  -3  -2  10    5.90    3.50
  -3  -2  10    5.00    4.30
   3  -2 -10    7.00    4.80
   3  -2 -10    6.20    3.50
   3   2 -10    2.30    5.00
   3   2 -10    3.10   11.70
  -3   2  10    9.30    5.90
   3   2 -10    3.50    6.30
  -3   2  10    7.00    8.00
   2  -2 -10   20.70    5.60
   2  -2 -10   17.90    4.30
  -2  -2  10   14.80    4.30
  -2  -2  10   20.10    4.60
  -2  -2  10   14.90    4.40
   2  -2 -10   12.80    5.00
  -2   2  10   16.80    9.50
   2   2 -10   19.20    6.30
   2   2 -10   22.40   11.40
  -2   2  10   20.00    5.80
  -2   2  10   19.00    3.80
  -1  -2  10  412.96   24.00
   1  -2 -10  375.26   23.50
   1  -2 -10  437.66   23.90
   1  -2 -10  446.06   25.50
  -1  -2  10  401.56   23.90
  -1  -2  10  406.06   23.90
  -1   2  10  392.06   30.00
  -1   2  10  421.06   25.20
   1   2 -10  450.25   25.60
   1   2 -10  396.46   30.60
  -1   2  10  419.66   22.60
  -1   2  10  420.06   23.50
   1   2 -10  406.66   25.90
   0  -2  10  262.47   17.80
   0  -2  10  242.08   17.10
   0  -2 -10  269.47   16.50
   0  -2 -10  260.67   17.30
   0  -2  10  235.68   16.70
   0  -2 -10  255.67   18.90
   0   2 -10  286.57   22.00
   0   2  10  269.47   18.40
   0   2 -10  286.57   19.40
   0   2 -10  277.97   18.40
   0   2  10  280.87   18.10
   0   2  10  285.07   20.90
   0   2  10  286.67   16.80
   1  -2  10  346.97   24.00
   1  -2  10  388.56   24.00
  -1  -2 -10  397.46   24.00
   1  -2  10  338.27   21.80
   1  -2  10  411.26   24.00
  -1   2 -10  378.06   22.20
   1   2  10  380.46   23.90
   1   2  10  405.86   23.40
  -1   2 -10  393.06   24.00
   1   2  10  414.76   24.50
   1   2  10  402.96   23.30
  -2  -2 -10   95.99   11.70
   2  -2  10   95.99   11.90
   2  -2  10   78.39   10.20
   2  -2  10   89.79    9.60
   2  -2  10   87.89   10.20
  -2   2 -10   99.69    9.90
  -2   2 -10   86.79   10.20
   2   2  10   88.39   10.50
   2   2  10   85.79   10.10
   2   2  10   87.59   10.40
   2   2  10   73.69    9.30
   3  -2  10  200.28   16.30
   3  -2  10  218.58   16.30
   3  -2  10  201.38   17.30
  -3  -2 -10  227.88   18.10
   3  -2  10  181.38   15.20
   3   2  10  179.48   15.30
   3   2  10  181.58   17.40
  -3   2 -10  185.78   14.90
   3   2  10  176.68   15.10
  -3   2 -10  166.98   16.30
   4  -2  10  165.08   17.10
  -4  -2 -10  197.18   19.20
   4  -2  10  191.28   17.10
   4  -2  10  196.28   19.00
   4   2  10  205.88   17.30
   4   2  10  199.58   18.90
  -4   2 -10  199.18   18.00
   5  -2  10   98.49   14.10
   5  -2  10   88.39   12.80
  -5  -2 -10  107.39   16.20
   5  -2  10   87.19   16.20
   5   2  10  120.29   15.70
  -5   2 -10  103.99   15.10
   5   2  10  113.29   16.30
   6  -3 -10    6.10    9.00
  -6  -3  10    3.40    6.80
   6   3 -10   15.90    8.40
   6   3 -10   11.40    7.90
  -6   3  10   17.10    7.90
  -6   3  10   -6.60   20.70
   6   3 -10   11.80   26.30
  -5  -3  10   40.20    7.10
  -5  -3  10   56.99    8.10
  -5  -3  10   41.00    8.10
   5  -3 -10   42.80    9.30
   5   3 -10   31.50    8.60
   5   3 -10   33.10    9.40
   5   3 -10   55.79   25.40
  -5   3  10   21.30   18.60
  -4  -3  10   30.20    7.10
   4  -3 -10   20.40    5.30
   4  -3 -10   20.20    7.20
  -4  -3  10   29.10    5.80
  -4  -3  10   27.20    5.90
  -4   3  10    3.20   12.60
   4   3 -10   11.60    6.90
   4   3 -10   20.30    8.30
  -4   3  10   12.70    6.60
   4   3 -10   14.50   16.40
  -3  -3  10  199.88   13.60
   3  -3 -10  184.78   14.50
   3  -3 -10  191.18   14.00
  -3  -3  10  189.98   14.00
   3  -3 -10  191.58   14.70
  -3  -3  10  201.38   13.80
   3   3 -10  170.48   15.30
   3   3 -10  191.38   25.40
  -3   3  10  155.98   22.80
   3   3 -10  189.88   15.30
   2  -3 -10  254.67   17.00
   2  -3 -10  225.08   15.40
   2  -3 -10  238.38   15.80
  -2  -3  10  228.38   15.10
  -2  -3  10  227.48   15.20
  -2  -3  10  226.18   15.40
   2   3 -10  231.78   17.70
  -2   3  10  220.58   16.70
  -2   3  10  228.48   23.00
   2   3 -10  209.98   24.80
   2   3 -10  222.58   17.30
   1  -3 -10  253.57   15.40
  -1  -3  10  249.97   15.90
  -1  -3  10  244.48   15.70
   1  -3 -10  235.38   15.90
  -1  -3  10  244.08   15.40
  -1   3  10  205.68   16.40
   1   3 -10  230.98   17.60
   1   3 -10  225.48   23.00
   1   3 -10  231.38   17.90
  -1   3  10  223.98   14.60
   0  -3  10   12.30    4.80
   0  -3  10   15.80    4.90
   0  -3 -10   16.70    6.00
   0  -3  10   18.20    4.40
   0   3  10   21.30    6.10
   0   3  10   19.30    9.00
   0   3 -10   27.00    9.70
   0   3 -10   10.80    6.80
   0   3  10   17.60    4.40
   0   3  10   24.50    4.60
   0   3 -10   20.10    6.20
   1  -3  10  326.07   23.10
   1  -3  10  321.47   20.90
  -1  -3 -10  316.87   21.50
   1  -3  10  313.67   21.10
   1   3  10  306.47   20.70
   1   3  10  318.47   20.00
  -1   3 -10  297.07   20.60
   1   3  10  330.77   20.00
   1   3  10  318.57   21.40
   2  -3  10  276.67   17.70
  -2  -3 -10  306.97   20.70
   2  -3  10  300.57   19.20
   2  -3  10  285.47   19.80
   2  -3  10  277.87   19.30
   2   3  10  223.08   18.20
  -2   3 -10  236.48   17.60
   2   3  10  230.38   17.90
   2   3  10  228.08   18.00
   3  -3  10  289.37   19.80
   3  -3  10  308.77   22.60
  -3  -3 -10  295.77   22.20
   3  -3  10  262.27   20.10
   3   3  10  262.97   20.60
   3   3  10  264.37   20.30
   3   3  10  256.07   19.40
  -3   3 -10  244.28   19.20
   4  -3  10    0.00    7.00
   4  -3  10   -2.10    6.30
   4  -3  10    0.10    8.60
  -4  -3 -10    5.40   10.60
  -4   3 -10   -0.30    6.50
   4   3  10    3.30    8.00
   4   3  10   -3.80    7.30
   4   3  10    4.70    6.50
   5  -3  10   44.70   10.10
   5  -3  10   42.90   13.10
  -5  -3 -10   53.69   13.50
   5  -3  10   27.50    9.70
  -5   3 -10   42.90   11.70
   5   3  10   52.49    9.50
   5   3  10   59.09   13.30
   5   3  10   49.10   11.20
  -6  -4  10   23.30    7.40
  -6  -4  10   22.00    9.10
  -6  -4  10   30.40    7.70
   6  -4 -10   22.00    9.20
  -6   4  10   63.69   21.70
  -6   4  10   15.60    7.70
   6   4 -10   22.10   10.30
  -5  -4  10  232.48   17.80
  -5  -4  10  237.28   19.40
   5  -4 -10  228.38   18.90
   5   4 -10  240.68   32.20
   5   4 -10  252.47   21.30
   5   4 -10  265.17   20.30
  -5   4  10  249.38   18.50
  -5   4  10  307.37   34.00
  -4  -4  10  222.08   16.40
  -4  -4  10  223.88   16.60
  -4  -4  10  226.28   17.10
   4  -4 -10  210.98   17.60
   4  -4 -10  230.78   17.70
   4   4 -10  229.98   19.10
  -4   4  10  233.58   17.60
  -4   4  10  257.77   27.40
   4   4 -10  218.28   31.60
  -4   4  10  230.38   17.00
   4   4 -10  224.28   18.20
   3  -4 -10   32.90    7.40
   3  -4 -10   28.10    6.30
  -3  -4  10   35.90    6.90
   3  -4 -10   37.20    7.30
  -3  -4  10   38.30    6.80
  -3  -4  10   55.69    8.20
   3   4 -10   49.80   18.90
  -3   4  10   37.60    7.90
   3   4 -10   38.80    8.50
   3   4 -10   32.90    8.60
  -2  -4  10   45.00    6.90
  -2  -4  10   41.10    6.90
   2  -4 -10   32.90    6.60
  -2  -4  10   43.20    7.00
   2  -4 -10   20.40    5.80
   2  -4 -10   48.90    7.70
   2   4 -10   47.70    9.20
   2   4 -10   39.50    7.60
   2   4 -10   53.49   17.20
  -2   4  10   55.29    9.40
  -1  -4  10  363.56   22.10
   1  -4 -10  353.16   22.40
   1  -4 -10  402.06   24.40
  -1  -4  10  335.87   21.40
  -1   4  10  321.37   28.70
  -1   4  10  330.87   22.30
   1   4 -10  337.17   23.00
   1   4 -10  334.87   30.20
   1   4 -10  345.67   23.40
   0  -4 -10  121.49   13.00
   0  -4  10  129.39   10.20
   0  -4  10  142.89   12.50
   0  -4  10  133.09   11.80
   0   4 -10  119.69   12.40
   0   4 -10  120.09   17.50
   0   4  10  146.19   10.70
   0   4  10  145.69   16.30
   0   4  10  123.69   12.60
   1  -4  10   65.39    9.60
  -1  -4 -10   74.09   11.40
   1  -4  10   50.79    8.70
   1   4  10   74.99    8.60
   1   4  10   77.39    8.70
  -1   4 -10   54.49    9.20
   1   4  10   86.39   11.60
   2  -4  10   34.70    8.00
  -2  -4 -10   49.60   11.90
   2  -4  10   35.80    6.40
   2  -4  10   27.80    8.00
   2   4  10   35.30    8.50
  -2   4 -10   37.50    8.10
   2   4  10   50.49   13.90
   2   4  10   36.30    6.90
   2   4  10   37.40    8.10
  -3  -4 -10  184.48   18.90
   3  -4  10  191.78   18.50
   3   4  10  160.78   15.00
   3   4  10  161.38   16.20
   3   4  10  177.58   16.10
  -3   4 -10  163.68   15.80
  -4  -4 -10  180.68   19.80
   4  -4  10  158.58   18.10
   4   4  10  151.08   15.60
   4   4  10  134.09   17.10
  -4   4 -10  144.59   14.60
   4   4  10  149.79   15.80
  -5  -5  10   27.80    8.00
   5  -5 -10   26.00   10.00
   5  -5 -10   24.10    7.80
  -5  -5  10   32.50    9.70
  -5  -5  10   30.50    8.60
  -5   5  10   30.90    8.80
   5   5 -10   51.29   28.30
   5   5 -10   20.10   10.30
   4  -5 -10   19.80    8.30
   4  -5 -10   17.50    7.60
  -4  -5  10   15.20    7.10
  -4  -5  10   19.80    6.30
  -4  -5  10   22.50    7.80
   4   5 -10    6.60    8.40
  -4   5  10   12.80    5.90
   4   5 -10   24.00   22.00
  -4   5  10   46.70   16.40
   4   5 -10    3.10    7.90
   3  -5 -10  301.67   20.50
  -3  -5  10  274.57   19.00
  -3  -5  10  268.57   19.20
   3  -5 -10  267.27   18.90
  -3  -5  10  258.97   18.50
  -3   5  10  305.57   31.00
  -3   5  10  273.17   19.60
   3   5 -10  247.18   19.50
   3   5 -10  245.78   20.90
  -3   5  10  241.48   17.30
   3   5 -10  268.57   33.40
  -2  -5  10  206.88   15.30
   2  -5 -10  210.78   17.10
  -2  -5  10  195.68   15.10
  -2  -5  10  215.28   15.90
   2  -5 -10  209.48   14.90
  -2   5  10  213.28   14.40
   2   5 -10  224.78   18.50
   2   5 -10  201.18   16.70
  -2   5  10  219.48   17.00
  -2   5  10  185.08   26.70
   2   5 -10  213.08   27.80
   2   5 -10  225.88   16.80
   1  -5 -10   94.79   12.80
  -1  -5  10   75.79    8.60
  -1  -5  10   77.49    9.90
  -1  -5  10   80.59    9.40
  -1   5  10  100.59   18.00
   1   5 -10  118.79   19.40
   1   5 -10   67.19   11.10
  -1   5  10  108.89   13.00
   0  -5  10   19.50    6.50
   0  -5 -10   29.00    9.00
   0  -5  10   24.50    6.80
   0   5 -10   15.20    7.30
   0   5  10   31.00    8.10
   1  -5  10  235.98   17.50
   1  -5  10  203.88   17.60
  -1  -5 -10  225.88   19.60
   1   5  10  223.78   17.80
   1   5  10  221.88   15.90
  -1   5 -10  229.58   17.60
  -2  -5 -10  170.18   17.70
   2  -5  10  162.18   16.50
   2  -5  10  155.38   14.40
  -2   5 -10  105.09   13.00
   2   5  10  123.09   12.90
   2   5  10  132.79   12.60
   2   5  10  132.99   14.90
  -3  -5 -10   58.69   14.00
   3  -5  10   37.60   10.00
   3  -5  10   42.50    8.60
   3   5  10   73.99   11.70
   3   5  10   45.50    9.80
  -3   5 -10   50.39   10.60
   3   5  10   63.79   11.40
   4  -5  10   14.20   10.30
  -4  -5 -10    9.60   13.60
   4   5  10    8.60    8.80
   4   5  10    1.00    7.90
  -4   5 -10   -0.70    7.20
   4   5  10   -1.00    7.50
  -5  -6  10  130.69   15.30
  -5  -6  10  116.49   12.90
   5  -6 -10  140.49   16.20
  -5  -6  10  128.19   14.50
   5  -6 -10  126.19   15.60
   5   6 -10   76.19   13.50
  -5   6  10  123.69   13.90
  -5   6  10  134.39   31.70
  -4  -6  10   55.39   10.10
  -4  -6  10   88.09   12.50
   4  -6 -10   68.79   11.30
  -4  -6  10   92.49   12.00
   4  -6 -10   91.89   13.00
   4   6 -10   50.29   10.90
  -4   6  10   72.39   27.70
   4   6 -10   68.09   28.20
  -4   6  10   55.79    9.40
  -3  -6  10   27.10    7.20
  -3  -6  10   23.50    6.70
   3  -6 -10   29.70    8.20
  -3  -6  10   31.20    8.60
   3  -6 -10   34.10    9.90
   3   6 -10   20.10    7.90
  -3   6  10   24.90    6.50
   3   6 -10   15.90    8.70
  -3   6  10   20.20   19.50
   3   6 -10   30.70   19.00
  -2  -6  10   13.30    6.00
  -2  -6  10   11.80    4.90
  -2  -6  10    9.50    6.30
   2  -6 -10   13.10    8.40
   2   6 -10   14.50   10.70
  -2   6  10   36.60   15.70
   2   6 -10   26.10   20.30
   2   6 -10   15.90    8.20
  -1  -6  10  142.69   13.40
  -1  -6  10  147.39   14.60
   1  -6 -10  158.98   16.50
   1   6 -10  140.19   20.80
   1   6 -10  140.19   15.70
  -1   6  10  149.49   15.00
   0  -6  10  116.39   13.70
   0  -6 -10  136.29   16.30
   0  -6  10  120.99   11.90
   0   6  10   99.89   12.90
   0   6 -10  118.79   13.40
   1  -6  10  137.39   13.90
   1  -6  10  146.09   15.30
  -1  -6 -10  150.48   17.90
   1   6  10  153.58   15.80
  -1   6 -10  148.69   14.70
  -2  -6 -10   22.50   12.10
   2  -6  10   21.90    9.60
  -2   6 -10   25.80    8.70
   2   6  10   21.80    7.50
   2   6  10   22.60    9.90
   3  -6  10   59.09   12.10
  -3  -6 -10   71.89   16.00
   3   6  10   59.29   11.10
   3   6  10  109.79   14.10
  -3   6 -10   82.69   13.50
   3   6  10  120.39   16.90
   4  -7 -10   -1.00    9.30
  -4  -7  10   -0.30    7.20
  -4  -7  10    4.00    6.90
  -4  -7  10   -1.90    5.60
   4   7 -10    1.10    8.40
  -4   7  10   -3.70    4.40
   4   7 -10   26.30   24.20
  -3  -7  10   95.19   12.90
  -3  -7  10   91.79   12.60
   3  -7 -10  111.19   15.90
  -3  -7  10  137.69   16.40
   3   7 -10   86.79   13.30
   3   7 -10  138.49   32.40
   2  -7 -10   70.09   13.80
  -2  -7  10   65.89   10.40
  -2  -7  10   84.79   13.20
   2   7 -10   73.59   12.60
   2   7 -10   82.19   14.10
  -2   7  10   95.09   11.90
   1  -7 -10   32.60   11.90
  -1  -7  10   45.80   10.00
  -1  -7  10   33.20    8.70
  -1   7  10   41.40    9.50
   1   7 -10   29.20   10.00
   0  -7  10    6.00    7.60
   0  -7  10    7.30    6.10
   0  -7 -10    1.80   10.40
   0   7 -10   -1.20    7.00
   0   7  10   -0.90    6.40
   1  -7  10   91.69   13.80
  -1  -7 -10   93.39   16.10
  -1   7 -10   72.69   12.30
   1   7  10  116.39   15.30
  -2  -7 -10   99.19   17.10
   2  -7  10   68.39   12.30
  -2   7 -10  112.29   12.90
   2   7  10   88.99   14.50
   1  -8 -10  114.49   18.10
  -1  -8  10   82.29   12.70
  -1  -8  10   73.89   10.60
  -1   8  10   56.39    9.60
   1   8 -10   67.99   11.80
   0  -8  10   70.89   12.60
   0  -8  10   59.49    9.20
   0  -8 -10   79.69   16.10
   0   8 -10   71.29   12.80
   0   8  10   51.59   10.50
  -6   0  11   98.09   27.80
   6   0 -11   76.59   31.80
   6   0 -11   88.79   12.70
  -6   0  11   96.19   12.30
   5   0 -11  338.27   39.00
   5   0 -11  336.37   23.50
  -5   0  11  341.57   36.40
  -5   0  11  321.37   22.40
   4   0 -11    7.60   15.70
  -4   0  11    7.80   11.20
  -4   0  11    1.70    5.50
  -4   0  11    3.00    3.40
   4   0 -11    6.20    6.90
  -3   0  11   98.59   17.50
   3   0 -11  102.99   11.60
   3   0 -11   89.19   10.50
  -3   0  11   99.79    8.50
  -3   0  11   92.59   10.30
   3   0 -11   96.99   20.30
  -2   0  11  292.77   20.10
   2   0 -11  310.77   20.50
   2   0 -11  307.27   20.80
  -2   0  11  329.67   26.90
  -2   0  11  310.87   18.90
   2   0 -11  343.67   28.90
  -2   0  11  300.87   18.20
  -1   0  11  276.07   18.40
  -1   0  11  273.37   23.00
   1   0 -11  299.67   25.00
  -1   0  11  284.97   17.40
  -1   0  11  276.77   17.70
   1   0 -11  281.07   19.00
   0   0  11    6.30    3.70
   0   0  11   10.30    4.60
   0   0 -11    8.40    5.10
   0   0 -11   10.00    5.10
   0   0 -11   10.10    4.20
   0   0  11    8.30    5.10
   0   0  11    7.70    4.40
  -1   0 -11   80.39    9.20
   1   0  11   56.69    8.40
   1   0  11   60.99    8.60
   1   0  11   72.29    9.60
   1   0  11   72.29    8.70
  -1   0 -11   70.29    8.60
   2   0  11  206.68   16.00
  -2   0 -11  196.78   14.70
   2   0  11  224.28   16.30
   2   0  11  228.88   17.20
   2   0  11  177.98   14.90
   3   0  11  256.57   20.20
   3   0  11  249.88   19.20
   3   0  11  257.47   19.50
  -3   0 -11  265.97   19.90
  -4   0 -11   92.59   13.90
   4   0  11   88.29   13.10
   4   0  11   70.79   12.50
   4   0  11   84.69   13.20
   5   0  11    5.10    8.10
   5   0  11   -2.20    9.10
  -5   0 -11   -1.30   10.60
   5   0  11    0.60    8.70
   6  -1 -11  -17.30   25.20
   6  -1 -11    3.90    8.60
  -6  -1  11    2.70    6.80
  -6  -1  11    0.00   19.10
   6   1 -11  -14.30   25.00
   6   1 -11   -1.50    7.40
  -6   1  11    2.40    5.90
  -6   1  11   -7.30   18.30
   5  -1 -11   55.69   21.60
  -5  -1  11   45.10    8.80
  -5  -1  11   56.29    7.60
   5  -1 -11   41.50    9.30
  -5  -1  11   39.20   17.90
   5   1 -11   56.49   10.00
   5   1 -11   51.29   24.00
  -5   1  11   64.09    9.90
  -5   1  11   54.69   20.00
  -4  -1  11   39.70    5.90
   4  -1 -11   47.10   19.90
  -4  -1  11   59.09    8.70
   4  -1 -11   43.80    8.60
  -4   1  11   45.00   16.20
  -4   1  11   36.80    7.50
   4   1 -11   46.20    9.50
   4   1 -11   59.39   18.40
   3  -1 -11  240.38   17.10
  -3  -1  11  246.58   15.30
   3  -1 -11  240.48   17.30
  -3  -1  11  259.07   16.00
   3  -1 -11  259.37   28.40
  -3  -1  11  249.38   16.80
  -3   1  11  234.38   15.00
   3   1 -11  262.77   28.20
  -3   1  11  262.77   26.50
  -3   1  11  209.78   17.10
   3   1 -11  227.68   17.60
  -2  -1  11  207.58   14.10
   2  -1 -11  204.58   16.10
   2  -1 -11  238.38   24.80
  -2  -1  11  220.08   14.70
  -2  -1  11  206.68   15.10
   2  -1 -11  223.88   16.10
   2   1 -11  219.68   24.20
  -2   1  11  231.58   22.50
  -2   1  11  218.88   16.20
   2   1 -11  219.08   16.80
  -2   1  11  223.98   14.40
   2   1 -11  217.68   16.50
   1  -1 -11  156.98   13.50
  -1  -1  11  139.69   11.50
  -1  -1  11  150.08   11.60
   1  -1 -11  167.98   18.60
   1  -1 -11  122.99   10.50
  -1  -1  11  137.79   12.00
   1  -1 -11  161.98   12.80
   1   1 -11  172.08   14.30
  -1   1  11  162.78   18.50
  -1   1  11  164.28   11.00
  -1   1  11  169.38   13.40
  -1   1  11  183.98   12.30
   1   1 -11  173.88   13.50
   1   1 -11  157.08   18.00
   0  -1 -11  527.95   31.40
   0  -1  11  542.05   32.00
   0  -1  11  535.75   32.00
   0  -1  11  525.35   31.80
   0  -1 -11  557.04   31.30
   0   1  11  554.44   37.80
   0   1  11  564.84   31.40
   0   1 -11  601.34   32.60
   0   1  11  560.74   32.70
   0   1  11  591.84   32.10
   0   1 -11  545.55   33.20
   0   1 -11  666.03   39.00
  -1  -1 -11  496.75   26.30
  -1  -1 -11  516.15   27.30
   1  -1  11  497.95   27.40
   1  -1  11  492.45   27.70
   1  -1  11  518.85   27.90
   1  -1  11  476.05   28.10
   1   1  11  411.76   26.80
  -1   1 -11  408.26   26.60
   1   1  11  420.66   26.90
  -1   1 -11  406.86   25.80
   1   1  11  411.76   27.30
   1   1  11  420.66   27.50
   2  -1  11   45.20    7.60
  -2  -1 -11   51.39    9.80
   2  -1  11   48.80    8.70
   2  -1  11   50.39    8.80
   2  -1  11   33.00    6.60
  -2   1 -11   59.69    8.90
   2   1  11   57.69    9.50
   2   1  11   58.89    8.80
  -2   1 -11   63.99    8.80
   2   1  11   59.39    9.30
   3  -1  11    2.50    7.10
  -3  -1 -11    5.60    9.50
   3  -1  11    3.80    6.70
   3  -1  11    3.10    5.90
  -3   1 -11    3.70    7.70
   3   1  11    3.50    7.20
   3   1  11    3.00    5.20
   3   1  11    2.10    7.50
   4  -1  11   70.39   13.60
   4  -1  11   70.99   12.60
   4  -1  11   54.89   11.00
  -4  -1 -11   82.39   14.00
  -4   1 -11   74.79   12.70
   4   1  11   63.09   11.70
   4   1  11   68.19   11.80
   5  -1  11  160.88   17.60
   5  -1  11  161.68   17.60
  -5  -1 -11  166.28   19.70
   5   1  11  131.59   18.10
   5   1  11  168.98   17.40
  -5   1 -11  150.88   17.80
   6  -2 -11  168.28   16.50
  -6  -2  11  196.08   17.20
  -6  -2  11  185.38   14.40
   6   2 -11  169.28   17.00
  -6   2  11  141.79   32.00
   6   2 -11  178.78   35.10
  -5  -2  11  149.88   12.40
  -5  -2  11  162.28   15.00
   5  -2 -11  161.68   15.00
   5   2 -11  152.08   30.50
   5   2 -11  187.78   16.50
  -5   2  11  177.68   29.00
  -4  -2  11   12.50    4.50
   4  -2 -11   15.00    7.20
  -4  -2  11   17.20    6.50
  -4  -2  11   20.40    5.30
   4   2 -11   14.90   17.50
   4   2 -11   23.00    8.10
  -4   2  11   13.90    6.40
  -4   2  11   14.40   13.70
   3  -2 -11   69.29    9.90
  -3  -2  11   75.59    9.20
  -3  -2  11   87.59    8.20
   3  -2 -11   75.29    9.80
  -3  -2  11   75.99    7.90
   3   2 -11   75.39   19.30
   3   2 -11   61.49   10.00
   3   2 -11   55.59    8.70
  -3   2  11   72.99   17.70
  -3   2  11   90.49   11.10
  -2  -2  11  208.88   14.00
   2  -2 -11  209.58   15.20
   2  -2 -11  200.88   13.50
  -2  -2  11  205.58   14.00
   2  -2 -11  208.68   15.70
  -2  -2  11  202.98   14.40
  -2   2  11  217.18   16.00
   2   2 -11  181.78   23.20
   2   2 -11  190.88   16.40
  -2   2  11  186.68   21.80
  -2   2  11  209.28   13.40
   2   2 -11  205.18   16.50
   1  -2 -11  153.08   12.80
   1  -2 -11  200.88   14.00
  -1  -2  11  183.68   13.60
  -1  -2  11  193.28   13.80
  -1  -2  11  193.28   14.00
  -1   2  11  183.98   19.50
  -1   2  11  215.68   13.80
   1   2 -11  208.68   16.60
   1   2 -11  227.28   15.90
   1   2 -11  197.98   20.80
  -1   2  11  209.48   15.60
   0  -2 -11  192.68   14.10
   0  -2  11  169.88   13.50
   0  -2  11  176.78   12.70
   0  -2 -11  193.38   12.80
   0  -2  11  179.68   13.50
   0   2  11  158.88   13.00
   0   2  11  153.18   12.20
   0   2  11  163.48   14.40
   0   2  11  181.88   16.30
   0   2 -11  171.88   14.10
   1  -2  11   19.90    5.10
   1  -2  11   19.00    5.90
  -1  -2 -11   19.00    6.20
   1  -2  11   27.00    7.00
  -1   2 -11   12.50    6.40
   1   2  11    7.40    4.80
   1   2  11   13.80    4.40
   1   2  11    9.30    4.90
   1   2  11    9.60    6.30
   2  -2  11  207.08   15.80
   2  -2  11  253.47   18.10
   2  -2  11  201.98   16.90
  -2  -2 -11  246.58   18.30
   2  -2  11  238.48   18.00
   2   2  11  228.58   17.70
   2   2  11  222.58   16.60
  -2   2 -11  214.78   16.20
  -2   2 -11  217.78   16.30
   2   2  11  205.28   16.60
  -3  -2 -11  298.07   22.50
   3  -2  11  278.17   20.70
   3  -2  11  301.77   22.50
  -3   2 -11  296.77   19.80
   3   2  11  277.87   21.40
   3   2  11  305.07   21.50
   3   2  11  284.17   21.40
   4  -2  11   36.30   10.90
  -4  -2 -11   35.80   11.60
   4  -2  11   38.50    9.30
   4  -2  11   35.10   10.40
   4   2  11   50.59   11.40
  -4   2 -11   47.00   11.60
   4   2  11   38.40   10.40
   5  -2  11   -2.70   10.30
   5  -2  11   -3.40    6.50
  -5  -2 -11   -4.00   10.10
   5  -2  11  -11.90    7.50
  -5   2 -11   11.20   10.60
   5   2  11   -0.70    9.30
   5   2  11    3.70   10.40
   6  -3 -11   27.00   10.40
  -6  -3  11   18.40    8.50
  -6  -3  11   27.50    6.90
   6   3 -11   46.20   30.10
   6   3 -11   33.10    9.10
  -6   3  11    4.20   21.90
  -6   3  11   32.80    9.20
  -5  -3  11   27.40    5.60
  -5  -3  11   21.20    7.50
   5  -3 -11   30.30    9.00
  -5  -3  11   22.90    5.80
  -5   3  11   16.10    5.90
  -5   3  11    4.20   18.10
   5   3 -11   25.00   23.50
   5   3 -11   36.70   10.10
  -4  -3  11  157.28   14.10
  -4  -3  11  162.98   12.40
  -4  -3  11  156.18   12.30
   4  -3 -11  142.19   14.00
  -4   3  11  123.19   24.70
   4   3 -11  129.09   14.40
  -4   3  11  163.58   14.80
  -3  -3  11  114.79   10.00
   3  -3 -11  116.49   11.60
  -3  -3  11  112.69   10.20
   3  -3 -11  105.99   11.80
  -3  -3  11  120.29   10.90
   3  -3 -11  109.29    9.90
   3   3 -11   83.79   12.10
   3   3 -11  119.39   24.30
  -3   3  11   95.99   20.30
   3   3 -11  100.39   11.80
   2  -3 -11   11.90    5.90
  -2  -3  11    7.60    4.60
   2  -3 -11    6.20    4.80
  -2  -3  11    7.20    4.70
   2  -3 -11    8.60    6.00
  -2  -3  11    7.00    4.20
  -2   3  11   18.80    9.60
   2   3 -11    6.80   12.40
  -2   3  11   19.60    7.30
   2   3 -11    1.80    6.20
   2   3 -11    5.80    6.50
  -1  -3  11  363.36   21.30
   1  -3 -11  362.86   22.80
  -1  -3  11  352.26   21.50
   1  -3 -11  296.77   20.90
  -1  -3  11  355.56   21.60
   1  -3 -11  356.46   20.80
  -1   3  11  331.17   20.20
   1   3 -11  329.57   23.40
   1   3 -11  318.87   28.90
  -1   3  11  313.47   22.20
   1   3 -11  372.06   23.60
  -1   3  11  343.87   28.00
   0  -3  11  258.07   17.40
   0  -3  11  262.37   18.80
   0  -3  11  256.47   18.10
   0   3 -11  275.87   19.30
   0   3  11  258.37   19.10
   0   3  11  266.47   23.80
   0   3  11  296.77   17.90
   0   3  11  303.77   21.50
  -1  -3 -11  452.95   27.10
   1  -3  11  466.35   26.80
   1  -3  11  426.46   26.70
  -1   3 -11  362.36   26.00
   1   3  11  385.06   26.30
   1   3  11  412.06   25.20
   1   3  11  432.76   25.50
   2  -3  11  218.98   18.00
   2  -3  11  213.78   18.60
  -2  -3 -11  220.78   18.90
   2   3  11  219.48   16.50
  -2   3 -11  246.78   25.70
   2   3  11  222.78   16.80
   2   3  11  221.58   18.30
   2   3  11  236.38   17.80
  -3  -3 -11   57.49   12.00
   3  -3  11   42.30   10.40
   3  -3  11   42.00   10.00
   3   3  11   39.30    9.10
   3   3  11   47.50   10.40
  -3   3 -11   60.59    9.60
   3   3  11   32.70    9.00
   4  -3  11   38.90   11.30
   4  -3  11   53.29   10.00
  -4  -3 -11   65.39   13.90
   4  -3  11   39.20    9.90
   4   3  11   60.59   11.50
  -4   3 -11   48.00    9.70
   4   3  11   63.59   12.80
   4   3  11   68.99   11.60
  -4   3 -11   50.89   10.90
  -6  -4  11  236.78   18.50
  -6  -4  11  236.98   20.90
   6  -4 -11  216.78   20.90
  -6   4  11  324.77   37.10
   6   4 -11  233.98   22.60
  -6   4  11  243.18   20.20
   6   4 -11  262.37   20.20
  -5  -4  11   53.39   10.50
  -5  -4  11   60.19    9.50
  -5  -4  11   47.30    8.20
   5  -4 -11   45.60   11.10
   5   4 -11   39.90   11.40
   5   4 -11   54.29   26.80
   5   4 -11   42.60   10.10
  -5   4  11   63.29   20.70
  -5   4  11   53.19    9.80
  -4  -4  11    4.40    5.10
  -4  -4  11    2.20    5.30
   4  -4 -11   -2.60    7.70
  -4  -4  11    0.20    5.10
   4   4 -11    3.40    7.50
  -4   4  11   22.10   14.00
   4   4 -11    7.40   20.00
  -4   4  11   -2.20    5.60
   4   4 -11   -5.10    7.10
  -3  -4  11   79.49    8.90
   3  -4 -11   68.39    9.80
   3  -4 -11  101.09   11.60
  -3  -4  11   76.79   15.60
   3  -4 -11   67.89   10.90
   3   4 -11   80.69   23.40
  -3   4  11   61.29    9.70
   2  -4 -11  132.29   11.40
  -2  -4  11  114.19   10.80
  -2  -4  11  117.69   11.00
   2  -4 -11   75.19    9.90
   2  -4 -11  111.89   11.50
  -2  -4  11  104.79   10.30
   2   4 -11  119.59   14.50
  -2   4  11  146.49   19.70
   2   4 -11  107.09   12.80
   2   4 -11  111.59   21.70
  -2   4  11  108.49   12.80
  -1  -4  11  208.98   15.20
  -1  -4  11  219.88   16.10
   1  -4 -11  204.98   16.90
  -1  -4  11  199.78   14.40
  -1   4  11  198.48   16.90
   1   4 -11  215.88   17.00
   1   4 -11  223.38   17.40
   1   4 -11  208.38   24.10
   0  -4  11  216.38   16.70
   0  -4  11  243.38   16.50
   0  -4  11  227.68   17.70
   0  -4 -11  218.78   18.20
   0   4 -11  226.18   18.00
   0   4  11  266.87   22.50
   0   4  11  234.48   15.90
   0   4  11  242.28   18.10
   1  -4  11    5.90    6.00
   1  -4  11    4.60    6.10
  -1  -4 -11    2.70    7.60
  -1   4 -11   -6.80    6.30
   1   4  11    0.00    4.90
   1   4  11    2.00    3.90
   1   4  11    3.60    6.00
   2  -4  11   60.59   10.80
   2  -4  11   58.99   10.10
  -2  -4 -11   73.19   13.10
   2   4  11   65.79    9.60
  -2   4 -11   67.89    9.90
   2   4  11   91.29   11.90
   2   4  11   94.49   13.10
   3  -4  11  342.77   25.30
   3  -4  11  304.17   21.90
   3  -4  11  332.67   23.50
  -3  -4 -11  361.56   27.40
   3   4  11  332.07   24.30
   3   4  11  330.47   23.70
  -3   4 -11  296.97   22.50
   3   4  11  315.77   24.40
  -4  -4 -11   38.30   13.40
   4  -4  11   35.70    9.30
   4  -4  11   38.40   12.20
   4  -4  11   35.20    8.80
   4   4  11   44.40   11.70
   4   4  11   56.19   12.30
  -4   4 -11   19.70    8.80
   4   4  11   34.60   10.70
  -5  -5  11   30.20    8.50
  -5  -5  11   26.30    9.10
  -5  -5  11   24.00    7.80
   5  -5 -11    6.30    9.30
   5   5 -11   58.99   28.30
   5   5 -11   22.80   10.90
   5   5 -11   14.30    8.50
  -5   5  11   24.20    8.50
  -5   5  11   58.29   18.30
   4  -5 -11   78.29   12.20
  -4  -5  11   82.39   10.70
  -4  -5  11  104.09   12.80
  -4  -5  11   91.19   12.30
   4   5 -11   67.39   12.20
   4   5 -11  118.09   30.60
  -4   5  11   96.39   11.50
   4   5 -11   65.29   12.50
  -3  -5  11  112.09   11.70
   3  -5 -11  102.09   12.40
  -3  -5  11  122.09   12.60
   3  -5 -11  120.09   14.20
  -3  -5  11  107.89   11.40
   3   5 -11   72.49   11.80
   3   5 -11   84.29   12.80
  -3   5  11  166.18   24.60
   3   5 -11  128.39   29.10
  -2  -5  11   50.39    9.00
   2  -5 -11   40.00    9.30
  -2  -5  11   36.10    6.90
  -2  -5  11   46.00    8.30
  -2   5  11   36.70    9.70
   2   5 -11   41.50   19.40
   2   5 -11   33.50    9.30
  -2   5  11   23.80   21.40
  -1  -5  11   81.49   11.30
  -1  -5  11   76.79   10.60
   1  -5 -11   72.29   11.90
  -1   5  11   95.59   17.10
   1   5 -11   95.59   21.70
  -1   5  11   87.49   12.40
   1   5 -11   56.19   10.70
   0  -5 -11  167.58   17.20
   0  -5  11  198.68   15.80
   0  -5  11  184.78   16.20
   0   5 -11  168.18   15.90
   0   5  11  191.08   17.10
  -1  -5 -11  190.48   18.90
   1  -5  11  179.48   17.00
   1  -5  11  208.88   16.90
  -1   5 -11  184.38   16.80
   1   5  11  216.98   18.60
   1   5  11  204.78   15.30
  -2  -5 -11   36.70   12.50
   2  -5  11   33.40   10.00
   2  -5  11   36.80    9.30
   2   5  11   17.30    7.70
   2   5  11   18.70    8.40
   2   5  11   21.50    6.90
  -2   5 -11   35.90    8.80
   3  -5  11    4.20    8.80
   3  -5  11    5.60    6.80
  -3  -5 -11    4.10   13.10
   3   5  11    5.20    8.20
   3   5  11   11.40    9.20
  -3   5 -11    5.00    7.50
  -4  -6  11    8.80    6.80
   4  -6 -11    3.20    8.20
  -4  -6  11    1.80    6.20
   4  -6 -11   -3.30    7.20
  -4  -6  11    4.80    6.60
  -4   6  11  -24.80   19.90
   4   6 -11   36.30   24.40
  -4   6  11   -1.30    5.30
   4   6 -11   -5.10    7.40
   4   6 -11    2.90    8.00
  -3  -6  11  123.59   14.00
  -3  -6  11  125.99   13.10
   3  -6 -11  143.49   16.50
  -3  -6  11  106.49   12.00
   3   6 -11   86.49   13.60
  -3   6  11  103.49   28.90
   3   6 -11  107.09   30.10
   3   6 -11  108.09   13.70
  -2  -6  11  131.99   13.60
  -2  -6  11  122.89   14.40
   2  -6 -11  139.59   16.70
  -2   6  11  176.08   25.50
  -2   6  11  118.99   14.60
   2   6 -11  138.19   26.20
   2   6 -11  133.19   16.30
   1  -6 -11  121.89   15.80
  -1  -6  11  111.59   14.30
  -1  -6  11  102.09   11.70
   1   6 -11  143.69   23.60
   1   6 -11  123.59   15.80
  -1   6  11  123.79   14.80
  -1  -6 -11   -3.00   10.30
   1  -6  11    3.60    6.80
   1  -6  11    5.40    5.90
   1   6  11    4.70    7.30
  -1   6 -11   -4.90    6.60
   2  -6  11   28.70    8.00
  -2  -6 -11   36.80   13.30
   2  -6  11   28.60   10.30
  -2   6 -11   36.80    8.50
   2   6  11   31.40    7.60
   2   6  11   38.40   10.40
  -3  -6 -11  179.38   22.30
   3  -6  11  161.88   18.80
   3   6  11  157.08   17.80
   3   6  11  148.99   15.70
  -3   6 -11  146.59   16.10
   3   6  11  138.19   15.20
  -3  -7  11   48.80    9.70
   3  -7 -11   58.59   12.90
  -3  -7  11   46.30   10.20
  -3  -7  11   53.99    9.70
   3   7 -11   41.60   10.70
  -2  -7  11   25.80    8.30
   2  -7 -11   19.20   11.10
  -2  -7  11   18.90    8.40
  -2   7  11   20.70    7.70
   2   7 -11   13.90    9.10
   2   7 -11   45.50   22.60
   1  -7 -11   51.69   14.10
  -1  -7  11   45.70   10.20
  -1  -7  11   46.30    9.20
   1   7 -11   47.30   11.40
  -1   7  11   50.29   10.90
   0  -7 -11  174.68   19.90
   0  -7  11  137.39   16.40
   0  -7  11  137.69   13.40
   0   7 -11   99.69   14.50
   0   7  11  135.09   16.00
   1  -7  11   39.70    8.70
   1  -7  11   37.40   10.80
  -1  -7 -11   35.10   13.50
  -1   7 -11   26.50   10.30
   1   7  11   33.40   10.90
   6   0 -12   64.19   31.10
  -6   0  12   42.40    9.10
  -6   0  12   65.19   25.40
   6   0 -12   45.20   11.40
   5   0 -12    9.30    7.90
  -5   0  12   19.30    7.80
  -5   0  12   17.10   16.90
   5   0 -12   25.10   23.40
   4   0 -12   89.29   24.20
  -4   0  12   69.19   10.00
   4   0 -12   69.49   10.70
  -4   0  12   82.69    7.80
  -4   0  12   84.59   20.00
  -3   0  12  342.37   23.20
  -3   0  12  382.16   33.00
   3   0 -12  385.76   24.00
   3   0 -12  386.36   35.20
   3   0 -12  344.17   23.70
  -3   0  12  357.56   21.70
   2   0 -12  139.09   20.20
  -2   0  12  122.09   10.60
  -2   0  12  122.39   11.60
  -2   0  12  138.29   17.30
  -2   0  12  120.99    9.60
   2   0 -12  130.49   12.50
  -1   0  12    1.80    4.00
  -1   0  12    2.00    4.40
   1   0 -12    0.50    5.70
  -1   0  12    2.00    3.50
  -1   0  12    1.00    6.50
   1   0 -12    3.30    9.30
   0   0 -12   -0.40    5.20
   0   0  12    4.30    4.90
   0   0  12    3.70    4.30
   0   0  12    4.70    5.20
  -1   0 -12  447.56   25.90
   1   0  12  461.65   27.10
   1   0  12  435.36   26.90
   1   0  12  423.06   26.70
  -1   0 -12  406.86   25.80
   2   0  12  115.79   12.50
   2   0  12  159.38   14.00
  -2   0 -12  131.69   12.80
   2   0  12  150.18   12.70
   2   0  12  161.98   14.40
   3   0  12   65.99   11.10
   3   0  12   62.09   11.30
   4   0  12    2.10    8.50
   4   0  12   -5.70    8.50
  -4   0 -12    4.20    8.80
   6  -1 -12   94.69   14.30
  -6  -1  12  116.29   14.00
   6  -1 -12  134.19   37.70
  -6  -1  12  143.79   30.90
  -6   1  12  120.29   30.60
   6   1 -12  115.89   35.00
   6   1 -12   94.89   13.60
  -6   1  12   80.79   12.20
   5  -1 -12  125.19   14.90
   5  -1 -12  144.39   33.40
  -5  -1  12  142.29   14.10
  -5  -1  12  136.99   26.80
  -5   1  12  142.19   27.80
   5   1 -12  123.59   14.10
  -5   1  12  124.49   14.00
   5   1 -12  141.39   32.50
  -4  -1  12  181.98   13.30
  -4  -1  12  176.18   14.70
   4  -1 -12  179.98   15.60
   4  -1 -12  191.58   28.70
  -4   1  12  156.98   15.40
   4   1 -12  183.88   28.50
   4   1 -12  189.28   16.30
  -4   1  12  180.78   26.20
  -3  -1  12   35.00    7.10
   3  -1 -12   31.60    7.80
  -3  -1  12   48.90    7.10
  -3  -1  12   43.30    6.70
   3  -1 -12   50.79   18.40
   3  -1 -12   30.80    6.70
   3   1 -12   21.10    7.90
  -3   1  12   24.50    4.90
   3   1 -12   36.50   16.90
  -3   1  12   39.20   13.90
  -3   1  12   41.30    8.50
  -2  -1  12  286.27   19.50
   2  -1 -12  279.97   19.60
   2  -1 -12  330.47   29.60
  -2  -1  12  304.97   18.90
   2  -1 -12  277.07   20.20
  -2  -1  12  307.47   18.40
   2   1 -12  296.57   20.60
   2   1 -12  289.57   28.60
   2   1 -12  294.57   20.70
  -2   1  12  303.17   27.00
  -2   1  12  279.97   20.20
   1  -1 -12  375.56   22.90
  -1  -1  12  334.37   21.60
  -1  -1  12  337.77   21.80
  -1  -1  12  343.57   22.60
   1  -1 -12  335.27   23.30
  -1   1  12  375.56   22.00
  -1   1  12  343.67   28.10
   1   1 -12  347.07   29.20
  -1   1  12  370.06   21.10
   1   1 -12  367.96   23.90
   1   1 -12  411.16   24.10
   0  -1 -12  818.92   44.90
   0  -1  12  786.32   45.30
   0  -1  12  795.42   45.30
   0  -1 -12  810.32   44.40
   0  -1  12  828.22   45.40
   0   1  12  871.81   46.40
   0   1  12  784.02   44.60
   0   1 -12  905.21   46.20
   0   1  12  885.51   45.60
   1  -1  12   96.99   10.50
  -1  -1 -12  105.69   10.90
   1  -1  12  109.49   11.10
   1  -1  12   93.49   10.60
   1   1  12   85.79   11.30
  -1   1 -12  101.69   11.20
   1   1  12   98.89   10.70
   1   1  12   92.19   10.20
   2  -1  12   39.80    7.60
  -2  -1 -12   48.20    9.70
   2  -1  12   51.19    8.60
   2  -1  12   37.30    9.40
   2  -1  12   46.10    8.90
   2  -1  12   50.39   10.00
  -2   1 -12   35.90    7.70
   2   1  12   38.10    8.70
   2   1  12   37.90    8.50
   2   1  12   34.90    8.20
  -2   1 -12   41.20    8.30
  -3  -1 -12  320.97   22.60
   3  -1  12  310.77   22.90
   3  -1  12  312.97   23.70
   3   1  12  274.47   22.00
   3   1  12  292.37   23.10
  -3   1 -12  245.58   20.50
   3   1  12  312.77   21.30
   4  -1  12  132.09   17.30
  -4  -1 -12  132.39   16.70
   4  -1  12  135.79   17.00
   4  -1  12  140.59   15.10
   4   1  12  146.49   17.00
  -4   1 -12  125.99   15.50
   4   1  12   95.49   14.60
   6  -2 -12   98.99   13.90
  -6  -2  12  114.69   13.60
   6   2 -12  145.59   37.10
   6   2 -12   99.49   14.00
  -6   2  12  117.29   30.30
   5  -2 -12   -2.80    8.10
  -5  -2  12    3.00    4.40
  -5  -2  12    5.00    7.10
   5   2 -12    3.90    7.80
  -5   2  12  -10.30   15.60
   5   2 -12    7.60   19.10
  -5   2  12   -1.50    6.50
  -4  -2  12   36.60    7.00
   4  -2 -12   42.20    9.90
  -4  -2  12   56.19    9.40
  -4   2  12   36.70    8.00
   4   2 -12   34.10    9.60
   4   2 -12   44.90   21.90
  -4   2  12   50.39   16.40
  -3  -2  12  212.78   16.00
   3  -2 -12  223.98   16.80
  -3  -2  12  232.08   15.20
   3  -2 -12  215.68   16.90
  -3  -2  12  225.98   15.50
   3   2 -12  183.18   17.70
  -3   2  12  220.78   26.80
  -3   2  12  207.28   17.10
   3   2 -12  211.98   17.10
   3   2 -12  212.08   27.60
  -2  -2  12  238.18   16.80
   2  -2 -12  236.18   17.20
   2  -2 -12  221.58   17.80
  -2  -2  12  223.28   16.00
  -2  -2  12  251.77   16.30
   2   2 -12  217.48   25.50
   2   2 -12  230.18   18.50
  -2   2  12  240.78   26.30
   2   2 -12  261.97   18.70
  -2   2  12  259.97   15.70
  -1  -2  12    3.50    4.00
   1  -2 -12    2.80    4.20
  -1  -2  12    4.10    4.50
   1  -2 -12    1.70    4.30
   1  -2 -12    7.20    5.80
  -1  -2  12    5.90    4.40
   1   2 -12    7.30    7.20
  -1   2  12    2.50    7.80
   1   2 -12    9.40   10.20
  -1   2  12    6.80    4.40
   1   2 -12    3.80    5.90
  -1   2  12   10.00    5.90
   0  -2 -12   31.10   14.10
   0  -2 -12   44.40    7.40
   0  -2  12   34.80    7.30
   0  -2  12   32.50    6.90
   0   2 -12   21.90    7.90
   0   2  12   12.10    6.60
   0   2  12   21.70    6.50
   1  -2  12  183.88   13.40
   1  -2  12  184.68   14.40
   1  -2  12  166.48   14.80
   1   2  12  166.68   13.70
  -1   2 -12  147.59   13.80
   1   2  12  134.69   14.70
   1   2  12  162.78   13.80
  -2  -2 -12  113.19   13.70
   2  -2  12  118.89   12.70
   2  -2  12  123.29   13.40
   2  -2  12  102.39   10.40
   2   2  12   97.69    9.90
   2   2  12  104.39   13.20
  -2   2 -12  107.39   13.20
  -2   2 -12  115.19   11.70
   2   2  12  126.39   12.60
   2   2  12   99.99   12.60
   3  -2  12   40.70   10.80
   3  -2  12   32.40    7.60
  -3  -2 -12   39.00   10.90
   3  -2  12   44.10   10.80
   3   2  12   25.70    8.10
  -3   2 -12   36.50    8.20
   3   2  12   22.00    8.40
   3   2  12   27.70    8.70
   4  -2  12   13.20   10.70
   4  -2  12    0.20    8.80
  -4  -2 -12    7.10   10.00
   4   2  12    2.70    8.40
  -4   2 -12    8.70    8.50
   4   2  12    0.80    1.30
   4   2  12   -1.60    8.10
  -6  -3  12   87.39   13.40
   6  -3 -12   63.69   12.40
  -6  -3  12   88.79   10.40
   6   3 -12   99.89   14.50
  -6   3  12   61.49   28.50
  -6   3  12   61.09   10.80
  -5  -3  12   34.00    7.00
   5  -3 -12   49.80   11.30
  -5   3  12   69.39   11.00
   5   3 -12   56.79   11.50
   5   3 -12   59.19   27.60
  -5   3  12   37.10   22.10
  -4  -3  12  114.69   12.90
  -4  -3  12  114.89   10.70
  -4  -3  12  108.99   10.50
   4  -3 -12   82.69   12.00
   4   3 -12  119.19   27.90
  -4   3  12  114.99   12.70
   4   3 -12   86.59   13.60
  -4   3  12  101.99   21.20
  -3  -3  12    3.30    4.20
   3  -3 -12    3.60    3.60
  -3  -3  12    2.20    4.90
  -3  -3  12    5.80    4.70
   3  -3 -12    7.70    6.80
   3   3 -12   -0.70   15.80
  -3   3  12   -2.80   11.50
  -3   3  12    3.10    6.70
   3   3 -12   -2.70    7.10
   2  -3 -12   39.40    7.20
  -2  -3  12   45.00    7.40
  -2  -3  12   51.69    8.30
  -2  -3  12   51.09    8.00
   2  -3 -12   57.59    9.10
  -2   3  12   65.89   15.10
  -2   3  12   48.80    9.00
   2   3 -12   50.99   10.00
   2   3 -12   63.49   18.20
   2   3 -12   55.49    9.80
  -1  -3  12  444.76   27.30
  -1  -3  12  385.66   26.40
  -1  -3  12  442.16   26.90
   1  -3 -12  460.15   26.30
   1  -3 -12  380.06   26.60
   1   3 -12  508.65   29.40
   1   3 -12  459.25   36.50
  -1   3  12  468.65   28.50
   1   3 -12  465.95   29.00
  -1   3  12  486.55   34.80
  -1   3  12  457.35   26.10
   0  -3  12   63.69    9.40
   0  -3  12   76.69   10.40
   0  -3  12   70.59    8.70
   0   3  12   97.59   11.50
   0   3  12   96.69    9.60
   0   3 -12  108.29   13.00
   1  -3  12   93.29   10.60
   1  -3  12   83.49   11.10
  -1  -3 -12   99.09   12.40
   1   3  12   60.99   10.40
   1   3  12   67.39    9.40
   1   3  12   58.39    8.60
  -1   3 -12   66.99   10.40
  -2  -3 -12   79.49   12.80
   2  -3  12   63.09   10.80
   2  -3  12   71.59   12.00
   2   3  12   90.09   11.70
  -2   3 -12  106.79   13.40
   2   3  12  114.99   13.40
   3  -3  12  157.98   15.40
  -3  -3 -12  165.28   18.60
   3  -3  12  182.38   18.00
   3  -3  12  190.28   19.60
  -3   3 -12  182.98   16.00
  -3   3 -12  199.28   16.30
   3   3  12  168.78   16.40
   3   3  12  162.88   17.60
   3   3  12  173.98   17.70
   4  -3  12  176.38   20.50
  -4  -3 -12  163.98   19.10
   4  -3  12  101.89   15.20
   4   3  12  146.79   17.60
   4   3  12  141.49   17.80
  -4   3 -12  179.28   13.90
   4   3  12  148.19   16.10
   5  -4 -12    4.30    9.40
  -5  -4  12    2.00    5.40
  -5  -4  12    1.30    7.10
   5   4 -12   -5.20    8.50
  -5   4  12   21.10   17.20
  -5   4  12   -3.50    6.40
   5   4 -12   -2.60   23.30
  -4  -4  12   79.69   10.80
   4  -4 -12   57.49   10.90
  -4  -4  12   57.99   10.40
  -4  -4  12   60.09    9.40
  -4   4  12   64.69   10.90
   4   4 -12   39.40   10.70
  -4   4  12   73.39   20.40
   4   4 -12   60.39   25.40
  -3  -4  12  121.69   12.10
   3  -4 -12  103.29   11.80
  -3  -4  12  115.69   11.30
   3   4 -12  114.19   15.20
   3   4 -12  126.99   28.50
  -3   4  12  114.19   14.00
   2  -4 -12  154.78   13.20
  -2  -4  12  146.19   12.70
  -2  -4  12  158.38   13.40
  -2  -4  12  146.89   13.00
  -2   4  12  140.69   15.40
   2   4 -12  133.69   24.00
   2   4 -12  135.99   13.40
   2   4 -12  169.48   15.80
  -2   4  12  190.78   22.50
  -1  -4  12   15.70    5.90
  -1  -4  12   12.20    5.60
  -1   4  12   16.90   11.10
  -1   4  12   13.10    7.80
   1   4 -12   15.80    7.90
   1   4 -12   22.60   14.00
   0  -4  12   30.30    7.20
   0  -4 -12   48.00    9.90
   0  -4  12   39.70    8.10
   0   4 -12   24.70    8.30
   0   4  12   34.60    6.50
   0   4  12   29.70    8.30
   1  -4  12  179.08   15.10
   1  -4  12  176.48   16.50
  -1  -4 -12  183.28   17.80
  -1   4 -12  147.69   15.20
   1   4  12  152.68   13.50
   1   4  12  167.58   16.80
  -2  -4 -12  146.89   17.90
   2  -4  12  120.99   14.50
   2  -4  12  124.49   16.00
   2   4  12  136.69   14.30
   2   4  12  130.39   13.30
   2   4  12  142.99   16.20
  -2   4 -12  122.69   14.90
  -3  -4 -12    8.70   10.70
   3  -4  12    7.40    9.50
   3  -4  12   -4.30    7.50
  -3   4 -12   20.70    7.60
   3   4  12    2.80    7.40
   3   4  12   -0.60    7.60
  -5  -5  12   80.39   11.40
  -5  -5  12   67.29   10.60
  -5  -5  12   51.79   10.40
   5  -5 -12   42.40   11.10
   5   5 -12   50.49   11.90
   5   5 -12   34.50   11.00
   5   5 -12  108.39   30.10
  -5   5  12   35.50    8.60
  -4  -5  12   34.90    8.50
  -4  -5  12   28.30    7.50
  -4  -5  12   31.90    9.10
   4  -5 -12   30.40   10.20
   4   5 -12   25.80   10.30
   4   5 -12   49.70   25.60
  -4   5  12   81.09   22.20
  -4   5  12   21.20    7.70
  -3  -5  12   29.20    7.50
   3  -5 -12   40.60    9.50
  -3  -5  12   41.30    8.60
  -3  -5  12   45.70    8.90
  -3   5  12   71.19   19.50
   3   5 -12   24.20   10.10
  -3   5  12   35.30    7.20
  -3   5  12   31.30    9.40
  -2  -5  12  109.89   13.00
  -2  -5  12   92.59   10.70
  -2  -5  12   86.09   11.50
   2  -5 -12  109.69   14.20
   2   5 -12   68.99   12.30
  -2   5  12  100.69   13.90
   2   5 -12   80.59   24.70
  -2   5  12   87.89   24.90
   1  -5 -12  274.37   22.40
  -1  -5  12  299.97   21.50
  -1  -5  12  294.87   20.80
  -1   5  12  326.67   22.90
   1   5 -12  344.47   23.40
   0  -5 -12   68.99   13.40
   0  -5  12   59.99   10.10
   0  -5  12   67.39   10.00
   0   5 -12   54.59   11.40
   0   5  12   60.79   11.40
   1  -5  12   14.00    7.50
  -1  -5 -12   15.40   11.50
   1  -5  12   15.90    7.90
  -1   5 -12   21.80    9.60
   1   5  12   21.40    6.80
   1   5  12   25.30   10.30
   2  -5  12   22.00   10.00
  -2  -5 -12   14.50   11.40
   2  -5  12   18.10    8.30
  -2   5 -12   13.80    8.30
   2   5  12   24.60   11.20
   3  -5  12  107.69   15.80
   3  -5  12   88.59   12.80
  -3  -5 -12  104.59   17.40
   3   5  12   99.59   14.10
   3   5  12   84.79   14.20
   3   5  12   90.79   13.30
  -3   5 -12  136.59   14.50
   4  -6 -12   31.60    9.90
  -4  -6  12   28.40    9.00
  -4  -6  12   24.50    8.10
   4  -6 -12   28.40    9.70
  -4  -6  12   33.10    8.20
   4   6 -12   67.89   28.00
   4   6 -12   10.20    8.10
  -4   6  12   20.40    6.90
   4   6 -12   20.90    9.80
  -4   6  12   32.70   23.40
   3  -6 -12   50.79   12.20
  -3  -6  12   47.00    9.80
  -3  -6  12   51.39   10.50
   3   6 -12   61.19   26.90
   3   6 -12   55.69   12.40
  -3   6  12   47.10    9.30
  -3   6  12   26.20   23.40
  -2  -6  12   52.99    9.60
   2  -6 -12   67.39   13.50
  -2  -6  12   68.89   11.50
   2   6 -12   45.40   11.30
  -2   6  12   53.19   11.40
   0  -6  12    0.30    6.20
   0  -6 -12  -10.10   10.40
   0  -6  12    3.10    7.50
   0   6 -12   -3.90    6.90
   0   6  12   -4.70    7.30
   1  -6  12  103.69   12.50
   1  -6  12   92.79   14.30
  -1  -6 -12  119.79   17.20
   1   6  12  110.59   16.10
  -1   6 -12  113.59   15.60
  -2  -6 -12  102.59   17.30
   2  -6  12   88.49   12.70
   2  -6  12   88.69   14.40
   2   6  12  101.09   12.00
  -2   6 -12   81.29   13.50
   2   6  12  117.69   17.20
  -1  -7  12   60.79   11.00
   1  -7 -12   61.09   15.60
  -1   7  12   62.99   12.40
   1   7 -12   89.09   14.30
   0  -7  12  180.38   16.10
   0  -7  12  157.78   17.30
   0  -7 -12  184.98   21.50
   0   7  12  148.59   17.90
   0   7 -12  166.08   17.30
   6   0 -13   18.00    9.60
  -6   0  13   21.50   22.80
   6   0 -13   52.79   30.50
  -6   0  13   18.00    8.80
   5   0 -13   46.20   11.40
  -5   0  13   31.90    8.40
  -5   0  13   44.20   20.80
   5   0 -13   47.90   27.00
  -4   0  13  108.29   23.30
  -4   0  13  108.99   13.00
   4   0 -13   81.19   12.30
   4   0 -13  140.09   29.50
   3   0 -13    2.20   15.50
  -3   0  13    0.90    3.80
   3   0 -13   -2.50    6.70
  -3   0  13    2.90    5.90
  -3   0  13    7.80   10.50
   2   0 -13    1.10   11.80
  -2   0  13    2.80    4.30
  -2   0  13   -2.60    5.20
   2   0 -13    4.40    7.50
  -1   0  13  121.49   10.80
   1   0 -13  124.39   18.30
  -1   0  13  123.09   16.60
  -1   0  13  129.99   12.30
  -1   0  13  122.79   11.10
   1   0 -13  129.89   13.40
   0   0  13   30.70    8.20
   0   0  13   20.30    6.60
   0   0 -13   29.50    7.80
   0   0  13   28.20    6.60
   1   0  13   66.09    9.90
  -1   0 -13   88.69   10.30
   1   0  13   81.19   11.00
   1   0  13   61.09    9.50
   2   0  13   52.69   10.50
   2   0  13   40.40    8.50
   2   0  13   31.40    8.50
  -2   0 -13   51.59    9.70
   3   0  13  194.28   17.80
  -3   0 -13  181.28   17.20
   3   0  13  197.98   19.70
   4   0  13  132.89   18.00
   4   0  13  106.89   16.60
  -4   0 -13  137.29   16.30
  -6  -1  13   45.70   10.30
   6  -1 -13  106.89   33.20
   6  -1 -13   49.99   11.70
  -6  -1  13   61.59   25.40
   6   1 -13   75.99   13.90
  -6   1  13   68.09   26.30
  -6   1  13   60.59   11.30
   6   1 -13  125.99   33.70
  -5  -1  13   52.99   10.40
  -5  -1  13   40.70   19.70
   5  -1 -13   30.20    9.50
   5  -1 -13   46.40   27.70
   5   1 -13   32.00   10.00
  -5   1  13   55.99   22.10
   5   1 -13   49.90   26.50
  -5   1  13   30.70    8.50
   4  -1 -13   50.39   23.50
   4  -1 -13   37.20    9.70
  -4  -1  13   45.00   17.70
  -4  -1  13   56.69    8.20
  -4  -1  13   51.99    9.80
  -4   1  13   43.20    9.70
   4   1 -13   60.99   23.70
  -4   1  13   50.79   19.10
   4   1 -13   31.60    9.70
   3  -1 -13  181.28   26.80
  -3  -1  13  194.28   14.00
   3  -1 -13  158.08   14.80
   3  -1 -13  158.48   16.00
  -3  -1  13  177.78   15.60
   3   1 -13  173.38   16.20
  -3   1  13  191.78   16.20
   3   1 -13  186.98   26.50
  -3   1  13  209.38   25.50
  -3   1  13  182.98   15.20
  -2  -1  13  515.45   30.80
  -2  -1  13  482.15   31.00
   2  -1 -13  469.15   31.80
  -2  -1  13  499.25   32.30
   2  -1 -13  568.24   42.20
   2   1 -13  584.64   42.20
  -2   1  13  630.04   33.70
  -2   1  13  629.34   31.70
   2   1 -13  570.74   33.40
  -1  -1  13  159.78   17.60
   1  -1 -13  175.88   14.60
  -1  -1  13  171.48   13.20
  -1  -1  13  169.88   13.20
  -1  -1  13  163.68   13.70
  -1   1  13  136.99   18.20
   1   1 -13  166.48   14.90
   1   1 -13  173.98   14.70
  -1   1  13  152.18   14.10
   1   1 -13  149.69   18.90
  -1   1  13  160.58   12.60
   0  -1  13    4.80    4.90
   0  -1  13    4.00    5.20
   0  -1  13    8.10    5.20
   0  -1 -13    4.80    6.10
   0   1  13    7.70    5.20
   0   1  13    6.00    6.60
   0   1  13    4.50    4.70
   0   1 -13   12.00    7.40
   1  -1  13  126.79   13.20
   1  -1  13  112.59   12.20
  -1  -1 -13  124.89   13.00
   1  -1  13  131.19   13.60
   1   1  13  132.09   12.90
   1   1  13  136.69   13.40
   1   1  13  122.89   12.90
  -1   1 -13  116.59   11.90
   2  -1  13  194.38   16.80
   2  -1  13  194.38   17.20
  -2   1 -13  148.89   15.40
   2   1  13  164.38   15.50
   2   1  13  126.59   14.90
  -2   1 -13  159.48   13.90
   3  -1  13   98.29   12.10
   3  -1  13  101.29   14.70
  -3  -1 -13   98.99   13.80
   3  -1  13  122.49   15.80
   3   1  13   98.49   14.10
   3   1  13   85.79   12.00
   4  -1  13   21.20   10.80
  -4  -1 -13   27.30   10.90
   4  -1  13   22.90    8.80
   4  -1  13   13.30    9.80
  -4   1 -13   17.80    9.50
   4   1  13   13.50    9.40
   4   1  13   17.30   10.80
  -6  -2  13   24.00   21.80
  -6  -2  13   24.30    9.60
   6  -2 -13   19.90   10.60
   6   2 -13   22.60   10.30
  -6   2  13   21.80    6.20
  -6   2  13   14.90   22.10
  -5  -2  13  101.69   10.80
  -5  -2  13  104.99   12.80
   5  -2 -13   84.19   13.00
  -5   2  13   97.89   26.90
   5   2 -13   94.09   14.00
  -5   2  13  115.89   14.30
   5   2 -13  133.19   33.00
  -4  -2  13  244.38   16.40
   4  -2 -13  206.88   17.80
  -4  -2  13  230.38   17.50
  -4   2  13  222.88   30.80
   4   2 -13  208.08   31.40
  -4   2  13  214.28   17.80
   4   2 -13  173.48   18.80
  -3  -2  13   14.50    8.80
   3  -2 -13    8.50   18.80
  -3  -2  13   12.60    5.00
  -3  -2  13   10.70    6.30
   3   2 -13   22.70   23.10
  -3   2  13   26.30   14.60
   3   2 -13   17.70    9.40
  -3   2  13   21.50    7.50
  -2  -2  13   26.00    6.20
   2  -2 -13   15.70    7.50
  -2  -2  13   13.00    6.20
  -2  -2  13   14.80    5.60
  -2   2  13   21.00    5.50
  -2   2  13   11.70    6.60
   2   2 -13   15.10   13.90
   2   2 -13   18.80    9.00
  -2   2  13   15.50    9.00
   1  -2 -13   95.29   11.50
  -1  -2  13   95.59   11.10
  -1  -2  13   91.49   10.90
  -1  -2  13  101.09   11.60
   1   2 -13  139.19   19.00
  -1   2  13  130.29   16.60
  -1   2  13  142.69   13.80
   1   2 -13  139.39   14.30
  -1   2  13  147.19   11.50
   0  -2  13  164.48   14.00
   0  -2  13  150.68   13.00
   0  -2 -13  162.48   13.70
   0   2  13  134.59   12.40
   0   2  13  128.79   12.70
   0   2 -13  140.59   14.60
   0   2  13  140.39   14.10
   1  -2  13  125.39   11.70
  -1  -2 -13  137.89   15.70
   1  -2  13  120.29   12.50
   1  -2  13  133.29   13.80
   1   2  13  106.69   11.80
   1   2  13   99.09   11.80
  -1   2 -13  119.89   14.10
  -2  -2 -13   59.39   11.20
   2  -2  13   48.60   10.50
   2  -2  13   60.09   11.20
   2   2  13   29.40    8.60
   2   2  13   30.00    8.40
   2   2  13   38.60    9.40
   3  -2  13   66.69   12.20
  -3  -2 -13   75.99   13.10
   3  -2  13   63.49   12.20
   3  -2  13   56.69    9.30
  -3   2 -13   55.59   12.00
  -3   2 -13   59.99   11.30
   3   2  13   40.50   10.00
   3   2  13   60.99   11.40
   3   2  13   51.99   11.00
   4  -2  13   93.29   15.50
   4  -2  13   75.19   13.30
  -4  -2 -13  119.89   16.60
  -4   2 -13   87.29   12.50
   4   2  13   68.49   13.10
   4   2  13   85.49   14.00
   5  -3 -13   12.90    9.00
  -5  -3  13   16.50    7.90
  -5  -3  13   12.30    5.40
  -5   3  13   -0.40   19.60
   5   3 -13   16.40   24.70
  -5   3  13   16.60    8.40
   5   3 -13   12.60    9.40
  -4  -3  13   17.50    5.70
   4  -3 -13    6.20    9.10
  -4  -3  13   12.30    6.80
  -4  -3  13    9.10    5.30
   4   3 -13   17.30   21.20
  -4   3  13  -11.20   15.00
  -4   3  13   11.20    8.20
   4   3 -13    3.10    9.00
  -3  -3  13  111.39   11.90
  -3  -3  13  103.69   11.30
  -3  -3  13  117.89   11.30
   3  -3 -13  115.99   13.60
   3   3 -13  104.99   15.00
  -3   3  13  112.39   14.00
   3   3 -13  121.39   26.80
  -3   3  13   99.39   22.10
   2  -3 -13  266.87   21.60
  -2  -3  13  234.08   17.90
   2  -3 -13  221.88   17.50
  -2  -3  13  238.18   17.10
  -2  -3  13  234.28   17.30
   2   3 -13  224.48   18.30
  -2   3  13  257.27   19.80
  -2   3  13  266.17   27.20
   2   3 -13  258.07   20.40
   2   3 -13  218.38   27.40
   1  -3 -13  310.37   21.40
  -1  -3  13  298.47   21.40
  -1  -3  13  313.57   21.70
  -1  -3  13  310.77   21.70
   1   3 -13  349.27   24.20
  -1   3  13  319.97   20.70
   1   3 -13  398.96   30.20
  -1   3  13  353.86   28.60
  -1   3  13  338.77   23.90
   0  -3  13    7.80    5.00
   0  -3  13    4.90    6.10
   0  -3  13    8.70    5.60
   0  -3 -13   14.00    7.00
   0   3  13    7.40    5.50
   0   3  13   11.10    7.20
   0   3 -13    5.90    6.90
  -1  -3 -13  195.78   17.90
   1  -3  13  171.08   16.40
   1  -3  13  202.18   15.90
  -1   3 -13  146.49   15.90
   1   3  13  166.18   15.10
   1   3  13  163.58   14.10
   1   3  13  151.98   15.80
   2  -3  13  230.88   20.10
   2  -3  13  262.97   19.90
  -2  -3 -13  247.08   20.20
   2   3  13  209.88   17.70
  -2   3 -13  197.58   18.20
   2   3  13  198.48   18.80
   2   3  13  196.68   17.90
   3  -3  13   80.59   13.50
  -3  -3 -13  119.39   16.10
   3  -3  13   81.09   13.10
  -3   3 -13  103.09   13.70
   3   3  13   87.39   14.10
   3   3  13   81.99   13.20
   3   3  13  102.39   14.70
  -5  -4  13   72.69   11.40
   5  -4 -13   47.30   11.20
  -5  -4  13   63.59   11.80
  -5  -4  13   57.19    9.90
  -5   4  13   32.70    8.70
   5   4 -13   76.49   28.90
  -5   4  13   79.79   22.90
   5   4 -13   31.70   11.70
   4  -4 -13  104.09   13.60
  -4  -4  13  115.39   12.40
  -4  -4  13  116.39   14.10
  -4  -4  13  107.99   11.80
  -4   4  13  115.69   14.70
   4   4 -13  122.99   31.60
   4   4 -13   94.69   14.40
  -4   4  13  166.58   26.50
  -3  -4  13   23.00    7.30
  -3  -4  13   20.60    6.70
  -3  -4  13   15.70    6.40
  -3   4  13   23.40    9.40
   3   4 -13   20.10   20.90
   3   4 -13   12.60    9.00
  -2  -4  13   29.00    7.00
  -2  -4  13   36.50    8.00
  -2  -4  13   25.60    6.70
  -2   4  13   27.30    8.80
   2   4 -13   45.10   19.80
   2   4 -13   33.20    9.80
  -1  -4  13    1.70    5.40
   1  -4 -13   -4.20    6.30
  -1  -4  13    1.20    6.00
   1   4 -13    9.20    7.80
  -1   4  13   19.90   11.00
  -1   4  13    7.10    7.70
   0  -4 -13  156.08   16.70
   0  -4  13  134.99   13.80
   0  -4  13  134.29   14.70
   0   4  13  121.29   14.70
   0   4 -13  137.39   16.20
   0   4  13  128.19   11.80
   1  -4  13   93.09   13.40
  -1  -4 -13   88.89   13.60
   1  -4  13   79.49   11.70
   1   4  13   82.29   11.70
  -1   4 -13   71.59   12.60
   1   4  13   89.19   14.60
   2  -4  13   58.59   11.20
   2  -4  13   63.59   12.40
  -2  -4 -13   63.29   13.40
   2   4  13   50.99   11.40
   2   4  13   63.09   11.70
   2   4  13   48.40   10.00
  -2   4 -13   50.99   11.20
  -3  -4 -13   34.20   12.40
   3  -4  13   25.20    9.60
   3   4  13   13.50    9.30
  -3   4 -13   29.60   10.30
   3   4  13   19.90   10.00
  -4  -5  13    4.00    5.80
  -4  -5  13    3.50    6.30
  -4  -5  13    2.70    7.40
   4   5 -13   -2.40    8.20
  -4   5  13    4.00    6.10
   4   5 -13   22.60   25.70
  -4   5  13    0.20    5.90
  -4   5  13   62.69   19.90
   3  -5 -13    0.70    6.90
   3  -5 -13    9.00    8.70
  -3  -5  13    0.70    5.30
  -3  -5  13    6.60    5.90
  -3  -5  13    5.10    5.80
  -3   5  13   40.60   16.50
   3   5 -13   10.60    9.90
  -3   5  13    7.90    8.90
   3   5 -13   43.90   22.30
  -3   5  13    3.20    8.50
  -2  -5  13  161.38   14.60
  -2  -5  13  166.48   15.00
  -2  -5  13  152.58   14.30
   2   5 -13  191.48   29.10
  -2   5  13  173.38   31.00
  -2   5  13  142.29   17.00
   2   5 -13  165.78   18.00
   1  -5 -13  111.19   14.90
  -1  -5  13  130.89   13.60
  -1  -5  13  138.59   14.80
   1   5 -13  130.59   15.20
  -1   5  13  104.99   14.60
   0  -5 -13   -3.50    9.80
   0  -5  13    5.20    7.40
   0  -5  13   -0.50    6.40
   0   5  13   -1.90    7.70
   0   5 -13    4.30    8.20
   1  -5  13   64.69   11.10
   1  -5  13   65.29   12.10
  -1  -5 -13   92.39   14.90
   1   5  13   79.99   11.20
  -1   5 -13   46.00   10.50
   1   5  13   60.49   12.40
   2  -5  13   68.69   13.00
   2  -5  13   78.19   12.20
  -2  -5 -13   93.19   15.90
   2   5  13   62.49   10.90
   2   5  13   81.19   14.00
  -2   5 -13   71.79   13.00
  -3  -6  13   53.89    9.90
   3  -6 -13   55.29   11.40
  -3  -6  13   56.69   10.00
  -3  -6  13   56.49    9.30
  -3   6  13   58.89   10.90
  -3   6  13   62.59   27.30
   3   6 -13   64.89   12.40
   2  -6 -13   19.30   10.70
   2   6 -13   23.70    9.90
   0  -6  13   69.09   11.10
   0  -6 -13   88.99   15.30
   0  -6  13   85.29   13.60
   0   6 -13   95.59   14.70
   0   6  13  105.49   15.40
  -1  -6 -13   47.70   13.70
   1  -6  13   42.30    9.00
   1  -6  13   46.40   11.90
  -1   6 -13   45.40   11.50
   1   6  13   38.90   12.60
  -6   0  14   62.89   12.00
  -6   0  14   92.39   28.10
   6   0 -14  143.19   34.70
   6   0 -14   68.79   14.10
  -5   0  14  132.79   28.20
  -5   0  14  121.19   14.80
   5   0 -14  123.69   32.90
   5   0 -14   97.69   14.50
   4   0 -14    2.80    9.10
  -4   0  14    3.20   14.60
   4   0 -14    7.70   21.20
  -4   0  14    3.80    7.00
  -3   0  14   37.60   16.20
   3   0 -14   17.90    8.70
   3   0 -14   32.60   19.40
  -3   0  14   18.60    5.60
  -3   0  14   16.60    7.40
  -2   0  14  120.89   18.40
  -2   0  14  115.39   13.40
  -2   0  14  115.49   11.30
   2   0 -14  117.89   14.20
   2   0 -14  121.69   20.50
   1   0 -14  238.28   18.10
  -1   0  14  228.68   16.30
  -1   0  14  244.18   17.30
  -1   0  14  231.58   18.00
   0   0 -14  164.08   14.90
   0   0  14  159.48   14.30
   0   0  14  178.48   15.90
   0   0  14  181.38   14.50
   1   0  14    5.10    6.30
   1   0  14   12.20    6.90
   1   0  14    9.70    6.70
   2   0  14  125.09   13.70
   2   0  14  138.69   15.70
   2   0  14  141.29   15.10
   3   0  14   50.39   11.80
   3   0  14   48.90   11.60
  -3   0 -14   43.70    9.90
   6  -1 -14   42.90   27.30
  -6  -1  14    9.20    8.70
  -6  -1  14    8.20   19.60
   6  -1 -14    2.70    9.80
  -6   1  14    8.90    7.80
   6   1 -14    3.30    9.00
   6   1 -14   56.59   27.40
  -6   1  14   10.00   20.20
   5  -1 -14   19.30   10.50
  -5  -1  14   31.30   20.00
   5  -1 -14   42.10   27.00
  -5  -1  14   15.80    8.10
   5   1 -14   17.00   10.50
  -5   1  14   32.90   20.90
   5   1 -14   32.10   25.70
  -5   1  14   18.70    8.80
  -4  -1  14  115.19   11.10
   4  -1 -14  116.09   15.30
   4  -1 -14  147.99   31.60
  -4  -1  14  114.79   13.10
  -4  -1  14  125.49   25.00
   4   1 -14  108.99   29.20
  -4   1  14   94.79   13.40
  -4   1  14  117.09   25.20
   3  -1 -14   98.79   24.90
  -3  -1  14  102.59   21.80
  -3  -1  14   71.79   10.60
  -3  -1  14   77.99    9.50
   3  -1 -14   87.39   12.90
   3   1 -14   57.29   11.10
  -3   1  14   53.59   10.30
   3   1 -14   62.09   23.40
  -3   1  14   65.59   18.60
  -2  -1  14  113.69   18.00
   2  -1 -14   93.49   10.50
   2  -1 -14   72.39   11.70
  -2  -1  14   81.59    9.10
   2  -1 -14   91.89   20.10
  -2  -1  14   79.49    9.90
  -2  -1  14   74.09   10.80
   2   1 -14  111.39   22.00
  -2   1  14   94.79   12.60
   2   1 -14   98.79   11.10
  -2   1  14   99.09   10.10
   2   1 -14   90.09   13.30
  -1  -1  14   24.40    7.50
  -1  -1  14   21.80    6.60
   1  -1 -14   17.40    7.00
  -1  -1  14   15.10    5.60
  -1   1  14   15.60    6.90
  -1   1  14   13.00    5.40
   1   1 -14   14.60    7.80
   0  -1  14   86.09   10.40
   0  -1  14   56.49    9.70
   0  -1 -14   97.59   11.20
   0  -1  14   95.39   11.00
   0   1  14   99.89   17.50
   0   1  14   87.29   10.30
   0   1 -14  103.39   12.90
   1  -1  14  161.58   15.60
   1  -1  14  143.29   14.30
   1  -1  14  164.68   14.40
   1   1  14  163.58   15.00
  -1   1 -14  161.58   14.90
   1   1  14  165.18   16.10
   1   1  14  157.48   14.70
  -2  -1 -14  112.39   13.00
   2  -1  14  161.08   15.60
   2  -1  14  157.08   16.00
   2   1  14  147.69   15.10
   2   1  14  164.58   16.40
   2   1  14  134.19   15.40
   3  -1  14   11.60    9.00
  -3  -1 -14    8.00    8.80
   3  -1  14   -1.80    8.30
   3   1  14    2.40    8.40
   3   1  14    2.10    9.30
  -5  -2  14   25.30    7.00
   5  -2 -14   34.00   11.80
  -5  -2  14   30.90    9.80
   5   2 -14   50.39   28.20
  -5   2  14   26.30   20.40
  -5   2  14   38.40   10.40
   5   2 -14   26.00   11.70
  -4  -2  14    9.70    7.00
  -4  -2  14    9.50    5.80
   4  -2 -14    1.60    8.90
   4   2 -14    4.60   21.30
  -4   2  14    5.60    7.10
   4   2 -14   -2.00    9.00
  -4   2  14    7.80   16.20
  -3  -2  14   64.39    8.10
   3  -2 -14   48.80   10.30
  -3  -2  14   50.39    8.20
  -3  -2  14   73.49   11.10
   3   2 -14   60.89   11.70
   3   2 -14   83.69   24.10
  -3   2  14   75.49   11.20
  -3   2  14   82.29   21.20
  -2  -2  14  185.08   16.10
   2  -2 -14  179.08   16.40
  -2  -2  14  197.28   15.10
   2   2 -14  182.38   24.60
   2   2 -14  208.08   17.70
  -2   2  14  219.68   18.00
   2   2 -14  208.28   16.00
  -1  -2  14   62.29    9.50
  -1  -2  14   85.99   10.20
  -1  -2  14   76.59   10.70
  -1   2  14  105.29   10.40
   1   2 -14  121.59   14.00
  -1   2  14  106.79   12.50
   0  -2  14   97.09   11.90
   0  -2  14   99.69   11.30
   0   2  14  110.89   14.20
   0   2 -14   90.69   12.20
   0   2  14   88.99   10.70
   1  -2  14   29.80    8.50
   1  -2  14   18.60    7.30
   1   2  14   17.40    7.30
   1   2  14   32.20    9.80
  -1   2 -14   16.00    7.90
   1   2  14   21.60    6.90
  -2  -2 -14  179.18   16.70
   2  -2  14  191.68   16.90
   2  -2  14  194.58   18.30
  -2   2 -14  156.38   15.50
   2   2  14  153.68   15.70
   2   2  14  129.69   15.00
   2   2  14  130.89   16.60
   3  -2  14  106.59   15.50
  -3  -2 -14  133.19   15.90
   3  -2  14  129.99   15.50
   3   2  14   73.09   12.80
   3   2  14   88.79   14.20
   3   2  14  107.49   15.30
  -5  -3  14   13.50    7.80
   5  -3 -14    8.50   10.30
  -5  -3  14    4.50    5.40
   5   3 -14    0.40    9.10
  -5   3  14  -10.50   19.60
   5   3 -14   27.60   25.70
  -5   3  14   12.90    7.70
  -4  -3  14  110.29   11.50
   4  -3 -14   95.39   13.50
  -4  -3  14  118.59   13.30
  -4   3  14   99.79   26.30
   4   3 -14  107.89   30.40
   4   3 -14   80.99   14.00
  -3  -3  14  152.08   14.00
   3  -3 -14  123.19   14.90
  -3  -3  14  162.08   15.50
  -3  -3  14  159.18   14.30
  -3   3  14  175.58   17.10
   3   3 -14  156.88   29.30
   3   3 -14  137.29   16.00
  -3   3  14  152.78   25.60
   2  -3 -14  103.89   12.40
  -2  -3  14  118.89   11.50
  -2  -3  14  112.59   12.00
  -2  -3  14  101.49   12.40
   2   3 -14   88.89   13.30
  -2   3  14  106.89   13.40
  -1  -3  14    9.20    5.60
  -1  -3  14    7.70    6.10
  -1  -3  14    9.90    5.90
   1   3 -14    2.70    8.60
  -1   3  14    3.80    7.20
   0  -3  14  176.38   16.10
   0  -3  14  158.78   14.50
   0   3  14  151.48   16.80
   0   3  14  153.28   13.90
   0   3 -14  147.49   15.50
  -1  -3 -14   93.19   12.90
   1  -3  14  141.99   15.50
   1  -3  14  126.99   13.40
   1   3  14  123.49   14.30
   1   3  14   95.59   14.00
  -1   3 -14   88.39   12.70
  -2  -3 -14  163.78   17.00
   2  -3  14  178.28   16.90
   2  -3  14  142.49   16.20
   2   3  14  116.79   15.10
   2   3  14  138.69   14.80
   2   3  14   94.59   14.70
  -2   3 -14  101.59   14.00
  -3  -3 -14   -3.60    9.40
   3  -3  14    0.00    9.10
   3   3  14   -5.50    8.30
  -3   3 -14    4.10    7.30
   3   3  14   -6.80    8.70
   3   3  14  -10.10    7.30
   5  -4 -14   18.20   11.10
   5   4 -14   14.10   11.00
  -5   4  14   63.39   21.20
  -4  -4  14   13.60    6.40
   4  -4 -14   20.40   10.30
  -4  -4  14   22.70    7.00
  -4  -4  14   27.90    9.20
   4   4 -14   55.89   26.30
   4   4 -14   27.60   11.70
   3  -4 -14    8.90    7.60
  -3  -4  14    6.60    6.60
  -3  -4  14   10.70    6.60
  -3  -4  14   11.60    6.50
   3   4 -14   14.90   10.20
  -3   4  14    7.30    8.30
   3   4 -14   55.49   21.50
  -2  -4  14  210.98   17.90
  -2  -4  14  210.18   17.60
  -2  -4  14  207.58   17.80
   2   4 -14  230.48   20.80
  -2   4  14  276.37   27.70
  -2   4  14  200.28   19.90
   2   4 -14  249.97   32.80
  -1  -4  14   20.20    6.90
  -1  -4  14   16.20    5.00
  -1  -4  14   26.10    7.60
   1  -4 -14   28.40    8.90
  -1   4  14   26.30    9.50
   1   4 -14   17.00    9.10
   0  -4 -14   42.00    9.50
   0  -4  14   41.20    9.30
   0  -4  14   39.00    9.50
   0   4  14   50.79   11.10
   0   4 -14   41.70   10.90
   1  -4  14   12.50    8.40
  -1  -4 -14    0.40    8.80
   1  -4  14   -1.10    6.50
  -1   4 -14    2.80    7.90
   1   4  14    5.20    7.20
   1   4  14   -0.70    9.60
  -2  -4 -14  101.79   15.90
   2  -4  14   75.69   13.70
   2  -4  14   73.49   12.10
  -2   4 -14   55.59   11.90
   2   4  14   78.39   12.80
   2   4  14   61.69   12.90
   4  -5 -14  223.58   21.00
  -4  -5  14  255.27   19.90
  -4  -5  14  268.17   20.00
  -4  -5  14  267.17   20.80
   4   5 -14  238.78   21.90
  -4   5  14  249.48   19.30
  -4   5  14  237.68   20.10
  -3  -5  14   82.89   11.60
  -3  -5  14   70.59   11.00
  -3  -5  14  113.59   13.10
   3   5 -14   88.69   14.20
  -3   5  14  115.89   15.60
   2  -5 -14   80.49   13.30
  -2  -5  14   82.99   11.60
  -2  -5  14  104.29   11.80
  -2  -5  14  104.69   12.80
   2   5 -14  106.09   15.70
  -2   5  14  106.89   26.30
  -2   5  14  129.89   16.50
   1  -5 -14   10.70    8.60
  -1  -5  14   16.10    7.20
  -1  -5  14   16.60    7.60
   1   5 -14   16.20    9.40
  -1   5  14    3.80    8.80
   0  -5  14  124.69   14.60
   0  -5  14  128.49   16.00
   0  -5 -14  140.39   16.80
   0   5 -14   93.39   14.10
   0   5  14  111.29   15.70
   1  -5  14   91.99   14.50
   1  -5  14   84.89   12.90
  -1   5 -14   75.49   13.80
   1   5  14   70.89   13.90
   2  -5  14   54.29   11.90
  -2  -5 -14   80.59   14.70
   2  -5  14   59.89   11.30
   2   5  14   53.49   12.70
  -2   5 -14   62.69   13.00
   2   5  14   66.79   12.10
  -2   6  14  212.38   24.20
  -1  -6  14   62.49   12.10
  -1  -6  14   60.19   11.10
   1  -6 -14   56.79   12.60
   1   6 -14   37.80   12.20
  -1   6  14   35.80   11.30
   0  -6  14   38.70   10.10
   0  -6 -14   50.69   13.00
   0  -6  14   43.60    9.50
   0   6 -14   43.50   12.20
   0   6  14   50.79   13.50
  -5   0  15   11.30   19.20
   5   0 -15   -2.10    9.10
   5   0 -15   19.40   26.00
  -5   0  15    0.10    8.20
  -4   0  15   26.00    8.80
   4   0 -15   15.50   10.70
  -4   0  15   39.70   19.20
   4   0 -15   60.29   25.40
   3   0 -15  296.37   35.20
  -3   0  15  281.17   32.30
   3   0 -15  234.18   20.70
  -3   0  15  256.17   20.30
  -2   0  15   48.00    9.80
   2   0 -15   43.90   10.10
  -2   0  15   27.00    6.40
  -1   0  15    2.40    6.20
   1   0 -15   23.40    9.00
  -1   0  15   14.80    6.60
   0   0 -15   24.00    8.50
   0   0  15   27.80    8.30
   0   0  15   28.20    7.20
   0   0  15   14.70    6.70
   1   0  15  149.49   15.60
   1   0  15  148.99   15.30
   1   0  15  135.99   15.30
   2   0  15  173.38   17.10
   2   0  15  179.78   18.20
   2   0  15  162.28   15.20
   3   0  15   67.09   13.40
   3   0  15   82.19   14.10
  -5  -1  15   67.89   12.70
   5  -1 -15   59.69   13.70
  -5  -1  15   88.69   25.40
   5  -1 -15  101.19   32.10
   5   1 -15   39.00   13.30
  -5   1  15   82.19   25.40
  -5   1  15   78.79   13.10
   5   1 -15  102.49   31.80
  -4  -1  15   55.09   11.20
   4  -1 -15   70.99   26.60
  -4  -1  15   57.99   20.60
  -4  -1  15   52.49    8.50
   4  -1 -15   46.00   12.40
  -4   1  15   41.60    9.80
  -4   1  15   69.39   21.90
   4   1 -15   69.69   26.00
   4   1 -15   33.90   11.10
  -3  -1  15  170.38   17.20
  -3  -1  15  186.18   26.10
   3  -1 -15  206.78   32.10
   3  -1 -15  169.08   18.00
  -3   1  15  192.78   17.20
   3   1 -15  198.48   19.20
  -3   1  15  213.58   29.10
  -2  -1  15   26.00    6.80
  -2  -1  15   42.30   13.70
  -2  -1  15   34.00    8.40
   2  -1 -15   40.60   10.50
   2   1 -15   26.40    9.40
  -2   1  15   32.80   13.20
  -2   1  15   50.29   10.60
  -2   1  15   52.29    8.40
  -1  -1  15  186.88   16.20
  -1  -1  15  200.28   15.80
   1  -1 -15  210.58   17.30
  -1  -1  15  198.28   17.30
  -1   1  15  206.68   18.40
  -1   1  15  201.18   16.00
   1   1 -15  218.08   18.60
   0  -1  15  254.97   19.00
   0  -1  15  243.08   18.20
   0   1  15  211.48   16.90
   0   1 -15  237.58   19.20
   0   1  15  256.17   20.40
   0   1  15  214.68   17.60
   1  -1  15   40.00    9.30
   1  -1  15   24.30    6.60
   1  -1  15   28.20    8.30
   1   1  15   48.00   10.40
   1   1  15   38.60    9.00
  -1   1 -15   46.60    9.70
   2  -1  15   13.70    8.80
   2  -1  15   10.30    9.20
   2   1  15    8.80    8.50
   2   1  15    4.70    7.70
   2   1  15    8.20    8.80
   3  -1  15    0.90    9.90
   3  -1  15    5.60    9.70
   3   1  15    4.30    8.20
   3   1  15   -1.40    9.60
   5  -2 -15   12.90    9.90
  -5  -2  15    7.80    7.90
  -5  -2  15   20.20   19.90
  -5  -2  15   11.80    5.60
  -5   2  15   12.00    9.00
  -5   2  15   -2.30   18.40
   5   2 -15   49.20   27.50
   5   2 -15    0.10   10.50
  -4  -2  15   41.90   10.60
  -4  -2  15   29.40    7.30
   4  -2 -15   32.90   11.40
   4   2 -15   52.99   25.20
  -4   2  15   29.20   19.40
   4   2 -15   18.90   10.40
  -4   2  15   25.10    8.90
  -3  -2  15   92.39   12.90
   3  -2 -15   86.89   13.10
  -3  -2  15   96.89   10.80
   3   2 -15   95.09   14.10
  -3   2  15  105.69   24.10
  -3   2  15   79.19   12.30
   3   2 -15  123.99   27.80
  -2  -2  15   33.10    7.00
  -2  -2  15   44.00    8.90
  -2  -2  15   40.40    7.80
   2   2 -15   62.19   12.60
  -2   2  15   63.69   11.90
  -2   2  15   41.30   14.30
  -1  -2  15   19.20    7.30
  -1  -2  15   26.00    8.30
  -1  -2  15   29.80    7.60
   1   2 -15   13.10    8.40
  -1   2  15   32.00   10.30
  -1   2  15   24.30    7.20
   0  -2  15   24.60    7.50
   0  -2  15   19.10    7.00
   0   2  15   20.40    8.90
   0   2  15   25.70    8.30
   0   2 -15   13.90    8.30
   1  -2  15   78.79   11.90
   1   2  15   88.79   11.50
   1   2  15   81.79   12.30
   1   2  15   80.69   12.90
  -1   2 -15  101.79   13.50
   2  -2  15  172.28   17.40
   2  -2  15  179.88   17.90
   2   2  15  142.69   17.30
  -2   2 -15  128.09   14.10
   2   2  15  142.89   15.80
  -3  -2 -15   39.30   10.90
   3  -2  15   31.90   11.20
   3  -2  15   40.20   12.40
   3   2  15   31.20    9.70
   3   2  15   29.00   10.50
   3   2  15   32.90   10.70
   5  -3 -15   86.19   14.20
  -5  -3  15  122.69   15.50
  -5   3  15   94.99   28.90
   5   3 -15   70.09   14.30
  -5   3  15  123.69   15.10
  -4  -3  15   32.10    8.70
   4  -3 -15   36.30   11.50
  -4  -3  15   58.49   11.70
  -4   3  15   23.10   20.00
   4   3 -15   32.40   11.50
   4   3 -15   68.09   25.70
  -4   3  15   41.70   11.00
  -3  -3  15   18.70    8.70
   3  -3 -15   16.30    9.80
  -3  -3  15   25.60    7.00
  -3  -3  15   22.50    7.30
   3   3 -15   28.70   10.40
  -3   3  15   24.20    9.20
  -3   3  15   33.90   17.00
  -2  -3  15   51.39    8.70
  -2  -3  15   55.99    9.70
  -2  -3  15   45.80    8.70
   2  -3 -15   65.19   11.70
  -2   3  15   72.89   13.00
   2   3 -15   63.09   12.80
  -1  -3  15  101.89   12.90
  -1  -3  15   81.99   11.60
  -1  -3  15   91.09   12.30
   1   3 -15   91.29   13.50
  -1   3  15  113.69   15.90
   0  -3  15  117.29   13.70
   0  -3  15  128.29   13.30
   0   3  15  112.39   12.70
   0   3 -15  101.29   14.30
   0   3  15  136.89   16.90
   1  -3  15   45.30   10.90
   1  -3  15   36.40    9.40
  -1   3 -15   75.19   13.10
   1   3  15   57.29   13.00
   1   3  15   64.19   11.40
   2  -3  15   21.70    9.00
  -2  -3 -15   29.60   10.60
   2  -3  15   17.40    9.00
   2   3  15   17.40    9.50
   2   3  15   11.30    8.30
  -2   3 -15   23.90    9.70
   2   3  15   18.60    7.10
   4  -4 -15   40.50   11.60
  -4  -4  15   43.60    8.30
  -4  -4  15   45.20    9.90
  -4  -4  15   41.40    8.60
   4   4 -15   47.50   13.50
  -4   4  15   59.09   12.40
  -3  -4  15   90.29   12.80
  -3  -4  15  104.39   12.00
   3  -4 -15   87.19   12.70
   3   4 -15   83.19   14.20
  -3   4  15  115.59   15.60
  -2  -4  15  116.09   14.00
  -2  -4  15   67.29   11.00
  -2  -4  15   94.79   12.80
   2   4 -15  106.79   14.80
  -2   4  15  146.39   17.30
  -1  -4  15   44.80    9.40
  -1  -4  15   58.99   10.60
  -1   4  15   69.19   12.70
   1   4 -15   45.10   11.10
   0  -4 -15    3.30    4.60
   0  -4  15   13.00    7.30
   0  -4  15   13.10    8.30
   0   4 -15   11.10    8.80
   0   4  15   26.90   10.20
  -1  -4 -15  102.79   15.00
   1  -4  15   84.69   12.50
   1  -4  15   73.09   12.80
  -1   4 -15   97.19   15.00
   1   4  15  113.69   17.40
   1   4  15   66.69   11.50
   2  -4  15  201.28   20.80
   2  -4  15  180.58   17.80
  -2  -4 -15  206.98   21.30
   2   4  15  178.88   18.50
   2   4  15  167.18   19.40
  -2   4 -15  209.78   19.50
  -1  -5  15   90.89   12.90
  -1  -5  15   93.39   13.70
  -1   5  15   70.79   13.50
   1   5 -15   63.19   12.90
   0  -5 -15   84.89   13.80
   0  -5  15   49.30   10.20
   0  -5  15   52.49   10.80
   0   5 -15   62.09   12.50
   0   5  15   53.69   12.80
   1  -5  15   25.40    8.80
  -1  -5 -15   39.30   12.90
   1  -5  15   27.00   10.40
   1   5  15   26.80   12.20
  -1   5 -15   26.00   11.30
   5   0 -16    0.10   10.30
  -5   0  16    5.60    8.10
  -5   0  16   21.60   19.30
   4   0 -16  159.08   29.30
  -4   0  16  139.79   26.80
  -4   0  16  110.29   15.30
   4   0 -16  112.29   17.00
   3   0 -16   56.69   13.00
  -3   0  16   58.79   11.90
  -3   0  16   69.39   20.20
  -3   0  16   70.89    9.70
  -2   0  16   -1.30    6.90
  -2   0  16    3.70    5.70
   2   0 -16   -2.10    9.10
  -1   0  16   19.70    7.10
  -1   0  16   22.10    8.30
   0   0  16  215.48   18.40
   0   0  16  216.98   18.20
   0   0 -16  200.58   17.40
   0   0  16  221.98   17.50
   1   0  16  140.19   15.10
   1   0  16  139.09   15.50
   2   0  16   71.49   12.00
   2   0  16   83.29   13.70
   5  -1 -16   31.50   11.60
  -5  -1  16   64.79   12.60
  -5  -1  16   81.09   24.30
   5   1 -16   48.00   13.80
  -5   1  16   57.29   23.30
  -5   1  16   59.69   12.40
   4  -1 -16   28.70   26.80
  -4  -1  16    8.50    7.90
   4  -1 -16    1.20   10.00
  -4  -1  16   14.00   16.70
  -4  -1  16    4.20    4.30
   4   1 -16   31.80   27.40
   4   1 -16    1.40    9.30
  -4   1  16    9.00    8.00
  -4   1  16    9.90   16.50
  -3  -1  16  117.09   22.30
   3  -1 -16  122.89   15.90
  -3  -1  16   95.59   11.50
  -3  -1  16   92.79   13.20
   3   1 -16   91.59   14.40
  -3   1  16  103.19   22.10
  -2  -1  16   94.59   11.50
  -2  -1  16   98.79   13.70
   2   1 -16   91.99   14.70
  -2   1  16   86.49   10.50
  -1  -1  16   94.99   11.50
  -1  -1  16   77.19   12.10
   1  -1 -16   75.39   11.70
  -1   1  16  132.49   16.00
  -1   1  16  104.49   12.00
   1   1 -16  134.09   15.70
   0  -1  16    0.80    6.00
   0  -1  16    7.30    7.00
   0  -1  16    3.60    6.00
   0   1 -16    2.30    8.20
   0   1  16    4.00    8.30
   0   1  16    7.40    7.50
   1  -1  16    3.10    7.60
   1  -1  16   16.50    8.60
   1   1  16   19.70    8.90
   1   1  16   17.70    7.70
  -1   1 -16   12.10    6.80
   1   1  16   12.00    8.80
   2  -1  16  135.09   15.70
   2  -1  16  142.59   17.20
   2   1  16  124.19   15.30
   2   1  16   80.09   15.10
   2   1  16  142.69   16.80
  -4  -2  16  146.69   27.40
  -4  -2  16  142.69   15.80
   4  -2 -16   92.99   15.70
   4   2 -16  182.18   29.70
  -4   2  16  128.99   27.60
  -4   2  16  155.58   17.20
   4   2 -16  106.59   16.20
  -3  -2  16  100.79   12.00
  -3  -2  16   96.49   13.90
   3  -2 -16   84.19   13.70
  -3   2  16  102.09   22.90
   3   2 -16  121.59   16.70
  -2  -2  16   10.00    8.20
  -2  -2  16   22.00    7.60
   2  -2 -16   11.00    9.10
  -2  -2  16   10.60    5.20
  -2   2  16   18.90    8.90
   2   2 -16   18.00    9.50
  -1  -2  16   29.70    8.10
  -1  -2  16   22.30    7.10
  -1  -2  16   29.40    8.20
   1   2 -16   24.20    9.70
  -1   2  16   26.80    9.70
  -1   2  16   21.90    7.10
   0  -2  16  194.08   16.90
   0  -2  16  225.98   18.30
   0   2  16  179.68   16.30
   0   2  16  211.88   20.10
   0   2 -16  179.68   18.40
   1  -2  16   90.79   13.80
   1  -2  16  102.69   14.30
   1   2  16  110.49   14.70
   1   2  16  114.99   15.90
   2  -2  16   39.30   10.90
   2  -2  16   41.40   11.50
   2   2  16   43.80   11.60
   2   2  16   56.49   12.50
   4  -3 -16    4.60   10.70
  -4  -3  16    8.80    6.70
  -4  -3  16    9.70    8.10
  -4   3  16    6.20    8.40
  -4   3  16   12.60   16.40
   4   3 -16    9.50   10.00
   3  -3 -16    9.20   10.00
  -3  -3  16   15.70    8.00
  -3  -3  16   22.10    9.00
  -3  -3  16    8.10    5.90
   3   3 -16   11.70    9.80
  -3   3  16   12.00    9.40
  -2  -3  16   99.69   12.40
  -2  -3  16   73.99   11.40
  -2  -3  16   84.29   12.80
  -2   3  16   97.19   14.00
   2   3 -16  102.99   15.50
  -1  -3  16   48.50    9.50
  -1  -3  16   44.20    9.10
  -1  -3  16   47.50    9.10
  -1   3  16   65.89   12.30
   1   3 -16   52.39   11.40
   0  -3  16   15.20    8.10
   0  -3  16   29.20    8.70
   0   3  16   21.00    8.10
   0   3  16   16.00    9.70
   0   3 -16   23.60   10.80
   1  -3  16   73.69   13.10
   1  -3  16   55.49   11.20
   1   3  16   70.29   12.90
   1   3  16  102.99   16.20
  -1   3 -16   60.59   11.70
  -2  -4  16    6.70    6.30
  -2  -4  16   -2.70    6.50
  -2  -4  16    7.20    6.00
   2   4 -16    3.70    9.30
  -2   4  16    9.30    9.40
  -1  -4  16   49.20   10.40
  -1  -4  16   52.89   10.80
  -1   4  16   55.19   13.80
   1   4 -16   46.30   11.90
   0  -4  16  145.79   17.00
   0  -4  16  123.29   14.50
   0   4  16  174.48   20.00
   0   4 -16  102.89   15.10
   1  -4  16   35.10    9.70
  -1  -4 -16   34.00    9.40
   1  -4  16   23.20    9.20
  -1   4 -16   25.10   10.90
   1   4  16   29.60   12.80
   1   4  16   24.10    8.70
  -1  -5  16   27.00    8.90
  -1  -5  16   30.10    8.80
   1   5 -16   42.20   11.70
  -1   5  16   40.10   12.80
   4   0 -17   10.10   11.20
   2   0 -17   33.70   11.10
  -2   0  17   37.00   10.00
  -2   0  17   47.50    9.10
  -1   0  17  257.27   20.30
   1   0 -17  203.58   19.50
  -1   0  17  242.78   18.90
   0   0  17    8.70    8.50
   0   0  17   14.70    8.30
   1   0  17    5.00    6.80
   1   0  17    8.70    8.80
  -4  -1  17   55.49   19.70
  -4  -1  17   32.50   10.80
   4  -1 -17   30.80   12.30
  -4   1  17   34.60   10.50
  -4   1  17   68.09   22.50
   4   1 -17   42.00   13.30
  -3  -1  17  112.19   15.60
   3  -1 -17  112.39   16.80
  -3  -1  17  159.38   22.10
  -3   1  17  138.09   16.10
  -3   1  17  160.98   23.20
   3   1 -17  104.29   15.90
  -2  -1  17   36.60   10.10
  -2  -1  17   22.40    7.10
  -2   1  17   40.10    7.60
   2   1 -17   28.20   10.30
  -2   1  17   55.29   12.20
  -1  -1  17    4.60    6.10
  -1  -1  17   -0.30    6.70
   1  -1 -17    9.30   10.40
  -1   1  17   -1.40    8.60
   1   1 -17    1.90    8.90
  -1   1  17   10.80    7.00
   0  -1  17   22.40    8.40
   0  -1  17   12.00    7.30
   0  -1  17   10.70    7.10
   0   1  17   21.10    9.20
   0   1  17   20.50    8.50
   0   1 -17   32.70   10.20
   1  -1  17  153.98   17.30
   1   1  17  152.58   17.30
   1   1  17  154.08   16.10
   1   1  17  156.78   17.50
  -4  -2  17   29.60   16.60
   4  -2 -17    3.00   10.30
  -4  -2  17    9.00    9.40
   4   2 -17    3.60   10.70
  -4   2  17    2.30    9.40
  -4   2  17   11.40   15.50
  -3  -2  17   16.30    9.20
  -3  -2  17   51.79   15.30
   3  -2 -17   11.10   10.00
  -3   2  17   13.40   10.30
   3   2 -17   12.70   10.30
  -3   2  17   27.70   13.20
  -2  -2  17   28.60    9.30
   2  -2 -17   43.00   10.20
  -2  -2  17   24.80    7.40
   2   2 -17   35.30   11.00
  -2   2  17   47.90   11.10
  -1  -2  17  110.29   13.40
  -1  -2  17  135.19   14.30
  -1  -2  17  127.69   14.80
   1   2 -17  133.79   15.70
  -1   2  17  136.09   13.10
  -1   2  17  147.89   16.70
   0  -2  17   56.09   10.60
   0  -2  17   40.10    9.40
   0   2  17   45.00   11.20
   0   2 -17   53.99   12.30
   1  -2  17   63.69   12.30
   1  -2  17   51.09   11.70
   1   2  17   42.00   10.40
  -1   2 -17   33.80    9.40
   1   2  17   59.39   12.90
  -3   3  17  303.67   27.70
  -2  -3  17   27.20    8.00
  -2  -3  17   33.10    8.30
  -2  -3  17   32.90    8.80
  -2   3  17   47.50   12.50
   2   3 -17   39.20   11.40
  -1  -3  17    1.50    9.10
  -1  -3  17   -0.10    6.30
  -1  -3  17   -1.00    5.80
   1   3 -17   -4.50    8.20
  -1   3  17   -1.50   10.00
   0  -3  17   33.90    9.90
   0  -3  17   36.60   10.10
   0   3 -17   35.60   11.70
   0   3  17   41.80   12.60
   0   3  17   21.40    7.50
  -1  -4  17   54.59   10.50
  -1  -4  17   59.19   11.50
  -1   4  17   54.19   12.50
   1   4 -17   54.89   12.40
   3   0 -18   50.79   12.50
  -3   0  18   75.89   13.70
   2   0 -18   82.19   14.60
   1   0 -18   52.09   11.30
  -1   0  18   71.89   11.20
  -1   0  18   61.19   11.60
   0   0  18   12.60    8.50
   0   0  18    0.20    7.80
   3  -1 -18    1.90   10.00
  -3  -1  18    5.20    9.20
  -3   1  18    5.80    8.90
   3   1 -18    5.20   11.10
  -2  -1  18    5.30    8.40
   2  -1 -18    3.90    9.90
  -2  -1  18    4.70    6.20
  -2   1  18    6.90   10.00
   2   1 -18    8.40   10.00
  -1  -1  18   28.10    9.40
  -1  -1  18   13.70    6.90
  -1   1  18   20.80   10.60
   1   1 -18   20.40   10.60
   0  -1  18   55.09   10.60
   0  -1  18   69.89   10.70
   0  -1  18   68.89   11.30
   0   1  18   95.89   14.90
   0   1  18   48.80   10.10
   0   1 -18   96.69   12.90
  -2  -2  18  170.18   17.50
   2   2 -18  153.58   19.10
  -2   2  18  145.49   18.50
  -1  -2  18   27.40    8.40
  -1  -2  18   28.50    7.20
  -1  -2  18   49.00   10.40
   1   2 -18   29.10   10.50
  -1   2  18   45.20   12.50
   0   0   0    0.00    0.00
_computing_structure_solution     'SHELXT 2014/5 (Sheldrick, 2014)'
;
_shelx_hkl_checksum              34239
_shelx_res_file
;
TITL 5Jul18_AP1_0m_b.res in P2(1)
    5Jul18_AP1_0m_b.res
    created by SHELXL-2016/6 at 08:08:16 on 17-May-2019
REM Old TITL 5Jul18_AP1_0m in P2(1)
REM SHELXT solution in P2(1)
REM R1 0.060,  Rweak 0.033,  Alpha 0.023,  Orientation as input
REM Flack x =  0.168 ( 0.007 ) from Parsons' quotients
REM Formula found by SHELXT:  C15 Br F3 N2 O
CELL  0.71073   6.0135   7.4994  14.6318   90.000  101.401   90.000
ZERR    2.000   0.0003   0.0004   0.0007    0.000    0.002    0.000
LATT -1
SYMM -X, 1/2+Y, -Z
SFAC C H BR F N O
UNIT 30 12 2 8 2 2
TEMP -173
SIZE 0.038 0.136 0.297
L.S. 50
ACTA
EQIV $1 -x+1, y+1/2, -z+1
HTAB C7 Br1_$1
EQIV $2 x+1, y, z
HTAB C15 F3_$2
CONF
BOND $H
TWIN
LIST 6
FMAP 2
PLAN 5
WGHT    0.017400    0.147000
BASF   0.17128
FVAR       0.57424
BR1   3    1.113865    0.127230    0.653314    11.00000    0.01749    0.02074 =
         0.02107    0.00060    0.00019    0.00170
F1    4    0.143726    0.895941    0.169328    11.00000    0.04747    0.02091 =
         0.03575    0.00161    0.01291    0.00317
F2    4    0.430044    0.618625    0.204985    11.00000    0.01896    0.02688 =
         0.02408   -0.00270   -0.00442   -0.00471
F3    4   -0.167066    0.253710    0.049805    11.00000    0.03240    0.04140 =
         0.02322   -0.00851    0.00412   -0.02091
F4    4   -0.428411    0.550515    0.021660    11.00000    0.01477    0.08207 =
         0.02956    0.00345   -0.00188    0.00364
O1    6    0.263693    0.272435    0.142262    11.00000    0.03668    0.02125 =
         0.01585   -0.00202   -0.00351    0.00434
N1    5   -0.142429    0.723094    0.096257    11.00000    0.02221    0.03866 =
         0.02229    0.00739    0.00531    0.01040
C1    1    0.069247    0.734369    0.141480    11.00000    0.03627    0.01982 =
         0.01882    0.00072    0.01092    0.00393
C2    1    0.215659    0.592070    0.159922    11.00000    0.01815    0.01756 =
         0.01265    0.00247    0.00154   -0.00400
C3    1    0.138422    0.422732    0.131610    11.00000    0.02160    0.02335 =
         0.01141    0.00370    0.00382   -0.00093
C4    1   -0.083716    0.412552    0.082623    11.00000    0.02208    0.03486 =
         0.01164   -0.00217    0.00454   -0.00979
C5    1   -0.212662    0.564234    0.067952    11.00000    0.01453    0.05050 =
         0.01747    0.00353    0.00145    0.00065
C6    1    0.415992    0.237680    0.226162    11.00000    0.02574    0.01424 =
         0.01681   -0.00045   -0.00068   -0.00224
C7    1    0.375347    0.284331    0.311258    11.00000    0.01832    0.01623 =
         0.02132   -0.00003    0.00387    0.00122
AFIX  43
H7    2    0.238946    0.343679    0.316620    11.00000   -1.20000
AFIX   0
C8    1    0.541723    0.242304    0.392241    11.00000    0.01807    0.00780 =
         0.01925   -0.00058    0.00522   -0.00340
C9    1    0.511885    0.288571    0.482924    11.00000    0.01558    0.01339 =
         0.02078   -0.00086    0.00465    0.00285
AFIX  43
H9    2    0.375158    0.344584    0.490712    11.00000   -1.20000
AFIX   0
C10   1    0.678321    0.253443    0.559850    11.00000    0.01896    0.01379 =
         0.01716   -0.00249    0.00447   -0.00236
AFIX  43
H10   2    0.657322    0.284878    0.620469    11.00000   -1.20000
AFIX   0
C11   1    0.880269    0.170238    0.547498    11.00000    0.01613    0.00923 =
         0.02073    0.00379    0.00093   -0.00121
C12   1    0.914560    0.121060    0.461865    11.00000    0.01739    0.00993 =
         0.02328    0.00008    0.00693   -0.00047
AFIX  43
H12   2    1.052023    0.064184    0.455750    11.00000   -1.20000
AFIX   0
C13   1    0.743762    0.155105    0.381432    11.00000    0.01784    0.00870 =
         0.02005    0.00130    0.00769   -0.00123
C14   1    0.772418    0.104025    0.291849    11.00000    0.02198    0.01640 =
         0.02430   -0.00377    0.01177   -0.00029
AFIX  43
H14   2    0.906380    0.042866    0.284841    11.00000   -1.20000
AFIX   0
C15   1    0.610765    0.141180    0.215353    11.00000    0.02791    0.01979 =
         0.01666    0.00116    0.00913   -0.00308
AFIX  43
H15   2    0.628527    0.102730    0.155347    11.00000   -1.20000
AFIX   0
HKLF 4
REM  5Jul18_AP1_0m_b.res in P2(1)
REM R1 =  0.0305 for    2566 Fo > 4sig(Fo)  and  0.0342 for all    2775 data
REM    200 parameters refined using      1 restraints
END
WGHT      0.0174      0.1470
REM Highest difference peak  0.695,  deepest hole -0.465,  1-sigma level  0.104
Q1    1   1.1888  0.2415  0.6535  11.00000  0.05    0.61
Q2    1   1.1948  0.0117  0.6513  11.00000  0.05    0.60
Q3    1  -0.3363  0.1261  0.0409  11.00000  0.05    0.56
Q4    1   1.0148  0.0184  0.6522  11.00000  0.05    0.53
Q5    1   1.0121  0.2356  0.6548  11.00000  0.05    0.52
;
_shelx_res_checksum              6251
loop_
_space_group_symop_operation_xyz
'x, y, z'
'-x, y+1/2, -z'
loop_
_atom_site_type_symbol
_atom_site_label
_atom_site_fract_x
_atom_site_fract_y
_atom_site_fract_z
_atom_site_U_iso_or_equiv
_atom_site_adp_type
_atom_site_calc_flag
_atom_site_occupancy
Br Br1 1.11387(6) 0.12723(7) 0.65331(3) 0.02027(12) Uani d 1
F F1 0.1437(5) 0.8959(4) 0.1693(2) 0.0341(8) Uani d 1
F F2 0.4300(3) 0.6186(6) 0.20499(14) 0.0245(5) Uani d 1
F F3 -0.1671(5) 0.2537(4) 0.04981(19) 0.0325(7) Uani d 1
F F4 -0.4284(4) 0.5505(4) 0.0217(2) 0.0430(9) Uani d 1
O O1 0.2637(6) 0.2724(4) 0.1423(2) 0.0258(8) Uani d 1
N N1 -0.1424(7) 0.7231(7) 0.0963(3) 0.0276(11) Uani d 1
C C1 0.0692(8) 0.7344(7) 0.1415(3) 0.0242(11) Uani d 1
C C2 0.2157(7) 0.5921(6) 0.1599(3) 0.0163(12) Uani d 1
C C3 0.1384(8) 0.4227(8) 0.1316(3) 0.0187(11) Uani d 1
C C4 -0.0837(8) 0.4126(7) 0.0826(3) 0.0227(11) Uani d 1
C C5 -0.2127(9) 0.5642(8) 0.0680(4) 0.0277(15) Uani d 1
C C6 0.4160(7) 0.2377(6) 0.2262(3) 0.0196(10) Uani d 1
C C7 0.3753(7) 0.2843(6) 0.3113(3) 0.0186(10) Uani d 1
H H7 0.238946 0.343679 0.31662 0.022 Uiso calc 1
C C8 0.5417(7) 0.2423(5) 0.3922(3) 0.0148(9) Uani d 1
C C9 0.5119(7) 0.2886(6) 0.4829(3) 0.0164(9) Uani d 1
H H9 0.375158 0.344584 0.490712 0.02 Uiso calc 1
C C10 0.6783(7) 0.2534(6) 0.5599(3) 0.0165(9) Uani d 1
H H10 0.657322 0.284878 0.620469 0.02 Uiso calc 1
C C11 0.8803(7) 0.1702(5) 0.5475(3) 0.0157(11) Uani d 1
C C12 0.9146(6) 0.1211(10) 0.4619(2) 0.0165(7) Uani d 1
H H12 1.052023 0.064184 0.45575 0.02 Uiso calc 1
C C13 0.7438(6) 0.1551(7) 0.3814(3) 0.0150(11) Uani d 1
C C14 0.7724(7) 0.1040(8) 0.2918(3) 0.0199(11) Uani d 1
H H14 0.90638 0.042866 0.284841 0.024 Uiso calc 1
C C15 0.6108(6) 0.1412(10) 0.2154(3) 0.0208(9) Uani d 1
H H15 0.628527 0.10273 0.155347 0.025 Uiso calc 1
loop_
_atom_site_aniso_label
_atom_site_aniso_U_11
_atom_site_aniso_U_22
_atom_site_aniso_U_33
_atom_site_aniso_U_12
_atom_site_aniso_U_13
_atom_site_aniso_U_23
Br1 0.01749(18) 0.0207(2) 0.0211(2) 0.0017(3) 0.00019(13) 0.0006(3)
F1 0.047(2) 0.021(2) 0.036(2) 0.0032(15) 0.0129(16) 0.0016(15)
F2 0.0190(10) 0.0269(13) 0.0241(12) -0.0047(19) -0.0044(9) -0.003(2)
F3 0.0324(15) 0.0414(19) 0.0232(15) -0.0209(14) 0.0041(12) -0.0085(13)
F4 0.0148(13) 0.082(3) 0.0296(16) 0.0036(13) -0.0019(12) 0.0034(15)
O1 0.037(2) 0.0213(19) 0.0158(17) 0.0043(15) -0.0035(14) -0.0020(14)
N1 0.022(3) 0.039(3) 0.022(3) 0.010(2) 0.005(2) 0.007(2)
C1 0.036(3) 0.020(3) 0.019(3) 0.004(2) 0.011(2) 0.001(2)
C2 0.0181(19) 0.018(4) 0.0127(19) -0.0040(19) 0.0015(15) 0.0025(18)
C3 0.022(3) 0.023(3) 0.011(2) -0.001(2) 0.0038(19) 0.004(2)
C4 0.022(2) 0.035(3) 0.012(2) -0.010(2) 0.0045(18) -0.002(2)
C5 0.015(3) 0.051(4) 0.017(3) 0.001(2) 0.001(2) 0.004(2)
C6 0.026(2) 0.014(2) 0.017(2) -0.0022(19) -0.0007(18) -0.0005(19)
C7 0.018(2) 0.016(2) 0.021(2) 0.0012(17) 0.0039(18) 0.0000(19)
C8 0.018(2) 0.008(2) 0.019(2) -0.0034(16) 0.0052(17) -0.0006(17)
C9 0.016(2) 0.013(2) 0.021(2) 0.0029(17) 0.0047(18) -0.0009(18)
C10 0.019(2) 0.014(2) 0.017(2) -0.0024(18) 0.0045(18) -0.0025(18)
C11 0.0161(19) 0.009(3) 0.021(2) -0.0012(15) 0.0009(16) 0.0038(16)
C12 0.0174(17) 0.0099(18) 0.0233(19) 0.000(3) 0.0069(14) 0.000(3)
C13 0.0178(18) 0.009(3) 0.020(2) -0.0012(17) 0.0077(15) 0.0013(19)
C14 0.0220(19) 0.016(3) 0.024(2) 0.000(2) 0.0118(16) -0.004(2)
C15 0.028(2) 0.020(3) 0.0167(19) -0.003(3) 0.0091(15) 0.001(3)
loop_
_atom_type_symbol
_atom_type_description
_atom_type_scat_dispersion_real
_atom_type_scat_dispersion_imag
_atom_type_scat_source
C C 0.0033 0.0016 'International Tables Vol C Tables 4.2.6.8 and 6.1.1.4'
H H 0.0000 0.0000 'International Tables Vol C Tables 4.2.6.8 and 6.1.1.4'
Br Br -0.2901 2.4595 'International Tables Vol C Tables 4.2.6.8 and 6.1.1.4'
F F 0.0171 0.0103 'International Tables Vol C Tables 4.2.6.8 and 6.1.1.4'
N N 0.0061 0.0033 'International Tables Vol C Tables 4.2.6.8 and 6.1.1.4'
O O 0.0106 0.0060 'International Tables Vol C Tables 4.2.6.8 and 6.1.1.4'
loop_
_geom_angle_atom_site_label_1
_geom_angle_atom_site_label_2
_geom_angle_atom_site_label_3
_geom_angle
C3 O1 C6 120.7(4)
C5 N1 C1 116.0(5)
N1 C1 F1 116.6(5)
N1 C1 C2 124.5(5)
F1 C1 C2 118.9(4)
F2 C2 C1 119.8(4)
F2 C2 C3 121.0(4)
C1 C2 C3 119.2(5)
O1 C3 C2 125.8(4)
O1 C3 C4 118.2(5)
C2 C3 C4 115.8(5)
F3 C4 C5 121.4(4)
F3 C4 C3 119.1(5)
C5 C4 C3 119.5(5)
N1 C5 F4 116.7(4)
N1 C5 C4 124.8(5)
F4 C5 C4 118.4(5)
C7 C6 O1 123.3(4)
C7 C6 C15 122.5(4)
O1 C6 C15 114.2(4)
C6 C7 C8 118.7(4)
C6 C7 H7 120.7
C8 C7 H7 120.7
C13 C8 C9 119.2(4)
C13 C8 C7 119.1(4)
C9 C8 C7 121.7(4)
C10 C9 C8 120.9(4)
C10 C9 H9 119.6
C8 C9 H9 119.6
C9 C10 C11 119.1(4)
C9 C10 H10 120.5
C11 C10 H10 120.5
C12 C11 C10 122.0(4)
C12 C11 Br1 118.8(3)
C10 C11 Br1 119.2(3)
C11 C12 C13 119.8(4)
C11 C12 H12 120.1
C13 C12 H12 120.1
C14 C13 C8 119.7(4)
C14 C13 C12 121.3(4)
C8 C13 C12 119.0(4)
C15 C14 C13 120.8(4)
C15 C14 H14 119.6
C13 C14 H14 119.6
C14 C15 C6 119.2(4)
C14 C15 H15 120.4
C6 C15 H15 120.4
loop_
_geom_bond_atom_site_label_1
_geom_bond_atom_site_label_2
_geom_bond_distance
Br1 C11 1.901(4)
F1 C1 1.328(6)
F2 C2 1.342(4)
F3 C4 1.344(6)
F4 C5 1.344(6)
O1 C3 1.348(6)
O1 C6 1.403(5)
N1 C5 1.304(7)
N1 C1 1.316(6)
C1 C2 1.376(6)
C2 C3 1.387(7)
C3 C4 1.388(6)
C4 C5 1.369(7)
C6 C7 1.361(6)
C6 C15 1.412(7)
C7 C8 1.427(6)
C7 H7 0.95
C8 C13 1.416(6)
C8 C9 1.417(6)
C9 C10 1.376(6)
C9 H9 0.95
C10 C11 1.408(6)
C10 H10 0.95
C11 C12 1.360(6)
C12 C13 1.424(5)
C12 H12 0.95
C13 C14 1.408(6)
C14 C15 1.358(6)
C14 H14 0.95
C15 H15 0.95
loop_
_geom_torsion_atom_site_label_1
_geom_torsion_atom_site_label_2
_geom_torsion_atom_site_label_3
_geom_torsion_atom_site_label_4
_geom_torsion
C5 N1 C1 F1 179.0(5)
C5 N1 C1 C2 0.0(8)
N1 C1 C2 F2 178.6(4)
F1 C1 C2 F2 -0.3(6)
N1 C1 C2 C3 -1.5(7)
F1 C1 C2 C3 179.5(4)
C6 O1 C3 C2 42.9(7)
C6 O1 C3 C4 -141.8(4)
F2 C2 C3 O1 -2.3(7)
C1 C2 C3 O1 177.8(4)
F2 C2 C3 C4 -177.7(4)
C1 C2 C3 C4 2.4(7)
O1 C3 C4 F3 1.6(7)
C2 C3 C4 F3 177.4(4)
O1 C3 C4 C5 -177.8(4)
C2 C3 C4 C5 -2.0(7)
C1 N1 C5 F4 180.0(4)
C1 N1 C5 C4 0.5(9)
F3 C4 C5 N1 -178.8(5)
C3 C4 C5 N1 0.6(9)
F3 C4 C5 F4 1.7(7)
C3 C4 C5 F4 -178.9(4)
C3 O1 C6 C7 35.4(6)
C3 O1 C6 C15 -147.8(5)
O1 C6 C7 C8 179.9(4)
C15 C6 C7 C8 3.4(7)
C6 C7 C8 C13 0.5(6)
C6 C7 C8 C9 179.3(4)
C13 C8 C9 C10 1.5(6)
C7 C8 C9 C10 -177.3(4)
C8 C9 C10 C11 0.0(6)
C9 C10 C11 C12 -1.0(7)
C9 C10 C11 Br1 178.3(3)
C10 C11 C12 C13 0.6(8)
Br1 C11 C12 C13 -178.8(4)
C9 C8 C13 C14 178.2(5)
C7 C8 C13 C14 -3.0(7)
C9 C8 C13 C12 -1.9(7)
C7 C8 C13 C12 176.9(4)
C11 C12 C13 C14 -179.2(5)
C11 C12 C13 C8 0.9(8)
C8 C13 C14 C15 1.6(8)
C12 C13 C14 C15 -178.3(6)
C13 C14 C15 C6 2.2(9)
C7 C6 C15 C14 -4.9(9)
O1 C6 C15 C14 178.4(5)

_cod_database_fobs_code 2243005
