#------------------------------------------------------------------------------
#$Date: 2020-03-14 08:02:46 +0200 (Sat, 14 Mar 2020) $
#$Revision: 249387 $
#$URL: file:///home/coder/svn-repositories/cod/cif/2/24/33/2243319.cif $
#------------------------------------------------------------------------------
#
# This file is available in the Crystallography Open Database (COD),
# http://www.crystallography.net/. The original data for this entry
# were provided by IUCr Journals, http://journals.iucr.org/.
#
# The file may be used within the scientific community so long as
# proper attribution is given to the journal article from which the
# data were obtained.
#
data_2243319
loop_
_publ_author_name
'Assoumatine, Tokour\'e'
'Stoeckli-Evans, Helen'
_publ_section_title
;
 Silver(I) nitrate two-dimensional coordination polymers of two new
 pyrazinethiophane ligands:
 5,7-dihydro-1<i>H</i>,3<i>H</i>-dithieno[3,4-<i>b</i>:3',4'-<i>e</i>]pyrazine
 and
 3,4,8,10,11,13-hexahydro-1<i>H</i>,6<i>H</i>-bis([1,4]dithiocino)[6,7-<i>b</i>:6',7'-<i>e</i>]pyrazine
;
_journal_coeditor_code           LH5951
_journal_issue                   4
_journal_name_full               'Acta Crystallographica Section E'
_journal_page_first              539
_journal_page_last               546
_journal_paper_doi               10.1107/S205698902000362X
_journal_volume                  76
_journal_year                    2020
_chemical_formula_moiety         '[C8 H8 N2 S2]AgNO3'
_chemical_formula_sum            'C8 H8 Ag N3 O3 S2'
_chemical_formula_weight         366.16
_space_group_crystal_system      monoclinic
_space_group_IT_number           13
_space_group_name_Hall           '-P 2yac'
_space_group_name_H-M_alt        'P 1 2/n 1'
_atom_sites_solution_hydrogens   geom
_atom_sites_solution_primary     direct
_atom_sites_solution_secondary   difmap
_audit_creation_method           SHELXL-2018/3
_cell_angle_alpha                90
_cell_angle_beta                 93.121(9)
_cell_angle_gamma                90
_cell_formula_units_Z            2
_cell_length_a                   3.8995(3)
_cell_length_b                   6.3902(6)
_cell_length_c                   20.5741(18)
_cell_measurement_reflns_used    5000
_cell_measurement_temperature    223(2)
_cell_measurement_theta_max      25.81
_cell_measurement_theta_min      3.19
_cell_volume                     511.92(8)
_computing_cell_refinement
;
CELL in IPDS1 (Stoe & Cie, 1998)
;
_computing_data_collection
;
EXPOSE in IPDS1 (Stoe & Cie, 1998)
;
_computing_data_reduction
;
INTEGRATE in IPDS1 (Stoe & Cie, 1998)
;
_computing_molecular_graphics
;
Mercury (Macrae <i>et al.</i>,  2020)
;
_computing_publication_material
;
<i>SHELXL-2018/3</i> (Sheldrick, 2015), PLATON (Spek, 2020) and
publcif (Westrip, 2010)
;
_computing_structure_refinement
;
<i>SHELXL-2018/3</i> (Sheldrick, 2015)
;
_computing_structure_solution
;
SHELXS-97 (Sheldrick, 2008)
;
_diffrn_ambient_temperature      223(2)
_diffrn_detector                 'image plate'
_diffrn_measured_fraction_theta_full 0.966
_diffrn_measured_fraction_theta_max 0.965
_diffrn_measurement_device       '1 circle goniometer'
_diffrn_measurement_device_type  'STOE IPDS 1'
_diffrn_measurement_method       '\f rotation'
_diffrn_radiation_monochromator  'plane graphite'
_diffrn_radiation_source         'fine-focus sealed tube'
_diffrn_radiation_type           MoK\a
_diffrn_radiation_wavelength     0.71073
_diffrn_reflns_av_R_equivalents  0.0206
_diffrn_reflns_av_unetI/netI     0.0129
_diffrn_reflns_limit_h_max       4
_diffrn_reflns_limit_h_min       -4
_diffrn_reflns_limit_k_max       7
_diffrn_reflns_limit_k_min       -7
_diffrn_reflns_limit_l_max       25
_diffrn_reflns_limit_l_min       -25
_diffrn_reflns_number            3795
_diffrn_reflns_theta_full        25.242
_diffrn_reflns_theta_max         25.810
_diffrn_reflns_theta_min         3.188
_exptl_absorpt_coefficient_mu    2.374
_exptl_absorpt_correction_T_max  1.0000
_exptl_absorpt_correction_T_min  0.9318
_exptl_absorpt_correction_type   multi-scan
_exptl_absorpt_process_details
;
(MULABS; Spek, 2020)
;
_exptl_crystal_colour            colourless
_exptl_crystal_density_diffrn    2.375
_exptl_crystal_description       needle
_exptl_crystal_F_000             360
_exptl_crystal_size_max          0.45
_exptl_crystal_size_mid          0.10
_exptl_crystal_size_min          0.10
_refine_diff_density_max         0.314
_refine_diff_density_min         -0.267
_refine_ls_extinction_method     none
_refine_ls_goodness_of_fit_ref   1.145
_refine_ls_hydrogen_treatment    constr
_refine_ls_matrix_type           full
_refine_ls_number_parameters     79
_refine_ls_number_reflns         958
_refine_ls_number_restraints     0
_refine_ls_restrained_S_all      1.145
_refine_ls_R_factor_all          0.0170
_refine_ls_R_factor_gt           0.0156
_refine_ls_shift/su_max          0.001
_refine_ls_shift/su_mean         0.000
_refine_ls_structure_factor_coef Fsqd
_refine_ls_weighting_details
'w=1/[\s^2^(Fo^2^)+(0.0200P)^2^+0.3928P] where P=(Fo^2^+2Fc^2^)/3'
_refine_ls_weighting_scheme      calc
_refine_ls_wR_factor_gt          0.0406
_refine_ls_wR_factor_ref         0.0412
_reflns_number_gt                905
_reflns_number_total             958
_reflns_threshold_expression     'I > 2\s(I)'
_cod_data_source_file            lh5951sup1.cif
_cod_data_source_block           I
_cod_original_sg_symbol_H-M      'P 2/n'
_cod_database_code               2243319
_shelx_space_group_comment
;
The symmetry employed for this shelxl refinement is uniquely defined
by the following loop, which should always be used as a source of
symmetry information in preference to the above space-group names.
They are only intended as comments.
;
_shelx_estimated_absorpt_t_min   0.415
_shelx_estimated_absorpt_t_max   0.797
_shelx_hkl_file
;
   4   1  -1   84.63    7.86
   4   1  -1   85.43    6.91
   4   1  -2   21.93    8.61
   4   1  -2   23.99    7.36
   4   1  -3  653.36   14.44
   4   1  -3  634.15   15.57
   4   1  -4   92.78    9.67
   4   1  -4   89.93    9.68
   4   1  -5 1289.64   26.56
   4   1  -5 1206.70   25.68
   4   1  -6  276.74   16.90
   4   1  -6  293.21   16.22
   4   1 -10  368.77   19.79
  -4  -1  10  349.92   17.32
   4   1 -10  379.76   18.95
  -4  -1  11  246.90   16.03
   4   1 -11  254.87   17.43
   4   1 -11  259.95   16.66
   4   1 -12    1.93    9.88
  -4  -1  12    3.24   11.22
  -4  -1  13  151.05   12.01
   4   1 -13  147.98   12.29
  -4  -1  14   55.97    9.55
   4   1 -14   67.97    9.55
  -4  -1  15  667.66   18.42
   4   1 -15  771.95   23.95
   4   1 -16   65.95   12.27
  -4  -1  16   62.72   12.26
   4   2  -1  128.96    6.94
   4   2  -1  120.10    7.04
   4   2  -2  236.28    7.86
   4   2  -2  241.16    8.03
   4   2  -3  278.56    8.14
   4   2  -3  269.09    8.47
   4   2  -4 1208.83   17.33
   4   2  -4 1235.73   15.95
  -4  -2   5  308.09    8.91
   4   2  -5  315.67   10.16
   4   2  -5  318.12    9.82
   4   2  -6  684.72   13.16
  -4  -2   6  621.45   11.93
   4   2  -6  657.34   13.37
   4   2  -7   23.20    6.20
  -4  -2   7   21.91    6.28
   4   2  -7   21.69    7.78
   4   2  -8  340.66   11.28
   4   2  -8  329.84   11.46
  -4  -2   8  314.05    9.91
   4   2  -9  180.53    8.73
  -4  -2   9  177.82   10.09
   4   2 -10  242.31    9.27
  -4  -2  10  220.21   10.51
   4   2 -11   11.90    8.65
  -4  -2  11    4.71    7.22
   4   2 -12  393.05   12.44
  -4  -2  12  344.27   10.44
  -4  -2  13   13.13    7.46
   4   2 -13   18.69    8.80
   4   2 -14  245.65   12.17
  -4  -2  14  212.83   10.09
   4   3  -1  774.52   11.68
  -4  -3   1  749.47   11.56
   4   3  -1  743.31   11.73
  -4  -3   2    5.63    8.64
   4   3  -2    1.53    7.08
   4   3  -2    3.37    6.99
   4   3  -3  109.89    7.63
   4   3  -3  110.90    7.68
  -4  -3   3  104.52    7.65
   4   3  -4  305.73    8.79
  -4  -3   4  293.96    8.88
   4   3  -4  302.02    9.09
   4   3  -5   77.91    7.34
  -4  -3   5   72.65    7.50
   4   3  -5   77.41    9.19
   4   3  -6  144.92    8.18
   4   3  -6  156.91    7.88
  -4  -3   6  145.81    8.20
  -4  -3   7  549.78   11.05
   4   3  -7  564.95   10.70
   4   3  -8    4.09    6.91
  -4  -3   8    1.44    8.80
  -4  -3   9  267.02    9.17
   4   3  -9  296.16   10.34
  -4  -3  10  211.99    8.76
   4   3 -10  222.61    8.62
  -4  -3  11  501.03   11.92
   4   3 -11  541.31   11.82
   4   3 -12   -0.81    9.95
  -4  -3  12   -0.62    8.30
  -4  -4   1    0.95    5.88
   4   4  -1   -3.55    8.41
   4   4  -1    9.60    8.11
  -4  -4   2  183.41    8.99
   4   4  -2  189.46    9.00
   4   4  -2  185.21    9.10
   4   4  -3  237.83    9.19
  -4  -4   3  226.31    9.20
   4   4  -3  215.80    7.17
   4   4  -4   37.67    8.19
  -4  -4   4   29.98    8.49
   4   4  -4   36.63    8.39
  -4  -4   5   50.53    8.46
   4   4  -5   54.50    8.20
   4   4  -6   33.34    8.15
  -4  -4   6   26.93    8.37
   4   4  -7  321.47    9.75
  -4  -4   7  296.42   10.01
   3   0  -1    3.29    5.08
   3   0  -1   -0.18    6.02
   3   0  -2 3253.77   37.85
   3   0  -2 3275.59   37.13
  -3   0   9    0.32    7.06
   3   0  -9    0.18    7.15
   3   0 -10 1273.97   20.83
  -3   0  10 1244.55   20.39
   3   0 -11    0.79    5.96
  -3   0  11    1.62    6.96
   3   0 -12 2349.81   26.09
  -3   0  12 2267.41   25.83
   3   0 -13    0.48    6.20
  -3   0  13    4.28    6.08
  -3   0  14    2.35    5.07
   3   0 -14    9.38    5.99
  -3   0  15    0.02    5.88
   3   0 -15   -1.23    7.00
  -3   0  16    3.15    5.92
   3   0 -16    1.14    5.75
   3   0 -17    1.41    5.70
  -3   0  17    1.01    5.99
   3   0 -18   61.26    6.24
  -3   0  18   60.21    6.47
   3   0 -19   -2.32    8.37
  -3   0  19   -2.13    7.22
   3   0 -20 1026.53   14.84
  -3   0  20 1003.61   14.57
   3   0 -21    3.43    7.85
  -3   0  21    3.43    8.25
   3   1  -1 3805.30   29.82
   3   1  -1 3931.15   29.89
   3   1  -2  238.18    6.92
   3   1  -2  239.29    7.77
   3   1  -3 2457.69   22.35
   3   1  -3 2421.75   22.91
  -3  -1   3 2216.10   21.05
   3   1  -4  108.43    6.46
   3   1  -4  110.95    5.57
  -3  -1   4  100.24    5.55
   3   1  -5  479.71    9.89
  -3  -1   5  452.54    9.27
  -3  -1   6   14.19    5.10
   3   1  -6   14.20    4.99
  -3  -1   7  492.28   10.16
   3   1  -7  504.77   10.11
  -3  -1   8   17.56    5.20
   3   1  -8   15.90    5.02
  -3  -1   9 1617.68   18.27
   3   1  -9 1639.71   18.31
  -3  -1  10  176.77    6.82
   3   1 -10  177.97    7.67
   3   1 -11 4515.71   37.94
  -3  -1  11 4459.15   36.98
   3   1 -12  931.58   13.29
  -3  -1  12  887.14   12.40
  -3   1  12  860.40   19.38
  -3   1  12  868.53   19.32
  -3   1  13  409.31   11.51
  -3   1  13  428.43   12.46
  -3  -1  13  419.34    8.75
   3   1 -13  448.13    9.46
   3   1 -14    2.95    4.80
   3  -1 -14    4.38    5.16
  -3   1  14    3.30    6.27
  -3   1  14    3.46    6.23
  -3  -1  14    5.19    4.94
  -3   1  15  734.66   13.87
  -3   1  15  770.87   14.17
   3  -1 -15  787.97   14.41
   3   1 -15  767.94   11.39
  -3  -1  15  754.88   11.47
  -3  -1  16  117.27    6.78
  -3   1  16  108.59    7.15
  -3   1  16  111.21    7.01
   3   1 -16  116.08    6.52
   3  -1 -16  114.94    7.04
   3   1 -17  134.41    6.69
  -3  -1  17  136.78    7.00
   3  -1 -17  142.22    7.23
  -3   1  17  135.76    7.41
  -3   1  17  133.42    8.38
   3   1 -18   14.85    8.40
  -3  -1  18   11.01    7.15
   3  -1 -18    9.29    7.17
  -3   1  18    9.29    8.88
  -3   1  18   10.32    7.01
  -3   1  19  802.12   13.35
   3  -1 -19  869.70   14.10
  -3   1  19  812.33   14.01
   3   1 -19  859.80   12.67
  -3  -1  19  826.70   12.40
  -3   1  20  149.08    8.03
  -3  -1  20  151.43    8.05
   3  -1 -20  156.76    8.07
   3   1 -20  157.47    7.85
  -3   1  20  153.30    8.40
  -3   1  21 1073.47   16.65
   3  -1 -21 1143.47   17.31
  -3   1  21 1045.61   17.34
  -3  -1  21 1100.31   15.02
   3   1 -21 1163.41   15.70
   3   2  -1 1848.09   15.65
   3   2  -1 1788.79   15.38
  -3  -2   1 1734.10   14.86
   3   2  -2  395.17    7.36
   3   2  -2  380.63    7.12
  -3  -2   2  384.71    7.26
  -3  -2   3  279.94    7.29
   3   2  -3  283.79    7.14
   3   2  -4 1450.89   13.79
  -3  -2   4 1348.51   13.70
   3   2  -5  371.99    7.68
  -3  -2   5  354.14    7.48
  -3  -2   6  166.75    6.28
   3   2  -6  178.18    6.21
  -3  -2   7  124.33    6.00
   3   2  -7  128.81    5.75
  -3  -2   8  878.37   11.20
   3   2  -8  912.21   11.25
  -3  -2   9   90.09    5.68
   3   2  -9   91.79    5.50
  -3  -2  10 1521.65   15.29
   3   2 -10 1570.36   15.56
   3   2 -11  733.85   10.16
  -3  -2  11  710.46   10.07
  -3   2  12  745.28   21.84
  -3  -2  12  771.87   10.60
   3   2 -12  809.85   10.65
  -3   2  12  789.70   22.44
  -3   2  13    1.91    7.06
   3   2 -13    1.29    3.38
  -3   2  13    0.98    7.23
  -3  -2  13    1.82    4.95
  -3  -2  14  498.03    9.21
   3   2 -14  512.24    9.02
  -3   2  14  489.21   13.47
  -3   2  14  506.32   13.90
  -3   2  15   42.70    7.89
   3   2 -15   43.44    5.99
  -3   2  15   40.11    7.83
  -3  -2  15   39.41    6.24
   3   2 -16  409.16    8.33
  -3   2  16  398.05   11.34
  -3   2  16  403.26   10.42
  -3  -2  16  391.24    8.58
  -3  -2  17  272.70    8.52
  -3   2  17  273.57    9.58
   3   2 -17  276.87    8.40
  -3   2  17  278.03   10.97
  -3   2  18  263.35   10.83
   3   2 -18  266.25    8.42
  -3  -2  18  258.01    8.48
  -3   2  18  257.94   10.92
  -3  -2  19  189.77    6.36
  -3   2  19  209.20   10.40
   3   2 -19  215.76    8.06
  -3   2  19  206.26   10.40
  -3   2  20  295.45   12.16
  -3   2  20  279.16   10.52
   3   2 -20  300.49    7.40
  -3  -2  20  295.07    9.52
  -3  -3   1  334.61    6.99
   3  -3  -1  327.67   10.92
  -3   3   1  327.87   11.18
   3   3  -1  332.83    5.92
   3   3  -2  968.05   10.30
  -3  -3   2  926.11   10.30
  -3   3   2  914.10   19.66
   3  -3  -2  910.14   19.55
  -3  -3   3  772.91    9.57
   3   3  -3  794.00    9.49
  -3  -3   4   18.73    5.11
   3   3  -4   14.68    4.87
  -3  -3   5 1527.11   13.72
   3   3  -5 1606.16   13.66
  -3  -3   6  153.76    6.02
   3   3  -6  157.70    5.82
   3   3  -7 1319.69   12.34
  -3  -3   7 1113.86   11.06
   3   3  -8    4.47    3.41
  -3  -3   8    7.38    4.93
  -3  -3   9   81.65    5.59
   3   3  -9   83.65    5.30
   3   3 -10  269.72    6.50
  -3  -3  10  252.98    6.55
  -3  -3  11  329.05    7.77
  -3   3  11  323.43   14.25
   3   3 -11  335.65    7.62
  -3   3  11  337.40   14.56
   3   3 -12  490.85    8.54
  -3   3  12  460.03   14.92
  -3   3  12  469.47   14.43
  -3  -3  12  466.22    8.63
  -3  -3  13  236.60    7.28
  -3   3  13  241.96   11.29
  -3   3  13  236.35   10.17
   3   3 -13  247.20    7.11
   3   3 -14    2.96    5.77
  -3   3  14    1.76    8.61
  -3   3  14    2.69    8.49
  -3  -3  14    0.09    6.00
  -3  -3  15  547.77    9.26
   3   3 -15  578.11    9.34
  -3   3  15  570.66   14.01
  -3   3  15  565.52   13.74
  -3  -3  16  262.31    8.32
   3   3 -16  270.79    8.23
  -3   3  16  264.97   11.06
  -3   3  16  258.73   10.97
  -3   3  17  486.36   13.34
  -3  -3  17  468.51    7.98
  -3   3  17  492.86   13.38
   3   3 -17  507.06    9.41
  -3   3  18    3.33    7.79
  -3  -3  18    4.04    7.70
  -3   3  18    4.04    9.69
   3   3 -18    0.68    7.46
  -3  -3  19  210.17    7.10
  -3   3  19  220.25   10.34
  -3   3  19  211.91   10.04
   3  -4  -1  598.62   12.13
   3   4  -1  608.59    7.50
  -3  -4   1  577.51    8.72
  -3   4   1  590.40   12.31
   3   4  -2  103.55    6.33
  -3   4   2   99.03    8.19
  -3  -4   2   95.82    4.86
   3  -4  -2   98.12    8.20
  -3  -4   3   54.20    6.33
   3   4  -3   58.44    6.04
   3  -4  -3   53.78    7.93
  -3   4   3   53.35    8.01
  -3   4   4 1512.43   22.03
  -3   4   4 1567.19   21.36
   3  -4  -4 1497.42   20.90
  -3  -4   4 1565.03   13.45
   3   4  -4 1582.35   13.15
   3   4  -5   26.59    5.95
  -3  -4   5   22.18    6.18
   3  -4  -5   23.93    8.73
  -3   4   5   24.45    8.81
  -3   4   5   26.30    8.60
   3   4  -6 1438.83   12.44
  -3   4   6 1409.89   22.00
  -3   4   6 1390.86   22.90
  -3  -4   6 1401.98   12.89
  -3  -4   7  212.88    7.15
  -3   4   7  218.75    9.88
  -3   4   7  214.73   10.14
   3   4  -7  235.17    6.96
  -3   4   8 1701.82   25.21
  -3   4   8 1650.06   26.20
  -3  -4   8 1646.26   14.26
   3   4  -8 1672.77   13.04
   3   4  -9   -2.59    5.92
  -3  -4   9   -3.52    6.05
  -3   4   9    0.47    7.30
  -3   4   9    0.93    8.50
  -3  -4  10   85.71    4.80
   3   4 -10  100.49    6.29
  -3   4  10   94.36    9.42
  -3   4  10   83.15    8.30
   3   4 -11  722.80    9.44
  -3   4  11  707.92   14.82
  -3  -4  11  698.88    9.62
  -3   4  11  705.09   15.54
  -3  -4  12   25.89    5.09
   3   4 -12   30.36    6.95
  -3   4  12   29.05    8.77
  -3   4  12   28.62    8.74
  -3   4  13  194.38   10.34
  -3  -4  13  187.31    7.95
  -3   4  13  182.06    8.90
   3   4 -13  195.67    7.68
   3   4 -14  666.23   10.02
  -3   4  14  636.59   13.61
  -3  -4  14  645.48   10.09
  -3   4  14  615.65   13.87
  -3   4  15    6.28    8.81
   3   4 -15   10.35    6.90
  -3   4  15    1.30    8.81
  -3  -4  15    0.22    7.21
  -3  -4  16 1308.73   13.39
  -3   4  16 1413.65   24.63
  -3   4  16 1370.16   24.35
   3   4 -16 1424.97   14.73
  -3   5   1  163.92    8.22
   3   5  -1  145.79    5.68
  -3  -5   1  146.99    5.70
   3  -5  -1  159.87    8.07
   3   5  -2   33.01    6.42
   3  -5  -2   29.11    8.34
  -3   5   2   32.39    6.76
  -3  -5   2   24.36    4.50
   3  -5  -3   62.99    8.58
  -3   5   3   58.26    7.13
  -3  -5   3   63.78    6.75
   3   5  -3   60.61    7.06
  -3   5   4   43.68    8.94
  -3  -5   4   41.21    6.78
   3  -5  -4   45.78    8.93
   3   5  -4   42.63    7.11
  -3   5   5  967.90   16.71
  -3   5   5  962.35   15.13
  -3  -5   5  910.06    9.64
   3  -5  -5  961.91   16.16
   3   5  -5  997.62   10.86
   3  -5  -6   23.28    8.88
  -3  -5   6   22.63    7.18
  -3   5   6   24.34    8.79
  -3   5   6   22.23    8.86
   3   5  -6   24.58    6.95
  -3  -5   7  689.89    8.59
  -3   5   7  717.78   15.73
  -3   5   7  729.94   14.76
   3  -5  -7  683.09   13.39
   3   5  -7  723.12    9.85
  -3  -5   8  390.83    8.64
  -3   5   8  406.09   11.89
   3   5  -8  402.37    6.93
  -3   5   8  383.44   12.32
  -3  -5   9  295.20    8.32
   3   5  -9  328.08    8.18
  -3   5   9  318.29   11.18
  -3   5   9  289.43   10.00
   3   5 -10    7.25    6.82
  -3   5  10    6.22    8.49
  -3   5  10    4.99    7.04
  -3  -5  10    6.41    4.90
  -3   5  11   30.20    8.84
   3   5 -11   31.48    6.97
  -3  -5  11   31.46    7.13
  -3   5  11   26.84    7.29
  -3  -5  12   11.73    7.92
  -3   5  12    5.95    9.79
  -3   5  12    6.42    8.02
   3   5 -12    5.10    7.89
   3   5 -13  179.68    8.62
  -3   5  13  164.96   11.13
  -3  -5  13  160.80    8.71
  -3   5  13  168.71    9.46
  -3  -6   1   -6.01    5.86
   3  -6  -1    1.69    8.13
  -3   6   1   -2.19   10.00
   3   6  -1    6.52    7.99
   3  -6  -2   82.16    8.69
  -3  -6   2   81.07    8.45
  -3   6   2   83.54    8.64
   3   6  -2   81.75    6.04
   3  -6  -3   85.47    8.69
  -3   6   3   88.40    8.85
   3   6  -3   89.34    8.35
  -3  -6   3   81.31    6.13
   3  -6  -4  617.41   14.05
  -3  -6   4  605.48   10.58
  -3   6   4  625.24   13.87
   3   6  -4  651.00   10.43
   3   6  -5  486.00    7.95
  -3  -6   5  469.04   10.04
  -3   6   5  464.35   11.56
   3  -6  -5  466.70   11.54
  -3   6   5  460.18   13.81
   2   0  -1    1.78    4.15
   2   0  -1   14.07    4.53
   2   0  -2 1428.12   21.44
   2   0  -2 1380.08   21.76
   2   0  -3    4.96    5.01
   2   0  -3    1.54    5.39
  -2   0   3    4.19    4.93
  -2   0   4 4101.10   43.41
   2   0  -5   31.21    5.77
  -2   0   5    2.26    4.93
  -2   0   7   22.79    4.70
   2   0  -7  133.74    6.66
   2   0  -9    0.26    3.38
  -2   0   9    1.20    3.25
   2   0 -10 5277.32   35.14
  -2   0  10 5101.45   34.10
   2   0 -11   16.08    4.29
  -2   0  11   12.97    4.28
   2   0 -12  712.16    9.50
  -2   0  12  690.84    9.41
  -2   0  13   42.27    4.46
   2   0 -13   45.56    4.32
   2   0 -14  719.00    8.58
  -2   0  14  730.59    9.15
   2   0 -15   65.31    4.48
  -2   0  15   64.43    4.62
  -2   0  16 3367.38   22.63
   2   0 -16 3395.66   23.05
  -2   0  17   57.28    5.47
   2   0 -17   57.92    3.94
  -2   0  18 2261.94   17.23
   2   0 -18 2370.54   17.82
  -2   0  19   -2.73    6.08
   2   0 -19    3.99    5.67
  -2   0  20  885.86   10.49
   2   0 -20  906.09   10.47
  -2   0  21    3.10    6.03
   2   0 -21    3.94    4.14
  -2   0  22   68.99    5.30
   2   0 -22   66.48    7.03
   2   0 -23    8.06    7.01
  -2   0  23    9.55    7.17
  -2   0  24   56.78    6.01
   2   0 -24   43.72    8.17
   2  -1  -1 1008.02   22.51
  -2  -1   1  979.82   11.73
   2  -1  -1 1045.06   22.91
  -2   1   1 1021.08   23.03
   2   1  -1 1044.97   12.26
   2   1  -1 1061.31   12.13
  -2  -1   2   99.67    4.88
   2   1  -2  102.52    4.81
  -2  -1   3  274.19    6.92
   2   1  -3  326.57    7.58
  -2  -1   4  316.69    7.25
   2   1  -4  333.04    7.30
  -2  -1   5 1020.06   12.59
   2   1  -5 1066.97   12.50
  -2  -1   6  288.93    6.87
   2   1  -6  333.79    7.11
   2   1  -7 5022.86   31.86
  -2  -1   7 4641.82   29.98
  -2   1   7 4935.19   44.48
  -2   1   8   30.90    4.88
   2  -1  -8   27.17    4.75
   2   1  -8   32.12    3.66
  -2  -1   8   35.85    3.74
  -2   1   8   28.34    4.75
  -2  -1   9 2116.74   17.15
  -2   1   9 2184.65   21.54
   2  -1  -9 2257.12   22.16
   2   1  -9 2217.90   17.48
  -2   1   9 2125.52   20.98
  -2   1  10   10.63    5.05
  -2  -1  10    9.55    4.10
  -2   1  10   11.47    5.04
   2  -1 -10   11.37    5.09
   2   1 -10    6.46    4.01
  -2  -1  11  266.88    6.24
   2  -1 -11  287.16    7.03
   2   1 -11  281.11    6.23
  -2   1  11  272.98    6.88
  -2   1  11  276.64    6.96
   2   1 -12   66.27    4.42
   2  -1 -12   62.63    4.73
  -2   1  12   63.10    4.74
  -2   1  12   68.88    4.71
  -2  -1  12   63.46    4.51
   2  -1 -13   16.31    4.06
   2   1 -13   15.54    3.97
  -2  -1  13   19.58    4.10
  -2   1  13   17.02    4.14
   2  -1 -14  236.15    6.15
   2   1 -14  234.57    5.67
  -2  -1  14  234.58    5.80
  -2   1  14  232.12    6.16
  -2   1  15 2988.51   21.85
  -2  -1  15 3018.99   20.17
   2   1 -15 3064.07   20.08
   2  -1 -15 3082.41   21.63
   2   1 -16  398.39    7.02
  -2   1  16  386.66    7.64
   2  -1 -16  391.01    7.54
  -2  -1  16  377.49    6.25
  -2   1  17  958.82   10.74
   2   1 -17  980.32   10.08
  -2  -1  17  942.01    9.40
   2  -1 -17  983.74   10.67
  -2   1  18  479.97    7.92
  -2  -1  18  479.57    7.69
   2   1 -18  500.20    7.52
   2  -1 -18  464.64    6.93
  -2  -1  19 1201.34   10.92
  -2   1  19 1205.30   11.57
   2   1 -19 1274.39   11.85
   2  -1 -19 1295.97   12.63
   2   1 -20   14.81    5.79
  -2   1  20   18.05    6.01
  -2  -1  20   14.14    6.05
   2  -1 -20   15.37    5.92
   2  -1 -21   87.91    6.30
  -2  -1  21   83.24    6.39
  -2   1  21   89.92    6.38
  -2   1  21   88.17    6.45
   2   1 -21   96.53    6.61
  -2  -1  22   85.72    7.38
   2  -1 -22  100.39    7.26
  -2   1  22   86.84    7.44
   2   1 -22   99.76    7.17
  -2   1  22   94.24    8.69
  -2   1  23   39.27    7.14
   2  -1 -23   52.98    7.08
   2   1 -23   40.11    5.21
  -2   1  23   45.49    7.24
  -2  -1  23   48.54    7.30
  -2  -2   1   57.25    3.96
  -2   2   1   70.06    5.44
   2   2  -1   55.91    3.88
   2  -2  -1   58.06    5.15
  -2  -2   2 1244.25   11.42
   2   2  -2 1371.22   11.90
  -2   2   2 1375.40   18.92
   2  -2  -2 1342.45   18.53
  -2  -2   3 1117.34   10.80
  -2   2   3 1199.83   19.14
   2  -2  -3 1202.11   19.09
   2   2  -3 1220.81   11.09
   2  -2  -4 3306.38   33.91
  -2  -2   4 3134.70   20.91
  -2   2   4 3507.18   35.30
  -2   2   4 3277.21   34.09
   2   2  -4 3358.47   20.63
   2   2  -5  388.64    6.66
  -2  -2   5  374.48    6.71
  -2   2   5  354.50   10.85
  -2   2   5  341.43   10.15
  -2  -2   6  866.80    9.96
   2   2  -6  898.41    9.96
  -2   2   6  867.12   15.15
  -2   2   6  906.26   15.54
  -2   2   7 2679.04   26.60
   2   2  -7 2741.32   18.39
  -2  -2   7 2659.19   18.61
  -2   2   7 2669.57   25.90
   2   2  -8 3364.47   20.83
  -2   2   8 3369.85   28.41
  -2  -2   8 3299.19   20.80
  -2   2   8 3427.96   28.70
  -2   2   9  452.42    9.62
  -2   2   9  437.93    8.98
   2   2  -9  457.08    7.19
  -2  -2   9  444.46    7.18
   2   2 -10 1230.82   11.07
  -2   2  10 1187.89   13.83
  -2  -2  10 1185.65   10.98
  -2   2  10 1188.25   13.85
  -2   2  11   89.28    5.22
  -2   2  11  104.01    5.22
   2   2 -11  105.02    4.71
  -2  -2  11  102.26    4.81
   2   2 -12  530.61    7.26
  -2   2  12  519.81    8.53
  -2  -2  12  521.67    7.35
  -2   2  12  527.66    8.65
   2   2 -13  513.60    7.18
  -2   2  13  491.65    8.20
  -2   2  13  474.20    8.16
  -2  -2  13  481.03    7.21
   2   2 -14 2000.81   14.53
  -2   2  14 1955.22   17.07
  -2   2  14 1945.32   16.73
  -2  -2  14 1919.97   13.96
  -2   2  15  390.28    7.74
  -2   2  15  393.99    7.66
   2  -2 -15  404.34    7.88
  -2  -2  15  382.80    7.00
   2   2 -15  398.25    6.95
   2  -2 -16 1480.09   13.99
   2   2 -16 1463.30   12.03
  -2   2  16 1385.75   12.88
  -2  -2  16 1397.37   11.98
  -2   2  16 1402.11   13.59
  -2   2  17  366.45    7.45
  -2  -2  17  356.76    6.86
  -2   2  17  363.02    7.27
   2  -2 -17  360.39    6.50
   2   2 -17  382.03    6.77
  -2   2  18 1342.85   13.53
  -2   2  18 1347.28   13.50
   2   2 -18 1372.88   12.14
   2  -2 -18 1395.40   13.74
  -2  -2  18 1338.28   12.02
  -2  -2  19  221.13    6.96
   2  -2 -19  229.18    7.18
  -2   2  19  218.70    7.22
  -2   2  19  218.77    7.13
   2   2 -19  227.58    6.83
  -2  -2  20  865.20    9.07
  -2   2  20  893.31   10.97
  -2   2  20  891.65   10.95
   2  -2 -20  921.25   11.12
   2   2 -20  926.98    9.98
   2  -2 -21  357.01    8.67
  -2  -2  21  331.48    8.47
  -2   2  21  341.39    8.70
   2   2 -21  344.84    8.23
  -2   2  21  330.22    8.67
   2  -2 -22  547.91    9.71
  -2   2  22  516.98    9.63
   2   2 -22  539.85    9.06
  -2  -2  22  495.12    9.29
  -2   2  22  506.66    9.56
  -2   2  23   29.80    8.23
   2   2 -23   39.25    8.00
   2  -2 -23   38.28    8.23
  -2  -2  23   32.15    5.98
  -2   2  23   33.92    8.15
  -2  -3   1 2413.45   15.30
  -2   3   1 2674.58   21.59
   2   3  -1 2701.71   16.66
   2  -3  -1 2611.32   20.85
  -2   3   2  468.99    8.71
  -2  -3   2  472.71    7.16
   2  -3  -2  437.83    8.44
   2   3  -2  451.14    6.19
   2  -3  -3 4561.55   30.64
  -2  -3   3 4331.83   23.92
   2   3  -3 4618.97   22.44
  -2   3   3 4662.92   32.44
  -2   3   4   25.32    5.30
  -2  -3   4   32.03    4.26
   2   3  -4   22.23    3.11
   2  -3  -4   25.49    5.23
  -2   3   5 1747.97   17.09
  -2   3   5 1744.84   17.36
   2   3  -5 1752.95   12.06
   2  -3  -5 1706.39   17.26
  -2  -3   5 1660.99   12.61
  -2   3   6 1300.68   14.41
  -2   3   6 1349.29   15.44
   2  -3  -6 1306.40   14.82
  -2  -3   6 1292.19   10.77
   2   3  -6 1361.10   11.01
  -2  -3   7 1290.05   11.21
  -2   3   7 1315.24   14.79
   2   3  -7 1360.50   11.00
  -2   3   7 1319.64   14.44
  -2   3   8 1086.74   13.02
  -2  -3   8 1081.19   10.03
  -2   3   8 1069.44   12.70
   2   3  -8 1119.70    9.97
   2   3  -9 1023.79    9.49
  -2   3   9  991.74   12.08
  -2   3   9  988.69   12.33
  -2  -3   9  952.42    8.88
  -2  -3  10  207.35    4.58
   2   3 -10  235.14    5.50
  -2   3  10  225.39    6.37
  -2   3  10  220.36    6.24
  -2   3  11 3559.06   25.56
   2   3 -11 3622.95   20.32
  -2   3  11 3580.49   26.23
  -2  -3  11 3374.16   19.46
  -2  -3  12   91.40    5.36
  -2   3  12   90.45    5.63
   2   3 -12   95.56    5.21
  -2   3  12   72.13    5.44
  -2   3  13 1310.48   13.55
   2   3 -13 1347.53   10.53
  -2   3  13 1326.70   13.71
  -2  -3  13 1326.39   11.21
   2   3 -14   32.55    4.82
  -2   3  14   30.47    5.19
  -2   3  14   32.14    5.01
  -2  -3  14   29.27    4.98
  -2   3  15  710.88    9.97
   2   3 -15  739.93    8.33
  -2   3  15  696.73    9.56
  -2  -3  15  688.49    8.37
   2   3 -16  260.86    6.78
  -2   3  16  245.83    7.34
  -2   3  16  257.55    7.55
  -2  -3  16  245.89    5.51
  -2   3  17  271.75    7.65
  -2   3  17  270.55    7.40
   2   3 -17  271.87    6.95
  -2  -3  17  263.72    6.99
  -2   3  18  682.67   10.02
  -2   3  18  695.24   10.31
  -2  -3  18  668.22    8.99
   2   3 -18  696.77    7.79
   2   3 -19  461.24    8.50
  -2   3  19  443.68    9.24
  -2  -3  19  428.93    8.66
  -2   3  19  452.93    9.41
  -2   3  20    5.63    6.98
  -2  -3  20    1.33    7.14
   2   3 -20   11.67    6.78
  -2   3  20   -0.22    7.14
  -2   3  21  766.38    9.98
  -2   3  21  780.78   10.10
   2   3 -21  822.72   10.26
  -2  -3  21  768.24    8.93
   2   3 -22  339.52    7.21
  -2   3  22  348.96    9.71
  -2  -3  22  336.45    9.34
  -2   3  22  335.16    9.78
   2   4  -1  372.93    5.45
  -2   4   1  385.97    7.17
  -2  -4   1  355.03    5.40
   2  -4  -1  357.23    6.97
  -2   4   2 1950.52   16.36
  -2  -4   2 1881.85   13.14
   2  -4  -2 1904.47   15.89
   2   4  -2 1954.04   13.03
  -2   4   3  133.32    5.38
   2   4  -3  134.57    4.80
   2  -4  -3  124.19    5.18
  -2  -4   3  128.65    4.84
   2   4  -4 2276.68   13.73
   2  -4  -4 2135.41   17.31
  -2  -4   4 2066.87   13.60
  -2   4   4 2211.07   18.12
   2   4  -5  132.09    4.73
  -2   4   5  131.98    5.26
  -2  -4   5  134.63    4.79
   2  -4  -5  121.53    5.20
   2   4  -6  126.56    5.01
   2  -4  -6  115.57    5.37
  -2   4   6  128.08    5.11
  -2   4   6  129.17    5.54
  -2  -4   6  126.96    4.66
  -2  -4   7  444.66    7.04
  -2   4   7  467.80    8.40
  -2   4   7  437.26    8.01
   2  -4  -7  435.22    8.06
   2   4  -7  470.16    6.83
  -2  -4   8  435.88    7.00
  -2   4   8  437.43    7.97
  -2   4   8  441.49    8.16
   2   4  -8  448.85    6.85
   2  -4  -8  428.86    7.96
   2   4  -9   62.64    4.94
  -2   4   9   61.38    5.31
  -2  -4   9   61.40    5.05
  -2   4   9   58.49    5.19
   2   4 -10  350.08    5.58
  -2   4  10  355.20    7.49
  -2   4  10  357.59    7.41
  -2  -4  10  346.20    5.52
  -2   4  11  282.01    6.83
   2   4 -11  287.89    6.19
  -2  -4  11  273.97    6.24
  -2   4  11  270.36    7.00
   2   4 -12 1981.87   13.50
  -2   4  12 1954.27   17.06
  -2   4  12 1875.63   16.77
  -2  -4  12 1880.64   13.43
  -2   4  13   97.06    6.23
  -2  -4  13  100.72    5.87
  -2   4  13   91.95    5.91
   2   4 -13   98.16    4.64
  -2  -4  14 1072.00   10.39
  -2   4  14 1097.02   12.54
   2   4 -14 1104.45    9.47
  -2   4  14 1058.51   12.31
  -2   4  15  112.09    6.70
  -2  -4  15  103.20    6.34
  -2   4  15  108.99    6.44
   2   4 -15  109.78    6.26
  -2  -4  16   38.36    6.08
   2   4 -16   42.23    4.29
  -2   4  16   42.11    6.08
  -2   4  16   47.48    6.20
  -2   4  17  435.94    9.18
  -2  -4  17  410.70    6.94
   2   4 -17  442.48    7.01
  -2   4  17  442.48    9.50
  -2   4  18    4.99    4.99
   2   4 -18   -0.19    6.79
  -2   4  18    8.66    6.82
  -2  -4  18    6.71    6.97
  -2   4  19  264.59    8.30
  -2   4  19  262.85    8.72
   2   4 -19  269.69    7.90
  -2  -4  19  244.65    8.26
  -2  -4  20  121.18    6.36
   2   4 -20  121.83    6.22
  -2   4  20  115.67    8.78
  -2   4  20  127.14    6.40
  -2   5   1 1640.78   13.88
   2  -5  -1 1631.27   14.35
   2   5  -1 1708.40   12.11
  -2  -5   1 1608.96   11.87
  -2   5   2   52.62    5.42
   2  -5  -2   53.86    5.31
   2   5  -2   56.51    5.24
  -2  -5   2   53.03    5.29
  -2   5   3 4244.00   28.26
   2  -5  -3 4119.77   26.65
   2   5  -3 4256.41   21.56
  -2  -5   3 4084.80   21.77
   2  -5  -4  305.17    7.04
   2   5  -4  324.53    6.40
  -2   5   4  327.62    7.18
  -2  -5   4  319.08    6.43
  -2   5   5  591.41    8.77
   2  -5  -5  569.15    8.60
   2   5  -5  614.60    7.48
  -2  -5   5  568.31    7.49
   2   5  -6  194.07    4.53
  -2  -5   6  182.02    4.54
  -2   5   6  192.44    5.21
   2  -5  -6  178.59    6.12
   2  -5  -7   24.94    4.96
  -2   5   7   26.28    5.04
   2   5  -7   20.09    4.89
  -2   5   7   23.07    4.99
  -2  -5   7   24.79    4.85
   2   5  -8  238.47    6.67
  -2  -5   8  215.90    5.22
  -2   5   8  226.44    6.65
  -2   5   8  238.16    7.31
   2  -5  -8  204.61    7.07
  -2   5   9  383.46    8.29
  -2  -5   9  375.26    7.39
   2  -5  -9  376.00    8.01
  -2   5   9  391.98    8.06
   2   5  -9  408.41    7.30
   2   5 -10   39.43    4.40
  -2   5  10   50.50    6.05
   2  -5 -10   63.42    6.11
  -2  -5  10   60.11    6.18
  -2   5  10   58.00    6.28
   2   5 -11 1447.27   11.30
  -2  -5  11 1292.85   10.38
  -2   5  11 1406.80   14.46
  -2   5  11 1361.72   13.89
  -2   5  12  323.84    7.81
   2   5 -12  343.22    7.40
  -2   5  12  334.28    8.04
  -2  -5  12  306.40    5.92
   2   5 -13 2426.99   14.44
  -2  -5  13 2301.33   15.68
  -2   5  13 2415.70   21.00
  -2   5  13 2374.38   20.14
  -2   5  14  257.17    8.28
  -2   5  14  262.85    8.50
   2   5 -14  263.44    6.17
  -2  -5  14  241.46    7.97
   2   5 -15  438.22    6.98
  -2   5  15  456.36    9.46
  -2  -5  15  414.27    6.93
  -2   5  15  423.94    9.24
  -2   5  16   65.56    5.28
  -2  -5  16   70.65    7.20
  -2   5  16   68.13    7.48
   2   5 -16   69.81    7.17
   2   5 -17   71.25    8.08
  -2   5  17   66.63    8.45
  -2   5  17   72.37    8.14
  -2  -5  17   61.78    8.31
  -2  -6   1  178.78    5.16
   2  -6  -1  178.40    6.84
  -2   6   1  195.23    5.55
   2   6  -1  202.68    6.69
   2  -6  -2  845.48    9.56
  -2   6   2  919.93   10.95
  -2  -6   2  860.30    9.51
   2   6  -2  895.75    8.58
  -2  -6   3  989.79    9.92
   2  -6  -3  990.01   11.32
  -2   6   3 1034.39   11.74
   2   6  -3 1058.60   10.24
   2  -6  -4  746.93    9.95
   2   6  -4  798.39    9.08
  -2  -6   4  703.61    7.75
  -2   6   4  770.46   10.29
   2  -6  -5  156.45    6.80
  -2   6   5  161.35    6.85
  -2  -6   5  163.67    6.53
   2   6  -5  169.70    6.58
  -2   6   6   63.59    6.25
   2  -6  -6   59.66    6.20
  -2  -6   6   46.18    6.20
   2   6  -6   66.88    6.54
   2  -6  -7    3.55    6.83
  -2   6   7   -1.29    6.78
  -2   6   7   -0.51    6.91
   2   6  -7    1.14    4.82
  -2  -6   7    1.82    4.80
  -2  -6   8   25.00    4.88
  -2   6   8   24.07    6.97
   2   6  -8   19.38    4.93
  -2   6   8   23.48    4.93
   2  -6  -8   18.88    7.01
  -2   6   9   14.26    6.98
   2  -6  -9   11.52    6.99
  -2   6   9   19.44    6.94
   2   6  -9   12.71    4.97
  -2  -6   9   16.40    4.88
   2   6 -10  263.17    7.79
  -2  -6  10  231.30    6.07
   2  -6 -10  238.73    8.10
  -2   6  10  256.59    8.36
  -2   6  10  257.38    8.09
  -2  -6  11  655.14    8.08
   2  -6 -11  686.07   10.55
   2   6 -11  728.30    9.44
  -2   6  11  708.76   10.99
  -2   6  11  693.51   10.69
   2   6 -12 1255.52   11.92
  -2  -6  12 1180.73   11.96
  -2   6  12 1247.23   14.84
  -2   6  12 1211.80   13.99
   2   6 -13  467.26    7.45
  -2  -6  13  420.98    9.67
  -2   6  13  446.91   10.38
  -2   6  13  443.82   10.13
  -2   7   1  515.88   10.36
  -2  -7   1  470.77    9.76
   2  -7  -1  471.56   10.22
   2   7  -1  493.58    7.82
  -2  -7   2  580.88    9.95
  -2   7   2  587.44   10.75
   2  -7  -2  563.37   10.65
   2   7  -2  597.09   10.04
  -2  -7   3  178.26    8.80
   2   7  -3  192.23    6.55
  -2   7   3  187.13    6.81
   2  -7  -3  183.32    8.92
   2  -7  -4  619.49   11.02
   2   7  -4  630.30   10.33
  -2  -7   4  568.45    8.24
  -2   7   4  650.88   11.18
  -2  -7   5  453.64    7.83
  -2   7   5  474.51    8.55
  -1   0   1    2.33    4.59
   1   0  -1    2.69    4.55
   1   0  -1    1.86    4.55
   1   0  -3    4.47    3.65
  -1   0   3    4.31    4.46
   1   0  -4 4349.11   37.56
   1   0  -5    3.56    3.98
  -1   0   5    3.27    4.09
  -1   0   6  667.33   10.67
   1   0  -6  685.96   10.75
  -1   0   7   -3.81    3.79
   1   0  -7    0.33    3.50
   1   0  -8   41.07    3.92
  -1   0   8   32.88    3.99
  -1   0   9   52.92    4.03
   1   0 -10 1171.22   11.14
  -1   0  10 1157.24   11.37
  -1   0  11   -2.44    3.36
   1   0 -11   -4.22    3.27
  -1   0  12 3443.20   21.58
   1   0 -12 3585.31   22.08
  -1   0  13   -1.32    4.31
   1   0 -13    0.09    3.83
  -1   0  14 5840.32   31.07
   1   0 -14 5946.96   31.41
   1   0 -15  -14.60    4.39
  -1   0  15  -10.22    4.67
   1   0 -16 1463.44   11.54
  -1   0  16 1456.29   11.72
  -1   0  17   -6.20    4.17
   1   0 -17   -2.86    2.80
  -1   0  18  231.20    4.94
   1   0 -18  222.53    4.76
   1   0 -19    0.12    4.69
  -1   0  19   -2.60    4.87
   1   0 -20  275.12    6.07
  -1   0  20  263.34    6.09
  -1   0  21   -1.65    5.78
   1   0 -21    2.12    3.93
   1   0 -22 1064.74    9.59
  -1   0  22  955.78    9.02
  -1   0  23    3.53    4.92
   1   0 -23   -6.80    6.84
  -1   0  24 1277.96   11.27
   1   0 -24 1336.56   12.36
  -1   0  25    2.00    8.18
   1   0 -25   -3.26    7.91
  -1  -1   2 1333.10   15.59
   1  -1  -2 1375.38   23.59
  -1   1   2 1353.92   23.37
   1   1  -2 1342.39   14.96
   1   1  -4 3403.48   24.41
  -1   1   4 3460.65   31.62
  -1  -1   4 3335.05   24.38
  -1   1   4 3426.24   31.87
  -1  -1   6  614.49    8.93
  -1   1   6  615.48   10.44
   1   1  -6  628.74    9.05
   1  -1  -6  638.92   10.55
  -1   1   6  608.89   10.44
  -1  -1   8  699.91    8.76
   1  -1  -8  688.87   10.03
  -1   1   8  695.29   10.21
   1   1  -8  730.48    8.88
  -1  -1   9  768.72    8.83
   1  -1  -9  789.92    9.58
  -1   1   9  767.21    9.41
   1   1  -9  798.36    8.92
   1   1 -10  185.95    4.84
  -1   1  10  202.25    5.40
  -1  -1  10  173.83    4.31
   1  -1 -10  170.69    5.55
  -1   1  11 3584.60   23.13
  -1  -1  11 3529.70   20.30
   1   1 -11 3663.01   20.86
   1  -1 -11 3687.78   21.94
  -1  -1  12    1.16    2.29
   1   1 -12   -1.67    3.10
  -1   1  12   -0.75    2.63
   1  -1 -12   -5.21    2.76
   1  -1 -13 6916.44   33.81
  -1   1  13 6655.87   35.31
   1   1 -13 6749.77   31.75
  -1  -1  13 6593.92   31.67
   1  -1 -14    2.66    4.48
  -1  -1  14    3.70    4.42
   1   1 -14    6.18    2.76
  -1   1  14    1.71    3.16
   1  -1 -15 5564.39   27.94
  -1   1  15 5584.27   29.87
  -1  -1  15 5574.14   28.11
   1   1 -15 5768.53   27.84
  -1  -1  16   20.38    4.56
   1  -1 -16   19.64    4.61
   1   1 -16   19.25    4.41
  -1   1  16   17.79    3.66
  -1  -1  17  111.69    5.34
  -1   1  17  116.15    5.47
   1   1 -17  112.88    5.31
   1  -1 -17  113.31    5.29
   1  -1 -18  276.45    5.30
  -1  -1  18  261.45    6.42
   1   1 -18  310.68    6.35
  -1   1  18  258.64    6.53
  -1  -1  19 1351.87   11.05
  -1   1  19 1357.60   10.89
   1  -1 -19 1389.99   11.21
   1   1 -19 1410.79   10.33
  -1  -1  20   53.29    3.85
  -1   1  20   52.95    5.79
   1  -1 -20   57.86    5.71
   1   1 -20   52.97    4.37
   1   1 -21 1117.80   10.17
  -1   1  21 1055.54   10.47
  -1  -1  21 1065.35   10.32
   1  -1 -21 1069.79    9.50
  -1   1  22  159.24    5.20
  -1  -1  22  156.91    6.64
   1   1 -22  171.60    6.42
   1  -1 -22  169.45    6.55
  -1  -1  23 2301.61   15.45
   1  -1 -23 2473.24   17.00
  -1   1  23 2362.90   17.04
   1   1 -23 2384.72   16.14
  -1   1  24  258.33    8.35
  -1   1  24  260.86    8.16
   1   1 -24  271.84    8.05
  -1  -1  24  262.41    8.17
   1  -1 -24  268.24    8.11
   1   1 -25 1458.05   11.90
  -1   1  25 1456.34   13.74
   1  -1 -25 1452.92   12.24
  -1  -2   1  371.26    6.40
   1  -2  -1  377.90    7.95
   1   2  -1  381.60    6.84
  -1   2   1  389.43    8.01
   1   2  -2 5306.92   28.67
   1  -2  -2 5254.13   31.56
  -1  -2   2 5111.98   29.66
   1   2  -3 1054.53   10.63
  -1  -2   3 1038.42   10.72
   1  -2  -3 1059.95   12.92
  -1   2   3 1076.58   13.23
  -1   2   5 2849.67   20.84
  -1   2   5 2904.72   21.72
   1   2  -5 2845.88   18.02
  -1  -2   5 2755.06   17.53
   1  -2  -5 2861.35   21.13
   1  -2  -6 2642.30   19.35
  -1   2   6 2705.27   19.98
   1   2  -6 2751.78   17.20
  -1  -2   6 2557.49   16.56
  -1   2   6 2688.12   19.69
   1   2  -7  417.38    6.04
  -1   2   7  411.65    7.41
  -1  -2   7  400.00    6.45
  -1   2   7  398.21    7.16
  -1   2   8 4436.80   26.14
   1   2  -8 4495.01   22.78
  -1   2   8 4301.30   25.83
  -1  -2   8 4213.21   22.52
  -1   2   9  845.66    9.33
  -1   2   9  834.74    9.42
  -1  -2   9  816.53    8.18
   1   2  -9  882.05    8.35
   1   2 -10  838.70    8.22
  -1  -2  10  772.11    8.13
  -1   2  10  812.94    8.81
  -1   2  10  801.99    8.96
   1  -2 -10  831.53    8.86
   1   2 -11  175.23    4.17
  -1   2  11  165.12    5.52
  -1   2  11  173.42    4.51
  -1  -2  11  167.07    4.23
   1  -2 -11  166.67    5.48
  -1   2  12 1742.33   13.36
   1  -2 -12 1817.30   13.64
  -1  -2  12 1706.94   11.78
  -1   2  12 1763.61   13.45
   1   2 -12 1775.00   12.17
  -1  -2  13 1411.99   10.81
   1   2 -13 1437.54   10.41
  -1   2  13 1381.88   11.20
  -1   2  13 1409.42   11.78
   1  -2 -13 1465.97   11.99
   1  -2 -14 2452.84   15.93
   1   2 -14 2411.10   14.19
  -1   2  14 2336.36   15.55
  -1   2  14 2355.33   15.70
  -1  -2  14 2294.38   13.83
   1  -2 -15 1396.01   11.30
   1   2 -15 1360.87   10.35
  -1   2  15 1335.27   11.11
  -1   2  15 1316.55   10.66
  -1  -2  15 1281.93    9.83
  -1  -2  16  255.58    6.08
  -1   2  16  249.65    5.18
   1   2 -16  260.35    5.95
  -1   2  16  246.81    5.07
   1  -2 -16  268.86    5.30
  -1  -2  17  278.55    5.22
  -1   2  17  288.22    6.48
  -1   2  17  285.39    6.44
   1   2 -17  302.92    5.12
   1  -2 -17  283.44    6.44
   1  -2 -18  941.44    9.33
  -1   2  18  883.43    9.20
  -1   2  18  886.63    8.40
   1   2 -18  908.15    8.08
  -1  -2  18  886.10    8.88
  -1   2  19   64.21    3.95
   1   2 -19   71.58    5.27
  -1  -2  19   59.49    4.00
  -1   2  19   66.02    3.89
   1  -2 -19   62.16    5.32
   1   2 -20  647.78    8.36
  -1  -2  20  610.41    7.33
  -1   2  20  630.94    8.64
   1  -2 -20  669.60    8.66
  -1   2  20  644.28    8.66
  -1   2  21   16.75    5.94
  -1  -2  21   12.28    4.19
  -1   2  21   16.41    5.90
   1   2 -21   15.36    5.73
   1  -2 -21   13.57    5.98
  -1  -2  22  878.27    9.03
  -1   2  22  895.95   10.40
   1   2 -22  916.87   10.16
  -1   2  22  875.50   10.44
   1  -2 -22  874.49    9.00
  -1   2  23  780.04    8.66
  -1   2  23  762.91    8.68
   1   2 -23  792.76    9.83
  -1  -2  23  755.21   10.04
   1  -2 -23  778.62    8.79
  -1  -2  24  916.12   11.25
   1  -2 -24  934.73   11.44
  -1   2  24  895.52   11.27
  -1   2  24  939.06   11.28
   1   2 -24  920.10   11.06
   1  -3  -1 4215.28   24.50
   1   3  -1 4401.08   22.39
  -1   3   1 4345.80   25.60
  -1  -3   1 4134.02   21.68
   1   3  -2   28.60    3.50
  -1   3   2   26.96    3.61
   1  -3  -2   26.76    3.62
  -1  -3   2   24.89    3.53
  -1  -3   3  701.39    7.74
   1   3  -3  716.62    7.44
  -1   3   3  734.15    9.06
   1  -3  -3  701.40    8.66
  -1  -3   4 2424.39   14.88
  -1   3   4 2605.62   18.64
   1   3  -4 2561.63   15.09
   1  -3  -4 2515.52   17.14
  -1   3   5  266.50    5.84
   1   3  -5  278.61    5.24
  -1  -3   5  255.20    4.65
   1  -3  -5  257.23    5.70
   1  -3  -6   19.70    2.59
  -1   3   6   19.72    3.42
  -1  -3   6   18.32    2.50
   1   3  -6   21.04    3.28
  -1   3   6   19.98    3.46
  -1   3   7 3177.97   19.54
   1   3  -7 3207.27   16.90
   1  -3  -7 3050.71   18.95
  -1   3   7 3120.76   19.11
  -1  -3   7 3032.14   16.29
   1   3  -8  495.88    6.10
  -1   3   8  495.43    7.52
   1  -3  -8  477.44    7.31
  -1  -3   8  472.35    6.87
  -1   3   8  483.96    6.71
   1   3  -9 2531.60   14.47
   1  -3  -9 2435.34   15.77
  -1   3   9 2444.72   15.83
  -1   3   9 2521.05   16.79
  -1  -3   9 2471.15   14.49
   1   3 -10   79.26    4.33
  -1   3  10   75.10    3.57
  -1  -3  10   73.67    3.43
  -1   3  10   73.61    4.42
   1   3 -11 3238.45   16.46
  -1   3  11 3194.39   19.53
  -1   3  11 3193.58   18.94
  -1  -3  11 3117.89   16.60
   1   3 -12  425.65    6.17
  -1   3  12  425.08    7.25
  -1   3  12  412.54    5.90
  -1  -3  12  401.79    6.44
  -1   3  13  321.27    6.08
   1   3 -13  329.66    5.01
  -1   3  13  320.30    5.86
  -1  -3  13  320.05    4.93
  -1  -3  14 1312.89   10.15
  -1   3  14 1315.53   10.79
  -1   3  14 1341.44   10.95
   1   3 -14 1376.63    9.78
   1   3 -15 1442.97   10.07
  -1  -3  15 1359.35   10.00
  -1   3  15 1409.60   11.48
  -1   3  15 1424.49   11.74
  -1   3  16  160.37    5.77
  -1  -3  16  140.78    4.48
   1   3 -16  155.32    4.24
  -1   3  16  146.59    4.42
   1   3 -17 1901.03   12.43
  -1   3  17 1841.24   13.55
  -1   3  17 1824.83   13.31
  -1  -3  17 1720.81   11.60
  -1  -3  18   23.90    5.83
  -1   3  18   19.22    4.39
  -1   3  18   23.20    4.14
   1   3 -18   20.04    4.11
   1   3 -19 1577.48   11.85
  -1   3  19 1458.13   12.28
  -1  -3  19 1427.54   10.86
  -1   3  19 1521.47   12.62
  -1   3  20   48.03    6.10
   1   3 -20   63.17    6.04
  -1  -3  20   56.01    6.16
  -1   3  20   48.42    4.65
   1   3 -21  531.63    7.32
  -1  -3  21  500.12    7.30
  -1   3  21  516.49    8.90
  -1   3  21  542.12    9.15
   1   3 -22  331.83    7.96
  -1   3  22  308.30    8.36
  -1   3  22  294.96    8.24
  -1  -3  22  297.76    6.48
  -1  -3  23  103.27    6.11
  -1   3  23  104.20    8.52
   1   3 -23  105.43    8.33
  -1   3  23  111.35    8.40
   1  -4  -1 1002.35    9.89
   1   4  -1 1036.00    8.53
  -1  -4   1 1028.31    9.05
  -1   4   1 1023.90    9.49
  -1  -4   2  748.50    7.87
  -1   4   2  762.02    8.18
   1   4  -2  772.64    7.40
   1  -4  -2  727.98    7.88
  -1  -4   3 1111.32    9.21
  -1   4   3 1135.46   10.58
   1   4  -3 1146.30    9.37
   1  -4  -3 1107.28   10.03
  -1  -4   4  822.95    8.09
   1   4  -4  852.09    8.06
   1  -4  -4  831.10    8.77
  -1   4   4  861.20    9.21
   1  -4  -5 2019.34   13.33
  -1  -4   5 1981.32   12.07
  -1   4   5 2134.66   15.12
   1   4  -5 2082.32   12.52
   1  -4  -6 1828.39   12.68
  -1   4   6 1873.98   13.47
  -1  -4   6 1842.65   11.80
   1   4  -6 1905.27   11.86
  -1   4   7  151.00    5.10
  -1   4   7  154.10    4.30
   1  -4  -7  151.97    4.24
  -1  -4   7  154.95    4.92
   1   4  -7  171.92    4.92
  -1   4   8 5297.17   26.87
  -1   4   8 5201.66   25.67
  -1  -4   8 5145.17   22.17
   1  -4  -8 5074.54   25.22
   1   4  -8 5324.32   22.31
   1   4  -9    3.75    3.94
   1  -4  -9    1.77    2.82
  -1  -4   9    3.19    2.81
  -1   4   9    2.89    2.86
  -1   4   9    2.83    3.97
  -1   4  10 2198.58   14.55
  -1  -4  10 2189.90   12.86
   1   4 -10 2270.70   12.72
   1  -4 -10 2155.44   14.43
  -1   4  10 2173.86   14.09
   1   4 -11  864.38    8.44
  -1  -4  11  783.36    8.17
  -1   4  11  802.35    8.74
  -1   4  11  821.64    9.19
   1   4 -12 1534.16   10.75
  -1   4  12 1487.72   11.82
  -1  -4  12 1458.50   10.62
  -1   4  12 1521.31   12.27
   1   4 -13    1.66    4.65
  -1   4  13   -0.21    5.34
  -1  -4  13   -9.67    5.04
  -1   4  13    1.17    3.30
  -1  -4  14  404.16    5.63
   1   4 -14  436.51    5.74
  -1   4  14  434.54    7.21
  -1   4  14  415.22    6.91
  -1   4  15  536.91    7.52
   1   4 -15  582.52    7.35
  -1   4  15  557.76    8.00
  -1  -4  15  524.84    6.18
   1   4 -16 1241.89   10.36
  -1   4  16 1217.78   11.51
  -1   4  16 1169.77   10.95
  -1  -4  16 1175.97   10.21
  -1  -4  17    1.19    5.88
  -1   4  17   12.75    5.97
   1   4 -17    2.96    4.19
  -1   4  17    1.30    4.20
  -1   4  18 2361.42   16.29
  -1   4  18 2438.00   16.99
   1   4 -18 2471.42   15.00
  -1  -4  18 2296.76   14.81
  -1   4  19    4.17    7.11
   1   4 -19    9.30    6.85
  -1   4  19    6.96    4.79
  -1  -4  19    5.93    5.03
  -1  -4  20 1285.10   11.74
  -1   4  20 1323.76   11.71
   1   4 -20 1394.72   11.76
  -1   4  20 1288.65   12.35
  -1   4  21  102.71    8.52
  -1   4  21   94.24    8.34
   1   4 -21  104.64    5.98
  -1  -4  21   89.85    6.28
   1   5  -1  755.16    7.51
  -1  -5   1  733.65    7.44
  -1   5   1  734.41    7.59
   1  -5  -1  735.12    8.16
  -1  -5   2   12.30    3.93
   1  -5  -2   10.36    3.96
  -1   5   2   14.03    3.98
   1   5  -2   13.72    3.94
   1   5  -3  647.89    7.11
  -1  -5   3  600.61    6.95
   1  -5  -3  610.51    7.46
  -1   5   3  618.35    7.59
  -1  -5   4  620.31    6.37
   1  -5  -4  616.97    6.91
   1   5  -4  664.97    7.32
  -1   5   4  633.20    7.15
   1  -5  -5   29.79    4.87
  -1  -5   5   29.43    4.85
  -1   5   5   28.23    4.84
   1   5  -5   29.13    3.52
  -1  -5   6  120.39    5.30
  -1   5   6  120.14    4.36
   1  -5  -6  121.96    5.45
   1   5  -6  120.33    5.31
  -1  -5   7 2188.29   12.92
  -1   5   7 2264.78   15.35
   1  -5  -7 2217.05   14.15
   1   5  -7 2235.03   12.49
  -1   5   8  240.12    6.23
  -1   5   8  237.82    6.03
   1  -5  -8  226.40    6.03
  -1  -5   8  222.83    5.99
   1   5  -8  249.46    5.90
   1   5  -9 2335.66   13.40
  -1   5   9 2231.22   14.87
   1  -5  -9 2215.39   14.40
  -1  -5   9 2228.91   12.71
  -1   5   9 2227.45   14.53
   1   5 -10  139.46    5.48
  -1   5  10  134.38    5.64
  -1  -5  10  128.72    5.40
   1  -5 -10  131.22    4.30
  -1   5  10  136.81    4.32
  -1   5  11  385.62    6.90
   1   5 -11  392.41    5.50
   1  -5 -11  372.02    6.68
  -1  -5  11  359.75    6.44
  -1   5  11  376.21    6.61
   1   5 -12  138.57    4.81
  -1   5  12  134.69    4.86
  -1  -5  12  131.80    4.80
   1  -5 -12  138.92    4.80
  -1   5  12  144.98    6.75
   1   5 -13    5.08    5.66
  -1  -5  13   -1.34    5.80
  -1   5  13    3.45    5.87
  -1   5  13    4.55    4.03
  -1   5  14   59.61    5.82
   1   5 -14   65.86    5.91
  -1  -5  14   52.02    4.26
  -1   5  14   53.02    6.21
   1   5 -15   -1.33    5.74
  -1  -5  15    4.34    5.75
  -1   5  15    2.42    5.66
  -1   5  15    1.14    4.25
  -1   5  16   49.42    6.91
   1   5 -16   47.13    5.05
  -1   5  16   48.24    7.12
  -1  -5  16   40.99    6.99
   1   5 -17  886.60    9.85
  -1   5  17  819.06    8.84
  -1  -5  17  828.79    9.79
  -1   5  17  878.65   10.69
   1   5 -18  122.49    5.56
  -1   5  18  115.52    5.45
  -1  -5  18  120.26    7.51
  -1   5  18  124.14    5.77
   1   5 -19 1095.72   11.48
  -1   5  19 1051.94   10.90
  -1  -5  19 1030.27   11.42
  -1   5  19 1028.19   11.93
  -1  -6   1   95.07    5.40
   1  -6  -1   95.82    4.11
   1   6  -1  105.43    4.09
  -1   6   1  105.68    5.46
   1   6  -2  763.32    7.20
  -1  -6   2  715.24    7.98
  -1   6   2  758.64    8.55
   1  -6  -2  715.83    8.42
   1   6  -3   65.96    5.13
   1  -6  -3   58.56    3.86
  -1   6   3   62.99    5.15
  -1  -6   3   58.70    3.77
   1  -6  -4  310.06    6.75
  -1   6   4  322.65    6.81
   1   6  -4  318.18    6.62
  -1  -6   4  293.25    6.51
   1  -6  -5   54.35    4.39
  -1  -6   5   51.47    4.36
  -1   6   5   63.17    6.11
   1   6  -5   63.87    5.92
  -1  -6   6  720.10    8.40
   1  -6  -6  708.09    8.79
  -1   6   6  731.76    8.01
   1   6  -6  778.84    8.62
  -1  -6   7  511.46    7.79
  -1   6   7  545.86    8.29
   1  -6  -7  504.49    6.89
   1   6  -7  547.85    7.87
  -1  -6   8 1780.73   11.42
   1  -6  -8 1903.93   13.45
  -1   6   8 1915.54   14.33
  -1   6   8 1885.39   13.42
   1   6  -8 2023.04   12.75
   1   6  -9  978.44    9.52
  -1  -6   9  927.76    8.24
  -1   6   9  981.77   10.52
  -1   6   9  954.25    9.90
   1  -6  -9  906.45    8.75
  -1   6  10 1445.53   11.02
   1   6 -10 1543.36   10.57
  -1   6  10 1486.75   11.92
  -1  -6  10 1402.79   10.30
   1  -6 -10 1401.61   10.96
   1   6 -11  569.16    7.26
  -1   6  11  548.54    8.56
  -1  -6  11  519.00    8.53
   1  -6 -11  553.89    8.65
  -1   6  11  555.30    8.64
   1   6 -12  512.87    8.58
  -1   6  12  493.27    9.11
  -1   6  12  479.63    8.66
  -1  -6  12  468.08    8.58
   1  -6 -12  477.23    8.75
  -1   6  13    7.94    4.97
   1   6 -13   17.15    6.91
  -1  -6  13    4.74    4.93
  -1   6  13    8.34    6.82
  -1   6  14   38.45    7.07
   1   6 -14   31.69    4.95
  -1  -6  14   22.48    7.15
  -1   6  14   29.24    6.95
  -1   6  15  108.07    8.68
   1   6 -15  126.18    8.33
  -1  -6  15  114.27    8.42
  -1   6  15  111.74    8.29
  -1  -6  16  973.93    9.69
  -1   6  16  978.45   10.29
   1   7  -1  101.46    7.37
  -1  -7   1   88.25    7.40
   1  -7  -1   96.47    7.40
  -1   7   1   96.41    7.29
  -1  -7   2    3.24    4.91
   1  -7  -2   -0.99    6.93
   1   7  -2    2.56    4.90
  -1   7   2   -1.63    4.88
  -1  -7   3  112.97    5.47
   1  -7  -3  112.03    7.37
   1   7  -3  131.89    7.24
  -1   7   3  125.66    7.31
   1  -7  -4   14.76    6.98
  -1   7   4   17.10    4.87
  -1  -7   4    8.60    7.05
   1   7  -4   20.83    4.87
  -1  -7   5  412.50    8.33
  -1   7   5  419.90    8.58
   1   7  -5  443.86    8.39
   1  -7  -5  418.72    8.54
   1   7  -6  113.17    5.43
  -1  -7   6  109.68    5.39
  -1   7   6  112.11    5.52
   1  -7  -6  104.55    7.44
  -1  -7   7  222.27    6.06
   1  -7  -7  238.59    7.94
  -1   7   7  248.54    8.04
   1   7  -7  241.83    7.74
   1  -7  -8  915.21   10.68
  -1   7   8  936.04   10.83
  -1   7   8  924.01   10.56
   1   7  -8  967.42   10.60
  -1  -7   8  902.88   10.17
   1  -7  -9  136.11    8.53
   1   7  -9  154.87    6.30
  -1  -7   9  138.97    8.43
  -1   7   9  141.16    8.62
  -1   7   9  143.67    8.56
   1   7 -10  519.72    9.64
  -1  -7  10  470.79    9.59
   1  -7 -10  474.60    9.72
  -1   7  10  479.45   10.03
  -1   7  10  491.72    9.71
   0   0   3    2.80    3.04
   0   0  -3    3.26    2.94
   0   0   5    5.18    2.72
   0   0  -5    5.39    2.61
   0   0   6 5220.97   33.53
   0   0   7    0.87    2.63
   0   0  -7    1.38    2.63
   0   0  -9    2.31    3.31
   0   0   9    0.18    2.42
   0   0  11   -1.91    2.60
   0   0 -11    0.85    3.16
   0   0  12 2464.68   15.14
   0   0 -12 2556.85   15.63
   0   0  13   -0.49    2.25
   0   0 -13   -3.17    3.75
   0   0 -14 1188.49    9.60
   0   0  14 1167.35    9.15
   0   0  15    0.82    3.73
   0   0 -15   -0.74    3.71
   0   0  16 1082.84    9.07
   0   0 -16 1090.01    9.02
   0   0  17   -0.64    3.83
   0   0 -17   -0.79    3.80
   0   0  18 4764.42   23.54
   0   0 -18 4888.97   24.50
   0   0  19    5.83    5.05
   0   0 -19   -0.30    4.91
   0   0  20 3822.76   20.38
   0   0 -20 3919.58   21.38
   0   0  21   10.24    6.02
   0   0 -21    0.73    4.09
   0   0  22 2399.30   15.42
   0   0 -22 2424.40   15.34
   0   0  23    1.28    6.93
   0   0 -23    0.58    4.82
   0   0 -24  547.47    7.29
   0   0  24  524.96    7.24
   0   0  25   -2.81    5.68
   0   0 -25    3.62    7.74
   0  -1   0 3412.78   30.52
   0   1   2  937.57   13.65
   0  -1   2  886.55   13.22
   0   1  -2  937.58   13.25
   0  -1  -2  917.54   13.55
   0   1  -3 1340.11   15.03
   0  -1  -3 1282.33   15.19
   0   1   3 1336.18   15.58
   0   1   3 1322.48   15.44
   0  -1   3 1237.99   14.41
   0   1   4  785.52   10.75
   0  -1   4  760.48   10.52
   0   1  -4  777.83   10.37
   0  -1  -4  810.96   10.87
   0   1   4  793.96   11.14
   0  -1  -4  771.25   10.93
   0   1   5 1026.05   11.65
   0  -1   5 1005.39   11.37
   0   1  -5 1060.02   11.56
   0   1   5 1022.01   11.59
   0  -1  -5 1057.46   11.81
   0   1   6  294.01    6.50
   0   1   6  292.34    6.53
   0  -1   6  294.81    5.94
   0   1  -6  307.70    6.50
   0  -1  -6  296.29    6.54
   0   1   7 3021.07   19.30
   0  -1   7 2955.95   18.85
   0   1  -7 3080.33   19.17
   0  -1  -7 3014.26   19.34
   0   1   7 2986.91   19.23
   0  -1   8 1015.16    9.86
   0   1  -8 1054.08    9.95
   0   1   8 1004.11    9.70
   0  -1  -8 1027.72    9.78
   0  -1   9 3513.52   19.57
   0   1  -9 3670.40   20.05
   0   1   9 3495.90   20.07
   0  -1  -9 3643.93   20.46
   0  -1 -10 3467.71   19.16
   0   1 -10 3559.95   19.09
   0   1  10 3370.74   19.05
   0  -1  10 3333.92   18.47
   0   1  11 7870.04   35.31
   0  -1  11 7679.90   32.96
   0   1 -11 8217.28   34.78
   0  -1 -11 8458.39   36.79
   0  -1  12    6.40    2.69
   0   1 -12    3.72    2.19
   0   1  12    5.29    3.05
   0  -1 -12    0.52    2.93
   0  -1  13 1220.71    9.35
   0   1 -13 1239.45    9.37
   0   1  13 1229.82    9.57
   0  -1 -13 1230.55    9.49
   0  -1 -14    3.36    2.73
   0  -1  14    5.28    2.76
   0   1  14    7.43    2.67
   0   1 -14    5.64    2.64
   0  -1  15  255.83    4.49
   0   1  15  262.94    5.25
   0   1 -15  266.06    4.50
   0  -1 -15  259.05    4.56
   0  -1 -16    0.05    3.72
   0   1  16    0.22    3.69
   0  -1  16   -1.21    3.74
   0   1 -16    0.04    3.68
   0  -1  17  679.50    6.91
   0   1 -17  729.38    7.67
   0   1  17  686.50    6.96
   0  -1 -17  721.45    7.75
   0  -1  18    3.19    4.70
   0   1  18    2.36    4.67
   0   1 -18    4.23    3.26
   0  -1 -18    2.42    3.30
   0  -1  19 4040.89   19.71
   0   1  19 4122.92   21.09
   0   1 -19 4255.17   20.80
   0  -1 -19 4264.93   21.33
   0  -1 -20  143.65    5.94
   0  -1  20  141.84    6.05
   0   1  20  139.80    4.22
   0   1 -20  144.17    4.76
   0  -1  21  710.87    7.20
   0   1  21  753.46    8.59
   0   1 -21  763.23    8.50
   0  -1 -21  777.60    7.65
   0  -1  22    3.01    4.09
   0   1  22    3.15    3.99
   0   1 -22    7.20    3.95
   0  -1 -22    2.20    5.67
   0  -1  23  501.60    8.55
   0   1  23  502.60    8.71
   0   1 -23  534.27    8.44
   0   1  23  520.30    8.60
   0  -1 -23  541.68    8.59
   0  -1 -24  149.19    5.52
   0  -1  24  131.61    7.35
   0   1  24  147.83    7.35
   0   1 -24  159.73    7.18
   0   1  24  149.75    5.51
   0   2   1 1694.96   14.89
   0  -2   1 1628.12   14.28
   0   2  -1 1690.17   14.66
   0  -2  -1 1660.99   14.43
   0  -2   2 2541.02   17.89
   0  -2  -2 2471.26   17.78
   0   2  -2 2553.95   17.70
   0   2   2 2579.13   18.27
   0  -2  -3 1254.18   12.18
   0   2  -3 1300.64   12.10
   0  -2   3 1236.91   11.79
   0   2   3 1313.20   12.41
   0   2   4 6028.18   30.18
   0  -2   4 5681.76   28.74
   0  -2  -4 5758.50   29.22
   0   2  -4 6031.58   30.05
   0  -2   5  713.95    8.20
   0  -2  -5  717.05    8.43
   0   2  -5  737.95    8.26
   0   2   5  750.21    8.62
   0   2   5  747.44    8.58
   0   2   6 3784.81   20.84
   0   2  -6 3803.28   20.57
   0  -2  -6 3611.65   20.09
   0   2   6 3651.67   20.32
   0  -2   6 3544.39   19.58
   0  -2  -7  362.99    6.20
   0   2  -7  365.49    6.03
   0   2   7  364.09    6.20
   0  -2   7  353.76    5.97
   0   2   7  369.82    6.27
   0   2  -8 8326.70   33.86
   0   2   8 8360.04   34.84
   0   2   8 8184.55   34.36
   0  -2   8 7627.87   31.68
   0  -2   9 1459.92   10.79
   0   2   9 1478.96   11.21
   0   2  -9 1520.53   10.75
   0   2   9 1453.98   11.08
   0  -2  -9 1499.59   10.99
   0  -2  10 4967.84   22.17
   0   2  10 5079.15   23.62
   0   2 -10 5245.57   23.03
   0  -2 -10 5208.29   24.10
   0   2  10 4952.33   23.17
   0  -2  11  627.38    6.59
   0   2 -11  668.33    7.01
   0   2  11  637.91    7.09
   0   2  11  627.00    6.73
   0  -2 -11  642.61    6.71
   0  -2  12 5957.12   24.79
   0  -2 -12 6031.61   26.11
   0   2 -12 6037.90   24.80
   0   2  12 5897.66   25.97
   0   2  12 5789.27   25.68
   0  -2  13   34.84    3.00
   0   2 -13   40.44    3.00
   0   2  13   39.78    4.08
   0  -2 -13   38.23    4.09
   0   2  13   34.18    4.09
   0   2 -14 2616.34   14.15
   0  -2  14 2508.60   13.93
   0   2  14 2621.55   14.74
   0  -2 -14 2633.73   14.69
   0   2  14 2559.82   14.44
   0  -2  15  408.05    5.37
   0   2  15  402.55    6.03
   0   2 -15  414.68    5.29
   0   2  15  415.75    6.09
   0  -2 -15  423.03    6.16
   0  -2  16  877.38    7.98
   0   2  16  894.45    7.89
   0   2  16  865.33    7.71
   0   2 -16  937.73    8.37
   0  -2 -16  916.32    7.99
   0  -2  17   11.99    4.85
   0   2  17   18.37    3.41
   0   2 -17   19.75    4.72
   0   2  17   15.54    3.39
   0  -2 -17   18.10    3.41
   0  -2  18 2968.38   15.99
   0   2  18 2967.14   16.30
   0   2  18 2966.20   16.28
   0   2 -18 3115.14   16.61
   0  -2 -18 3096.77   16.72
   0  -2  19 1641.63   11.38
   0   2  19 1675.27   11.37
   0   2  19 1618.78   11.17
   0   2 -19 1725.48   11.67
   0  -2 -19 1743.98   11.56
   0  -2  20  786.33    8.73
   0   2  20  789.11    7.81
   0  -2 -20  827.19    7.98
   0   2  20  780.17    7.74
   0   2 -20  845.39    8.82
   0   2 -21  289.99    5.48
   0  -2  21  276.38    5.46
   0   2  21  285.45    6.92
   0   2  21  283.93    5.51
   0  -2 -21  301.21    6.93
   0  -2  22  967.08   10.05
   0   2  22  985.24   10.31
   0   2  22  964.91   10.26
   0  -2 -22 1022.44   10.42
   0   2 -22 1009.40   10.21
   0  -2  23    2.50    6.80
   0   2  23    7.24    6.77
   0   2  23    2.64    4.86
   0   2 -23    6.37    6.71
   0  -2 -23    1.61    4.85
   0  -2  24  508.34    7.75
   0   2  24  520.83    9.74
   0   2  24  512.62    9.69
   0   2 -24  541.49    7.60
   0  -2 -24  552.77    9.72
   0  -3   0 6788.74   32.33
   0   3   0 7133.20   33.91
   0  -3   1 5933.34   28.83
   0   3   1 6321.20   30.49
   0   3  -1 6285.73   29.91
   0  -3  -1 5860.10   28.20
   0   3   2 1003.86    9.32
   0  -3   2  960.51    9.28
   0  -3  -2  981.66    9.48
   0   3  -2  999.92    9.36
   0   3   3 4480.23   22.57
   0  -3  -3 4195.99   21.28
   0  -3   3 4198.84   20.79
   0   3  -3 4422.52   21.53
   0  -3  -4   71.87    3.99
   0   3   4   73.37    4.04
   0  -3   4   67.49    3.98
   0   3  -4   71.14    3.84
   0   3   5 5760.76   25.60
   0  -3   5 5494.73   24.15
   0  -3  -5 5699.46   25.95
   0   3  -5 5757.51   24.86
   0   3  -6  799.94    7.92
   0   3   6  799.49    7.86
   0  -3  -6  775.52    7.77
   0   3   6  816.14    7.96
   0  -3   6  771.47    7.50
   0   3  -7 5191.01   22.40
   0   3   7 5087.70   23.01
   0  -3   7 4876.86   21.70
   0  -3  -7 4920.52   22.64
   0   3   7 5050.67   22.94
   0   3  -8 1502.23   10.41
   0   3   8 1446.01   10.44
   0  -3  -8 1415.72   10.44
   0  -3   8 1411.99    9.90
   0   3   8 1411.01   10.47
   0   3  -9  596.56    6.39
   0   3   9  572.04    6.60
   0  -3  -9  577.53    7.09
   0  -3   9  579.34    6.93
   0   3   9  586.10    7.12
   0   3  10 1464.14   10.76
   0   3 -10 1482.74   10.30
   0  -3  10 1381.98    9.68
   0   3  10 1429.62   10.53
   0   3  11 1763.32   11.74
   0   3 -11 1760.64   10.80
   0  -3  11 1708.45   11.08
   0   3  11 1707.06   11.07
   0   3 -12    1.24    2.67
   0   3  12    4.40    3.81
   0  -3  12    1.80    3.77
   0   3  12    3.76    2.74
   0   3 -13  914.74    7.50
   0   3  13  911.59    8.23
   0   3  13  882.25    8.23
   0  -3  13  887.76    7.87
   0   3 -14    2.35    2.68
   0   3  14    1.86    3.80
   0   3  14    2.01    2.69
   0  -3  14    9.13    3.89
   0   3  15 3560.50   17.90
   0   3 -15 3717.92   17.36
   0   3  15 3616.91   18.26
   0  -3  15 3601.69   17.15
   0   3 -16  110.92    4.00
   0   3  16  103.33    4.02
   0   3  16   98.95    5.43
   0  -3  16  102.04    3.99
   0   3 -17 1514.28   10.52
   0   3  17 1462.88   10.97
   0   3  17 1459.63   10.91
   0  -3  17 1364.27   10.27
   0   3 -18  609.13    7.88
   0   3  18  590.23    6.99
   0   3  18  576.97    6.86
   0  -3  18  566.64    6.62
   0   3  19  590.27    6.99
   0   3 -19  643.97    8.13
   0   3  19  588.40    8.08
   0  -3  19  594.57    7.93
   0   3  20  668.11    8.58
   0   3 -20  672.98    7.19
   0   3  20  650.78    8.39
   0  -3  20  630.94    8.20
   0   3  21  795.70    9.96
   0   3 -21  802.81    8.15
   0   3  21  790.37    9.62
   0  -3  21  771.10    9.43
   0   3  22  272.94    7.82
   0   3  22  287.99    7.89
   0   3 -22  279.31    6.03
   0  -3  22  277.09    7.68
   0   3  23 1236.69   12.40
   0   3  23 1246.05   12.17
   0   3 -23 1290.18   12.04
   0  -3  23 1219.86   11.78
   0   4   0   84.85    3.14
   0  -4   0   85.77    3.79
   0  -4   1  267.55    4.62
   0  -4  -1  265.61    4.60
   0   4   1  271.68    5.12
   0   4  -1  280.14    5.11
   0  -4   2 1240.43    9.74
   0   4  -2 1316.05    9.78
   0   4   2 1315.08   10.29
   0  -4  -2 1235.00    9.72
   0  -4   3    8.82    4.05
   0   4   3    8.42    2.88
   0   4  -3    3.47    3.95
   0  -4  -3    1.53    3.96
   0   4   4 5646.87   24.70
   0  -4  -4 5253.90   22.57
   0  -4   4 5331.63   23.09
   0   4  -4 5590.63   23.47
   0   4   5    2.24    4.14
   0  -4   5    0.95    2.87
   0   4  -5    5.06    2.80
   0  -4  -5    2.90    4.07
   0  -4   6 3028.31   15.61
   0  -4  -6 3018.90   15.54
   0   4  -6 3161.50   15.60
   0   4   6 3091.71   15.99
   0   4  -7  129.54    3.69
   0  -4  -7  124.05    3.74
   0  -4   7  128.35    4.57
   0   4   7  130.43    3.81
   0   4   7  124.98    3.84
   0   4  -8  444.58    6.07
   0   4   8  425.99    5.62
   0  -4  -8  414.37    5.56
   0   4   8  423.63    5.63
   0  -4   8  418.75    5.53
   0   4  -9 1309.75    9.10
   0  -4  -9 1267.12    9.36
   0  -4   9 1275.56    9.40
   0   4   9 1299.77    9.46
   0   4   9 1315.51    9.55
   0   4 -10   12.31    3.85
   0  -4 -10   11.78    3.90
   0   4  10   10.35    2.81
   0  -4  10   12.15    3.80
   0   4  10   18.72    3.86
   0   4 -11 1012.51    8.29
   0   4  11  975.51    8.64
   0  -4 -11  952.86    7.93
   0  -4  11  960.17    8.23
   0   4  11  963.24    8.06
   0   4  12 1188.90    9.33
   0   4 -12 1225.45    9.49
   0  -4  12 1171.19    8.67
   0   4  12 1192.76    9.76
   0   4 -13    1.09    4.74
   0   4  13    2.61    4.77
   0  -4  13    2.62    4.62
   0   4  13    0.36    4.74
   0   4  14 1608.48   11.34
   0   4  14 1617.67   11.64
   0   4 -14 1696.91   11.16
   0  -4  14 1549.40   10.23
   0   4  15  442.11    6.96
   0   4 -15  452.74    5.78
   0   4  15  438.95    6.71
   0  -4  15  417.38    5.67
   0   4  16 1635.79   12.00
   0   4 -16 1599.18   11.31
   0   4  16 1548.47   11.61
   0  -4  16 1467.22   10.16
   0   4  17   -5.49    5.81
   0   4 -17   -2.58    4.02
   0   4  17    0.68    4.01
   0  -4  17    3.34    5.66
   0   4  18  387.23    6.05
   0   4 -18  409.59    7.18
   0   4  18  382.07    7.29
   0  -4  18  375.04    7.18
   0   4  19  215.33    7.70
   0   4 -19  232.88    7.50
   0   4  19  210.01    7.50
   0  -4  19  195.22    5.67
   0   4  20   85.65    7.24
   0   4 -20   84.34    5.16
   0  -4  20   79.08    5.21
   0   4  20   78.67    5.19
   0   4  21  189.24    8.63
   0  -4  21  195.52    8.24
   0   4 -21  198.83    6.17
   0   4  21  195.33    8.38
   0   5   0  101.52    4.49
   0  -5   0   98.02    4.52
   0   5   1  190.09    4.16
   0   5  -1  194.62    4.20
   0  -5  -1  187.12    5.00
   0  -5   1  179.38    4.16
   0  -5   2  263.18    5.49
   0   5   2  271.87    5.53
   0  -5  -2  265.50    5.56
   0   5  -2  272.61    5.47
   0  -5   3 3562.64   17.57
   0   5   3 3621.00   17.88
   0  -5  -3 3503.42   17.17
   0   5  -3 3709.66   17.89
   0  -5   4 1473.17   10.10
   0  -5  -4 1496.17   10.69
   0   5   4 1524.96   10.43
   0   5  -4 1576.79   10.79
   0  -5  -5 2883.89   14.92
   0  -5   5 2818.36   14.85
   0   5   5 2922.13   15.35
   0   5  -5 3013.02   15.48
   0   5   6  124.02    3.82
   0  -5   6  118.17    4.69
   0  -5  -6  119.95    4.75
   0   5  -6  127.60    4.68
   0   5  -7 4210.20   19.15
   0   5   7 4249.23   20.16
   0  -5   7 4011.41   19.18
   0  -5  -7 4120.07   18.41
   0   5   8  476.22    7.04
   0   5  -8  469.48    6.86
   0  -5  -8  455.92    6.83
   0  -5   8  430.87    5.75
   0   5   8  470.19    6.89
   0   5   9  446.09    6.88
   0   5  -9  452.63    6.62
   0  -5   9  404.72    5.71
   0  -5  -9  415.39    5.78
   0   5   9  431.08    5.73
   0   5 -10  247.51    5.82
   0  -5  10  232.42    4.72
   0   5  10  236.41    5.87
   0   5  10  236.00    4.91
   0  -5 -10  231.28    5.77
   0   5 -11  902.52    8.42
   0  -5 -11  853.46    8.29
   0   5  11  871.61    7.92
   0  -5  11  822.10    7.49
   0   5  11  864.94    8.42
   0  -5 -12  301.97    6.31
   0   5 -12  323.28    6.32
   0   5  12  303.64    6.23
   0  -5  12  310.21    6.14
   0   5  12  302.42    6.38
   0   5 -13 2753.93   14.30
   0  -5  13 2537.13   13.78
   0   5  13 2727.44   16.33
   0   5  13 2623.35   15.54
   0   5 -14  514.01    7.75
   0   5  14  493.72    7.78
   0  -5  14  492.88    7.61
   0   5  14  508.00    6.76
   0   5 -15 2949.93   15.91
   0   5  15 2853.68   17.38
   0  -5  15 2728.53   15.21
   0   5  15 2812.30   16.68
   0   5 -16  157.07    5.60
   0   5  16  153.93    7.61
   0  -5  16  151.73    7.41
   0   5  16  147.01    5.54
   0   5 -17 1263.07   11.05
   0  -5  17 1198.50   10.72
   0   5  17 1212.08   11.51
   0   5  17 1172.51   11.10
   0   5 -18  175.26    7.45
   0   5  18  182.15    7.60
   0   5  18  165.26    7.45
   0  -5  18  163.74    5.62
   0   5 -19   60.41    5.78
   0   5  19   50.91    5.95
   0   5  19   46.55    5.76
   0  -5  19   47.52    5.83
   0  -6   0  107.22    5.33
   0   6   0  115.05    4.16
   0  -6  -1   28.17    5.01
   0   6   1   36.48    3.60
   0   6  -1   34.43    3.62
   0  -6   1   37.69    4.91
   0  -6  -2  452.62    6.90
   0   6   2  462.55    6.07
   0   6  -2  457.33    5.99
   0  -6   2  437.07    6.74
   0  -6  -3 1204.29    9.93
   0   6   3 1278.32   10.16
   0   6  -3 1252.19    9.32
   0  -6   3 1192.18    9.72
   0  -6   4  943.94    8.11
   0  -6  -4  956.50    8.30
   0   6  -4 1028.40    8.37
   0   6   4 1053.18    9.38
   0   6  -5  313.90    5.19
   0  -6   5  284.04    5.17
   0   6   5  321.03    5.37
   0  -6  -5  297.87    5.17
   0  -6   6 1154.13    9.63
   0   6   6 1246.68   10.30
   0  -6  -6 1132.77    9.56
   0   6  -6 1189.49    9.02
   0   6  -7  751.61    7.44
   0  -6   7  737.94    8.51
   0   6   7  767.91    7.76
   0  -6  -7  715.21    8.51
   0   6  -8  355.56    7.09
   0   6   8  352.46    5.95
   0  -6  -8  325.84    7.06
   0  -6   8  328.00    7.01
   0   6   8  335.67    7.07
   0  -6  -9   27.09    5.82
   0   6  -9   22.06    5.86
   0   6   9   28.78    5.86
   0  -6   9   21.94    4.23
   0   6   9   22.53    5.86
   0   6 -10   49.73    5.89
   0   6  10   46.95    4.37
   0  -6  10   39.37    5.91
   0  -6 -10   43.61    5.85
   0   6  10   39.88    5.94
   0   6  11   11.01    4.23
   0   6 -11   17.29    4.07
   0  -6  11   10.42    5.86
   0  -6 -11   11.70    5.80
   0   6  11   12.47    5.79
   0   6  12  209.55    7.66
   0  -6 -12  194.88    7.54
   0   6 -12  228.55    7.42
   0  -6  12  199.38    5.65
   0   6  12  200.79    7.52
   0   6  13   94.18    7.21
   0   6 -13   83.35    5.37
   0  -6  13   71.94    7.21
   0  -6 -13   84.48    7.15
   0   6  13   85.70    7.10
   0   6 -14  766.34    9.45
   0  -6  14  710.93    9.48
   0   6  14  735.04    8.11
   0   6  14  765.45    9.89
   0   6 -15  993.30    9.30
   0  -6  15  927.16    9.38
   0   6  15  962.05   10.79
   0   6  15  974.93    9.80
   0  -6  16 1099.58   10.20
   0   6  16 1133.13   10.58
   0  -7   0    7.41    5.89
   0   7   0   11.77    6.40
   0  -7  -1  573.25    8.62
   0  -7   1  549.08    6.85
   0   7   1  601.67    7.59
   0   7  -1  592.35    7.52
   0  -7  -2   35.03    4.59
   0   7   2   43.30    6.76
   0  -7   2   49.36    6.56
   0   7  -2   47.14    6.70
   0  -7  -3 1116.77    9.88
   0   7   3 1166.49    9.96
   0   7  -3 1139.86    9.74
   0  -7   3 1095.90    9.41
   0  -7  -4 1218.72   11.49
   0   7  -4 1247.02   11.35
   0   7   4 1249.38   11.54
   0  -7   4 1185.55    9.90
   0   7  -5  812.60    9.69
   0   7   5  801.01    9.82
   0  -7  -5  773.75    9.79
   0  -7   5  754.68    9.66
   0  -7   6  726.69    9.47
   0   7   6  761.66    9.71
   0  -7  -6  733.47    9.57
   0   7  -6  754.86    8.15
   0   7  -7  272.87    7.81
   0  -7   7  260.56    7.79
   0   7   7  267.84    7.99
   0  -7  -7  251.31    6.14
   0   7  -8  144.33    5.56
   0  -7   8  132.18    7.50
   0  -7  -8  131.81    5.62
   0   7   8  128.86    7.52
   0   7   8  134.03    5.55
   0  -7  -9  307.53    8.08
   0   7  -9  324.45    8.08
   0  -7   9  303.86    8.10
   0   7   9  316.37    8.18
   0   7   9  308.81    7.95
   0   7 -10   -2.08    5.64
   0  -7  10   -2.61    5.67
   0   7  10    3.66    8.02
   0   7  10    5.39    8.03
   0  -7 -10    0.30    7.95
   0   7 -11  480.22    9.57
   0  -7  11  452.06    9.54
   0   7  11  453.53    7.73
   0  -7 -11  441.94    7.53
   0   7  11  439.23    7.64
   1   0   1    5.13    3.63
  -1   0  -1    5.27    3.60
   1   0   1    2.16    3.46
   1   0   2 5749.82   39.44
   1   0   3    6.32    3.00
  -1   0  -3    0.24    4.10
   1   0   5   -1.39    3.81
  -1   0  -5    1.95    2.65
   1   0   7    1.66    3.37
  -1   0  -7    3.81    4.19
   1   0   8 5706.64   30.79
  -1   0  -8 5753.20   30.22
   1   0   9   -5.82    3.38
  -1   0  -9   -2.69    3.55
  -1   0 -10 1257.65   10.02
   1   0  10 1232.74   10.00
   1   0  11   -6.77    2.44
  -1   0 -11   -6.73    2.54
   1   0  12  119.83    4.40
  -1   0 -12  120.14    4.48
   1   0  13   -7.83    4.68
  -1   0 -13  -12.10    3.84
   1   0  14 3225.53   17.39
  -1   0 -14 3319.22   17.82
   1   0  15   -2.62    3.97
  -1   0 -15   -7.77    4.00
   1   0  16 2411.45   14.52
  -1   0 -16 2503.98   14.34
   1   0  17   -4.10    4.74
  -1   0 -17   -3.51    3.36
   1   0  18 1068.72    8.65
  -1   0 -18 1162.16    9.55
   1   0  19   -2.27    3.96
  -1   0 -19   -1.80    5.55
   1   0  20   -0.16    3.92
  -1   0 -20    1.48    5.55
   1   0  21   -5.94    5.65
  -1   0 -21   -4.84    4.05
   1   0  22  506.48    8.35
  -1   0 -22  506.44    7.00
   1   0  23    2.88    6.72
  -1   0 -23    1.61    4.82
  -1   1   0  629.96   13.62
  -1  -1   0  587.46    9.79
   1  -1   0  625.58   13.31
   1   1   0  646.97   10.36
   1  -1   1 1619.32   18.88
  -1   1  -1 1675.93   19.24
   1   1   1 1656.92   15.96
  -1  -1  -1 1623.97   15.88
   1  -1   2 3502.58   27.11
   1   1   2 3606.07   23.81
  -1   1  -2 3732.00   28.11
  -1  -1  -2 3410.15   22.97
   1   1   2 3628.96   24.07
   1   1   3 8357.98   40.70
   1  -1   4  213.44    6.04
   1   1   4  221.59    5.81
  -1   1  -4  218.17    6.05
   1   1   4  215.16    5.84
  -1  -1  -4  223.47    5.92
   1   1   5 9862.38   44.82
   1  -1   6  104.24    6.07
   1   1   6  137.52    4.79
  -1   1  -6  148.19    4.99
   1   1   6  144.40    4.76
  -1  -1  -6  140.96    4.88
   1   1   7 9041.80   39.61
   1  -1   7 9149.76   42.70
   1   1   7 9276.33   39.80
   1  -1   8    1.59    2.54
   1   1   8    2.47    3.46
  -1   1  -8    5.01    2.34
   1   1   8    6.33    3.34
  -1  -1  -8    0.91    3.42
   1  -1   9 3249.75   18.58
  -1   1  -9 3364.92   19.63
   1   1   9 3312.57   18.11
  -1  -1  -9 3530.12   18.43
   1   1   9 3349.02   17.89
   1  -1  10  359.94    6.16
  -1  -1 -10  401.45    5.55
   1   1  10  378.52    5.58
  -1   1 -10  392.17    5.52
   1   1  10  386.82    5.81
   1   1  11 2451.58   14.30
   1  -1  11 2371.09   14.39
   1   1  11 2411.97   14.36
  -1  -1 -11 2491.19   14.08
  -1   1 -11 2438.22   15.09
  -1  -1 -12  439.70    6.78
   1  -1  12  406.68    6.21
   1   1  12  451.85    5.68
  -1   1 -12  446.62    6.00
   1   1  12  408.41    6.85
   1  -1  13 1511.33   10.88
   1   1  13 1505.95   10.34
  -1   1 -13 1585.06   11.11
  -1  -1 -13 1568.57   10.76
   1   1  13 1559.68   10.73
   1   1  14  632.43    7.56
   1  -1  14  637.69    6.89
   1   1  14  630.47    6.53
  -1   1 -14  717.97    7.73
  -1  -1 -14  658.96    7.45
   1   1  15 4907.62   22.13
   1  -1  15 4766.08   22.49
   1   1  15 4766.79   21.88
  -1   1 -15 4971.29   23.03
  -1  -1 -15 4904.43   22.04
  -1  -1 -16  434.38    6.85
   1   1  16  425.00    6.85
   1  -1  16  408.28    5.96
   1   1  16  431.57    6.73
  -1   1 -16  451.82    6.87
   1  -1  17 4320.07   20.97
   1   1  17 4322.58   20.38
   1   1  17 4324.13   20.64
  -1  -1 -17 4592.19   21.22
  -1   1 -17 4471.18   21.42
   1  -1  18   84.13    5.42
   1   1  18  100.92    3.92
  -1   1 -18   98.83    3.97
  -1  -1 -18   97.46    4.24
   1   1  18   87.40    4.21
   1  -1  19 1479.26   10.47
   1   1  19 1580.31   11.34
   1   1  19 1534.83   11.17
  -1  -1 -19 1606.36   11.39
  -1   1 -19 1539.30   10.63
   1  -1  20   -3.48    5.72
   1   1  20   -4.74    4.09
   1   1  20   -1.61    4.12
  -1   1 -20   -5.78    5.70
  -1  -1 -20   -0.95    5.66
   1  -1  21  168.19    6.75
   1   1  21  177.99    7.22
   1   1  21  166.81    6.80
  -1   1 -21  172.93    6.82
  -1  -1 -21  187.33    7.23
   1  -1  22   -2.65    6.86
   1   1  22    4.81    4.85
  -1   1 -22    6.15    6.85
  -1  -1 -22    5.25    4.83
   1   1  22    3.61    4.80
   1   1  23 1511.72   12.56
   1  -1  23 1495.30   12.70
   1   1  23 1531.87   12.64
  -1   1 -23 1536.86   11.56
  -1  -1 -23 1563.51   12.76
   1   2   0 5266.63   27.82
   1  -2   0 5050.13   32.54
  -1  -2   0 4993.43   26.74
  -1   2  -1  374.27    7.40
  -1  -2  -1  361.62    6.68
   1  -2   1  365.08    7.37
   1   2   1  368.29    6.13
  -1   2  -2 1182.22   12.22
   1  -2   2 1159.49   12.23
   1   2   2 1197.32   10.93
  -1  -2  -2 1164.14   10.68
  -1   2  -3  355.74    6.74
  -1  -2  -3  346.31    5.82
   1   2   3  359.72    5.88
   1  -2   3  350.67    6.33
  -1  -2  -4 4631.79   22.95
  -1   2  -4 4904.45   27.35
   1   2   4 4784.96   23.46
   1   2   4 4744.29   23.40
   1  -2   4 4648.61   26.17
  -1  -2  -5  811.10    8.18
   1   2   5  845.14    8.62
  -1   2  -5  838.70    9.17
   1   2   5  836.32    8.30
   1  -2   5  821.54    9.08
   1  -2   6 1338.59   11.35
  -1  -2  -6 1354.65   10.63
  -1   2  -6 1378.04   11.47
   1   2   6 1390.29   10.85
   1   2   6 1380.36   10.49
   1  -2   7 2481.09   16.02
  -1   2  -7 2575.17   16.00
   1   2   7 2520.95   14.56
   1   2   7 2543.02   14.61
   1  -2   8 2037.71   13.85
  -1   2  -8 2052.60   13.56
   1   2   8 2075.13   12.89
   1   2   8 2071.94   12.69
   1  -2   9  208.82    4.86
  -1   2  -9  230.64    4.80
   1   2   9  224.29    4.78
   1   2   9  222.23    4.71
   1  -2  10 1188.29    9.48
   1   2  10 1205.18    9.48
  -1   2 -10 1248.35   10.01
   1   2  10 1210.12    9.54
  -1  -2 -10 1225.70    9.55
   1  -2  11  383.43    5.40
   1   2  11  386.78    6.13
  -1   2 -11  401.89    5.46
   1   2  11  406.42    6.03
  -1  -2 -11  397.11    6.13
   1   2  12 1608.82   10.35
   1  -2  12 1660.96   11.51
  -1   2 -12 1713.66   11.70
   1   2  12 1661.33   11.06
  -1  -2 -12 1716.10   10.72
   1   2  13   -3.65    4.00
   1  -2  13   -5.67    3.20
  -1   2 -13    3.12    3.82
   1   2  13    2.26    2.72
  -1  -2 -13   -1.02    3.93
   1  -2  14 1605.76   10.83
  -1   2 -14 1655.89   10.92
   1   2  14 1692.69   11.07
  -1  -2 -14 1676.20   10.97
   1   2  14 1633.80   10.87
   1  -2  15  355.66    6.29
  -1   2 -15  355.39    5.33
   1   2  15  364.57    5.30
   1   2  15  348.80    5.35
  -1  -2 -15  356.62    5.44
   1  -2  16 2062.86   13.13
  -1   2 -16 2156.05   13.41
   1   2  16 1991.45   12.13
   1   2  16 2051.70   12.72
  -1  -2 -16 2106.50   12.93
   1  -2  17  547.00    6.42
  -1  -2 -17  584.91    7.30
   1   2  17  536.68    6.30
  -1   2 -17  589.76    7.35
   1   2  17  576.75    7.25
   1  -2  18 2579.54   14.88
   1   2  18 2615.13   14.56
  -1   2 -18 2748.89   15.27
   1   2  18 2657.33   15.17
  -1  -2 -18 2789.69   15.58
   1  -2  19    1.65    5.86
   1   2  19   10.35    4.08
  -1   2 -19    3.19    5.87
   1   2  19    1.72    5.95
  -1  -2 -19   11.12    5.89
   1  -2  20  328.43    6.97
   1   2  20  345.47    5.84
  -1   2 -20  346.95    5.74
   1   2  20  339.86    6.99
  -1  -2 -20  357.21    7.12
   1  -2  21  629.11    7.50
   1   2  21  663.76    9.10
  -1   2 -21  679.32    9.12
   1   2  21  638.26    9.03
  -1  -2 -21  686.42    9.05
   1  -2  22 1310.80   11.37
   1   2  22 1312.74   11.32
  -1   2 -22 1327.49   10.36
   1   2  22 1274.13   10.11
  -1  -2 -22 1270.67   10.05
   1  -2  23   13.40    5.78
   1  -3   0    4.53    3.27
   1   3   0    3.03    2.33
  -1   3   0    3.23    3.31
  -1  -3   0    4.06    3.29
   1   3   1 2922.88   16.29
   1  -3   1 2804.17   18.84
  -1  -3  -1 2829.61   15.95
  -1   3  -1 2933.50   18.81
   1   3   2  570.13    6.62
  -1  -3  -2  555.74    6.64
   1  -3   2  566.17    7.63
  -1   3  -2  583.82    7.32
  -1   3  -3 3096.94   18.83
   1  -3   3 2969.38   18.21
   1   3   3 3111.47   16.33
  -1  -3  -3 2952.53   15.98
  -1   3  -4  935.05    9.22
   1  -3   4  893.53    9.09
  -1  -3  -4  913.66    8.47
   1   3   4  947.52    8.57
  -1   3  -5 3523.82   19.60
  -1  -3  -5 3453.89   17.10
   1   3   5 3480.73   17.27
   1   3   5 3505.43   17.26
   1  -3   5 3372.10   19.11
  -1   3  -6 1653.48   12.00
   1   3   6 1668.40   11.10
   1   3   6 1698.58   11.15
   1  -3   6 1633.71   11.96
  -1  -3  -6 1655.81   11.05
  -1   3  -7 2465.14   15.19
   1   3   7 2408.21   13.55
   1   3   7 2419.18   13.64
   1  -3   7 2410.02   14.96
  -1  -3  -7 2338.68   13.40
  -1  -3  -8 1912.66   11.90
  -1   3  -8 1981.48   13.03
   1   3   8 1930.08   11.96
   1   3   8 2027.23   12.26
   1  -3   8 1916.20   13.04
  -1  -3  -9 1991.89   11.72
   1   3   9 2010.36   12.08
  -1   3  -9 2036.54   12.99
   1   3   9 2048.25   11.96
   1  -3   9 1954.66   12.58
   1   3  10  192.73    5.51
  -1   3 -10  215.36    5.07
   1  -3  10  189.82    5.52
   1   3  10  209.52    5.16
   1   3  11 4176.89   18.30
  -1   3 -11 4267.42   20.61
   1   3  11 4316.66   18.94
   1  -3  11 4050.44   20.18
  -1   3 -12   45.77    4.10
   1   3  12   46.74    4.10
   1   3  12   45.89    4.20
   1  -3  12   40.93    4.19
   1  -3  13  927.34    8.78
  -1   3 -13  938.76    8.07
   1   3  13  924.63    8.51
   1   3  13  931.59    7.89
   1  -3  14  658.11    6.95
  -1   3 -14  698.45    7.74
   1   3  14  676.34    6.84
   1   3  14  663.68    6.84
   1  -3  15 1392.93   10.54
  -1   3 -15 1479.69   10.82
   1   3  15 1480.83   10.42
   1   3  15 1426.30   10.43
   1  -3  16  189.55    4.64
  -1   3 -16  205.18    5.76
   1   3  16  203.92    4.62
   1   3  16  199.79    5.75
   1  -3  17  163.42    6.17
  -1   3 -17  163.65    6.29
   1   3  17  156.24    6.23
   1   3  17  158.36    4.86
   1  -3  18  311.22    6.89
  -1   3 -18  332.75    7.03
   1   3  18  303.18    7.04
   1   3  18  325.15    7.06
   1  -3  19  716.65    8.84
  -1   3 -19  757.44    9.37
   1   3  19  755.46    9.00
   1   3  19  750.68    9.30
   1  -3  20  189.56    7.47
   1   3  20  181.15    5.72
   1   3  20  204.54    5.87
  -1   3 -20  202.90    5.65
   1  -3  21 1442.77   12.39
   1   3  21 1420.00   11.15
   1   3  21 1453.88   11.32
  -1   3 -21 1503.59   12.54
   1  -4   0 4729.65   25.85
   1   4   0 4923.16   21.94
  -1  -4   0 4781.96   21.45
  -1   4   0 4828.85   25.16
   1  -4   1   46.22    4.35
   1   4   1   42.17    4.39
  -1  -4  -1   42.38    4.36
  -1   4  -1   41.89    4.45
   1   4   2 6767.09   26.24
   1  -4   2 6541.64   32.07
  -1  -4  -2 6658.31   26.08
  -1   4  -2 6762.89   31.50
  -1  -4  -3   48.59    4.53
   1   4   3   51.92    4.45
   1  -4   3   48.82    4.44
  -1   4  -3   52.49    3.30
  -1   4  -4 2641.01   15.60
   1   4   4 2594.87   13.67
   1  -4   4 2512.32   15.57
  -1  -4  -4 2526.20   13.78
  -1   4  -5  413.68    5.71
   1  -4   5  412.53    6.39
  -1  -4  -5  411.72    6.09
   1   4   5  420.66    6.19
  -1   4  -6  586.44    7.07
  -1  -4  -6  582.70    6.88
   1  -4   6  564.88    6.60
   1   4   6  607.12    6.36
   1   4   6  596.82    6.98
  -1   4  -7  574.15    6.42
   1  -4   7  566.46    7.28
   1   4   7  575.23    6.22
  -1  -4  -7  569.53    6.21
   1   4   7  582.01    6.17
  -1   4  -8 1496.38   10.91
  -1  -4  -8 1461.63   10.01
   1  -4   8 1476.87   10.86
   1   4   8 1495.89   10.14
   1   4   8 1492.62   10.14
  -1   4  -9   37.65    4.17
   1   4   9   37.79    4.24
  -1  -4  -9   43.97    4.16
   1   4   9   52.83    4.41
   1  -4   9   28.85    4.43
  -1   4 -10 5058.78   24.38
  -1  -4 -10 4658.13   19.75
   1   4  10 4837.69   20.65
   1  -4  10 4823.14   23.73
   1   4  10 4856.54   20.41
  -1   4 -11   10.88    3.48
   1  -4  11    7.62    3.55
   1   4  11   17.66    5.22
   1   4  11   20.46    3.55
  -1   4 -12 3670.50   19.20
   1   4  12 3611.02   17.07
   1   4  12 3587.90   17.04
   1  -4  12 3553.88   19.36
   1   4  13  136.58    5.57
  -1   4 -13  137.74    4.22
   1   4  13  136.70    5.57
   1  -4  13  133.09    4.27
   1   4  14  554.03    7.49
  -1   4 -14  564.40    7.52
   1   4  14  512.02    6.97
   1  -4  14  492.65    6.20
   1   4  15 1230.07   10.14
  -1   4 -15 1251.78    9.68
   1   4  15 1194.17    9.27
   1  -4  15 1145.39    9.28
   1   4  16  338.91    7.05
  -1   4 -16  360.30    5.78
   1  -4  16  343.35    6.99
   1   4  16  361.48    7.11
   1   4  17  111.22    5.50
  -1   4 -17  106.16    4.64
   1   4  17  109.65    4.80
   1  -4  17   98.58    4.76
   1   4  18  699.86    9.26
  -1   4 -18  707.47    7.88
   1   4  18  713.53    9.18
   1  -4  18  678.80    9.13
   1   4  19  349.99    8.27
  -1   4 -19  342.11    6.49
   1   4  19  354.19    8.31
   1  -4  19  324.87    6.54
   1   4  20 1551.52   12.99
  -1   4 -20 1538.00   11.81
   1   4  20 1518.77   11.79
   1  -4  20 1467.35   11.75
   1   5   0  458.02    5.67
  -1  -5   0  435.76    5.59
  -1   5   0  472.82    6.77
   1  -5   0  457.46    6.73
   1  -5   1 3285.69   19.32
   1   5   1 3351.17   15.90
  -1  -5  -1 3250.83   15.80
  -1   5  -1 3404.02   18.75
   1  -5   2  595.87    6.85
  -1  -5  -2  602.62    6.36
   1   5   2  633.11    7.07
  -1   5  -2  620.71    6.90
  -1  -5  -3 1344.51    9.27
   1  -5   3 1379.77   11.25
   1   5   3 1435.99   10.35
  -1   5  -3 1408.44   11.17
  -1   5  -4  191.57    4.62
   1   5   4  190.79    4.46
   1  -5   4  185.59    4.60
  -1  -5  -4  182.58    5.58
  -1   5  -5   57.81    4.91
   1   5   5   60.00    3.77
   1  -5   5   48.14    3.65
  -1  -5  -5   53.68    3.67
  -1   5  -6   -1.32    4.68
   1   5   6   12.03    4.82
   1  -5   6    5.88    3.24
  -1  -5  -6    3.46    4.74
   1   5   7  142.65    4.29
  -1   5  -7  152.81    5.36
  -1  -5  -7  139.03    5.36
   1  -5   7  140.32    5.41
   1   5   7  139.47    5.42
  -1   5  -8  396.60    6.55
   1  -5   8  377.51    5.62
  -1  -5  -8  384.77    6.46
   1   5   8  399.66    6.49
   1   5   8  391.66    5.49
  -1   5  -9  207.87    5.74
  -1  -5  -9  194.03    5.66
   1  -5   9  192.16    4.64
   1   5   9  198.65    5.68
   1   5   9  204.15    4.60
  -1   5 -10  166.14    5.49
  -1  -5 -10  162.26    5.52
   1  -5  10  150.29    4.42
   1   5  10  159.15    5.49
   1   5  10  158.98    4.44
  -1   5 -11 2474.60   14.73
   1  -5  11 2365.14   15.00
  -1  -5 -11 2373.14   13.72
   1   5  11 2464.55   14.18
   1   5  11 2415.37   13.88
  -1   5 -12  257.94    6.80
   1  -5  12  250.77    6.88
   1   5  12  248.92    6.92
   1   5  12  257.52    6.84
  -1   5 -13  842.00    8.08
   1  -5  13  821.85    9.07
   1   5  13  854.86    9.01
   1   5  13  834.54    7.92
  -1   5 -14  140.57    6.31
   1   5  14  131.88    4.88
   1  -5  14  123.83    6.35
   1   5  14  141.78    6.29
  -1   5 -15   85.76    6.95
   1   5  15   83.43    5.13
   1  -5  15   81.81    5.16
   1   5  15   90.64    7.13
  -1   5 -16    2.93    4.75
   1   5  16    2.33    4.93
   1   5  16    6.86    4.83
   1  -5  16   -1.93    6.93
  -1   5 -17  135.65    6.09
   1   5  17  122.48    6.26
   1   5  17  134.92    8.29
   1  -5  17  139.70    8.20
  -1  -6   0 1950.59   12.28
   1   6   0 2051.50   12.05
   1  -6   0 1918.70   14.03
  -1   6   0 2047.73   14.08
  -1   6  -1 1345.68   11.05
  -1  -6  -1 1257.90    9.17
   1   6   1 1408.34   10.35
   1  -6   1 1295.65   11.13
  -1  -6  -2 1843.16   11.38
   1   6   2 2000.52   12.41
  -1   6  -2 2109.07   13.94
   1  -6   2 1953.77   13.80
   1  -6   3  838.58    9.41
  -1  -6  -3  813.96    7.83
   1   6   3  877.74    7.97
  -1   6  -3  878.75    9.50
  -1   6  -4  768.31    8.99
   1  -6   4  712.01    8.86
   1   6   4  759.88    8.64
  -1  -6  -4  709.20    7.32
  -1   6  -5    3.78    5.76
   1  -6   5    1.39    4.09
   1   6   5    8.62    6.00
  -1  -6  -5    3.86    4.12
  -1   6  -6  655.10    8.50
   1  -6   6  598.60    8.34
   1   6   6  641.64    7.19
  -1  -6  -6  604.60    8.18
  -1   6  -7  753.96    9.01
   1   6   7  735.33    7.54
  -1  -6  -7  712.89    8.52
   1  -6   7  695.65    7.69
   1   6   7  733.91    8.62
  -1   6  -8  595.74    7.15
   1   6   8  590.65    6.92
   1  -6   8  570.58    7.13
   1   6   8  604.20    8.13
  -1  -6  -8  576.55    8.04
   1   6   9  170.71    5.08
  -1   6  -9  174.75    6.47
   1  -6   9  164.48    5.04
  -1  -6  -9  149.09    5.00
   1   6   9  156.03    6.63
   1   6  10 1449.31   11.68
  -1   6 -10 1387.71   11.02
   1  -6  10 1317.81   10.70
  -1  -6 -10 1329.22   10.17
   1   6  10 1339.04   10.15
   1   6  11 1110.46    9.48
  -1   6 -11 1140.59   11.31
  -1  -6 -11 1110.34   10.70
   1  -6  11 1113.74   11.19
   1   6  11 1114.84   10.75
   1   6  12 1282.63   11.33
  -1  -6 -12 1247.37   11.20
  -1   6 -12 1284.57   10.50
   1  -6  12 1246.86   10.57
   1   6  12 1313.64   11.47
  -1   6 -13  424.00    8.95
   1  -6  13  440.28    8.50
   1   6  13  428.99    6.89
   1   6  13  431.54    6.96
  -1   6 -14  618.78   10.00
   1  -6  14  603.84   10.04
   1   6  14  616.22    9.86
   1   6  14  570.81    7.97
  -1  -7   0 1035.26    9.28
   1  -7   0 1050.05   10.11
   1   7   0 1129.49    9.57
  -1   7   0 1094.10   10.14
  -1  -7  -1  597.61    9.00
   1   7   1  623.49    7.60
   1  -7   1  608.23    9.52
  -1   7  -1  603.04    9.33
  -1  -7  -2  754.14    8.18
   1   7   2  823.36    9.73
   1  -7   2  766.14    9.99
  -1   7  -2  820.26   10.12
  -1  -7  -3  540.95    8.88
   1  -7   3  549.66    7.61
   1   7   3  553.33    7.21
  -1   7  -3  571.03    7.54
  -1   7  -4  100.59    7.28
   1   7   4   93.78    5.43
  -1  -7  -4   93.40    5.23
   1  -7   4   96.63    7.30
   1  -7   5  276.43    6.33
  -1   7  -5  296.03    6.27
   1   7   5  306.68    6.29
  -1  -7  -5  285.22    7.91
  -1   7  -6   25.88    6.97
   1  -7   6   18.10    5.05
   1   7   6   20.69    5.11
  -1  -7  -6    7.77    7.20
  -1   7  -7  388.18    7.22
   1  -7   7  369.38    7.25
  -1  -7  -7  376.46    7.18
   1   7   7  381.58    7.22
   1   7   7  394.98    7.24
  -1   7  -8   43.88    8.08
   1  -7   8   41.07    5.84
   1   7   8   45.04    8.23
   1   7   8   37.39    8.24
  -1  -7  -8   37.74    8.23
   1   7   9  594.90    8.23
  -1   7  -9  616.97    8.39
   1  -7   9  580.17    8.46
  -1  -7  -9  599.28    8.09
   2   0   0 4287.06   32.66
   2   0   0 4232.78   33.51
   2   0   1   42.65    4.85
   2   0   1   11.08    4.53
   2   0   2 3695.18   25.88
   2   0   2 3673.54   27.27
  -2   0  -2 3816.71   26.67
   2   0   3   91.22    4.90
   2   0   3    6.87    3.83
  -2   0  -3   92.53    4.84
   2   0   5   98.87    4.39
   2   0   5   92.49    4.38
  -2   0  -5   87.93    4.33
   2   0   6   43.65    3.68
   2   0   6   75.45    3.96
  -2   0  -6   50.78    3.72
   2   0   7   52.40    4.34
  -2   0  -7   54.92    4.39
   2   0   8 1229.60   11.12
  -2   0  -8 1272.38   11.21
   2   0   9    6.20    3.96
  -2   0  -9    6.27    2.91
   2   0  10 3967.66   23.00
  -2   0 -10 4091.56   23.15
   2   0  11    7.64    4.11
  -2   0 -11    7.78    3.16
   2   0  12 5787.69   30.60
  -2   0 -12 5870.54   30.23
   2   0  13   31.83    5.24
  -2   0 -13   35.95    4.13
   2   0  14 5442.08   28.73
  -2   0 -14 5805.40   29.75
   2   0  15   20.82    3.50
  -2   0 -15   11.77    5.24
   2   0  16  395.88    6.03
  -2   0 -16  420.37    7.57
   2   0  17    2.38    5.65
  -2   0 -17    4.28    4.07
   2   0  18  654.56    8.39
  -2   0 -18  679.10    8.53
   2   0  19   -5.38    6.79
  -2   0 -19    6.00    4.70
   2   0  20 1554.40   13.14
  -2   0 -20 1576.58   13.03
   2   0  21   -8.57    5.83
   2   0  21  -12.12    8.28
  -2   0 -21   -0.31    8.18
   2  -1   0  240.92    8.56
  -2  -1   0  236.64    6.06
  -2   1   0  236.13    8.63
   2   1   0  245.91    6.29
   2   1   0  249.82    6.19
  -2  -1  -1 2696.81   19.66
   2  -1   1 2895.29   25.81
   2   1   1 2857.79   20.24
  -2   1  -1 2878.16   25.77
   2   1   1 2833.17   20.41
   2  -1   2  413.49    8.38
   2   1   2  415.43    7.24
  -2   1  -2  421.97    8.51
   2   1   2  401.15    7.16
   2   1   3 8455.27   40.95
  -2   1  -3 8388.96   48.64
   2   1   3 8300.79   42.86
   2  -1   4 2519.45   19.43
  -2   1  -4 2544.44   19.96
   2   1   4 2471.96   17.43
   2   1   4 2539.26   17.26
   2  -1   5  743.09    9.19
   2   1   5  744.46    8.21
  -2   1  -5  756.56    9.08
   2   1   5  724.49    8.45
   2  -1   6  102.30    4.93
   2   1   6   89.03    3.72
  -2   1  -6  104.06    4.95
   2   1   6  107.07    4.70
  -2  -1  -6  109.11    4.83
   2   1   7  818.78    8.76
   2  -1   7  808.19    9.08
   2   1   7  792.89    8.13
  -2   1  -7  819.37    9.30
  -2  -1  -7  850.33    8.96
   2   1   8  122.86    4.73
   2  -1   8  120.91    4.80
   2   1   8  127.69    4.68
  -2   1  -8  123.26    4.05
  -2  -1  -8  125.87    4.80
   2  -1   9  795.37    8.64
   2   1   9  791.58    7.84
  -2   1  -9  803.43    8.78
   2   1   9  808.54    8.03
  -2  -1  -9  806.81    7.95
   2  -1  10    4.00    3.95
   2   1  10    4.29    3.98
   2   1  10    6.69    2.79
  -2   1 -10    6.51    2.82
  -2  -1 -10    7.09    3.98
   2  -1  11 2387.90   15.53
   2   1  11 2432.08   15.19
   2   1  11 2346.51   14.45
  -2   1 -11 2487.72   16.24
  -2  -1 -11 2479.18   15.38
   2   1  12  204.72    4.82
   2  -1  12  209.43    4.90
   2   1  12  188.00    4.65
  -2   1 -12  193.25    4.97
  -2  -1 -12  206.54    4.85
   2   1  13 1983.83   13.40
   2  -1  13 1978.68   13.67
   2   1  13 1928.60   12.67
  -2   1 -13 2022.92   14.06
  -2  -1 -13 2059.29   13.67
   2  -1  14   82.67    3.94
   2   1  14   82.73    5.10
  -2   1 -14   85.76    5.31
   2   1  14   83.39    4.05
  -2  -1 -14   81.59    4.09
   2  -1  15 1163.94   10.12
   2   1  15 1172.96    9.92
  -2   1 -15 1243.80   10.53
   2   1  15 1170.92    9.49
  -2  -1 -15 1240.48    9.70
   2  -1  16  469.42    6.54
  -2  -1 -16  479.35    6.54
   2   1  16  458.77    6.40
  -2   1 -16  484.11    6.66
   2   1  16  467.28    6.54
   2  -1  17  181.26    6.37
   2   1  17  178.10    6.40
   2   1  17  173.78    5.05
  -2   1 -17  193.26    5.06
  -2  -1 -17  188.15    5.01
  -2  -1 -18   58.06    4.46
   2  -1  18   49.52    5.90
   2   1  18   57.41    5.88
  -2   1 -18   59.13    5.96
   2   1  18   54.77    4.50
   2   1  19  333.99    8.08
   2  -1  19  322.33    6.39
   2   1  19  316.45    7.88
  -2   1 -19  350.95    8.02
  -2  -1 -19  324.60    6.46
   2   1  20   63.76    7.21
   2  -1  20   58.37    5.15
   2   1  20   59.35    5.16
  -2   1 -20   54.15    7.10
  -2  -1 -20   65.55    7.14
   2   1  21 1392.84   11.31
   2  -1  21 1435.44   13.35
   2   1  21 1493.94   12.86
  -2   1 -21 1490.80   13.21
  -2  -1 -21 1411.52   11.40
   2   2   0 4109.80   23.58
  -2   2   0 4418.67   32.27
   2  -2   0 4170.73   31.66
  -2  -2   0 4059.85   23.50
   2   2   1  670.99    8.19
  -2  -2  -1  658.25    8.15
  -2   2  -1  702.64   10.60
   2  -2   1  664.55   10.28
  -2   2  -2 5289.58   32.97
   2  -2   2 4983.65   32.45
   2   2   2 4956.11   25.51
   2   2   2 4892.95   25.34
  -2  -2  -2 4768.60   24.65
  -2  -2  -3  993.86    9.30
  -2   2  -3 1072.31   12.00
   2   2   3 1063.39   10.15
   2   2   3 1068.00   10.19
   2  -2   3 1036.50   11.78
  -2  -2  -4 5064.38   24.87
  -2   2  -4 5294.77   31.04
   2   2   4 5185.22   25.82
   2   2   4 5151.70   25.23
   2  -2   4 5197.51   30.41
   2  -2   5  146.79    5.28
   2   2   5  146.97    5.11
  -2   2  -5  150.15    5.43
   2   2   5  151.20    5.09
   2  -2   6 1657.15   13.71
   2   2   6 1680.37   12.18
  -2   2  -6 1628.50   13.45
   2   2   6 1669.79   12.20
   2   2   7   74.83    4.53
   2  -2   7   71.82    4.55
  -2   2  -7   74.51    4.54
   2   2   7   62.66    3.33
   2  -2   8 2761.13   18.27
  -2   2  -8 2771.58   17.86
   2   2   8 2778.49   16.21
   2   2   8 2852.50   16.49
   2  -2   9   76.29    4.47
  -2   2  -9   49.78    3.32
   2   2   9   46.74    3.16
   2   2   9   50.44    4.36
   2  -2  10 1637.87   12.60
  -2   2 -10 1684.76   12.56
   2   2  10 1628.95   11.60
   2   2  10 1652.06   11.38
   2  -2  11  625.33    7.33
  -2   2 -11  637.69    8.08
   2   2  11  645.75    7.89
   2   2  11  639.69    7.78
   2  -2  12 1597.09   12.31
   2   2  12 1627.51   11.81
  -2   2 -12 1591.40   11.64
   2   2  12 1600.29   11.64
   2  -2  13 1132.99   10.33
   2   2  13 1158.56   10.01
   2   2  13 1119.88    9.18
  -2   2 -13 1193.26   10.36
   2  -2  14 1213.09   10.60
   2   2  14 1244.85   10.33
   2   2  14 1184.88    9.42
  -2   2 -14 1275.42   10.59
  -2  -2 -14 1305.43   10.49
   2  -2  15    8.13    4.26
   2   2  15    9.57    4.35
   2   2  15   10.00    4.04
  -2   2 -15   16.66    5.82
  -2  -2 -15   12.20    4.30
   2  -2  16  760.23    8.99
   2   2  16  804.69    8.99
   2   2  16  749.02    7.66
  -2   2 -16  793.45    8.11
  -2  -2 -16  819.43    8.95
   2  -2  17    8.23    5.91
   2   2  17    5.99    5.99
   2   2  17   12.36    4.16
  -2   2 -17   13.58    5.82
  -2  -2 -17   11.87    5.94
   2  -2  18  876.70   10.10
   2   2  18  893.79   10.13
   2   2  18  816.46    8.48
  -2   2 -18  898.46   10.12
  -2  -2 -18  897.86   10.19
   2  -2  19   22.08    5.08
   2   2  19   24.56    5.14
   2   2  19   18.57    7.05
  -2   2 -19   31.59    6.84
  -2  -2 -19   31.28    5.01
   2  -2  20  550.13    9.65
   2   2  20  521.82    7.85
   2   2  20  531.23    9.67
  -2   2 -20  528.90    8.00
  -2  -2 -20  538.94    8.04
  -2  -3   0  409.03    6.68
  -2   3   0  396.47    7.70
   2  -3   0  354.85    7.42
   2   3   0  421.17    6.56
   2   3   1  255.86    4.85
  -2   3  -1  258.32    6.46
   2  -3   1  255.66    7.04
  -2  -3  -1  255.12    5.67
   2   3   2  489.11    6.27
  -2   3  -2  493.84    7.99
   2  -3   2  490.27    7.97
  -2  -3  -2  483.62    6.90
  -2  -3  -3 1340.76   10.69
  -2   3  -3 1367.51   12.87
   2  -3   3 1347.20   12.67
   2   3   3 1376.80   10.39
   2   3   3 1358.04   10.21
  -2   3  -4  669.73    8.17
   2  -3   4  676.20    8.70
  -2  -3  -4  672.21    7.66
   2   3   4  696.33    7.74
   2   3   4  696.92    7.80
  -2   3  -5 1667.63   13.53
   2   3   5 1672.58   11.71
   2  -3   5 1650.92   13.54
   2   3   5 1653.71   11.68
  -2  -3  -5 1635.38   11.58
  -2  -3  -6  141.37    4.86
  -2   3  -6  144.69    5.05
   2   3   6  150.54    4.90
   2  -3   6  143.59    5.00
   2   3   6  140.46    3.91
  -2   3  -7 1927.47   14.14
   2   3   7 1917.02   12.18
  -2  -3  -7 1836.93   11.82
   2   3   7 1859.44   11.90
   2  -3   7 1898.55   14.23
  -2   3  -8   91.47    3.67
   2   3   8   99.92    4.63
   2   3   8   97.04    4.62
   2  -3   8   91.12    4.67
   2   3   9 1973.54   12.97
  -2   3  -9 1910.23   13.40
   2   3   9 1821.58   11.62
   2  -3   9 1932.70   14.34
   2   3  10   46.45    5.04
  -2   3 -10   39.22    3.69
   2   3  10   31.60    3.59
   2  -3  10   44.77    4.96
   2   3  11 1541.73   10.72
  -2   3 -11 1615.42   11.89
   2   3  11 1601.65   11.48
   2  -3  11 1593.55   12.49
   2  -3  12 1833.58   13.51
   2   3  12 1873.03   12.05
  -2   3 -12 1927.10   13.78
   2   3  12 1849.93   12.24
   2  -3  13  684.59    8.39
   2   3  13  682.95    8.25
  -2   3 -13  698.45    8.81
   2   3  13  672.81    7.24
   2   3  14  464.28    7.62
   2  -3  14  429.52    6.47
  -2   3 -14  439.29    6.53
   2   3  14  428.63    6.28
   2  -3  15 2138.74   15.08
  -2   3 -15 2235.94   15.29
   2   3  15 2166.85   13.99
   2   3  15 2184.80   13.40
   2  -3  16   84.18    6.90
  -2   3 -16   94.32    4.70
   2   3  16   95.68    6.77
   2   3  16   88.07    6.97
   2  -3  17  803.37    8.84
   2   3  17  810.17    8.37
  -2   3 -17  841.69   10.02
   2   3  17  842.28    9.91
   2  -3  18   28.33    5.25
   2   3  18   36.99    5.20
  -2   3 -18   32.25    5.12
   2   3  18   29.17    7.29
   2  -3  19 1445.31   12.13
   2   3  19 1472.30   13.26
  -2   3 -19 1489.06   13.28
   2   3  19 1461.83   11.64
   2  -4   0 1124.82   11.62
  -2   4   0 1145.61   11.57
  -2  -4   0 1165.23    9.78
   2   4   0 1178.98    9.80
  -2  -4  -1  202.96    4.39
  -2   4  -1  227.50    5.79
   2  -4   1  231.08    5.83
   2   4   1  246.12    5.32
  -2   4  -2   54.19    4.42
   2   4   2   57.48    4.22
   2  -4   2   72.04    4.48
  -2  -4  -2   57.55    4.33
   2   4   3 1040.30    8.53
  -2   4  -3 1021.54    9.98
   2  -4   3 1006.52   10.47
  -2  -4  -3  987.39    8.46
   2   4   4  107.29    4.08
  -2  -4  -4  110.76    5.26
  -2   4  -4  114.85    5.47
   2  -4   4  102.98    5.33
   2   4   4  111.31    5.32
   2   4   5  444.58    6.81
  -2   4  -5  421.70    7.23
   2  -4   5  413.81    7.23
   2   4   5  424.90    5.84
  -2  -4  -5  422.39    6.80
  -2   4  -6 1534.46   12.88
  -2  -4  -6 1449.01   10.26
   2  -4   6 1482.42   12.50
   2   4   6 1484.14   10.47
   2   4   6 1552.67   11.11
  -2   4  -7   20.22    3.61
  -2  -4  -7   19.87    3.58
   2  -4   7   23.75    4.88
   2   4   7   20.08    5.03
   2   4   7   22.94    3.47
  -2   4  -8 2449.42   16.67
   2  -4   8 2358.42   16.45
   2   4   8 2431.12   13.81
   2   4   8 2327.76   13.79
  -2  -4  -8 2289.29   13.51
  -2   4  -9   19.10    4.90
  -2  -4  -9   14.21    3.44
   2   4   9   20.21    3.65
   2  -4   9   18.71    3.61
   2   4   9    7.62    3.56
  -2   4 -10  902.01    8.73
   2   4  10  960.44    9.27
   2  -4  10  897.94    9.48
   2   4  10  892.20    8.86
  -2   4 -11  293.95    5.76
   2   4  11  308.33    7.18
   2   4  11  304.20    6.92
   2  -4  11  297.62    7.13
  -2   4 -12    5.24    4.08
   2   4  12   11.05    5.83
   2   4  12    9.49    4.04
   2  -4  12    5.02    5.72
   2   4  13  277.60    5.48
  -2   4 -13  285.61    5.61
   2   4  13  271.34    6.76
   2  -4  13  254.86    5.52
   2   4  14  416.48    6.69
  -2   4 -14  417.36    6.82
   2   4  14  393.38    6.62
   2  -4  14  395.92    8.38
   2   4  15   13.82    4.94
  -2   4 -15   14.44    6.79
   2   4  15    4.72    6.98
   2  -4  15    2.66    6.98
   2   4  16 1766.11   13.20
  -2   4 -16 1735.74   13.90
   2   4  16 1787.09   13.12
   2  -4  16 1720.02   14.12
   2   4  17   43.88    8.41
  -2   4 -17   47.38    8.16
   2   4  17   38.77    6.10
   2  -4  17   54.38    8.16
  -2   5   0 1038.47   11.05
  -2  -5   0 1014.81    9.40
   2   5   0 1053.22    9.48
   2  -5   0 1001.63   10.97
   2  -5   1 1225.75   11.98
  -2  -5  -1 1220.33   10.19
  -2   5  -1 1239.75   11.40
   2   5   1 1272.46   10.25
  -2   5  -2   90.27    5.32
   2  -5   2   85.41    5.34
   2   5   2   91.04    5.29
  -2  -5  -2   83.70    5.28
  -2   5  -3  299.77    6.51
   2  -5   3  275.52    6.44
   2   5   3  284.92    5.07
  -2  -5  -3  288.20    6.16
  -2   5  -4   82.54    5.31
   2   5   4   81.83    5.25
   2  -5   4   76.17    5.24
  -2  -5  -4   76.37    5.30
  -2  -5  -5 1410.27   10.94
   2   5   5 1498.88   10.67
  -2   5  -5 1470.50   12.88
   2  -5   5 1376.09   11.97
   2   5   5 1452.31   11.19
   2   5   6  420.79    7.73
  -2   5  -6  411.82    7.95
   2  -5   6  383.13    6.61
  -2  -5  -6  394.60    7.54
   2   5   6  415.55    7.65
   2   5   7 4170.71   20.56
  -2   5  -7 4106.25   25.04
  -2  -5  -7 3799.52   18.42
   2  -5   7 3995.89   24.75
   2   5   7 3993.69   19.87
   2   5   8  616.86    8.38
  -2   5  -8  616.81    8.81
   2  -5   8  584.34    7.61
  -2  -5  -8  561.67    6.93
   2   5   8  578.25    7.00
  -2  -5  -9  963.61    9.50
  -2   5  -9  990.12   10.40
   2  -5   9  931.72    9.41
   2   5   9  966.02    9.56
   2   5   9  973.96    9.60
  -2  -5 -10  127.54    6.38
  -2   5 -10  130.14    4.91
   2  -5  10  128.98    4.98
   2   5  10  138.52    6.42
   2   5  10  130.37    4.90
  -2   5 -11  528.32    9.03
   2  -5  11  538.38    8.96
   2   5  11  526.48    7.27
   2   5  11  560.12    8.84
  -2   5 -12  119.30    7.16
   2  -5  12  118.51    5.43
   2   5  12  120.62    7.26
   2   5  12  116.31    5.41
  -2   5 -13   10.70    6.79
   2  -5  13   10.64    6.88
   2   5  13    7.35    4.99
   2   5  13   13.97    6.90
  -2   5 -14   66.84    8.16
   2  -5  14   78.94    8.15
   2   5  14   72.96    8.20
   2   5  14   75.29    8.21
  -2   6   0  350.99    6.49
  -2  -6   0  345.40    7.25
   2   6   0  366.51    7.33
   2  -6   0  344.73    7.62
  -2  -6  -1    5.98    4.23
  -2   6  -1   13.14    4.17
   2   6   1   14.94    4.19
   2  -6   1    5.03    4.20
  -2   6  -2   11.36    5.82
   2   6   2    5.81    5.84
  -2  -6  -2    7.35    5.88
   2  -6   2    8.92    5.80
   2  -6   3   81.58    6.20
  -2   6  -3   86.70    6.26
   2   6   3   87.28    6.16
  -2  -6  -3   79.94    6.24
   2  -6   4  158.03    7.55
  -2   6  -4  166.78    7.62
   2   6   4  171.63    5.70
  -2  -6  -4  150.85    5.65
  -2   6  -5   64.83    5.34
   2  -6   5   55.61    7.19
  -2  -6  -5   64.67    7.20
   2   6   5   62.75    5.17
   2   6   5   68.86    7.26
  -2   6  -6 1009.92   11.44
   2  -6   6  943.73   11.56
   2   6   6  977.09    9.10
   2   6   6  985.00   10.64
  -2  -6  -6  943.87   10.39
   2   6   7 1021.43    9.35
  -2   6  -7 1013.93   10.30
   2  -6   7  999.16   11.69
  -2  -6  -7  977.83   10.60
   2   6   7  999.08    9.25
   2   6   8  515.24    7.33
  -2   6  -8  527.94    9.12
   2  -6   8  503.89    9.22
   2   6   8  525.21    8.89
  -2  -6  -8  511.05    8.75
   2   6   9   19.02    7.56
  -2   6  -9   13.84    7.55
   2  -6   9   13.92    7.61
  -2  -6  -9   19.62    5.02
   2   6   9   17.35    5.06
   2   6  10  398.41    7.31
  -2   6 -10  382.82    7.46
   2  -6  10  374.48    9.55
  -2  -6 -10  381.85    9.24
   2   6  10  394.39    9.32
  -2   7   0  509.95   10.41
  -2  -7   0  472.79    7.93
   2  -7   0  501.52   10.33
   2   7   0  510.42    9.91
  -2   7  -1  496.60   10.30
   2   7   1  511.17    9.82
   2  -7   1  463.94    8.25
  -2  -7  -1  490.74    9.78
  -2   7  -2   51.31    8.29
  -2  -7  -2   49.80    5.97
   3   0   0 2995.14   27.50
   3   0   0 2939.57   28.17
   3   0   1   -1.71    5.18
   3   0   1   -0.01    4.05
   3   0   2  586.07   10.12
   3   0   2  576.10    9.65
   3   0   3   -1.04    4.95
   3   0   3   -0.83    3.92
   3   0   4  359.13    7.21
   3   0   4  376.42    7.38
   3   0   5   -1.03    5.76
   3   0   5    0.88    4.83
   3   0   6   31.45    5.15
   3   0   6   29.56    4.95
  -3   0  -6   24.54    3.75
   3   0   7    1.78    5.02
   3   0   7   -3.31    4.91
  -3   0  -7   -2.24    5.05
   3   0   8 3565.71   24.35
  -3   0  -8 3653.34   23.84
   3   0   8 3363.95   22.04
   3   0   9    1.48    4.95
   3   0   9    0.23    5.12
  -3   0  -9   -0.65    5.10
   3   0  10 1014.11    9.97
   3   0  10 1042.41   10.61
  -3   0 -10 1086.17   10.82
   3   0  11    0.85    5.91
   3   0  11   -1.61    4.13
  -3   0 -11   -0.50    5.99
   3   0  12  100.14    4.80
   3   0  12  109.44    6.18
  -3   0 -12  104.47    4.79
   3   0  13    3.76    5.81
   3   0  13   -3.58    5.78
  -3   0 -13    0.32    5.88
   3   0  14   83.70    7.31
   3   0  14   94.08    6.65
  -3   0 -14   90.52    7.21
   3   0  15    3.23    6.91
   3   0  15    0.62    6.77
  -3   0 -15   -0.22    6.89
   3   0  16  197.15    8.00
   3   0  16  202.80    7.85
  -3   0 -16  194.89    6.19
   3   0  17   -0.42    8.29
   3   0  17    1.65    8.09
  -3   0 -17   -0.70    8.32
   3   1   0   15.20    4.33
   3  -1   0   14.30    6.90
   3   1   0   15.85    4.28
   3  -1   0   14.14    6.82
   3  -1   1 1684.64   20.82
   3  -1   1 1714.13   21.57
   3   1   1 1675.09   16.06
   3   1   1 1734.52   15.91
   3  -1   2  106.59    6.23
   3  -1   2  104.50    6.41
   3   1   2  104.39    5.07
   3   1   2  108.66    5.17
  -3   1  -2   97.59    5.50
   3  -1   3  821.64   11.73
   3   1   3  858.43   10.26
   3   1   3  828.30   10.20
   3  -1   3  818.99   11.71
  -3   1  -3  843.13   12.35
   3  -1   4    3.40    4.52
   3  -1   4    4.46    4.32
   3   1   4    5.02    4.88
   3   1   4    4.48    4.37
  -3   1  -4    3.68    4.50
   3  -1   5  185.00    6.35
   3   1   5  202.33    6.35
   3  -1   5  190.35    6.58
   3   1   5  192.73    5.12
  -3   1  -5  205.21    6.57
   3   1   6   72.83    5.58
   3  -1   6   70.21    5.49
   3   1   6   70.43    5.41
   3  -1   6   66.72    5.60
  -3   1  -6   72.00    5.59
   3  -1   7 4321.11   29.19
   3  -1   7 4403.34   29.82
   3   1   7 4305.73   26.14
  -3   1  -7 4446.26   30.04
   3   1   7 4243.33   25.78
   3  -1   8  637.94    9.33
   3   1   8  653.79    8.92
   3  -1   8  657.87    9.44
   3   1   8  663.51    9.04
  -3   1  -8  667.68    9.57
   3  -1   9 2282.14   17.62
   3   1   9 2287.88   16.46
   3   1   9 2260.29   15.82
  -3   1  -9 2346.85   18.04
   3  -1  10  386.72    7.33
   3   1  10  395.59    7.25
   3   1  10  415.74    7.35
  -3   1 -10  399.14    6.52
   3  -1  11 1329.73   12.61
   3   1  11 1348.17   12.11
   3   1  11 1374.02   12.39
  -3   1 -11 1356.02   12.90
   3  -1  12    5.95    5.80
   3   1  12   -1.58    6.16
   3   1  12   -3.66    5.84
  -3   1 -12   -0.03    5.86
  -3  -1 -12    4.70    4.20
   3  -1  13  444.19    7.96
   3   1  13  436.94    8.03
   3   1  13  436.57    7.96
  -3   1 -13  448.19    8.01
  -3  -1 -13  449.25    8.06
   3  -1  14   43.13    5.09
   3   1  14   51.75    7.16
   3   1  14   42.46    7.00
  -3   1 -14   43.15    7.14
  -3  -1 -14   51.49    7.18
   3  -1  15  640.21    9.59
   3   1  15  651.77    9.84
   3   1  15  653.32    9.49
  -3   1 -15  631.39    8.29
  -3  -1 -15  654.80    9.89
   3   1  16    6.94    5.09
   3  -1  16   -1.55    5.04
   3   1  16    1.16    7.49
  -3   1 -16    6.43    7.59
  -3  -1 -16   -2.10    5.15
   3   1  17 1228.38   13.10
   3  -1  17 1227.14   13.05
   3   1  17 1234.66   12.69
   3  -1  17 1198.42   11.50
  -3   1 -17 1198.64   13.07
  -3  -1 -17 1244.85   13.20
   3  -2   0 1320.39   22.37
   3   2   0 1334.90   12.69
   3  -2   0 1333.11   22.13
  -3  -2   0 1275.07   12.19
   3   2   0 1312.81   12.53
  -3   2   0 1324.54   22.51
   3   2   1   52.14    5.15
  -3  -2  -1   55.87    5.18
   3  -2   1   50.48    6.52
  -3   2  -1   52.76    6.71
   3   2   1   50.29    3.82
   3   2   2  585.84    8.47
   3  -2   2  571.49   11.23
  -3   2  -2  570.22   11.29
   3   2   2  570.96    8.34
  -3   2  -3  250.29    8.17
   3   2   3  250.62    6.37
   3  -2   3  249.17    8.07
   3   2   3  249.85    6.46
  -3   2  -4  432.56    8.66
   3   2   4  449.00    7.49
   3   2   4  447.46    7.62
   3  -2   4  430.10    9.35
   3   2   5  200.41    6.18
  -3   2  -5  189.63    6.51
   3   2   5  193.82    5.99
   3  -2   5  188.33    6.40
   3  -2   6 1029.46   12.31
   3   2   6 1059.71   10.68
   3   2   6 1040.98   10.45
  -3   2  -6 1005.76   12.14
   3  -2   7  594.92    9.11
   3   2   7  613.30    8.39
   3   2   7  581.51    8.12
  -3   2  -7  579.83    9.10
   3  -2   8 1903.87   17.13
   3   2   8 1892.78   13.85
   3   2   8 1893.83   13.75
  -3   2  -8 1924.93   17.06
   3  -2   9  187.10    6.84
   3   2   9  185.22    5.34
   3   2   9  192.35    6.74
  -3   2  -9  193.11    7.06
   3  -2  10  939.34   10.97
   3   2  10  979.03   10.45
   3   2  10  966.36   10.19
  -3   2 -10  947.91   11.20
   3   2  11   24.89    4.43
   3  -2  11   26.83    5.91
   3   2  11   20.16    5.94
  -3   2 -11   26.21    6.04
   3   2  12  963.98   10.48
   3  -2  12  933.62   10.74
   3   2  12  938.42   10.05
  -3   2 -12  961.32   10.95
   3  -2  13  233.44    6.20
   3   2  13  229.37    7.78
  -3   2 -13  239.97    7.96
   3   2  13  243.54    8.05
   3  -2  14  650.81    8.59
   3   2  14  653.69    8.11
  -3   2 -14  682.29   10.12
   3   2  14  670.13    8.37
   3  -2  15   44.83    7.17
   3   2  15   47.24    5.26
  -3   2 -15   40.66    7.24
   3   2  15   51.90    7.47
   3  -2  16  532.43    8.37
   3   2  16  531.20    9.87
  -3   2 -16  536.19   10.25
   3   2  16  537.75   10.32
   3  -3   0  888.72   14.65
  -3  -3   0  895.88    9.88
   3   3   0  915.41    9.95
  -3   3   0  858.93   14.87
   3   3   0  915.66   10.02
   3   3   1  818.18    9.40
   3  -3   1  813.48   13.25
  -3   3  -1  794.38   13.50
  -3  -3  -1  807.63    9.30
   3   3   1  821.24    9.45
   3   3   2   12.29    3.46
   3  -3   2   10.18    5.99
  -3   3  -2   11.78    6.17
  -3  -3  -2    8.53    3.50
   3   3   2   11.46    4.94
   3   3   3 2495.26   17.06
   3  -3   3 2442.62   24.07
  -3   3  -3 2364.63   23.33
   3   3   3 2461.18   16.77
  -3  -3  -3 2386.45   16.40
   3   3   4   22.33    4.96
  -3   3  -4   20.11    6.31
   3  -3   4   15.40    5.04
   3   3   4   18.75    5.01
  -3  -3  -4   17.12    5.00
  -3   3  -5  708.96   10.42
   3  -3   5  717.05   10.32
   3   3   5  714.46    8.60
   3   3   5  748.20    8.77
  -3   3  -6    7.62    4.92
   3   3   6    0.24    3.41
   3  -3   6    2.08    5.32
   3   3   6    3.44    4.95
  -3   3  -7  347.99    8.04
   3   3   7  352.03    7.36
   3   3   7  361.69    7.60
   3  -3   7  344.20    7.99
  -3   3  -8  553.34    9.27
   3   3   8  563.86    8.57
   3   3   8  555.82    8.26
   3  -3   8  548.30    9.18
   3   3   9  301.66    7.37
  -3   3  -9  281.19    6.20
   3   3   9  291.47    7.07
   3  -3   9  290.79    7.47
   3   3  10  244.35    7.14
  -3   3 -10  231.17    7.13
   3   3  10  222.59    5.41
   3  -3  10  224.79    7.13
   3   3  11  580.15    7.89
  -3   3 -11  574.56    9.83
   3   3  11  560.37    9.08
   3  -3  11  552.27    8.37
   3   3  12    0.01    7.21
   3   3  12    4.96    6.85
  -3   3 -12    1.81    7.04
   3  -3  12    3.69    4.86
   3   3  13  754.67   10.12
   3   3  13  708.85    9.66
  -3   3 -13  700.90   10.41
   3  -3  13  680.23    9.12
   3   3  14  287.83    9.35
   3   3  14  292.73    9.02
  -3   3 -14  279.14    9.24
   3  -3  14  290.26    9.15
  -3  -4   0  673.45    9.06
  -3   4   0  697.75   12.76
   3   4   0  718.05    9.12
   3  -4   0  662.53   11.44
   3  -4   1   30.44    5.96
  -3  -4  -1   27.84    6.05
   3   4   1   28.97    6.05
  -3   4  -1   27.71    6.21
   3   4   1   32.34    6.09
   3  -4   2 1228.95   15.29
   3   4   2 1286.76   11.78
  -3   4  -2 1235.98   15.32
  -3  -4  -2 1236.03   11.41
   3   4   2 1296.29   11.82
   3   4   3  103.47    6.49
  -3  -4  -3  102.66    6.50
   3  -4   3  100.66    6.71
  -3   4  -3  100.10    8.11
   3   4   3  107.23    6.49
   3   4   4 2247.20   15.80
   3  -4   4 2099.02   21.31
  -3   4  -4 2172.62   21.01
  -3  -4  -4 2031.31   13.87
   3   4   4 2159.55   15.42
   3   4   5    1.60    4.29
   3  -4   5    3.00    5.91
  -3   4  -5    1.62    6.14
  -3  -4  -5   -1.16    4.29
   3   4   5    5.59    4.22
   3   4   6 1262.90   11.41
  -3   4  -6 1216.16   13.96
   3  -4   6 1193.61   13.99
  -3  -4  -6 1173.85   10.92
   3   4   6 1195.44   11.12
  -3   4  -7  202.75    7.23
   3  -4   7  199.41    7.28
   3   4   7  202.78    6.83
   3   4   7  209.46    6.99
  -3   4  -8  117.74    7.47
   3  -4   8  110.13    7.43
   3   4   8  114.17    7.40
   3   4   8  117.04    7.45
  -3   4  -9  462.95    7.97
   3  -4   9  450.71    9.33
   3   4   9  472.51    8.79
   3   4   9  487.45    8.85
  -3   4 -10  191.75    8.01
   3   4  10  201.63    7.63
   3  -4  10  184.14    7.91
   3   4  10  195.81    6.06
  -3   4 -11  289.68    8.50
   3   4  11  294.11    6.44
   3   4  11  303.07    8.84
   3  -4  11  277.43    6.78
  -3   4 -12  738.68   10.01
   3   4  12  740.99   10.84
   3   4  12  768.14    9.29
   3  -4  12  761.89   11.89
  -3   5   0  202.51    9.92
   3   5   0  205.69    7.67
  -3  -5   0  196.60    7.22
   3  -5   0  198.02    9.64
  -3   5  -1  363.91    9.56
  -3  -5  -1  343.35    8.37
   3   5   1  365.24    8.23
   3  -5   1  337.55    9.17
   3   5   1  370.39    8.49
   3  -5   2   -0.40    6.99
  -3  -5  -2    0.09    5.11
  -3   5  -2    0.08    7.14
   3   5   2    1.14    4.89
   3   5   2    3.05    5.04
   3  -5   3  645.68   11.31
   3   5   3  686.91    9.64
  -3   5  -3  686.35   12.94
  -3  -5  -3  678.42    9.56
   3   5   3  692.63    9.74
   3  -5   4  187.69    9.67
   3   5   4  200.40    6.03
  -3   5  -4  192.36    8.27
  -3  -5  -4  185.35    5.97
   3   5   4  194.60    7.96
   3   5   5 1069.87   11.24
   3  -5   5 1050.48   14.23
  -3   5  -5 1039.48   14.11
  -3  -5  -5 1023.22   11.02
   3   5   5 1046.27    9.77
   3   5   6  148.02    7.61
   3  -5   6  148.25    7.74
  -3   5  -6  148.55    7.82
   3   5   6  152.98    7.56
  -3  -5  -6  138.64    7.62
  -3  -5  -7  142.18    7.48
   3   5   7  150.14    8.12
   3  -5   7  134.64    8.21
  -3   5  -7  145.83    8.21
   3   5   7  143.22    5.72
   3   5   8   21.77    8.13
   3  -5   8   29.02    7.96
  -3   5  -8   24.88    8.03
   3   5   8   22.46    7.92
   3   5   9   -0.73    5.76
  -3   6   0  166.74    9.35
   3  -6   0  172.47    9.18
   3   6   0  173.87    6.55
  -3  -6   0  175.59    8.81
  -3   6  -1  197.37    9.52
  -3  -6  -1  193.97    9.06
   4   0   0   79.31   10.78
   4   0   0   75.39   10.21
   4   0   1   -0.26    8.32
   4   0   1    0.63    8.32
   4   0   2  634.96   13.24
   4   0   2  625.53   13.79
   4   0   3   -1.60    7.30
   4   0   3    0.00    7.56
   4   0   4 2019.18   25.27
   4   0   4 1999.11   22.92
   4   0   5    0.54    6.15
   4   0   5    0.46    8.19
   4   0   6 1569.26   19.27
   4   0   6 1628.71   19.38
   4   0   7    1.57    7.34
   4   0   7   -2.41    7.13
   4   0   8  946.98   13.86
   4   0   8 1000.07   14.02
   4   0   9    3.89    6.94
   4   0   9    2.33    5.12
   4   0  10   10.52    8.19
   4   0  10    8.88    8.43
   4   1   0  207.32    7.88
   4   1   0  201.61    7.98
   4   1   1   15.40    7.37
   4   1   1   11.58    7.49
   4   1   2    0.97    7.33
   4   1   2   -0.43    7.25
   4  -1   2   -0.58    9.53
   4  -1   2    2.31    8.40
   4  -1   3  650.08   15.78
   4   1   3  598.83   10.68
   4   1   3  628.40   11.94
   4  -1   3  639.80   14.89
   4  -1   4   79.63    8.28
   4  -1   4   80.36    8.33
   4   1   4   77.39    6.72
   4   1   4   79.01    6.78
   4  -1   5  992.33   17.89
   4  -1   5  989.34   16.62
   4   1   5  967.35   13.85
   4   1   5 1001.47   13.73
   4  -1   6    0.99    7.09
   4   1   6    3.43    7.06
   4   1   6    8.29    7.18
   4  -1   6    2.25    7.34
   4  -1   7 1083.55   16.70
   4   1   7 1081.02   14.17
   4   1   7 1145.95   14.54
   4  -1   7 1099.37   15.67
   4  -1   8    0.66    8.53
   4   1   8    2.33    7.28
   4   1   8    2.75    7.11
   4  -1   8    6.84    7.21
   4  -1   9   34.26    8.24
   4  -1   9   40.36    8.44
   4   1   9   41.37    8.00
   4   1   9   40.51    7.76
  -4   1  -9   40.48    8.46
   4  -1  10  154.33    8.71
   4   1  10  153.30    9.04
   4  -1  10  154.15    9.15
   4   1  10  148.59    6.73
  -4   1 -10  158.18    8.98
   4   2   0  736.65   12.34
   4   2   0  732.06   12.73
   4   2   1  300.01    8.18
   4   2   1  285.34    8.24
   4   2   2  253.29    8.24
   4  -2   2  242.19   20.32
   4   2   2  255.79    8.21
   4  -2   2  246.80   19.96
   4  -2   3  244.19   11.71
   4   2   3  260.52    8.67
   4  -2   3  256.74   11.78
   4   2   3  263.96    8.69
   4   2   4  537.47   10.41
   4   2   4  522.52   10.34
   4  -2   4  504.95   13.76
   4  -2   4  543.91   14.69
   4  -2   5  591.24   14.00
   4   2   5  570.83   10.63
   4  -2   5  606.11   15.05
  -4   2  -5  560.41   12.45
   4   2   5  588.42   10.66
   4  -2   6  748.79   14.98
   4   2   6  748.98   11.66
   4   2   6  766.06   11.66
   4  -2   6  786.01   16.52
  -4   2  -6  722.20   13.56
   4   2   7  215.57    8.22
   4  -2   7  213.44    8.92
   4   2   7  229.42    8.42
  -4   2  -7  203.82    8.87
   4  -2   7  228.66   10.45
   4  -2   8  205.04    9.64
   4   2   8  220.43    9.18
   4   2   8  225.02    9.24
  -4   2  -8  216.05    9.58
   4  -2   8  212.70    9.68
   4  -2   9  256.16   10.07
   4   2   9  269.86    9.34
   4   2   9  264.68    9.76
  -4   2  -9  257.47   10.01
   4  -2   9  255.15   10.08
   4   3   0  241.07    8.45
   4   3   0  220.82    8.31
   4   3   1  732.82   10.09
   4   3   1  774.92   11.71
   4   3   2    3.63    7.21
   4   3   2   -0.78    7.13
   4  -3   2    2.99   13.64
   4  -3   2    3.14   13.37
   4  -3   3  545.13   16.11
   4   3   3  570.29   10.30
   4   3   3  539.47   10.08
  -4   3  -3  524.28   16.56
   4  -3   3  542.48   16.88
   4   3   4  431.04    9.54
   4  -3   4  432.10   13.62
   4   3   4  412.28    9.31
  -4   3  -4  398.34   13.13
   4  -3   4  400.64   13.25
   4   3   5   84.72    8.68
   4  -3   5   79.88   10.91
   4  -3   5   84.67   10.69
   4   3   5   82.50    8.32
  -4   3  -5   76.98   10.62
   4   3   6  232.99    9.30
   4  -3   6  226.22   12.03
   4  -3   6  237.10   10.44
   4   3   6  217.65    7.03
  -4   3  -6  217.44   11.76
  -4  -4   0 1086.81   13.83
   4   4   0 1150.00   13.87
   4   4   0 1105.48   14.02
   4  -4   1   59.00   19.61
   4   4   1   66.80    8.57
   4  -4   1   56.67   17.77
   4   4   1   64.29    8.53
  -4   4  -1   58.87   17.55
  -4  -4  -1   68.01    8.45
;
_shelx_hkl_checksum              65588
_shelx_res_file
;
TITL TA5AG   IPDS  -50DEGC                  NEW:P2/N
    H:\TA5\TA5Ag_OK\mulabs\ta5ag_pl.res
    created by SHELXL-2018/3 at 14:06:38 on 27-Jan-2020
CELL  0.71073  3.89950  6.39020 20.57410 90.00000 93.12100 90.00000
ZERR 2  0.00030  0.00060  0.00180  0.00000  0.00900  0.00000
LATT 1
SYMM -X+ 0.50000, Y, -Z+ 0.50000
SFAC C H AG N O S
UNIT 16 16 2 6 6 4
TEMP -50
SIZE 0.45 0.10 0.10
L.S. 11
FMAP 2
PLAN 20
ACTA
CONF
BOND $H
HTAB
EQIV $4 X, Y-1, Z
HTAB C3 O1_$4
HTAB C4 O1
WGHT    0.020000    0.392800
FVAR       0.99599
AG1   3    0.250000    0.735799    0.750000    10.50000    0.03440    0.01965 =
         0.01297    0.00000    0.00761    0.00000
S1    6   -0.022630    0.644172    0.851760    11.00000    0.01368    0.01442 =
         0.01087    0.00061   -0.00013    0.00041
O1    5    0.617763    1.045115    0.795158    11.00000    0.03829    0.02183 =
         0.02300    0.00209    0.00905   -0.00585
O2    5    0.750000    1.337051    0.750000    10.50000    0.04507    0.00977 =
         0.02280    0.00000   -0.00584    0.00000
N1    4    0.494675    0.287440    0.979746    11.00000    0.01553    0.01336 =
         0.01185    0.00014    0.00153   -0.00086
N2    4    0.750000    1.142278    0.750000    10.50000    0.01750    0.01456 =
         0.01437    0.00000   -0.00401    0.00000
C1    1    0.346116    0.440794    0.944064    11.00000    0.01273    0.01447 =
         0.01063    0.00090    0.00205   -0.00124
C2    1    0.351608    0.649940    0.963789    11.00000    0.01357    0.01337 =
         0.01040    0.00055    0.00201   -0.00051
C3    1    0.166613    0.394880    0.879257    11.00000    0.01748    0.01253 =
         0.01262   -0.00101   -0.00135    0.00067
AFIX  23
H3A   2   -0.012208    0.288847    0.883653    11.00000   -1.20000
H3B   2    0.330073    0.344062    0.848344    11.00000   -1.20000
AFIX   0
C4    1    0.180075    0.803988    0.917369    11.00000    0.01980    0.01283 =
         0.01144   -0.00130   -0.00154    0.00057
AFIX  23
H4A   2    0.349176    0.899858    0.900192    11.00000   -1.20000
H4B   2    0.007436    0.886025    0.939085    11.00000   -1.20000
AFIX   0
HKLF 4 1 1.0000 0.0000 0.0000 0.0000 -1.0000 0.0000 -1.0000 0.0000 -1.0000
REM  TA5AG   IPDS  -50DEGC                  NEW:P2/N
REM wR2 = 0.0412, GooF = S = 1.145, Restrained GooF = 1.145 for all data
REM R1 = 0.0156 for 905 Fo > 4sig(Fo) and 0.0170 for all 958 data
REM 79 parameters refined using 0 restraints
END
WGHT      0.0200      0.3925
REM Instructions for potential hydrogen bonds
HTAB C3 O1_$4
HTAB C4 O1
REM Highest difference peak  0.314,  deepest hole -0.267,  1-sigma level  0.064
Q1    1   0.2620  0.4179  0.9113  11.00000  0.05    0.31
Q2    1   0.0736  0.5123  0.8683  11.00000  0.05    0.27
Q3    1   0.0979  0.6664  0.7371  11.00000  0.05    0.26
Q4    1   0.6034  0.3137  1.0016  11.00000  0.05    0.26
Q5    1   0.3844  0.5485  0.9511  11.00000  0.05    0.26
Q6    1   0.1044  0.7294  0.8902  11.00000  0.05    0.25
Q7    1   0.2450  0.7334  0.9432  11.00000  0.05    0.24
Q8    1   0.3958  0.3566  0.9681  11.00000  0.05    0.23
Q9    1  -0.5139  0.6558  0.8482  11.00000  0.05    0.21
Q10   1   0.7501  0.9064  0.8578  11.00000  0.05    0.20
Q11   1   0.5837  0.9727  0.8000  11.00000  0.05    0.19
Q12   1   0.5242  0.7519  0.7417  11.00000  0.05    0.19
Q13   1   0.2608  0.3679  0.8613  11.00000  0.05    0.19
Q14   1   0.4223  0.2428  0.9869  11.00000  0.05    0.19
Q15   1   0.5670  0.2303  0.9707  11.00000  0.05    0.18
Q16   1  -0.2500  0.7119  0.7500  10.50000  0.05    0.17
Q17   1   0.7253  1.0810  0.8245  11.00000  0.05    0.17
Q18   1   0.7500  1.2486  0.7500  10.50000  0.05    0.16
Q19   1   0.2849  1.0790  0.8674  11.00000  0.05    0.15
Q20   1   0.7529  1.3479  0.7141  11.00000  0.05    0.14
;
_shelx_res_checksum              38379
loop_
_space_group_symop_operation_xyz
'x, y, z'
'-x+1/2, y, -z+1/2'
'-x, -y, -z'
'x-1/2, -y, z-1/2'
loop_
_atom_site_type_symbol
_atom_site_label
_atom_site_fract_x
_atom_site_fract_y
_atom_site_fract_z
_atom_site_U_iso_or_equiv
_atom_site_adp_type
_atom_site_calc_flag
_atom_site_occupancy
_atom_site_disorder_assembly
_atom_site_disorder_group
Ag Ag1 0.250000 0.73580(3) 0.750000 0.02211(9) Uani d 1 . .
S S1 -0.02263(12) 0.64417(7) 0.85176(2) 0.01302(12) Uani d 1 . .
O O1 0.6178(4) 1.0451(2) 0.79516(7) 0.0274(3) Uani d 1 . .
O O2 0.750000 1.3371(3) 0.750000 0.0262(5) Uani d 1 . .
N N1 0.4947(4) 0.2874(2) 0.97975(7) 0.0136(3) Uani d 1 . .
N N2 0.750000 1.1423(3) 0.750000 0.0157(5) Uani d 1 . .
C C1 0.3461(5) 0.4408(3) 0.94406(8) 0.0126(4) Uani d 1 . .
C C2 0.3516(5) 0.6499(3) 0.96379(8) 0.0124(4) Uani d 1 . .
C C3 0.1666(5) 0.3949(3) 0.87926(9) 0.0143(4) Uani d 1 . .
H H3A -0.012208 0.288847 0.883653 0.017 Uiso calc 1 . .
H H3B 0.330073 0.344062 0.848344 0.017 Uiso calc 1 . .
C C4 0.1801(5) 0.8040(3) 0.91737(9) 0.0148(4) Uani d 1 . .
H H4A 0.349176 0.899858 0.900192 0.018 Uiso calc 1 . .
H H4B 0.007436 0.886025 0.939085 0.018 Uiso calc 1 . .
loop_
_atom_site_aniso_label
_atom_site_aniso_U_11
_atom_site_aniso_U_22
_atom_site_aniso_U_33
_atom_site_aniso_U_12
_atom_site_aniso_U_13
_atom_site_aniso_U_23
Ag1 0.03440(16) 0.01965(13) 0.01297(13) 0.000 0.00761(9) 0.000
S1 0.0137(2) 0.0144(2) 0.0109(2) 0.00041(16) -0.00013(16) 0.00061(15)
O1 0.0383(9) 0.0218(7) 0.0230(7) -0.0058(7) 0.0090(7) 0.0021(6)
O2 0.0451(14) 0.0098(9) 0.0228(10) 0.000 -0.0058(9) 0.000
N1 0.0155(8) 0.0134(7) 0.0118(7) -0.0009(6) 0.0015(6) 0.0001(6)
N2 0.0175(12) 0.0146(11) 0.0144(11) 0.000 -0.0040(9) 0.000
C1 0.0127(9) 0.0145(9) 0.0106(8) -0.0012(7) 0.0021(6) 0.0009(7)
C2 0.0136(9) 0.0134(9) 0.0104(8) -0.0005(7) 0.0020(7) 0.0005(7)
C3 0.0175(9) 0.0125(8) 0.0126(8) 0.0007(7) -0.0014(7) -0.0010(7)
C4 0.0198(10) 0.0128(8) 0.0114(8) 0.0006(7) -0.0015(7) -0.0013(7)
loop_
_atom_type_symbol
_atom_type_description
_atom_type_scat_dispersion_real
_atom_type_scat_dispersion_imag
_atom_type_scat_source
C C 0.0033 0.0016 'International Tables Vol C Tables 4.2.6.8 and 6.1.1.4'
H H 0.0000 0.0000 'International Tables Vol C Tables 4.2.6.8 and 6.1.1.4'
Ag Ag -0.8971 1.1015 'International Tables Vol C Tables 4.2.6.8 and 6.1.1.4'
N N 0.0061 0.0033 'International Tables Vol C Tables 4.2.6.8 and 6.1.1.4'
O O 0.0106 0.0060 'International Tables Vol C Tables 4.2.6.8 and 6.1.1.4'
S S 0.1246 0.1234 'International Tables Vol C Tables 4.2.6.8 and 6.1.1.4'
loop_
_geom_angle_atom_site_label_1
_geom_angle_atom_site_label_2
_geom_angle_atom_site_label_3
_geom_angle_site_symmetry_1
_geom_angle_site_symmetry_3
_geom_angle
_geom_angle_publ_flag
S1 Ag1 S1 . 2_556 152.57(2) y
S1 Ag1 O1 . . 97.62(3) y
S1 Ag1 O1 2_556 . 103.30(4) ?
S1 Ag1 O1 . 2_556 103.30(3) y
S1 Ag1 O1 2_556 2_556 97.62(3) ?
O1 Ag1 O1 . 2_556 80.24(7) y
C3 S1 C4 . . 96.12(9) ?
C3 S1 Ag1 . . 106.45(6) ?
C4 S1 Ag1 . . 107.66(6) ?
N2 O1 Ag1 . . 110.82(11) ?
C1 N1 C2 . 3_667 114.66(16) ?
O2 N2 O1 . . 119.74(11) ?
O2 N2 O1 . 2_656 119.74(11) ?
O1 N2 O1 . 2_656 120.5(2) ?
N1 C1 C2 . . 122.85(17) ?
N1 C1 C3 . . 120.77(16) ?
C2 C1 C3 . . 116.38(16) ?
N1 C2 C1 3_667 . 122.49(17) ?
N1 C2 C4 3_667 . 121.21(16) ?
C1 C2 C4 . . 116.29(16) ?
C1 C3 S1 . . 105.36(12) ?
C1 C3 H3A . . 110.7 ?
S1 C3 H3A . . 110.7 ?
C1 C3 H3B . . 110.7 ?
S1 C3 H3B . . 110.7 ?
H3A C3 H3B . . 108.8 ?
C2 C4 S1 . . 105.17(12) ?
C2 C4 H4A . . 110.7 ?
S1 C4 H4A . . 110.7 ?
C2 C4 H4B . . 110.7 ?
S1 C4 H4B . . 110.7 ?
H4A C4 H4B . . 108.8 ?
loop_
_geom_bond_atom_site_label_1
_geom_bond_atom_site_label_2
_geom_bond_site_symmetry_2
_geom_bond_distance
_geom_bond_publ_flag
Ag1 S1 . 2.4696(5) y
Ag1 S1 2_556 2.4696(5) ?
Ag1 O1 . 2.5849(15) y
Ag1 O1 2_556 2.5849(15) ?
S1 C3 . 1.8322(19) ?
S1 C4 . 1.8368(19) ?
O1 N2 . 1.2517(18) ?
O2 N2 . 1.245(3) ?
N1 C1 . 1.337(2) ?
N1 C2 3_667 1.339(2) ?
C1 C2 . 1.397(3) ?
C1 C3 . 1.501(2) ?
C2 C4 . 1.503(3) ?
C3 H3A . 0.9800 ?
C3 H3B . 0.9800 ?
C4 H4A . 0.9800 ?
C4 H4B . 0.9800 ?
loop_
_geom_hbond_atom_site_label_D
_geom_hbond_atom_site_label_H
_geom_hbond_atom_site_label_A
_geom_hbond_site_symmetry_A
_geom_hbond_distance_DH
_geom_hbond_distance_HA
_geom_hbond_distance_DA
_geom_hbond_angle_DHA
_geom_hbond_publ_flag
C3 H3B O1 1_545 0.98 2.50 3.379(2) 150 yes
C4 H4A O1 . 0.98 2.62 3.475(2) 146 no
loop_
_geom_torsion_atom_site_label_1
_geom_torsion_atom_site_label_2
_geom_torsion_atom_site_label_3
_geom_torsion_atom_site_label_4
_geom_torsion_site_symmetry_1
_geom_torsion_site_symmetry_2
_geom_torsion_site_symmetry_3
_geom_torsion_site_symmetry_4
_geom_torsion
_geom_torsion_publ_flag
Ag1 O1 N2 O2 . . . . 136.46(5) ?
Ag1 O1 N2 O1 . . . 2_656 -43.54(5) ?
C2 N1 C1 C2 3_667 . . . 0.3(3) ?
C2 N1 C1 C3 3_667 . . . 179.41(16) ?
N1 C1 C2 N1 . . . 3_667 -0.3(3) ?
C3 C1 C2 N1 . . . 3_667 -179.47(16) ?
N1 C1 C2 C4 . . . . 178.56(17) ?
C3 C1 C2 C4 . . . . -0.6(2) ?
N1 C1 C3 S1 . . . . 175.73(14) ?
C2 C1 C3 S1 . . . . -5.08(19) ?
C4 S1 C3 C1 . . . . 7.26(14) ?
Ag1 S1 C3 C1 . . . . 117.73(11) ?
N1 C2 C4 S1 3_667 . . . -175.17(14) ?
C1 C2 C4 S1 . . . . 5.9(2) ?
C3 S1 C4 C2 . . . . -7.54(14) ?
Ag1 S1 C4 C2 . . . . -116.99(11) ?

_cod_database_fobs_code 2243319
