#------------------------------------------------------------------------------
#$Date: 2020-07-08 08:12:08 +0300 (Wed, 08 Jul 2020) $
#$Revision: 254112 $
#$URL: file:///home/coder/svn-repositories/cod/cif/2/24/34/2243477.cif $
#------------------------------------------------------------------------------
#
# This file is available in the Crystallography Open Database (COD),
# http://www.crystallography.net/. The original data for this entry
# were provided by IUCr Journals, http://journals.iucr.org/.
#
# The file may be used within the scientific community so long as
# proper attribution is given to the journal article from which the
# data were obtained.
#
data_2243477
loop_
_publ_author_name
'Flores Manuel, Fermin'
'Sosa Rivadeneyra, Martha'
'Bern\`es, Sylvain'
_publ_section_title
;
 One molecule, three crystal structures: conformational trimorphism of
 <i>N</i>-[(1<i>S</i>)-1-phenylethyl]benzamide
;
_journal_coeditor_code           YK2134
_journal_issue                   8
_journal_name_full               'Acta Crystallographica Section E'
_journal_page_first              1229
_journal_page_last               1233
_journal_paper_doi               10.1107/S2056989020008877
_journal_volume                  76
_journal_year                    2020
_chemical_absolute_configuration syn
_chemical_formula_iupac          'C15 H15 N O'
_chemical_formula_moiety         'C15 H15 N O'
_chemical_formula_sum            'C15 H15 N O'
_chemical_formula_weight         225.28
_chemical_name_systematic
;
<i>N</i>-[(1<i>S</i>)-1-Phenylethyl]benzamide
;
_space_group_crystal_system      monoclinic
_space_group_IT_number           4
_space_group_name_Hall           'P 2yb'
_space_group_name_H-M_alt        'P 1 21 1'
_atom_sites_solution_hydrogens   mixed
_atom_sites_solution_primary     dual
_atom_sites_solution_secondary   difmap
_audit_creation_method           SHELXL-2018/3
_cell_angle_alpha                90
_cell_angle_beta                 99.800(6)
_cell_angle_gamma                90
_cell_formula_units_Z            2
_cell_length_a                   8.3496(6)
_cell_length_b                   5.2632(2)
_cell_length_c                   14.2969(10)
_cell_measurement_reflns_used    15127
_cell_measurement_temperature    295.0(10)
_cell_measurement_theta_max      24.30
_cell_measurement_theta_min      2.74
_cell_volume                     619.12(7)
_computing_cell_refinement
;
X-AREA (Stoe & Cie, 2019)
;
_computing_data_collection
;
X-AREA (Stoe & Cie, 2019)
;
_computing_data_reduction
;
X-RED32 (Stoe & Cie, 2019)
;
_computing_molecular_graphics
;
Mercury (Macrae <i>et al.</i>,  2020)
;
_computing_publication_material
;
publCif (Westrip, 2010)
;
_computing_structure_refinement
;
<i>SHELXL2018/3</i> (Sheldrick, 2015b)
;
_computing_structure_solution
;
<i>SHELXT2018/2</i> (Sheldrick, 2015a)
;
_diffrn_ambient_temperature      295.0(10)
_diffrn_detector                 'Reverse-biased silicon diode array'
_diffrn_detector_area_resol_mean 5.81
_diffrn_measured_fraction_theta_full 0.996
_diffrn_measured_fraction_theta_max 0.997
_diffrn_measurement_device       'Eulerian four-circle diffractometer'
_diffrn_measurement_device_type  'Stoe Stadivari'
_diffrn_measurement_method       '\w scans'
_diffrn_measurement_specimen_support Mitegen
_diffrn_radiation_monochromator  'Graded multilayer mirror'
_diffrn_radiation_probe          x-ray
_diffrn_radiation_type           AgK\a
_diffrn_radiation_wavelength     0.56083
_diffrn_reflns_av_R_equivalents  0.0370
_diffrn_reflns_av_unetI/netI     0.0305
_diffrn_reflns_limit_h_max       10
_diffrn_reflns_limit_h_min       -10
_diffrn_reflns_limit_k_max       6
_diffrn_reflns_limit_k_min       -6
_diffrn_reflns_limit_l_max       18
_diffrn_reflns_limit_l_min       -18
_diffrn_reflns_number            14738
_diffrn_reflns_theta_full        19.664
_diffrn_reflns_theta_max         20.998
_diffrn_reflns_theta_min         2.740
_diffrn_source                   'Sealed X-ray tube'
_diffrn_source_current           0.600
_diffrn_source_power             0.039
_diffrn_source_voltage           65
_exptl_absorpt_coefficient_mu    0.049
_exptl_absorpt_correction_T_max  1.0000
_exptl_absorpt_correction_T_min  0.5739
_exptl_absorpt_correction_type   multi-scan
_exptl_absorpt_process_details
;
(X-AREA; Stoe & Cie, 2019)
;
_exptl_crystal_colour            Colourless
_exptl_crystal_density_diffrn    1.208
_exptl_crystal_description       Prism
_exptl_crystal_F_000             240
_exptl_crystal_size_max          0.340
_exptl_crystal_size_mid          0.186
_exptl_crystal_size_min          0.143
_refine_diff_density_max         0.116
_refine_diff_density_min         -0.138
_refine_ls_extinction_coef       0.076(15)
_refine_ls_extinction_expression Fc^*^=kFc[1+0.001xFc^2^\l^3^/sin(2\q)]^-1/4^
_refine_ls_extinction_method
;
SHELXL-2018/3 (Sheldrick 2015b)
;
_refine_ls_goodness_of_fit_ref   0.942
_refine_ls_hydrogen_treatment    mixed
_refine_ls_matrix_type           full
_refine_ls_number_constraints    0
_refine_ls_number_parameters     159
_refine_ls_number_reflns         2456
_refine_ls_number_restraints     1
_refine_ls_restrained_S_all      0.942
_refine_ls_R_factor_all          0.0519
_refine_ls_R_factor_gt           0.0355
_refine_ls_shift/su_max          0.000
_refine_ls_shift/su_mean         0.000
_refine_ls_structure_factor_coef Fsqd
_refine_ls_weighting_details
'w=1/[\s^2^(Fo^2^)+(0.0529P)^2^] where P=(Fo^2^+2Fc^2^)/3'
_refine_ls_weighting_scheme      calc
_refine_ls_wR_factor_gt          0.0834
_refine_ls_wR_factor_ref         0.0899
_reflns_number_gt                1847
_reflns_number_total             2456
_reflns_threshold_expression     'I > 2\s(I)'
_cod_data_source_file            yk2134sup1.cif
_cod_data_source_block           II
_cod_original_sg_symbol_H-M      'P 21'
_cod_database_code               2243477
_shelx_estimated_absorpt_t_min   0.984
_shelx_estimated_absorpt_t_max   0.993
_shelx_hkl_file
;
  -4   4  -4   31.98    5.04
  -1   2  -2   32.17    3.24
   0   4 -11    3.20    6.26
   1   3  -9   77.50    8.14
   2   3 -12   22.06    6.33
   3   2 -11   65.82    7.58
   4   1 -11   53.41    6.27
   4   2 -16   -0.18    5.47
   5   0 -12   30.98    5.39
   5   1 -16   30.07    7.04
  -8   4  -1    2.08    2.74
  -6   4  -2    1.12    3.10
  -5   5  -7    6.09    4.60
  -4   5  -8    4.91    5.02
  -3   4  -5   26.83    4.87
  -3   5 -10   -1.72    4.83
  -2   3  -3  123.21    6.55
  -1   4  -8   76.76    8.85
   1   4 -14   -2.29    5.75
   2   1  -5   76.92    5.07
   2   3 -11   23.20    7.34
   3   3 -16   -4.19    5.48
   4   0  -8    6.92    2.99
   4   2 -15   -0.08    4.98
   5   1 -15    1.46    4.59
   6  -1 -14    2.78    3.81
  -3   5  -9    3.95    5.32
  -2   4  -6   69.30    7.10
   0   3  -6   30.69    5.09
   0   4 -10   13.76    5.75
   1   1  -3 2037.19   19.05
   1   2  -5   87.90    6.25
   1   3  -8   55.45    6.88
   1   4 -13   10.47    6.69
   3   2 -10   27.82    5.69
   4   1 -10    0.13    4.27
   4   2 -14   12.49    5.68
   5   0 -11   31.64    5.10
   5   1 -14   11.10    5.75
   6  -2 -12    5.09    3.06
   6   0 -16   19.09    5.73
  -6   3   1   19.84    2.21
  -5   5  -6    4.42    4.29
  -4   5  -7    8.81    5.09
  -2   5 -10   -2.56    5.89
  -1   3  -4   77.92    6.01
   1   4 -12   41.10    8.11
   2   2  -7   74.19    6.47
   2   3 -10   23.56    6.27
   3   1  -7    3.22    2.88
   3   3 -14   10.99    6.23
   4   2 -13   21.57    6.14
   6  -1 -13    8.27    3.91
   6   0 -15   25.09    5.81
  -7   4  -1    7.47    3.13
  -4   4  -3   25.09    4.40
  -3   4  -4   13.60    4.48
  -3   5  -8    0.47    4.88
  -1   4  -7   48.76    6.86
   0   2  -3    1.07    2.72
   0   4  -9   23.93    5.98
   1   4 -11   21.30    7.55
   3   2  -9    9.76    4.52
   3   3 -13    4.02    5.62
   4   2 -12   15.27    6.18
   5  -1  -9   42.71    3.92
   5   1 -13   35.77    6.03
  -2   4  -5   18.04    5.35
  -2   5  -9    4.67    5.74
  -1   5 -11    6.21    6.19
   0   3  -5  113.53    8.02
   1   3  -7    6.60    4.38
   2   3  -9    9.17    6.15
   2   4 -14   14.30    7.22
   3  -1  -4  211.52    3.86
   3   0  -5    8.13    2.49
   3   3 -12   11.39    5.88
   4   1  -9    3.98    4.22
   5   0 -10   10.50    3.91
   5   2 -16    7.18    7.29
   6  -3 -11    3.31    1.76
   6   0 -14   33.23    6.27
  -5   5  -5    5.65    4.12
  -4   5  -6   10.77    4.90
  -3   5  -7    6.67    5.11
  -1   4  -6   31.69    6.45
   0   4  -8    8.00    5.01
   1   4 -10    5.64    5.53
   2   0  -3  113.43    3.92
   2   4 -13   28.91    8.36
   4   2 -11    7.59    5.94
   4   3 -15   22.33    8.39
   5  -2  -8   51.20    2.78
   5   1 -12   11.78    4.71
   5   2 -15   -1.32    5.85
   6  -2 -11   22.71    3.51
   6  -1 -12    1.14    3.25
  -6   4  -1    3.83    3.12
  -2   3  -2   22.50    3.35
  -2   5  -8   18.52    6.44
  -1   5 -10   10.21    5.82
   0   5 -12    0.80    6.08
   2   2  -6  220.91    9.85
   2   4 -12    3.50    7.00
   3   2  -8    5.80    4.03
   3   3 -11   31.45    7.13
   4  -1  -6  140.23    4.61
   4   0  -7   22.28    3.54
   6   0 -13    0.42    4.51
   6   1 -16    2.97    4.88
  -4   3   0   63.99    3.84
  -1   3  -3  155.51    7.72
  -1   5  -9   30.18    7.58
   0   1  -1 4455.35   22.32
   0   4  -7   14.96    6.37
   0   5 -11   14.30    7.77
   1   2  -4  500.93   12.81
   1   3  -6  142.26    9.04
   1   4  -9    2.70    5.32
   2   1  -4 1409.11   18.25
   2   3  -8   25.17    5.80
   3   1  -6  121.27    6.74
   4   3 -14    5.39    5.82
   5   1 -11   26.30    6.04
   5   2 -14   34.81    7.22
   6   1 -15    1.14    5.29
  -4   5  -5   26.78    5.63
  -3   4  -3    5.00    3.22
  -3   5  -6    4.37    4.16
  -2   4  -4    8.51    3.82
  -2   5  -7    4.73    5.43
   2   4 -11    4.71    6.31
   3   3 -10   10.26    5.61
   3   4 -14   30.65    8.46
   4   1  -8    6.31    3.45
   4   2 -10   41.20    6.58
   4   3 -13    2.86    5.73
   5   0  -9   36.09    5.07
   5   2 -13   12.93    6.51
   6  -1 -11   38.70    4.80
   6   1 -14    1.69    5.16
   7  -1 -15    4.33    4.55
  -5   5  -4   10.81    4.26
  -3   2   1   21.49    1.83
  -1   2  -1  138.84    5.42
  -1   4  -5    8.80    4.39
  -1   5  -8    1.60    5.84
   0   3  -4  108.28    7.25
   0   5 -10    2.12    5.43
   1   4  -8   21.83    6.96
   1   5 -12    7.89    7.39
   3   4 -13   23.29    8.71
   5  -1  -8   52.78    4.05
   6   0 -12    6.80    4.67
   7  -2 -14    2.72    3.38
  -8   4   0   -0.09    2.05
  -5   4  -1   19.46    3.59
   0   4  -6    7.94    5.81
   2   2  -5  217.19    9.83
   2   3  -7   18.71    5.29
   2   4 -10   30.09    7.11
   3   2  -7   10.59    4.24
   3   3  -9   73.87    9.14
   4   3 -12   23.73    6.86
   5   1 -10    0.90    4.62
   5   2 -12    6.50    5.47
  -5   3   1   55.49    3.09
  -4   5  -4    2.02    4.24
  -3   5  -5    1.51    4.35
  -2   5  -6    0.40    4.95
   0   2  -2 1746.76   20.42
   0   5  -9   -6.99    5.27
   1   3  -5   39.93    5.61
   1   5 -11   12.61    7.11
   3   4 -12   -3.45    5.75
   4   2  -9   15.13    5.07
   5   3 -15    7.69    6.58
   6   1 -13    5.06    4.42
   6   2 -15   -3.66    5.64
   7  -1 -14    3.12    4.35
   7   0 -15    2.41    4.37
  -7   4   0    1.43    2.38
  -2   4  -3   17.65    4.66
  -1   5  -7    0.71    4.71
   1   1  -2 2649.45   20.86
   1   4  -7   69.98    8.71
   2   4  -9   10.14    5.72
   3   4 -11    2.56    6.88
   4   1  -7   72.51    6.33
   4   3 -11   29.97    6.98
   5   2 -11    3.50    5.48
   5   3 -14   11.48    6.96
   6   0 -11    8.37    4.26
  -3   4  -2   16.41    4.00
  -2   3  -1  312.66    9.38
  -1   3  -2   18.23    3.96
  -1   4  -4   14.41    4.53
   0   5  -8    3.41    5.37
   1   2  -3  167.48    7.59
   1   5 -10    5.10    5.92
   2   5 -12   -2.50    6.06
   3   1  -5  141.68    7.02
   3   3  -8    7.42    5.07
   4   0  -6  532.66   11.46
   5   3 -13   -3.24    6.36
   6  -2 -10    7.14    2.53
   6   1 -12   -1.34    4.79
   6   2 -14   -0.36    4.74
   7   0 -14   11.15    4.75
  -3   5  -4   53.68    7.15
  -2   5  -5    0.00    4.55
   0   3  -3  212.71    9.64
   0   4  -5   12.24    4.94
   2   3  -6   68.53    7.15
   2   4  -8   13.53    7.14
   3   2  -6  278.50   11.54
   3   4 -10   -1.66    6.37
   4   2  -8   68.76    7.25
   4   3 -10    5.98    5.15
   4   4 -13    0.72    6.19
   5   0  -8   62.22    5.25
   5   1  -9   39.83    5.50
   6  -1 -10   13.10    3.51
   7  -2 -13    3.79    3.35
   7  -1 -13    1.25    4.46
   7   1 -15   10.64    5.95
  -6   4   0   12.52    2.98
  -1   5  -6   10.85    5.08
   1   4  -6   68.70    8.78
   1   5  -9   11.47    6.51
   2   5 -11   11.27    6.98
   3   0  -4  141.94    5.21
   4   4 -12    4.44    7.62
   5   2 -10    3.21    4.85
   5   3 -12   15.90    7.53
   6   2 -13   13.12    5.79
  -6   5  -2    8.95    3.93
  -4   5  -3   24.18    5.24
   0   5  -7    9.22    5.59
   1   3  -4  165.94    9.15
   2   1  -3 4109.90   30.00
   2   2  -4  256.50   10.07
   2   5 -10   10.01    7.89
   3   3  -7   21.97    6.53
   4   3  -9    0.69    6.00
   6   0 -10   85.77    6.86
   6   1 -11   39.11    5.98
   7   0 -13   -2.14    4.14
   7   1 -14    6.56    5.40
  -1   4  -3   35.99    5.90
   1   5  -8    8.22    6.36
   2   4  -7  172.14   12.31
   3   4  -9   16.66    6.46
   4   4 -11   16.48    7.90
   5   3 -11   15.63    7.17
   6   2 -12    6.73    5.15
   6   3 -14    8.33    7.82
  -2   4  -2   36.95    5.25
  -2   5  -4   11.82    5.29
  -1   5  -5    1.62    4.19
   0   4  -4  146.14    9.59
   0   5  -6    5.34    5.83
   2   3  -5   63.22    6.84
   2   5  -9   -2.83    6.69
   3   5 -11    3.97    7.53
   4   1  -6  142.60    7.59
   4   2  -7  116.06    8.54
   5   1  -8   52.12    5.78
   5   2  -9    5.72    5.75
   5   4 -13    0.85    7.23
   7  -1 -12    1.21    3.86
   7   1 -13    1.69    4.92
  -5   4   0    3.89    2.68
  -3   5  -3   18.89    5.38
   1   4  -5   91.40    8.63
   1   5  -7   12.64    6.96
   3   2  -5  896.86   19.45
   3   4  -8   15.67    7.29
   4   3  -8   -4.96    5.81
   4   4 -10    2.03    6.89
   5  -1  -7    2.73    1.95
   6   1 -10   14.05    5.38
   6   2 -11   21.88    6.69
   6   3 -13    2.30    5.58
   7  -3 -13    0.13    1.61
   7   0 -12   -0.36    4.06
   7   2 -14    6.23    6.08
  -4   3   1  169.36    5.24
  -3   6  -5    3.39    5.10
  -2   6  -6   16.77    5.94
  -1   6  -7   21.16    6.79
   0   2  -1   66.96    4.84
   0   6  -8    2.48    6.76
   2   4  -6   18.81    7.49
   3   1  -4  224.05    8.49
   3   3  -6   79.21    7.93
   3   5 -10    8.67    7.84
   5   0  -7   20.48    3.61
   5   3 -10    6.83    5.48
   5   4 -12   -0.08    6.41
   6  -1  -9    7.24    3.19
   7  -2 -12   -0.15    2.63
  -1   3  -1  465.45   12.05
   0   3  -2   92.33    6.37
   1   2  -2   51.49    4.67
   1   3  -3  443.44   13.87
   2   5  -8    8.84    6.70
   6   0  -9   29.88    4.80
   6   3 -12   11.27    6.07
   7   1 -12   -1.27    4.88
   7   2 -13    3.40    5.66
  -6   5  -1   42.62    5.15
  -2   5  -3   19.70    5.52
  -1   5  -4   31.93    6.00
   0   5  -5   23.08    6.17
   1   5  -6   52.98    8.68
   3   4  -7    5.83    6.40
   4  -1  -5  397.89    6.57
   4   0  -5  381.70    9.32
   4   2  -6  162.09    9.88
   4   4  -9   22.80    7.12
   5   2  -8   61.76    7.28
   5   3  -9    6.72    6.57
   5   4 -11    0.71    5.99
   6   2 -10    9.02    5.77
  -4   4   0   58.79    4.74
  -2   6  -5    8.34    5.82
  -1   4  -2  169.20    9.14
  -1   6  -6    1.83    4.81
   0   4  -3  103.92    8.12
   0   6  -7   17.27    6.90
   1   4  -4   32.73    6.10
   2   2  -3  114.73    7.00
   2   3  -4   63.21    6.65
   2   5  -7   13.37    7.27
   3   5  -9   -2.26    5.94
   4   3  -7    8.09    5.29
   4   5 -11   12.14    7.35
   5   1  -7    5.88    3.51
   6   1  -9    8.08    4.21
   6   3 -11    7.52    6.88
   7  -1 -11    5.74    3.45
   7   0 -11   -1.53    3.94
   8   0 -14    7.91    4.97
  -5   5  -1    5.95    3.98
  -3   5  -2   15.62    4.94
  -3   6  -4    5.37    4.83
  -2   4  -1  188.69    8.98
   1   6  -8   11.93    6.64
   2   4  -5   32.11    6.53
   3   3  -5    9.54    5.61
   4   1  -5  397.08   11.92
   4   4  -8   76.29   10.10
   4   5 -10   19.12    8.52
   5   4 -10   30.26    8.88
   7   1 -11    2.65    4.67
   7   2 -12    3.23    4.71
   0   5  -4  135.41   10.84
   3   2  -4   37.03    5.06
   3   5  -8    8.61    6.43
   6  -2  -9   22.94    2.38
   6   2  -9   22.74    6.70
   6   4 -12    4.05    6.56
   7   3 -13    4.04    5.80
  -4   6  -3   -0.21    4.52
  -2   6  -4   -0.51    4.82
  -1   5  -3   14.85    4.98
  -1   6  -5    0.37    4.55
   0   6  -6   17.03    6.29
   1   5  -5   23.75    6.52
   1   6  -7    8.19    6.55
   2   0  -2 9590.57   30.40
   2   5  -6   19.93    7.50
   3   4  -6   32.84    7.00
   4   3  -6   83.98    9.07
   5   2  -7  101.63    8.49
   5   3  -8   29.46    6.51
   6   0  -8  149.45    8.04
   6   3 -10   11.96    5.91
   7   2 -11    0.93    5.45
   8   0 -13    2.86    4.49
  -7   4   1    2.71    1.73
  -2   5  -2   81.03    7.72
   1   1  -1 2591.09   19.87
   1   3  -2  261.48   10.81
   4   2  -5    5.73    4.82
   4   4  -7   13.06    7.05
   4   5  -9    1.64    6.39
   5   4  -9   -4.75    5.51
   6   1  -8  110.68    8.38
   6   4 -11   -0.57    6.31
   7   0 -10   43.29    5.96
   7   3 -12    6.71    6.30
   8  -1 -13    4.98    3.87
   8   1 -13    3.42    4.80
  -6   4   1   25.18    2.85
  -3   3   1   11.74    2.33
  -3   6  -3    2.06    4.31
   0   3  -1   82.99    5.94
   0   4  -2   86.09    7.32
   0   6  -5    5.96    6.08
   1   4  -3   82.21    7.79
   2   3  -3  138.95    8.70
   2   4  -4   31.60    6.30
   3   5  -7   36.50    8.01
   5   0  -6    2.25    2.55
   5   1  -6  112.39    7.55
   6   3  -9    7.64    6.50
   7   1 -10    6.48    4.77
  -3   5  -1    4.75    4.16
  -1   4  -1  299.57   11.66
  -1   6  -4   26.27    6.67
   0   1   0    0.84    1.51
   0   5  -3  190.41   12.11
   1   5  -4   64.68    9.02
   1   6  -6    3.03    5.68
   2   6  -7   19.00    8.23
   3   0  -3  789.18   10.86
   3   1  -3  310.21    9.46
   3   3  -4   40.14    6.05
   3   4  -5    7.43    5.55
   4   5  -8    2.22    6.37
   5   3  -7   39.82    7.25
   5   4  -8   18.78    7.74
   5   5 -10   -0.02    6.60
   6  -1  -8   90.72    4.85
   6   2  -8   34.76    6.35
   6   4 -10   22.05    8.26
   7  -2 -11    0.45    2.22
   7   2 -10   -0.11    5.17
   7   3 -11    3.07    5.38
   8   0 -12    1.24    4.57
   8   1 -12    2.12    4.57
  -5   4   1   88.11    4.79
  -4   6  -2   -0.55    4.31
  -2   6  -3    4.01    4.85
  -1   3   0  103.46    6.00
  -1   5  -2   64.01    7.70
   1   2  -1   70.84    5.42
   2   2  -2  458.27   12.62
   2   5  -5   85.35    9.60
   3   5  -6    8.20    7.18
   5   2  -6   69.74    7.18
   7  -1 -10   -0.14    2.82
  -7   5   0   -0.60    2.50
  -6   5   0   14.63    3.61
   3   2  -3  168.18    8.59
   4   3  -5    7.39    4.94
   4   4  -6   18.62    6.65
   5   5  -9   20.12    7.86
   8   2 -12    4.90    5.08
  -5   5   0   15.45    4.05
  -3   6  -2    4.00    4.17
  -2   4   0   48.29    5.15
  -2   5  -1  145.71    9.34
   0   2   0  479.87   10.31
   0   6  -4    6.40    5.42
   1   6  -5   23.56    6.89
   2   4  -3    4.15    5.61
   2   6  -6    6.05    6.50
   4   1  -4  809.98   16.08
   4   5  -7   29.53    7.95
   5  -1  -6  104.64    4.17
   5   4  -7    8.99    6.97
   6   1  -7   50.69    6.33
   6   3  -8   36.36    7.22
   6   4  -9    4.70    6.17
   7   0  -9   29.18    5.09
   7   1  -9   28.78    5.34
   7   3 -10    4.25    5.28
   8  -1 -12    1.93    3.61
  -4   4   1   74.07    4.95
  -1   6  -3   13.75    5.08
   1   4  -2   27.77    5.38
   1   5  -3   50.52    7.59
   2   5  -4   37.94    7.25
   3   4  -4   69.87    8.33
   3   6  -7    2.91    6.42
   4   0  -4  317.52    8.16
   4   2  -4  587.05   16.27
   5   3  -6   20.22    6.11
   5   5  -8    9.74    7.94
   6   0  -7  478.19   12.50
   6   2  -7   14.15    5.26
   7   2  -9    9.74    4.70
   8   0 -11    3.72    4.41
   8   1 -11    9.50    4.13
   8   2 -11    4.80    5.63
  -2   6  -2    0.90    4.48
   0   4  -1   45.82    5.68
   0   5  -2   78.88    8.06
   1   3  -1   38.68    4.84
   2   3  -2   31.88    5.10
   3   3  -3  107.17    8.26
   3   5  -5   41.42    7.89
   4   4  -5   10.31    5.43
   5   1  -5  107.22    7.17
   6   4  -8    0.39    6.92
   7   3  -9   28.10    7.74
  -1   5  -1  200.16   11.25
   0   6  -3    4.84    5.67
   1   6  -4   30.10    7.29
   2   6  -5   19.55    7.28
   3   6  -6   16.43    7.93
   4   3  -4   46.98    6.72
   4   5  -6    5.97    6.39
   5   4  -6    4.89    6.55
   6   3  -7   35.42    6.88
   8   3 -11   -0.91    5.44
  -5   3   2   74.20    2.31
  -1   4   0   69.19    5.90
   0   3   0   -0.48    2.71
   5   5  -7   17.92    7.62
   7   1  -8    1.35    4.44
   7   2  -8    4.21    5.65
   8   1 -10    4.84    4.92
   8   2 -10    9.21    5.55
  -3   6  -1    3.47    3.99
  -1   6  -2   21.32    5.12
   1   5  -2   56.98    8.41
   2   4  -2   26.04    5.65
   2   5  -3   28.72    6.48
   3   4  -3   62.86    7.78
   3   5  -4   11.25    5.99
   5   0  -5  167.77    6.78
   5   3  -5  163.13   11.22
   6   1  -6   85.84    7.17
   6   2  -6  251.74   12.87
   6   4  -7    4.84    6.98
   7  -1  -9   36.55    4.10
   7   3  -8   -0.07    5.99
   7   4  -9   11.84    7.00
   8   3 -10   10.66    7.08
  -2   5   0   31.18    5.41
   1   4  -1    2.95    3.91
   1   6  -3   36.27    7.79
   2   6  -4   -2.63    5.50
   3   2  -2  661.07   15.73
   3   6  -5   30.77    8.29
   4   5  -5   29.72    7.62
   6   3  -6   15.52    7.03
   6   5  -8    9.85    7.18
   7   0  -8   60.69    5.99
   8  -1 -11   10.83    3.61
   8   0 -10    4.05    3.89
  -2   6  -1   10.12    4.79
   0   5  -1   26.41    5.67
   0   6  -2   -1.39    5.08
   2   2  -1  404.37   11.46
   3   1  -2  729.51   13.54
   3   3  -2   83.39    7.80
   4   2  -3  146.35    8.47
   5   4  -5    6.10    5.19
   5   5  -6   19.57    7.50
   7   4  -8    0.67    6.62
   8   2  -9    1.68    5.19
   9   0 -12   -0.87    4.18
  -4   3   2  150.64    4.17
  -1   3   1   36.36    4.00
   0   4   0    3.64    3.44
   2   1  -1 1655.29   17.98
   2   3  -1  121.31    7.88
   4   1  -3  600.81   13.60
   4   3  -3    8.94    4.77
   5   2  -4   32.78    5.40
   6  -1  -7   47.09    3.51
   6   4  -6   -3.26    6.29
   6   5  -7    1.95    6.23
   7   2  -7   11.89    5.00
   8   1  -9    8.37    5.06
   8   3  -9   22.56    7.40
  -6   5   1    0.25    2.69
  -5   5   1    4.49    3.10
  -4   5   1   36.99    4.63
  -1   5   0   -2.31    4.25
  -1   6  -1    6.51    5.19
   1   2   0  417.21   10.49
   1   3   0   95.53    6.84
   2   5  -2   38.36    6.86
   2   6  -3   15.21    6.95
   3   5  -3   34.64    7.26
   3   6  -4    3.45    6.22
   4   5  -4   17.38    7.15
   4   6  -5    2.06    6.61
   5   1  -4   85.97    6.41
   5   3  -4  221.91   12.49
   6   0  -6   46.21    4.53
   7   1  -7   31.53    5.67
   7   3  -7   36.73    7.21
   9   1 -11    3.05    4.41
  -3   6   0    0.38    4.38
   1   5  -1  104.20    9.08
   1   6  -2    5.30    5.18
   2   4  -1    4.38    5.42
   3   4  -2   73.46    8.18
   4   4  -3    3.34    5.96
   5   4  -4    2.18    6.40
   5   5  -5   18.49    7.22
   6   2  -5  204.03   11.19
   6   3  -5   -0.51    6.39
   7  -2 -10    0.11    1.60
   7   4  -7   15.52    6.55
  -1   4   1    3.35    3.48
   0   6  -1    6.32    5.43
   6   1  -5  116.52    7.79
   6   5  -6   11.31    6.88
   8  -2 -12    3.61    2.07
   8   0  -9   30.32    5.24
   8   2  -8   18.04    5.47
   8   3  -8   -1.08    4.81
   9   2 -10   -3.27    5.01
  -3   3   2   86.10    3.87
  -2   6   0   13.19    4.69
   0   5   0   -3.71    3.81
   1   1   0  467.84    8.40
   1   4   0   72.48    6.92
   3   5  -2   18.59    6.84
   3   6  -3    7.84    6.76
   4   6  -4   -3.05    6.63
   6   4  -5   17.45    6.51
   7   2  -6    4.82    5.47
   7   3  -6   50.19    7.75
   8   1  -8   13.78    5.22
   9   0 -11    0.15    3.76
   9   1 -10    3.29    4.21
  -7   5   1    2.18    1.81
  -2   5   1   44.76    5.69
   0   2   1   65.66    4.46
   0   3   1   78.04    5.49
   2   5  -1   44.56    7.36
   2   6  -2    8.81    5.51
   3   3  -1   12.25    4.33
   4   0  -3  891.11   12.89
   4   2  -2   39.09    5.09
   4   3  -2  161.46   10.06
   5   3  -3   25.48    5.99
   5   5  -4   43.93    8.60
   7   0  -7    1.63    2.95
   7   4  -6    6.22    6.05
   8  -1 -10    8.22    3.35
  -5   4   2   78.11    3.77
  -4   4   2   21.04    2.76
  -1   6   0    5.04    3.86
   0   4   1   53.62    6.04
   1   5   0    2.41    5.84
   1   6  -1    0.42    4.78
   2   3   0   74.48    6.82
   3   0  -2  524.63    8.57
   3   2  -1   17.86    4.03
   4   4  -2   25.53    6.50
   5   2  -3   10.00    4.12
   5   4  -3  132.15   11.18
   6   3  -4   16.70    5.91
   6   5  -5   -0.93    5.91
   7  -1  -8   -0.80    2.46
   7   1  -6   40.57    5.88
   8   2  -7   26.08    6.54
   8   3  -7    3.17    6.01
   9   2  -9    2.77    5.20
  -3   4   2   78.60    5.00
  -1   5   1  102.92    7.79
   2   2   0  200.55    8.44
   2   4   0   47.57    7.09
   3   6  -2   18.65    7.40
   4  -1  -4  806.45    7.79
   4   6  -3   -2.00    6.53
   5   0  -4   71.05    4.60
   6   2  -4   30.71    5.77
   6   4  -4    3.88    5.51
   8   4  -7    9.12    6.43
   0   6   0    1.58    4.22
   2   6  -1    0.42    5.74
   3   5  -1   69.19    9.10
   4   1  -2    8.58    3.68
   4   5  -2    4.69    5.60
   5   1  -3   31.56    4.56
   5   5  -3   21.31    7.08
   7   2  -5   54.72    7.60
   7   3  -5   38.29    7.04
   7   4  -5    4.58    5.84
   9   0 -10   -1.24    4.10
   9   1  -9   -1.19    3.87
  -2   6   1    0.96    4.00
   0   5   1   21.21    5.79
   1   3   1  450.73   12.80
   2   5   0   34.33    7.42
   3   1  -1  120.90    6.12
   5  -1  -5  100.46    3.70
   6   0  -5   38.46    4.08
   6   1  -4    4.22    3.81
   6   5  -4   16.48    7.21
   8   0  -8    7.27    3.63
   8   1  -7   21.36    5.15
   8   3  -6    3.75    5.88
   9   2  -8    0.59    5.08
   9   3  -8   -1.56    5.09
  -6   4   2   10.52    1.37
  -4   5   2    6.62    3.44
  -2   2   2  461.37    6.72
  -1   3   2  248.84    8.14
  -1   6   1    4.75    4.83
   1   4   1  313.09   12.53
   1   6   0    5.90    4.98
   3  -1  -3  324.41    3.18
   4   3  -1  187.77   10.59
   4   4  -1   63.31    9.23
   4   6  -2    0.94    6.72
   5   3  -2   86.07    8.35
   5   4  -2   99.83    9.90
   6   3  -3   82.00    9.63
   8   2  -6    9.93    5.24
  -2   5   2   34.46    5.28
  -1   4   2   22.32    4.22
   1   2   1  135.27    6.20
   1   5   1  208.11   12.33
   3   3   0   71.99    6.76
   3   4   0  238.63   12.52
   3   6  -1    5.87    5.45
   5   2  -2   26.17    4.80
   5   5  -2   19.81    7.68
   6   4  -3   10.59    5.85
   7   0  -6    0.53    3.17
   7   1  -5   13.06    4.50
   7   3  -4   45.13    7.83
   7   4  -4   18.59    7.48
   9   3  -7    7.54    6.44
  -5   5   2   13.54    3.15
   0   6   1   -3.97    4.42
   2   0  -1 6873.16   24.78
   2   6   0   14.55    5.78
   3   5   0   34.74    7.48
   4   2  -1   39.79    5.02
   4   5  -1   46.56    7.84
   6  -1  -6   77.14    3.88
   6   2  -3  235.05   11.48
   6   5  -3   -3.27    5.75
   7   5  -4    2.74    7.11
   8  -1  -9    6.75    2.96
   9  -1 -11   -1.36    2.78
   9   1  -8   25.53    5.52
  -1   5   2   55.41    6.47
   0   4   2   79.17    6.75
   2   1   0   70.66    4.33
   2   3   1  313.19   11.53
   2   4   1  208.18   11.07
   3   2   0    7.18    3.54
   7   2  -4   49.41    6.60
   8   1  -6   47.20    6.25
   8   3  -5   13.90    5.80
   8   4  -5    5.24    6.15
   9   0  -9   19.44    4.94
   9   2  -7   15.09    5.03
   0   3   2   87.75    5.62
   0   5   2   70.53    7.61
   1   6   1   10.47    5.15
   2   5   1  168.26   11.30
   3   6   0   -2.62    5.69
   4   6  -1    7.13    5.90
   5   4  -1   87.78    9.35
   8   0  -7   19.45    4.39
   8   2  -5   10.74    5.53
  -4   6   2    5.16    3.79
  -2   6   2    6.37    4.07
  -1   6   2    9.59    4.81
   4   3   0   64.16    6.88
   4   4   0   52.14    7.50
   4   5   0   33.09    7.75
   5   3  -1   62.22    7.36
   5   5  -1    6.46    6.34
   6   3  -2  107.36    9.43
   6   5  -2   14.78    7.00
   7   3  -3   10.19    6.09
   7   4  -3    8.92    5.81
   7   5  -3    2.73    6.92
   9   3  -6    5.12    5.42
  -6   5   2    9.95    2.16
   1   4   2  167.11    9.34
   1   5   2   67.71    7.92
   2   2   1  168.02    7.51
   2   6   1   15.72    5.59
   3   4   1   55.19    7.05
   5   1  -2   11.20    3.19
   6   1  -3  139.12    7.73
   7  -1  -7   29.18    3.14
   8   3  -4    3.52    5.81
   8   4  -4    6.95    6.16
   9   1  -7   13.31    4.91
   9   2  -6   22.77    6.02
   0   6   2    1.91    3.82
   1   3   2   22.12    3.92
   3   3   1   17.41    4.46
   3   5   1    8.35    5.16
   4   1  -1  346.09   10.20
   4   6   0   16.88    6.65
   5   0  -3  187.87    6.74
   5   2  -1   48.50    5.69
   6   0  -4  177.93    7.16
   6   2  -2   47.08    6.13
   7   1  -4   18.54    4.18
   7   2  -3    9.08    5.36
  -3   4   3   51.29    3.96
  -2   5   3   33.23    5.32
   0   2   2 1732.84   18.26
   1   6   2   29.51    6.67
   2   4   2   42.94    6.62
   3   6   1    0.85    5.68
   4   0  -2 2005.25   18.83
   4   2   0   62.59    5.80
   5   4   0   14.13    5.93
   5   5   0   20.10    7.47
   6   4  -1   34.10    7.10
   6   5  -1   -0.65    6.70
   7   0  -5   22.10    3.96
   7   4  -2   -0.62    5.22
   7   5  -2   13.44    7.50
   8   1  -5   20.93    5.04
   8   2  -4    5.75    4.82
   9  -1 -10   -0.43    2.89
   9   0  -8   -0.53    3.65
   9   3  -5    2.23    5.14
  -1   4   3   73.63    5.50
  -1   5   3   33.42    5.41
   2   5   2   77.64    8.03
   4   4   1   27.08    6.10
   4   5   1    4.64    6.20
   5   3   0   21.46    6.26
   6   3  -1   30.16    6.38
   7   3  -2   11.73    5.29
   8   4  -3    0.66    5.66
  10   1  -8    7.59    4.37
  -4   4   3    2.50    1.96
  -4   5   3    7.72    3.07
  -2   6   3   11.26    4.82
   0   4   3  105.05    7.31
   0   5   3  173.50   10.24
   2   3   2   28.11    4.56
   2   6   2    4.63    4.76
   3   1   0  612.59   12.24
   3   2   1   12.24    4.10
   4   6   1    2.79    6.42
   8  -1  -8   10.03    3.02
   8   0  -6    5.44    3.65
   8   3  -3   -0.59    4.98
   9   1  -6    0.45    4.19
   9   2  -5   10.99    5.31
  -1   3   3  417.53   10.06
  -1   6   3   29.38    5.59
   0   6   3    4.43    4.79
   1   1   1 1179.46   13.13
   1   2   2   26.26    3.92
   1   5   3    8.96    5.22
   3   4   2   16.17    5.18
   3   5   2   10.34    5.20
   4   3   1   27.69    5.29
   7   5  -1    5.26    6.79
   9   3  -4    0.18    4.49
  -4   6   3    3.39    3.20
  -3   3   3   98.23    3.74
   0   3   3  196.58    7.96
   1   4   3   38.00    5.31
   3   6   2    8.52    5.34
   5   4   1   18.60    6.60
   5   5   1    2.85    5.55
   6   1  -2   17.77    3.89
   6   2  -1   42.03    5.85
   6   4   0   16.39    6.02
   6   5   0   24.26    7.13
   7   1  -3   16.50    4.45
   7   2  -2   27.08    5.52
   7   4  -1    5.73    5.44
   8   2  -3    9.54    5.11
   8   4  -2   25.58    7.17
  10   0  -9   37.13    5.23
  10   2  -6    5.94    5.06
   1   6   3    8.20    4.55
   2   5   3   19.30    6.08
   3   0  -1 1504.99   14.29
   3   3   2   14.10    4.21
   4   5   2   44.17    8.11
   5   1  -1  148.66    7.42
   5   2   0   26.44    4.79
   6   3   0   14.78    6.13
   7   3  -1    2.56    4.67
   8   1  -4   46.52    6.03
   8   3  -2   -0.75    5.37
   9   0  -7    5.50    4.03
  10   1  -7   13.38    4.60
  -5   5   3   20.37    2.87
   1   3   3  156.13    7.94
   2   2   2  514.77   12.71
   2   4   3   27.95    5.29
   2   6   3   -2.29    4.12
   4   2   1  141.34    8.31
   4   4   2    5.89    4.81
   4   6   2    0.90    5.19
   5   3   1    1.98    4.40
   9   1  -5    1.18    4.11
   9   2  -4    3.93    4.15
   9   3  -3    2.79    5.51
  -1   5   4   57.71    6.15
   2   1   1  611.19   11.05
   3   5   3   16.32    5.60
   4   1   0  491.29   12.11
   6   0  -3  406.73   10.43
   6   4   1    8.93    6.25
   6   5   1   53.34    8.58
   7   0  -4    2.72    2.72
   7   4   0   -3.32    4.88
   7   5   0   -1.27    5.47
   8   4  -1   14.59    7.08
   9  -1  -9    0.19    2.71
  10   2  -5    6.43    5.21
  -2   6   4    0.76    3.35
  -1   4   4   28.26    4.19
  -1   6   4   22.38    5.03
   0   5   4  139.44    8.79
   0   6   4    1.04    4.33
   2   3   3  125.27    7.92
   3   4   3    7.71    4.58
   3   6   3    2.20    5.29
   4   3   2   12.89    4.58
   5   0  -2    1.19    2.30
   5   4   2    6.24    5.77
   5   5   2    6.02    5.65
   6  -1  -5  109.83    4.12
   7  -1  -6   38.92    3.31
   7   2  -1   29.78    6.54
   8   0  -5   29.36    4.45
  10   0  -8    4.51    3.89
  -3   5   4   14.42    3.54
   0   4   4  141.37    7.81
   1   5   4   38.01    5.70
   1   6   4   16.07    5.56
   3   2   2  112.83    7.11
   4   5   3   28.51    7.35
   4   6   3   -1.87    5.79
   5  -1  -4   91.54    3.30
   6   2   0   23.30    5.06
   6   3   1  112.36    9.85
   7   1  -2   23.11    4.82
   7   3   0   55.56    7.45
   8   2  -2   -0.02    3.91
   8   3  -1    4.68    4.98
   9   2  -3   -2.36    4.30
  10   1  -6   12.17    4.77
   1   4   4   17.07    4.24
   2   5   4   10.84    4.42
   2   6   4    5.89    5.41
   3   3   3   45.19    6.12
   4   4   3   24.05    5.97
   5   2   1   54.54    5.98
   6   1  -1   54.63    5.32
   6   5   2    9.98    6.53
   8   1  -3    5.10    3.56
   9   0  -6    1.46    3.87
   9   3  -2    2.82    4.72
  -3   4   4   66.67    4.13
   2   4   4    9.39    4.21
   3   1   1    8.10    2.84
   3   5   4   48.96    7.73
   3   6   4    7.86    6.28
   5   1   0  246.64    9.58
   5   3   2   28.98    5.86
   5   5   3   17.39    6.96
   6   4   2    1.73    5.85
   7   4   1    4.34    5.45
   8  -1  -7   23.36    3.19
   8   4   0   -3.66    4.90
   9   1  -4    1.24    4.12
  10   2  -4    6.79    4.78
  -4   6   4    5.49    3.14
   0   2   3    0.32    2.50
   4   0  -1  164.96    5.85
   4   2   2  396.39   13.05
  10   1  -5   -1.56    3.55
  -1   3   4  159.88    6.46
  -1   5   5   25.47    4.81
  -1   6   5   28.29    5.15
   0   3   4  112.77    6.04
   0   5   5   21.62    5.05
   0   6   5    9.16    4.68
   1   2   3  214.63    7.66
   1   3   4   78.13    6.09
   1   6   5    6.49    4.80
   3   4   4   17.58    5.18
   4   3   3   15.84    4.72
   4   5   4    1.10    4.88
   5   4   3   22.63    5.98
   7   2   0   14.76    5.31
   7   3   1    9.79    4.71
   8   2  -1    8.82    4.37
   8   3   0   10.59    5.34
   9   2  -2    2.24    4.66
   9   3  -1    8.31    5.11
  10   0  -7   -3.14    3.13
   1   5   5    0.25    3.44
   6   2   1  183.98   10.21
   6   3   2   64.02    7.73
   6   5   3   14.12    6.45
   7   4   2   10.68    5.87
   8   4   1    0.63    5.31
  -9  -1  -2   30.47    7.17
  -9   0  -1    4.31    5.47
  -9   2   2   -2.09    5.19
  -8   3   4    3.90    4.94
  -8   4   7    5.67    5.57
  -6  -4  -4   10.13    4.50
  -6  -3  -4   21.99    5.12
  -6   0  -2   21.67    5.69
  -5  -3  -4   29.63    4.37
  -5  -1  -3   18.02    4.52
  -5   0  -2   64.30    5.98
  -4  -4  -4   36.65    3.62
 -10   0  -1   -1.80    6.33
  -9  -2  -3   -2.00    5.03
  -9   1   0    7.85    6.20
  -9   3   4    2.07    5.54
  -7  -4  -4   23.09    5.73
  -7  -3  -4   12.73    5.12
  -7  -1  -3   11.31    5.67
  -7   0  -2    9.05    5.13
  -7   2   1   23.80    6.78
  -6  -1  -3  169.23    9.56
  -6   2   1   36.98    6.00
  -5   2   1   42.40    5.45
  -4  -3  -4   22.79    3.36
  -4  -1  -3  185.12    7.97
  -4   0  -2  154.65    7.63
 -10  -1  -2    4.83    5.93
 -10   1   0   25.24    8.34
 -10   2   2    6.50    6.15
  -8  -1  -3   14.43    6.18
  -8   0  -2   14.88    5.65
  -8   2   1   17.57    6.00
  -7   1  -1    5.64    6.40
  -7   3   3    6.46    5.32
  -7   4   6    7.90    5.17
  -6  -5  -4   21.26    4.38
  -6   1  -1   14.74    4.83
  -6   3   3   77.60    8.20
  -6   4   6   -0.29    4.52
  -5  -5  -4   11.91    3.38
  -5   1  -1   45.11    5.55
  -4   2   1   37.48    4.55
  -2   1   0   68.53    4.36
  -9   0  -2    1.76    6.44
  -9   2   1    2.54    5.52
  -8  -3  -4   16.00    5.40
  -8   1  -1   24.42    6.37
  -8   3   3    1.49    4.85
  -8   4   6    7.16    5.01
  -7  -2  -4   16.96    5.34
  -6  -2  -4  120.14    7.98
  -5  -2  -4   19.92    4.29
  -5   3   3   24.21    4.79
  -5   4   6   -0.97    3.91
  -4   1  -1  185.28    8.80
  -3  -1  -3  613.14   11.86
  -3   0  -2   39.43    4.32
 -10   2   1    9.52    7.45
  -9  -1  -3   10.12    5.45
  -9   1  -1    4.00    6.80
  -9   3   3    4.45    5.78
  -8  -2  -4    3.45    5.00
  -4  -5  -4    1.87    2.16
  -4  -2  -4   71.88    5.10
  -4   3   3    4.92    3.62
  -3  -4  -4   18.13    2.09
  -3  -3  -4   16.21    2.36
  -3   4   7    6.18    2.83
 -10   0  -2   15.73    6.65
  -9  -2  -4    8.47    5.92
  -8   2   0    3.43    6.02
  -8   4   5    2.87    5.30
  -7   2   0   13.99    6.13
  -7   4   5    6.80    5.07
  -6   0  -3  269.49   12.64
  -6   2   0   16.90    5.22
  -5   5  10    1.41    3.31
  -4   5  11    1.26    2.87
  -3   2   1   24.04    3.61
  -2   4   8    8.40    2.15
 -10   1  -1   19.86    7.30
  -9   2   0   13.81    7.27
  -8   0  -3   70.34    8.46
  -8   3   2   -0.95    5.17
  -7  -1  -4  102.95    9.18
  -7   0  -3   21.41    5.88
  -7   1  -2   18.16    6.69
  -7   3   2    3.39    4.61
  -6  -1  -4   39.63    6.39
  -6   3   2   96.09    8.36
  -6   4   5   10.52    4.12
  -5   0  -3  139.17    8.31
  -5   2   0   23.89    4.79
  -3   1  -1   11.06    3.23
  -1  -1  -2 2670.15   12.78
 -10   2   0    2.58    7.01
  -9   0  -3    0.81    5.40
  -9   3   2    1.10    5.73
  -8  -1  -4    3.30    5.03
  -8   1  -2   97.85    9.54
  -7  -3  -5    9.44    4.88
  -6  -3  -5    3.08    4.55
  -6   1  -2   37.64    6.06
  -5  -1  -4  210.13    9.60
  -5   1  -2   91.88    7.69
  -5   3   2   87.97    7.25
  -5   4   5    6.22    4.16
  -3   3   3   98.80    5.79
 -10   0  -3   -1.18    6.40
  -9  -1  -4   18.41    6.06
  -9   1  -2   19.56    6.79
  -8  -3  -5    2.35    4.52
  -8   4   4    6.93    5.69
  -7  -4  -5    1.08    4.19
  -7   4   4    9.24    5.37
  -6  -4  -5   18.68    4.93
  -4   0  -3  345.98   11.15
  -4   2   0   74.84    6.00
  -4   5  10    8.27    3.49
  -3  -2  -4   69.00    4.13
 -10   1  -2   11.47    6.66
  -9   2  -1   49.89    9.35
  -9   3   1    7.75    7.32
  -8  -2  -5    2.55    4.82
  -8   2  -1    6.27    5.50
  -8   3   1    6.02    5.34
  -7  -2  -5    7.42    4.19
  -7   2  -1    9.06    5.37
  -7   3   1    3.03    4.21
  -6  -2  -5    4.23    4.33
  -6   2  -1  176.04   10.77
  -6   3   1   25.71    6.52
  -6   4   4    0.74    4.27
  -6   5   8    8.08    4.64
  -5  -4  -5   55.96    5.20
  -5  -3  -5   23.57    4.16
  -4  -1  -4   19.21    3.93
  -4   3   2  170.90    8.69
  -3   4   6   23.22    3.52
  -2   0  -2   26.75    3.37
  -9  -2  -5    4.16    4.95
  -8   0  -4  110.36   10.14
  -7   0  -4   -0.84    4.43
  -6   0  -4   73.82    8.05
  -5  -2  -5   94.16    6.83
  -5   2  -1   59.79    6.92
  -5   4   4   -1.87    3.99
  -4   1  -2  134.03    7.58
  -2  -1  -3   54.21    3.42
  -1   3   5   38.70    2.20
  -9   0  -4    7.60    5.56
  -9   1  -3   14.09    6.53
  -8  -1  -5   33.43    7.18
  -8   1  -3   10.63    5.82
  -8   4   3    6.11    5.35
  -7  -1  -5   65.48    8.09
  -7   1  -3   15.02    6.11
  -7   4   3   10.55    5.58
  -6   1  -3  172.14   10.61
  -5   3   1   52.45    6.23
  -3   2   0   12.07    3.83
  -2   2   1  403.82    9.10
  -9  -1  -5    4.17    5.00
  -9   2  -2   18.73    7.96
  -9   3   0   10.95    6.52
  -8   2  -2    4.52    5.50
  -8   3   0   14.18    6.11
  -7   2  -2    6.66    5.83
  -7   3   0   56.42    8.32
  -6  -1  -5  107.07    8.28
  -6   4   3   16.65    5.28
  -6   5   7    2.85    3.76
  -5   0  -4    6.67    3.98
  -4  -3  -5   80.00    4.96
  -4   5   9   10.37    3.66
  -3   0  -3  336.61    9.77
  -3   5  11    0.91    2.13
  -2   4   7  134.46    4.83
  -8  -3  -6    2.44    4.49
  -8   4   2   25.07    7.08
  -7  -3  -6   16.10    5.06
  -6   2  -2   40.42    7.41
  -6   3   0   16.75    6.31
  -5  -1  -5  159.02    9.06
  -5   1  -3   23.35    5.01
  -4  -4  -5   31.53    3.45
  -4  -2  -5   30.62    3.93
  -4   2  -1  144.13    8.07
  -4   4   4   31.63    5.07
  -3  -1  -4   84.14    5.27
  -3   3   2   87.52    5.74
  -2   1  -1  599.35   11.05
  -9   0  -5    3.51    6.68
  -9   1  -4   18.72    7.98
  -8  -2  -6    1.22    3.98
  -8   0  -5   22.94    7.16
  -8   1  -4   11.58    6.76
  -7  -4  -6   -2.45    4.05
  -7  -2  -6    0.78    4.21
  -7   0  -5   92.51    9.66
  -7   4   2    0.63    5.19
  -6  -3  -6   16.08    5.12
  -6   5   6    7.20    4.57
  -5  -5  -5    9.49    2.83
  -5   4   3  120.01    8.65
  -4   3   1  189.42    9.07
  -3   1  -2  470.26   11.99
  -1   1   0  484.33    7.40
  -9   3  -1    4.17    5.90
  -8  -1  -6    0.81    5.49
  -8   3  -1    9.94    5.89
  -7   1  -4  108.38    9.88
  -6  -2  -6   25.43    5.42
  -6   4   2    8.65    5.36
  -5   2  -2    8.35    4.39
  -5   3   0   40.31    5.86
  -4   0  -4   45.41    5.01
  -4   1  -3  185.71    9.31
  -4   5   8    2.31    3.32
  -9  -1  -6    4.89    5.53
  -9   2  -3    8.52    6.19
  -8   2  -3   25.81    6.93
  -8   4   1   14.31    6.55
  -7  -1  -6   24.92    5.54
  -7   2  -3   53.31    7.75
  -7   3  -1    9.98    5.48
  -6  -4  -6   18.83    4.74
  -6   1  -4   34.66    6.51
  -4  -1  -5    1.44    3.29
  -3   5  10   13.60    2.68
  -7   4   1    1.58    4.68
  -6  -1  -6   44.06    6.31
  -6   2  -3   -1.74    4.67
  -6   3  -1  118.18    9.57
  -6   5   5    1.36    4.07
  -5  -3  -6   61.91    5.47
  -5  -2  -6  121.63    7.70
  -5   0  -5   82.38    7.71
  -5   1  -4  217.24   11.42
  -4   4   3    6.04    3.80
  -2  -3  -4   70.49    2.35
  -9   0  -6    1.60    5.71
  -9   1  -5    2.19    5.93
  -9   3  -2    6.09    6.25
  -8  -2  -7    4.53    5.20
  -8   0  -6    2.66    5.02
  -8   1  -5   35.00    7.71
  -8   3  -2    4.14    5.60
  -7   1  -5   73.36    9.22
  -7   5   4    5.23    5.04
  -6   4   1   24.89    6.25
  -5   4   2   92.92    7.71
  -4   2  -2  373.23   12.80
  -4   3   0   68.36    6.58
  -3   2  -1   14.28    3.50
  -2  -2  -4  674.27    9.02
  -9   2  -4    7.77    6.28
  -8   2  -4    8.78    6.36
  -8   4   0   -3.18    5.07
  -7  -3  -7    3.98    4.15
  -7  -2  -7    4.47    4.83
  -7   0  -6    4.72    4.87
  -7   3  -2   21.05    6.31
  -5  -4  -6    3.88    3.40
  -5  -1  -6    4.73    4.54
  -5   2  -3  221.71   11.90
  -5   3  -1    4.94    4.35
  -4   5   7   26.10    4.26
  -3  -3  -5   13.50    2.24
  -3  -2  -5  104.37    5.17
  -3   3   1    8.79    2.89
  -2   2   0  202.54    6.98
  -2   4   6   15.84    2.39
  -8  -1  -7    8.94    5.03
  -7  -1  -7    5.26    5.30
  -7   2  -4   15.07    5.89
  -7   4   0   -1.92    4.94
  -7   5   3    7.73    5.49
  -6   0  -6  575.84   18.75
  -6   1  -5  118.11    9.70
  -6   3  -2   70.13    8.61
  -6   5   4   17.88    5.24
  -5   5   5   13.38    4.50
  -3   0  -4   13.31    3.48
  -3   1  -3  597.23   14.02
  -3   5   9    0.80    2.37
  -2   0  -3  196.28    6.58
  -9   1  -6    8.80    6.27
  -8   1  -6   15.15    7.17
  -8   3  -3   -1.94    5.21
  -8   4  -1   -1.79    6.04
  -6  -3  -7   17.37    4.70
  -6  -2  -7   25.03    5.37
  -6   2  -4  114.47   10.10
  -6   4   0   16.72    5.96
  -5   4   1   98.71    8.50
  -4  -2  -6    4.68    2.94
  -4   0  -5  308.71   11.35
  -4   1  -4   10.02    3.91
  -4   4   2   22.05    4.80
  -2   1  -2  218.25    7.38
  -9   0  -7    6.59    5.71
  -9   2  -5    9.76    6.61
  -8   0  -7    4.19    4.99
  -8   2  -5    0.07    5.46
  -7   1  -6   26.33    7.29
  -7   3  -3   17.55    6.20
  -6  -1  -7  143.72   10.14
  -6   5   3   -1.00    4.30
  -5   0  -6   42.33    6.71
  -5   1  -5  161.51   10.06
  -4  -3  -6  101.38    5.60
  -4   3  -1   29.00    5.45
  -4   5   6   10.11    3.50
  -3  -1  -5  272.94    8.84
  -8  -2  -8    9.04    5.61
  -7   0  -7    7.60    5.17
  -7   2  -5    9.62    5.78
  -7   4  -1    8.00    5.55
  -7   5   2   18.02    5.88
  -6  -4  -7    3.46    4.12
  -5   2  -4   17.05    6.19
  -5   3  -2   30.16    5.93
  -5   5   4   35.02    5.73
  -4  -1  -6  105.78    7.02
  -4   2  -3   12.31    4.20
  -3   2  -2  114.99    6.83
  -3   3   0   60.85    5.52
  -3   5   8    3.34    2.64
  -2  -1  -4   78.61    4.17
  -1   3   4  161.40    4.13
  -8  -1  -8    6.17    5.28
  -8   3  -4   15.10    6.91
  -8   4  -2   -2.43    6.15
  -7  -2  -8    2.19    4.57
  -6   0  -7    2.69    5.83
  -6   1  -6   50.25    7.56
  -6   3  -3   11.73    5.76
  -6   4  -1   -0.65    5.17
  -5  -3  -7    8.44    3.90
  -5  -2  -7   42.32    5.55
  -5   4   0   11.04    5.39
  -8   1  -7   12.43    6.45
  -8   2  -6    6.60    7.07
  -7  -3  -8   -0.92    4.12
  -7  -1  -8    8.73    4.87
  -7   3  -4   19.28    6.51
  -7   4  -2   14.01    6.71
  -7   5   1    2.44    5.82
  -6   2  -5   -0.85    5.04
  -6   5   2   15.33    5.48
  -5  -1  -7  332.77   12.94
  -5   5   3   19.57    5.24
  -4   4   1   73.47    6.95
  -2   4   5   31.22    2.89
  -1   0  -2  292.02    5.78
  -8   0  -8   -1.30    4.64
  -7   1  -7    5.01    5.36
  -7   2  -6    0.54    6.13
  -6  -2  -8   33.24    6.08
  -5   1  -6    7.44    5.88
  -4   0  -6   55.43    6.27
  -4   1  -5    2.29    3.68
  -4   3  -2   15.48    5.14
  -3   0  -5  139.66    7.53
  -3   1  -4   74.66    6.06
  -2   2  -1  160.03    6.71
  -1  -2  -3  219.10    2.43
  -8   3  -5    1.34    5.74
  -7   0  -8    9.69    5.73
  -6  -3  -8    4.85    3.97
  -6  -1  -8   25.25    5.50
  -6   3  -4   23.68    5.90
  -6   4  -2    2.43    5.59
  -6   5   1    0.48    4.75
  -5   0  -7    2.17    5.24
  -5   2  -5  109.40    9.71
  -5   4  -1   21.22    5.94
  -4  -4  -6   68.36    4.02
  -4   2  -4   60.32    6.43
  -3  -4  -5   39.34    2.05
  -3   4   2   68.70    5.63
  -3   5   7   34.11    3.80
  -2   3   1  132.40    6.11
  -1   1  -1 1176.31   12.56
  -8  -1  -9   -2.46    4.76
  -8   1  -8   11.64    7.17
  -8   2  -7   10.47    7.20
  -7   3  -5    5.21    5.80
  -7   4  -3   23.68    7.43
  -7   5   0    0.28    4.97
  -6   1  -7  143.61   10.79
  -6   2  -6   19.85    7.21
  -5  -5  -6    2.08    2.12
  -5  -4  -7   -0.37    3.08
  -5   5   2   14.73    5.11
  -4   4   0   63.78    6.92
  -3   2  -3  144.88    7.91
  -3   3  -1   11.07    3.48
  -2   1  -3   47.93    4.75
  -8   0  -9    2.52    6.31
  -7  -2  -9    2.63    4.73
  -7  -1  -9    2.35    5.07
  -7   1  -8    2.30    6.36
  -6   0  -8   31.93    6.21
  -4  -2  -7   20.87    3.95
  -4  -1  -7  197.33    9.45
  -3  -2  -6    3.54    2.22
  -2   0  -4  182.53    6.81
  -8   3  -6    1.62    5.88
  -7   2  -7   -4.10    5.19
  -6   3  -5    5.37    5.30
  -6   4  -3   18.44    6.88
  -6   5   0   12.25    5.01
  -5  -2  -8   48.50    5.89
  -5  -1  -8   54.59    6.99
  -5   3  -4   21.93    5.89
  -5   4  -2   -5.20    4.67
  -4   1  -6  103.61    8.38
  -4   3  -3   24.04    5.14
  -4   5   3    7.95    4.59
  -3  -1  -6   29.25    3.63
  -3   5   6    4.02    2.91
  -2   4   4   26.70    3.00
  -8   1  -9    0.08    6.47
  -8   2  -8    8.48    7.32
  -7   0  -9   28.36    6.73
  -7   3  -6   19.83    6.84
  -7   4  -4   25.62    7.33
  -6  -4  -8    2.83    3.51
  -6  -2  -9    0.60    4.47
  -6  -1  -9   20.83    5.70
  -6   1  -8   35.04    7.61
  -5  -3  -8   24.40    4.57
  -5   1  -7  359.00   15.22
  -5   2  -6  125.96   10.25
  -5   5   1    4.56    3.54
  -4  -3  -7    2.18    2.85
  -4   0  -7  124.84    8.59
  -4   2  -5   30.64    5.53
  -4   4  -1   28.64    5.81
  -3   1  -5  262.46   10.58
  -3   4   1  310.90   10.98
  -2   2  -2  531.89   12.50
  -1  -1  -3 2137.26   13.16
  -1   3   3  426.19    7.20
  -6   2  -7   20.39    6.29
  -6   5  -1   46.56    7.64
  -5   0  -8  105.90    8.71
  -3  -3  -6   58.74    3.57
  -3   0  -6   -1.65    3.32
  -3   3  -2   14.58    3.86
  -2   3   0   74.01    5.19
  -7  -2 -10   14.38    5.53
  -7  -1 -10    1.01    5.29
  -7   1  -9    4.90    5.71
  -7   2  -8    5.91    6.46
  -7   4  -5    1.67    6.72
  -6  -3  -9    1.31    4.54
  -6   0  -9   62.81    7.69
  -6   3  -6   16.32    6.25
  -6   4  -4   13.00    5.95
  -5   3  -5   26.57    5.95
  -5   4  -3   20.00    6.35
  -5   5   0   12.58    5.22
  -4   5   2    6.58    4.22
  -3   2  -4   69.86    6.19
  -3   5   5   36.45    4.18
  -2  -2  -5   38.14    2.73
  -2  -1  -5 1049.50   14.35
  -7   0 -10   -0.37    5.61
  -7   3  -7    1.19    5.94
  -5   1  -8   50.08    8.18
  -5   2  -7   42.02    8.03
  -4   3  -4   20.27    5.28
  -4   4  -2    9.99    5.28
  -3   4   0  213.82    9.76
  -2   1  -4   71.30    5.71
  -2   4   3    5.17    2.44
  -6   1  -9   17.76    6.08
  -6   2  -8   32.19    7.16
  -6   5  -2   11.04    5.66
  -5  -2  -9   14.31    4.85
  -5  -1  -9   28.78    6.01
  -4  -2  -8  138.18    7.52
  -4  -1  -8  167.35    8.86
  -4   1  -7  180.38   10.42
  -4   2  -6    2.86    4.29
  -4   5   1   37.13    5.68
  -3   5   4   11.05    3.50
  -7   1 -10    1.91    6.73
  -7   2  -9   10.16    6.59
  -7   4  -6    3.08    5.83
  -6  -2 -10    7.53    4.72
  -6  -1 -10    4.99    4.42
  -6   3  -7   18.37    6.49
  -6   4  -5   20.39    6.65
  -5   0  -9    2.99    4.44
  -5   3  -6   72.08    8.61
  -5   4  -4   94.45    9.15
  -5   5  -1    9.48    4.65
  -4   0  -8   34.53    5.45
  -3  -1  -7   40.91    4.63
  -3   1  -6   32.03    4.87
  -3   3  -3   42.61    5.37
  -2   0  -5 2867.60   26.92
  -2   2  -3  267.47    9.51
  -2   3  -1  304.53    9.93
  -1   0  -3 2368.80   18.04
  -1   1  -2 2673.36   20.86
  -7  -1 -11    7.36    5.96
  -7   3  -8   -1.29    5.70
  -6   0 -10   21.45    6.03
  -6   5  -3   11.12    6.30
  -5  -4  -8   22.48    3.92
  -4   3  -5   85.22    8.19
  -4   4  -3   23.61    6.37
  -3  -2  -7   17.01    3.26
  -3   2  -5  106.05    7.61
  -3   4  -1   65.19    6.49
  -7   0 -11   -2.55    5.22
  -6   1 -10   -1.67    5.98
  -6   2  -9    2.32    5.57
  -6   4  -6   22.01    7.34
  -5  -3  -9    8.15    4.13
  -5   1  -9   33.34    6.75
  -5   2  -8   52.56    7.99
  -5   5  -2    9.11    5.49
  -4   2  -7   28.60    6.87
  -4   5   0   39.89    6.29
  -3   0  -7    1.14    3.04
  -1   3   2  249.90    6.22
  -7   1 -11   14.31    7.47
  -7   2 -10   23.54    7.49
  -6  -3 -10    2.36    4.19
  -6   3  -8    2.10    6.13
  -6   5  -4   27.10    7.96
  -5  -1 -10   11.00    5.21
  -5   3  -7    6.81    5.36
  -5   4  -5   57.33    7.98
  -4  -4  -7    1.90    2.16
  -4  -3  -8    4.18    2.98
  -4   1  -8  174.98   10.66
  -3   3  -4   12.34    4.21
  -1   2  -1  136.31    5.58
  -6  -1 -11    2.89    5.04
  -6   0 -11   -1.71    5.42
  -5  -2 -10   -1.64    4.53
  -5   0 -10   19.84    5.38
  -5   5  -3   16.35    6.03
  -4  -1  -9  127.19    8.53
  -4   0  -9   10.51    5.33
  -4   3  -6   92.78    8.86
  -4   4  -4   34.91    7.13
  -4   5  -1    5.04    4.45
  -4   6   5    2.06    3.19
  -3   1  -7   34.80    5.24
  -3   2  -6    2.02    4.64
  -3   4  -2   18.41    5.07
  -2   1  -5 1078.70   18.57
  -2   2  -4  701.24   15.81
  -2   3  -2   30.49    4.55
  -6  -2 -11   10.89    4.81
  -6   2 -10   10.53    6.34
  -6   4  -7    3.41    5.95
  -5   2  -9   15.60    6.05
  -5   4  -6    6.37    6.25
  -4  -2  -9   28.18    4.59
  -2  -1  -6   89.50    4.83
  -2   0  -6   13.61    3.98
  -6   1 -11    2.32    5.70
  -6   3  -9   -2.28    5.53
  -5  -5  -7    5.39    1.70
  -5   1 -10    7.48    5.27
  -5   3  -8   25.60    6.70
  -5   5  -4    8.20    5.79
  -4   1  -9  122.55    9.61
  -4   2  -8  136.91   10.36
  -4   5  -2   35.94    6.46
  -3  -1  -8   83.32    6.25
  -3   0  -8   98.44    7.41
  -3   3  -5   15.25    4.74
  -3   5   1   61.09    6.48
  -1   1  -3 2123.83   20.38
  -6   4  -8    0.23    6.39
  -4   3  -7    0.07    4.89
  -4   4  -5   28.64    6.48
  -3  -3  -7  152.77    5.37
  -3   4  -3    1.46    3.72
  -2   3  -3  121.71    7.52
  -2   4   0   47.67    4.90
  -6  -1 -12    4.49    5.36
  -6   0 -12    5.30    5.08
  -6   2 -11   14.59    6.93
  -6   3 -10    4.19    6.96
  -5  -3 -10    3.73    4.19
  -5  -1 -11   10.99    4.34
  -5   0 -11   10.67    5.04
  -5   2 -10    6.40    5.52
  -5   3  -9    3.20    6.49
  -5   4  -7    2.63    5.30
  -4  -1 -10    4.71    4.46
  -4   0 -10    1.31    4.96
  -3  -2  -8  105.59    5.84
  -3   1  -8   83.35    7.37
  -3   2  -7   12.55    4.73
  -3   5   0   27.22    5.04
  -2  -3  -5   30.76    1.53
  -2  -2  -6  103.04    4.31
  -2   1  -6   96.36    6.53
  -2   2  -5   38.11    4.92
  -1  -1  -4   43.81    2.73
  -1   0  -4   14.28    3.04
  -1   2  -2   29.74    3.79
  -6  -2 -12    1.49    4.33
  -6   1 -12    3.53    5.94
  -5  -4  -9   -3.53    2.86
  -5  -2 -11    7.42    4.52
  -5   1 -11   13.97    5.78
  -5   5  -5    8.05    5.39
  -4   2  -9   25.56    6.13
  -4   4  -6   71.55    8.88
  -4   5  -3   23.97    5.61
  -3   3  -6   61.47    7.11
  -3   4  -4   18.97    5.73
  -5   4  -8   16.74    6.35
  -4  -3  -9    4.52    3.13
  -4  -2 -10   43.20    5.69
  -4   1 -10    0.36    4.99
  -4   3  -8    5.24    5.04
  -4   6   1    5.10    3.84
  -3   0  -9   -1.65    4.05
  -3   5  -1    2.34    4.04
  -2   0  -7   -1.58    3.13
  -2   3  -4   72.32    6.66
  -2   4  -1  194.99    8.86
  -2   5   6   25.62    2.66
  -2   5   7    7.27    1.69
  -6   0 -13   24.35    7.72
  -6   2 -12    2.73    6.02
  -5   0 -12    2.42    5.53
  -5   2 -11   11.16    6.54
  -5   3 -10    4.07    5.81
  -5   5  -6    1.48    5.40
  -4   5  -4    3.79    4.53
  -4   6   0    9.20    4.41
  -3  -1  -9  136.70    7.68
  -3   2  -8  116.12    9.10
  -2  -1  -7  168.13    6.96
  -2   2  -6   99.91    7.60
  -2   5   5   77.12    4.26
  -1   1  -4   42.50    4.14
  -5  -1 -12   -0.59    4.12
  -5   1 -12    1.47    5.09
  -5   4  -9    0.63    6.48
  -4   0 -11    2.48    4.17
  -4   2 -10   36.10    6.95
  -4   3  -9    7.15    5.31
  -4   4  -7   -0.77    4.77
  -3   1  -9  148.77    9.69
  -3   3  -7  162.90   10.67
  -3   4  -5   34.75    6.15
  -3   5  -2    5.56    4.50
  -2   1  -7  160.15    8.44
  -2   4  -2   35.81    5.18
  -2   5   4   36.73    3.72
  -1   2  -3  214.35    7.80
  -5  -3 -11   21.46    4.91
  -5   5  -7    3.77    5.49
  -4  -1 -11   45.53    5.85
  -4   1 -11   50.94    7.07
  -4   5  -5   28.84    6.26
  -4   6  -1    0.88    4.21
  -2   3  -5   32.54    5.13
  -1   3  -1  453.34   10.68
  -5  -2 -12    4.97    3.95
  -5   0 -13   -5.97    4.79
  -5   2 -12    0.34    5.68
  -5   3 -11   26.92    7.36
  -4  -4  -8    4.82    2.10
  -4   4  -8    9.70    5.98
  -4   6  -2    1.84    4.53
  -3  -2  -9  118.23    6.48
  -3   0 -10    1.46    4.47
  -3   2  -9  122.36    9.68
  -3   3  -8   21.97    6.84
  -3   4  -6  221.20   12.85
  -3   5  -3   23.92    5.67
  -3   6   4    2.67    3.50
  -3   6   5   20.94    3.77
  -3   6   6    8.46    2.82
  -3   6   7    0.45    2.22
  -2   0  -8  167.90    8.42
  -2   4  -3   27.23    5.19
  -2   5   3   33.31    3.78
  -1   0  -5  876.76   13.45
  -5  -1 -13   14.67    5.57
  -5   1 -13    8.54    5.68
  -5   4 -10   -0.73    5.57
  -4  -2 -11    4.08    3.98
  -4   0 -12    0.95    5.02
  -4   2 -11    3.03    5.21
  -4   3 -10   10.01    5.84
  -4   5  -6    6.97    5.02
  -3  -1 -10   49.78    5.84
  -3   1 -10   53.40    6.97
  -3   6   3    5.20    3.65
  -2  -2  -7   39.24    3.23
  -2   1  -8  234.14   10.49
  -2   2  -7   41.17    5.62
  -2   5   2   32.74    3.98
  -1   1  -5  156.90    6.98
  -1   2  -4  271.80    9.57
  -1   4   5   74.53    2.49
  -5   2 -13    3.76    6.77
  -5   3 -12   11.05    6.67
  -4  -3 -10    8.03    3.55
  -4  -1 -12   10.39    4.83
  -4   1 -12    5.12    5.03
  -4   4  -9    3.86    5.44
  -4   6  -3    0.33    4.74
  -3  -3  -8   21.66    2.80
  -3   4  -7   59.51    8.09
  -3   5  -4   46.63    6.97
  -2  -1  -8  234.44    8.57
  -2   3  -6   56.45    6.47
  -2   4  -4   11.60    4.83
  -1  -1  -5  146.18    4.91
  -1   3  -2   20.92    3.34
  -1   4   3   84.67    3.90
  -1   4   4   25.45    2.11
  -5  -4 -10    2.29    2.74
  -4   2 -12    4.25    6.42
  -4   3 -11    6.16    5.76
  -4   5  -7   10.83    5.39
  -3   2 -10   56.80    7.56
  -3   3  -9   30.08    6.69
  -2   2  -8    8.29    5.30
  -5  -3 -12    7.61    4.18
  -5  -2 -13   -2.39    3.65
  -5   0 -14    4.88    4.99
  -5   1 -14   20.11    6.75
  -4   4 -10    8.50    6.92
  -4   5  -8    1.66    6.16
  -3   0 -11    0.39    3.94
  -3   1 -11   26.79    6.32
  -3   4  -8   -3.01    5.43
  -3   5  -5    3.32    4.31
  -3   6   0    1.61    3.49
  -2   0  -9   27.74    4.96
  -2   1  -9  174.81   10.15
  -2   3  -7  263.35   12.44
  -2   4  -5   20.95    5.77
  -1   0  -6  157.50    6.84
  -1   2  -5  333.24   10.82
  -1   3  -3  163.77    7.58
  -1   4   2   21.05    2.65
  -5  -1 -14   18.29    5.48
  -4  -2 -12    4.16    4.49
  -4   0 -13   31.42    6.28
  -4   1 -13    3.87    5.09
  -4   3 -12    4.01    7.00
  -3  -2 -10   68.44    5.61
  -3  -1 -11   16.13    4.78
  -3   2 -11   36.71    6.87
  -3   3 -10   15.69    5.86
  -3   5  -6    2.53    5.41
  -3   6  -1    2.03    3.67
  -2   5  -1  154.94    8.62
  -1   1  -6  392.68   11.28
  -4  -1 -13   -2.44    4.39
  -4   2 -13   -1.54    5.42
  -4   4 -11    7.46    6.98
  -3   4  -9   26.96    7.39
  -3   6  -2    9.14    4.47
  -2  -1  -9  163.02    7.80
  -2   2  -9  175.09   10.60
  -2   3  -8   96.68    9.37
  -2   4  -6   70.06    8.08
  -2   5  -2   78.50    7.07
  -1   3  -4   84.02    6.13
  -4  -3 -11    3.47    3.70
  -4   1 -14   10.95    6.36
  -3   0 -12   37.29    5.90
  -3   1 -12    2.94    4.41
  -3   3 -11    2.08    6.14
  -3   5  -7    0.34    5.29
  -3   6  -3    4.78    4.50
  -2  -2  -8    5.36    2.44
  -2   0 -10    8.39    4.45
  -2   1 -10  213.23   11.09
  -2   5  -3   24.23    5.27
  -1   2  -6   -2.60    3.05
  -1   4  -1  293.20    9.64
  -4  -4  -9    0.12    2.04
  -4   0 -14   -0.81    4.09
  -4   2 -14    2.42    6.49
  -4   3 -13   12.70    6.65
  -3  -3  -9   36.94    3.64
  -3  -1 -12   12.73    4.75
  -3   2 -12    1.75    4.90
  -3   4 -10   22.07    7.56
  -2   2 -10  197.76   12.13
  -2   3  -9   65.62    8.56
  -2   4  -7    5.33    5.88
  -1  -2  -4  254.32    3.18
  -1  -1  -6  389.53    8.39
  -1   0  -7  701.23   14.07
  -1   1  -7  229.52    9.29
  -1   3  -5   11.55    3.78
  -4  -2 -13   -0.28    3.70
  -4  -1 -14    5.37    4.83
  -3  -2 -11   29.82    4.66
  -3   1 -13    5.32    5.75
  -3   5  -8   -0.19    4.55
  -3   6  -4   10.30    4.98
  -2   5  -4   15.65    4.57
  -1   2  -7  114.31    7.63
  -1   4  -2  166.83    7.87
   0   1  -1 4490.95   19.92
  -4   1 -15    0.81    6.37
  -3   0 -13    1.06    3.65
  -3   2 -13    3.04    5.32
  -3   3 -12    5.59    5.63
  -3   4 -11    4.20    6.39
  -3   6  -5    6.92    5.37
  -2  -3  -6   49.41    1.97
  -2  -1 -10  206.25    9.13
  -2   0 -11   43.28    6.21
  -2   1 -11   18.51    5.37
  -2   3 -10    8.41    6.23
  -2   4  -8   70.70    7.83
  -2   5  -5    0.48    4.30
  -1   1  -8   35.97    4.86
  -1   3  -6  116.41    7.90
  -1   4  -3   36.56    4.67
   0   2   1   59.62    2.40
   0   2   2 1659.72    7.95
  -4   0 -15   14.98    5.48
  -3   5  -9    0.58    5.31
  -2   2 -11   39.56    6.70
  -2   5  -6    1.75    4.85
  -1   0  -8   16.21    3.47
  -1   2  -8  308.68   12.31
  -1   4  -4   13.68    4.54
   0   1  -2 1927.89   15.47
  -4  -3 -12    0.73    3.54
  -4  -1 -15   -0.22    4.70
  -3  -1 -13    5.94    3.84
  -3   1 -14    2.94    5.26
  -3   2 -14    9.51    6.63
  -3   3 -13   13.26    6.66
  -3   4 -12    3.24    6.54
  -3   5 -10   -4.48    5.75
  -2  -2  -9  170.52    6.70
  -2   1 -12   28.55    6.61
  -2   3 -11    3.64    5.88
  -2   4  -9    0.39    4.72
  -1  -1  -7  247.27    7.43
  -1   3  -7  165.19    9.70
  -1   4  -5   11.02    4.82
  -4  -2 -14    2.24    3.69
  -3  -3 -10   20.45    3.45
  -3  -2 -12    0.94    3.57
  -3   0 -14    0.58    4.18
  -2  -1 -11   18.86    4.55
  -2   0 -12    1.47    4.79
  -2   2 -12   28.79    6.09
  -2   4 -10    8.24    6.31
  -2   5  -7    6.42    4.82
  -2   6  -1   12.09    4.10
  -2   6   2   13.42    3.87
  -2   6   3   14.99    3.57
  -1   1  -9   87.99    6.96
  -1   2  -9   58.14    6.80
  -1   3  -8  135.44    9.99
   0   1  -3  514.06    9.30
   0   2  -2 1707.54   17.60
  -3   1 -15   14.67    6.67
  -3   3 -14   13.68    6.64
  -2   3 -12    9.68    6.71
  -2   5  -8   14.01    6.24
  -2   6  -3    5.11    4.12
  -2   6  -2   -3.13    3.25
  -1   0  -9   32.90    4.37
  -1   4  -6   30.31    5.48
   0   2  -3   -1.28    2.45
  -4  -4 -10    8.68    2.46
  -3  -1 -14   -0.38    4.24
  -3   0 -15    0.38    4.91
  -3   2 -15    2.63    5.58
  -2   1 -13   28.21    5.77
  -2   2 -13    3.48    5.16
  -2   4 -11    2.43    5.27
  -2   5  -9    8.01    5.97
  -2   6  -4    6.81    4.65
  -2   6   4   -1.64    2.39
  -1  -1  -8   38.44    3.87
  -1   1 -10   46.24    5.98
  -1   2 -10   65.96    7.45
  -1   3  -9  151.01   10.60
  -1   4  -7   51.67    6.70
  -1   5  -2   63.53    6.11
  -1   5   1  100.54    5.72
   0   1  -4  856.70   13.15
   0   2  -4  996.54   16.30
  -4  -3 -13   13.21    4.10
  -3  -2 -13    4.10    3.81
  -2  -2 -10  171.60    7.20
  -2  -1 -12   32.93    5.37
  -2   0 -13   -1.36    3.71
  -2   3 -13   19.34    7.45
  -2   6  -5   12.60    5.38
  -1   0 -10   30.50    5.07
  -1   4  -8   77.91    8.71
  -1   5  -3   14.64    4.64
  -1   5   2   56.06    4.27
   0   1  -5  273.84    8.59
  -3   1 -16   14.51    6.28
  -2   1 -14    7.44    5.01
  -2   2 -14    0.56    5.18
  -2   4 -12    4.15    5.96
  -2   5 -10   -1.35    5.26
  -2   6  -6   20.78    5.90
  -2   6   5   15.53    2.56
  -1  -2  -5  320.09    4.70
  -1   1 -11  100.72    8.19
  -1   2 -11  241.63   12.99
  -1   3 -10   82.69    8.44
  -1   5  -5   -0.92    4.20
  -1   5  -4   44.28    5.60
   0   0  -3 5185.32   22.91
   0   2  -5  989.54   17.33
   0   3  -3  199.02    7.94
   0   3  -2   86.17    4.98
  -3  -3 -11    5.72    3.07
  -3  -1 -15   16.41    4.80
  -3   0 -16    0.75    4.79
  -2   0 -14   19.61    5.77
  -2   3 -14   11.65    6.52
  -2   4 -13    2.25    6.72
  -1  -1  -9   95.46    5.76
  -1   3 -11   57.39    8.39
  -1   4  -9   10.98    5.23
  -1   5  -6   11.33    4.94
  -1   5   3   34.19    3.07
   0   0  -4   22.35    2.97
   0   1  -6  595.79   13.01
   0   2  -6  343.00   11.12
   0   3  -4  121.71    6.74
   0   3   1   79.40    3.44
  -3  -2 -14    9.28    4.67
  -2  -2 -11   38.84    4.52
  -2  -1 -13   28.90    5.37
  -2   1 -15    4.51    5.83
  -2   2 -15   -0.66    4.86
  -1   0 -11    5.82    3.65
  -1   1 -12   44.73    6.62
  -1   2 -12    7.06    4.95
  -1   4 -10   21.57    6.05
  -1   5  -7    3.18    4.95
   0   1  -7   -3.64    3.70
   0   2  -7   53.64    5.54
   0   3  -6   31.23    5.35
   0   3  -5  111.67    6.97
  -3  -1 -16   12.59    5.37
  -2   3 -15   12.63    6.64
  -1  -1 -10   47.89    4.94
  -1   3 -12   30.80    6.83
  -1   4 -11    1.11    5.99
  -1   5  -8    8.79    5.72
   0   0  -5   54.78    3.76
   0   2  -8  119.30    8.33
   0   3  -7   -2.94    4.41
  -2  -1 -14    4.34    4.16
  -2   0 -15   -0.07    4.08
  -2   1 -16   13.98    6.84
  -2   2 -16   12.58    6.29
  -1   0 -12    0.00    3.62
  -1   1 -13   35.51    6.43
  -1   2 -13    4.67    5.03
  -1   3 -13   38.51    8.20
  -1   5  -9   32.12    7.20
   0   0  -6 1334.60   16.80
   0   1  -8  331.83   11.19
   0   3  -8  237.43   11.92
   0   4  -4  143.95    8.23
   0   4  -3   98.89    6.61
   0   4  -2   90.24    5.85
  -2  -2 -12   23.13    4.22
  -1   2 -14    1.88    5.93
  -1   4 -12    3.55    5.52
  -1   5 -10    8.59    6.23
  -1   6  -4   23.48    5.19
  -1   6  -3   10.55    4.32
   0   0  -7 1074.97   16.59
   0   1  -9   47.51    5.42
   0   2  -9  196.19   10.30
   0   3  -9  287.11   13.59
   0   4  -6   18.05    5.30
   0   4  -5    8.13    3.87
  -2   0 -16    3.53    4.36
  -1   0 -13   34.13    5.74
  -1   1 -14    7.18    4.88
  -1   3 -14   -2.25    5.45
  -1   4 -13    6.45    6.08
   0   2 -10   32.37    6.10
   0   4  -7   17.49    4.95
  -1  -3   6  141.03    4.94
   0  -4  12   36.71    5.81
   0  -3  12   23.93    5.57
   0   0   5   57.60    4.55
   1  -3  15   29.46    6.72
   1   0  11    3.47    4.63
   1   1   7  247.91   10.30
   2  -1  16    4.34    7.70
   2   0  14   12.28    6.17
   2   2   7   40.77    6.01
   3   1  14   -2.22    5.48
   3   2  11   30.62    6.65
   3   3  -1    7.91    1.58
   3   3   4   10.63    3.57
   4   3   9    4.84    4.56
   5   3  12   13.28    7.43
   5   4   5   52.89    6.62
   0  -2  12   90.50    8.77
   0  -1  10   13.02    4.29
   0   0   6 1366.06   19.61
   1  -2  15    8.17    5.48
   1  -1  14   10.30    6.38
   1   0  12   -2.34    5.86
   1   1   8   37.21    5.38
   2   0  15    1.36    6.79
   2   1  12   36.77    7.34
   2   2   8   10.97    5.34
   3   3   5   13.59    4.28
   4   2  14    0.80    5.93
   4   3  10   10.08    6.04
   5   4   6    1.57    4.63
   7   5   0    1.35    3.01
  -1  -4   7   64.20    3.79
  -1  -3   7    2.16    2.21
  -1  -2   4  497.30    6.95
   0  -5  12    6.17    3.84
   0  -4  13   -0.35    3.90
   0  -3  13   17.86    5.87
   1   1   9   92.72    8.22
   2   1  13   31.45    7.96
   3   2  12   -0.16    5.03
   3   3   6   65.68    6.85
   5   4   7   -0.42    4.58
   7   5  -1   -0.47    2.61
  -1  -3   8   59.35    4.63
  -1  -2   3  169.36    2.97
  -1  -2   5   90.66    4.04
   0  -2  13   18.88    6.11
   0  -1  11   48.07    6.39
   1  -2  16    1.35    6.02
   1  -1  15    3.74    6.34
   1   0  13   34.02    7.15
   2   0  16    5.98    7.51
   2   2   9  189.38   11.17
   3   2  13   10.58    6.10
   3   3   7  159.49    9.69
   4   3  11    1.10    5.07
   5   4   8   19.61    5.91
   7   5  -2   13.90    2.68
  -1  -4   8   19.54    3.25
  -1  -2   6  293.22    7.64
   0  -4  14    1.46    4.96
   0  -3  14    6.19    5.16
   0  -1  12  122.05    9.98
   0   0   8  171.09    8.68
   1   1  10   52.13    6.91
   2   1  14    2.76    5.70
   2   2  10  175.85   11.50
   3   3   8   17.77    5.26
   4   3  12    4.92    5.47
   5   4   9   -0.51    5.04
  -1  -3   9   80.35    5.91
  -1  -2   7   52.02    4.21
   0  -2  14    8.54    5.48
   0   0   9   14.42    4.25
   1  -1  16    4.20    5.46
   1   0  14    4.14    5.41
   1   1  11  105.76    9.36
   2   0  17   -1.13    6.18
   2   2  11   34.56    8.10
   3   2  14    8.34    6.07
   3   3   9   43.90    7.06
   4   3  13   14.06    7.71
   5   4  10    4.38    5.78
  -1  -4   9    7.33    3.00
  -1  -2   8   15.92    3.41
   0  -3  15   19.06    6.11
   0  -1  13    3.80    5.19
   0   0  10   55.29    6.41
   1   0  15   24.63    7.89
   1   1  12   52.14    8.61
   2   1  15   -1.42    5.92
   3   2  15    5.83    7.17
   3   3  10   20.79    5.83
   4   4   5   25.98    5.60
  -1  -4  10    9.35    3.62
  -1  -3  10  202.28    9.03
  -1  -2   9    2.40    3.40
   0  -2  15   -0.29    5.37
   0   0  11   43.93    6.42
   1  -1  17   29.11    8.10
   2   1  16    9.74    6.91
   2   2  12   15.59    5.98
   3   3  -2   79.90    1.82
   3   3  11    8.23    6.19
   4   4   2    5.09    2.99
   4   4   6   60.99    6.86
   4   4   7    1.40    4.41
  -1  -3  11   72.25    6.68
  -1  -2  10  391.89   12.91
   0  -3  16   -2.37    5.27
   0  -1  14   69.41    8.45
   0   0  12    2.89    5.88
   1   0  16   -2.45    5.69
   1   1  13   34.98    7.45
   2   2  13   -2.21    5.16
   3   3  12    3.74    6.32
   4   4   1   20.58    3.29
   4   4   8    2.01    4.60
   6   5   2    9.58    3.87
   6   5   3    7.16    4.09
  -1  -5   7   12.11    1.77
  -1  -4  11   19.78    4.58
  -1  -3  12   15.44    4.79
  -1  -2  11   81.13    7.43
   0  -2  16    0.97    5.05
   0  -1  15   -1.13    4.90
   1   1  14   14.83    6.31
   1   2   5  332.45   10.77
   1   2   6    5.13    3.29
   1   2   7  113.69    8.07
   2   2  14   -0.35    5.65
   3   3  13   12.18    6.92
   4   4   9    2.15    4.22
   6   5   1   37.90    4.57
  -1  -5   8    8.81    2.22
  -1  -4  12   40.97    5.87
  -1  -2  12   37.15    6.33
  -1  -1   6   45.75    4.14
  -1  -1   7  157.99    7.25
  -1  -1   8  248.56    9.52
   0  -2  17    4.25    6.50
   0   0  13  160.18   11.51
   1   0  17    6.57    6.67
   1   1  15   -0.83    6.83
   1   2   4  254.64    8.56
   1   2   8  318.80   12.86
   1   2   9   67.38    7.37
   2   2  15   -4.79    7.09
   2   3   6   52.48    6.09
   2   3   7  245.19   11.69
   4   4  10    8.20    4.94
   4   4  11    0.52    5.52
  -1  -5   9    8.95    2.59
  -1  -3  13   66.44    7.34
  -1  -1   5   14.56    2.75
  -1  -1   9    9.82    3.52
  -1  -1  10   30.50    5.52
   0  -1  16   -4.09    4.83
   0   0  14    0.18    4.85
   0   1   6  612.23   14.19
   0   1   7   -0.84    3.53
   0   1   8  309.72   11.86
   0   1   9   41.83    6.46
   1   2   3  205.57    7.12
   1   2  10   63.61    7.78
   1   2  11  222.53   13.82
   2   3   4   64.36    5.30
   2   3   5   27.53    4.18
   2   3   8   85.22    7.97
   2   3   9   63.56    8.47
   3   3  14    3.64    6.02
   4   4   0   57.99    3.69
   6   5   0   15.23    3.19
  -1  -5  10    6.87    2.98
  -1  -4  13    8.72    4.66
  -1  -3  14   26.08    6.03
  -1  -2  13   25.72    5.48
  -1  -1  11  150.98    9.35
   0  -1  17    3.46    5.47
   0   0  15    3.93    5.63
   0   1   5  285.83    9.11
   0   1  10   10.84    4.79
   1   1  16    4.62    6.27
   1   2  12    1.74    6.08
   2   2  16   12.41    7.06
   2   3  10    2.81    4.44
   2   3  11   -3.74    5.33
  -1  -5  11    8.77    3.56
  -1  -4  14    5.40    5.02
  -1  -2  14   21.15    5.35
  -1  -1   4  220.04    5.61
  -1  -1  12   21.05    5.36
   0   0  16   60.37   10.06
   0   1   4  876.01   13.96
   0   1  12  126.55   10.35
   1   1  17   19.84    7.77
   1   2  13    6.29    5.56
   2   3  12   10.17    6.66
   5   5   6    1.63    4.11
   5   5   7    6.87    4.55
  -1  -5  12    3.61    3.34
  -1  -3  15    6.21    4.78
  -1  -2  15    3.89    5.33
  -1  -1  13   71.62    7.96
   0   1  13    9.46    5.68
   1   2  14   -3.32    5.31
   2   3  13   15.38    6.50
   3   4   5   29.12    5.03
   3   4   6  215.71   10.91
   3   4   7   53.92    6.98
   3   4   8   -0.58    4.49
   3   4   9   22.10    6.19
   3   4  10   25.09    6.79
  -1  -3  16    5.38    5.21
  -1  -2  16    6.18    5.54
  -1  -1  14   87.47    9.07
  -1   0   9  269.97   11.43
   0   0  17    3.16    6.47
   0   1  14   83.21    9.69
   1   2  15   19.07    7.23
   2   3  14    6.76    6.48
   3   4  11    1.56    4.58
   5   5   3   11.61    4.38
   6   5  -1    0.15    1.99
  -1  -1  15   18.88    6.12
  -1   0   8  323.30   11.31
  -1   0  10   19.16    4.79
  -1   0  11   29.86    5.71
  -1   0  12   46.15    7.61
   0   0  18    7.48    6.74
   0   1   3  497.77    9.45
   0   1  15   -4.39    5.34
   1   2  16    2.64    6.22
   2   3  15   14.89    7.00
   3   4  12    4.91    5.25
   4   4  -1   66.54    3.10
  -1  -2  17   -1.23    4.81
  -1  -1  16   -1.76    5.36
  -1   0  13    6.21    5.24
   0   1  16    1.51    6.09
   5   5   2   10.97    3.66
  -1  -1  17   -2.73    4.86
  -1   0   6  276.89    9.01
  -1   0  14   10.22    5.98
  -1   0  15   43.37    8.53
   0   1  17    1.76    6.31
   0   2   9  208.45   11.59
   0   2  10   45.64    7.80
   0   2  11  365.37   16.50
   1   3   9  147.85   10.84
   1   3  10   80.59    9.27
   1   3  11   55.58    8.65
   4   5   8    2.70    4.96
  -1  -1   3 2089.84   13.34
  -1  -1  18    4.90    6.10
  -1   0  16    8.32    7.04
   0   2   8  125.52    8.49
   0   2  12   92.08    9.66
   0   2  13   15.98    6.43
   1   3   7  162.84    9.76
   1   3   8  133.45    9.33
   1   3  12   18.42    6.37
   1   3  13   43.20    8.03
   2   3   1  285.86    6.99
   4   5   6   10.04    5.07
   4   5   7    4.19    4.19
  -1   0   5  514.14   10.91
  -1   0  17   -3.01    5.17
   0   2   7   56.20    5.87
   0   2  14    6.70    6.10
   0   2  15    1.70    7.07
   1   3   6  106.93    7.60
   1   3  14    2.23    5.73
   1   3  15   25.65    8.79
   2   4   8   64.14    7.64
   2   4   9    4.67    5.38
   2   4  10    9.26    5.79
   2   4  11    3.56    5.74
   2   4  12    4.05    6.02
   3   4   2   14.41    3.12
   5   5   1    6.39    3.01
  -2  -3  10   26.05    4.32
  -2  -3  11   22.71    4.44
  -2  -3  12   28.95    5.15
  -2  -3  13   18.92    5.11
  -2  -2  10   21.14    4.31
  -2  -2  11    4.93    4.11
  -2  -2  12  100.56    8.16
  -2  -2  13   43.40    6.67
  -2  -2  14   14.94    5.64
  -1   1   9   12.64    4.52
  -1   1  10   32.26    5.85
  -1   1  11  148.61   10.35
  -1   1  12   14.75    5.95
  -1   1  13   68.62    8.86
  -1   1  14   98.76   10.90
   0   1   2 1914.34   15.66
   0   2   6  338.88   11.44
   0   2  16    1.50    6.50
   2   4   7    3.00    4.76
   2   4  13    8.96    6.34
  -2  -3   9   16.20    3.27
  -2  -3  14   13.18    5.10
  -2  -3  15    8.64    4.65
  -2  -2   9    1.67    2.90
  -2  -2  15    4.97    5.23
  -2  -1  11   74.03    7.44
  -2  -1  12   52.58    7.17
  -2  -1  13    1.33    5.37
  -1   1   8  230.95   10.37
  -1   1  15   29.36    7.44
  -1   1  16   -1.78    6.95
   0   2  17    1.93    6.43
   1   3   5   11.18    3.36
   2   4   6   68.17    6.80
  -2  -3  16    2.00    4.65
  -2  -2   8   67.05    5.03
  -2  -2  16    2.61    4.80
  -2  -2  17    6.46    5.94
  -2  -1  10  203.20    9.80
  -2  -1  14   47.91    6.98
  -2  -1  15   12.28    6.28
  -1   1   7  144.88    8.09
  -1   1  17   -2.87    6.25
   0   2   5 1008.17   17.95
   3   5  10    3.90    5.34
  -2  -4  11    1.96    3.63
  -2  -4  12    0.47    3.74
  -2  -4  13   23.58    5.24
  -2  -4  14   14.72    5.07
  -2  -3   8   19.46    3.03
  -2  -1  16   10.14    5.69
  -2  -1  17    3.70    6.10
  -1   0   4  917.90   12.86
  -1   1  18    5.33    6.77
   1   3   4   83.45    5.78
   2   4   5   14.86    4.22
   3   4   1   55.51    3.86
   3   5   8   -0.04    4.22
   3   5   9    4.42    4.61
   4   5   3   30.72    4.80
  -2  -4  10   25.26    3.79
  -2  -1   8   32.22    4.51
  -2  -1  18    0.58    5.67
  -2   0  11  117.31    9.38
  -2   0  12   10.51    5.10
  -2   0  13    1.43    4.83
  -2   0  14    4.08    5.43
  -2   0  15    6.90    6.45
  -1   1   6   42.03    4.80
  -1   2  13   29.15    8.08
   0   3  10   66.21    8.98
   0   3  11   12.65    5.55
   0   3  12   22.69    6.56
   0   3  13   15.83    6.45
   0   3  14    2.66    6.46
   0   3  15   14.72    8.07
   3   5   7    8.44    4.65
   5   5   0   14.23    2.61
  -2  -2   7   71.23    4.43
  -2   0  10   32.58    5.51
  -2   0  16   -1.35    5.36
  -2   0  17    1.04    5.40
  -1   2  10  402.21   16.37
  -1   2  11   77.16    8.78
  -1   2  12   42.40    7.60
  -1   2  14   23.77    7.15
  -1   2  15    0.40    6.01
  -1   2  16    4.75    6.53
   0   2   4  988.88   16.37
   0   3   9  280.09   13.54
   0   3  16    4.50    6.69
   1   4  10   18.65    6.41
   1   4  11    2.87    5.00
   1   4  12    1.30    4.96
   1   4  13    4.75    5.63
   1   4  14    4.03    6.10
   3   5   6    5.46    4.36
  -2  -4   9    5.63    2.69
  -2   0   9  243.84   10.69
  -2   0  18    5.62    6.29
  -1   2   9    0.99    5.23
  -1   2  17   -0.47    6.15
   0   3   8  247.46   12.06
   1   4   9   10.52    4.75
   2   3   0   72.61    3.16
  -2  -3   7   23.97    2.58
  -2  -1   7   93.70    5.55
  -2   1  12   48.89    8.28
  -2   1  13   -1.10    5.17
  -2   1  14   48.80    8.13
  -2   1  15   13.67    6.50
  -2   1  16    4.82    7.35
  -1   1   5   14.74    3.46
   0   3   7   -2.13    4.40
   1   4   8   72.36    7.57
   4   5   2   35.82    4.21
  -2   0   8   78.87    6.26
  -2   1  11   69.99    7.89
  -2   1  17    8.78    6.89
  -2   1  18    0.06    6.12
  -1   2   8   15.66    4.59
   1   4   7   44.41    6.58
   2   5   9    5.05    5.07
   2   5  10    4.90    4.74
  -2  -2   6  229.15    6.53
  -2   1  10  205.47   11.30
  -1   2   7   57.92    6.46
  -1   3  14   20.43    8.32
  -1   3  15    3.42    7.63
   0   2   3    1.42    2.91
   0   3   6   33.21    5.36
   2   5   8   16.25    5.43
  -3  -2  13   21.02    5.66
  -3  -2  14    8.99    5.09
  -3  -2  15    2.98    3.79
  -3  -2  16    3.71    4.47
  -3  -2  17    2.79    5.52
  -3  -1  13   66.66    8.20
  -3  -1  14   32.88    7.01
  -3  -1  15    0.06    4.68
  -3  -1  16   11.38    5.71
  -3  -1  17    0.13    5.80
  -2  -5  12   -1.62    2.70
  -2  -1   6  222.07    7.54
  -2   0   7  238.28    9.36
  -2   1   9  147.09    9.66
  -1   0   3  289.44    6.50
  -1   3  12   15.48    6.28
  -1   3  13   69.85    9.41
  -1   3  16    3.17    6.67
   0   4  12   42.96    8.50
   0   4  13    0.10    5.85
   0   4  14   -5.35    5.47
   1   2   0  409.66    5.79
   1   4   6   24.55    4.68
  -3  -3  14    9.14    4.76
  -3  -3  15   15.01    4.96
  -3  -3  16    0.40    4.35
  -3  -2  12  136.23    9.04
  -3  -1  12   28.57    6.26
  -3   0  15   22.71    7.38
  -3   0  16    2.61    6.55
  -3   0  17    0.77    6.37
  -2  -4   8    9.82    2.12
  -2   2  13   37.52    7.69
  -2   2  14   12.37    6.31
  -2   2  15    2.36    5.95
  -2   2  16    3.79    6.70
  -2   2  17    6.84    6.80
  -1   3  10  208.11   13.17
  -1   3  11   70.46    8.89
   0   4  10   16.15    6.37
   0   4  11    1.10    5.02
   2   5   7    6.76    4.72
   3   4   0  210.49    5.51
  -3  -3  13    2.26    4.15
  -3  -2  11   58.35    6.19
  -3  -1  11   23.27    5.51
  -3   0  13   13.85    5.68
  -3   0  14    8.48    5.15
  -3   0  18   -4.07    5.46
  -2  -5  11    3.74    2.43
  -2   1   8   33.13    5.13
  -2   2  12  112.43   10.40
  -1   1   4  220.51    7.62
  -1   2   6  300.15   11.05
   0   3   5  113.96    7.31
   0   4   9   22.36    6.68
   1   4   5   13.10    4.19
   1   5  11    6.66    6.16
   4   5   1    4.47    2.64
  -3  -3  12    8.54    3.98
  -3   0  12   37.92    6.59
  -3   1  17    8.87    7.75
  -2   0   6  236.23    8.86
  -2   2  11    2.85    5.20
  -1   3   9   83.25    8.41
   1   5  10    5.96    5.66
   2   4   2   34.28    3.69
   2   5   6    0.63    4.09
   3   5   3   20.09    4.08
  -3  -2  10   30.06    4.61
  -3  -1  10   -1.44    3.90
  -3   0  11    1.82    4.26
  -3   1  14   35.37    7.51
  -3   1  15    4.07    5.91
  -2  -3   6   60.74    2.86
  -2   2  10   21.81    5.86
  -1   3   8   63.56    7.71
   0   4   8    7.75    5.46
   1   5   9   24.41    6.34
  -3  -4  14   27.93    5.34
  -3  -3  11   28.09    4.41
  -3   0  10   39.57    6.33
  -3   1  13   64.94    8.44
  -2   1   7   97.33    6.92
  -2   2   9    3.36    4.38
  -2   3  14    9.03    7.58
  -2   3  15   -1.44    6.19
  -2   3  16    6.32    6.75
  -1   2   5   81.47    6.51
  -1   4  13    5.15    6.75
  -1   4  14    5.57    6.69
  -3  -4  13   24.10    4.79
  -3  -1   9   81.49    6.60
  -3   1  12   33.50    7.44
  -3   2  16    4.18    7.77
  -3   2  17    3.81    7.67
  -2  -5  10    3.64    1.92
  -2  -1   5   76.69    4.40
  -2   3  13   11.25    6.39
  -1   4  12   41.14    7.85
   0   2   2 1722.50   17.75
   0   3   4  119.22    6.63
   0   4   7   16.17    5.46
   1   4   4   11.84    3.69
   1   5   8    1.66    4.95
  -4  -1  16   28.25    7.27
  -4  -1  17    0.56    5.80
  -3  -3  10   10.53    3.32
  -3  -2   9    6.22    3.12
  -3   1  11   17.74    5.74
  -3   2  14    0.10    6.83
  -3   2  15    7.78    6.45
  -2  -2   5  208.79    5.35
  -2   2   8   69.08    7.50
  -2   3  12   23.87    6.77
  -1  -1   2 2666.63   10.84
  -1   3   7    5.29    4.07
  -1   4  11   19.39    6.59
   0   5  12    5.85    5.91
  -4  -2  15    3.53    4.92
  -4  -2  16    3.56    5.25
  -4  -1  15   20.44    6.06
  -4   0  16   -0.26    6.53
  -4   0  17   -0.88    5.92
  -3  -4  12   -3.38    3.30
  -3   0   9    2.90    3.68
  -3   1  10    2.93    5.39
  -3   2  13   13.23    6.41
  -2   0   5   38.34    4.40
  -2   1   6  202.07    8.99
  -2   3  11   19.02    6.06
  -1   1   3 2114.64   20.37
  -1   4  10    7.49    5.24
   0   4   6    7.14    4.56
   0   5  11   12.25    6.02
   1   5   7    0.89    4.68
   3   5   2   13.13    3.54
  -4  -2  14   17.59    5.87
  -4  -1  14   -2.90    4.02
  -4   0  14   10.79    6.35
  -4   0  15   81.35    9.66
  -4   1  17    0.95    7.37
  -3  -1   8   94.11    6.43
  -3   2  12  137.91   11.28
  -2   3  10   25.97    6.99
  -1   3   6  158.10    9.24
   0   5  10    5.14    5.57
  -4  -1  13   65.01    7.58
  -4   0  13   37.67    8.01
  -4   1  16   38.77    8.73
  -3   0   8  295.22   11.55
  -3   1   9   89.30    8.33
  -3   2  11   72.83    9.92
  -3   3  15   22.58    8.82
  -3   3  16   -0.02    6.54
  -2   2   7   70.29    6.66
  -2   4  14   14.47    7.41
  -1   2   4  498.04   12.34
  -1   4   9    4.18    4.47
   0   5   9    4.34    5.33
   1   5   6    9.10    4.83
   2   4   1  178.36    6.09
  -4  -3  15   17.64    5.30
  -4  -2  13   18.74    4.73
  -4  -1  12   71.35    8.05
  -4   1  14    0.81    5.47
  -3  -4  11    2.06    2.97
  -3  -3   9   68.43    4.68
  -3  -2   8    4.57    2.61
  -3   3  14    4.47    6.36
  -2   3   9   22.12    5.90
  -2   4  13   28.05    7.88
  -1   4   8   15.70    6.18
   0   3   3  205.09    8.00
   3   6   5    2.77    3.66
   4   6   3   -0.83    2.99
  -4  -3  14    6.89    4.40
  -4  -2  12    8.09    4.52
  -4   0  12   92.68    8.98
  -4   1  13   60.69    8.35
  -4   2  16    5.33    7.74
  -3   2  10   35.33    6.69
  -3   3  13    8.55    6.31
  -2   4  12    5.10    6.38
  -1   5  12    3.51    6.54
   0   4   5   12.49    4.42
   0   5   8    8.03    5.21
   4   5   0   28.93    2.59
  -4  -1  11   50.64    6.76
  -4   0  11    8.01    5.73
  -4   1  12   63.00    9.15
  -4   2  15    6.01    7.01
  -3   1   8   98.98    7.70
  -3   3  12    7.47    5.97
  -2   1   5   79.93    5.86
  -2   2   6  244.53   10.50
  -2   3   8   17.04    5.22
  -2   4  11    0.40    5.21
  -1   0   2 4037.80   20.18
  -1   3   5   33.20    5.17
  -1   5  11   10.11    6.26
   1   5   5    2.57    4.07
   2   5   3   21.04    4.17
  -5  -1  17   -3.23    6.42
  -5   0  17   22.02    8.38
  -4  -3  13    3.77    4.01
  -4   2  14   14.93    7.00
  -3  -1   7    1.67    2.56
  -3   0   7   44.83    5.09
  -3   2   9    2.95    4.58
  -3   3  11   22.81    7.68
  -1   4   7   68.89    7.34
  -5  -1  16   21.74    7.04
  -5   0  16    7.69    6.91
  -4  -2  11    6.55    4.05
  -4   1  11   45.65    7.34
  -4   2  13   21.56    7.11
  -3   4  14   35.53    9.53
  -2  -1   4 1456.66   14.74
  -2   4  10   21.30    6.24
  -1   5  10    8.94    5.52
   0   5   7    8.22    4.30
   3   6   4    6.97    3.81
  -5  -2  16    5.98    5.36
  -5  -1  15    5.27    5.97
  -5   0  15    3.23    5.67
  -5   1  16   28.22    9.15
  -5   1  17   -0.34    6.34
  -4  -3  12   20.76    4.83
  -4  -1  10    1.95    3.47
  -4   0  10   59.90    6.95
  -4   2  12   18.65    6.87
  -4   3  15   22.11    7.96
  -3  -4  10   -1.26    2.43
  -3  -2   7   13.25    2.97
  -3   1   7    3.24    3.62
  -3   2   8    4.99    5.25
  -3   3  10   16.09    6.61
  -3   4  13   22.18    8.52
  -2   0   4  186.06    6.66
  -2   3   7   18.28    4.99
  -2   4   9   -2.86    5.67
  -1   2   3  169.99    7.25
   0   4   4  135.88    7.89
   2   3  -1  122.57    2.65
   3   5   1    3.20    2.56
  -5  -2  15   -0.90    4.60
  -5  -1  14   10.32    6.00
  -5   1  15   -0.10    6.05
  -4   1  10   -1.92    4.42
  -4   3  14    7.35    6.81
  -3  -3   8    4.99    2.29
  -2   5  12    3.45    6.70
  -1   4   6   63.44    7.30
  -1   5   9   10.12    5.14
   1   6   7   16.25    5.80
  -5   0  13    5.54    6.50
  -5   1  14   13.67    6.68
  -5   2  16   17.53    7.65
  -4  -2  10   37.13    4.97
  -4   0   9   50.00    6.66
  -4   2  11    7.10    5.77
  -4   3  13    6.68    6.39
  -3   3   9   89.31    9.68
  -3   4  12    1.57    5.76
  -1   3   4  159.15    7.96
   0   5   6    3.14    3.59
   4   6   2    2.44    2.67
  -5  -2  14   36.88    6.74
  -5  -1  13   29.54    6.05
  -5   1  13   34.12    8.31
  -5   2  15    0.96    6.64
  -4  -3  11   32.74    4.92
  -4  -1   9    9.69    3.60
  -4   3  12   16.48    7.75
  -3  -1   6  123.95    6.29
  -3   0   6  633.32   14.58
  -3   4  11   -0.27    5.22
  -2   1   4 1444.16   19.94
  -2   3   6   68.70    6.74
  -2   4   8    7.43    5.42
  -2   5  11    1.77    5.61
  -1   1   2 2667.06   20.74
  -1   5   8    5.69    4.23
  -5   0  12   33.00    7.29
  -5   2  14   39.08    8.56
  -4   1   9   10.92    4.86
  -4   2  10   43.96    7.45
  -3   1   6  116.23    7.85
  -3   2   7   18.87    4.97
  -2   5  10    5.86    5.89
   1   6   6    1.73    4.61
   2   5   2   83.59    5.39
   3   6   3   -0.44    3.16
  -5  -3  15   13.59    5.25
  -5  -2  13    5.08    5.03
  -5  -1  12   14.45    5.11
  -5   1  12   14.51    6.42
  -5   2  13    6.98    7.44
  -4  -4  13    2.89    3.54
  -4   3  11   35.89    7.62
  -3   3   8    8.11    5.02
  -3   4  10    1.15    5.10
  -2   4   7  160.88   11.07
  -1   4   5   87.91    7.12
  -1   5   7    8.97    5.19
   0   4   3   96.42    6.39
   0   5   5   24.49    5.50
   0   6   8    8.04    5.22
  -6  -1  16    0.99    5.94
  -6   0  16   10.28    6.85
  -5   3  15    5.67    6.96
  -4  -2   9   20.73    3.92
  -4   0   8    7.19    3.84
  -4   2   9   23.75    6.12
  -4   4  13    0.94    6.56
  -2   5   9    0.08    5.49
   2   6   4    8.06    4.09
  -6   0  15   35.62    8.38
  -5  -3  14    5.86    4.56
  -5  -2  12   10.60    5.05
  -5  -1  11   18.62    5.73
  -5   1  11   21.69    6.51
  -5   2  12   14.45    6.46
  -5   3  14    0.64    6.32
  -4  -1   8    7.31    3.81
  -4   1   8   10.59    4.58
  -4   3  10    7.64    5.98
  -4   4  12   -0.95    6.69
  -3   2   6  286.92   12.33
  -3   4   9   20.68    6.12
  -2   2   4  255.97    9.80
  -2   3   5   61.59    6.15
   0   6   7    9.39    4.87
   2   4   0   45.30    2.85
  -6  -1  15    3.20    4.75
  -6   0  14   32.32    8.12
  -6   1  15    5.27    6.19
  -5   3  13    0.74    6.21
  -4  -3  10    7.18    3.25
  -3   3   7   24.48    5.58
  -3   5  11    1.73    6.80
  -2  -2   4  249.02    4.62
  -1   3   3  412.56   11.64
   1   3   0   94.23    3.71
  -6  -1  14    4.77    5.56
  -6   1  14   -5.53    5.88
  -6   2  15    2.12    6.47
  -5  -3  13    5.73    4.82
  -5   0  10   13.14    5.08
  -5   1  10   -1.10    5.99
  -5   2  11    3.23    5.78
  -4  -4  12    0.67    3.25
  -4   2   8   67.22    7.76
  -4   3   9   -7.02    5.99
  -4   4  11    3.16    5.78
  -3  -4   9   19.30    2.51
  -3  -2   6  274.30    7.42
  -3   0   5   11.38    3.33
  -3   4   8   19.13    6.91
  -2   4   6   24.90    5.43
  -2   5   8    7.68    4.97
  -1   2   2   49.32    4.03
  -1   4   4   25.48    4.93
  -1   5   6   53.87    6.58
  -6  -2  15    1.16    4.84
  -6   0  13    3.97    6.13
  -6   1  13   11.60    7.19
  -6   2  14    0.02    7.10
  -5  -2  11    1.37    4.00
  -5  -1  10    6.15    4.79
  -5   3  12   18.59    7.23
  -4   0   7   23.05    4.41
  -4   1   7   76.92    7.59
  -3   1   5  135.06    7.75
  -3   5  10   13.27    6.79
  -2   0   3  120.58    5.15
  -1   6   8    8.35    5.54
   0   5   4  146.20    8.81
   1   4   1  287.03    7.93
  -6  -1  13    6.32    5.53
  -5   2  10    4.70    5.57
  -5   4  13    2.78    7.36
  -4  -2   8   66.79    5.13
  -4   4  10    1.70    5.53
  -3  -3   7   21.42    2.39
  -3  -1   5  147.95    6.26
  -3   3   6   74.57    7.93
  -2   1   3 4074.63   31.36
   0   6   6   18.82    5.32
   3   6   2    4.76    2.94
  -6  -2  14    6.53    4.84
  -6   0  12   -0.32    5.75
  -6   1  12   -7.50    5.87
  -6   2  13   13.70    7.01
  -6   3  14    7.98    8.04
  -5   0   9   40.58    6.81
  -5   1   9   51.23    7.21
  -4  -1   7   75.95    5.92
  -4   2   7  120.45    9.70
  -4   3   8    2.70    5.06
  -3   2   5  872.87   19.46
  -3   4   7    4.69    5.73
  -3   5   9   -2.50    5.50
  -2   3   4   58.82    5.74
  -2   5   7    9.91    4.46
  -1   5   5   23.44    5.55
   2   6   3    0.36    3.45
  -6   2  12    3.74    7.09
  -5  -3  12   18.29    4.35
  -5   3  10   12.36    7.08
  -5   4  12   -2.10    6.26
  -4   4   9   23.52    7.45
  -4   5  11    6.20    7.10
  -2   4   5   38.52    5.71
  -1   6   7    6.05    4.96
   2   5   1  152.45    5.97
   4   6   1    1.81    1.91
  -7   0  15    0.60    5.89
  -6  -2  13    9.58    5.25
  -6  -1  12    0.17    3.97
  -6   1  11   43.82    8.26
  -6   3  13    4.27    6.57
  -5  -2  10    5.80    4.09
  -5  -1   9   46.49    6.17
  -5   2   9    9.04    5.72
  -4  -3   9    2.73    2.68
  -2   2   3  116.76    6.67
   0   6   5    5.15    4.87
   1   5   2   63.98    5.17
   3   5   0   24.69    2.36
  -7  -1  15    6.50    6.20
  -7   0  14   16.65    7.09
  -7   1  14    3.53    6.90
  -6   0  11   12.66    5.98
  -6   2  11   14.19    7.40
  -6   3  12    9.76    7.97
  -5   1   8   57.05    7.84
  -5   4  11    0.31    5.57
  -4  -4  11    5.37    2.92
  -4   0   6  530.02   14.34
  -4   1   6  156.89    9.06
  -4   3   7    7.78    5.14
  -4   5  10   13.60    7.52
  -3   3   5    6.31    4.89
  -3   5   8    2.26    4.92
  -2  -1   3 3950.17   21.32
  -2   5   6   23.84    6.02
  -1   3   2  254.05    8.86
  -1   4   3   82.45    6.46
  -7   2  14    1.75    6.52
  -6  -1  11   40.72    6.96
  -5   0   8   59.34    6.65
  -5   3   9   11.64    6.36
  -4   2   6  149.00    9.61
  -4   4   8   63.80    8.19
  -3   1   4  228.91    9.20
  -3   4   6   26.82    5.83
  -1   6   6   10.23    4.95
  -7  -1  14    5.16    5.72
  -7   0  13    3.03    6.15
  -7   1  13    1.18    5.78
  -6  -3  14    8.64    4.94
  -6  -2  12    4.08    4.71
  -6   0  10   97.54   10.04
  -6   1  10   15.03    5.94
  -6   3  11    4.80    7.31
  -5  -3  11   14.12    4.26
  -5   2   8   61.15    8.01
  -5   4  10   24.09    7.37
  -3   2   4   39.07    5.59
  -2   4   4   24.19    5.32
  -1   1   1 2573.42   18.72
  -1   5   4   56.41    6.53
  -7   2  13    7.46    6.81
  -6   2  10    6.40    5.81
  -6   4  12    0.50    6.32
  -5  -1   8   51.33    6.04
  -4  -2   7  103.59    5.80
  -4  -1   6  152.22    7.39
  -4   5   9   16.05    6.23
  -3   5   7   27.65    5.95
  -2   3   3  131.60    7.48
  -2   6   7   19.13    6.05
  -7  -1  13    6.99    5.47
  -7   1  12    0.20    5.42
  -7   3  13    6.40    7.76
  -5  -4  13    0.46    3.10
  -5  -2   9    9.22    3.68
  -5   1   7    7.94    4.63
  -5   3   8   28.80    6.61
  -5   4   9    0.90    5.58
  -4   3   6   79.01    8.10
  -4   4   7   10.50    5.25
  -2   5   5   77.17    7.97
   1   6   3   13.86    4.33
   2   6   2    3.66    3.28
  -7  -2  14    2.43    5.09
  -7   0  12    6.47    5.29
  -7   2  12    0.49    6.04
  -6  -3  13    3.06    4.55
  -6  -2  11   19.10    5.49
  -6  -1  10    8.73    4.50
  -6   1   9    5.40    6.02
  -6   2   9   25.14    7.44
  -6   3  10    2.23    5.85
  -6   4  11   -0.39    6.09
  -5   0   7   24.73    4.95
  -5   2   7  114.31    9.57
  -5   5  10    6.08    7.22
  -4   1   5  403.49   13.34
  -4   5   8    1.69    5.81
  -3   3   4   45.47    6.22
  -3   4   5    2.52    4.21
  -1   2   1   71.84    4.24
  -1   6   5   22.81    5.31
  -7   1  11    5.57    6.61
  -7   3  12    4.95    6.64
  -6   0   9   31.33    6.38
  -4   0   5  381.73   12.02
  -4   2   5    5.77    4.23
  -3  -2   5  862.72   11.38
  -3   5   6    5.78    5.25
  -2   1   2  825.22   13.58
  -8   0  14   -0.81    6.51
  -7  -1  12    1.12    3.93
  -7   0  11   -1.24    5.52
  -7   2  11   -2.88    5.64
  -6   3   9    9.27    6.07
  -6   4  10   25.77    7.90
  -5  -3  10    9.19    3.57
  -5   3   7   52.90    8.25
  -5   4   8   14.77    6.29
  -4  -3   8    1.25    2.32
  -4   4   6   13.81    6.12
  -3  -1   4  218.84    6.86
  -2   2   2  466.04   11.66
  -2   6   6    6.77    4.42
  -1   4   2   26.64    4.26
  -1   5   3   42.53    5.75
  -8   1  13   -1.00    6.90
  -7  -2  13    8.03    4.74
  -7   3  11   11.24    7.12
  -6  -1   9    2.99    4.74
  -6   1   8  104.62    9.51
  -6   2   8   34.11    8.01
  -5  -1   7    4.10    3.80
  -5   1   6  109.37    8.87
  -5   5   9   25.50    7.57
  -4   3   5    3.47    4.42
  -4   5   7   19.17    6.78
  -3   6   7    2.63    5.42
  -2   0   2 9832.94   39.00
  -2   4   3    3.20    3.34
  -2   5   4   34.59    6.06
  -8   0  13   -0.83    5.82
  -7  -1  11    3.96    5.39
  -7   1  10    0.17    5.09
  -7   2  10    0.95    5.60
  -6   0   8  164.01   11.06
  -6   4   9    0.83    6.92
  -5   2   6   61.45    7.45
  -3   2   3  160.35    8.20
  -3   4   4   73.96    7.71
  -1   3   1   41.39    4.10
  -7   0  10   35.17    6.98
  -7   3  10    6.75    6.35
  -6   3   8   49.29    8.16
  -5   0   6   -1.14    3.33
  -5   4   7   18.26    6.14
  -3   5   5   32.96    5.88
  -2   3   2   29.02    4.05
  -2   5  -4   12.57    3.53
   1   4  -6   62.17    6.90
   2   4  -8    9.94    4.90
   2   5 -11    8.52    6.20
   3   3  -8    4.46    4.72
   5  -4 -11   -0.08    3.40
   5  -2  -9    4.78    3.66
   5   0  -9   44.06    6.89
   5   1 -10    2.68    5.07
   5   3 -14    6.44    6.76
   6  -3 -13    4.98    4.34
   6  -2 -12    2.69    4.92
   6  -1 -12    2.01    4.24
   6   0 -12   -2.14    5.68
   6   1 -13   12.52    7.32
   6   2 -15   -8.25    6.84
  -4   5  -2   36.18    2.63
   1   3  -4  167.92    7.87
   3  -3  -5    2.46    1.34
   3   1  -5  139.68    7.67
   3   2  -6  283.63   11.72
   3   4 -10   -1.03    4.85
   4  -5 -10    9.86    2.15
   4   1  -7   70.72    7.30
   4   3 -10    8.79    5.50
   4   4 -13    6.10    6.58
   5   2 -11    0.43    5.61
   5   3 -13   -3.87    5.83
   0   4  -4  147.43    7.65
   1   5  -8   10.38    5.21
   2   5 -10    3.92    5.44
   4  -3  -7    6.76    2.18
   4  -1  -6  149.11    7.21
   4   2  -8   71.17    7.77
   4   4 -12    4.47    5.77
   6  -1 -11   40.88    6.91
   6   1 -12   -3.08    6.20
   6   2 -14    6.10    6.89
   7  -1 -15    6.07    5.66
   7   0 -15    1.66    7.00
   0   5  -6    2.38    4.27
   2   4  -7  162.63   10.36
   3   3  -7   21.22    5.28
   3   4  -9   14.32    5.56
   4  -4  -8   62.58    3.60
   4   3  -9    0.60    6.50
   5  -1  -8   62.04    6.27
   5   1  -9   41.99    6.80
   5   2 -10    6.30    5.64
   5   3 -12   16.52    6.98
   6  -3 -12    4.69    4.09
   6  -2 -11   18.32    5.41
   6   0 -11    7.80    5.13
   6   2 -13   15.19    7.08
   7  -1 -14    0.61    5.34
  -3   6  -5    1.21    2.95
  -2   6  -6   14.12    4.30
   1   4  -5   85.32    7.16
   2   1  -3 4080.73   30.55
   2   3  -5   57.50    5.84
   2   5  -9    3.40    5.41
   3  -1  -4  227.69    6.83
   4  -2  -6  149.76    6.26
   4   4 -11   10.01    6.24
   5  -3  -9   10.78    3.52
   6   1 -11   42.38    8.09
   7  -2 -14   -2.04    4.61
   7   0 -14   18.69    6.48
   7   1 -15    7.36    6.86
  -1   2   0  417.69    4.99
  -1   3  -1  441.63    7.84
   1   5  -7   11.22    5.05
   3   0  -4  145.76    6.49
   3   5 -11    2.38    5.69
   4   2  -7  109.70    8.69
   5  -2  -8   54.08    5.22
   5   3 -11    9.00    6.15
   5   4 -13    5.82    7.49
   6  -1 -10    6.36    5.27
   6   2 -12    7.88    6.28
   6   3 -14    9.75    7.17
   7  -1 -13    4.13    5.38
   7   0 -13    2.87    6.22
   7   1 -14    3.91    6.47
   0   6  -8    5.93    4.56
   3   2  -5  875.67   19.07
   3   4  -8   10.79    5.02
   4   1  -6  150.33    8.68
   4   3  -8    5.26    6.05
   4   4 -10    2.69    5.54
   5  -4 -10   24.60    3.76
   5   1  -8   53.07    6.91
   5   2  -9   12.41    6.36
   6   0 -10   98.24    9.08
   6   3 -13    7.76    7.79
   7  -2 -13    5.74    4.74
   1   2  -2   47.25    4.11
   1   3  -3  439.49   11.70
   2   4  -6   22.32    5.09
   2   5  -8   10.05    5.60
   3   3  -6   77.00    7.30
   3   5 -10   19.18    6.17
   5   3 -10    2.94    5.53
   5   4 -12    3.87    6.60
   6  -3 -11    5.67    3.83
   6  -2 -10   10.02    4.67
   6   1 -10   18.26    6.54
   6   2 -11   16.70    6.52
   7   1 -13    5.35    6.17
   7   2 -14    2.51    6.53
  -2   3   0   72.77    2.20
  -2   5  -3   19.11    3.19
   0   5  -5   20.14    4.86
   3  -2  -4   39.88    2.61
   3   1  -4  232.78    9.00
   5  -1  -7    3.86    3.72
   5   0  -7   21.73    5.34
   6   3 -12   11.40    7.01
   7  -1 -12    6.27    4.69
   7   0 -12    1.28    4.89
  -2   6  -5    7.49    3.68
  -1   4  -2  160.76    6.14
   0   6  -7   10.87    5.12
   1   5  -6   51.77    6.59
   2   2  -3  109.96    6.61
   2   3  -4   61.35    6.02
   3   4  -7    1.95    4.44
   3   5  -9    1.19    5.48
   4   0  -5  382.63   11.75
   4   2  -6  146.87    9.36
   4   4  -9   19.95    6.44
   4   5 -11    7.28    7.00
   5   2  -8   64.70    7.98
   5   3  -9   10.91    7.00
   5   4 -11   -0.04    5.47
   6  -4 -12    1.58    3.36
   6  -1  -9    7.83    5.02
   6   0  -9   29.04    6.18
   6   2 -10   13.64    7.06
   7  -2 -12    2.95    4.42
   7   1 -12    3.68    5.72
   7   2 -13    1.61    6.51
   1   4  -4   24.24    4.62
   1   6  -8    1.43    5.04
   2   5  -7    6.85    5.22
   4  -1  -5  397.13   10.49
   4   3  -7    7.72    5.07
   5  -3  -8   38.41    4.19
   5   1  -7    6.78    4.48
   6   1  -9    5.28    5.45
   6   3 -11    6.77    6.31
   7  -3 -13   -0.15    3.95
   7  -1 -11    3.19    4.90
   7   0 -11    0.13    5.15
   8   0 -14    0.04    6.45
  -3   5  -2   10.39    2.20
  -3   6  -4    7.44    2.96
   2   4  -5   32.61    5.82
   3   3  -5    3.67    4.61
   4   1  -5  423.66   13.31
   4   4  -8   61.40    8.76
   5  -2  -7  102.97    6.11
   5   4 -10   20.87    7.95
   6  -3 -10   -0.42    3.78
   6  -2  -9   21.01    4.62
   7   1 -11    0.92    5.30
   7   2 -12   -1.64    5.81
  -2   4  -1  188.73    4.99
   2   0  -2 9629.67   37.16
   3   2  -4   33.81    4.76
   3   5  -8    0.84    5.41
   4   5 -10   15.23    6.67
   5   3  -8   39.83    7.98
   6   0  -8  158.22   10.68
   6   2  -9   19.96    6.20
   6   3 -10   10.76    7.30
   6   4 -12   -1.09    6.20
   7  -2 -11    0.49    4.50
   7   3 -13   -1.89    6.30
   8   0 -13    0.98    5.99
   1   5  -5   25.20    5.35
   3   4  -6   19.34    5.34
   4  -3  -6   66.29    3.44
   4   3  -6   70.56    8.19
   5   0  -6   -0.48    4.00
   6  -1  -8  101.27    8.08
   6   1  -8  105.30   10.02
   7  -3 -12    2.35    4.13
   7   0 -10   38.56    6.69
   7   2 -11    2.57    6.40
   7   3 -12    3.26    6.86
   8  -1 -13    4.31    4.95
  -1   5  -3   10.28    3.27
   1   1  -1 2522.75   18.00
   1   6  -7    8.76    4.71
   2  -1  -2  831.46    8.45
   2   1  -2  825.85   13.20
   2   5  -6   17.90    5.56
   3   0  -3  805.03   13.53
   4  -2  -5    6.08    2.37
   4   2  -5   11.02    4.38
   4   5  -9   12.47    5.82
   5  -4  -9   -0.35    2.37
   5  -1  -6  105.39    6.80
   5   1  -6  104.55    8.10
   5   4  -9   -1.27    5.31
   6  -4 -11    3.47    3.46
   6   4 -11    1.51    6.02
   7  -1 -10    2.34    4.00
   7   1 -10    6.53    5.51
   8   0 -12    3.47    5.94
   3   1  -3  300.20    9.67
   3   5  -7   29.29    6.52
   4   4  -7   11.01    5.59
   6   2  -8   29.46    6.94
   6   3  -9    3.41    5.62
   7   2 -10   -1.43    6.55
   7   3 -11    4.56    7.66
   8  -1 -12   -1.86    5.01
   8   1 -12    1.76    5.99
  -2   6  -4    8.22    3.52
   1   3  -2  256.59    8.50
   1   4  -3   83.91    6.24
   2   3  -3  137.58    7.44
   2   4  -4   23.81    5.11
   3  -1  -3  309.48    7.31
   3   3  -4   43.22    6.04
   4   0  -4  335.87   10.68
   5   2  -6   51.79    7.03
   5   3  -7   41.49    7.31
   5   5 -10    5.80    6.11
   6  -2  -8   31.38    4.73
   6   4 -10   19.26    7.53
   7  -2 -10    0.36    4.18
   7   0  -9   23.40    6.67
   8   2 -12    9.11    6.74
   3   4  -5    5.47    4.31
   4   1  -4  837.72   17.83
   4   5  -8   -1.34    5.05
   5   4  -8   18.62    6.43
   6  -3  -9    5.58    3.43
   6   0  -7  498.01   16.33
   6   1  -7   59.27    7.48
   7  -3 -11    2.37    4.35
   7  -1  -9   35.63    6.46
   7   1  -9   40.40    7.10
   8  -2 -12    8.44    4.81
   8   0 -11   -2.51    4.63
   8   1 -11    7.76    6.14
  -4   6  -3    3.99    1.69
  -2   5  -2   76.81    4.38
   1   5  -4   60.31    6.71
   1   6  -6   11.46    4.61
   2   2  -2  470.89   11.47
   2   5  -5   75.84    7.68
   2   6  -7   13.52    5.51
   3   2  -3  168.05    8.31
   4   3  -5   -0.32    4.08
   4   4  -6   16.17    6.18
   5   5  -9   22.73    8.09
   6  -1  -7   45.68    6.05
   6   3  -8   41.56    7.76
   7   2  -9    2.45    5.55
   7   3 -10    4.99    6.29
   8  -1 -11    6.51    4.69
   8   2 -11   -0.25    7.10
   1   2  -1   68.70    4.31
   3   5  -6    1.08    3.82
   4  -4  -7   13.24    1.57
   4  -1  -4  819.96   14.07
   4   2  -4  550.40   15.91
   5  -3  -7   46.41    3.91
   5  -2  -6   61.53    4.69
   5   0  -5  169.95    8.69
   5   1  -5   97.91    7.65
   5   3  -6   22.85    7.54
   6   2  -7   20.58    6.44
   6   4  -9   -0.32    5.72
  -1   6  -4   21.80    4.48
   4   5  -7   23.82    6.30
   5   4  -7   12.24    5.80
   7  -2  -9    8.01    4.92
   7   0  -8   61.28    7.57
   7   1  -8    5.84    5.52
   7   3  -9   20.27    8.09
   8   0 -10    4.90    5.09
   8   1 -10    8.38    5.89
   8   3 -11   -4.06    6.52
   9   0 -12   -2.86    6.17
  -1   4  -1  278.02    7.13
   5  -1  -5  105.22    6.51
   5   2  -5   79.86    7.74
   5   5  -8    2.84    6.31
   6  -4 -10   15.33    3.36
   6   0  -6   45.74    6.71
   6   3  -7   33.23    7.27
   6   4  -8   -1.70    6.47
   7  -1  -8    1.27    4.72
   7   2  -8    0.88    5.26
   7   4 -10   13.21    7.26
   8  -2 -11    5.01    4.34
   8  -1 -10    1.70    4.98
   8   2 -10    8.71    6.46
  -3   6  -3    1.52    2.11
   1   6  -5   25.27    5.12
   2   4  -3    9.10    4.18
   2   6  -6    8.50    4.88
   3   3  -3  112.67    7.91
   3   4  -4   70.41    7.01
   3   6  -7   -0.79    5.03
   4   3  -4   52.54    7.06
   4   4  -5    7.31    6.23
   6  -2  -7   19.60    4.01
   6   2  -6  246.46   14.01
   7  -3 -10    3.40    3.94
  -1   5  -2   64.88    4.80
   1   4  -2   21.57    3.88
   2   3  -2   25.69    3.86
   2   5  -4   42.08    6.22
   3   5  -5   27.57    5.51
   4   5  -6    3.20    5.61
   5   3  -5  178.46   11.98
   5   4  -6   -0.57    4.19
   6  -3  -8   36.68    4.56
   6  -1  -6   83.34    6.90
   7   1  -7   32.20    7.57
   7   3  -8   11.77    6.47
   7   4  -9    6.42    7.56
   8   0  -9   26.70    6.01
   8   1  -9    7.21    5.72
   8   2  -9    4.02    7.03
   8   3 -10    7.32    6.81
   9   0 -11    0.84    4.96
   9   1 -11   -2.50    5.71
   1   5  -3   44.35    5.96
   3   1  -2  745.98   14.42
   4   1  -3  615.58   15.11
   5   1  -4   94.04    7.77
   5   5  -7    6.44    6.25
   6   4  -7    5.96    6.76
   7   0  -7    0.77    4.41
   7   2  -7   13.98    6.27
   8  -2 -10    5.10    4.42
  -2   6  -3    0.72    2.61
  -1   3   0   99.70    3.42
   1   3  -1   38.58    3.93
   3   0  -2  540.53   10.97
   3   6  -6    8.23    5.46
   4   0  -3  886.76   16.15
   4   2  -3  151.01    8.67
   5   0  -4   64.76    6.14
   5   2  -4   33.47    6.51
   6   3  -6   15.01    6.39
   6   5  -8   10.95    7.71
   7  -2  -8   -2.31    4.04
   8  -1  -9    2.97    4.22
   8   3  -9   34.26    8.30
   9  -1 -11    0.19    4.42
   9   1 -10   -1.15    6.31
   2   1  -1 1628.40   17.89
   2   6  -5   15.30    5.05
   3   2  -2  657.22   15.11
   4   4  -4   28.02    6.68
   5  -4  -8   19.11    2.43
   6   0  -5   47.49    6.43
   6   1  -5  116.68    8.96
   6   2  -5  208.05   12.83
   7  -1  -7   34.90    6.07
   7   3  -7   45.05    8.31
   8  -3 -11    1.35    4.08
   8   0  -8    5.46    5.65
   8   1  -8   13.62    5.99
   8   2  -8   26.97    8.30
   9   0 -10    0.06    5.25
   9   2 -10   -2.34    5.83
  -1   6  -3    6.79    3.67
   1   6  -4   28.10    5.14
   3   4  -3   58.00    6.38
   3   5  -4   12.20    5.21
   4  -2  -4  564.40    9.78
   4   5  -5   21.72    6.46
   5   4  -5    4.85    5.35
   5   5  -6   11.37    6.47
   7  -3  -9   18.08    4.63
   7   1  -6   33.07    7.53
   2   2  -1  404.41   10.41
   2   4  -2   29.91    4.88
   2   5  -3   33.89    5.68
   4   3  -3    5.39    4.21
   5  -2  -5   84.16    5.00
   5   3  -4  210.57   12.05
   6   3  -5    9.57    7.00
   6   4  -6   -2.48    5.12
   6   5  -7   -2.16    6.55
   7   0  -6   -2.75    4.92
   7   2  -6    9.22    6.01
   8  -2  -9    2.90    5.25
   8  -1  -8    9.08    5.08
   8   3  -8   -1.68    6.59
   9  -1 -10   -1.22    4.35
   9   1  -9    4.07    5.55
   9   2  -9    0.54    7.11
   2   0  -1 6775.59   30.05
   3  -2  -3  161.92    4.03
   3   3  -2   77.91    6.40
   3   6  -5   25.79    6.19
   4  -1  -3  628.43   12.02
   5  -1  -4   84.95    5.81
   6  -2  -6  228.14    9.04
   7   3  -6   58.47    9.49
   7   4  -7    9.64    6.24
   8   1  -7   28.47    6.82
   8   2  -7   29.56    8.21
   9   0  -9   19.96    6.53
   0   6  -3    5.10    4.01
   2   6  -4    2.06    3.98
   4  -3  -5    4.83    1.53
   5  -3  -6   22.09    2.82
   5   1  -3   32.24    5.58
   6  -4  -9    5.14    2.60
   6  -1  -5  105.80    7.00
   8   0  -7   19.44    5.84
   2   3  -1  120.88    6.62
   4   1  -2    8.93    3.78
   4   2  -2   36.84    5.60
   4   4  -3    8.96    5.66
   4   5  -4   16.60    5.99
   5   2  -3   11.43    4.62
   5   4  -4   -5.84    4.60
   5   5  -5    7.80    5.47
   6   1  -4    7.67    4.55
   6   2  -4   26.38    6.36
   6   4  -5   15.79    6.11
   6   5  -6    9.03    7.12
   7  -2  -7   14.16    4.40
   7  -1  -6   37.85    6.01
   7   1  -5    7.63    6.18
   8  -3 -10    5.07    4.02
   8   3  -7    4.42    6.37
   9  -2 -10    4.10    4.74
   9  -1  -9   -2.49    4.76
   9   1  -8   31.93    7.56
   9   2  -8   -2.84    5.94
   3   4  -2   80.28    7.42
   3   5  -3   36.58    6.31
   4   6  -5   -2.62    5.04
   5   0  -3  201.73    9.25
   5   3  -3   25.04    6.70
   6  -3  -7   38.62    4.08
   6   0  -4  184.48   10.03
   6   3  -4   14.07    7.28
   7   2  -5   52.29    8.05
   7   4  -6    8.30    6.08
   9   0  -8   -0.29    5.60
   9   3  -8   -0.77    7.19
  -2   5  -1  152.39    4.77
   1   2   0  432.39    9.04
   3   2  -1   26.71    4.77
   3   6  -4    1.36    4.58
   4   3  -2  163.63    9.94
   7  -4 -10    6.43    3.24
   7   0  -5   28.06    5.59
   7   3  -5   48.58    8.14
   8  -2  -8   19.70    5.18
   8  -1  -7   26.11    5.36
   8   1  -6   47.53    7.62
   8   2  -6    8.67    5.99
   8   4  -7    7.39    6.81
  -1   5  -1  194.93    6.67
   1   1   0  474.49    7.71
   2   5  -2   34.69    5.50
   3   1  -1  125.68    6.36
   4   0  -2 1996.07   23.70
   6   5  -5    3.37    6.26
   7  -3  -8    7.82    3.87
   8   0  -6    1.14    4.27
   8   3  -6    1.44    5.96
   9   1  -7    8.34    6.93
   9   2  -7   16.86    6.71
  10   0  -9   34.97    8.81
   2   4  -1    0.15    3.46
   2   6  -3   16.07    4.74
   3   3  -1    4.55    3.98
   4   5  -3    1.00    4.59
   5   4  -3  130.67   10.38
   5   5  -4   32.24    6.90
   6   2  -3  267.58   13.79
   6   4  -4    1.63    5.16
   7   4  -5   14.12    6.50
   9  -2  -9    0.39    4.05
   9  -1  -8   20.95    5.05
   9   0  -7    7.89    6.06
  -2   6  -2    0.60    2.22
  -1   6  -2   28.28    3.89
   0   5  -1   25.61    3.83
   1   3   0   95.09    5.29
   4   4  -2   30.04    6.55
   4   6  -4   10.61    5.65
   5   2  -2   31.54    5.49
   6  -1  -4    2.81    3.63
   6   1  -3  152.45    9.70
   6   3  -3   98.67   10.48
   7  -1  -5   17.72    5.00
   7   1  -4   24.39    5.97
   7   2  -4   56.79    8.42
   7   3  -4   42.51    8.46
   8  -3  -9   20.59    4.92
   8   1  -5   24.17    6.87
   8   2  -5    6.87    5.82
   8   4  -6    6.06    6.48
  -2   4   0   45.63    2.02
  -1   4   0   62.15    3.33
   0   6  -2    4.56    3.61
   3   5  -2   13.18    5.07
   5  -1  -3   27.19    3.99
   5   1  -2   11.58    3.98
   5   3  -2   89.65    8.96
   6  -2  -5  196.57    8.24
   7  -2  -6    5.24    3.94
   8  -1  -6   48.87    6.88
   8   3  -5   18.70    7.05
   9   1  -6    3.70    6.48
  10   0  -8    6.00    6.69
   2   2   0  203.16    7.50
   3   0  -1 1467.86   17.45
   3   4  -1  306.91   12.54
   3   6  -3    4.11    4.57
   4   2  -1   47.68    5.45
   5  -2  -4   30.85    3.36
   5   5  -3   24.58    6.90
   6   0  -3  420.47   14.21
   6   5  -4   15.75    6.57
   7   0  -4   -0.58    3.93
   7   4  -4   21.19    7.70
   8  -2  -7   29.10    5.53
   8   0  -5   32.65    6.78
   9   3  -6    2.38    6.19
  -3   6  -2    6.59    1.34
   0   4   0    5.33    2.11
   2   3   0   80.93    5.82
   4   1  -1  352.67   11.45
   4   3  -1  187.73   10.09
   5   4  -2   81.66    9.03
   6   4  -3   16.30    6.03
   8   4  -5   -3.67    5.61
   9  -1  -7   12.86    5.18
   9   0  -6    2.24    5.63
  10   1  -7   18.78    7.30
   2   1   0   75.12    4.44
   2   5  -1   47.42    5.86
   4   5  -2    6.70    4.43
   4   6  -3   -1.27    4.72
   5   0  -2    3.72    3.10
   6   2  -2   56.11    7.99
   7   1  -3   18.97    6.43
   7   2  -3   11.73    6.40
   7   3  -3    4.42    6.40
   8   1  -4   50.50    8.32
   8   2  -4   11.62    5.96
   8   3  -4    6.71    7.15
   9  -2  -8    1.90    4.49
   9   2  -5   17.63    7.78
  10  -1  -8   12.49    6.07
  10   0  -7    2.02    5.92
   2   6  -2    9.56    4.28
   4  -1  -2    5.98    2.76
   4   4  -1   63.73    7.74
   6  -3  -6   15.66    3.40
   6   1  -2   19.73    5.73
   6   3  -2  117.52   10.10
   6   5  -3    2.18    5.87
   7  -3  -7   41.87    4.91
   7   5  -4    3.52    5.77
   9   1  -5   -0.45    5.07
   9   3  -5    1.12    6.25
  10   2  -6    3.24    7.27
   3   2   0   10.02    3.54
   3   3   0   60.55    6.07
   3   5  -1   65.02    7.19
   3   6  -2   15.36    5.05
   4  -2  -3  153.24    5.15
   5   2  -1   47.92    6.11
   5   3  -1   64.93    8.03
   6  -4  -8    1.77    2.06
   7  -4  -9   11.62    3.02
   7  -1  -4   21.57    5.08
   7   4  -3   12.71    6.75
   8  -3  -8    1.44    3.80
   8  -1  -5   28.23    5.97
   8   4  -4   12.67    6.62
  10   1  -6    5.86    6.29
   2   4   0   50.37    5.14
   4   0  -1  161.93    7.29
   5   1  -1  148.34    8.57
   5   5  -2   13.83    5.48
   6  -1  -3  147.30    8.15
   6   4  -2    3.70    5.19
   7  -2  -5   52.02    5.87
   7   0  -3   14.75    4.77
   8  -2  -6    9.94    4.72
   8   0  -4   56.84    7.56
   9  -1  -6    2.19    3.74
   9   0  -5   13.10    6.22
   3   1   0  633.10   13.21
   4   6  -2    3.81    4.95
   5  -3  -5  161.65    5.25
   5   4  -1   92.86    9.06
   6   0  -2   59.82    6.60
   7   2  -2   31.47    6.81
   7   3  -2    1.52    6.10
   7   5  -3   -3.18    6.23
   8   2  -3    5.67    5.66
   8   3  -3    3.76    6.20
   9  -2  -7   13.76    4.84
   9   2  -4    5.18    6.06
   9   3  -4    6.23    6.37
  10  -1  -7   14.75    5.56
  10   0  -6    3.34    4.97
  10   2  -5    5.52    7.29
   0   6  -1    0.98    3.22
   2  -1  -1 1636.51   11.24
   3   4   0  219.27   10.47
   4   2   0   75.80    6.38
   4   3   0   70.64    6.78
   4   5  -1   32.63    5.72
   6  -2  -4   25.35    3.91
   6   2  -1   39.31    7.25
   6   3  -1   23.31    7.63
   7   1  -2   23.10    6.57
   8   1  -3    2.16    4.68
   8   4  -3    9.21    6.68
   9   1  -4    0.82    5.08
  10   1  -5    0.46    6.64
  -1   6  -1   10.38    2.98
   0   5   0   -0.65    2.64
   2   6  -1    3.26    3.81
   5  -1  -2    6.49    3.16
   7   4  -2   -1.32    5.28
  -1   5   0   -0.46    2.18
   2   5   0   29.62    5.12
   3   6  -1    1.82    4.06
   4   1   0  477.10   13.20
   4   4   0   60.59    6.97
   5   0  -1   62.57    5.54
   5   5  -1    3.48    4.73
   6   1  -1   57.16    6.61
   6   4  -1   29.24    6.62
   8  -1  -4   50.29    6.88
   8   0  -3    3.17    5.32
   8   3  -2    4.68    6.73
   9  -1  -5   -2.17    4.14
   9   0  -4    0.38    4.48
   9   2  -3    0.57    6.74
   9   3  -3    6.54    6.27
  10  -1  -6   12.31    5.84
  10   0  -5   -1.19    5.35
  10   2  -4    5.91    7.25
   1   2   1  140.10    5.27
   2   0   0  668.83    9.70
   2   3   1  299.73    9.99
   3   5   0   25.95    5.53
   5   2   0   25.59    5.23
   5   3   0   32.34    6.04
   7  -3  -6   52.14    5.14
   7  -1  -3   14.81    4.82
   7   0  -2    7.79    5.09
   7   2  -1   22.46    7.51
   7   3  -1   -1.61    5.89
   7   5  -2   12.43    6.39
   8  -3  -7    2.58    4.02
   8   2  -2    6.19    5.42
   8   4  -2   37.22    9.05
   9  -3  -8   -1.56    3.71
   9   1  -3    6.77    6.45
  10   1  -4    1.48    6.49
   2   2   1  154.40    6.63
   3  -1  -1  131.23    4.76
   3   3   1   20.38    4.57
   4   5   0   30.08    6.38
   4   6  -1    7.08    4.53
   5  -2  -3   13.43    2.63
   5   4   0    9.50    4.74
   6   5  -1    3.02    4.92
   7   4  -1    2.06    6.43
   8  -2  -5   11.89    4.72
   8   1  -2    3.95    4.70
   9  -2  -6   29.95    5.64
   2   4   1  188.87    8.89
   3   0   0  766.99   12.87
   3   2   1   13.38    3.57
   5   1   0  233.66   10.51
   6  -1  -2   25.69    4.61
   6   0  -1   42.39    6.00
   6   2   0   22.79    6.58
   6   3   0   15.41    6.42
   7  -2  -4   58.27    5.71
   7   1  -1   18.59    5.51
   9   3  -2   -1.05    6.82
  -2   6  -1   11.83    1.99
   0   4   1   51.45    3.76
   3   4   1   60.03    6.15
   4   3   1   27.52    5.04
   5   5   0   21.43    6.45
   6  -3  -5    3.61    2.65
   6   4   0    9.26    5.41
   7   5  -1    0.03    6.28
   8   2  -1   18.98    7.11
   8   3  -1    3.28    5.67
   9  -1  -4    1.36    4.76
   9   0  -3   -1.29    5.20
   9   2  -2   -0.47    5.47
  10  -1  -5    1.31    5.05
  10   0  -4    1.84    4.81
  10   2  -3   -1.13    5.68
  -1   3   1   35.83    2.02
   2   6   0   14.88    4.48
   3   6   0    2.10    3.98
   4  -1  -1  341.08    9.02
   4   0   0    8.87    3.27
   4   2   1  141.26    8.23
   4   4   1   20.23    5.86
   6   1   0    2.04    4.87
   7  -4  -8   11.97    2.69
   7   3   0   59.48    8.97
   8  -1  -3    3.48    4.76
   8   0  -2   -2.31    4.03
   8   4  -1    8.24    6.52
   9   1  -2    5.18    6.21
  10   1  -3    2.94    5.88
   2   1   1  594.13   11.04
   2   5   1  149.05    8.61
   3   1   1   12.47    3.81
   4   6   0   15.93    5.46
   5   2   1   60.09    7.19
   5   3   1   -1.21    4.19
   6  -2  -3  245.70    8.94
   6   5   0   13.75    5.71
   7   2   0   17.13    6.46
   7   4   0    4.62    5.60
   8   1  -1    5.61    4.79
   9  -3  -7    6.04    4.23
   9  -2  -5   15.84    5.17
  10  -2  -6    5.00    4.55
   0   6   0    4.24    3.14
   1   1   1 1170.32   12.24
   3   5   1    1.77    3.44
   4   5   1    5.65    4.98
   5   0   0  258.86   10.32
   5   4   1   28.33    6.20
   7  -1  -2   30.11    4.92
   7   0  -1   10.04    4.52
   8  -3  -6    2.75    4.11
   8  -2  -4   13.72    4.72
   9   2  -1    3.12    6.69
   9   3  -1    2.60    6.19
  10   2  -2   -3.49    5.53
  -2   5   0   29.27    1.85
  -1   4   1    4.45    1.57
   4   1   1  188.32    8.62
   5  -1  -1  141.33    6.86
   5   5   1    3.40    5.30
   6   2   1  187.90   11.79
   6   3   1  118.33    9.90
   6   4   1    3.80    5.88
   7   1   0    8.93    5.04
   7   5   0    0.16    5.35
   8   2   0    0.29    5.96
   8   3   0    8.62    6.52
   8   4   0    1.34    7.18
   9   0  -2    5.72    5.64
  10  -1  -4   -0.92    4.85
  10   0  -3    2.03    4.75
  10   1  -2    3.22    6.75
   0   5   1   25.12    3.52
   3   3   2   13.10    4.26
   5   1   1   38.67    5.29
   7  -3  -5   41.28    4.65
   8   0  -1   55.82    7.86
   9  -1  -3    6.87    4.09
   9   1  -1   -0.45    4.93
   2   3   2   29.47    3.83
   2   4   2   33.88    4.75
   3  -2  -2  696.76    7.29
   3   4   2   21.27    5.04
   3   6   1    1.91    3.92
   4   3   2   17.08    4.47
   4   4   2    7.86    5.11
   6  -1  -1   52.54    5.64
   6   0   0   34.64    5.17
   6   5   1   49.39    7.78
   7  -2  -3   12.19    3.90
   7   2   1    4.30    5.96
   7   3   1    9.42    5.77
   7   4   1    9.38    6.11
   8  -1  -2    6.38    4.84
   8   1   0   20.20    6.85
   9   3   0   11.22    7.53
  10  -2  -5    6.51    5.02
  10   2  -1    4.23    6.17
  -1   6   0    5.70    2.42
   1   3   2   19.37    3.18
   2   6   1    9.46    4.10
   3   2   2  109.50    6.60
   4  -2  -2   38.64    2.91
   4   2   2  376.22   12.81
   4   6   1    3.93    4.15
   5   3   2   20.60    5.53
   5   4   2    2.89    5.41
   6   1   1   15.65    4.88
   9  -2  -4   12.77    4.97
   9   2   0   12.85    6.54
  10   0  -2    7.00    6.02
   2   2   2  508.08   11.66
   3   5   2    9.12    4.59
   4   5   2   35.17    6.48
   5  -2  -2   28.30    3.36
   5   2   2    9.69    4.44
   6   3   2   72.75    9.09
   6   4   2    1.70    5.73
   7   0   0   78.13    7.55
   8   2   1    4.21    6.22
   8   3   1   10.94    6.18
   8   4   1    5.00    5.87
   9  -3  -6    0.95    3.69
   9   0  -1   -0.48    5.40
  10  -1  -3    5.98    5.36
  10   1  -1    9.08    6.27
  -1   2   1   70.36    1.64
   2   5   2   77.32    6.73
   5  -3  -4  215.56    5.39
   5   5   2    5.63    4.74
   6   2   2   40.71    7.47
   7  -1  -1   21.90    4.60
   7   1   1    7.18    4.95
   8  -3  -5   16.90    4.43
   8  -2  -3   12.05    4.69
   9  -1  -2    4.80    4.67
   9   1   0    2.45    5.71
  10   2   0    3.17    6.93
   1   2   2   28.57    3.30
   3   0   1  597.85   11.82
   4   0   1  498.84   12.45
   5   0   1  250.87   10.31
   6  -2  -2   47.51    4.59
   6   5   2    7.88    5.32
   7   3   2   21.65    6.48
   7   4   2    7.50    6.10
   8   0   0    3.51    4.95
   9   3   1    2.26    6.10
  -1   5   1   93.22    4.07
   3   1   2  472.82   11.88
   4   1   2  135.23    7.55
   4   6   2    6.53    4.83
   5   1   2   94.62    7.28
   6  -3  -4   17.65    2.97
   6   0   1   20.24    5.21
   7   2   2    3.70    5.25
   8  -1  -1    5.65    4.87
   8   1   1   21.40    6.09
   8   3   2    1.93    6.66
   8   4   2   -2.56    6.27
   9   2   1   49.89    8.66
  10  -2  -4    3.86    4.81
  10   0  -1    2.76    4.93
  10   1   0   26.64    8.41
   0   4   2   86.60    4.56
   0   6   1    2.90    2.85
   3   3   3   53.03    5.82
   3   4   3    7.01    4.29
   3   6   2    7.07    4.12
   4  -1   0  503.12   10.87
   4   3   3   21.91    4.77
   4   4   3   20.48    5.02
   5  -1   0  246.61    9.08
   5   3   3  116.12    9.08
   5   4   3   22.62    5.62
   6   1   2   39.46    6.07
   7  -2  -2   29.41    4.66
   8   2   2    6.89    6.57
   9  -2  -3    0.36    4.15
   9   0   0    5.43    5.80
  10  -1  -2    2.75    5.19
   2   0   1   96.96    4.27
   2   1   2  210.70    7.30
   2   4   3   22.58    4.29
   3  -1   0  637.99   10.09
   4   2   3   13.21    4.65
   4   5   3   16.97    5.50
   5   5   3   10.76    5.60
   6  -1   0   -0.93    2.77
   6   3   3   15.63    5.89
   6   4   3    9.26    5.51
   7  -3  -4   41.08    4.54
   7   0   1   13.23    4.87
   7   1   2   28.66    7.01
   9  -3  -5    5.03    4.11
   9  -1  -1    4.07    4.87
   9   1   1    8.08    5.71
   9   3   2    6.50    6.22
   2   3   3  122.56    6.68
   3   2   3  148.18    7.91
   3   5   3   25.87    4.82
   6   2   3    5.64    4.84
   6   5   3    6.13    5.55
   7  -1   0    8.34    4.59
   7   3   3   13.54    5.98
   7   4   3   27.18    6.84
   8  -2  -2    7.53    4.39
   8   0   1   26.05    6.85
   9   2   2   11.80    6.72
   0   5   2   74.32    4.78
   1   6   2   34.67    5.09
   2   5   3   17.82    4.52
   7   2   3   46.71    7.40
   8   1   2  106.45    9.89
   8   3   3   -2.48    5.12
  10  -2  -3   -2.35    4.00
  10   0   0   -1.42    4.53
  10   1   1   10.03    6.31
   2   2   3  274.59    9.20
   4   6   3   -2.72    4.12
   8  -1   0   21.11    5.03
   8   2   3   26.72    7.57
   9   0   1    1.75    5.66
   9   1   2   28.71    7.85
  10  -1  -1    5.60    4.90
   4   4   4   28.06    5.40
   5   0   2   63.69    5.80
   5   1   3   14.64    4.47
   5   3   4   34.83    6.13
   5   4   4   71.00    7.70
   6   0   2   28.69    5.10
   6   1   3  171.05   10.37
   6   3   4   20.84    5.75
   6   4   4   12.34    5.97
  -8  -3   9   26.45    6.38
  -7   1  12    6.11    6.03
  -6  -5   5    3.03    3.11
  -5   2  10    3.31    5.08
  -4  -1   3  616.37   12.88
  -4   2   8   62.42    7.64
  -3   4  14   28.22    6.95
  -2   3   8   21.30    4.50
  -2   4  12    4.02    3.99
  -8  -2   9   -4.02    4.84
  -8  -1  10    4.71    6.11
  -8   0  12    4.53    5.71
  -7  -1   8    3.08    4.52
  -6  -1   6   78.42    7.15
  -6   1   9   13.74    7.04
  -6   2  12    0.83    5.56
  -5   3  13    2.03    5.50
  -4   0   4  325.74   11.02
  -4   3  11   28.85    6.37
  -3  -2   1   20.24    2.09
  -3   3   9   74.88    8.06
  -3   4  13   17.76    6.47
  -2   2   5  211.78    8.92
  -1   2   4  504.00   11.04
  -1   4  10   16.84    5.15
   1   4   8   73.75    5.48
  -7   0   9   22.62    6.18
  -7   1  11   -0.98    5.36
  -7   2  14    3.49    6.37
  -6  -2   5  193.03    9.55
  -6   0   7  464.17   16.61
  -5  -4   3  114.62    5.06
  -5  -3   3   30.29    3.74
  -5   1   7    5.80    4.61
  -2   1   3 4056.82   30.14
  -2   4  11    4.33    4.63
  -8  -3   8    5.06    4.57
  -8   0  11    0.06    5.57
  -8   1  13    1.44    6.21
  -7  -4   6    6.15    4.50
  -7  -3   6   53.55    6.77
  -7   2  13    3.39    7.39
  -6   2  11   11.88    6.04
  -5  -1   4   83.94    6.40
  -5   2   9    5.42    5.19
  -5   3  12   20.50    6.70
  -4  -2   2   41.67    3.53
  -4   3  10    5.00    6.01
  -3   1   4  216.39    8.78
  -3   2   6  275.06   11.10
  -3   4  12   -4.02    4.81
   2   4   7    8.20    2.55
  -8  -1   9   13.33    6.47
  -7  -1   7   35.56    7.07
  -7   1  10   -0.49    5.36
  -6   1   8  108.87   10.42
  -6   3  14    4.81    6.37
  -5   0   5  167.99    9.11
  -4   1   5  394.14   13.28
  -4   2   7  109.25    8.49
  -2   3   7   21.45    4.92
  -1   1   2 2649.45   19.40
  -1   3   6  146.85    7.55
  -1   4   9    9.65    4.40
   2   3   4   68.22    2.63
  -9  -2  10   -2.78    5.54
  -9  -1  11    3.90    6.04
  -8  -2   8   15.46    4.85
  -8   0  10    5.51    5.76
  -8   1  12   -1.02    6.24
  -7  -2   6    6.43    4.88
  -7   0   8   66.68    8.25
  -7   2  12   -0.66    6.83
  -6   2  10   11.47    5.93
  -6   3  13    8.28    7.71
  -5   3  11    9.26    5.81
  -4   4  13    5.37    6.01
  -3   3   8    4.04    4.16
  -2   4  10   27.39    5.93
  -9   0  12   -1.25    5.88
  -6  -4   4    4.02    3.33
  -6  -3   4   16.42    4.13
  -6  -1   5  107.41    7.80
  -6   0   6   44.08    6.53
  -5  -2   3   13.16    3.18
  -5   1   6  109.01    8.44
  -5   2   8   61.88    7.78
  -4   3   9    0.07    4.55
  -3   4  11   -5.36    4.79
  -9  -1  10   -0.50    6.02
  -8  -3   7    7.18    4.80
  -8  -1   8   12.16    6.25
  -8   1  11   17.89    7.23
  -7   1   9   39.40    7.50
  -7   2  11    9.46    7.30
  -6   3  12   10.57    6.47
  -4   4  12    2.39    5.70
   1   4   7   56.54    4.70
   1   5  11    4.75    3.89
  -9  -2   9    4.04    5.70
  -9   0  11    0.07    6.25
  -8  -4   7    7.28    4.35
  -8  -2   7   29.64    6.39
  -8   0   9   26.45    6.97
  -7  -1   6   48.51    7.31
  -7   0   7    6.69    6.37
  -6  -2   4   29.62    4.90
  -6   1   7   49.42    7.41
  -6   2   9   32.01    7.25
  -5  -5   3   17.54    2.04
  -5   3  10   11.85    5.69
  -4   2   6  153.14    9.91
  -3   2   5  908.08   19.13
  -2   2   4  261.73    9.58
  -2   4   9    4.84    4.82
  -1   5  12    3.51    4.63
   3   5  10   -0.84    2.46
  -8   1  10    2.38    7.15
  -7  -3   5   54.74    6.37
  -7   3  13    8.60    7.65
  -6   3  11    1.33    6.88
  -5   0   4   65.30    6.60
  -5   4  13    2.84    6.04
  -4   0   3  903.14   17.10
  -4   3   8   -1.78    5.39
  -4   4  11    4.47    5.93
  -3   0   2  542.37   11.54
  -3   3   7   24.43    5.10
  -3   4  10    0.34    4.40
  -2   3   6   63.61    6.27
  -1   4   8   16.94    4.63
   2   5  10    0.11    3.12
  -9  -1   9    1.26    5.95
  -9   0  10    0.68    6.52
  -8   2  12   14.69    7.50
  -7  -4   5    9.43    4.22
  -7  -2   5   51.32    6.52
  -7   1   8    1.26    5.08
  -7   2  10    2.45    5.74
  -5  -1   3   25.83    4.33
  -5   3   9   10.05    6.72
  -4  -1   2    4.95    3.04
  -4   1   4  777.76   17.73
  -1   3   5   38.13    4.50
  -9  -3   8   -2.98    4.15
  -9  -2   8   -0.53    5.18
  -8  -1   7   18.27    5.54
  -8   0   8    3.99    5.34
  -7   3  12   10.59    7.04
  -6  -5   4   17.42    2.99
  -6  -1   4    2.82    4.20
  -6   0   5   39.72    6.04
  -6   2   8   35.39    7.75
  -5   1   5   95.42    7.89
  -5   4  12    1.59    5.19
  -3   1   3  309.73   10.12
  -2   5  12   -0.58    4.72
  -1   2   3  174.23    6.69
  -1   5  11    8.52    4.47
   1   3   4   81.56    3.79
   1   5  10    7.93    4.01
  -9   1  11    4.50    6.51
  -8  -3   6    2.67    4.43
  -8   1   9    9.07    6.75
  -8   2  11    4.12    6.39
  -7   0   6   -0.22    5.78
  -7   2   9    5.36    6.87
  -6   1   6   87.01    8.58
  -6   3  10    0.19    5.51
  -4   4  10   -2.84    5.45
  -3  -1   1  123.70    4.86
  -3   4   9   24.41    5.66
  -2   4   8   13.96    5.16
  -9  -1   8   24.21    7.30
  -9   0   9   25.95    7.39
  -8  -4   6    0.13    4.12
  -8  -2   6   14.17    5.72
  -7  -1   5   12.88    5.53
  -7   1   7   35.82    7.36
  -7   3  11    4.43    7.12
  -5   2   6   70.28    8.47
  -5   3   8   37.23    8.19
  -5   4  11   -1.30    4.90
  -4   2   5    3.04    4.04
  -4   3   7    5.32    4.70
  -3   3   6   74.99    7.52
  -2   0   1 6788.54   31.39
  -2   1   2  828.97   13.60
  -9   1  10    3.42    6.68
  -8   0   7   19.15    5.88
  -8   2  10    1.55    6.23
  -6   2   7   18.09    6.48
  -6   3   9   10.90    6.95
  -6   4  12    0.59    6.91
  -3   2   4   44.31    5.18
  -2   5  11    8.44    5.04
  -1   4   7   67.66    6.32
   1   2   2   27.17    1.69
   2   4   6   67.55    3.66
   3   4   6  208.92    3.89
  -9  -3   7    0.22    4.27
  -9  -2   7   17.21    6.05
  -8  -1   6   56.49    7.46
  -8   1   8   10.15    6.26
  -7   2   8   -3.23    5.24
  -6  -3   3   80.66    5.60
  -6  -2   3  256.65   10.19
  -5  -3   2   83.00    4.48
  -5   4  10   28.51    7.90
  -4   4   9   18.96    6.54
  -3   4   8   16.00    5.79
  -2   3   5   61.37    5.62
  -1   5  10    5.76    4.24
   1   4   6   30.79    3.54
  -9   0   8   -3.31    5.29
  -7  -3   4   45.07    5.37
  -7  -2   4   66.71    6.78
  -7   3  10    2.57    6.22
  -6   0   4  187.39   10.34
  -6   1   5  104.88    9.02
  -6   4  11    2.17    7.20
  -5  -2   2   26.40    3.48
  -5   0   3  192.46    9.28
  -5   1   4   83.02    7.37
  -3   5  11    1.65    5.27
  -2   4   7  148.11    9.48
   1   5   9   24.35    4.48
   2   5   9    0.30    2.69
  -9  -1   7    9.13    5.51
  -9   1   9   -0.32    5.82
  -8  -3   5   21.75    5.55
  -8   2   9    4.46    6.36
  -8   3  11    3.32    6.71
  -7   0   5   19.15    5.64
  -7   1   6   49.74    8.24
  -6   3   8   38.50    8.37
  -5   3   7   49.38    7.62
  -4   0   2 2035.48   25.17
  -4   1   3  607.67   15.60
  -4   3   6   77.00    8.41
  -2   2   3  104.85    6.22
  -2   5  10    2.08    4.40
   3   5   9    2.66    2.09
 -10   0   9   51.00    9.58
  -9   2  10    4.43    7.70
  -8  -2   5   14.87    4.95
  -8   0   6   -0.55    5.06
  -8   1   7   21.90    6.85
  -7  -4   4   14.97    3.99
  -7  -1   4   18.04    5.59
  -7   2   7   14.27    7.50
  -7   3   9   18.99    7.16
  -6  -4   3   14.66    3.12
  -6  -1   3  141.69    8.58
  -6   2   6  240.18   13.70
  -5   2   5   85.07    8.21
  -5   4   9    1.54    6.28
  -4  -3   1  179.79    4.54
  -4  -2   1   46.31    3.42
  -4   4   8   63.60    8.42
  -4   5  11   -1.46    5.69
  -3   3   5   10.85    4.87
  -1   3   4  160.88    7.37
 -10  -1   8   11.81    6.65
  -9  -3   6    0.62    4.84
  -9  -2   6   18.23    5.96
  -9   0   7   12.27    7.05
  -9   1   8   29.25    8.77
  -8  -1   5   25.41    6.48
  -8   2   8   21.96    8.28
  -8   3  10   -1.40    7.31
  -6   4  10   15.30    6.64
  -5  -4   2   90.09    3.69
  -5  -1   2    8.85    2.97
  -4   2   4  567.21   16.59
  -3   1   2  751.53   15.26
  -3   4   7    4.14    5.25
  -3   5  10   11.29    5.68
  -1   4   6   58.16    5.79
  -9  -1   6    6.27    5.96
  -8  -4   5    2.97    3.90
  -2   5   9    7.86    5.07
 -10   0   8   11.58    7.06
  -9   2   9   -1.97    6.33
  -8   1   6   61.58    9.43
  -7   0   4    5.16    5.66
  -7   1   5    9.71    5.75
  -7   3   8    3.33    6.04
  -6   1   4    4.87    4.78
  -6   3   7   44.19    7.91
  -6   4   9   -1.33    6.44
  -5   3   6   24.61    6.34
  -5   4   8   28.16    7.62
  -4   5  10    8.08    6.12
  -3   0   1 1487.99   18.39
  -3   2   3  154.70    8.21
  -2   4   6   21.96    5.15
 -10  -1   7   15.91    7.15
  -9   1   7    9.05    7.54
  -8   0   5   37.44    6.70
  -8   2   7   31.17    8.70
  -8   3   9   22.48    7.89
  -7   2   6    8.60    6.42
  -7   4  10   16.54    7.36
  -6   0   3  425.13   14.75
  -5   1   3   29.06    5.23
  -4  -1   1  347.02    9.39
  -4   3   5    8.41    4.70
  -4   4   7   19.42    5.68
  -3   5   9   -0.53    4.67
  -2  -1   0   72.93    2.82
  -1   1   1 2565.11   18.73
   0   5   8    6.67    4.18
   1   5   8    5.19    3.54
  -9   0   6    2.94    5.40
  -8  -2   4   10.51    5.19
  -7  -2   3   11.53    4.31
  -5   0   2    3.61    3.35
  -5   2   4   29.52    5.90
  -5   5  10   -0.95    6.42
  -1   2   2   47.96    4.08
 -10   0   7    0.72    5.45
 -10   1   8    7.63    7.05
  -9  -2   5   14.45    5.47
  -8  -3   4   -0.02    3.77
  -8  -1   4   51.21    7.50
  -8   3   8    3.04    7.35
  -7  -3   3    7.59    3.86
  -7  -1   3   11.89    5.07
  -7   3   7   32.44    7.76
  -7   4   9    9.53    7.80
  -6  -2   2   48.91    5.01
  -6   3   6    8.71    5.63
  -6   4   8   -4.47    6.36
  -4   1   2    8.67    4.04
  -4   2   3  155.20    9.48
  -4   5   9    9.87    6.18
  -3   3   4   48.92    5.75
  -3   4   6   27.14    5.49
  -2   5   8   10.78    5.18
   2   5   8   13.94    3.03
 -10  -2   6    8.88    5.69
  -9  -3   5    6.62    4.93
  -9  -1   5   -0.42    4.29
  -8   1   5   23.88    6.76
  -7   1   4   17.04    5.92
  -6  -3   2  108.00    6.06
  -6  -1   2   24.26    4.82
  -5   3   5  168.16   11.45
  -5   4   7   15.73    6.01
 -10  -1   6   10.36    5.90
  -9   0   5    7.14    6.48
  -9   1   6    1.88    5.84
  -9   2   7   17.86    7.36
  -8   0   4   62.94    8.50
  -8   2   6   12.30    6.57
  -7   0   3   11.11    5.74
  -7   2   5   46.77    8.19
  -6   1   3  155.48   10.22
  -6   2   4   24.24    6.54
  -5   5   9   18.88    7.19
  -4   4   6   12.94    5.18
  -3   5   8    3.44    3.87
  -2   1   1 1636.51   18.69
  -2   2   2  473.10   11.84
   1   4   5   11.46    2.50
 -10   0   6    0.38    6.20
 -10   1   7   17.69    7.57
  -8   3   7    6.44    6.56
  -7  -5   4    4.54    2.39
  -7   3   6   55.68    8.84
  -7   4   8    5.69    6.84
  -6   4   7    2.32    6.67
  -5  -2   1   46.29    4.15
  -4   0   1  164.12    7.64
  -4   3   4   54.13    6.72
  -4   5   8    3.53    5.34
  -2   4   5   36.78    5.63
  -1   3   3  424.33   11.12
  -9   3   8    6.39    6.97
  -8  -4   4    8.05    3.85
  -6   0   2   60.93    6.47
  -6   3   5    3.96    5.29
  -5  -1   1  157.27    7.60
  -5   1   2   10.59    4.21
  -5   2   3   11.29    4.88
  -5   4   6    0.62    5.84
  -3   2   2  667.96   15.84
  -3   4   5    6.37    5.00
  -2   3   3  142.12    7.83
  -2   5   7    6.42    4.79
   0   5   7   11.65    3.96
   1   3   3  156.55    4.57
 -10  -2   5    3.46    5.58
  -9  -2   4    6.72    5.03
  -9  -1   4    3.13    5.26
  -9   1   5    3.95    5.73
  -8  -2   3    6.46    4.85
  -8  -1   3    8.53    5.31
  -8   1   4   44.15    7.47
  -8   2   5    8.05    6.15
  -7  -4   3    6.00    3.19
  -7   2   4   66.30    9.83
  -5   3   4  238.12   13.07
  -5   5   8   11.49    6.61
  -3   1   1  122.03    6.62
  -3   5   7   29.17    6.51
 -10  -1   5    0.66    4.88
  -9   0   4    0.39    5.79
  -9   3   7    2.35    7.52
  -8   3   6    1.17    6.14
  -7  -2   2   34.18    5.05
  -7  -1   2   32.48    5.82
  -7   1   3   20.94    6.02
  -7   4   7    3.73    5.88
  -6   4   6   -1.46    6.29
  -4   4   5   12.81    5.28
  -3  -2   0    9.31    1.59
  -3  -1   0  664.71   10.30
  -3   3   3  104.76    7.52
   1   5   7    3.93    3.02
   2   4   5   16.64    1.94
 -10   0   5   -7.49    4.93
  -9  -3   4    1.47    4.32
  -8  -3   3    1.84    4.18
  -8   0   3    2.96    4.68
  -7   3   5   49.85    8.44
  -6   1   2   26.37    6.37
  -6   2   3  257.79   13.60
  -6   5   8    9.65    7.21
  -5  -3   1   63.35    3.70
  -5   0   1   54.31    5.46
  -4   2   2   40.77    5.49
  -4   5   7   21.49    5.92
  -9   2   5   14.14    7.96
  -8   4   7   11.24    8.04
  -7   0   2    9.72    4.73
  -6   3   4   19.01    6.54
  -5   4   5    4.15    4.90
  -5   5   7   11.63    6.42
  -4   1   1  340.29   11.73
  -4   3   3    4.91    4.39
  -2   0   0  664.82    9.95
 -10   1   5    2.91    6.27
 -10   2   6    5.13    6.81
  -9   1   4   -0.51    5.38
  -9   3   6   -1.44    6.18
  -8   1   3    6.39    6.08
  -8   2   4   12.39    6.28
  -8   3   5   16.32    8.08
  -7  -3   2   11.14    3.76
  -7   4   6    6.38    6.03
  -6  -2   1   36.43    4.67
  -6  -1   1   58.32    5.92
  -5   2   2   25.18    5.50
  -3   4   4   68.82    7.47
  -3   5   6    3.40    4.77
  -2   4   4   29.57    4.69
  -2   5   6   23.05    5.59
 -10  -2   4    2.26    4.75
 -10  -1   4   -0.39    4.76
 -10   0   4    0.75    5.92
  -9  -2   3   -4.32    4.23
  -9  -1   3    6.06    4.64
  -7   2   3   10.35    5.96
  -7   3   4   37.58    7.82
  -6  -4   2    4.80    2.47
  -6   0   1   51.57    6.51
  -6   4   5   16.39    5.97
  -6   5   7    1.00    5.86
  -5   1   1  150.14    9.32
  -5   3   3   30.64    6.44
  -4   4   4   36.85    7.12
  -4   5   6    5.64    5.61
  -3   0   0  764.17   13.19
   0   4   4  139.37    6.45
   0   5   6    0.94    3.37
 -10   2   5    3.68    7.40
  -9   0   3   -3.05    4.48
  -8  -2   2    4.47    5.05
  -8  -1   2    1.02    4.00
  -8   4   6   -0.65    6.19
  -7   1   2   25.51    6.21
  -6   2   2   51.90    8.24
  -5   5   6   14.66    6.63
  -4  -1   0  498.09   10.99
  -2   2   1  430.32   11.38
   2   5   7    4.91    2.18
 -10   1   4    2.54    6.67
  -9   2   4    9.85    6.55
  -9   3   5    2.21    6.38
  -8   0   2    2.44    4.54
  -8   2   3   20.06    7.52
  -7   4   5    8.16    6.87
  -6   3   3   89.99    9.60
  -5   4   4    0.99    4.57
  -4  -2   0   69.16    3.82
  -4   0   0    7.33    3.94
  -3   2   1   20.90    4.34
  -3   3   2   85.21    7.23
  -2   3   2   27.60    4.07
  -1   2   1   65.76    4.17
  -1   3   2  264.57    8.78
  -9  -3   3    1.70    4.55
  -8  -4   3    7.00    3.64
  -8   3   4    3.38    6.14
  -7  -1   1   28.83    5.54
  -6   1   1   62.59    7.11
  -6   4   4    2.70    6.35
  -6   5   6    5.04    5.67
  -4   2   1   42.55    5.51
  -4   3   2  150.31    9.57
 -10  -1   3   -1.39    5.13
 -10   0   3    8.83    6.31
  -8   1   2    4.70    5.03
  -8   4   5    8.41    6.66
  -7  -2   1   23.30    5.08
  -7   0   1    9.27    4.65
  -7   2   2   30.76    7.02
  -7   3   3   11.24    5.68
  -6  -3   1   23.44    3.38
  -5  -1   0  236.76    9.03
  -5   3   2   80.93    9.04
  -4   5   5   30.13    6.86
  -3   4   3   53.39    6.88
  -3   5   5   25.39    5.45
  -2   5   5   69.10    7.27
   1   4   4   14.70    2.35
   1   5   6   14.45    3.21
 -10  -2   3   -2.15    4.21
 -10   2   4    1.23    6.15
  -9  -1   2    0.99    4.15
  -9   0   2    3.59    5.73
  -9   2   3    3.53    5.90
  -9   3   4   -2.26    6.06
  -8  -3   2    3.36    4.26
  -7   1   1   15.28    6.52
  -7   4   4   14.81    6.75
  -5   0   0  248.99   10.18
  -5   2   1   50.85    6.57
  -5   5   5   16.37    6.03
  -4   4   3    6.23    4.75
  -3   1   0  620.62   13.64
  -3   6   7    3.29    4.64
  -2   1   0   64.39    4.51
  -2   4   3    6.46    3.37
   0   6   8    6.21    3.49
 -10   1   3    3.24    6.06
  -9  -2   2   -0.38    4.46
  -9   1   2    4.85    6.45
  -8  -1   1    7.32    5.17
  -8   2   2    6.61    6.70
  -8   3   3    9.18    6.41
  -6   2   1   36.13    7.44
  -6   3   2   96.23    9.75
  -6   5   5    4.56    5.46
  -5  -2   0   25.60    3.36
  -5   4   3  114.83    9.89
  -4   1   0  487.11   13.79
  -2   6   7   15.83    5.38
  -8   0   1   49.57    7.09
  -8   4   4    7.53    6.75
  -6  -1   0    0.97    3.52
  -6   0   0   36.36    5.37
  -6   4   3   21.83    6.57
  -5   1   0  228.43   10.75
  -1   1   0  487.62    8.41
   0   5   5   21.37    3.87
 -10  -1   2    1.68    5.24
 -10   0   2   13.30    6.47
 -10   2   3   -2.03    5.91
  -9   3   3    5.56    7.44
  -8  -2   1    9.87    4.62
  -8   1   1    6.67    5.63
  -7  -4   2    2.09    2.55
  -7   2   1   25.29    6.69
  -7   3   2    3.74    5.57
  -5   5   4   31.64    7.60
  -4   5   4   21.46    6.29
  -3   5   4   13.66    5.32
 -10   1   2   -2.87    6.58
  -9   2   2    2.51    5.85
  -7  -3   1    3.11    3.50
  -7   0   0   80.08    8.26
  -7   4   3    6.53    6.01
  -6  -2   0   24.71    4.14
  -6   1   0   -0.20    3.99
  -6   5   4   10.19    6.75
  -5   3   1   52.71    7.99
  -4   3   1  178.04   10.29
  -3   3   1   11.10    3.97
  -3   6   6    7.16    4.83
  -2   3   1  125.32    7.31
  -2   5   4   39.08    6.05
   0   4   3  101.50    5.52
 -10  -2   2    4.29    4.57
  -9  -3   2    1.70    4.26
  -9  -1   1   -0.49    5.03
  -9   0   1    2.13    4.75
  -9   1   1    1.37    6.12
  -8   2   1   13.74    7.07
  -8   3   2   -0.79    5.61
  -8   4   3   11.90    7.12
  -7  -1   0    6.69    3.78
  -7   1   0   11.92    6.71
  -7   5   4    3.03    6.93
  -6   3   1   26.90    7.58
  -5   2   0   22.70    5.31
  -5   4   2   86.95    8.88
  -4   2   0   73.55    6.62
  -4   4   2   20.99    5.60
  -3   2   0   11.41    3.85
  -3   4   2   67.55    6.84
  -2   6   6    7.55    4.49
   0   6   7   12.58    3.79
 -10   2   2    5.50    6.51
  -6   2   0   17.50    6.55
  -6   4   2   18.41    5.88
  -2   2   0  188.39    7.75
  -2   4   2   32.23    4.65
 -10   0   1    5.44    5.96
  -9  -2   1    0.47    4.28
  -9   2   1    0.30    6.84
  -9   3   2    1.66    6.04
  -8  -1   0   23.64    5.88
  -8   0   0    5.97    4.72
  -8   1   0   22.20    7.15
  -7  -2   0   12.63    4.27
  -7   3   1    4.13    5.52
  -7   4   2    4.52    5.88
  -5   5   3   23.17    7.04
  -4   0  -1  483.67   12.42
  -4   5   3    4.46    4.96
  -4   6   5    1.41    5.13
  -3   5   3   35.17    6.33
  -3   6   5   21.05    5.62
  -1   3   1   36.54    4.08
 -10  -1   1   11.29    5.74
 -10   1   1    8.09    5.99
  -8  -3   1    7.23    3.96
  -8   3   1   17.33    6.78
  -8   4   2   32.73    8.96
  -7   2   0   18.70    6.63
  -7   5   3    9.77    7.28
  -6   5   3    0.27    5.08
  -5   0  -1  245.81   10.17
  -4  -1  -1  202.44    7.44
  -4   1  -1  195.25    9.41
  -3   0  -1  597.03   11.84
 -10   2   1    7.99    7.42
  -9   0   0    8.87    6.06
  -8  -4   2   22.74    3.52
  -8   2   0    8.19    6.62
  -6   0  -1   25.56    4.94
  -6   1  -1   16.07    5.74
  -5  -1  -1   40.73    4.57
  -5   1  -1   35.94    5.38
  -5   3   0   36.27    6.39
  -5   4   1   87.05    9.69
  -4   3   0   62.26    6.82
  -4   4   1   76.62    8.54
  -3   1  -1   12.68    3.55
  -2   5   3   33.81    5.64
  -2   6   5   13.47    4.59
  -1   2   0  434.23    9.78
   1   3   2   18.44    1.96
   1   5   5    2.46    2.41
 -10  -2   1    3.96    4.42
  -9  -1   0    7.18    5.39
  -9   1   0    2.83    5.39
  -9   3   1    9.48    6.69
  -8  -2   0    1.25    4.03
  -7   0  -1   16.73    5.94
  -6  -1  -1   12.49    4.12
  -6   3   0   12.97    6.49
  -6   4   1   24.63    6.67
  -4   6   4    5.96    5.44
  -3  -1  -1   14.02    2.57
  -3   3   0   59.38    5.99
  -3   4   1  295.24   12.85
   0   5   4  135.49    6.89
  -9   2   0   18.50    6.97
  -7  -1  -1    7.49    4.50
  -7   1  -1    6.91    5.07
  -7   3   0   59.43    8.56
  -7   4   1    4.36    5.86
  -6   2  -1  182.26   12.00
  -6   5   2    6.57    5.49
  -5   2  -1   57.96    6.88
  -5   5   2   11.69    5.92
  -4   2  -1  136.52    8.48
  -4   5   2    9.38    5.57
  -3   6   4   -0.63    4.25
  -2   0  -1   99.60    4.55
   0   6   6   17.13    4.10
 -10   0   0   -1.18    4.54
 -10   1   0   31.33    7.85
  -9  -3   1    8.70    4.29
  -8   0  -1   21.50    5.74
  -8   1  -1   28.37    6.75
  -8   3   0    3.89    6.49
  -8   4   1   11.19    6.73
  -7   2  -1    0.08    4.84
  -7   5   2   14.96    6.74
  -3   2  -1   12.75    3.89
  -3   5   2   16.50    5.47
  -2   1  -1  596.18   11.75
  -2   3   0   78.30    5.87
  -2   4   1    8.16    4.17
 -10  -1   0   19.56    5.68
 -10   2   0    3.71    6.33
  -9  -2   0    6.95    4.63
  -9   3   0    4.67    7.29
  -8  -1  -1   27.70    6.07
  -8   2  -1    5.88    6.60
  -5   4   0    7.89    6.35
  -2   6   4    1.44    3.81
  -9   0  -1    2.21    4.40
  -9   1  -1    1.38    5.30
  -7   4   0   -1.87    5.31
  -6   3  -1  124.85   10.67
  -6   4   0   14.40    5.93
  -5   3  -1    5.10    4.90
  -4   4   0   64.99    7.51
   3  -5   0   27.88    2.11
   3   2   2  113.46    6.64
   4  -3   3   23.51    3.87
   4   5  -2    6.28    3.20
   5  -2   4   15.15    4.33
   6  -4   3   18.03    4.96
   7  -3   4   16.48    4.77
   8  -1   5   38.00    8.29
   8   3   3    0.64    5.86
   2   1   2  205.00    7.01
   3  -2   3  154.87    6.63
   3   3   1   16.97    3.41
   4  -6  -1    4.45    1.48
   4  -1   4   13.70    4.36
   5   1   4  202.85   10.93
   5   4   1   26.68    5.28
   6  -3   4   20.67    5.43
   7  -1   5   61.45    7.96
   7   0   5  104.11   10.21
   7   2   4   15.53    5.90
   7   3   3   10.78    5.35
   7   5   0    2.36    4.44
   8  -2   5   -1.84    5.32
   8   0   5   17.05    6.65
   8   2   4    7.44    5.88
   9  -2   5    2.66    6.38
   9  -1   5    3.97    6.18
   9   0   5    2.09    6.28
   9   2   4    2.56    5.94
   2   5  -4   33.24    2.17
   3   1   3  596.37   14.08
   4   2   3    9.52    3.70
   4   3   2   19.82    4.53
   6  -5   2    2.74    3.68
   6  -1   5  108.63    9.26
   6   0   5  158.75   11.03
   6   2   4  112.42    9.61
   6   3   3   15.67    5.19
   7  -2   5    7.42    4.89
   7   1   5   69.58    9.51
   7   4   2    9.77    5.56
   8   1   5   29.69    7.64
   8   4   2    1.94    5.09
   9   1   5    2.94    6.23
   4  -5   1    4.82    2.64
   4  -2   4   72.95    6.20
   5  -4   3   24.37    4.48
   5  -3   4   33.72    5.32
   6  -2   5   -2.00    4.87
   6   5   0   11.97    4.50
   4   1   4   13.86    4.21
   5  -1   5  169.06   10.11
   5   0   5   77.41    7.67
   5   2   4   22.67    5.40
   5   3   3  121.62    9.25
   6   1   5  111.31   10.14
   6   4   2    0.12    3.51
   7  -4   4   21.09    5.48
   7  -3   5   10.24    5.42
   8  -3   5    2.66    4.77
   8  -1   6    6.79    6.77
   8   0   6   -0.73    6.47
   8   2   5   -2.72    5.41
   8   3   4   10.51    5.90
   9  -1   6    1.23    6.74
   9   0   6    0.04    6.78
   9   2   5    7.10    6.45
   1   3  -1   36.92    2.17
   4   4   1   15.54    4.06
   4   5  -1   42.74    4.86
   4   6  -4    4.23    2.86
   5  -5   2    4.03    3.54
   5  -2   5   89.33    7.99
   7  -1   6   27.33    6.61
   7   0   6    3.75    5.45
   7   2   5    8.54    5.59
   7   3   4   16.65    5.92
   8  -2   6    9.44    6.19
   3  -3   3   40.01    3.82
   3  -1   4   84.23    6.25
   3   0   4   13.27    4.48
   5   1   5  154.59   10.21
   5   4   2    1.91    4.28
   6  -4   4   15.13    4.98
   6  -3   5    1.24    4.53
   6  -1   6   57.60    8.52
   6   2   5    0.03    5.69
   6   3   4   19.05    6.12
   7  -2   6    4.09    5.60
   7   1   6   32.66    8.02
   7   4   3   26.96    6.74
   8   1   6    4.64    6.05
   2  -1   3   51.29    3.91
   2   0   3  202.21    7.29
   3   2   3  145.36    7.50
   3   5  -2   17.13    3.18
   4  -3   4   24.04    4.15
   4  -1   5    2.91    4.18
   4   0   5  296.40   12.09
   4   2   4   74.26    7.21
   6   5   1   41.15    6.28
   8   3   5    4.01    6.78
   2  -3   2   27.32    2.40
   2   2   2  511.03   11.26
   2   4  -1    6.22    2.01
   3  -4   2   19.33    2.58
   3   3   2   14.04    3.20
   4  -4   3   24.51    3.83
   4   3   3   18.82    4.30
   6  -5   3    8.28    4.25
   6  -2   6   16.82    5.25
   6   1   6   47.79    7.81
   6   4   3   12.27    4.58
   7   3   5    8.18    6.35
   8  -3   6   -4.98    4.45
   8  -1   7    3.66    5.54
   8   0   7    5.44    6.11
   8   2   6    7.15    6.32
   9   0   7    0.43    5.97
   3  -2   4   67.57    5.26
   3   1   4   75.49    6.10
   4  -2   5   33.81    5.26
   4   1   5    2.46    3.79
   5  -4   4   90.64    7.22
   5  -3   5   20.02    5.05
   5  -1   6    6.88    4.78
   5   0   6   46.40    6.91
   5   2   5   88.27    8.43
   5   3   4   29.26    5.72
   7  -4   5    3.28    4.51
   7  -3   6   14.03    5.88
   7  -1   7    4.42    5.35
   7   0   7    2.74    5.44
   7   2   6    0.66    5.28
   7   4   4   21.03    6.61
   8  -2   7   12.18    6.67
   8   1   7    8.21    6.37
   2  -2   3  273.01    7.49
   2   1   3   55.91    4.52
   4   4   2    6.41    3.91
   5   1   6    3.06    4.93
   5   4   3   20.07    5.42
   5   5   1    4.21    4.17
   6   2   6   20.70    6.75
   6   3   5   10.59    5.20
   7  -2   7    0.30    5.61
   7   1   7   13.13    6.28
   1   0   2  301.45    6.58
   3   6  -5   23.76    1.99
   4   6  -3    3.27    2.87
   5  -2   6  114.70    8.71
   6  -4   5   19.52    5.39
   6  -3   6   10.09    5.21
   6  -1   7  152.69   11.21
   6   0   7    1.94    5.11
   6   4   4    9.97    5.73
   6   5   2   13.31    5.14
   8   2   7    2.77    6.22
   8   3   6    0.73    5.58
   1  -1   2 2660.47   16.98
   4   0   6   49.67    6.88
   4   2   5   29.09    5.99
   4   3   4   23.09    5.38
   5  -5   3   17.00    4.16
   6  -2   7   14.43    5.94
   6   1   7  144.79   11.73
   7   2   7    8.80    6.07
   7   3   6   13.35    6.58
   8  -1   8    6.62    6.35
   8   0   8    0.97    6.08
   8   1   8    4.12    7.18
   3  -1   5  268.20   10.16
   3   0   5  132.50    7.76
   3   2   4   71.99    6.01
   3   3   3   42.29    5.07
   4  -5   2   40.67    3.64
   4  -1   6   94.88    7.60
   5  -1   7  355.39   15.72
   5   2   6  121.99    9.95
   5   3   5   32.30    6.23
   7  -4   6    3.22    4.72
   7  -3   7    1.28    5.16
   7  -1   8    5.20    5.66
   7   0   8    9.12    6.19
   7   4   5    2.60    4.94
   8  -2   8    9.82    6.30
   3   1   5  264.85   11.06
   3   5  -1   56.31    4.34
   4  -3   5   79.72    6.40
   4   1   6   90.59    8.00
   5  -3   6   62.84    7.08
   5   1   7  349.37   16.35
   5   4   4   87.36    8.48
   5   5   2    7.00    4.48
   6  -5   4   18.34    4.46
   6   2   7   17.94    6.26
   6   3   6   17.24    5.83
   6   5   3    8.68    5.04
   7  -2   8   -0.65    5.60
   7   1   8    7.11    6.13
   8   2   8    5.23    7.38
   2  -1   4   71.78    5.15
   2   0   4  172.52    7.39
   2   2   3  272.84    9.21
   3  -3   4   12.35    2.89
   4  -4   4   40.41    4.76
   4  -2   6    0.71    3.35
   4   4   3   25.46    5.14
   5  -4   5   50.85    5.93
   5  -2   7   47.83    7.39
   6  -3   7   18.03    6.01
   6  -1   8   31.49    6.84
   6   0   8   33.68    7.18
   6   4   5   15.70    6.21
   7   3   7    2.61    6.28
   8   0   9    1.15    6.03
   1   1   2 2655.82   20.13
   2   4   0   46.95    3.63
   2   5  -3   35.66    2.14
   3  -2   5  108.00    6.46
   4   6  -2    4.65    3.16
   6  -4   6   17.84    5.14
   6  -2   8   29.91    7.15
   6   1   8   32.55    7.37
   7   0   9   19.19    8.02
   7   2   8    9.20    6.31
   7   4   6    4.44    6.34
   8   1   9   -0.72    6.02
   2   1   4   65.77    5.28
   4   0   7  118.37    9.05
   4   3   5   77.72    7.40
   5   0   8  116.76   10.85
   5   2   7   47.28    7.59
   5   3   6   53.53    7.16
   6   3   7   18.84    7.11
   7  -3   8   -0.78    5.30
   7  -1   9    0.10    5.32
   7   1   9    1.80    6.01
   3  -4   3    3.41    2.26
   3   0   6   -3.29    3.11
   3   2   5  109.33    7.54
   3   3   4   11.99    4.22
   4  -1   7  195.33   10.84
   4   1   7  183.94   11.17
   5  -1   8   58.08    7.83
   5   1   8   50.15    9.18
   5   4   5   44.26    7.26
   5   5   3   15.38    4.91
   6   2   8   27.27    7.18
   6   4   6   27.59    6.79
   6   5   4   16.61    5.85
   7  -2   9    2.97    6.09
   7   3   8   -1.32    6.60
   1   3   0   98.53    3.65
   2  -2   4  679.53   12.47
   3  -1   6   28.44    4.56
   3   1   6   29.59    5.05
   3   5   0   29.65    4.03
   4  -3   6   96.38    7.24
   4   4   4   31.84    5.86
   5  -5   4    8.88    3.87
   5  -3   7    4.54    4.61
   6  -1   9   15.86    6.19
   6   1   9   10.39    6.31
   7   2   9    1.91    6.40
   2  -3   3  129.50    4.75
   3   6  -4    1.89    1.44
   4  -2   7   26.03    5.09
   5  -4   6    0.55    3.96
   5  -2   8   49.85    7.00
   5   2   8   55.92    8.91
   5   3   7   10.63    6.14
   6  -4   7    2.10    4.57
   6  -3   8   10.77    5.22
   6  -2   9    2.29    5.76
   7  -1  10    1.54    5.53
   7   0  10    4.92    6.69
   7   1  10    9.91    7.69
   1  -2   2   26.12    1.99
   2   0   5 2897.49   30.34
   2   2   4  703.33   15.16
   3  -2   6    4.30    3.61
   3   4   3    4.64    3.46
   4  -4   5   26.09    4.48
   4   0   8   44.43    7.52
   4   2   7   26.19    5.99
   4   3   6  101.78    8.63
   4   6  -1    7.95    3.22
   5   0   9    2.56    5.48
   5   5   4    7.90    5.03
   6   2   9    3.58    6.29
   6   3   8    7.17    5.81
   1   0   3 2350.67   20.14
   2  -1   5 1060.69   17.74
   2   1   5 1090.10   19.62
   2   3   3  123.51    6.57
   3  -3   5   11.45    3.17
   3   2   6    1.14    3.65
   4  -5   3   26.99    3.44
   4  -1   8  155.87   10.38
   4   1   8  157.42   10.97
   5  -1   9   35.58    6.72
   5   1   9   33.70    7.48
   5   4   6   -1.58    4.05
   6  -1  10    2.98    6.55
   6   0  10   21.91    7.57
   6   1  10    5.25    7.25
   6   4   7   -2.13    4.47
   7  -2  10   12.35    6.55
   7   2  10   14.93    7.23
   2   4   1  191.54    6.88
   3  -1   7   43.16    6.03
   3   0   7    1.15    3.70
   3   3   5   12.56    4.06
   4   4   5   23.89    5.16
   4   5   3   24.80    5.48
   5  -3   8   21.45    5.84
   6  -3   9   -0.48    5.02
   7  -1  11   21.65    8.36
   7   0  11   -5.51    5.72
   7   1  11    4.06    7.67
   1  -1   3 2133.99   17.80
   1   1   3 2174.66   20.65
   3   1   7   35.97    5.77
   3   5   1    3.01    3.16
   4  -3   7    2.30    4.08
   4  -2   8  148.84   10.17
   4   2   8  133.04   11.03
   4   3   7    5.51    6.05
   4   6   0   10.56    3.84
   5  -2   9    7.52    4.79
   5   2   9   18.35    6.38
   5   3   8   17.99    6.02
   6  -2  10    9.29    5.47
   6   2  10    6.17    6.30
   6   3   9   -2.78    5.04
   3   4   4   17.95    4.44
   4   0   9   10.42    5.41
   5  -5   5   10.42    4.14
   5  -4   7   -1.34    3.93
   5  -1  10   11.35    6.51
   5   0  10   20.48    6.58
   5   1  10   11.60    7.09
   5   4   7    1.40    4.47
   6  -4   8    0.19    4.67
   6   0  11   -1.39    5.71
   6   4   8    3.45    5.58
   2  -2   5   38.70    4.12
   2   0   6   10.64    4.03
   2   2   5   32.30    4.48
   2   5  -2   32.45    2.29
   3  -4   4   16.53    3.05
   3  -2   7   16.77    4.61
   3   2   7    9.89    4.52
   3   3   6   58.31    7.00
   3   6  -3    2.77    1.70
   4  -1   9  123.32    9.88
   4   1   9  129.52   10.67
   4   4   6   68.21    7.87
   6  -1  11    7.37    5.94
   6   1  11    5.09    6.44
   2  -1   6  105.42    6.96
   2   1   6  102.03    7.04
   2   3   4   68.38    5.69
   3  -3   6   57.29    5.30
   3   0   8  101.75    8.29
   3   1   8   84.02    8.57
   4  -4   6   68.95    6.19
   4   5   4   -0.63    4.10
   5  -3   9    9.36    5.41
   5  -2  10    0.35    5.47
   5   2  10    3.16    5.49
   5   3   9   10.62    5.77
   6  -3  10    2.33    5.57
   6  -2  11   11.11    6.62
   6   2  11   12.54    7.11
   6   3  10    3.13    6.26
   1   3   1  453.13    8.30
   3  -1   8   93.19    7.79
   3   5   2   12.51    3.51
   4  -2   9   30.85    6.69
   4   2   9   34.36    6.73
   4   3   8    1.94    4.92
   4   6   1   -0.62    3.35
   5   0  11   12.77    6.26
   5   1  11   16.67    7.63
   5   4   8    8.95    5.15
   5   5   6   -1.96    3.82
   1   0   4   14.73    3.23
   1   2   3  215.16    7.28
   2  -3   4   74.74    4.13
   3   2   8  124.40    9.99
   3   4   5   40.60    5.98
   4  -5   4    4.39    2.81
   4  -3   8    1.54    3.51
   4  -1  10   -0.53    6.26
   4   0  10   -2.12    5.39
   4   1  10    9.05    5.89
   4   4   7   -4.12    4.63
   5  -4   8   18.02    5.00
   5  -1  11   14.22    6.15
   6  -1  12   -1.07    6.02
   6   1  12    7.14    6.77
   1   1   4   42.47    4.20
   2   0   7    3.60    4.25
   2   2   6   94.33    6.99
   3   3   7  166.47   10.33
   4   5   5   27.63    5.62
   5  -5   6    0.51    3.62
   5   2  11    1.77    5.69
   5   3  10    1.14    5.26
   5   5   7    6.75    5.42
   6   2  12    1.84    6.41
   1  -1   4   45.15    3.94
   2  -2   6  104.36    6.32
   2   1   7  159.60    9.03
   2   3   5   32.56    4.49
   2   5  -1   50.95    3.13
   3  -2   8  111.05    7.93
   3  -1   9  159.35   10.62
   3   1   9  142.60   10.38
   3   6  -2   16.00    2.28
   4   2  10   45.71    7.68
   4   3   9    0.06    4.59
   4   6   2    2.27    3.54
   5  -3  10   -1.06    4.81
   5  -2  11    0.94    5.29
   5   0  12   -3.97    5.37
   5   1  12   -0.86    6.93
   5   4   9   -0.24    4.66
   6  -2  12    2.28    5.85
   6   0  13   21.70    8.01
   2  -1   7  170.07    8.61
   3  -4   5   39.85    4.21
   3  -3   7  154.36    8.30
   3   4   6  230.20   11.72
   4  -4   7    0.56    3.47
   4  -3   9    2.78    4.53
   4  -2  10   40.00    6.64
   4   0  11    9.30    5.26
   4   1  11   58.91    8.56
   4   4   8    2.00    4.84
   5  -1  12    0.10    5.41
   5   3  11   25.10    8.31
   1  -2   3  216.97    5.32
   2   2   7   46.36    6.32
   3   2   9  123.40   10.04
   3   3   8   19.77    6.10
   4  -1  11   54.26    7.96
   4   3  10    4.60    6.07
   4   5   6    5.36    4.40
   5  -4   9    0.79    3.86
   5   2  12    0.96    6.15
   5   4  10   -0.26    6.36
   1   0   5  908.64   15.67
   1   1   5  148.32    7.13
   1   2   4  256.63    8.56
   2   0   8  170.69    9.56
   2   1   8  233.82   11.68
   2   3   6   52.35    6.21
   3  -2   9  118.51    9.11
   3   0  10   -0.05    4.55
   3   1  10   48.13    7.54
   3   6  -1    0.04    2.13
   4   2  11    6.96    5.68
   5  -5   7    1.06    3.50
   5  -3  11   26.73    6.76
   5  -2  12    2.49    4.98
   5   0  13   -0.05    5.65
   5   1  13   11.77    7.92
   2  -3   5   28.77    3.38
   2  -1   8  246.68   11.12
   2   5   0   32.97    3.21
   3  -1  10   54.82    7.26
   3   4   7   61.54    7.54
   4  -5   5   32.11    3.90
   4  -2  11    9.88    5.80
   4   0  12    0.98    5.38
   4   1  12   14.03    6.46
   4   5   7    6.43    4.90
   5  -1  13    2.50    6.01
   5   2  13    2.50    7.18
   5   3  12    8.60    6.40
   1  -1   5  151.87    6.44
   2  -2   7   38.04    4.52
   2   2   8    4.87    5.16
   3  -3   8   20.43    4.71
   3   2  10   68.60    8.41
   3   3   9   39.97    6.69
   4  -4   8    0.27    3.69
   4  -3  10    9.27    5.35
   4  -1  12    6.01    5.49
   4   2  12    7.22    7.06
   4   3  11    2.23    5.38
   1   0   6  154.20    7.97
   1   2   5  349.67   10.91
   2   0   9   30.53    5.56
   2   1   9  177.34   11.12
   2   3   7  271.67   12.28
   2   4   5   17.78    4.29
   3  -4   6  228.09    8.55
   3   0  11    2.51    5.07
   3   1  11   25.92    6.34
   3   4   8    1.91    5.26
   3   5   5    0.90    3.87
   3   6   0    1.87    2.58
   4   4  10    6.64    5.91
   5  -4  10    1.18    4.62
   5  -3  12    7.44    5.98
   5  -2  13    4.68    5.34
   5   0  14    4.77    6.66
   5   1  14   23.02    8.01
   1   1   6  394.76   11.97
   2   5   1  150.45    5.99
   3  -2  10   70.76    7.53
   3  -1  11   17.99    5.83
   3   2  11   36.64    8.06
   3   3  10   13.92    5.95
   4  -2  12    7.88    5.98
   4   0  13   31.24    7.68
   4   1  13    1.84    5.91
   4   5   8    0.19    4.06
   5  -1  14   22.30    7.47
   1  -2   4  263.67    6.77
   1   4  -1    5.06    1.02
   2  -3   6   47.87    4.50
   2  -2   8    9.46    4.20
   2  -1   9  171.02    9.86
   2   2   9  173.35   10.83
   3  -3   9   39.08    5.86
   3   0  12   26.24    7.53
   3   1  12    8.95    6.72
   3   5   6    4.43    4.45
   3   6   1    2.70    2.99
   4  -4   9    1.76    4.48
   4  -3  11    0.13    4.87
   4  -1  13    2.67    5.51
   4   2  13    7.98    6.66
   4   3  12    2.28    5.48
   1  -1   6  386.58   10.84
   1   0   7  696.35   16.37
   1   2   6   -1.50    2.82
   1   3   4   85.05    5.29
   2   0  10   12.07    4.96
   2   1  10  218.56   12.31
   2   3   8   91.81    8.11
   2   4   6   62.46    6.56
   2   5   2   82.87    5.32
   3   4   9   33.43    6.28
   4  -5   6   11.64    3.56
   4   0  14    5.01    7.02
   4   1  14   13.50    8.19
   4   4  11    6.29    5.86
   1   1   7  234.85   10.03
   1   4   0   66.88    2.88
   2   2  10  196.57   12.55
   3  -4   7   59.70    5.53
   3  -2  11   35.94    6.66
   3  -1  12    9.38    5.57
   3   2  12   -2.27    5.05
   3   3  11    1.60    4.95
   3   5   7    1.98    4.21
   3   6   2    5.60    3.31
   4  -2  13   -5.27    4.13
   4  -1  14    7.73    6.81
   4   2  14    0.72    6.90
   4   3  13   15.50    6.89
   1   2   7  108.08    7.77
   1   3   5   12.42    3.65
   2  -2   9  175.68    9.83
   2  -1  10  216.53   11.55
   2   3   9   66.93    7.64
   2   4   7    4.92    4.66
   2   5   3   20.27    3.89
   3  -3  10   22.23    5.39
   3   0  13    4.75    5.48
   3   1  13   10.03    6.13
   3   4  10   17.30    6.32
   4  -4  10   10.87    5.15
   4  -3  12    0.35    4.95
   1  -2   5  338.75    8.63
   1  -1   7  246.06    9.49
   1   0   8   16.67    4.26
   1   1   8   32.94    5.16
   1   4   1  291.34    6.65
   2  -3   7  248.55    9.19
   2   1  11    8.80    6.11
   3  -2  12    4.71    5.43
   3  -1  13    5.71    6.24
   3   2  13    5.79    5.95
   3   3  12    5.75    5.53
   3   5   8   -0.51    4.26
   3   6   3    3.35    3.45
   4  -5   7    4.75    3.67
   4   0  15   14.96    7.17
   4   1  15    3.55    6.70
   1   3   6  118.81    7.54
   2  -1  11   18.69    6.50
   2   2  11   29.54    7.15
   2   3  10   -1.73    5.26
   2   4   8   76.47    7.87
   3   0  14    1.22    6.56
   3   1  14   -7.04    6.43
   3   4  11   -0.26    5.20
   3   6   4    4.72    3.80
   4  -2  14    2.32    5.07
   4  -1  15    4.56    6.28
   1  -1   8   40.53    5.44
   1   1   9   93.24    8.27
   1   2   8  322.70   12.73
   1   4   2  161.72    5.82
   2  -4   3   18.97    1.58
   2  -2  10  176.57   10.55
   2   0  12    2.33    5.22
   2   1  12   39.56    7.13
   3  -4   8    2.10    3.31
   3  -3  11    4.89    5.03
   3   2  14   10.09    7.32
   3   3  13    9.05    5.94
   3   5   9    4.17    4.90
   4  -4  11    4.08    4.13
   4  -3  13    9.90    5.30
   1  -2   6   -0.42    2.63
   1   0   9   37.61    5.49
   1   3   7  168.35    9.45
   1   4   3   37.79    3.81
   2  -3   8   90.24    6.57
   2   2  12   22.39    6.31
   2   3  11   -1.77    5.44
   2   4   9    2.17    5.17
   3  -2  13    5.04    4.93
   3  -1  14    2.17    5.47
   3   4  12    3.29    5.88
   0   1   3  515.68    9.24
   1   1  10   58.13    7.74
   1   2   9   59.17    6.99
   2  -2  11   37.83    6.82
   2  -1  12   31.11    6.35
   2   0  13    0.85    6.01
   2   1  13   29.79    7.03
   2   5   6    2.67    3.86
   3  -4   9   28.88    5.49
   3   0  15    2.50    5.79
   3   1  15   18.37    7.39
   3   2  15    4.56    7.14
   3   3  14    3.74    6.95
   3   5  10    4.21    5.24
   4  -5   8   -0.95    3.12
   1  -2   7  104.89    6.32
   1  -1   9   96.84    7.32
   1   0  10   19.10    5.12
   1   3   8  144.37    9.17
   2  -3   9   60.90    6.12
   2   2  13    9.58    5.87
   2   3  12   10.58    6.52
   2   4  10    7.70    5.52
   3  -3  12   -0.89    4.17
   3  -2  14    8.96    6.00
   3  -1  15   14.29    6.42
   0   0   3 5125.28   26.09
   0   1   4  898.35   13.64
   1   1  11  108.73    9.95
   1   2  10   56.08    7.37
   2  -4   4    6.61    1.67
   2  -1  13   26.15    6.09
   2   0  14    8.00    6.71
   2   1  14    2.84    5.66
   2   5   7    6.86    4.48
   3   0  16    0.27    5.88
   3   1  16    8.39    7.12
   0   0   4   17.86    3.06
   0   1   5  280.52    8.77
   1  -2   8  339.31   11.39
   1  -1  10   49.54    6.22
   1   0  11    3.94    4.66
   1   3   9  165.59   10.31
   1   4   6   26.67    4.67
   2  -2  12   29.97    5.90
   2   2  14    1.32    5.56
   2   3  13   11.74    6.15
   2   4  11   -0.15    4.43
   2   5   8   15.47    5.07
   3  -4  10   19.52    4.73
   3  -3  13   10.02    5.52
   3  -2  15    5.62    6.13
   3  -1  16    8.39    7.36
   0   0   5   57.89    4.61
   0   1   6  594.08   13.63
   0   2   1   63.22    2.58
   0   2   4 1001.01   15.08
   1   1  12   41.75    7.23
   1   3  10   84.78    8.94
   1   4   7   44.04    5.86
   2  -4   5   17.33    2.52
   2  -3  10    1.94    3.38
   2  -1  14    1.94    5.10
   2   0  15   -4.14    6.36
   2   1  15    9.43    6.39
   2   4  12    6.76    5.78
   3  -5   4   44.34    2.38
   0   0   6 1345.90   19.47
   0   1   7    2.33    4.29
   0   2   5 1010.65   16.67
   1  -2   9   64.57    6.42
   1  -1  11  101.03    8.53
   1   0  12    3.02    4.92
   1   2  12    7.90    5.69
   1   4   8   79.51    7.57
   2  -2  13    5.14    4.65
   2   2  15   -3.65    5.81
   2   3  14   18.47    6.99
   2   5   9    3.45    3.93
   3  -4  11    0.57    3.73
   3  -3  14   11.39    5.94
   0   0   7 1080.27   19.03
   0   2   6  361.89   11.13
   1  -1  12   41.67    7.46
   1   0  13   39.83    8.07
   1   1  13   30.91    7.15
   1   3  11   50.01    7.46
   2  -4   6   65.72    4.27
   2  -3  11    1.28    3.38
   2  -1  15    3.26    5.98
   2   0  16    4.68    7.21
   2   1  16   10.03    6.73
   2   4  13   12.90    6.97
   2   5  10    0.71    4.69
   3  -5   5   -2.34    1.87
   0   0   8  169.29    8.97
   0   1   8  340.46   12.12
   0   2   7   60.58    5.66
   1  -2  10   62.21    6.42
   1   2  13    5.04    5.42
   1   3  12   29.96    7.33
   1   4   9    5.05    4.07
   2  -2  14   -1.78    4.53
   2   2  16    9.90    6.81
   2   3  15   10.24    6.64
   3  -4  12    8.45    4.34
   0  -1   4  877.89   11.87
   0  -1   5  289.70    8.14
   0   1   9   37.77    5.53
   0   2   8  120.47    7.92
   1  -3   4   79.94    3.45
   1  -2  11  233.41   11.91
   1  -1  13   31.51    7.48
   1   0  14   -2.49    4.91
   1   1  14    9.01    5.84
   1   2  14    1.80    6.55
   1   4  10   21.35    6.10
   2  -4   7    6.04    2.99
   2  -3  12    8.91    4.09
   2  -1  16    7.18    6.28
   2   0  17    4.30    7.25
   3  -5   6    5.13    2.47
   0  -1   3  509.37    7.66
   0  -1   6  607.79   12.58
   0   0   9   11.51    4.15
   0   1  10   11.10    4.61
   0   2   9  188.84   10.25
   0   3   5  118.74    6.37
   1  -3   3  152.58    3.42
   1  -3   5   10.52    2.15
   1  -3   6  103.11    5.14
   1   1  15   -4.64    6.26
   1   3  13   38.74    7.51
   1   4  11    1.51    5.13
   2  -4   8   79.17    5.75
   2  -3  13   18.00    5.91
   2  -2  15    0.83    4.71
   2   6   2    1.36    2.42
   2   6   3   -0.05    2.80
   2   6   4    7.36    3.51
   2   6   5   12.29    4.05
   0  -1   7   -1.65    2.96
   0  -1   8  336.71   11.39
   0   0  10   58.84    6.53
   0   1  11   48.04    6.86
   0   2   0  449.99    3.92
   0   2  10   42.29    6.58
   0   3   6   30.99    4.13
   0   3   7   -2.04    3.66
   1  -3   7  168.97    7.17
   1  -2  12    2.85    4.40
   1  -1  14   12.45    5.61
   1   0  15   17.21    6.62
   1   2  15   13.24    7.13
   1   3  14    2.56    5.50
   1   4  12   -0.21    5.19
   1   5   4   36.18    4.28
   2  -2  16   15.32    7.28
   3  -5   7    4.53    2.74
   0  -1   9   38.84    5.60
   0   0  11   43.59    6.41
   0   1  12  133.03   10.95
   0   2  11  335.15   14.89
   0   3   8  225.46   10.59
   0   3   9  286.21   12.93
   1  -3   8  142.27    7.22
   1  -2  13    3.43    5.13
   1  -1  15    0.65    6.04
   1   0  16   -1.71    6.57
   1   1  16    2.25    6.49
   1   2  16   -4.51    6.66
   1   3  15   32.24    8.75
   1   5   3   12.16    3.08
   1   5   7    2.86    3.91
   2  -4   9    2.58    3.21
   2  -3  14    8.12    5.35
   2   6   1   12.82    2.24
   3  -5   8    3.55    3.10
   0  -1  10   10.87    4.86
   0   0  12   -1.30    4.48
   0   2  12   81.69    9.00
   0   3   2   87.09    3.78
   0   3  10   63.38    8.02
   1  -3   9  150.09    8.08
   1   1  17   20.07    8.29
   1   4  13   10.06    5.35
   1   5   8    6.03    4.46
   1   5   9   30.73    5.78
   2  -4  10    9.17    4.33
   0  -1   2 1925.93   11.20
   0  -1  11   50.44    7.02
   0   0  13  156.46   12.06
   0   1  13    9.08    5.44
   0   2  13   20.77    6.34
   0   3  11    6.71    4.85
   1  -3  10   75.85    6.74
   1  -2  14    0.71    4.45
   1  -1  16    4.46    5.39
   1   0  17   12.42    6.69
   1   4  14   12.16    6.18
   1   5   2   59.54    3.65
   1   5  10    4.07    4.60
   2  -4  11    4.07    4.58
   2  -3  15    9.64    5.17
   3  -5   9    0.64    3.14
   0  -1  12  123.10    9.93
   0   0  14    4.84    6.37
   0   1  14   82.81    9.39
   0   2  14   13.60    6.92
   0   3  12   23.45    5.98
   1  -3  11   45.14    6.19
   1  -2  15   15.15    6.28
   1  -1  17   27.14    8.44
   1   5  11    4.46    4.93
   3  -5  10    0.63    3.14
   0  -1  13    5.51    6.38
   0   1  15    1.97    5.61
   0   2  15   -1.94    6.39
   0   3  13   12.04    5.70
   0   4   6   12.04    3.64
   0   4   7   12.66    4.13
   0   4   8   12.44    4.60
   0   4   9   26.06    5.68
   1  -3  12   24.21    5.54
   2  -4  12    5.11    3.98
   0  -2   7   58.96    4.85
   0  -2   8  124.16    7.01
   0  -2   9  185.25    9.02
   0  -1  14   75.40    9.17
   0   0  15    2.16    5.46
   0   1  16    8.70    7.35
   0   3   1   75.34    2.81
   0   3  14   10.85    5.92
   0   4  10   11.05    4.56
   0   4  11    3.46    5.00
   1  -2  16    2.51    5.28
   1   5   1  191.23    4.73
   2  -4  13    6.70    4.30
   0  -2   6  331.39    8.85
   0  -2  10   40.15    5.38
   0  -2  11  363.41   13.91
   0  -1  15    1.07    5.93
   0   0  16   62.28    9.45
   0   1  17    7.66    7.39
   0   2  16    1.26    6.05
   0   3  15   23.01    6.80
   0   4  12   42.79    7.39
   1  -3  13   30.33    5.41
  -1   1   9    5.75    3.83
  -1   1  10   32.74    6.22
   0  -2   5  998.05   13.25
   0  -2  12   79.89    8.29
   0   0  17    3.34    6.40
   0   2  17    7.41    6.56
   0   3  16    0.19    5.67
   0   4  13   -2.37    4.66
   1  -3  14    0.90    3.83
  -1   0   9  263.68   11.18
  -1   0  10   11.40    5.04
  -1   1   7  153.49    7.79
  -1   1  11  158.87   10.25
  -1   1  12   19.54    5.86
  -1   2   7   55.54    5.57
  -1   2   8   18.75    4.16
  -1   2   9    0.91    3.77
  -1   2  10  410.53   15.02
  -1   2  11   80.42    9.23
   0  -2  13   20.50    5.83
   0  -1  16    5.29    5.61
   0   0  18    9.85    7.47
   0   4   3   96.61    4.68
   0   4  14    0.28    5.20
   1  -3  15   23.29    6.42
  -1   0   7  278.41   10.04
  -1   0   8  318.41   11.11
  -1   0  11   24.20    5.36
  -1   0  12   49.48    6.89
  -1   1   6   46.76    4.57
  -1   1  13   72.26    8.56
  -1   1  14   96.88   10.44
  -1   2   6  296.50    9.89
  -1   2  12   38.71    6.91
  -1   2  13   28.48    6.37
   0  -2  14   10.90    4.62
   0  -1  17    4.03    6.01
   1   6   6    3.82    3.62
  -1   0  13    3.06    5.01
  -1   1   5   15.47    3.53
  -1   1  15   21.91    6.81
  -1   2  14   24.37    6.58
  -1   3   8   50.86    6.04
  -1   3   9   84.80    7.79
  -1   3  10  215.72   11.42
  -1   3  11   61.79    7.41
  -1   3  12   11.29    5.79
   0  -2   4  974.39   11.19
   0  -2  15   -0.64    4.40
   0   5   8    8.98    4.14
   0   5   9   -1.23    3.89
   0   5  10    3.44    4.22
   0   5  11   12.19    5.19
   0   5  12    4.11    5.05
   1   6   5    3.53    3.33
  -1  -1  10   35.42    5.79
  -1  -1  11  158.04    9.99
  -1   0   6  295.13    9.17
  -1   0  15   48.69    7.90
  -1   1  16   -1.04    5.47
  -1   2   5   90.40    5.56
  -1   2  15    4.39    5.62
  -1   2  16    8.87    6.86
  -1   3   7    4.51    3.66
  -1   3  13   66.11    8.36
  -1   3  14   16.28    6.98
   0  -2  16    4.02    5.28
  -1  -1   8  244.08    9.61
  -1  -1   9   10.43    3.72
  -1  -1  12   15.35    5.19
  -1  -1  13   70.46    7.98
  -1  -1  14   84.41    9.46
  -1   0  16    1.00    5.39
  -1   1  17    7.01    5.99
  -1   2  17    3.09    5.97
  -1   3   6  142.02    7.23
  -1   3  15    9.55    5.64
   0  -2  17    4.87    5.70
   1  -4   9    5.65    3.43
   1  -4  10   19.28    4.33
   1  -4  11    4.40    3.77
   1  -4  12    7.76    4.76
  -1  -1  15   13.63    5.88
  -1   0   5  518.68   10.82
  -1   0  17    1.70    5.82
  -1   1   4  218.56    6.94
  -1   1  18    3.54    6.19
  -1   3  16    1.56    5.57
  -1   4  10   17.27    5.30
  -1   4  11   18.42    5.64
  -1   4  12   38.32    7.11
  -1   4  13    3.91    5.33
   0  -3   9  260.07    9.73
   0  -3  10   54.80    5.80
   0  -3  11   14.55    4.57
   0  -3  12   26.45    5.45
   0  -3  13   11.36    5.24
   1  -4  13    7.81    4.12
  -1  -1   7  148.77    7.06
  -1  -1  16    0.48    5.19
  -1   0  18    1.37    5.78
  -1   4   9    5.76    3.78
  -1   4  14    2.04    4.69
  -6   3 -10    5.16    5.85
  -5   2 -12    7.77    6.06
  -5   3  -8   23.89    6.35
  -4   3  -5   77.75    7.63
  -4   3   8    0.38    0.91
  -2  -3 -15    7.36    3.48
  -2   2   4  244.06    3.94
  -1  -3 -13   40.90    4.47
   0  -3 -10   61.12    3.06
   0  -2  -9  186.83    5.46
   0  -1  -7    0.27    2.11
  -6   4  -5   17.19    6.02
  -5   3  -9    4.04    5.43
  -5   4  -1   16.48    5.18
  -5   4   0    8.16    4.58
  -5   4   1   84.55    7.00
  -5   4   2   82.91    6.51
  -4   2 -11    5.71    6.09
  -4   3  -6   85.24    8.33
  -3   0 -14    2.63    5.03
  -3   1 -12    8.21    5.69
  -3   2  -8  120.45    8.97
  -2   0 -12    3.20    4.57
  -2   1  -9  171.01    9.39
  -2   2  -3  268.22    9.28
  -1  -1 -11  104.07    6.32
  -1   0  -9   31.29    4.44
  -6   4  -6   25.71    6.47
  -5   2 -13    0.77    5.55
  -5   4  -2    0.92    5.01
  -4   1 -14    3.89    5.04
  -4   3  -7   -3.96    4.40
  -3  -1 -16   15.45    5.52
  -3   2  -9  123.35   10.11
  -2  -2 -15   -1.95    3.21
  -2  -1 -14   11.93    4.83
  -2   2  -4  677.65   15.04
  -1   1  -5  156.26    7.08
  -6   4  -7    1.69    5.58
  -6   4   9    2.74    2.06
  -5   3 -10    6.16    5.85
  -5   4  -4   92.46    9.10
  -5   4  -3   24.84    5.76
  -5   4   5    6.91    3.08
  -4   2 -12    5.79    5.41
  -3   3  -2   16.98    4.26
  -3   3  -1   14.95    3.38
  -3   3   0   67.45    4.95
  -3   3   1    9.26    2.88
  -2   1 -10  208.30   10.70
  -2   2  -5   30.92    4.60
  -1  -2 -13    6.82    3.64
  -7   5   0   -1.50    4.28
  -7   5   1    2.34    4.26
  -7   5   2   13.06    4.59
  -7   5   3    5.87    4.33
  -6   4  -8   -0.07    5.41
  -5   3 -11   25.29    7.90
  -5   4  -5   41.87    7.58
  -4   1 -15    1.56    5.47
  -4   3  -8    2.58    4.67
  -3   0 -15    2.00    4.07
  -3   1 -13    5.48    4.71
  -3   2 -10   76.52    8.35
  -3   3  -3   42.79    5.14
  -2   0 -13    0.97    3.69
  -2   2  -6   96.85    7.02
  -1  -1 -12   39.40    5.00
  -1   0 -10   28.83    4.69
  -1   1  -6  384.58   10.89
   0  -1  -8  324.31    7.84
   0   0  -3 5190.72   21.50
  -5   4  -6   -0.24    5.63
  -4   2 -13   -0.74    5.00
  -4   3  -9    2.48    4.90
  -3   3  -5   11.09    5.14
  -2  -2 -16   13.76    4.75
  -2  -1 -15    1.06    4.20
  -2   1 -11   13.40    4.92
  -1  -3 -14   -0.26    3.15
   0  -2 -10   41.66    3.33
  -5   3 -12   15.81    6.80
  -5   4  -7    3.53    5.21
  -5   4   6    0.94    2.43
  -4   3 -10    3.83    6.13
  -3   0 -16    0.45    5.18
  -3   1 -14    3.50    4.80
  -3   2 -11   32.32    6.49
  -3   3  -6   65.78    7.76
  -2   0 -14   10.89    5.13
  -2   2  -7   45.76    5.74
  -1  -4 -14    8.68    2.57
  -1   1  -7  238.38    9.22
   0   0  -4   22.40    2.40
  -5   4  -8   20.30    7.12
  -4   2 -14   -0.32    5.60
  -3   2 -12    3.22    5.85
  -3   3  -7  161.10   11.25
  -3   3   4   41.23    2.99
  -2   1 -12   27.16    5.75
  -2   2  -8    6.78    4.34
  -1  -2 -14    1.37    3.16
  -1  -1 -13   30.82    4.95
  -1   0 -11    2.58    3.15
  -1   1  -8   35.62    5.15
   0  -3 -11    9.50    2.12
   0  -1  -9   41.95    3.62
   0   0  -5   52.38    3.65
  -6   5  -3    5.87    5.44
  -6   5  -2    8.87    5.47
  -6   5  -1   34.93    6.44
  -6   5   0   15.80    5.12
  -6   5   1   -1.13    3.65
  -5   4  -9   -2.23    6.21
  -4   3 -11    0.64    5.35
  -4   4  -4   31.38    6.43
  -4   4  -3   28.45    5.46
  -4   4  -2    7.73    4.08
  -4   4  -1   22.96    4.58
  -4   4   0   54.09    5.99
  -4   4   1   74.80    6.17
  -3   1 -15   18.08    5.80
  -3   3  -8   21.33    6.67
  -2  -1 -16    7.90    4.57
  -2   2  -9  175.12   10.86
  -6   5  -4   15.06    6.00
  -6   5   2    9.90    4.04
  -5   4 -10    1.61    6.51
  -4   3 -12    1.06    5.75
  -4   4  -5   27.25    6.25
  -3   2 -13    6.47    5.36
  -2   0 -15    0.68    3.87
  -2   1 -13   24.40    5.91
  -1   0 -12    0.26    3.28
  -1   1  -9   99.99    7.08
   0  -2 -11  321.14    8.29
   0   0  -6 1317.32   15.69
  -5   4   7   12.31    2.56
  -4   4  -7   -0.21    5.67
  -4   4  -6   67.45    8.09
  -3   1 -16    2.94    6.19
  -3   3  -9   39.83    7.06
  -2   2 -10  186.15   11.18
  -1  -3 -15   31.92    4.31
  -1  -2 -15   14.17    4.68
  -1  -1 -14    8.41    4.40
   0  -1 -10   10.13    2.77
   0   0  -7 1067.80   15.50
  -4   3 -13   14.44    6.81
  -4   4  -8    1.85    5.06
  -3   2 -14    6.83    5.74
  -3   3 -10   18.08    5.95
  -2   0 -16    7.91    5.11
  -2   1 -14    7.50    4.83
  -2   2 -11   38.60    6.64
  -1   0 -13   31.92    5.80
  -1   1 -10   47.71    5.80
  -5   5  -3   14.50    5.70
  -4   4  -9    2.37    5.36
  -3   3 -11    0.70    5.03
  -3   3   5    6.62    1.59
  -1  -1 -15    0.74    4.08
  -1   1 -11  100.26    8.38
   0   0  -8  178.91    7.30
  -6   5   5    0.31    3.29
  -5   5  -6   -1.48    5.85
  -5   5  -5    8.03    5.05
  -5   5  -4    7.53    4.76
  -5   5  -2    6.66    4.23
  -5   5  -1    5.58    4.27
  -5   5   0   18.47    5.19
  -4   4 -10    7.10    6.13
  -4   4   4   26.19    3.44
  -3   3 -12   -3.16    6.11
  -2   0 -17    2.73    5.11
  -2   1 -15    2.33    4.67
  -2   2 -12   26.52    6.07
  -2   3  -6   61.18    6.69
  -2   3  -5   36.34    5.34
  -2   3  -4   64.38    6.06
  -2   3  -3  128.58    7.48
  -2   3  -2   23.87    3.94
  -1   0 -14    0.53    4.29
  -1   2  -6   -0.77    3.95
  -1   2  -5  340.35   11.01
  -1   2  -4  251.03    9.15
  -1   2  -3  214.94    7.96
   0  -3 -12   21.21    2.64
   0  -2 -12   78.81    4.97
   0  -1 -11   43.23    4.34
   0   0  -9   11.43    3.37
  -5   5  -7    5.12    5.54
  -5   5   1    4.10    4.19
  -4   4 -11    5.50    6.07
  -3   4  -4   17.71    5.74
  -3   4  -3    7.78    4.83
  -2   2 -13    4.26    4.95
  -2   3  -8   93.27    9.30
  -2   3  -7  247.01   12.17
  -2   3  -1  283.65    9.41
  -1  -2 -16   -0.39    3.59
  -1   1 -12   35.77    5.93
  -1   2  -7  112.53    7.60
  -1   2  -2   27.73    3.45
  -5   5   2   19.63    4.60
  -3   3 -13    6.17    6.22
  -3   4  -7   65.83    8.74
  -3   4  -6  209.00   12.09
  -3   4  -5   30.42    5.94
  -3   4  -2   18.52    4.45
  -3   4  -1   55.01    6.09
  -2   1 -16   12.30    5.73
  -2   3  -9   61.21    8.74
  -2   3   0   71.76    5.04
  -1  -1 -16   -0.88    3.71
  -1   0 -15   22.08    5.36
  -1   1 -13   25.55    6.23
  -1   2  -8  294.57   12.08
  -1   2  -1  141.18    5.82
   0  -1 -12  125.64    6.89
   0   0 -10   51.38    5.11
  -6   5   6    9.17    3.32
  -3   3 -14    1.58    5.74
  -3   4  -8    6.45    4.89
  -3   4   0  211.15    9.42
  -2   2 -14    0.53    4.97
  -2   3 -10   -2.91    4.90
  -1   2  -9   64.27    6.99
   0  -2 -13   16.17    3.52
  -5   4   8   18.22    2.09
  -4   4   5    8.07    2.48
  -4   5  -5   24.09    6.73
  -4   5  -4   -2.88    4.95
  -3   4 -10   12.83    7.16
  -3   4  -9   31.69    7.03
  -2   2 -15   -2.55    4.66
  -2   3 -11   -0.49    4.86
  -1   0 -16   -0.73    4.53
  -1   1 -14   13.02    5.59
  -1   2 -10   65.88    7.46
  -1   2   0  416.98    8.47
   0  -3 -13   12.65    2.73
   0  -1 -13    4.09    3.39
   0   0 -11   38.73    4.60
  -4   5  -8   -5.35    5.81
  -4   5  -7    7.12    5.41
  -4   5  -6    7.38    5.16
  -4   5  -3   21.88    5.19
  -4   5  -2   38.27    6.45
  -3   4 -11    3.15    6.08
  -3   4   1  289.84   10.16
  -2   3 -12   10.38    5.78
  -1  -1 -17   19.60    5.36
  -1   2 -11  221.96   12.23
   0   0 -12    2.14    3.82
   0   1  -8  341.21   11.25
   0   1  -7   -1.42    3.06
   0   1  -5  280.97    8.45
   0   1  -4  895.64   13.64
  -5   5   4   39.79    5.12
  -4   5  -1    3.30    3.55
  -3   4 -12    1.40    5.72
  -2   2 -16    7.33    5.90
  -2   3 -13   15.32    6.39
  -1   0 -17    4.79    4.85
  -1   1 -15    0.49    4.25
  -1   2 -12    4.57    4.68
   0  -2 -14   12.53    3.60
   0  -1 -14   68.46    6.39
   0   1  -9   46.66    5.20
  -6   5   7    0.30    2.55
  -4   5   0   27.61    5.61
  -2   3 -14   12.71    7.43
  -1   1 -16   -2.03    4.82
  -1   2 -13    4.52    4.82
   0   0 -13  141.02    8.49
   0   1 -10   16.43    4.16
   0   1  -3  511.51    9.48
  -4   5   1   40.80    5.68
  -2   3 -15   13.00    7.36
  -2   4  -8   81.34    9.37
  -2   4  -7    1.40    4.59
  -2   4  -6   71.42    8.25
  -2   4  -5   17.58    6.00
  -1   2 -14    0.46    4.80
  -1   3  -8  141.36   10.53
  -1   3  -7  164.26   10.49
  -1   3  -6   98.23    8.19
   0  -3 -14    3.76    2.66
   0  -1 -15   -1.43    4.21
   0   0 -14   -3.22    4.10
   0   1 -11   41.95    5.68
  -5   5   5   13.71    3.80
  -3   3   6   66.50    2.26
  -2   4 -10   10.67    5.91
  -2   4  -9   10.61    5.73
  -2   4  -4    7.15    4.28
  -2   4  -3   18.18    5.18
  -1   1 -17   20.24    6.59
  -1   2 -15    8.49    6.35
  -1   3 -10   79.74    9.57
  -1   3  -9  157.76   11.10
  -1   3  -5    7.08    3.91
  -1   3  -4   82.75    6.46
   0  -2 -15    3.15    3.57
   0   1 -12  130.50    8.90
  -4   4   6   13.75    2.31
  -3   5 -10    2.07    6.60
  -3   5  -9    3.26    5.83
  -3   5  -8   -0.86    5.29
  -3   5  -7    6.90    5.32
  -3   5  -6    4.35    5.03
  -3   5  -5   -0.49    4.45
  -3   5  -4   46.82    7.28
  -2   4 -12    3.91    6.92
  -2   4 -11   11.85    6.24
  -2   4  -2   36.11    5.57
  -1   3 -11   58.37    7.95
  -1   3  -3  162.32    8.05
   0   0 -15    0.92    4.34
   0   1 -13    3.80    4.44
   0   1  -2 1923.16   16.24
  -3   5  -3   26.40    5.30
  -2   4 -13    6.54    6.37
  -1   2 -16    1.04    5.40
  -1   3 -13   43.24    8.46
  -1   3 -12   31.72    6.95
   0  -2 -16    6.32    3.91
   0  -1 -16    4.48    4.12
   0   1 -14   77.49    8.21
   0   2  -9  194.57   10.36
   0   2  -8  113.58    7.91
   0   2  -7   60.76    5.96
   0   2  -6  337.26   11.66
  -3   5  -2   11.82    4.29
  -2   3   3  132.91    4.80
  -2   4  -1  188.56    8.95
  -1   3 -14    2.69    6.52
  -1   3  -2   24.74    3.86
   0  -3 -15   18.03    3.15
   0   0 -16   47.84    6.11
   0   1 -15    5.03    5.25
   0   2 -11  359.47   14.84
   0   2 -10   48.71    6.71
   0   2  -5  988.89   18.12
  -4   6  -3   -0.81    4.98
  -3   5  -1    2.56    3.55
  -1   3 -15   31.27    8.53
   0  -1 -17    2.34    3.68
   0   0 -17    7.57    4.95
   0   2 -13   22.87    6.90
   0   2 -12   78.35    8.74
   0   2  -4  983.36   17.21
  -6   5   8    8.07    2.34
  -5   5   6   15.95    3.27
  -4   6  -2    2.03    4.78
  -3   5   0   30.61    5.35
  -2   4   0   48.20    5.26
  -1   3  -1  427.33   11.15
   0  -2 -17    3.73    3.48
   0   1 -16    4.07    4.41
   0   2 -14    9.06    6.04
  -4   6  -1    2.99    4.46
  -3   4   4   63.51    4.09
  -2   5 -10    1.58    5.62
  -2   5  -9    5.57    5.88
  -2   5  -8   14.52    6.45
  -2   5  -7   11.10    5.91
  -2   5  -6    4.26    5.70
  -1   4 -12   -1.81    6.59
  -1   4 -11    1.98    5.50
  -1   4 -10   23.16    6.54
  -1   4  -9    9.16    5.47
  -1   4  -8   73.23    8.55
  -1   4  -7   52.19    7.68
  -1   4  -6   28.26    6.33
   0   0 -18   -2.45    4.43
   0   1 -17   -1.65    4.99
   0   1  -1 4457.57   21.83
   0   2 -15    8.49    6.25
   0   2  -3    3.42    3.55
   1  -1 -11  152.72    6.65
   1  -1 -10   31.68    3.28
   1  -1  -9   11.50    2.34
   1  -1  -8  238.19    6.24
   1   0 -10   10.45    3.46
   1   0  -9  266.59    8.94
  -4   5   4   25.36    4.04
  -2   5  -5   -0.11    4.34
  -2   5  -4   12.23    5.68
  -1   4 -13    4.23    5.99
  -1   4  -5   10.11    4.72
   0  -3 -16    1.61    2.60
   0   2 -16    1.82    5.78
   0   3 -11    7.97    6.19
   0   3 -10   70.38    8.87
   0   3  -9  280.92   13.69
   0   3  -8  225.18   12.31
   1  -1 -12   16.30    3.39
   1  -1  -7  141.36    4.38
   1   0 -12   51.89    5.66
   1   0 -11   33.44    4.28
   1   0  -8  306.64    8.80
  -4   6   0    8.83    4.48
  -3   5   1   61.99    6.28
  -3   6  -5   -2.14    5.94
  -2   4   1    5.85    3.18
  -2   5  -3   21.30    6.10
  -1   3   0   97.17    5.52
  -1   4 -14   12.40    6.91
  -1   4  -4   16.15    4.71
   0   2 -17    6.29    6.48
   0   3 -13   20.52    7.34
   0   3 -12   18.78    6.15
   0   3  -7   -4.56    3.75
   0   3  -6   31.63    5.94
   1  -1 -13   61.56    5.34
   1   0 -13    1.26    3.87
   1   0  -7  279.27    7.85
   1   1 -10   36.68    5.49
  -3   6  -4    5.38    5.43
  -1   4  -3   42.69    5.61
   0   2  -2 1708.47   19.69
   0   3 -14    6.15    6.18
   0   3  -5  113.39    8.06
   1  -1 -14   85.49    6.38
   1   0 -14    4.38    4.31
   1   0  -6  287.75    7.44
   1   1 -13   68.90    7.78
   1   1 -12   18.96    4.85
   1   1 -11  165.61    9.20
   1   1  -9    9.32    3.54
   1   1  -8  241.84    9.35
  -4   6   1    9.24    4.04
  -3   6  -3   -0.95    4.81
  -2   5  -2   75.01    7.64
   0   3 -16   -4.06    6.27
   0   3 -15   26.54    7.51
   1  -2 -11   65.65    3.66
   1  -1 -15   17.05    4.94
   1   0 -15   49.08    6.39
   1   1 -14   98.90    9.15
   1   1  -7  151.65    7.33
  -3   6  -2    5.74    4.91
  -1   4  -2  155.90    8.62
  -1   5 -11    3.06    6.11
  -1   5 -10    7.42    6.35
  -1   5  -9   24.21    7.02
  -1   5  -8    8.73    6.65
   0   3  -4  101.42    6.99
   1  -2 -12   35.34    3.37
   1  -2  -9    3.90    1.40
   1  -1  -6   44.00    2.32
   1   0 -16    0.81    4.41
   1   1 -15   14.98    4.79
   1   1  -6   44.38    4.72
   1   2 -12   30.27    7.09
   1   2 -11   69.00    8.41
   1   2 -10  418.99   15.48
  -4   4   7   10.51    1.69
  -2   3   4   61.85    2.99
  -2   5  -1  157.51    9.30
  -1   5  -7    3.76    5.11
  -1   5  -6   10.74    6.03
   0   4 -13   -2.12    5.86
   0   4 -12   53.84    8.97
   0   4 -11    5.41    5.80
   0   4 -10    8.35    5.77
   0   4  -9   23.92    6.38
   0   4  -8   10.71    6.59
   1  -2 -13   28.35    3.31
   1  -1 -16    8.05    3.95
   1   0 -17    2.49    4.25
   1   0  -5  494.71    8.71
   1   1 -16    6.63    4.63
   1   2 -14   22.18    6.73
   1   2 -13   35.52    6.79
   1   2  -9    4.14    4.15
   1   2  -8   19.99    4.51
  -5   5   7    7.63    2.40
  -4   5   5   27.17    3.67
  -3   6  -1    6.41    4.52
  -2   6  -6   13.46    6.20
  -1   4  -1  280.53   10.83
  -1   5  -5    1.66    5.04
   0   2  -1   60.90    4.35
   0   4 -14    3.67    6.21
   0   4  -7   13.73    5.57
   1  -2 -14   22.76    3.58
   1  -1 -17   -0.76    3.62
   1   0 -18    1.88    4.38
   1   1 -17    2.67    4.25
   1   2 -16    6.41    5.92
   1   2 -15    4.29    5.10
   1   2  -7   48.74    5.45
  -3   4   5    4.10    1.98
  -2   5   0   24.77    5.10
  -2   6  -5    9.12    5.21
  -1   5  -4   35.31    6.73
   0   4  -6   14.23    5.35
   1  -2 -15    1.12    3.28
   1  -2  -8   17.09    1.34
   1   1 -18    6.85    5.05
   1   1  -5   15.89    3.13
   1   2 -17   -5.14    6.15
   1   2  -6  301.49   11.07
   1   3 -12   25.37    7.35
   1   3 -11   69.75    9.34
  -3   6   0    2.00    3.89
  -2   6  -4    6.75    4.68
   0   4  -5   15.53    5.00
   1  -2 -16    4.43    3.53
   1  -1 -18    3.45    3.92
   1   3 -15    2.05    6.36
   1   3 -14   24.77    7.31
   1   3 -13   81.35    9.32
   1   3 -10  201.51   12.26
   1   3  -9   84.18    8.49
  -2   6  -3   -0.79    4.87
  -1   4   0   74.83    5.90
  -1   5  -3    8.59    4.51
   0   3  -2   92.13    6.00
   0   5 -12    2.02    6.16
   0   5 -11    8.72    6.45
   0   5 -10    9.97    7.56
   1   2  -5   93.83    6.81
   1   3  -8   60.25    7.15
  -3   6   1    0.35    3.55
  -2   4   3    6.47    2.51
  -2   5   1   48.04    5.72
  -2   6  -2   -0.72    4.52
  -1   6  -7   19.68    7.48
   0   5  -9    1.37    5.52
   0   5  -8   11.34    6.75
   1  -2 -17   -0.67    3.12
   1   1  -4  226.45    7.22
   1   3  -7    6.73    4.45
  -1   5  -2   65.94    7.50
  -1   6  -6    2.90    6.20
   0   4  -3  117.48    8.44
   0   5  -7    4.28    5.26
   1   0  -4  925.04   10.55
   1   3  -6  153.66    9.20
   1   4 -14    1.45    5.90
   1   4 -13   13.52    6.90
   1   4 -12   46.07    8.30
   1   4 -11   20.75    6.61
   1   4 -10   13.50    6.73
  -1   6  -5    0.70    5.41
   0   3  -1   73.06    5.44
   0   5  -6    1.25    4.76
   1  -1  -5   16.56    1.37
   1   2  -4  503.15   12.55
   1   4  -9    7.47    5.51
   1   4  -8    6.74    6.58
   2   0 -14    3.37    3.99
   2   0 -13    1.77    3.67
   2   0 -12    9.40    3.88
   2   1 -16   12.11    5.52
   2   1 -15   12.51    5.55
   2   1 -14   49.76    6.53
   2   1 -13    1.24    3.98
   2   1 -12   42.40    5.79
   2   1 -11   62.50    6.81
   2   2 -14   14.26    6.19
   2   2 -13   42.67    7.69
  -4   5   6    7.82    2.57
  -4   6   4    7.47    3.61
  -3   5   4   11.01    3.22
  -2   6  -1   10.99    4.33
  -1   4   1    7.06    3.09
  -1   5  -1  205.27   10.74
   0   2   0  464.79    8.91
   0   5  -5   19.46    6.43
   1   3  -5   39.50    5.39
   1   4  -7   73.40    9.03
   2   0 -16   -0.25    4.22
   2   0 -15    3.56    3.36
   2   0 -11  104.19    6.68
   2   1 -17    2.71    5.01
   2   1 -10  214.09    9.87
   2   2 -16    7.24    5.86
   2   2 -15    2.68    4.81
   2   2 -12   99.23    8.95
   2   2 -11    4.59    4.63
  -1   6  -4   23.44    5.90
   0   4  -2   90.60    7.31
   1   5 -12   11.22    7.63
   2   0 -17    4.05    4.11
   2   0 -10   37.14    4.45
   2   1 -18    1.14    4.42
   2   1  -9  134.24    7.68
   2   2 -17   10.61    5.88
   2   2 -10   22.23    5.25
   2   2  -9    5.54    4.83
   2   3 -15   -0.36    6.13
   2   3 -14   15.33    7.24
   2   3 -13   11.45    6.81
   2   3 -12   26.07    7.32
  -2   6   0   11.72    4.63
  -1   2   3  166.12    3.45
  -1   6  -3    8.63    5.24
   0   5  -4  137.57    9.95
   0   6  -8    9.64    6.91
   1   1  -3 2078.97   19.25
   1   2  -3  175.65    7.62
   1   3  -4  164.70    8.67
   1   4  -6   60.69    7.48
   1   5 -11    4.65    6.17
   1   5 -10   -0.60    5.43
   2  -1 -14   47.80    5.19
   2   0 -18   -0.62    4.40
   2   0  -9  231.76    8.36
   2   1  -8   27.67    4.61
   2   3 -16    6.07    5.83
   2   3 -11   16.08    5.71
   2   3 -10   26.39    7.24
  -1   5   0   -1.31    3.87
   0   6  -7    9.97    6.33
   1   4  -5   87.89    8.62
   1   5  -9   12.71    6.24
   1   5  -8    9.49    6.69
   2  -1 -16    9.36    4.25
   2  -1 -15   15.43    3.98
   2  -1 -13    1.34    2.83
   2  -1 -12   49.89    4.51
   2   2  -8   60.55    6.26
   2   3  -9   20.48    6.64
  -2   4   4   26.30    2.96
  -1   6  -2   27.71    6.21
   0   3   0   -3.87    2.44
   0   4  -1   47.48    5.56
   0   5  -3  176.85   10.70
   0   6  -6   16.36    6.73
   2  -1 -17    5.87    4.03
   2  -1 -11   66.79    4.64
   2   1  -7  102.88    6.63
   2   2  -7   76.21    6.89
   2   3  -8   17.35    6.16
   2   4 -14   16.50    7.13
   2   4 -13   22.86    7.57
   2   4 -12    5.20    5.98
   2   4 -11   -0.64    6.35
  -2   6   1    2.32    3.83
   0   6  -5    8.33    5.85
   1   3  -3  424.50   12.72
   1   5  -7    9.79    5.67
   2  -1 -18    2.28    3.72
   2   0  -8   82.50    4.94
   2   4 -10   22.16    6.50
  -4   6   5    1.28    2.69
   0   5  -2   78.08    7.90
   1   4  -4   30.59    5.56
   1   5  -6   43.14    6.92
   2  -1 -10  215.77    6.93
   2   3  -7   16.15    4.94
   2   4  -9    4.93    5.14
  -3   4   6   23.04    1.97
  -3   5   5   32.43    3.61
  -1   5   1  103.53    7.17
  -1   6  -1    8.51    4.87
   0   6  -4    7.18    5.50
   1   0  -3  294.42    5.40
   1   2  -2   43.84    4.08
   1   5  -5   16.92    6.47
   2   2  -6  245.46   10.10
   2   4  -8   13.83    5.42
   2   5 -12    4.02    6.24
   2   5 -11    0.33    6.85
   3   1 -16   10.65    5.33
   3   1 -15    1.44    4.82
   3   2 -17   -2.12    6.27
   3   2 -16    0.33    4.65
   3   2 -15   -2.36    4.47
   3   2 -14    4.89    4.88
   3   2 -13   23.45    6.83
  -1   3   3  418.96    7.91
   0   4   0    5.95    3.51
   1  -3 -15    2.76    1.60
   1   3  -2  262.79    9.88
   1   4  -3   81.27    7.11
   1   6  -8    4.89    5.88
   2   0  -7  237.61    7.56
   2   3  -6   73.05    6.99
   2   4  -7  166.03   11.93
   2   5 -10    6.13    5.94
   3   1 -17    1.11    4.21
   3   1 -14   42.10    6.14
   3   1 -13   73.26    7.76
   3   2 -12  144.22   10.27
   3   3 -16    0.39    5.61
   3   3 -15   15.57    6.79
   3   3 -14    7.51    6.28
   3   3 -13   -0.63    5.09
  -2   3   5   56.74    2.12
   0   5  -1   29.10    5.71
   0   6  -3    8.48    5.21
   1  -3 -16    4.58    1.85
   1  -3 -14   21.47    1.70
   1   1  -2 2618.56   19.96
   1   5  -4   68.37    8.26
   1   6  -7   10.19    6.30
   2  -1  -9  143.13    5.32
   2   2  -5  215.09    9.46
   2   5  -9    8.70    6.39
   3   1 -12   30.69    5.35
   3   2 -11   65.22    7.47
   3   3 -12    8.22    5.44
   3   3 -11   26.77    7.26
   3   4 -14   43.77    9.38
  -3   6   4    0.50    3.27
  -1   6   0    9.39    4.59
   0   3   1   79.77    4.75
   1   6  -6    8.32    5.50
   2   3  -5   59.36    6.20
   2   4  -6   19.02    5.62
   2   5  -8   11.17    6.24
   3   0 -18    0.26    3.94
   3   0 -17    1.81    3.90
   3   0 -16    2.03    4.19
   3   0 -15   16.06    4.97
   3   0 -14    9.08    4.26
   3   1 -11   20.02    4.58
   3   2 -10   30.17    5.70
   3   3 -10   13.72    6.46
   3   4 -13   23.45    7.60
   3   4 -12   -0.76    5.57
   0   6  -2    3.16    4.71
   1   4  -2   24.99    5.25
   2  -2 -16    5.41    3.07
   2  -2 -15    5.65    2.85
   2   1  -5   82.64    5.26
   2   5  -7    9.63    5.58
   3   0 -13   13.73    4.29
   3   1 -10    2.93    3.39
   3   2  -9    4.60    4.87
   3   3  -9   77.38    8.88
   3   4 -11   -2.18    5.62
   1   5  -3   36.33    6.06
   1   6  -5   25.28    6.43
   2  -2 -17    6.50    2.97
   2  -2 -14   14.50    2.92
   2   0  -6  229.84    6.94
   2   4  -5   37.52    6.17
   3   0 -12   36.00    4.98
   3   4 -10    6.65    5.55
  -2   5   4   37.83    4.07
  -1   6   1    3.55    4.06
   0   4   1   51.69    4.90
   0   5   0   -4.46    2.97
   1   2  -1   71.11    4.48
   1   3  -1   37.74    4.15
   1   6  -4   27.03    6.77
   2   2  -4  259.94    9.64
   2   3  -4   68.32    6.26
   2   5  -6   19.67    6.14
   3   0 -11   -0.10    3.15
   3   1  -9   78.24    6.29
   3   2  -8    4.91    3.87
   3   3  -8    1.30    4.49
   3   4  -9   15.33    5.97
   3   5 -11    5.82    6.13
  -4   5   7   24.85    2.09
   0   6  -1   -0.18    4.46
   1   5  -2   49.80    6.92
   2  -2 -13   38.31    3.21
   2  -1  -8   29.49    2.68
   2   4  -4   29.38    6.21
   2   6  -7   17.51    7.30
   3   4  -8   20.57    6.33
   3   5 -10   12.82    6.79
   4   2 -16    2.87    4.74
   4   2 -15    3.24    5.60
   4   3 -15   12.73    6.63
   4   3 -14    5.79    6.53
   1   4  -1    1.87    3.17
   2   5  -5   68.38    8.14
   3  -1 -17    1.52    3.62
   3  -1 -16   11.65    3.99
   3  -1 -15    1.24    3.73
   3   0 -10   35.47    4.41
   3   1  -8  105.80    6.76
   3   2  -7   14.06    4.22
   3   3  -7   18.93    5.27
   3   5  -9    1.33    5.58
   4   1 -17   -0.91    4.80
   4   1 -16   37.49    6.80
   4   2 -14   16.49    5.64
   4   2 -13   19.59    6.36
   4   3 -13    1.04    5.25
  -2   4   5   34.60    2.61
   1   6  -3   24.25    5.77
   2  -2 -12   97.06    4.01
   2   1  -4 1479.20   18.44
   2   3  -3  150.12    8.47
   2   6  -6    9.57    6.04
   3  -1 -14   41.87    5.03
   3   4  -7    2.82    4.61
   3   5  -8    3.24    6.51
   4   1 -15    8.57    4.55
   4   1 -14   -0.06    4.97
   4   2 -12   12.89    5.80
   4   3 -12    9.92    5.75
   4   4 -13    3.45    5.97
   4   4 -12    5.89    7.20
  -3   6   5   22.56    3.76
   0   5   1   25.96    4.75
   0   6   0    2.91    4.28
   2   2  -3  106.70    6.29
   2   4  -3    2.58    4.74
   2   5  -4   31.99    6.16
   3  -1 -13   73.07    5.49
   3   3  -6   67.24    6.98
   4   1 -13   54.31    7.08
   4   2 -11    5.19    5.53
   4   3 -11   36.38    6.96
   4   4 -11    6.75    6.87
  -3   5   6    5.29    2.10
   1   3   0  101.87    5.93
   1   5  -1  101.42    7.94
   1   6  -2   12.62    5.45
   2   0  -5   41.53    3.38
   2   6  -5   15.92    5.86
   3   0  -9    4.65    2.51
   3   1  -7    0.97    2.79
   3   2  -6  278.49   11.07
   3   4  -6   28.35    6.16
   3   5  -7   38.66    7.47
   4   1 -12   69.47    7.51
   4   3 -10    9.20    5.52
   4   4 -10   -2.22    6.10
   1   1  -1 2556.79   18.12
   1   4   0   69.32    6.02
   2   5  -3   41.11    7.24
   3  -1 -12   24.54    3.67
   3   5  -6    5.58    6.17
   4   0 -17   -1.64    3.62
   4   0 -16   -3.64    3.96
   4   2 -10   41.25    6.27
   4   3  -9    0.46    6.04
   4   5 -11   -1.06    5.74
  -2   6   4   -1.00    3.21
   2   3  -2   32.07    4.85
   2   6  -4    3.10    5.00
   3   3  -5    2.28    3.89
   3   4  -5    7.75    4.86
   3   6  -7   -0.68    6.11
   4   0 -15   73.58    7.25
   4   0 -14    6.86    4.53
   4   1 -11   47.78    5.89
   4   2  -9   20.43    5.87
   4   4  -9   14.74    6.06
   4   5 -10    5.44    6.15
   5   3 -15    8.45    6.93
   0   6   1    4.71    4.19
   1  -1  -4  230.08    2.69
   1   2   0  429.16    9.10
   1   5   0   -1.74    4.09
   1   6  -1    2.68    4.76
   2  -2 -11    4.62    1.64
   2  -1  -7  101.53    3.74
   2   4  -2   26.35    4.82
   3   0  -8  287.69    8.97
   3   1  -6  124.28    7.05
   3   2  -5  894.00   18.44
   3   5  -5   38.38    7.46
   4   1 -10   -0.44    4.06
   4   3  -8    0.94    5.09
   4   4  -8   58.71    8.72
   4   5  -9    7.21    6.38
   5   2 -16    6.66    5.48
   5   2 -15    0.38    5.36
   5   3 -14    5.79    5.84
  -2   5   5   78.91    4.59
  -1   3   4  153.16    4.23
  -1   4   4   28.75    3.02
   2   1  -3 3983.33   28.39
   2   2  -2  470.04   11.60
   2   5  -2   41.33    6.60
   2   6  -3   19.83    6.13
   3  -1 -11   18.58    3.15
   3   6  -6    7.59    6.09
   4   0 -13   37.97    5.43
   4   5  -8    8.14    6.88
   5   2 -14   29.59    6.48
   5   3 -13   -2.65    4.74
   5   4 -13    5.50    6.13
   1   0  -2 4081.62   16.87
   3   3  -4   49.04    5.81
   3   4  -4   69.36    7.38
   4   0 -12   78.46    6.50
   4   2  -8   72.88    7.09
   4   3  -7    9.34    4.88
   4   4  -7   12.40    5.60
   5   1 -17   -0.90    4.85
   5   1 -16   31.56    6.55
   5   2 -13   13.88    5.52
   5   3 -12   18.30    6.29
   5   4 -12    0.84    5.60
   1   6   0    6.63    4.59
   2   4  -1    8.43    4.33
   3   5  -4   12.99    5.26
   3   6  -5   21.23    6.73
   4   1  -9   12.28    3.85
   4   5  -7   19.94    6.51
   5   1 -15    8.10    5.19
   5   2 -12   12.16    5.13
   5   3 -11    9.27    5.10
   5   4 -11   -2.47    5.68
  -1   5   4   69.04    4.94
   0   6   2    4.40    4.46
   1   3   1  448.87   10.64
   1   4   1  297.48   10.09
   2   3  -1  126.43    6.89
   2   6  -2    6.56    4.38
   3  -1 -10   -0.78    2.08
   3   0  -7   42.28    4.04
   3   2  -4   35.48    4.62
   4   0 -11    8.83    3.70
   4   2  -7   98.77    7.63
   4   4  -6   15.70    5.33
   5   1 -14   10.98    4.33
   5   2 -11    2.01    5.38
   5   3 -10   10.23    6.11
   5   4 -10   23.16    6.97
  -3   6   6    8.58    2.55
   1   5   1  212.25   10.01
   2   5  -1   42.96    5.93
   3   1  -5  140.31    6.84
   3   3  -3  119.13    8.04
   3   4  -3   57.95    6.66
   3   5  -3   29.58    6.58
   3   6  -4    0.76    4.55
   4  -1 -17    2.35    3.51
   4  -1 -16   36.48    5.29
   4   1  -8    7.20    4.03
   4   3  -6   77.24    7.61
   4   5  -6    6.63    5.50
   5   1 -13   38.65    5.84
   5   4  -9   -6.35    5.95
   5   5 -10    3.89    6.09
  -2   6   5   18.00    3.52
   2   0  -4  188.61    5.38
   3  -2 -17    6.38    2.75
   4  -1 -15   17.26    4.18
   5   0 -17   19.00    5.24
   5   1 -12   12.84    5.16
   5   2 -10    0.02    4.73
   5   3  -9   16.45    5.83
   5   5  -9   17.37    6.87
   6   3 -14    9.49    6.72
   1   6   1   12.25    4.61
   2   6  -1    1.69    3.87
   3  -2 -16    4.31    2.63
   3   6  -3    3.41    5.11
   4   0 -10   54.91    4.90
   4   2  -6  139.91    8.47
   4   3  -5    5.70    5.14
   4   4  -5    6.48    4.66
   4   5  -5   24.05    6.25
   5   0 -16    4.68    4.00
   5   4  -8   25.11    6.62
   5   5  -8   13.19    7.26
   6   2 -15    2.52    5.80
   6   3 -13    8.41    6.74
  -1   6   4   24.76    4.28
   2   2  -1  418.58   10.25
   2   4   0   42.68    5.45
   2   5   0   29.07    5.59
   3   2  -3  171.03    8.16
   3   4  -2   72.65    6.90
   4  -1 -14    3.92    3.33
   4   1  -7   69.19    6.07
   5   0 -15    3.62    4.28
   5   1 -11   19.69    4.75
   5   2  -9    7.92    4.67
   5   3  -8   32.74    6.20
   6   2 -14   -0.81    5.18
   6   3 -12   14.27    6.63
   6   4 -12    0.65    5.61
   2   1  -2  827.97   12.37
   3   0  -6  644.57   11.87
   3   3  -2   95.65    7.06
   3   5  -2   20.97    5.09
   4   4  -4   32.00    6.74
   4   5  -4   18.43    6.36
   4   6  -5   -1.32    4.98
   5   0 -14   91.54    7.56
   5   4  -7   14.10    5.75
   5   5  -7   10.35    5.68
   6   2 -13   11.47    6.03
   6   4 -11    5.20    5.68
   1   2   1  134.79    4.93
   2   3   0   77.11    5.30
   3   1  -4  229.25    8.04
   4   0  -9   45.54    4.38
   4   2  -5    5.69    3.66
   5   1 -10    3.16    3.74
   5   2  -8   53.33    6.57
   5   3  -7   49.52    7.06
   6   1 -16    2.79    4.51
   6   3 -11    5.14    5.33
   6   4 -10   15.21    6.61
  -3  -3   9   65.28    3.04
  -3  -3  15   16.10    4.78
  -2  -1  17   12.97    5.95
  -1   0   4  929.43   12.19
   2   3   7  253.54   13.42
   2   3   8   96.90    9.39
   2   3  12    7.80    6.38
   2   3  13   12.60    7.59
   2   3  14   15.44    9.02
   4   4   8    1.73    6.03
   4   4   9   -0.02    6.16
   4   4  10   11.08    6.18
   4   4  11    7.89    7.53
   5   4   3   24.09    5.94
   8   4  -3    7.78    3.28
  -3  -3  16    0.32    3.77
  -2  -1   6  216.46    6.06
  -2  -1  18    4.79    5.70
  -1   1  11  164.60   11.13
  -1   1  12   16.93    6.88
  -1   1  13   65.34    9.28
   1   2   4  250.99    9.70
   2   3   6   58.02    7.55
   2   3  15    4.47    7.08
   3   3   2   17.57    3.93
   4   4   6   63.42    8.64
   4   4   7    0.53    4.26
   6   4   0   12.65    4.33
  -1   1   9    7.54    4.91
  -1   1  10   23.39    5.41
  -1   1  14   96.07   10.19
  -1   1  15   22.74    7.76
   0   1   3  509.18   10.35
   0   2  10   46.32    8.34
   0   2  11  340.28   16.49
   0   2  12   90.68   10.55
   0   2  13   16.41    6.70
   0   2  14   16.71    7.77
   4   3  -1  187.35    6.74
   5   4   2    2.84    4.22
   7   4  -2    6.25    3.34
  -3  -2  11   57.37    4.94
  -3  -2  12  125.89    7.29
  -3  -2  13   16.14    4.25
  -3  -2  14    2.39    3.89
  -3  -2  15    3.21    4.93
  -2   0  11  110.52    8.39
  -2   0  12    7.53    4.29
  -2   0  13    2.30    4.30
  -2   0  14   -0.25    4.24
  -2   0  15    5.79    5.80
  -1   1   8  249.74   11.01
  -1   1  16    9.20    6.24
  -1   1  17   -0.12    6.47
   0   2   9  194.16   11.51
   0   2  15    2.04    6.67
   0   2  16   13.74    8.37
   2   3   5   25.98    5.25
   4   4   5   25.08    5.72
   5   3  -3   24.71    2.43
  -3  -2  16   -0.62    3.97
  -2   0  10   31.31    4.86
  -2   0  16   -0.57    4.68
  -2   0  17    1.44    5.64
  -1   1  18   10.37    7.57
   0   2   8  132.02    9.30
   0   2  17    7.55    6.99
   1   2   3  210.63    8.28
   1   3  11   38.41    8.74
   1   3  12   28.28    8.50
   1   3  13   50.78   10.05
   1   3  14    0.62    7.74
   3   4   9   29.92    8.00
   3   4  10   15.54    7.09
   3   4  11   -2.54    5.27
   3   4  12    4.25    6.46
   4   4   4   36.99    6.54
  -3  -2  10   27.77    3.36
  -3  -2  17    5.82    5.14
  -2   0   9  240.14    9.86
  -2   0  18    4.52    6.33
  -1   1   7  153.31    8.36
   0   2   7   59.55    6.50
   1   3   9  137.05   11.75
   1   3  10   70.90    8.92
   1   3  15   23.44    8.33
   2   3   4   68.67    6.30
   3   4   7   59.04    8.87
   3   4   8   -2.68    4.78
   6   4  -1   29.68    4.53
   1   3   8  140.67   10.68
   4   4   3   28.04    5.62
  -3  -2   9    5.74    2.21
  -3  -1  13   70.28    7.02
  -3  -1  14   35.22    6.39
  -3  -1  15    1.46    4.96
  -3  -1  16    8.71    5.38
  -2   0   8   75.31    5.65
  -1   1   6   44.01    5.43
   0   2   6  340.29   12.48
   1   3   7  163.18   11.16
   2   4  12    0.51    7.32
   2   4  13   15.11    8.28
   3   4   6  217.39   12.63
   5   5   7    5.69    6.16
   6   5   4   20.25    5.85
  -3  -1  12   24.65    4.84
  -3  -1  17   -3.50    4.50
  -2  -1   5   76.83    3.24
  -1   0   3  284.20    5.98
  -1   2  12   42.33    9.17
  -1   2  14   25.31    7.28
  -1   2  15    0.25    5.76
  -1   2  16    9.42    7.60
   1   2   2   27.29    3.96
   2   3   3  118.34    7.30
   2   4  10    6.32    5.97
   2   4  11    9.08    6.44
   3   4   5   37.86    7.04
   5   5   6    1.95    5.45
  -3  -1  11   21.02    4.22
  -2   0   7  244.71    8.87
  -2   1  12   54.93    8.16
  -2   1  13    1.04    4.96
  -2   1  14   58.18    8.32
  -2   1  15   16.64    6.28
  -2   1  16    4.90    5.77
  -2   1  17    5.31    6.72
  -2   1  18    1.48    6.78
  -1   2  11   79.48    9.16
  -1   2  17    0.14    6.20
   0   1   2 1940.45   17.69
   0   2   5 1030.27   20.17
   0   3  12   21.38    8.03
   0   3  13   24.00    7.51
   0   3  14    8.73    6.89
   0   3  15   24.69    8.39
   0   3  16   -4.77    7.41
   1   3   6  101.65    8.30
   2   4   9   10.47    5.94
   4   4   2    7.76    4.05
   6   5   3    8.72    4.67
   7   4  -3    8.05    2.80
   8   4  -4    4.74    2.09
  -2   1  11   61.26    7.34
  -1   2  10  392.03   16.37
   0   3  11   13.89    6.32
   2   4   8   75.95    9.13
   3   4   4   16.98    5.48
   4   5   8    2.78    6.03
   5   5   5    4.49    5.30
  -3  -1  10    0.88    2.88
  -3   0  14   12.12    5.74
  -3   0  15   26.75    6.55
  -3   0  16    2.61    5.48
  -3   0  17   -4.91    5.09
  -2   1  10  206.41   11.09
  -1   1   5   14.39    3.60
  -1   2   9    7.87    5.04
   0   3  10   57.77    8.77
   1   3   5    8.62    4.12
   1   4  13    3.92    7.95
   1   4  14    2.22    7.91
   2   3   2   25.56    4.27
   2   4   7   -0.06    4.82
   4   3  -2  143.31    5.05
   4   5   7    3.75    5.91
   5   5   4    4.61    4.83
   6   4  -2    8.03    3.10
  -3  -2   8    3.67    1.74
  -3   0  13   12.13    5.59
  -3   0  18   -0.28    5.09
  -1   2   8   23.63    6.05
   0   3   9  259.47   14.41
   1   4  11    9.10    7.52
   1   4  12   -1.02    6.09
   2   4   6   68.30    8.64
   3   5  10   -4.79    6.35
   4   5   6    6.76    5.82
  -3  -1   9   82.68    5.48
  -3   0  12   31.17    6.03
  -2   0   6  227.47    7.90
  -2   1   9  141.14    8.92
   0   2   4  966.87   18.28
   0   3   8  230.08   13.01
   1   4  10   14.93    6.64
   3   4   3    6.32    4.43
   3   5   9    6.28    6.73
  -3   0  11    2.47    4.26
  -2   2  14   12.50    6.41
  -2   2  15   -2.37    6.10
  -2   2  16    0.70    6.27
  -1   2   7   54.76    6.86
  -1   3  14   24.35    8.00
  -1   3  15    6.38    7.11
  -1   3  16    5.28    7.04
   1   3   4   83.37    6.80
   1   4   9    7.28    5.39
   2   4   5   22.75    6.23
   3   5   8   -0.75    5.77
   4   5   5   32.77    6.99
   5   4  -1   79.49    5.61
   5   5   3   14.52    5.30
  -4  -2  16    4.48    4.73
  -3   1  16    7.60    6.61
  -3   1  17    2.53    6.31
  -2   1   8   27.61    4.76
  -2   2  12  110.30   11.17
  -2   2  13   34.65    7.29
  -1   3  12   12.83    6.65
   0   3   7   -3.48    4.23
   0   4  14    2.21    7.75
   1   2   1  138.06    5.74
   1   4   8   80.90    9.39
   3   5   7    4.43    5.83
  -4  -3  15   17.17    4.15
  -4  -2  14   11.29    4.29
  -4  -2  15    2.06    4.20
  -3   0  10   39.58    5.52
  -3   1  14   42.98    8.29
  -3   1  15    0.60    5.11
  -2   2  11    1.63    6.47
  -1   1   4  226.14    8.02
   0   4  12   43.13    9.81
   0   4  13   -6.44    6.30
   2   3   1  295.18    9.70
   2   5  10   -3.83    6.74
   3   4   2   16.80    4.55
   4   5   4   -0.43    4.97
  -4  -3  14    6.70    3.57
  -4  -1  15   13.52    5.41
  -4  -1  16   29.20    6.13
  -4  -1  17    2.50    5.02
  -3  -1   8   94.72    5.27
  -3   1  13   56.06    7.75
  -1   2   6  292.01   11.76
  -1   3  10  231.76   14.26
   0   2   3   -1.09    3.71
   0   3   6   34.19    5.87
   0   4  11    7.23    6.50
   1   3   3  153.08    8.50
   1   4   7   51.03    7.79
   2   4   4    4.89    4.08
   2   5   9    1.45    6.29
   3   5   6    6.67    5.94
  -4  -2  13   18.02    4.29
  -4  -1  14    0.19    4.47
  -3   0   9    0.49    3.42
  -3   1  12   27.82    6.19
  -2   1   7  105.12    7.10
  -2   2  10   16.71    5.74
  -1   3   9   85.81   10.18
   0   4  10   12.94    6.48
   2   5   8   14.21    6.98
   3   3  -1    9.04    2.44
  -4  -3  13    4.52    2.84
  -4  -1  13   55.03    6.60
  -4   0  16    1.14    5.36
  -4   0  17   -3.50    5.15
  -3   1  11   20.28    6.29
  -3   2  17    9.67    7.82
  -2   0   5   42.23    3.89
  -2   2   9    5.50    5.65
  -2   3  15    2.01    6.85
  -2   3  16    5.95    6.99
   0   4   9   18.81    7.46
   1   4   6   26.41    6.15
   3   5   5   -2.47    4.91
   4   5   3   24.13    6.09
   6   5   0   18.34    5.06
   7   5  -1   -2.01    3.04
  -4  -2  12    8.77    3.61
  -4   0  15   62.66    8.12
  -3   2  15    6.37    6.12
  -3   2  16    3.06    5.83
  -2   3  13   15.87    8.02
  -2   3  14   15.55    7.36
  -1   3   8   54.34    7.61
  -1   4  14    9.85    7.35
   0   1   1 4457.51   23.82
   0   3   5  113.17    8.30
   1   5  11    2.39    6.49
   2   4   3   22.87    5.35
   2   5   7   -1.73    4.78
  -4  -1  12   61.48    6.31
  -4   0  14   10.24    5.60
  -3   1  10    2.36    4.05
  -3   2  13   16.02    7.45
  -3   2  14    1.21    5.51
  -2   1   6  213.51    9.47
  -2   3  12   28.51    7.46
  -1   2   5   85.86    6.90
  -1   4  12   47.28   10.16
  -1   4  13   12.05    7.72
   0   4   8   12.82    6.37
   1   4   5    7.26    5.57
   1   5  10    5.57    6.21
   3   5   4   43.67    7.11
   6   4  -3   16.02    2.72
  -4   0  13   35.05    6.59
  -4   1  16   35.71    8.17
  -4   1  17   -2.28    5.86
  -3   0   8  283.00   10.19
  -2   2   8   64.43    7.14
  -2   3  11   20.43    8.07
  -1   3   7    2.35    5.72
  -1   4  11   16.58    8.10
   1   3   2   27.86    4.61
   1   5   9   26.37    7.39
   2   5   6    4.41    4.94
   4   5   2   44.28    6.56
   5   4  -2   79.94    4.88
  -4  -3  12   16.34    2.76
  -4   1  15   15.47    6.95
  -3  -2   7   13.44    1.58
  -3  -1   7    2.77    2.30
  -3   1   9   83.08    7.73
  -3   2  12  134.01   11.23
  -1   1   3 2081.01   21.32
   0   3   4  126.38    8.62
   0   4   7   13.49    6.01
   0   5  12   -1.70    6.52
   1   5   8    4.53    6.77
  -4  -2  11    8.64    3.07
  -4  -1  11   47.47    5.06
  -4   0  12   86.47    7.57
  -4   1  14   -0.53    4.88
  -3   2  11   66.93    8.59
  -3   3  16    1.05    6.67
  -2  -1   4 1388.28    9.80
  -2   2   7   62.32    7.31
  -2   3  10   25.32    7.60
  -1   4  10   10.99    6.48
   0   2   2 1693.08   21.24
   0   5  11    9.90    7.57
   1   4   4   16.04    5.64
   2   4   2   45.40    5.91
   2   5   5    7.28    5.88
   3   2  -3  148.21    1.93
   4   4  -1   68.23    5.07
  -4   1  13   55.05    8.38
  -3   3  14   -0.36    7.51
  -3   3  15   20.29    8.20
  -2   3   9   15.67    7.20
  -2   4  14   22.86    8.41
  -1   0   2 4033.61   18.38
  -1   2   4  512.22   14.19
  -1   3   6  135.44    9.58
  -1   4   9   13.03    6.62
   0   4   6    9.54    6.40
   0   5  10    1.62    6.33
   1   5   7    4.49    5.35
   5   5   0   16.04    5.05
   6   5  -1    0.60    3.50
  -5  -1  17    3.73    5.24
  -4   0  11    6.80    4.51
  -4   2  16   -0.02    5.71
  -3   1   8  101.48    7.90
  -3   2  10   35.39    6.76
  -3   3  13   11.84    7.78
  -2   1   5   77.84    6.21
  -2   4  13   23.20    8.69
   0   5   9    3.63    7.10
   7   5  -2   11.61    3.47
  -5  -1  16   29.85    5.93
  -5   0  17   15.57    6.38
  -4  -1  10    0.86    3.12
  -4   1  12   65.14    7.93
  -4   2  14   19.48    7.73
  -4   2  15    1.18    5.67
  -3   0   7   39.26    4.18
  -3   3  12   13.55    7.48
  -2   4  12    0.64    6.47
  -1   4   8   15.20    6.23
  -1   5  12    8.87    8.31
   1   5   6   10.98    6.36
   2   5   4   10.70    5.66
   4   3  -3    6.87    1.54
  -5  -2  16    9.07    4.49
  -5  -1  15   -1.90    5.20
  -5   0  16    5.74    5.48
  -3   2   9   12.59    5.16
  -2   2   6  221.72   10.71
  -2   3   8   17.83    5.99
  -2   4  11    2.27    6.21
   0   3   3  200.53    9.61
   0   4   5   13.44    5.34
   0   5   8    5.58    6.89
   1   4   3   33.94    5.48
   3   5   2    9.93    5.12
   3   6   5    2.82    5.64
  -5   0  15    2.42    5.49
  -5   1  17   -2.67    6.16
  -4  -2  10   36.52    3.45
  -4   0  10   63.43    6.43
  -4   1  11   50.97    6.97
  -4   2  13   22.31    6.80
  -3   3  11   30.25    7.65
  -2   0   4  184.44    6.08
  -2   4  10   28.54    8.45
  -1   3   5   35.73    5.78
  -1   4   7   70.30   10.08
  -1   5  11    6.80    7.20
   1   3   1  421.58   11.69
   2   4   1  191.98    9.37
  -5  -2  15    2.70    4.26
  -5  -1  14   17.28    5.57
  -5   1  16   22.21    6.65
  -4   2  12   15.92    7.36
  -4   3  15   17.00    8.94
  -3   1   7    0.83    3.95
  -3   4  14   21.06    8.53
  -2   3   7   18.13    6.54
  -1   5  10    6.22    6.98
   0   5   7   13.27    6.96
   1   5   5    0.98    4.41
   2   5   3   19.07    5.84
   2   6   6   15.17    6.97
   3   3  -2   82.39    3.95
   4   6   3    0.47    4.95
  -5   0  14   87.26    8.33
  -5   1  15    7.24    5.61
  -4  -3  11   32.79    2.32
  -4   1  10    5.98    5.20
  -4   3  14    6.95    7.63
  -3   2   8    7.04    4.69
  -3   3  10   10.96    6.53
  -3   4  13   33.99    9.22
  -2   4   9    6.82    6.05
  -1   5   9   13.12    7.91
   3   6   4    7.46    5.52
   5   5  -1    2.19    4.03
  -5  -2  14   36.02    5.21
  -5  -1  13   33.89    5.84
  -5   0  13   -0.39    4.88
  -5   1  14   15.96    6.62
  -5   2  16   12.16    8.26
  -4  -1   9    7.19    3.00
  -4   0   9   50.88    5.60
  -4   2  11    7.53    5.81
  -4   3  13    3.18    7.44
  -3   4  12   -3.03    6.20
  -2   2   5  216.09   10.18
  -2   5  12   -0.34    6.78
  -1   4   6   59.51    8.13
   1   4   2  162.54    9.55
  -5   2  15    3.70    6.79
  -3  -1   6  115.82    4.60
  -3   0   6  654.28   13.36
  -3   3   9   74.78    9.54
  -2   1   4 1449.12   20.32
  -2   4   8   12.18    7.57
  -2   5  11    5.61    7.90
  -1   1   2 2671.00   22.53
  -1   3   4  165.72    9.60
  -1   5   8   10.09    7.31
   0   2   1   65.19    4.64
   0   3   2   83.68    6.66
   0   5   6    0.59    5.01
   1   5   4   31.21    6.32
   1   6   7   17.08    7.07
   2   6   5    1.77    5.10
   4   6   2    3.50    5.05
   6   5  -2    9.70    3.47
  -5   1  13   39.81    6.87
  -5   2  14   31.00    8.58
  -4   1   9    6.32    4.96
  -4   2  10   39.16    7.14
  -4   3  12    9.65    6.11
  -3   2   7   18.70    5.15
  -3   4  11   -3.30    5.74
   2   5   2   79.27    8.03
   3   4  -1  308.15    9.80
   3   6   3    6.03    5.00
   4   4  -2   22.06    3.23
  -5  -1  12   16.54    4.66
  -5   0  12   37.20    6.34
  -3   1   6  112.63    7.28
  -3   3   8    6.24    5.49
  -3   4  10   -5.80    6.53
  -2   5  10   10.38    7.19
  -1   4   5   87.50    8.82
   0   4   3  100.84    8.76
   0   5   5   20.97    6.84
   0   6   8    8.97    6.86
   1   6   6    5.68    5.87
   2   2  -2  448.81    6.13
   5   4  -3  113.95    4.55
  -5  -3  15   13.53    3.15
  -5  -2  13   10.07    3.67
  -5   1  12   14.27    5.39
  -5   2  13   19.21    6.69
  -4   3  11   38.92    8.05
  -4   4  13   -0.17    7.67
  -2   4   7  153.12   12.05
  -1   5   7   14.91    6.48
   1   5   3   12.96    5.88
   2   6   4    6.45    4.36
  -6   0  16   19.73    6.20
  -6   1  16    4.69    6.36
  -5   3  14   14.02    8.46
  -4   0   8    8.52    3.61
  -4   2   9   17.78    5.82
  -3   4   9   23.97    8.07
  -2   2   4  246.15   10.52
  -2   3   5   60.79    7.08
  -2   5   9    9.44    6.70
  -1   3   3  451.96   14.73
   0   6   7   13.19    6.43
   1   3   0   94.00    5.79
   1   6   5   -2.47    5.37
  -6  -1  16    2.72    4.70
  -6   0  15   22.89    6.09
  -5   0  11   30.63    5.13
  -5   1  11   33.92    7.03
  -5   2  12   13.80    6.06
  -4  -2   9   18.04    2.32
  -4   1   8    6.66    4.00
  -4   3  10    5.89    5.59
  -4   4  12    0.85    6.77
  -3   2   6  274.20   12.28
  -3   3   7   20.92    6.24
  -3   5  11   -3.53    7.41
  -1   2   2   51.23    5.36
  -1   5   6   50.68    8.24
   0   5   4  153.50   11.99
   1   4   1  295.92   11.73
   3   6   2    8.35    4.78
   4   5  -1   39.10    5.17
   7   5  -3    2.03    2.09
  -6   1  15    5.83    5.46
  -5  -1  11   24.36    4.61
  -5   3  13    1.29    6.11
  -4  -1   8    9.06    2.74
  -4   4  11    8.29    7.97
  -3   4   8   11.97    7.47
  -2   4   6   26.21    6.81
  -2   5   8    8.07    6.48
  -1   4   4   31.88    6.21
  -1   6   8   -0.65    7.61
   0   6   6   18.73    7.45
   2   5   1  146.02    9.49
   2   6   3    1.17    4.97
  -6  -1  15   -2.44    4.39
  -6   0  14   31.14    6.76
  -6   1  14    2.87    5.65
  -6   2  15    0.42    6.39
  -5  -2  12   12.64    3.59
  -5   2  11    1.09    4.71
  -5   3  12   20.72    8.38
  -4   2   8   64.78    7.68
  -4   3   9   -3.44    5.23
  -3   5  10   22.14    8.25
   0   3   1   84.88    6.07
   0   4   2   90.56    8.01
   1   5   2   62.74    7.84
   1   6   4   24.68    7.03
   5   5  -2   14.23    3.73
  -6   2  14    5.13    6.50
  -5   0  10   10.73    4.42
  -5   1  10    4.07    4.48
  -4   4  10   -0.18    6.05
  -3   0   5    7.92    3.04
  -3   1   5  139.20    7.67
  -3   3   6   70.83    8.76
  -2   1   3 4104.52   32.32
  -2   3   4   61.88    7.41
  -2   5   7    3.56    6.00
  -1   5   5   21.59    6.30
  -1   6   7   16.06    8.07
  -6  -1  14    2.45    4.65
  -6   1  13    8.62    5.63
  -5  -3  14    4.17    2.21
  -5   2  10   -1.45    6.01
  -5   3  11   12.24    6.56
  -5   4  13   -1.73    6.50
  -4   1   7   74.50    6.60
  -4   3   8    0.96    6.47
  -3   2   5  892.61   20.78
  -3   4   7    5.41    5.34
  -3   5   9    1.26    6.39
  -2   0   3  118.31    4.65
  -2   4   5   42.95    7.29
   0   5   3  175.02   11.95
   0   6   5    2.38    5.10
   3   6   1   -1.12    4.50
  -6   0  13   -2.99    4.79
  -6   2  13    5.09    6.51
  -6   3  14   12.88    8.17
  -5   4  12    5.40    7.98
  -4   0   7   24.75    3.75
  -4   2   7  105.09    8.80
  -4   4   9   24.96    7.56
  -4   5  11    6.66    7.12
  -2   2   3  102.45    7.06
  -1   3   2  268.61   10.92
  -1   4   3   84.72    8.02
   2   6   2   -0.59    4.41
  -6   1  12   -2.16    5.06
  -5  -1  10    8.07    3.41
  -5   1   9   47.23    6.97
  -5   3  10    3.34    6.78
  -3   5   8   -5.82    6.24
  -2   5   6   23.95    7.04
  -1   5   4   54.01    8.80
  -1   6   6   10.43    6.68
   0   2   0  453.35    9.91
   1   4   0   70.96    6.17
   1   6   3   10.14    4.60
  -6  -2  15    1.38    3.57
  -6  -1  13    4.35    4.31
  -6   0  12    0.07    4.81
  -6   2  12    8.52    5.76
  -6   3  13    1.01    6.40
  -5   0   9   40.29    5.40
  -5   2   9   11.27    5.61
  -5   4  11   -2.10    5.98
  -4   3   7    1.30    6.33
  -4   5  10    1.84    6.74
  -3   3   5    0.04    4.38
  -3   4   6   32.25    7.26
  -2   4   4   30.61    7.12
   0   6   4   -1.10    4.45
   1   5   1  191.06   11.00
   3   4  -2   76.04    4.77
  -7   1  15   12.12    6.38
  -4   4   8   53.78    8.84
  -3   5   7   38.84    8.29
  -2   3   3  138.50    8.92
  -2   5   5   79.51   10.02
  -2   6   7   16.06    7.57
  -1   6   5   32.87    8.07
   0   4   1   45.95    5.66
   0   5   2   70.77    8.42
  -6   1  11   30.19    6.85
  -6   2  11   23.50    6.94
  -6   3  12    5.91    6.14
  -5  -2  11    0.85    2.52
  -5   3   9   14.44    6.46
  -5   4  10   33.99    8.94
  -4   1   6  156.12    8.59
  -4   2   6  132.57    9.33
  -4   5   9   11.16    7.39
  -3   1   4  234.25    9.38
  -1   1   1 2566.81   20.64
  -1   2   1   77.21    5.35
  -1   4   2   18.86    5.69
   1   6   2   29.81    6.58
   2   3  -2   26.60    2.84
   2   6   1    9.65    5.02
   4   5  -2    7.19    3.57
  -7   0  15    8.97    5.00
  -7   1  14    5.26    5.65
  -7   2  14    6.55    6.97
  -6   3  11    8.26    7.29
  -5   1   8   42.97    5.95
  -5   2   8   59.00    7.67
  -4  -1   7   71.43    4.23
  -4   4   7   17.76    6.68
  -3  -1   5  136.25    4.24
  -3   2   4   37.33    5.39
  -3   4   5    5.68    7.12
  -2   6   6    2.18    7.23
  -1   5   3   40.68    6.96
   0   3   0    2.71    2.68
   0   6   3   11.98    6.11
  -6  -2  14    5.12    3.43
  -6  -1  12    0.37    3.97
  -6   0  11   14.34    4.97
  -6   4  12   -0.31    6.41
  -5   3   8   42.45    8.73
  -5   4   9    5.36    6.45
  -4   0   6  536.25   12.68
  -4   3   6   66.68    8.23
  -4   5   8    4.61    6.66
  -3   3   4   44.22    7.10
  -3   5   6    2.61    5.81
  -1   6   4   20.50    7.18
   4   4  -3    1.57    1.84
  -7   0  14    9.89    4.84
  -7   1  13    8.10    5.71
  -7   2  13   -2.45    5.85
  -6   1  10   13.16    5.96
  -6   2  10    6.59    5.14
  -6   4  11   -2.68    7.30
  -5  -1   9   41.28    4.27
  -5   0   8   55.87    5.64
  -5   5  10    1.58    6.81
  -3   6   7    6.27    7.52
  -2   2   2  485.52   13.15
  -2   4   3   10.77    5.07
  -2   5   4   35.31    7.12
  -1   3   1   37.53    4.80
   4   6  -1    6.82    3.96
  -7  -1  15    8.90    4.70
  -7   3  13   -3.18    5.67
  -6   3  10    0.31    5.51
  -5   2   7  112.00    9.83
  -5   4   8   26.28    8.43
  -4   4   6   13.41    5.94
  -4   5   7   34.71    9.21
  -3   0   4  154.69    6.11
  -2   1   2  832.53   13.97
  -2   6   5   11.48    6.20
   0   5   1   30.13    6.35
   1   5   0   -1.44    4.08
  -7   2  12    0.76    5.94
  -6   0  10   87.07    7.42
  -6   4  10   11.12    8.49
  -5   1   7    5.39    4.67
  -5   3   7   42.79    8.50
  -5   5   9   17.57    7.82
  -4   1   5  408.94   12.95
  -4   2   5    8.77    4.46
  -4   3   5    8.02    6.14
  -3   4   4   73.74    8.52
  -3   5   5   28.05    7.29
  -2   3   2   26.33    4.89
  -1   5   2   48.32    6.98
   0   4   0    2.57    3.87
   0   6   2    5.05    5.44
   1   4  -1    4.35    3.29
   1   6   1   10.80    5.29
   2   6   0   15.76    5.00
  -7   1  12    1.75    4.26
  -7   3  12    6.06    6.54
  -6   3   9   13.49    6.28
  -3   6   6    9.66    6.90
  -1   4   1    8.50    4.16
  -1   6   3   32.02    6.74
  -4   4  -4   30.30    6.19
  -1   2  -3  208.26    8.04
   0   1  -3  508.17    9.23
   0   2 -13   18.60    6.23
   0   2 -12   75.71    8.13
   0   2 -11  342.54   13.73
   0   2 -10   48.74    6.88
   1   0  -4  926.83    8.65
   1   1 -14   87.46    7.63
   1   1 -13   64.75    6.68
   1   1 -12   28.48    5.13
   1   1 -11  161.30    8.44
   1   1 -10   29.06    4.50
   2  -1 -17    5.36    3.60
  -8   3   8    4.02    2.48
  -6   4   2   10.17    4.43
  -5   4   0    8.36    4.79
  -4   3   2  157.53    7.28
  -4   4  -3   24.15    5.33
  -3   4 -12    1.83    5.69
  -3   4 -11    1.47    5.76
  -3   4 -10   27.47    7.02
  -3   4  -9   32.89    7.03
  -3   4  -8   -3.16    4.65
  -2   3  -4   73.26    6.51
   0   2 -15   -1.78    4.92
   0   2 -14   10.84    4.85
   0   2  -9  186.94    9.69
   0   2  -8  128.06    8.27
   1   1 -15   17.33    5.08
   1   1  -9    6.77    3.37
   2  -1 -18   -0.29    3.16
  -7   3   7   37.53    3.58
  -6   5  -4   17.31    6.36
  -3   3   0   60.07    5.42
  -3   4  -7   63.59    8.17
  -3   4  -6  230.52   13.29
  -1   3 -14    0.19    6.00
  -1   3 -13   38.40    7.26
  -1   3 -12   23.08    6.25
  -1   3 -11   50.49    7.63
  -1   3 -10   89.52    9.17
  -1   3  -9  156.33   11.10
   0   2 -17    1.03    5.44
   0   2 -16    1.41    4.62
   1   1 -16    4.36    4.47
   1   1  -8  238.90    8.63
  -6   5  -3    6.14    4.93
  -5   5  -7    5.01    5.70
  -5   5  -6    0.79    6.16
  -4   4  -2    8.71    4.43
  -3   4  -5   29.81    7.34
  -2   2   1  431.38    9.18
  -2   3  -3  125.99    7.74
  -1   2  -2   31.64    4.24
  -1   3 -15   42.63    8.05
  -1   3  -8  141.98    9.88
   0   2  -7   60.86    5.66
   1   1 -17    0.81    3.60
   2   0 -14    5.50    3.48
   2   0 -13    2.48    2.72
   2   0 -12    5.59    3.09
  -7   5   0    6.40    5.07
  -6   3   6   12.91    2.75
  -6   4   3   20.30    4.81
  -6   5  -2    7.41    5.52
  -5   4   1   86.59    7.45
  -5   5  -5   11.28    5.51
  -2   4 -12   -1.54    6.59
  -1   3  -7  169.66   10.15
   0   2  -6  345.81   11.49
   1   1 -18    4.64    4.54
   1   1  -7  149.07    6.78
   2   0 -16   -1.75    3.69
   2   0 -15    8.05    3.68
   2   0 -11  112.55    5.64
  -5   5  -4    6.73    5.80
  -4   4  -1   20.78    4.87
  -4   5  -8   -1.14    6.35
  -3   4  -4   21.83    5.55
  -2   3  -2   30.55    4.99
  -2   4 -13    8.83    6.27
  -2   4 -11    3.21    5.64
  -2   4 -10    8.72    5.73
  -2   4  -9    5.67    5.36
  -1   3  -6   98.58    7.81
   2   0 -17    5.48    4.15
   2   0 -10   33.90    3.35
  -8   4   6    5.12    3.33
  -7   5   1   -0.85    4.26
  -6   5  -1   32.38    6.06
  -5   2   7   95.35    2.63
  -5   5  -3    7.24    5.68
  -4   5  -7    6.00    5.94
  -3   3   1    6.21    3.18
  -3   4  -3    5.37    5.21
  -2   4  -8   75.93    8.66
   0   1  -2 1922.23   16.34
   2   0 -18   -2.65    3.93
  -5   3   5  151.05    6.10
  -5   4   2   84.79    6.98
  -4   4   0   55.30    6.60
  -4   5  -6    5.89    5.75
  -2   4  -7    8.78    5.20
  -1   3  -5   10.92    4.22
   0   2  -5 1002.09   18.04
   0   3 -14    3.84    6.17
   0   3 -13   12.70    6.39
   1   1  -6   48.33    3.97
   1   2 -14   20.91    6.00
   1   2 -13   31.58    6.30
   2   0  -9  232.61    6.82
  -6   5   0   14.78    4.98
  -5   5  -2    9.05    4.93
  -4   5  -5   28.76    6.78
  -3   4  -2   21.67    5.61
  -3   5 -10   -2.56    5.43
  -2   3  -1  298.81   10.59
  -2   4  -6   79.26    8.72
  -1   2  -1  132.12    5.89
   0   3 -16   -0.47    5.32
   0   3 -15   18.66    6.04
   0   3 -12   22.51    5.98
   0   3 -11   10.49    5.07
   0   3 -10   76.03    8.96
   1   2 -17    1.39    5.07
   1   2 -16    6.01    5.02
   1   2 -15    0.31    3.96
   1   2 -12   31.60    5.73
   1   2 -11   81.36    7.96
  -7   5   2   17.43    5.28
  -4   5  -4    1.87    4.88
  -3   5  -9   -0.14    5.49
  -3   5  -8   -0.38    5.56
  -2   4  -5   15.17    5.36
  -1   3  -4   74.97    6.46
  -1   4 -14    8.40    6.14
  -1   4 -13    8.57    6.28
  -1   4 -12    1.06    5.43
  -1   4 -11    4.88    6.48
   0   2  -4  976.60   17.18
   0   3  -9  279.98   13.27
   1   2 -10  374.59   13.39
  -6   5   1   -1.18    4.03
  -5   5  -1    4.94    4.45
  -4   4   1   75.29    6.89
  -4   5  -3   23.65    6.61
  -3   5  -7    8.94    6.27
  -1   4 -10   16.39    6.09
  -1   4  -9    8.66    6.29
   0   3  -8  227.26   11.67
   1   2  -9    1.66    3.50
   2   0  -8   75.10    3.97
   2   1 -16   18.91    5.05
   2   1 -15   12.45    4.73
   2   1 -14   49.86    5.95
   2   1 -13    1.13    3.63
   2   1 -12   52.46    5.59
  -5   4   3  116.54    7.49
  -3   2   4   38.06    2.56
  -3   3   2   85.24    5.41
  -3   4  -1   60.97    6.41
  -3   5  -6    3.42    5.68
  -2   4  -4    4.81    4.46
  -1   3  -3  159.06    8.68
  -1   4  -8   74.83    8.73
   1   1  -5   15.21    2.78
   1   2  -8   14.37    4.41
   2   1 -18   -0.58    3.75
   2   1 -17    4.16    3.95
   2   1 -11   65.38    5.76
  -8   4   7    8.12    3.12
  -7   3   8    5.03    2.09
  -7   4   6    5.85    3.65
  -7   5   3    8.27    4.33
  -5   5   0   16.47    5.41
  -4   5  -2   39.70    7.04
  -3   5  -5   -2.08    4.63
  -2   3   0   78.13    5.84
  -2   5 -10    0.59    5.51
  -1   4  -7   51.84    8.53
   0   3  -7   -1.03    4.00
  -6   5   2    4.88    4.11
  -3   5  -4   49.32    8.02
  -2   4  -3   18.09    4.95
  -2   5  -9    5.66    5.96
  -2   5  -8    9.14    6.93
   0   2  -3    4.22    3.02
   0   3  -6   26.83    5.73
   1   2  -7   55.22    5.72
   1   3 -16   -0.26    5.85
   1   3 -15    5.95    5.69
   1   3 -14   21.16    6.73
   2   1 -10  206.77    8.61
  -6   3   7   30.11    2.94
  -4   4   2   26.58    4.84
  -4   5  -1    2.37    4.90
  -3   4   0  224.74   10.45
  -2   5  -7    4.83    6.57
  -1   2   0  410.27    9.32
  -1   4  -6   27.38    6.13
   0   4 -13    2.97    5.82
   0   4 -12   44.55    7.96
   1   0  -3  280.78    4.11
   1   3 -13   73.67    8.34
   1   3 -12   19.38    5.72
   3  -1 -16    8.97    3.11
   3  -1 -15    0.68    2.62
  -5   5   1    6.84    3.67
  -3   5  -3   18.49    6.35
  -2   4  -2   38.20    6.34
  -2   5  -6    5.43    6.14
  -1   3  -2   24.19    4.17
  -1   4  -5    8.88    5.82
   0   1  -1 4440.97   22.83
   0   3  -5  120.58    8.40
   0   4 -11    7.36    5.61
   0   4 -10   17.06    5.94
   1   3 -11   72.43    7.87
   2   0  -7  225.84    5.76
   2   1  -9  129.63    6.53
   2   2 -17    4.61    4.90
   2   2 -16    7.02    4.90
   2   2 -15    0.73    4.43
   2   2 -14   11.18    5.03
   3  -1 -17    1.68    2.91
   3  -1 -14   34.70    3.39
  -6   5   3    0.95    3.61
  -1   5 -11    2.20    5.87
  -1   5 -10    3.75    7.05
   0   4  -9   30.63    6.69
   1   1  -4  214.70    6.55
   1   2  -6  290.91   10.26
   1   3 -10  211.98   11.96
   2   2 -13   37.12    5.70
   2   2 -12  113.25    8.79
   3  -1 -13   63.08    3.60
  -5   3   6   18.41    2.70
  -4   5   0   29.26    5.95
  -3   4   1  302.97   11.84
  -3   5  -2    7.60    5.44
  -2   3   1  129.56    6.77
  -2   5  -5    6.27    5.21
  -1   4  -4   22.10    6.18
  -1   5  -9   30.18    7.55
   0   4  -8   12.33    5.31
   1   3  -9   88.95    8.26
   2   1  -8   28.71    3.90
   2   2 -11    1.15    4.56
   3   0 -17   -1.85    3.79
   3   0 -16   -3.82    3.53
   3   0 -15   23.71    4.30
  -5   5   2   15.17    5.10
  -4   4   3    6.84    4.11
  -2   4  -1  211.05   10.56
  -1   5  -8    5.00    5.86
   0   2  -2 1720.07   20.85
   0   3  -4  111.35    7.60
   1   3  -8   45.93    6.42
   3   0 -18    2.33    3.13
   3   0 -14    8.47    3.05
  -4   6  -3    3.98    5.40
  -3   6  -5   -0.23    6.45
  -2   5  -4    9.99    5.32
  -1   3  -1  434.16   12.49
  -1   5  -7    4.97    6.57
   0   4  -7   15.26    6.28
   1   2  -5   87.53    6.13
   1   4 -14    1.10    5.80
   1   4 -13    5.02    6.46
   2   2 -10   22.00    4.61
   3   0 -13   11.22    3.28
  -4   5   1   34.40    6.14
  -4   6  -2   10.06    6.53
  -3   5  -1    4.81    4.39
  -1   4  -3   45.07    6.40
   0   4  -6   11.27    6.31
   0   5 -12    3.97    6.38
   0   5 -11   16.14    8.04
   1   3  -7    6.84    4.42
   1   4 -12   46.48    8.10
   1   4 -11   14.92    7.06
   2   2  -9    2.11    4.10
   2   3 -16    3.07    5.24
   2   3 -15    2.01    4.93
   2   3 -14   10.24    6.05
   3   1 -17    3.17    3.80
   3   1 -16    7.56    4.39
   3   1 -15   -0.76    3.96
  -3   6  -4   10.11    6.40
  -2   5  -3   22.52    5.97
  -1   5  -6   12.88    6.01
   0   3  -3  205.55    9.68
   2   1  -7  100.73    5.53
   2   3 -13   13.02    5.37
  -6  -5   7    0.38    2.57
  -6  -3  14    9.27    4.69
  -5  -4   9    2.44    3.41
  -5  -3  12   18.89    4.58
  -4  -1  14   -0.13    4.08
  -4   0  15   71.58    8.13
  -2  -2   6  232.96    7.25
  -2   0  10   35.10    4.99
  -2   2  11   10.31    4.49
  -2   4  10   26.21    4.71
  -1   5   4   61.30    4.39
   0   3   2   82.20    3.32
  -6  -4  11   -0.55    3.66
  -5  -2  14   30.52    5.65
  -5   1  17    2.77    5.13
  -4  -2  12   11.43    4.07
  -4   1  15   22.91    6.78
  -4   3  15   14.95    6.36
  -3  -1  11   23.13    5.26
  -3   1  13   64.75    7.48
  -3   3  13    1.89    4.21
  -3   5  11   -0.72    3.95
  -2   5   8   12.68    4.16
  -1  -1   4  219.51    5.89
  -1   3   7    4.30    3.32
  -1   4   6   61.33    5.06
   0   1   2 1925.53   12.87
  -5  -1  15    8.80    5.63
  -5   0  16   12.93    5.82
  -4  -3   9   -0.34    2.91
  -4  -1  13   60.64    7.49
  -4   2  15    7.62    5.51
  -3  -3   6   75.67    4.29
  -3  -2   9    3.42    2.79
  -3   0  12   32.41    5.63
  -3   2  13   16.94    5.15
  -3   4  12    3.31    3.85
  -2  -1   8   31.22    3.97
  -2   1  10  224.07   10.64
  -2   3  10   23.64    5.39
  -2   4   9    3.74    3.93
  -2   6   5   14.77    3.79
  -1   0   6  283.35    8.49
  -1   1   7  143.22    7.03
  -1   2   7   58.36    5.24
  -6  -3  13    4.04    4.20
  -6  -2  15    4.59    4.92
  -4  -4   5    8.38    2.27
  -4   0  14    2.97    4.53
  -2   0   9  234.73    9.73
  -2   2  10   24.37    4.82
  -1   5   3   39.61    3.48
  -6  -5   6    9.93    2.98
  -6  -1  16    4.73    4.92
  -5  -4   8   14.57    3.36
  -5  -3  11   13.57    4.61
  -5  -2  13   12.48    4.48
  -5   1  16   25.22    6.59
  -5   2  16   13.52    5.68
  -4  -2  11    6.30    3.69
  -4   1  14   -3.00    5.18
  -4   3  14    4.89    4.60
  -3   1  12   27.56    6.02
  -3   3  12    8.86    4.38
  -3   4  11    0.66    4.26
  -3   5  10   12.52    4.10
  -2  -2   5  223.06    6.60
  -2   5   7    8.15    3.74
  -1   3   6  154.26    7.20
  -1   4   5   82.20    5.24
   0   2   2 1722.16   13.23
  -6  -4  10   16.92    4.26
  -5  -1  14   14.04    5.82
  -5   0  15    7.57    5.27
  -4   2  14   12.45    5.27
  -4   4  13    3.92    4.25
  -3  -1  10    0.10    3.16
  -3   0  11    6.92    4.78
  -3   2  12  126.39    9.20
  -2   3   9    9.97    4.53
  -2   4   8   16.15    4.42
  -2   6   4    0.01    2.98
  -1   1   6   45.31    4.61
   0   3   1   78.42    2.74
  -6  -2  14   -0.15    4.46
  -5   1  15    8.51    6.29
  -5   3  15   12.47    5.72
  -4  -3   8   -0.55    2.64
  -4  -1  12   65.45    6.94
  -4   0  13   32.88    6.24
  -3  -2   8    4.23    2.61
  -3   5   9   -1.50    3.48
  -3   6   7    1.38    3.63
  -2  -1   7   96.07    5.66
  -2   1   9  135.50    7.90
  -2   2   9   -0.36    3.90
  -1   0   5  521.21   10.39
  -1   2   6  305.33    9.58
  -6  -3  12    3.14    4.08
  -6  -1  15    4.54    4.53
  -6   0  16   19.19    6.15
  -5  -3  10    6.52    4.08
  -5  -2  12    6.79    4.81
  -5   2  15    0.23    5.11
  -4  -2  10   39.65    5.51
  -4   1  13   54.42    7.78
  -4   3  13    0.32    4.65
  -4   5  11    3.81    4.58
  -3  -3   5    4.73    2.00
  -3   1  11   19.03    5.66
  -3   3  11   24.49    5.36
  -3   4  10    1.85    3.99
  -2   0   8   85.31    6.01
  -2   5   6   20.35    4.14
  -1   5   2   58.11    3.70
  -6  -4   9    3.39    3.73
  -6   1  16   -0.21    5.05
  -5  -4   7   14.07    3.51
  -5  -1  13   40.90    6.91
  -5   0  14  100.17    9.24
  -4   2  13   23.98    5.77
  -4   4  12   -1.35    4.00
  -3   2  11   65.23    7.33
  -2   6   3   13.27    3.31
  -1  -1   3 2057.94   14.63
  -1   3   5   34.72    3.86
  -1   4   4   34.41    3.52
  -7  -3  13    4.07    3.85
  -6  -2  13   14.13    5.24
  -5   3  14    2.86    5.04
  -4  -1  11   54.13    6.20
  -4   0  12   84.82    7.90
  -3  -1   9   77.61    6.10
  -3   0  10   35.11    5.19
  -3   6   6   10.10    4.18
  -2   3   8   18.66    4.03
  -2   4   7  152.26    8.28
  -6  -5   5   -0.80    2.38
  -6  -3  11    2.60    4.04
  -6  -1  14    3.33    5.38
  -6   0  15   32.02    6.63
  -5   1  14   19.10    5.86
  -5   2  14   41.26    7.36
  -5   4  13    0.42    4.48
  -4  -4   4   28.78    2.53
  -4   3  12   18.59    5.28
  -4   5  10   11.28    4.89
  -3  -2   7   14.01    3.29
  -3   3  10   11.08    4.43
  -3   5   8    4.73    4.17
  -2  -1   6  218.53    7.72
  -2   1   8   25.67    4.20
  -2   2   8   63.32    5.68
  -2   5   5   75.06    5.90
  -1   1   5   16.23    2.96
  -7  -4  10    9.01    4.27
  -7  -2  14    3.36    4.15
  -7  -1  15    8.67    6.00
  -6   1  15    3.16    5.32
  -6   2  15    3.32    5.25
  -5  -3   9    5.46    3.63
  -5  -2  11   -0.12    3.34
  -5   0  13   -1.19    5.16
  -4  -3   7    5.88    2.80
  -4  -2   9   19.29    4.42
  -4   1  12   59.83    7.34
  -4   2  12   10.75    4.75
  -4   4  11    2.28    3.98
  -3   1  10    2.26    3.73
  -3   2  10   34.43    5.46
  -3   4   9   13.23    4.13
  -2  -2   4  248.70    6.10
  -2   0   7  239.36    8.90
  -1   2   5   86.99    5.10
   0   1   1 4408.62   14.69
  -7  -3  12    6.28    4.38
  -5  -1  12   10.67    4.43
  -5   3  13    2.86    4.52
  -4   0  11   14.38    5.48
  -2   3   7   25.93    4.58
  -2   6   2    8.42    3.11
  -1   0   4  960.42   12.58
  -1   5   1  103.85    4.28
   0   2   1   63.13    2.35
  -7   0  15    2.90    5.77
  -6  -4   8    1.30    3.17
  -6  -2  12    4.81    3.98
  -6  -1  13    7.60    5.42
  -6   0  14   25.76    6.33
  -6   3  14    4.08    6.05
  -5  -5   2   12.81    1.66
  -5  -4   6    4.97    2.84
  -5   1  13   38.43    6.68
  -5   2  13   14.87    5.46
  -5   4  12    2.25    4.88
  -4  -1  10    0.54    3.43
  -4   3  11   42.78    6.85
  -4   5   9    9.00    4.51
  -3  -1   8   91.29    6.13
  -3   0   9    1.11    3.27
  -3   5   7   27.41    5.05
  -3   6   5   24.58    4.67
  -2   4   6   19.48    4.05
  -1   3   4  159.99    6.33
  -1   4   3   91.13    4.62
  -7  -2  13    6.51    4.93
  -7  -1  14    7.45    5.55
  -6  -3  10    5.69    4.30
  -6   1  14    4.29    5.09
  -6   2  14    8.45    6.39
  -4   1  11   51.64    6.67
  -4   2  11   11.88    5.97
  -4   4  10    3.05    4.50
  -3  -3   4   48.90    3.02
  -3   3   9   71.50    6.74
  -3   4   8   17.19    4.84
  -2   1   7   97.29    6.17
  -2   2   7   69.37    5.87
  -7  -4   9   11.46    4.34
  -7   1  15    8.68    5.59
  -5  -2  10    5.84    3.66
  -5   0  12   41.16    6.26
  -5   3  12   14.47    6.07
  -3  -2   6  275.09    8.49
  -3   1   9   85.79    6.85
  -3   2   9    7.31    3.89
  -2   5   4   34.99    4.11
  -7  -3  11    8.73    4.34
  -6  -5   4   15.10    2.98
  -6   0  13    9.25    5.18
  -6   3  13   10.91    6.30
  -5  -3   8   31.77    4.55
  -5  -1  11   23.89    5.29
  -5   1  12    7.99    5.03
  -5   2  12    7.48    5.64
  -5   4  11    1.44    4.64
  -5   5  10    4.57    4.72
  -4  -3   6   73.99    4.97
  -4  -2   8   69.07    5.54
  -4   0  10   61.00    6.92
  -2  -1   5   86.03    4.87
  -1   1   4  222.97    6.73
  -1   2   4  517.22   10.52
  -7   0  14    6.44    4.99
  -6  -4   7    5.30    3.55
  -6  -2  11   20.91    5.03
  -6  -1  12    1.38    4.09
  -6   1  13   12.42    6.20
  -6   2  13   13.93    6.40
  -4  -1   9   11.15    3.79
  -4   3  10    5.32    4.38
  -4   5   8    2.76    4.05
  -3   0   8  289.77   10.63
  -3   3   8    6.12    4.32
  -3   5   6    5.51    3.86
  -3   6   4    1.91    3.51
  -2   3   6   64.56    5.50
  -2   4   5   33.47    4.30
   0   3   0   -0.58    0.87
  -7  -2  12    3.43    3.80
  -7  -1  13    5.54    4.93
  -7   1  14    0.78    4.99
  -7   2  14   -1.90    4.84
  -6  -3   9    7.34    4.20
  -6   4  12    4.36    4.91
  -5   0  11   33.52    6.90
  -4   1  10    4.24    4.10
  -4   2  10   33.81    5.75
  -4   4   9   25.82    4.98
  -3  -1   7    3.54    2.69
  -3   4   7    4.20    3.98
  -2   6   1    2.89    2.57
  -5  -4   5    5.39    2.89
  -5  -2   9    5.15    4.10
  -5   3  11    9.87    4.81
  -5   5   9   22.26    5.63
  -4  -4   3    3.42    1.68
  -3   1   8   93.63    6.71
  -3   2   8    4.19    3.44
  -2   1   6  224.39    8.40
  -2   2   6  238.48    9.02
  -1  -1   2 2570.17   13.25
  -1   4   2   24.35    2.71
  -8  -3  11    0.67    4.21
  -8   0  14    0.88    4.86
  -7  -4   8    9.35    4.15
  -7  -3  10    3.44    3.85
  -7   0  13   -3.60    4.35
  -7   3  13   -1.42    4.69
  -6   0  12   -0.29    4.23
  -6   3  12   11.26    5.09
  -5  -1  10    5.77    4.02
  -5   1  11   27.67    5.90
  -5   2  11    5.48    4.76
  -5   4  10   19.17    5.29
  -2  -2   3  107.09    3.71
  -2   5   3   34.95    4.09
  -1   0   3  296.26    6.30
  -1   3   3  443.16    9.31
  -1   5   0    0.91    1.79
  -8  -2  12    6.74    5.02
  -8  -1  13    6.13    5.78
  -7  -2  11    1.35    4.36
  -7  -1  12    5.48    5.20
  -7   1  13    2.93    4.91
  -7   2  13    3.21    5.11
  -6  -2  10    2.68    3.60
  -6  -1  11   35.62    6.03
  -6   1  12   -2.76    4.28
  -6   2  12    2.99    5.06
  -6   4  11    3.65    4.75
  -5  -3   7   48.29    4.86
  -4  -2   7  109.74    6.54
  -4   0   9   49.30    5.65
  -4   3   9    0.22    3.81
  -4   4   8   68.69    7.13
  -4   5   7   23.74    5.12
  -3   5   5   34.00    4.93
  -3   6   3    7.96    3.66
  -5   3  10    9.71    5.17
  -4  -1   8    7.29    3.32
  -4   1   9    6.48    3.94
  -4   2   9   19.63    4.81
  -4   6   5    1.63    3.72
  -3  -2   5  877.73   13.64
  -3   0   7   44.90    5.06
  -3   3   7   19.84    4.13
  -2   3   5   63.58    5.09
  -2   4   4   28.45    4.05
  -8   0  13    4.27    6.04
  -7   3  12    6.07    5.84
  -6  -4   6   -0.63    3.19
  -6  -3   8   48.33    5.76
  -6   0  11   18.97    6.14
  -6   3  11   -1.50    5.04
  -5   0  10   15.72    4.78
  -5   4   9    0.36    4.49
  -5   5   8    5.56    4.46
  -4  -3   5    6.94    2.56
  -3   4   6   28.79    4.33
  -2   0   5   40.91    3.79
  -8  -3  10    6.63    4.43
  -8   1  13    1.36    5.59
  -7  -4   7   12.67    4.42
  -7  -3   9   19.20    4.93
  -7   0  12   -5.80    3.86
  -6   2  11   19.70    6.26
  -6   4  10   14.77    5.61
  -5  -2   8   57.47    5.51
  -5  -1   9   37.99    5.33
  -5   1  10    3.06    4.31
  -5   2  10    2.26    4.28
  -3  -3   3  104.75    3.75
  -3  -1   6  119.42    6.12
  -3   1   7    3.22    3.06
  -3   2   7   13.15    3.71
  -2  -1   4 1457.19   15.61
  -2   6   0   15.13    2.97
  -1   2   3  181.44    5.89
  -8  -2  11    3.11    4.57
  -8  -1  12   -2.46    4.30
  -7  -2  10   -2.05    3.77
  -7  -1  11    3.64    4.91
  -7   1  12    1.84    4.69
  -7   2  12    3.72    4.91
  -6  -5   3    1.05    2.34
  -6  -2   9   23.76    5.25
  -6  -1  10   14.14    4.62
  -6   1  11   34.37    6.33
  -4   0   8    8.40    4.24
  -4   3   8    1.00    3.48
  -4   5   6    4.41    4.08
  -2   1   5   78.03    5.35
  -2   2   5  215.06    7.96
  -1   1   3 2113.41   17.55
  -5   3   9   11.00    5.02
  -4   4   7   14.70    4.12
  -4   6   4    5.29    3.74
  -3   5   4   10.31    3.64
  -3   6   2   16.20    3.83
  -2   5   2   36.10    3.89
  -8   0  12    5.92    5.02
  -7   0  11   -1.03    4.93
  -7   3  11    3.87    4.97
  -6   3  10    6.01    4.27
  -6   5   8    6.03    4.84
  -5  -4   4    0.92    2.25
  -5  -3   6   18.74    3.55
  -5   0   9   38.90    5.57
  -5   4   8   26.11    5.64
  -5   5   7    6.60    3.80
  -4  -2   6  148.07    6.89
  -4  -1   7   68.93    5.76
  -4   1   8    6.12    3.64
  -4   2   8   60.13    6.18
  -3   3   6   75.15    5.84
  -1   4   1    6.41    1.89
  -8  -3   9   27.37    5.40
  -8   1  12    5.13    5.14
  -8   2  12    2.05    4.79
  -7  -3   8    7.59    4.26
  -7   1  11    0.60    5.19
  -7   2  11    3.93    4.68
  -7   4  10    2.41    4.71
  -6  -3   7   38.22    5.12
  -6   0  10   90.50    8.43
  -6   2  10    6.75    5.28
  -6   4   9    3.67    4.02
  -5   1   9   41.37    5.91
  -5   2   9    6.70    4.37
  -3   0   6  650.22   13.95
  -3   4   5    5.78    2.91
  -2   3   4   64.34    4.74
  -1   3   2  248.18    6.49
  -9   0  12    3.23    5.45
  -8  -2  10    0.53    4.27
  -8  -1  11   12.36    5.01
  -7  -1  10    0.61    4.38
  -6  -1   9   14.14    5.22
  -6   1  10   11.24    5.00
  -5  -2   7  104.45    6.83
  -5  -1   8   42.51    5.18
  -4   3   7    7.52    4.35
  -4   5   5   25.19    4.93
  -3   2   6  263.03    9.90
  -2   4   3    9.82    2.67
  -8   3  11    1.43    4.67
  -7  -2   9   10.21    3.87
  -3   1   6  112.27    6.37
   1   5  -8    9.90    4.00
   5  -3   1    4.06    2.03
   5  -1   1   36.57    4.49
   6   3  -3   83.76    9.69
   6   4  -5   15.40    5.90
   7  -4   0    0.06    2.96
   7   1  -1   26.25    6.21
   7   2  -2   31.78    7.13
   8  -2   0    2.03    4.56
   8   3  -4    5.42    6.11
   8   4  -6    5.05    6.42
   9   1  -2    2.17    5.62
  10   2  -4    3.44    6.75
   3   1   0  655.51   13.91
   3   2  -1   20.77    4.71
   3   5  -7   35.35    6.04
   4   1   0  496.16   13.90
   4   2  -1   40.41    5.32
   4   5  -7   32.96    5.99
   5   5  -7    9.97    5.74
   6  -2   1  176.79    8.28
   7   4  -5    9.31    6.98
   8  -3   0    9.34    4.12
   8  -1   0   27.46    6.29
   9   0  -1    1.14    5.94
   9   2  -3    1.78    6.00
   2   1   0   63.13    4.71
   5   1   0  242.07   11.03
   5   2  -1   53.87    6.55
   6  -1   1   15.37    4.33
   6   5  -7    6.98    5.28
   7   3  -3    2.26    5.39
   8   1  -1    6.95    5.74
   8   2  -2   12.46    6.19
   9   3  -4    3.39    6.44
  10  -2  -1    4.82    5.20
  10  -1  -1    6.29    6.10
   2   2  -1  414.31   10.72
   3   4  -4   66.92    6.80
   4   0   1  492.94   12.67
   4   3  -2  172.32   10.21
   4   4  -4   29.10    5.61
   5   4  -4    0.60    4.25
   6  -3   1  109.44    5.82
   6   1   0   -0.46    4.04
   6   2  -1   37.27    6.69
   6   4  -4    1.57    5.89
   8   0   0    4.22    4.72
   8   3  -3   -3.27    6.61
   8   4  -5    3.66    6.24
   9  -2   0    7.37    4.92
  10   1  -2    2.04    6.30
  10   2  -3    3.68    6.55
   3   0   1  603.56   11.82
   3   3  -2   89.37    7.02
   4   5  -6   10.27    5.42
   5   0   1  238.23   10.02
   5   3  -2   79.77    8.17
   5   5  -6    7.94    5.39
   6   3  -2  106.86   10.52
   6   5  -6    9.30    6.06
   7  -2   1    9.91    3.98
   7  -1   1    5.39    4.52
   7   1   0    7.45    6.15
   7   2  -1   20.37    6.94
   7   4  -4   17.82    7.54
   9  -1   0    1.28    4.33
   9   1  -1    6.15    5.79
   9   2  -2    1.73    6.45
  10   0  -1    7.95    6.04
  -1   3  -4   81.24    2.61
   0   5  -8    6.05    2.93
   2   4  -4   29.77    4.58
   3   5  -6    5.35    4.64
   6   0   1   21.21    4.73
   7   3  -2    5.27    6.42
   8  -4   0   -0.28    3.44
   9  -3   0   14.04    4.95
   9   0   0   15.34    6.63
   9   3  -3    1.79    6.16
   1   5  -7   11.97    3.32
   2   3  -2   27.70    4.19
   7  -3   1   10.50    3.79
   7   0   1   18.58    6.00
   8  -2   1    6.60    5.22
   8  -1   1   20.16    5.87
   8   1   0   18.96    6.02
   8   2  -1    9.76    6.03
   8   4  -4   12.37    6.93
  10   1  -1    6.84    7.46
  10   2  -2   11.83    7.20
  -1   4  -6   30.02    2.29
  -1   5  -9   27.39    2.55
   0   3  -3  193.99    5.80
   0   4  -5   10.76    2.56
   1   2  -1   73.64    4.40
   2   0   1   93.84    4.38
   4   4  -3    6.14    5.22
   5   2   0   21.12    5.17
   5   4  -3  105.21    9.47
   5   5  -5    8.31    5.57
   6   4  -3   21.55    6.25
   6   5  -5   -1.48    5.47
   8   3  -2   -0.59    5.53
   9   2  -1   -0.91    6.90
  10  -2   0   -0.46    4.58
  10  -1   0   29.69    6.72
   1   1   0  474.74    8.14
   3   4  -3   56.94    6.50
   4   1   1  192.16    9.09
   4   5  -5   17.81    5.61
   5   1   1   43.96    5.73
   5   3  -1   66.10    7.61
   6   1   1    9.58    5.55
   6   2   0   16.69    5.65
   6   3  -1   27.17    7.91
   7   2   0   16.72    6.98
   7   4  -3    5.91    5.83
   8   0   1   21.94    5.85
   9   1   0    2.56    6.04
   9   3  -2    5.82    6.49
   3   2   0    9.01    3.69
   3   5  -5   35.40    6.00
   4   3  -1  193.76   10.44
   7   1   1    4.57    5.49
   7   3  -1    4.98    5.59
   8  -3   1    8.89    4.23
   8   2   0    2.71    6.42
   8   4  -3   11.51    6.90
   9  -2   1   45.77    6.74
   9  -1   1    5.33    4.28
  10   2  -1   15.72    7.32
   3   1   1   13.60    3.54
   3   3  -1   11.01    3.74
   4  -1   2  140.88    6.22
   5  -2   2    3.20    2.56
   5  -1   2   87.50    5.71
   6  -2   2   42.66    4.83
   6  -1   2   35.74    5.18
   8   1   1   31.17    7.63
   8   3  -1    7.65    6.29
   9   0   1    0.39    5.15
  10   1   0   18.62    7.50
   1   5  -6   52.00    5.19
   2   4  -3    7.39    3.63
   4   4  -2   26.13    6.33
   5   0   2   67.70    6.33
   5   4  -2   90.16    9.04
   5   5  -4   31.24    6.47
   6  -4   1    0.54    1.92
   6   0   2   22.13    5.42
   6   4  -2    7.04    5.42
   6   5  -4   11.19    5.49
   7  -2   2    9.00    4.43
   7  -1   2   19.40    4.60
   7   4  -2    2.82    6.04
   7   5  -4    6.06    5.84
   9  -3   1    1.83    4.46
   9   2   0   13.38    7.26
   9   3  -1   11.92    6.86
  10  -1   1   12.73    6.24
   0   5  -7   12.20    3.18
   2   2   0  194.65    7.76
   4  -2   2  366.75    7.85
   4   0   2  167.17    7.96
   4   5  -4   21.49    5.28
   5   2   1   61.05    7.54
   6   2   1  176.65   11.46
   8  -1   2   92.64    8.67
   8   4  -2   21.39    7.55
   9   1   1   10.43    6.16
  10   0   1   -1.42    5.20
  10   2   0    5.50    7.48
   2   3  -1  127.27    7.18
   3   4  -2   69.52    7.09
   3   5  -4   14.88    5.19
   3   6  -7    1.47    4.36
   4   2   1  142.69    9.04
   5   3   0   37.88    6.51
   6   3   0   23.54    6.84
   7  -4   1    7.65    2.86
   7   2   1    9.03    5.38
   7   3   0   50.48    8.16
   8  -2   2    9.19    4.56
   8   0   2   16.39    5.30
   8   2   1    6.38    6.77
   8   3   0    6.31    7.24
  10   1   1   10.59    7.67
   2   1   1  587.47   11.65
   3  -1   2  472.06    8.97
   4   3   0   66.36    6.92
   5   1   2   90.41    7.41
   5   5  -3   16.26    6.31
   6   1   2   33.06    6.01
   6   4  -1   28.28    6.81
   6   5  -3    7.48    5.23
   7   1   2   21.82    6.06
   7   4  -1    6.35    6.86
   7   5  -3    1.43    5.44
   9  -1   2   14.23    4.89
   9   0   2   -0.01    5.77
   9   2   1   49.57    9.66
   9   3   0   18.42    8.18
   3   0   2   44.07    4.34
   4   1   2  142.76    8.34
   4   5  -3    6.52    4.94
   5   4  -1   77.56    8.66
   6  -3   2   63.94    4.56
   7  -3   2   25.85    4.13
   8  -4   1   -1.14    2.92
   8   1   2  105.97   10.21
   8   4  -1   14.70    6.98
   9  -2   2    6.68    4.47
   0   4  -4  132.09    5.49
   2   4  -2   31.54    4.85
   3   2   1    9.94    3.67
   3   3   0   59.56    5.97
   3   6  -6    8.25    4.62
   4   4  -1   68.40    7.58
   8  -3   2    5.05    4.12
   9   1   2   19.06    6.81
  10  -1   2    1.88    4.75
  10   0   2    8.55    6.01
   1   5  -5   24.95    4.25
   1   6  -8    8.03    3.51
   2   5  -4   32.45    5.33
   4   6  -5    2.44    4.69
   5  -3   2   26.00    2.66
   5   3   1   10.78    6.28
   6  -1   3  176.88    9.10
   6   0   3  268.84   12.21
   6   2   2   41.65    7.13
   6   3   1  109.64   10.02
   6   5  -2    8.45    5.79
   7  -1   3   15.55    4.95
   7   0   3   14.56    5.89
   7   2   2    9.35    5.93
   7   3   1    8.02    5.96
   7   5  -2   12.21    6.44
   8   2   2    2.07    5.50
   8   3   1    8.43    6.87
  10   1   2    4.86    6.36
   3   1   2  483.61   12.82
   3   4  -1  312.96   13.06
   3   5  -3   37.01    5.55
   5  -1   3   16.17    3.72
   5   0   3  125.11    8.03
   5   2   2    0.41    4.32
   5   5  -2   14.96    5.58
   6   4   0   14.10    5.92
   7   4   0    3.88    5.73
   8  -1   3   15.77    4.81
   8   0   3   69.88    8.04
   8   4   0    4.20    6.16
   9  -3   2    4.35    4.20
   9   2   2    8.35    6.26
   9   3   1    0.67    6.20
  -1   5  -8    5.66    1.60
   0   5  -6    2.28    2.73
   1   2   0  413.87    9.43
   1   3  -1   34.44    3.90
   3  -2   2  111.56    3.36
   4   2   2  381.86   13.79
   4   3   1   27.40    5.50
   4   5  -2    4.37    4.81
   5   4   0   10.51    5.15
   6   1   3  182.18   11.08
   7  -2   3   49.04    5.59
   7   1   3   10.27    5.42
   8  -2   3   19.57    5.65
   8   1   3   11.31    5.91
   9  -1   3    6.18    4.29
   9   0   3    2.31    4.77
   0   3  -2   89.65    4.26
   2   2   1  151.54    7.26
   2   3   0   71.46    5.66
   3   6  -5   16.25    4.85
   4   4   0   54.85    7.82
   4   6  -4    7.99    5.13
   5   1   3   17.46    4.69
   6  -2   3    1.73    3.07
   6   5  -1    3.95    5.13
   7   3   2   31.77    8.20
   7   5  -1    1.76    5.65
   8   3   2   -0.13    6.91
   9  -2   3    3.56    4.86
   9   1   3    5.51    5.60
  10   0   3   -1.90    5.20
   2   5  -3   32.53    5.44
   4  -1   3  175.88    7.06
   4   0   3  363.13   11.25
   5   5  -1    6.05    5.09
   6   2   3    1.63    6.21
   6   3   2   59.52    8.55
   6   4   1   -0.49    6.06
   7   2   3   49.17    8.01
   7   4   1    5.48    6.63
   8   2   3   30.30    7.47
   8   4   1    0.18    6.01
   9   3   2    5.68    6.65
   1   6  -7    6.51    3.50
   2   0   2   20.58    3.10
   2   4  -1    5.61    3.94
   3   2   2  120.70    7.89
   3   3   1   17.02    4.37
   3   5  -2   19.77    4.81
   4   1   3  190.91    9.37
   5  -2   3  205.54    7.33
   5   3   2   29.78    6.53
   5   4   1   21.42    7.06
   9   2   3    1.60    6.37
   3   4   0  219.89   11.22
   3   6  -4    2.44    4.05
   4   5  -1   38.96    6.24
   4   6  -3    2.15    4.88
   5   2   3  218.54   12.00
   6   0   4   80.46    7.84
   6   5   0   19.20    7.19
   7  -1   4   93.00    7.98
   7   0   4   -0.10    4.32
   7   1   4   97.16   10.07
   7   5   0    0.68    5.70
   8  -1   4    5.17    4.83
   8   0   4   89.81    8.99
   8   1   4    6.82    6.38
   9   0   4    7.54    5.83
  -1   4  -5   11.74    1.54
   1   1   1 1149.84   13.54
   2   1   2  227.91    7.98
   4   3   2   18.06    5.07
   4   4   1   20.93    6.47
   5   5   0   13.89    6.57
   6  -1   4   40.25    5.57
   6   1   4   44.15    6.79
   7   3   3   14.33    6.50
   7   4   2    6.53    6.40
   8  -3   3    0.91    3.82
   8   3   3    4.51    6.28
   8   4   2    4.77    6.37
   9  -1   4    9.70    4.85
   9   1   4   17.37    6.58
   0   4  -3  100.98    5.06
   3   0   3  352.38   10.06
   4   2   3   10.91    4.47
   5   0   4    0.21    3.29
   6   3   3   11.63    6.10
   6   4   2   -1.74    4.64
   7  -3   3   17.05    3.92
   7   2   4   10.07    5.80
   8  -4   2    4.97    3.01
   8   2   4   -1.62    5.93
   9   2   4    4.00    6.37
   0   5  -5   19.08    3.33
   1   6  -6    6.16    3.89
   2  -1   2  213.44    4.77
   2   3   1  295.35   11.10
   2   5  -2   27.12    5.21
   3   1   3  600.84   14.64
   3   5  -1   66.87    7.16
   3   6  -3    8.97    4.58
   4  -3   2   16.56    1.39
   4   5   0   30.27    6.78
   5   1   4  214.18   11.18
   5   3   3  113.96   10.01
   5   4   2    5.41    6.16
   6   2   4  117.29   10.27
   6   5   1   43.37    8.79
   7  -2   4    9.54    4.47
   8  -2   4    5.27    4.18
   9  -2   4    0.98    3.85
   1   3   0   97.52    5.92
   2   4   0   53.08    6.19
   3   4   1   68.59    7.67
   4  -2   3   12.58    2.44
   4   6  -2    0.31    4.51
   5  -1   4  199.26    8.65
   5   2   4   23.02    6.68
   6  -3   3   12.83    3.01
   7  -4   2   13.47    2.69
   7   4   3   18.98    8.57
   8   0   5   19.32    6.06
   8   1   5   29.53    7.71
   8   3   4    9.01    7.75
   9   0   5    7.81    5.77
   9   1   5    6.27    6.56
   0   6  -8    2.59    2.38
   1   2   1  136.25    6.32
   1   4  -1    3.78    3.55
   2   2   2  505.38   13.17
   3  -1   3  596.97   10.67
   3   2   3  142.46    8.79
   4   0   4   50.12    5.39
   4   1   4   10.06    4.63
   4   3   3   18.54    6.25
   4   4   2    7.22    5.94
   5   5   1    7.95    5.50
   6  -2   4  122.33    7.05
   6   3   4   20.08    7.38
   6   4   3   13.35    7.42
   7   0   5   75.93    7.98
   7   1   5   65.60    8.13
   7   3   4   17.23    6.84
   6   0   5  151.02    9.82
   6   1   5  117.39    9.74
   6   5   2    6.80    7.33
   7  -1   5   70.17    7.47
   7   2   5    9.73    5.93
   8  -1   5   31.64    5.60
   8   2   5   -0.35    5.57
   9  -1   5    3.66    4.23
   9   2   5    0.63    5.93
  -1   3  -3  155.48    3.28
   1   6  -5   33.14    4.94
   2   5  -1   50.86    6.37
   3   5   0   24.85    5.51
   3   6  -2   13.50    5.18
   4   2   4   69.73    7.22
   4   5   1    2.92    4.65
   4   6  -1    6.80    4.81
   5   3   4   26.05    6.68
   5   4   3   15.63    6.01
   6   2   5    1.20    5.45
   4  -1   4   12.14    3.22
   5   0   5   75.53    7.25
   5   1   5  171.52   10.52
   5   5   2   10.27    5.87
   6  -1   5  111.58    8.04
   7   3   5   14.08    6.71
   7   4   4   21.05    7.74
   8   1   6    5.36    6.34
   8   3   5    8.40    6.75
   9   1   6    4.87    6.84
   2   3   2   25.32    4.44
   2   4   1  200.68   10.42
   3   3   3   39.09    5.88
   3   4   2   20.67    5.27
   4   4   3   28.26    7.54
   5  -2   4   18.54    3.35
   5   2   5  100.59    9.29
   6   3   5    7.68    6.82
   6   4   4   15.55    6.78
   6   5   3    9.62    7.39
   7   1   6   24.37    7.02
   8  -3   4   17.11    4.49
   8  -2   5    2.75    4.14
   8   0   6    5.06    4.81
   8   2   6    8.06    6.79
   9  -2   5    8.03    4.97
   9   0   6    6.42    5.24
   0   4  -2   83.84    4.85
   0   5  -4  136.99    6.13
   0   6  -7   11.90    2.84
   2   1   3   57.25    4.88
   3   1   4   77.27    6.39
   3   5   1    2.48    5.04
   3   6  -1    3.42    4.63
   4   3   4   18.30    5.66
   4   5   2   40.54    7.77
   4   6   0   16.16    5.68
   5   4   4   85.00   10.29
   7  -2   5   11.51    4.65
   7   0   6    2.69    4.31
   7   2   6    6.44    5.72
   9  -1   6   12.89    5.55
   1   3   1  440.79   11.89
   1   4   0   75.91    6.06
   1   6  -4   29.57    5.03
   2   2   3  286.54   10.93
   2   5   0   30.90    5.89
   3   0   4   10.87    3.77
   3   2   4   77.77    6.93
   4   1   5    5.87    3.93
   5  -3   3  106.93    4.17
   5  -1   5  157.30    8.32
   5   3   5   23.30    6.74
   5   5   3   16.36    7.10
   6   0   6  550.97   18.37
   6   1   6   43.21    7.20
   6   2   6   28.02    7.70
   7  -3   4   16.70    3.93
   7   4   5    5.31    6.54
   8  -1   6    3.63    4.74
   8   3   6   -0.10    6.06
   2   0   3  194.77    6.64
   2   6  -2   10.11    4.46
   4   0   5  296.88   11.32
   4   2   5   31.99    5.97
   6   4   5   19.48    7.21
   6   5   4   18.80    8.11
   7  -1   6   29.32    5.82
   7   3   6   21.71    7.35
   8   1   7    9.62    6.30
  -1   2  -2   26.70    0.92
   1   1   2 2648.91   22.39
   3   3   4   12.84    5.58
   3   4   3    2.16    4.43
   3   6   0   -1.87    4.44
   4   4   4   29.54    6.46
   4   6   1    3.50    5.08
   5   1   6    8.21    4.98
   5   2   6  122.19   11.19
   6  -2   5    3.13    3.63
   6   3   6   15.44    6.55
   7   1   7    1.35    5.89
   8   0   7    2.17    5.27
   8   2   7    7.26    6.69
   9   0   7   -1.51    4.90
   1   2   2   29.23    3.83
   2   3   3  128.32    8.23
   2   4   2   37.11    5.57
   3   5   2    6.75    4.48
   4   3   5   90.26    9.04
   4   5   3   24.04    6.52
   5   0   6   41.49    6.48
   5   4   5   40.26    7.90
   5   5   4    2.44    6.35
   6  -1   6   47.86    6.36
   7   0   7    9.67    5.46
   7   2   7   -1.82    5.40
   7   4   6   -4.51    5.90
  -1   4  -4   13.66    1.59
   0   5  -3  172.17    7.21
   0   6  -6   12.07    2.96
   1   6  -3   39.13    5.79
   2   5   1  154.81   10.17
   2   6  -1    2.89    4.27
   5   3   6   67.74    9.08
   6   1   7  134.13   10.69
   6   2   7   24.91    6.76
   6   4   6   27.46    8.55
   7   3   7    3.34    6.62
   8  -2   6    2.46    3.92
   1   4   1  288.50   11.07
   3   1   5  285.35   11.24
   3   2   5  106.88    8.18
   3   6   1    1.34    4.96
   4  -1   5    1.64    2.81
   4   1   6   94.05    8.37
   4   2   6    3.68    5.62
   4   6   2    5.86    5.44
   6  -3   4   23.69    3.36
   6   0   7   -2.64    5.21
   6   3   7   21.43    8.03
   8  -1   7    5.37    4.25
   8   1   8    3.17    6.13
   8   2   8    6.24    7.21
   1   0   2  286.74    5.91
   1   3   2   22.54    3.84
   2   1   4   64.02    5.44
   2   2   4  667.97   16.50
   3  -1   4   80.69    4.71
   3   4   4   20.33    5.81
   3   5   3   20.00    6.40
   4  -2   4   69.28    4.09
   4   4   5   30.08    6.91
   4   5   4    0.42    5.14
   5   2   7   41.25    8.30
   5   4   6    0.45    6.50
   5   5   5    6.24    7.18
   7  -2   6   -0.71    3.68
   7  -1   7    3.75    4.99
   7   1   8    9.65    6.59
   7   2   8    2.54    6.80
   8  -3   5    4.13    3.82
   8   0   8    3.61    5.39
   1   5   0    0.71    3.74
   2   4   3   23.97    5.16
   2   6   0    9.43    4.80
   3   0   5  135.92    7.53
   3   3   5   12.96    5.12
   4   0   6   48.31    5.98
   4   3   6   99.53   10.08
   4   6   3    0.91    6.10
   5  -2   5   89.42    5.62
   5  -1   6    7.46    4.06
   5   1   7  355.97   15.55
   6   4   7    2.30    7.09
   7   3   8   -0.77    6.91
   0   6  -5    3.06    2.86
   2   3   4   71.73    6.87
   2   5   2   71.38    7.45
   3   6   2    8.29    5.59
   5   0   7    2.69    5.01
   5   3   7   10.97    6.01
   6   1   8   27.72    7.36
   6   2   8   20.89    6.76
   7   0   8    8.64    4.95
   0   5  -2   75.10    5.44
   1   2   3  209.37    8.70
   3  -2   3  146.51    3.94
   3   4   5   45.15    8.31
   3   5   4   40.13    7.70
   4   4   6   68.83    9.07
   4   5   5   24.87    6.97
   5   4   7   -8.29    6.16
   5   5   6    4.04    7.09
   6  -2   6   23.28    4.70
   6  -1   7  130.86    9.14
   6   3   8    2.34    6.53
   7  -4   3   17.67    2.21
   7  -3   5    9.53    3.74
   8  -1   8    9.74    5.17
   8   1   9    1.35    5.71
   1   1   3 2185.56   22.30
   1   4   2  169.76    8.97
   2  -1   3   53.46    2.98
   2   0   4  178.20    6.94
   2   6   1    7.09    4.74
   3   1   6   26.89    5.44
   3   2   6    4.66    4.30
   4   1   7  187.44   11.38
   4   2   7   26.45    6.35
   4   3   7   -2.10    6.41
   5   2   8   52.34    8.94
   6   0   8   41.31    7.21
   6   4   8   -2.23    6.94
   7   1   9    8.12    6.46
   7   2   9    4.40    6.38
   8  -2   7    6.02    4.68
   1   3   3  156.60    8.21
   1   5   1  203.20   10.38
   2   2   5   38.59    5.35
   2   4   4    7.85    4.57
   2   5   3   21.57    6.03
   3   3   6   61.79    7.76
   3   6   3    0.79    5.42
   5   1   8   54.28    7.78
   5   3   8   26.31    7.18
   7  -1   8    9.30    5.29
   8   0   9    0.54    4.86
   0   6  -4    0.85    2.98
   2   1   5 1092.21   19.97
   2   3   5   38.57    5.89
   4   4   7   -2.60    6.23
   4   5   6    7.83    5.73
   5   5   7    6.49    6.34
   6   1   9   15.02    6.71
   6   2   9    2.02    5.67
   6   3   9   -3.18    6.00
   7  -2   7    4.74    4.04
   7   0   9   20.04    6.48
  -1   3  -2   19.98    1.72
   0   5  -1   25.95    4.22
   2   6   2    0.77    4.54
   3   4   6  232.71   13.92
   3   5   5    6.41    5.29
   4  -1   6   92.74    6.31
   4   0   7  119.08    8.15
   5  -1   7  355.28   12.92
   5   0   8   98.73    8.97
   5   4   8   17.07    6.94
   7   2  10   10.31    7.67
   8  -3   6    4.09    3.54
  -1   4  -3   34.61    2.31
   1   4   3   40.49    5.46
   1   5   2   68.67    7.24
   2   4   5   17.53    6.29
   2   5   4    9.17    5.84
   3  -1   5  273.52    8.56
   3   0   6    1.15    2.83
   3   2   7   12.49    5.08
   3   3   7  163.76   12.14
   3   6   4    2.31    5.13
   4   2   8  137.24   10.98
   4   3   8    6.13    5.49
   5   2   9   16.30    6.31
   5   3   9    4.95    7.14
   6  -1   8   27.06    5.75
   6   0   9   68.60    8.63
   7   1  10    3.86    5.41
   8  -1   9    1.87    4.82
   0   6  -3    5.02    3.45
   1   2   4  266.37   10.03
   1   3   4   81.68    7.04
   3   1   7   33.31    6.11
   3   5   6    0.04    6.01
   4   1   8  161.72   10.76
   4   4   8    7.97    7.01
   4   5   7   -1.64    5.71
   5  -3   4   27.78    2.61
   5  -2   6  119.81    6.58
   5   1   9   28.57    6.74
   6  -3   5    3.23    2.75
   6   2  10   14.24    6.83
   6   3  10    0.44    7.19
   8  -2   8    6.30    4.69
   2   2   6  100.19    7.80
   2   3   6   51.45    6.81
   2   6   3   -0.47    4.03
   3   4   7   61.54    8.52
   3   6   5    0.03    5.96
   5   4   9    0.82    6.01
   6  -2   7   12.88    4.02
   6   1  10    3.90    5.43
   7  -1   9   -0.86    4.33
   7   0  10    4.21    5.54
  -1   5  -5    2.78    1.27
   0   2   2 1720.58   19.10
   0   3   2   82.59    5.55
   1   1   4   40.65    4.40
   1   4   4   13.85    5.11
   1   5   3   11.75    5.22
   1   6   1    8.98    4.63
   2   0   5 2822.91   27.78
   2   4   6   70.66    8.86
   2   5   5    3.06    5.26
   4  -2   5   24.35    3.00
   4   2   9   30.78    7.68
   4   3   9    7.47    6.82
   5   2  10   -0.06    6.31
   5   3  10    4.88    7.30
   7  -3   6   17.14    3.87
   7   1  11    8.09    7.11
   0   6  -2    3.38    3.62
   1   0   3 2324.84   18.74
   2   1   6   97.60    6.95
   2   6   4    8.79    5.58
   3   2   8  113.72    9.59
   3   3   8   23.63    6.60
   3   5   7    3.58    6.31
   4   0   8   40.07    5.71
   4   4   9    1.85    7.04
   4   5   8    3.18    6.07
   5  -1   8   53.77    6.46
   5   0   9   -2.36    4.14
   5   4  10   -2.33    6.89
   6   0  10   19.13    6.35
   6   2  11    9.91    8.11
   7  -2   8    6.19    4.14
   0   4   2   88.53    6.40
   1   2   5  332.20   11.89
   1   3   5   12.12    4.21
   1   6   2   30.26    5.85
   3   0   7    2.54    3.85
   3   4   8   -2.06    5.08
   4  -1   7  182.05    8.79
   4   1   9  130.55   10.22
   5   1  10   11.75    5.61
   6  -1   9   10.40    5.35
  -1   4  -2  158.86    4.80
   1   4   5   15.25    5.49
   1   5   4   41.74    6.68
   2   2   7   40.28    6.05
   2   5   6    3.85    4.86
   3   1   8   85.14    7.80
   4   3  10   11.21    7.30
   5   3  11   30.48    9.05
   6   1  11    9.66    5.70
   7  -1  10    6.58    4.93
   7   0  11    1.14    4.90
   0   3   3  216.74    8.83
   0   6  -1    2.63    3.67
   2  -1   4   74.64    3.85
   2   4   7    8.29    5.12
   2   6   5    8.96    5.26
   3  -1   6   25.77    3.75
   3   2   9  115.21   11.01
   3   3   9   42.11    7.75
   3   5   8    3.58    5.41
   4   2  10   43.73    7.71
   4   4  10   14.44    7.15
   5   2  11    5.91    6.42
   6   2  12    4.29    7.09
  -1   3  -1  439.25    7.02
  -1   5  -4   38.02    2.45
   1   6   3    8.59    4.78
   2   1   7  165.37    9.08
   3   4   9   30.64    7.74
   4   0   9   15.69    5.51
   4   1  10    9.44    6.64
   5  -2   7   39.75    4.59
   5   0  10   26.14    5.61
   5   1  11    8.47    6.47
   6  -2   8   27.60    4.86
   6   0  11    3.29    5.41
   0   1   2 1927.21   16.48
   0   2   3    1.12    2.61
   0   4   3  110.18    7.42
   0   5   2   73.24    6.75
   1   1   5  156.21    7.49
   1   3   6  117.18    8.53
   1   4   6   29.69    6.63
   1   5   5   -1.13    4.73
   2   0   6   12.21    3.56
   2   2   8   14.11    5.95
   2   3   8   95.77    9.33
   2   4   8   74.84    9.26
   2   5   7    1.37    4.94
   2   6   6   13.42    6.56
   3   1   9  151.97   10.71
   4   3  11   -3.23    6.55
   5  -1   9   31.04    5.76
   5   3  12   10.73    7.93
   6  -1  10    1.36    4.84
   6   1  12    7.70    5.81
   7  -2   9    2.63    4.33
   1   2   6    1.23    3.49
   1   6   4   21.78    5.77
   3  -2   4   63.51    3.04
   3   0   8   92.37    7.13
   3   3  10   21.19    6.67
   3   5   9    0.52    5.87
   4  -2   6    5.24    2.49
   4  -1   8  146.53    8.43
   4   2  11    5.98    5.68
   4   4  11   10.03    6.81
   5   2  12   -1.74    5.23
   6  -3   6   12.62    3.06
   7  -3   7    1.04    3.20
   7  -1  11    9.26    5.36
  -1   4  -1  284.19    7.05
  -1   5  -3    8.99    2.19
   0   3   4  112.89    7.21
   1   0   4   18.92    3.35
   2   5   8   11.84    6.69
   3   2  10   62.21    8.34
   3   4  10   22.42    7.19
   5   0  11   14.02    5.95
   0   4   4  139.37    8.32
   0   5   3  183.85    9.93
   1   3   7  160.53   10.23
   1   4   7   51.80    7.95
   1   5   6    8.98    4.83
   1   6   5    6.94    5.18
   2   1   8  230.61   11.05
   2   3   9   60.73    8.24
   2   4   9    2.37    6.14
   3   5  10    0.25    5.72
   4   0  10    4.76    5.11
   4   1  11   46.94    7.30
   4   3  12    1.88    7.33
   5   1  12    0.50    5.08
   6   0  12    6.76    4.97
  -1   3   0   99.43    4.13
   0   2   4  996.86   17.12
   1   1   6  410.58   12.27
   1   2   7  113.39    8.06
   2   0   7    0.43    3.43
   2   2   9  174.27   11.25
   3  -1   7   45.02    4.66
   3   1  10   62.97    7.68
   3   3  11    6.16    5.85
   3   4  11   -3.90    6.33
   4   2  12    5.27    5.79
   5  -3   5   19.90    2.43
   5  -2   8   51.48    5.44
   5  -1  10    8.26    4.70
   5   2  13    4.48    6.25
   6  -2   9   -1.88    3.46
   6  -1  11    4.22    4.67
   7  -2  10   12.13    5.19
  -1   2  -1  132.72    2.57
  -1   4   0   67.26    4.17
  -1   5  -2   64.52    3.84
   0   3   5  116.98    7.78
   0   5   4  157.76    9.83
   1   5   7    0.16    4.34
   2   5   9    3.97    5.45
   3   0   9    2.48    3.67
   3   2  11   36.51    7.00
   4  -1   9  130.01    8.39
   0   1   3  504.95    9.72
   0   4   5   11.82    4.21
   1   3   8  141.13   10.22
   1   4   8   82.28    8.55
   1   6   6    7.49    4.94
   2  -1   5 1028.87   14.03
   2   1   9  171.47   10.60
   2   3  10    6.32    5.78
   2   4  10    6.90    5.77
   4   1  12   10.31    5.56
   4   3  13   17.84    7.44
   5   0  12   -0.30    5.18
   5   1  13    6.13    5.98
   6   0  13   19.55    7.25
  -1   5  -1  199.81    6.82
   0   2   5 1045.18   18.83
   0   5   5   20.42    5.49
   0   6   3    5.63    4.23
   1   2   8  314.34   13.12
   1   5   8    6.85    6.02
   2   2  10  181.93   11.89
   2   5  10   -0.63    5.59
   3   1  11   14.88    6.44
   3   3  12    0.64    5.76
   3   4  12    5.21    6.42
   4   0  11    4.12    4.70
   4   2  13   -3.28    5.46
   7  -3   8   -1.93    2.95
  -1   5   0   -1.10    2.81
   0   3   6   35.36    5.18
   0   4   6   12.62    5.26
   0   6   4   -2.28    3.88
   1   0   5  898.12   14.40
   1   1   7  234.73    9.94
   1   4   9    4.04    5.92
   1   6   7   15.60    5.77
   2   0   8  169.65    8.84
   2   3  11   -2.74    5.95
   2   4  11    7.32    7.03
   3   0  10    1.80    4.65
   3   2  12    1.84    5.25
   4  -2   7   24.52    3.33
   5  -1  11   12.51    5.37
   6  -3   7   15.43    3.29
   6  -2  10    9.85    4.20
   6  -1  12    1.31    4.62
   0   5   6   -1.21    4.42
   1   5   9   21.82    6.97
   3  -1   8   75.00    5.67
   3   3  13    9.97    7.63
   4  -1  10    6.69    4.41
   4   1  13   -4.75    4.61
   5  -2   9   14.70    4.37
   5   0  13    0.48    5.20
   5   1  14   21.80    7.21
   0   1   4  901.95   14.19
   0   2   6  345.04   11.84
   0   4   7   20.21    5.99
   0   6   5    5.92    4.54
   1   2   9   60.57    7.22
   2   1  10  216.67   11.73
   2   2  11   31.07    7.08
   3   1  12    7.07    6.06
   3   2  13    4.66    6.53
   4   0  12    0.98    4.15
   4   2  14   -1.70    5.48
   0   3   7    3.15    4.05
   1   1   8   33.05    5.00
   1   3  10   90.24    9.58
   1   4  10   18.18    6.12
   2   3  12   14.53    6.35
   2   4  12    3.90    6.19
  -3   3   7   19.36    1.61
  -3   5   9    2.14    2.50
  -1   6   3   29.73    4.81
   0   1  -1 4463.13   20.25
   1   1  -3 2047.77   16.84
   2   4  -5   39.63    5.41
   3   1  -6  117.37    5.60
   3   5  -6    1.55    3.96
   3   6  -5   28.02    5.88
   4   5  -7   28.41    6.44
   5   3  -9   10.72    4.19
   7   1 -10    2.55    3.38
   8   0 -10    7.01    2.76
   8   2 -11    0.11    3.49
  -2   5   5   74.57    5.56
  -1   4   1    4.82    3.03
  -1   5   2   56.51    5.65
   2   2  -5  202.87    7.74
   2   3  -5   56.08    5.32
   2   5  -4   32.46    5.98
   2   6  -3   11.63    5.17
   5   5  -8    8.48    5.03
   7   4 -10   12.20    5.44
   8   3 -11    0.55    4.54
   9   1 -11    2.61    3.08
  -2   4   4   25.57    3.18
  -2   6   7   13.78    3.76
   0   4  -1   49.33    4.94
   0   6   1    1.85    3.32
   1   4  -3   80.47    6.41
   1   6  -1    1.21    3.67
   3   4  -6   26.24    5.12
   4   1  -7   67.32    4.76
   4   4  -7   11.74    5.17
   5   1  -8   46.46    4.54
   6   1  -9    8.67    3.43
   6   4  -9    2.67    4.81
   7   0  -9   27.02    3.75
   7   2 -10    0.43    3.64
   7   3 -10    2.61    4.27
  -3   4   8   11.64    2.13
  -1   2   1   73.38    3.48
  -1   3   1   42.34    3.74
  -1   6   4   19.83    4.37
   0   5   0   -1.35    3.17
   1   2  -3  175.90    6.90
   1   3  -3  404.32   11.47
   1   5  -2   45.43    5.72
   3   0  -5    8.68    1.74
   3   2  -6  254.99    9.19
   3   3  -6   69.33    6.11
   3   5  -5   32.44    5.71
   3   6  -4    2.58    4.45
   4   6  -5    3.70    5.09
   5   4  -8   13.66    4.74
   6   3  -9    3.38    4.33
   7  -1  -8    2.02    1.81
  -3   5  10   13.31    2.87
   0   3  -1   73.01    5.17
   0   6   2    6.32    4.02
   2   4  -4   25.38    4.77
   2   6  -2    2.41    3.83
   4   2  -7   96.73    6.39
   4   3  -7    6.24    3.74
   4   5  -6    6.76    4.59
   5   2  -8   51.06    5.74
   5   3  -8   31.56    5.15
   5   5  -7    8.77    5.00
   6   0  -8  147.46    6.19
   6   2  -9   20.28    4.24
   6   5  -8    9.73    4.95
   8   1 -10    5.71    3.68
   9   0 -10   -1.16    2.85
  -2   3   4   65.03    3.55
  -2   5   6   21.26    3.67
  -1   4   2   24.30    3.76
  -1   5   3   38.19    5.00
  -1   6   5   22.96    4.41
   0   2  -1   63.58    3.93
   1   6   0    6.44    3.92
   2   5  -3   25.65    5.32
   3   6  -3    5.88    5.25
   4   0  -6  526.06    9.12
   7   4  -9    9.71    4.88
   8   2 -10    3.62    3.85
   8   3 -10    9.43    4.71
   0   4   0    2.98    3.42
   0   5   1   20.86    4.88
   1   4  -2   24.29    4.28
   1   5  -1   85.92    7.21
   2   1  -4 1410.81   15.72
   2   3  -4   57.00    5.31
   3   4  -5    4.25    4.29
   3   5  -4   16.24    4.92
   4   4  -6   15.64    5.42
   4   6  -4    3.58    5.13
   5   0  -7   20.65    2.65
   5   4  -7   11.93    5.29
   6  -1  -7   44.85    2.74
   6   4  -8    0.23    4.06
   7   1  -9   35.64    4.77
  -3   5  11    2.87    2.50
  -2   4   5   30.24    3.27
   0   6   3    4.42    3.93
   1   6   1    6.00    4.48
   2   6  -1    1.34    4.21
   4   5  -5   23.03    5.58
   5   5  -6   13.26    5.21
   6   5  -7    2.88    4.55
   7   2  -9    7.63    4.05
   7   3  -9   17.06    4.73
   9   1 -10    2.17    3.18
  -2   5   7    4.00    3.27
  -1   5   4   61.62    5.69
  -1   6   6    6.03    3.44
   2   4  -3    0.85    3.48
   2   5  -2   33.02    6.24
   3   3  -5    6.19    3.47
   3   6  -2   17.72    5.96
   5  -1  -6   96.52    3.17
   5   3  -7   34.67    5.97
   6   3  -8   41.15    5.52
   8   0  -9   27.74    3.85
   9   2 -10   -0.37    3.30
  -3   4   9   19.23    2.54
  -2   2   4  238.62    4.18
   1   3  -2  243.68    8.93
   1   5   0    4.27    4.78
   3   1  -5  128.69    5.61
   3   2  -5  898.17   16.74
   4   3  -6   71.62    6.48
   4   6  -3   -1.00    4.26
   5   1  -7    5.23    3.09
   6   2  -8   37.91    5.11
   7   4  -8   14.23    4.94
   8   3  -9   32.88    6.09
  -1   3   2  258.84    7.52
  -1   4   3   79.76    5.46
   0   3   0   -1.22    2.12
   0   5   2   70.74    6.22
   0   6   4    1.52    3.63
   1   4  -1    8.01    3.50
   1   6   2   24.44    5.36
   2   6   0    7.71    4.23
   3   4  -4   74.70    6.95
   3   5  -3   32.44    5.70
   4   1  -6  136.30    6.17
   4   2  -6  143.75    7.54
   4   4  -5   11.41    5.14
   4   5  -4   23.45    6.13
   5   2  -7  101.16    6.84
   5   4  -6    1.91    4.69
   5   5  -5   10.59    5.82
   6   4  -7    6.25    4.52
   6   5  -6    3.50    4.61
   8   1  -9    4.12    3.74
   8   2  -9    3.21    4.02
  -1   6   7    6.64    3.42
   0   4   1   55.34    5.07
   1   1  -2 2686.68   18.77
   1   2  -2   46.01    3.91
   2   3  -3  145.54    7.87
   3   6  -1    2.43    4.05
   7   0  -8   62.45    4.92
   7   3  -8    0.36    3.67
   8  -1  -8   15.80    3.02
   9   0  -9   27.55    4.89
  -3   3   8    7.42    1.48
  -2   4   6   21.16    3.23
  -2   5   8    9.52    3.45
  -1   5   5   29.04    4.76
   2   4  -2   24.70    5.22
   2   5  -1   57.11    6.66
   2   6   1    9.51    4.89
   4   6  -2    8.81    4.90
   6   3  -7   36.29    6.32
   7   2  -8    0.57    3.88
   7   4  -7    7.88    5.19
   9   2  -9    6.41    4.33
  -2   3   5   58.23    3.44
  -1   6   8   -0.33    3.21
   0   5   3  178.21    9.38
   0   6   5   -0.26    3.06
   1   5   1  194.51   10.25
   1   6   3    8.10    4.48
   3   3  -4   47.24    5.26
   3   5  -2   19.02    5.02
   4   3  -5    8.77    4.61
   5   3  -6   18.73    4.75
   6   4  -6    2.71    5.01
   6   5  -5    6.05    4.91
   7   1  -8   -0.25    3.30
   8  -2  -7   31.98    2.41
   8   3  -8    3.34    4.54
   9   1  -9   -0.50    3.31
  -1   2   2   45.97    2.82
   0   2   0  480.66    9.26
   1   3  -1   38.19    4.57
   1   4   0   69.35    6.34
   2   2  -3  101.07    5.75
   3   4  -3   55.45    6.32
   3   6   0    1.54    4.36
   4   4  -4   32.97    5.72
   4   5  -3    8.48    4.65
   5   4  -5    8.00    4.44
   5   5  -4   34.42    6.44
   6   0  -7  471.35   10.75
   6   2  -7   22.34    5.14
   8   4  -7    4.86    5.77
  10   0  -9   45.90    5.30
  -3   4  10    0.42    2.07
  -2   5   9    2.61    3.22
  -1   4   4   27.50    3.87
  -1   5   6   55.55    5.90
   0   4   2   89.15    6.34
   0   6   6    9.76    4.15
   2   0  -3  118.46    3.26
   2   5   0   28.35    5.21
   2   6   2    5.53    4.66
   4   6  -1    4.55    4.81
   6   1  -7   45.71    5.09
   7   3  -7   41.78    6.59
   8   2  -8   14.83    4.77
   9   3  -8    3.44    4.88
   0   3   1   80.11    5.24
   1   5   2   57.84    6.66
   1   6   4   17.36    4.53
   2   1  -3 4158.25   26.63
   3   2  -4   43.70    4.45
   3   5  -1   60.88    7.47
   4   2  -5    9.57    3.37
   5   2  -6   67.46    5.90
   6   5  -4   13.07    6.30
   7   4  -6    7.58    4.92
   8   0  -8    2.35    2.98
   8   1  -8   10.35    4.23
   9  -1  -8   28.78    3.93
  -2   4   7  141.69    6.12
  -1   3   3  447.59    9.78
   0   1   0    0.37    1.52
   0   5   4  128.66    7.90
   2   3  -2   28.66    4.19
   2   4  -1    3.12    3.57
   3   6   1    0.14    3.96
   4   5  -2    7.68    4.72
   4   6   0    5.95    5.51
   5   0  -6    2.57    2.02
   5   1  -6  111.15    6.35
   5   5  -3   17.68    5.61
   6   3  -6   12.42    4.31
   6   4  -5   20.06    5.42
   7  -1  -7   29.59    3.02
   8   3  -7    3.68    4.68
   9   2  -8    1.57    4.12
   0   6   7    8.97    4.10
   1   6   5    6.75    4.45
   2   5   1  146.64    9.84
   2   6   3   -2.24    3.45
   3   0  -4  148.08    4.51
   3   1  -4  226.19    7.38
   3   3  -3  102.04    7.01
   3   4  -2   74.93    7.02
   4   0  -5  383.00    8.01
   4   3  -4   50.48    6.27
   4   4  -3    5.12    4.35
   5   3  -5  147.16    9.14
   5   4  -4    0.56    4.36
   7   2  -7    9.93    3.95
   7   5  -4    5.26    5.67
   8   4  -6    5.78    4.98
  -2   5  10    2.70    3.38
  -1   5   7   14.18    3.98
   1   2  -1   73.30    4.54
   1   4   1  306.80   11.22
   3   6   2    2.75    4.86
   6   5  -3   -2.72    5.36
   7   3  -6   48.85    7.00
   7   4  -5   13.71    5.81
   9   0  -8    4.44    3.32
   9   1  -8   19.28    4.66
   9   3  -7    3.94    4.48
  10  -1  -8   13.54    3.52
  -1   4   5   84.86    5.58
   0   4   3  107.18    6.79
   0   5   5   21.21    4.64
   0   6   8    5.83    3.90
   1   3   0  100.62    6.23
   1   5   3   11.10    4.11
   2   6   4    5.10    4.63
   3   5   0   25.94    5.45
   4   5  -1   39.10    6.42
   4   6   1    1.20    4.48
   5   5  -2   15.23    5.70
   6   2  -6  226.14   10.34
   7   0  -7    1.66    3.18
   7   1  -7   33.28    4.48
   8   2  -7   29.20    5.60
  10   1  -8    6.51    4.01
  -3   4  11   -0.53    2.07
   1   6   6    2.15    4.19
   2   4   0   53.96    5.92
   5   2  -5   76.37    6.62
   6   3  -5    1.06    4.40
   6   4  -4    2.08    4.41
   7   5  -3    6.94    5.86
   8   3  -6    1.24    4.69
   8   4  -5   -3.14    4.30
  10   0  -8    4.01    3.80
  -2   3   6   62.00    3.54
  -2   5  11    5.64    3.21
  -1   5   8   11.54    4.09
   2   2  -2  480.36   11.34
   2   3  -1  133.83    7.54
   2   5   2   71.35    6.95
   3   4  -1  309.23   12.65
   3   6   3   -1.41    4.28
   4   2  -4  573.46   14.33
   4   4  -2   22.70    5.39
   4   6   2    5.81    5.57
   5   3  -4  219.03   11.23
   5   4  -3  113.32    9.13
   6   1  -6   84.48    6.25
   6   5  -2   10.85    6.27
   9   2  -7    8.47    4.22
  -2   4   8   12.09    2.96
   0   3   2   88.99    5.19
   1   4   2  170.05    8.88
   1   5   4   25.94    5.29
   1   6   7   13.02    4.84
   2   6   5    7.23    4.73
   3   2  -3  162.69    7.46
   3   3  -2   84.10    6.50
   3   5   1    2.31    3.70
   4   3  -3    4.29    3.78
   4   5   0   38.39    6.95
   5   5  -1    6.55    4.96
   7   2  -6    4.98    3.79
   7   4  -4   17.12    5.53
   8  -1  -7   24.69    3.66
   8   1  -7   23.12    4.21
   9  -2  -7   13.86    2.57
   9   3  -6    1.32    4.34
  -1   3   4  170.30    6.23
   0   2   1   67.11    3.84
   0   5   6    1.31    2.93
   3   6   4    3.70    5.51
   6  -1  -6   80.20    3.71
   6   0  -6   41.15    4.16
   6   4  -3   16.95    6.05
   7   3  -5   46.78    6.46
   7   5  -2   10.04    5.60
   8   0  -7   23.69    4.10
   8   4  -4    7.26    5.79
   9   1  -7   12.57    4.42
  -3   3   9   69.45    3.00
  -2   5  12    1.37    2.94
  -1   4   6   63.96    5.02
   0   4   4  143.85    7.62
   1   1  -1 2628.48   18.15
   2   4   1  199.15   10.10
   2   5   3   20.55    5.10
   2   6   6   16.46    5.50
   4   6   3    1.50    4.62
   5   1  -5  101.79    6.18
   5   4  -2   88.66    8.82
   6   2  -5  196.01   10.12
   6   5  -1   -0.61    4.70
   8   2  -6   10.20    4.80
   8   3  -5    8.08    5.36
  10   1  -7   16.35    4.66
  -1   5   9   12.07    3.72
   1   3   1  450.94   11.88
   1   5   5    4.12    4.10
   3   4   0  224.13   10.97
   3   5   2   13.22    4.76
   4   4  -1   73.58    7.76
   4   5   1    5.73    5.34
   5   5   0   22.59    5.85
   6   3  -4   19.93    5.22
   7   1  -6   43.85    5.43
   7   4  -3   11.71    5.94
   9  -1  -7    7.82    3.65
   9   0  -7    8.03    3.68
   9   2  -6   18.22    5.20
   9   3  -5    2.97    4.88
  -3   4  12    0.36    2.18
  -2   2   5  214.14    4.14
   0   5   7    9.57    4.19
   3   6   5    4.85    4.69
   4   1  -4  801.20   14.28
   5   2  -4   33.82    5.25
   5   3  -3   30.56    5.40
   7   5  -1    1.61    4.97
  10   0  -7    1.85    3.75
  10   2  -6    4.77    4.71
  -2   4   9    3.29    2.67
   1   4   3   34.32    4.69
   2   1  -2  847.06   11.96
   2   3   0   83.45    5.98
   2   5   4   13.05    5.06
   3   1  -3  306.09    8.22
   3   3  -1   12.31    4.38
   4   3  -2  154.68    8.82
   5   0  -5  160.71    6.02
   6   4  -2   11.16    5.03
   6   5   0   12.97    5.84
   7   2  -5   40.31    5.71
   7   3  -4   39.98    6.19
   8   1  -6   53.63    6.02
   8   4  -3    4.58    5.22
  10  -1  -7   21.73    4.12
  -1   5  10    6.52    3.41
   0   3   3  201.54    7.52
   0   4   5   11.17    3.71
   2   2  -1  425.26   10.75
   2   4   2   46.88    6.06
   3   5   3   20.16    5.20
   4   2  -3  145.65    7.53
   4   5   2   39.25    7.12
   5   4  -1   73.04    7.92
   5   5   1    4.03    5.24
   6   1  -5  110.48    6.89
   7  -2  -6    5.88    1.74
   7   0  -6   -0.90    2.57
   7   5   0    5.61    6.01
   8   3  -4    8.30    5.35
  -1   4   7   68.08    5.12
   0   5   8    5.40    3.98
   1   5   6    8.18    3.56
   3   2  -2  676.43   14.32
   3   4   1   71.75    6.92
   4   4   0   66.13    7.22
   6   3  -3   84.29    7.81
   7   4  -2    1.82    4.62
   8   2  -5   14.36    4.45
   9   1  -6    0.39    3.82
   9   3  -4    4.16    4.40
  10   1  -6   13.39    4.57
  -2   3   7   22.49    2.46
  -1   3   5   37.56    3.57
   2   5   5    1.77    4.23
   5  -1  -5  100.72    3.60
   5   3  -2   86.26    7.97
   6   2  -4   22.50    4.74
   6   4  -1   27.33    5.93
   6   5   1   38.88    7.36
   7  -1  -6   40.72    3.48
   8   4  -2   29.79    6.72
   9   2  -5    9.99    4.29
  10   2  -5    7.30    4.95
  -3   4  13   19.31    3.08
  -1   5  11   11.66    3.93
   1   3   2   26.76    4.07
   1   4   4   16.54    4.38
   3   5   4   46.95    6.52
   4   0  -4  322.67    7.37
   4   5   3   26.90    5.91
   5   5   2    6.35    5.05
   7   1  -5    8.92    4.01
   7   3  -3    7.71    4.50
   8   0  -6    1.05    3.16
  -2   4  10   30.23    3.71
   0   5   9   -0.82    3.56
   1   5   7    2.20    3.43
   2   3   1  299.85   10.54
   2   4   3   22.24    5.10
   4   3  -1  181.76    9.41
   4   4   1   27.34    6.53
   5   1  -4   75.60    5.24
   5   2  -3   13.10    3.78
   5   4   0   10.45    5.06
   6   5   2    8.35    6.18
   7   2  -4   57.75    6.39
   7   4  -1   -1.98    4.40
   8   3  -3    0.47    4.19
   9   0  -6    4.45    3.51
   9   3  -3    6.18    5.18
  10   0  -6    2.19    3.18
  -1   4   8   18.85    3.94
  -1   5  12    3.41    3.51
   0   2   2 1765.06   16.98
   0   4   6   16.41    3.90
   2   5   6    1.99    4.23
   3   3   0   65.01    5.81
   3   4   2   15.10    4.55
   5   5   3   15.30    5.43
   6   0  -5   46.56    4.09
   6   3  -2  105.50    8.54
   6   4   0   13.10    5.86
   8  -1  -6   51.89    4.42
   8   1  -5   22.42    4.88
   8   2  -4    8.24    4.72
   8   4  -1   12.37    5.62
   1   5   8    6.51    4.23
   3   5   5   -0.97    3.84
   4   2  -2   33.98    4.29
   4   5   4    1.47    4.28
   7   3  -2    5.85    5.06
   9  -1  -6    2.17    3.30
   9   1  -5    0.02    3.79
   9   2  -4    4.40    4.04
  10  -1  -6   10.80    3.80
  10   1  -5   -2.90    3.50
  10   2  -4   -0.20    3.98
   0   3   4  113.83    5.80
   0   5  10    2.63    3.41
   1   4   5    8.17    3.97
   3   0  -3  775.79    9.55
   3   2  -1   20.39    4.10
   4   1  -3  605.52   12.35
   5   3  -1   59.06    6.51
   5   4   1   25.60    5.83
   6   1  -4    7.20    3.60
   6   2  -3  244.59   10.78
   6   5   3    2.96    4.93
   7   4   0    1.21    4.63
   8   3  -2    0.93    4.88
   8   4   0    1.64    5.48
   1   2   1  142.06    5.75
   2   2   0  196.76    7.32
   2   5   7    5.04    3.80
   4   4   2    5.73    4.33
   5   5   4    8.68    4.84
   9   3  -2    3.14    4.78
  -8   1  -3   18.69    4.59
  -8   2  -1    1.81    3.96
  -8   3   0   12.97    5.58
  -8   4   1   10.76    5.04
  -7   2   0   12.06    4.99
  -7   4   2    1.54    4.59
  -6   2   1   45.07    5.50
  -6   3   2  113.61    9.16
  -6   5   3    4.75    5.46
  -4   0  -1  513.54    9.71
  -4   6   4    1.93    4.61
  -1   2   3  180.19    5.90
  -9   1  -5    2.38    3.69
  -9   2  -3    1.19    4.15
  -7   0  -4   -1.33    2.85
  -7   3   1    2.06    4.03
  -7   5   2   13.08    5.34
  -5   4   3  121.59    9.24
  -4   3   3    9.81    3.69
  -4   5   4   15.72    4.62
  -3  -1  -3  571.29    5.74
  -3   4   4   67.59    6.07
   2   5   4   15.64    2.94
   2   6   4    8.40    3.21
  -9   3  -2    4.13    4.39
  -8   0  -6    3.97    3.20
  -8   4   0    2.72    5.33
  -7   1  -2   19.78    4.03
  -6  -1  -6   47.32    3.67
  -6   0  -3  261.16    8.67
  -6   1  -1   10.77    3.83
  -5   0  -2   65.62    4.39
  -5   1   0  233.58    8.64
  -5   5   3   20.31    5.96
  -4   2   2   35.37    4.31
  -3   5   4   11.97    3.83
  -3   6   4    0.21    3.67
  -2   4   4   24.49    4.47
   1   4   4   10.43    2.36
   4   6   3    0.69    2.20
  -9   1  -6    6.77    3.93
  -9   2  -4    5.68    4.43
  -8   1  -4    3.65    3.67
  -8   2  -2    6.58    4.02
  -8   3  -1    6.73    5.23
  -7  -1  -8    5.21    2.81
  -7   4   1    3.64    4.91
  -7   5   1    2.04    5.26
  -6  -2 -11    9.36    1.72
  -6   4   2    8.54    4.58
  -6   5   2   10.65    5.92
  -5   3   2   83.73    7.12
  -3   1   1  121.30    5.40
  -3   3   3   98.32    6.69
  -2   5   4   40.58    5.51
  -2   6   4    1.44    3.41
  -1   4   4   28.00    4.13
  -1   6   4   20.20    4.51
   0   4   4  140.13    6.42
   0   6   4    2.75    3.18
   1   5   4   40.52    4.41
   1   6   4   22.90    3.93
   4   5   3   23.57    2.44
  -7   2  -1    8.94    3.97
  -7   3   0   54.39    6.71
  -6   2   0   21.32    5.16
  -6   3   1   22.04    5.29
  -5   2   1   52.77    5.32
  -4   4   3   -0.16    3.74
  -4   5   3    5.12    4.71
  -4   6   3    3.16    4.30
  -3   2   2  694.58   14.11
  -1   5   4   61.54    5.86
   0   5   4  136.05    7.26
  -8   0  -7    4.94    3.26
  -8   4  -1    2.16    4.61
  -7   0  -5   87.96    6.14
  -7   1  -3    6.88    4.01
  -5  -1  -5  156.10    4.98
  -5   4   2   85.89    8.36
  -2   3   3  146.93    7.16
  -9   2  -5    4.33    4.05
  -8   1  -5   32.52    5.33
  -8   2  -3   17.85    4.67
  -8   3  -2    3.31    4.62
  -7   4   0    4.23    4.59
  -7   5   0    0.39    4.66
  -6   4   1   25.23    5.64
  -6   5   1    3.15    5.50
  -5  -2  -9   11.29    1.50
  -5   5   2   12.53    5.20
  -4  -1  -4   12.35    1.65
  -4   1   0  485.16   11.33
  -4   3   2  154.19    8.45
  -3   0  -1  588.97    9.00
  -3   4   3   53.28    5.69
  -3   5   3   35.42    5.68
  -3   6   3    1.38    3.59
   2   3   3  121.69    3.66
  -8   0  -8    1.38    3.35
  -8   4  -2    1.48    5.13
  -7  -1  -9    2.29    2.73
  -7   2  -2    3.28    4.34
  -7   3  -1   13.84    4.86
  -6   0  -4   74.95    5.23
  -6   1  -2   34.34    4.39
  -5   1  -1   37.42    4.47
  -4   2   1   43.48    4.61
  -4   6   2   11.21    5.50
  -2   1   1 1635.97   16.12
  -2   2   2  474.90   10.74
  -2   6   3    4.96    4.09
  -1   3   3  431.44   10.53
   3   6   3    0.95    2.58
  -8   2  -4    3.48    4.39
  -8   3  -3   -6.57    4.38
  -7   0  -6   -0.02    3.59
  -7   4  -1   12.40    5.93
  -6  -1  -7  137.97    5.64
  -6   2  -1  184.55    9.86
  -5   2   0   30.74    5.02
  -4   4   2   24.16    5.08
  -4   5   2    9.91    5.09
  -2   4   3   10.34    3.43
  -2   5   3   34.07    5.45
  -1   6   3   30.31    5.15
   0   3   3  200.00    6.56
   1   3   3  160.12    5.16
   3   4   3    3.63    1.66
  -8   1  -6    2.79    3.88
  -7   1  -4  102.58    7.46
  -6   4   0   16.45    5.15
  -6   5   0   11.79    6.16
  -5   0  -3  128.78    5.68
  -5   4   1   79.66    7.54
  -5   5   1   -0.24    4.27
  -4   0  -2  156.94    5.72
  -3   3   2   95.51    6.42
  -3   6   2   12.72    5.02
   0   6   3    6.20    3.61
   1   6   3    8.67    3.44
   2   6   3    2.21    2.97
   3   5   3   30.19    3.35
  -8   0  -9    2.70    3.32
  -7   2  -3   50.78    6.69
  -7   3  -2   33.08    5.83
  -6  -2 -12    0.35    1.67
  -1   2   2   47.81    3.76
  -1   4   3   77.06    5.51
  -1   5   3   38.24    4.87
  -8   2  -5    2.19    3.50
  -8   3  -4   11.14    4.70
  -7  -1 -10    0.07    2.70
  -7   4  -2   14.79    5.50
  -6   1  -3  173.82    8.61
  -6   3  -1  112.90    8.57
  -5   3   0   29.30    5.82
  -4   3   1  194.38    9.47
  -4   6   1    4.14    4.59
  -3   1   0  617.61   11.51
  -3   2   1   21.77    3.58
  -3   4   2   83.55    6.87
  -3   5   2   14.87    4.26
  -2   6   2    3.06    4.07
  -1   1   1 2604.86   17.04
   0   4   3  101.35    5.80
   0   5   3  161.80    8.11
   1   5   3    6.09    3.15
   2   4   3   18.25    2.48
   2   5   3   23.22    3.44
  -8   1  -7    6.56    3.46
  -7   0  -7    7.47    3.45
  -7   1  -5   60.74    6.24
  -6   0  -5  155.32    7.21
  -6   2  -2   38.77    5.45
  -6   4  -1   -2.50    4.05
  -6   5  -1   46.46    7.38
  -5   1  -2   91.55    6.11
  -5   5   0   19.26    6.25
  -4   4   1   72.51    7.16
  -4   5   1   36.13    5.98
  -2   3   2   27.27    3.78
   1   4   3   33.88    3.41
  -8   2  -6    7.00    4.43
  -8   3  -5    3.19    4.51
  -7   2  -4    9.20    4.88
  -7   3  -3   12.79    4.84
  -6  -1  -8   28.74    3.52
  -5  -1  -6    3.11    1.88
  -5   2  -1   57.61    5.65
  -5   4   0    9.35    4.81
  -4   1  -1  198.26    7.55
  -4   2   0   73.56    5.64
  -3   6   1   -2.62    3.49
  -2   4   2   29.34    4.92
  -2   5   2   26.62    4.79
  -1   6   2   12.17    4.50
   0   2   2 1726.56   15.22
   4   6   2    2.29    2.54
  -8   1  -8    6.87    3.90
  -7  -1 -11    9.39    3.02
  -7   4  -3   26.27    6.00
  -6   3  -2   62.90    7.44
  -6   5  -2    9.18    5.89
  -4   6   0    8.39    5.04
   0   6   2    1.92    3.51
   5   5   2    7.87    1.98
  -8   2  -7    3.88    4.22
  -8   3  -6    4.28    4.51
  -7   0  -8    7.47    3.49
  -7   1  -6   26.20    4.96
  -7   3  -4   14.54    5.64
  -6   1  -4   40.39    5.34
  -6   4  -2    5.88    4.63
  -5   0  -4    2.64    2.42
  -5   3  -1    2.89    4.85
  -5   5  -1   10.13    5.78
  -4   5   0   28.61    6.36
  -3   3   1    9.44    3.43
  -3   4   1  319.48   12.69
  -3   5   1   62.48    6.73
  -2   0  -1   91.40    3.17
  -2   6   1    0.39    4.10
  -1   3   2  257.03    8.53
  -1   5   2   57.71    6.21
   1   6   2   24.95    4.45
   3   6   2    5.26    3.12
  -8   1  -9    1.83    3.61
  -7   2  -5    9.44    4.76
  -7   4  -4   18.23    5.97
  -6   0  -6  548.85   13.04
  -6   2  -3    6.94    4.00
  -5   4  -1   22.00    5.55
  -4   3   0   59.52    5.96
  -4   4   0   57.40    7.11
  -3   6   0   -0.06    4.39
  -2   2   1  412.75   10.11
  -1   4   2   16.66    3.98
   2   6   2    0.96    3.04
  -8   2  -8    4.16    4.51
  -6   3  -3    3.72    5.07
  -6   5  -3    8.37    5.28
  -5   1  -3   21.84    4.13
  -5   2  -2    2.82    3.39
  -4   0  -3  367.77    8.59
  -4   6  -1    1.03    4.56
  -2   5   1   51.75    6.47
  -1   6   1    4.69    4.14
   0   5   2   75.76    6.28
   1   2   2   27.96    2.01
  -7   0  -9   16.34    3.97
  -7   1  -7    8.68    4.09
  -7   3  -5    9.04    5.07
  -7   4  -5    7.02    5.08
  -6  -1  -9   13.25    3.12
  -6   4  -3   18.35    5.51
  -5  -2 -10    2.33    1.61
  -5   5  -2    6.23    4.97
  -4  -1  -5    3.22    1.43
  -4   2  -1  137.44    7.43
  -3   0  -2   41.24    3.00
  -3   2   0   11.11    3.32
  -3   5   0   27.06    5.67
  -2   1   0   72.14    3.97
   0   1   1 4444.77   17.05
   0   3   2   91.86    4.92
   1   5   2   67.42    5.77
  -7   2  -6    4.03    3.74
  -6   1  -5  111.81    7.23
  -6   2  -4  122.29    8.34
  -6   5  -4   21.12    6.15
  -5   3  -2   29.97    5.51
  -5   4  -2    3.40    4.21
  -4   1  -2  131.41    6.40
  -4   5  -1    0.86    4.27
  -4   6  -2    1.56    5.28
  -3   6  -1    0.99    4.77
  -2   3   1  122.13    6.72
  -2   4   1    4.76    3.42
  -2   6   0   10.53    4.49
   0   4   2   85.74    5.45
   0   6   1    4.16    4.03
   4   5   2   34.54    3.36
  -7   0 -10    3.96    3.58
  -7   3  -6    9.69    4.70
  -7   4  -6   -4.61    4.26
  -6   0  -7   -0.18    3.26
  -6   3  -4   19.49    5.76
  -6   4  -4   12.55    5.30
  -5   0  -5   68.56    4.81
  -4   3  -1   22.87    4.64
  -4   4  -1   22.35    5.28
  -3   1  -1   14.12    2.81
  -3   3   0   61.52    5.64
  -3   4   0  212.06   10.53
  -1   5   1   97.53    7.62
   2   5   2   72.08    5.14
   3   5   2   11.44    2.87
  -7   1  -8    3.43    3.08
  -7   2  -7   -1.81    4.13
  -5   2  -3  237.83   10.72
  -5   5  -3   19.44    5.78
  -1   2   1   64.48    4.08
  -1   6   0    6.28    4.39
   1   4   2  160.15    6.68
   1   6   1    9.61    4.02
  -7   3  -7    3.02    4.15
  -6  -1 -10    4.75    3.08
  -6   1  -6   43.13    5.70
  -6   2  -5   -1.02    3.57
  -6   4  -5   14.96    6.28
  -5   1  -4  222.35    9.23
  -5   3  -3  114.30    9.07
  -5   4  -3   22.91    5.56
  -4   5  -2   37.40    6.47
  -4   6  -3    3.04    4.67
  -3   5  -1    4.68    4.27
  -3   6  -2    6.12    5.47
  -2   5   0   25.89    5.32
  -2   6  -1    9.20    5.09
  -1   4   1    8.33    3.76
   1   3   2   20.94    2.55
   2   6   1   12.07    3.70
   4   6   1   -0.61    2.79
   5   4   2    1.88    1.28
  -7   0 -11   -0.98    3.39
  -7   1  -9    2.59    3.82
  -7   2  -8    4.54    4.49
  -6   3  -5    5.24    3.97
  -5   5  -4    5.96    5.32
  -4   2  -2  377.34   11.99
  -4   4  -2    6.58    4.38
  -3  -1  -4   69.47    2.50
  -1   3   1   38.43    3.95
   0   5   1   17.57    3.97
   0   6   0    4.60    4.09
   2   4   2   39.51    3.52
   3   6   1    3.04    3.06
  -7   3  -8   -2.38    4.25
  -6   0  -8   32.51    4.62
  -4   0  -4   41.11    3.60
  -4   3  -2   18.66    4.52
  -4   5  -3   24.72    6.64
  -3   2  -1   13.62    3.29
  -3   4  -1   64.93    6.76
  -2   2   0  199.56    7.45
  -2   4   0   47.49    5.56
  -7   1 -10    2.77    3.82
  -7   2  -9    4.16    4.44
  -6  -1 -11    6.48    3.32
  -6   1  -7  125.49    8.26
  -6   2  -6   22.89    4.88
  -6   3  -6   10.74    5.43
  -6   4  -6   22.34    5.91
  -5  -2 -11    6.19    2.09
  -5   0  -6   44.89    4.60
  -5   2  -4   19.35    4.50
  -5   3  -4   39.84    7.03
  -5   4  -4   83.04    8.34
  -5   5  -5   13.71    5.66
  -4   1  -3  178.24    7.47
  -3   3  -1   16.61    3.99
  -3   5  -2   13.67    5.52
  -3   6  -3   -3.68    4.33
  -2   3   0   74.81    5.66
  -2   5  -1  152.94   10.10
  -2   6  -2    4.39    4.82
  -1   5   0   -0.17    3.51
  -1   6  -1    5.71    3.89
   1   5   1  195.53    8.87
   2   3   2   25.84    2.43
   3   4   2   17.26    2.28
   4   4   2    8.32    1.76
  -6   4  -7   -0.48    5.30
  -5  -1  -8   47.19    3.90
  -5   1  -5  161.25    8.30
  -4   4  -3   26.03    6.15
   0   4   1   52.82    4.72
   1   6   0    2.81    3.20
  -7   1 -11   10.76    4.38
  -7   2 -10   13.72    4.86
  -6   0  -9   66.16    5.83
  -6   2  -7   14.93    5.23
  -6   3  -7   18.38    5.92
  -5   4  -5   55.22    7.41
  -5   5  -6    0.07    4.73
  -4   2  -3   10.14    4.17
  -4   5  -4    3.09    5.07
  -3   1  -2  484.69   10.93
  -3   6  -4   12.63    6.02
  -1   1   0  478.05    7.78
   2   5   1  158.11    7.59
   2   6   0    9.72    4.37
  -6  -1 -12    9.34    3.57
  -6   1  -8   27.96    5.16
  -6   4  -8    3.36    5.56
  -5   2  -5   97.27    7.95
  -5   3  -5   28.79    6.56
  -4  -1  -6   97.27    3.99
  -4   3  -3   22.17    4.85
  -3   0  -3  336.52    7.45
  -3   4  -2   21.45    5.01
  -3   5  -3   19.12    5.96
  -2   1  -1  603.42   10.62
  -2   4  -1  207.02   10.14
  -2   6  -3   -0.56    4.63
  -1   4   0   69.25    5.88
  -1   6  -2   22.14    5.72
   0   2   1   65.72    3.51
   0   3   1   78.63    4.70
   0   5   0    1.42    3.23
   0   6  -1   -0.45    3.29
  -6   0 -10   17.80    4.58
  -6   2  -8   22.03    5.49
  -6   3  -8    7.08    5.27
  -5   4  -6   -0.43    5.24
  -5   5  -7    3.28    5.05
  -4   4  -4   32.96    6.83
  -4   5  -5   20.70    6.75
  -3   3  -2   16.37    4.16
  -2   5  -2   68.70    7.16
  -1   5  -1  203.81   10.66
   1   4   1  295.83    9.34
   3   3   2   12.04    1.61
   3   5   1    3.05    3.00
   3   6   0    3.85    3.48
  -6   1  -9   13.20    4.52
  -5  -2 -12    2.40    2.36
  -5   0  -7    2.00    2.86
  -5   1  -6    5.87    4.04
  -4   1  -4   14.05    3.56
  -3   2  -2  106.21    6.39
  -3   6  -5    7.15    5.14
  -2   3  -1  310.43   10.83
  -1   3   0   98.31    5.89
   1   6  -1    5.69    4.08
   4   5   1    4.58    2.85
   4   6   0   11.22    3.75
   6   5   1   37.55    2.97
  -6   2  -9    2.90    4.59
  -6   3  -9   -2.40    3.83
  -5  -1  -9   32.34    3.71
  -5   2  -6  123.64    8.83
  -5   3  -6   57.96    6.84
  -5   4  -7   -0.51    5.27
  -4   0  -5  290.81    8.35
  -4   3  -4   22.40    5.02
  -4   5  -6    7.03    6.23
  -3   4  -3    4.92    4.27
  -3   5  -4   39.08    6.55
  -2   2  -1  162.25    7.05
  -2   6  -4    1.89    4.74
  -1   2   0  440.01    9.78
  -1   6  -3   13.67    5.36
   0   6  -2    1.94    4.26
   1   5   0    2.36    3.64
   5   5   1    4.61    2.37
  -6   0 -11   -0.66    3.36
  -6   1 -10    5.95    4.19
  -6   3 -10    2.97    5.46
  -4   2  -4   70.60    6.10
  -4   4  -5   21.46    5.37
  -2   0  -2   22.12    2.13
  -2   4  -2   36.99    6.08
  -2   5  -3   21.95    5.25
   0   4   0    6.96    3.00
   0   5  -1   23.89    5.18
   2   6  -1   -1.02    3.15
  -6   2 -10    5.08    4.61
  -5   1  -7  329.19   12.03
  -5   3  -7    2.98    4.22
  -5   4  -8   16.97    5.45
  -4   5  -7   10.25    6.21
  -3   3  -3   48.52    6.14
  -3   5  -5    0.81    5.37
  -2   6  -5    3.49    5.59
  -1   4  -1  311.91   11.56
  -1   5  -2   64.00    7.07
   1   3   1  435.44    9.37
   2   4   1  191.36    7.04
  -6   0 -12   10.02    3.75
  -6   1 -11    3.59    3.97
  -5  -2 -13    2.70    2.52
  -5   0  -8   97.67    6.22
  -5   2  -7   43.19    6.22
  -4   3  -5   85.43    7.66
  -4   4  -6   63.99    7.67
  -3   1  -3  607.93   12.50
  -3   4  -4   19.87    5.26
  -1   6  -4   19.19    5.79
   1   6  -2   10.99    4.56
   2   5   0   30.95    4.65
  -6   0 -13   15.10    4.45
  -6   2 -11    7.55    4.19
  -5  -1 -10    7.65    3.07
  -5   3  -8   22.42    5.45
  -5   4  -9    0.44    4.84
  -4  -2  -9   24.16    2.29
  -4   1  -5   -0.31    2.51
  -4   2  -5   27.28    5.19
  -4   5  -8    1.17    4.73
  -3   2  -3  144.06    7.51
  -2   3  -2   34.27    4.66
  -2   5  -4   15.48    5.01
  -2   6  -6   12.95    6.45
   0   6  -3    3.85    3.91
   3   6  -1    1.19    3.08
  -6   1 -12    2.93    4.03
  -6   2 -12    2.15    4.13
  -5   1  -8   42.14    5.84
  -5   2  -8   50.29    6.72
  -5   4 -10    2.99    4.90
  -4  -1  -7  181.66    5.79
  -4   4  -7   -2.31    5.06
  -3   5  -6    3.23    4.76
  -2   4  -3   20.69    4.89
  -1   3  -1  443.53   12.05
  -1   5  -3    4.43    4.80
   0   3   0    0.38    2.19
   1   4   0   69.66    5.34
   1   5  -1  101.02    7.38
   4   6  -1    2.34    3.56
  -5   0  -9    1.53    3.09
  -5   3  -9    5.69    4.61
  -4   0  -6   51.01    4.23
  -4   3  -6   90.84    8.04
  -3   3  -4   17.64    4.48
  -3   4  -5   29.94    5.68
  -2   2  -2  532.40   12.56
  -1   4  -2  154.89    8.76
  -1   6  -5    4.40    4.39
   0   4  -1   56.00    5.65
   0   5  -2   66.71    6.62
   0   6  -4    2.98    4.54
   1   2   1  140.50    4.24
   2   6  -2    7.77    4.05
   3   4   1   62.33    4.07
   3   5   0   30.08    4.11
  -5  -1 -11   16.57    3.77
  -5   2  -9   22.42    5.70
  -5   3 -10    2.33    5.11
  -4   2  -6    3.62    4.28
  -4   4  -8   -0.04    4.46
  -3   0  -4   10.59    2.45
  -3   5  -7    3.16    4.79
  -2   1  -2  226.74    6.95
  -2   5  -5    3.16    4.35
   1   6  -3   28.00    5.04
  -5   1  -9   31.18    4.90
  -4   1  -6   98.24    6.37
  -4   3  -7    2.96    4.09
  -3   2  -4   63.71    5.57
  -3   4  -6  209.53   12.41
  -3   5  -8    3.78    5.78
  -2   3  -3  112.88    7.71
  -2   4  -4    8.02    4.34
  -1   2  -1  139.74    6.06
  -1   5  -4   37.65    6.64
  -1   6  -6    2.96    4.83
   2   5  -1   54.89    5.55
   3   6  -2   17.22    4.15
   4   5   0   33.29    4.03
  -5   0 -10   25.42    4.49
  -5   2 -10    3.22    3.92
  -5   3 -11   17.43    5.50
  -4   4  -9    0.94    4.69
  -3   1  -4   77.63    5.20
  -3   3  -5   11.94    4.39
  -2   5  -6    3.49    4.54
   0   2   0  465.68    9.03
   0   5  -3  174.55   10.31
   0   6  -5    6.71    4.98
   1   5  -2   49.91    6.11
  -5   1 -10    8.94    3.76
  -5   3 -12   10.10    5.38
  -4   2  -7   29.02    5.08
  -4   3  -8    1.34    4.34
  -4   4 -10   14.69    5.85
  -3   5  -9    0.73    4.82
  -1   1  -1 1186.33   12.84
  -1   4  -3   40.07    5.48
  -1   6  -7   11.18    5.38
   1   6  -4   24.67    5.09
   2   6  -3   11.01    3.94
  -1   2 -10   59.56    6.51
  -1   3 -11   53.88    7.46
  -1   3   1   43.47    3.48
  -1   4 -12    4.95    4.94
  -1   4 -11    2.29    5.47
  -1   4   1    4.56    2.84
  -1   5 -10    5.05    5.65
  -1   6  -7   14.20    5.50
  -1   6  -6    2.30    4.58
  -1   6  -5    1.75    3.99
  -1   6  -4   24.67    5.27
   0   0 -11   39.68    4.32
   0   1 -14   66.83    6.81
   0   6   3    6.86    3.31
   1   0 -16    0.63    3.56
   1   1 -18    4.52    4.07
   1   6   6    4.88    2.83
   2  -2 -12   91.81    3.58
  -1   2  -9   62.91    6.30
  -1   2  -1  135.82    5.72
  -1   4 -10   20.68    6.21
  -1   4   0   63.72    5.44
  -1   5  -9   30.56    6.57
  -1   5  -8    8.43    5.60
  -1   5  -2   61.34    6.78
  -1   5  -1  198.19    9.69
   0   2 -15    9.42    5.05
   0   3 -16    1.46    4.62
   0   3   5  112.77    3.07
   0   4   5   12.33    2.11
   1  -1 -12   17.42    3.01
   3  -2 -16    3.69    2.59
  -1   2  -8  325.11   11.79
  -1   3  -9  158.31   10.60
  -1   3   0   98.87    5.52
  -1   4  -9    6.63    4.63
  -1   5  -7    1.42    3.86
  -1   5  -6    8.05    4.47
  -1   5  -5   -2.99    4.33
  -1   5  -4   45.47    6.65
  -1   5  -3   14.72    4.43
   0   0 -10   52.48    4.26
   0   1 -13    6.16    3.74
   0   3 -15   15.23    6.18
   0   5   4  144.31    6.46
   0   6   2    7.35    3.71
   1   0 -15   47.40    5.57
   1   1 -17    3.29    4.00
   1   5   7    1.58    1.95
   2  -1 -16   11.72    3.83
  -1   2  -7  114.10    7.14
  -1   2  -6   -0.73    3.59
  -1   2  -3  214.08    8.02
  -1   2  -2   35.44    3.65
  -1   3  -8  142.83    9.26
  -1   4  -8   79.99    7.99
  -1   4  -7   57.28    7.40
  -1   4  -2  176.14    9.01
  -1   4  -1  297.48   10.56
   0   0  -9   15.18    3.04
   0   2 -14    8.08    4.27
   0   4 -14   -3.58    4.71
   2   0 -18    3.69    3.35
  -1   2  -5  327.94   10.42
  -1   2  -4  265.11    9.08
  -1   3  -7  160.38    9.31
  -1   3  -6  108.23    7.96
  -1   3  -2   18.62    3.94
  -1   4  -6   31.60    5.59
  -1   4  -5   12.48    4.44
  -1   4  -4   23.79    4.77
  -1   4  -3   36.98    5.10
   0   1 -12  127.10    7.87
   0   2 -13   22.82    5.54
   0   3 -14    2.37    4.47
   0   5 -12    3.74    5.41
   0   6   1    4.28    4.09
   1  -1 -11  158.70    5.92
   1   1 -16    5.77    4.17
   1   2 -17   -1.45    4.58
  -1   3  -5   13.00    3.91
  -1   3  -4   80.25    6.14
  -1   3  -3  159.09    7.74
   0   0  -8  163.29    6.37
   0   1 -11   44.56    5.64
   0   3 -13   16.59    5.32
   0   4 -13    1.45    4.99
   0   5 -11   16.96    6.53
   0   5   3  188.80    7.90
   0   6  -8    4.37    4.84
   0   6  -1    1.97    4.06
   0   6   0    2.03    3.80
   1   0 -14    4.58    3.51
   1   6   5    8.48    3.44
   2  -1 -15   11.51    3.64
   0   2 -12   75.60    7.39
   0   4 -12   51.07    7.64
   0   4   4  135.87    5.36
   0   5 -10    3.56    5.91
   0   6  -7   13.43    5.53
   0   6  -6   15.21    5.12
   0   6  -5    6.76    4.95
   0   6  -4    0.53    4.36
   0   6  -3    7.11    4.67
   0   6  -2    5.72    4.37
   1   1 -15   21.46    5.28
   1   2 -16    1.99    4.48
   2   0 -17   -1.27    3.12
   0   0  -7 1090.23   14.47
   0   1 -10    7.79    3.81
   0   3 -12   20.73    5.44
   0   4 -11    6.87    4.98
   0   5  -9   -0.40    5.25
   0   5   2   75.91    5.91
   1  -1 -10   26.93    2.83
   1   0 -13    1.60    3.20
   1   3 -16    2.88    4.80
   2  -2 -11    5.96    1.60
   2   1 -18    5.82    4.40
   2   5   9    1.45    1.43
   3  -2 -15    1.09    2.39
   0   0  -6 1325.49   14.69
   0   2 -11  346.34   13.37
   0   3 -11    5.35    4.76
   0   4 -10   14.46    5.89
   0   5  -8    9.47    4.94
   0   5   1   19.17    4.24
   1   2 -15    3.31    4.78
   1   3 -15   -4.96    4.63
   1   6   4   26.50    4.23
   0   1  -9   38.40    4.42
   0   2 -10   46.86    6.58
   0   4  -9   21.74    6.16
   0   5  -7    8.32    4.67
   0   5  -6    2.87    4.87
   0   5   0    2.23    3.65
   1   1 -14   80.39    6.90
   1   4 -14   -2.28    5.33
   1   5   6   15.75    2.89
   2  -1 -14   45.94    4.63
   2   0 -16    0.60    3.49
   2   1 -17    3.60    4.16
   3  -1 -17    3.03    3.48
   0   0  -5   50.94    3.33
   0   3   4  113.02    3.84
   0   4  -8    9.65    5.43
   0   4   3  103.96    5.17
   0   5  -5   15.86    4.65
   0   5  -4  147.63    9.99
   0   5  -3  176.99   10.28
   0   5  -2   79.78    7.38
   0   5  -1   25.56    5.13
   1   0 -12   47.07    4.79
   1   2 -14   22.78    5.68
   1   3 -14   20.16    6.36
   1   5 -12   -0.50    4.75
   1   6   3   10.80    3.65
   0   1  -8  310.93    9.92
   0   2  -9  194.89    9.60
   0   3  -9  269.81   12.37
   0   4  -7   10.53    5.86
   1  -1  -9   11.63    2.14
   1   1 -13   64.34    6.70
   1   4 -13    0.71    4.60
   1   5 -11    3.00    5.62
   1   6  -8    3.37    4.79
   1   6   2   19.05    4.29
   2   2 -17    3.70    4.05
   3   0 -18    0.91    3.31
   0   0  -4   24.96    2.40
   0   2  -8  119.27    7.80
   0   3  -8  219.42   10.89
   0   4  -6   14.83    4.73
   0   4   2   92.57    5.36
   1   2 -13   26.09    5.74
   1   3 -13   67.82    7.73
   1   4 -12   39.57    7.49
   1   5 -10    7.74    5.75
   1   6  -7   12.32    5.41
   1   6  -6    6.48    5.21
   1   6   1   10.37    4.10
   2   0 -15    5.72    3.79
   2   1 -16    9.92    4.49
   0   1  -7    3.91    2.95
   0   3  -7   -0.20    3.69
   0   4  -5    6.96    4.16
   0   4  -4  140.29    8.88
   0   4   1   55.94    4.75
   1   0 -11   31.65    4.04
   1   5  -9   13.79    6.06
   1   5   5    2.00    2.47
   1   6  -5   21.90    5.37
   1   6  -4   25.96    5.90
   1   6  -3   32.05    5.96
   1   6  -2    9.41    4.54
   1   6  -1    0.58    3.99
   1   6   0    6.86    4.20
   2  -1 -13    0.71    2.56
   2   2 -16    2.52    3.89
   2   3 -16   -0.88    4.44
   3  -2 -14    3.18    2.41
   3  -1 -16    8.84    3.74
   4  -3 -14    6.18    1.72
   0   1  -6  605.66   12.42
   0   2  -7   69.01    5.75
   0   3  -6   37.28    5.56
   0   3   3  203.27    5.66
   0   4  -3  104.27    7.23
   0   4  -2   95.58    6.95
   0   4  -1   53.73    5.39
   0   4   0    4.61    2.67
   1   1 -12   28.63    4.64
   1   2 -12   34.58    6.38
   1   3 -12   12.42    4.98
   1   4 -11   11.99    5.21
   1   4   7   49.99    2.50
   2   6   6   15.21    3.29
   0   2  -6  333.27   10.94
   0   3  -5  123.14    7.76
   1  -1  -8  242.38    5.68
   1   4 -10    9.37    4.82
   1   5  -8   20.29    5.50
   1   5  -7   11.16    5.47
   2  -2 -10   15.92    1.63
   2   0 -14    3.05    3.39
   2   1 -15   13.88    4.05
   2   2 -15    1.24    4.56
   2   3 -15   -1.10    4.03
   2   4 -14   16.30    5.75
   2   5 -12    1.65    5.56
   3   0 -17   -0.38    3.12
   0   1  -5  299.71    8.45
   0   3  -4  105.67    6.99
   0   3   2   95.40    4.56
   1   0 -10   16.94    3.27
   1   1 -11  159.21    8.52
   1   3 -11   67.83    7.32
   1   4  -9    2.37    5.15
   1   5  -6   53.91    7.28
   1   5   4   34.18    3.83
   2   6   5    9.21    3.39
   0   2  -5 1044.10   17.72
   0   3  -3  200.32    8.37
   1   2 -11   70.82    6.96
   1   3 -10  216.22   12.10
   1   5  -5   22.92    5.82
   1   5   3   14.57    3.80
   2   1 -14   36.38    5.70
   2   3 -14    8.47    4.89
   2   4 -13   20.64    5.76
   2   5 -11   12.06    5.35
   2   6  -7   21.21    6.38
   3   1 -17    2.21    3.53
   3   2 -17    8.70    4.71
   4  -2 -16    3.66    2.95
   0   1  -4  845.45   12.61
   0   2  -4  967.70   16.20
   0   3  -2   86.26    5.52
   0   3  -1   75.56    5.22
   0   3   0   -1.29    2.37
   0   3   1   84.58    4.63
   1   4  -8   16.06    4.77
   1   5  -4   55.99    6.65
   1   5  -3   31.33    5.78
   1   5   2   69.59    5.82
   2  -1 -12   45.84    3.89
   2   2 -14    9.26    4.35
   2   4 -12    3.30    5.55
   2   5 -10    3.38    4.84
   2   6  -6    7.13    5.47
   2   6   4    5.05    3.39
   3  -1 -15    3.13    2.93
   3   0 -16   -0.23    3.46
   3   3 -16   -1.55    5.32
   0   2   3    1.00    1.19
   1   0  -9  258.49    8.12
   1   1 -10   28.70    4.22
   1   2 -10  373.36   13.17
   1   3  -9   71.66    7.18
   1   4  -7   64.65    7.05
   1   5  -2   55.97    6.02
   1   5  -1  101.23    7.60
   1   5   0   -0.54    3.71
   1   5   1  189.62    8.91
   2   0 -13   -1.14    2.97
   2   3 -13   14.64    5.09
   2   5   8   14.42    2.35
   2   6  -5   14.12    4.90
   2   6   3    1.34    3.58
   3   2 -16   -0.60    4.31
   0   1  -3  500.62    9.03
   1   4  -6   54.92    7.04
   1   4   6   28.29    2.56
   2   1 -13    2.06    4.11
   2   2 -13   42.80    6.67
   2   4 -11    5.60    4.63
   2   5  -9    3.99    4.69
   2   6  -4    2.63    3.88
   2   6  -3   12.33    4.81
   2   6  -2    7.47    4.32
   2   6   2    0.77    3.21
   3  -2 -13   15.16    2.65
   3   1 -16    7.37    3.82
   3   4 -14   24.56    6.92
   4  -1 -17    4.31    3.35
   0   2  -2 1775.06   19.21
   1  -1  -7  145.61    4.02
   1   1  -9    7.48    3.53
   1   2  -9    4.62    3.59
   1   3  -8   60.55    6.42
   2   3 -12   26.08    5.51
   2   5  -8   12.81    5.05
   2   6  -1    6.19    3.48
   2   6   0   10.72    4.15
   2   6   1    8.61    3.89
   3   3 -15   14.02    5.17
   0   1  -2 1924.67   15.66
   0   2  -1   63.90    3.97
   0   2   0  475.16    8.68
   0   2   1   64.56    3.31
   0   2   2 1719.00   12.84
   1   4  -5   74.71    6.84
   2   0 -12    7.49    3.33
   2   4 -10   25.26    5.69
   2   5  -7    8.58    4.61
   3  -1 -14   32.39    4.29
   3   0 -15   24.04    4.73
   3   2 -15    4.03    4.73
   3   4 -13   14.43    6.41
   3   5 -11    7.38    5.12
   1   0  -8  307.73    8.30
   1   2  -8   16.40    3.86
   1   3  -7    5.87    3.75
   1   4  -4   26.94    4.81
   1   4   5    9.41    2.23
   2  -1 -11   57.66    3.91
   2   1 -12   48.14    5.82
   2   2 -12   98.05    7.92
   2   3 -11   21.25    5.06
   2   4  -9   -0.87    4.88
   2   5  -6   16.13    5.61
   2   5   7    6.76    2.56
   3   1 -15    1.26    3.08
   3   3 -14    1.17    4.78
   3   6  -7    1.03    4.28
   4   0 -17    0.28    3.35
   4   1 -17    0.09    4.10
   0   1  -1 4494.37   21.08
   1   1  -8  243.71    8.88
   1   3  -6  133.12    7.94
   1   4  -3   83.38    6.52
   2   5  -5   74.66    7.81
   3   4 -12   -0.56    4.40
   3   5 -10   10.31    5.37
   3   6  -6    8.57    5.03
   4  -2 -15    2.74    2.74
   4  -1 -16   35.97    5.01
   1   2  -7   47.61    5.35
   1   4  -2   22.42    4.03
   1   4  -1    2.94    3.34
   1   4   4   18.40    2.76
   2   2 -11    7.94    4.17
   2   3 -10   26.75    5.84
   2   4  -8    6.19    4.66
   2   5  -4   31.40    5.79
   3   0 -14   10.18    3.87
   3   2 -14    0.70    3.77
   3   3 -13    5.04    4.45
   3   5  -9    0.97    4.32
   3   6  -5   25.33    5.56
   1   3  -5   29.81    4.49
   1   4   0   64.89    5.40
   1   4   1  302.23    9.66
   1   4   2  168.11    7.17
   1   4   3   39.64    3.87
   2  -2  -9    2.48    1.12
   2   0 -11  105.47    6.20
   2   1 -11   72.63    6.38
   2   5  -3   33.92    5.75
   2   5   6    2.14    2.64
   3   1 -14   33.91    5.14
   3   4 -11    4.18    4.47
   3   6  -4    2.63    3.88
   3   6  -3    4.37    4.42
   4   0 -16   -2.98    3.30
   4   2 -16   -0.73    3.65
   4   3 -15   13.42    5.56
   1   1  -7  152.66    7.03
   2   3  -9   10.10    4.39
   2   4  -7  145.10    9.53
   2   5  -2   35.02    5.62
   2   5   5    0.99    2.74
   3  -2 -12  128.07    4.99
   3   2 -13   19.96    5.73
   3   3 -12    9.01    5.40
   3   5  -8    6.14    4.61
   3   6  -2   12.29    4.84
   3   6   4    7.48    3.84
   3   6   5   -0.32    2.70
   4   1 -16   26.37    5.01
   4   4 -13    2.90    5.46
   4   5 -11    0.46    4.63
   1   0  -7  277.89    7.31
   1   2  -6  299.05   10.06
   1   3  -4  160.82    7.92
   2  -1 -10  202.45    6.44
   2   2 -10   22.84    4.66
   2   4  -6   21.24    5.68
   2   5  -1   55.56    5.82
   2   5   0   34.10    5.22
   2   5   4   10.98    3.41
   3  -1 -13   62.20    4.84
   3   4 -10   -0.07    4.06
   3   5  -7   24.71    5.69
   3   6  -1    2.02    3.39
   3   6   0    2.32    3.73
   3   6   1    2.53    3.51
   3   6   2    7.03    3.53
   3   6   3    2.03    3.28
   4  -3 -13    5.57    1.85
   4   2 -15    3.42    4.75
   4   3 -14    6.07    5.38
   0   1   1 4336.01   14.05
   1   3  -3  443.45   12.27
   2   3  -8   19.98    4.76
   2   5   1  155.45    8.38
   2   5   2   79.81    6.28
   2   5   3   18.07    3.79
   3   0 -13   17.89    4.12
   3   1 -13   68.17    6.87
   3   5  -6    7.57    5.12
   4  -1 -15   14.89    3.81
   4   4 -12   -0.14    5.16
   4   5 -10    4.65    4.96
   5  -3 -15    9.89    2.63
   5  -1 -17    3.24    3.57
   1  -1  -6   42.45    2.08
   1   2  -5   80.83    5.61
   2   1 -10  203.92    8.91
   2   2  -9    2.75    4.07
   2   4  -5   30.47    5.22
   3   2 -12  136.44    9.68
   3   3 -11   14.51    5.09
   3   4  -9   16.26    5.08
   3   5  10    0.49    1.68
   4  -2 -14   19.46    3.58
   4   0 -15   64.68    6.54
   4   1 -15   19.87    4.67
   4   5  -9    8.43    5.71
   4   6  -5    2.63    4.39
   5  -2 -16    8.41    3.38
   5   0 -17   19.12    4.80
   5   1 -17    0.78    3.78
   1   1  -6   49.23    4.14
   1   3  -2  258.77    9.02
   2   0 -10   33.57    3.67
   2   3  -7   21.22    5.19
   2   4  -4   25.37    5.35
   3   5  -5   27.56    5.47
   4   2 -14   17.83    5.62
   4   3 -13    1.31    4.68
   4   4 -11    4.44    5.53
   4   6  -4    6.93    5.24
   5   2 -16    5.55    5.36
   5   3 -15   14.83    5.59
   3   1 -12   33.32    5.52
   3   3 -10    9.16    4.83
   3   4  -8   18.82    5.37
   3   5  -4   11.34    5.01
   4   5  -8    8.53    4.92
   4   6  -3    3.39    4.51
   5   4 -13   -2.15    4.46
   1   0  -6  274.74    6.80
   1   2  -4  507.22   11.94
   1   3  -1   35.46    3.84
   2   1  -9  149.45    7.78
   2   2  -8   66.32    5.94
   2   4  -3    5.10    3.52
   3  -1 -12   24.12    3.54
   3   2 -11   52.99    6.35
   3   5  -3   37.47    6.28
   4   1 -14    0.75    4.32
   4   3 -12   24.19    6.32
   4   4 -10   -1.03    5.11
   4   6  -2    5.30    4.09
   5   1 -16   27.46    5.90
   5   5 -10    5.19    5.83
   2   3  -6   55.91    5.82
   2   4  -2   31.12    5.09
   3   0 -12   28.70    4.04
   3   3  -9   75.69    7.91
   3   4  -7    3.60    4.05
   3   5  -2   13.55    5.05
   4  -1 -14    3.67    3.23
   4   2 -13   14.96    4.94
   4   5  -7   24.74    5.87
   4   6  -1    2.98    3.72
   4   6   0   10.83    4.52
   5  -1 -16   32.94    4.98
   5   0 -16    3.57    4.00
   5   2 -15    2.68    4.19
   5   3 -14    3.46    4.85
   5   4 -12    3.32    4.86
   1   1  -5   16.03    2.93
   2  -1  -9  143.87    5.32
   3   4  -6   25.12    6.30
   4   0 -14    6.25    3.35
   4   5  -6    3.29    4.51
   4   6   1    1.78    3.72
   4   6   2    3.77    3.63
   4   6   3    0.16    3.44
   5   5  -9   17.74    5.85
   1   2  -3  172.26    6.94
   2   2  -7   78.78    6.18
   2   3  -5   55.96    5.64
   2   4  -1    3.26    3.07
   3   1 -11   17.58    4.17
   3   2 -10   34.56    5.45
   3   5  -1   64.28    6.42
   4   3 -11   35.59    6.19
   4   4  -9   31.16    6.15
   5   1 -15    9.89    4.97
   5   3 -13    2.47    4.66
   5   4 -11   -0.25    5.83
   2   1  -8   29.59    3.99
   3   3  -8    6.98    4.33
   3   5   0   29.54    4.85
   4   1 -13   58.13    6.35
   4   2 -12   14.50    5.06
   4   5  -5   23.14    5.57
   5   2 -14   25.97    6.21
   5   5  -8    3.69    5.28
 -10  -1   3    2.33    3.63
 -10   1   6   15.09    5.62
  -9   0   5    9.45    4.09
  -8   0   5   24.71    4.73
  -8   2   7   28.43    6.41
  -7  -1   3   18.45    3.96
  -7   1   6   45.89    6.42
  -7   2   7   11.31    4.97
  -5  -2   0   24.92    2.33
  -5   3   7   46.55    6.15
  -3   4   6   27.61    5.24
  -3   5   6    3.13    4.07
  -2   3   5   58.81    4.91
  -2   6   5   13.86    4.19
  -1   6   4   25.45    4.82
   0   6   3    8.96    3.74
  -9  -1   3    7.72    3.65
  -9   1   6    0.94    4.11
  -9   2   7   20.09    5.51
  -8  -1   3    4.68    3.63
  -8   1   6   56.38    6.66
  -6   3   7   35.37    5.87
  -5   0   4   62.56    5.05
  -5   4   7   19.14    4.94
  -5   5   7   12.45    4.64
  -3   2   5  888.34   16.82
  -2   0   2 9999.00   34.83
  -1   3   4  164.53    6.74
   0   3   3  198.33    6.20
 -10  -2   0    1.97    3.26
  -9   3   7   -0.24    5.14
  -7   3   7   38.15    6.36
  -6   4   7    6.35    5.21
  -6   5   7    4.33    4.55
  -5   1   5  104.95    6.90
  -5   2   6   64.37    6.29
  -4   3   6   77.99    6.64
  -3  -1   1  125.06    3.83
  -3   1   4  221.76    7.87
  -2   4   5   28.78    4.21
  -2   5   5   75.27    6.19
  -1   5   4   62.14    5.52
   1   4   2  164.63    5.36
   1   5   2   69.01    4.37
 -10   0   4    0.78    3.35
 -10   2   6    4.83    5.36
  -8   3   7    7.48    4.95
  -8   4   7    5.99    5.19
  -7   4   7    9.08    4.75
  -6   0   4  187.54    8.57
  -6   2   6  235.18   11.48
  -5  -1   2   12.32    2.73
  -4   4   6   12.41    4.82
  -4   5   6    7.72    4.07
  -3   6   5   19.79    4.95
  -2   2   4  242.06    8.08
  -1   4   4   24.82    3.83
   0   4   3  104.09    5.39
   0   5   3  175.73    7.38
 -10  -1   2    3.49    3.61
 -10   1   5    1.43    4.25
  -9  -2   0    8.55    3.58
  -9   0   4    0.14    3.30
  -9   2   6   21.57    5.56
  -8   0   4   53.54    5.83
  -8   2   6    9.24    5.34
  -7   0   4   -0.53    3.09
  -7   2   6    6.47    4.55
  -6  -2   0   16.68    2.55
  -6   1   5  113.98    7.67
  -5   3   6   19.72    4.94
  -3   3   5    3.80    3.67
  -9  -1   2    2.33    3.78
  -9   1   5   -0.65    3.85
  -8  -3  -3    0.74    2.17
  -8  -2   0    1.51    2.92
  -8   1   5   22.92    5.28
  -7  -2   0   14.22    2.91
  -7   1   5    8.95    4.17
  -6  -1   2   25.27    3.63
  -6   3   6   18.40    5.84
  -5   4   6    2.72    3.86
  -5   5   6    9.76    4.39
  -4   0   3  919.47   14.85
  -4   2   5    8.00    3.48
  -3   5   5   31.31    5.46
  -2   1   3 4039.28   27.22
  -2   6   4   -0.85    3.20
  -1   2   3  165.53    5.93
   2   6   0   13.06    2.66
 -10   0   3    2.71    4.05
  -9   3   6    2.37    4.57
  -8  -1   2    5.54    3.51
  -8   3   6   -0.64    4.34
  -7  -3  -3   15.64    2.36
  -7  -1   2   25.17    4.03
  -7   3   6   43.41    6.49
  -6  -3  -3   10.79    1.67
  -6   4   6    0.61    4.89
  -6   5   6    8.40    4.98
  -4   1   4  812.61   15.72
  -4   6   5    3.92    3.91
  -3   4   5    5.43    3.43
  -1   6   3   32.74    4.73
   1   2   1  131.88    2.84
 -10   1   4    1.06    4.58
 -10   2   5    5.08    4.76
  -8   4   6    7.59    5.03
  -7   4   6    8.32    4.82
  -5   0   3  208.91    8.25
  -5   2   5   77.00    6.60
  -4   3   5    5.15    4.25
  -4   5   5   27.33    5.63
  -2   3   4   64.15    5.23
  -2   5   4   36.78    5.21
   0   2   2 1730.98   14.38
   0   6   2    3.50    3.43
   1   6   1    9.38    3.17
   3   5  -1   63.92    2.56
 -10  -1   1    6.04    3.78
  -9   0   3   -1.50    2.88
  -9   1   4   -2.46    4.39
  -9   2   5   11.66    5.07
  -8   2   5   12.81    4.86
  -7   2   5   54.18    7.41
  -6   2   5  186.75   10.10
  -5   1   4   91.08    6.36
  -4   4   5    6.35    3.85
  -3   2   4   36.97    4.21
  -3   6   4    0.47    3.79
  -2   4   4   23.45    4.32
  -1   1   2 2702.68   18.02
  -9  -2  -1   48.05    5.35
  -9   3   5   -4.10    4.19
  -8   0   3    5.06    3.60
  -8   1   4   40.22    6.51
  -7   0   3   14.33    4.36
  -7   1   4   20.79    5.37
  -6   0   3  423.96   12.23
  -6   1   4    8.80    4.48
  -5   3   5  158.92    9.41
  -5   5   5    6.76    4.69
  -4  -1   1  326.55    7.35
  -2  -1   0   63.40    1.78
  -1   5   3   36.27    4.67
 -10   0   2    7.27    4.64
 -10   2   4    6.11    4.80
  -9  -1   1    0.44    3.71
  -8   3   5   23.01    5.74
  -8   4   5    2.81    4.67
  -7   4   5    6.14    5.43
  -6   3   5    5.81    4.06
  -6   4   5   25.08    6.10
  -6   5   5    0.76    4.11
  -5   4   5    7.11    4.11
  -4  -2  -1  145.32    3.48
  -4   6   4    1.52    3.85
  -3   0   2  522.75    9.67
  -3   1   3  307.46    8.87
  -3   5   4   12.97    4.56
  -2   6   3   11.63    4.04
  -1   3   3  420.83   10.12
  -1   4   3   86.87    5.69
 -10   1   3    2.38    4.04
  -9   2   4    7.42    5.44
  -8  -2  -1    6.00    3.33
  -8  -1   1    4.43    3.51
  -4   2   4  577.19   14.52
  -3   3   4   43.64    4.79
  -3   4   4   70.43    6.60
   0   5   2   73.04    5.24
 -10  -1   0   15.26    4.41
  -9   0   2    1.70    3.78
  -9   1   3    7.23    4.96
  -9   3   4    2.09    5.42
  -8   2   4    7.99    4.60
  -7  -1   1   18.64    3.80
  -5  -1   1  159.32    6.17
  -5   2   4   30.11    4.85
  -4   5   4   16.90    4.67
  -3   6   3    4.80    4.22
  -2   2   3  108.58    5.61
  -1   6   2    8.17    3.79
   0   1   1 4391.84   16.00
   0   3   2   97.81    4.63
   1   5   1  209.99    7.13
   2   5   0   30.99    2.80
 -10   2   3   -0.79    5.16
  -8   0   2   -0.28    4.01
  -8   1   3    1.08    4.65
  -8   3   4    5.00    5.50
  -7  -2  -1   10.34    3.07
  -7   5   4    6.98    5.57
  -6  -1   1   51.87    4.45
  -6   2   4   26.88    5.30
  -6   5   4   11.14    5.53
  -5   5   4   40.56    6.34
  -4   0   2 2060.23   21.76
  -4   1   3  637.46   13.90
  -4   3   4   48.85    5.60
  -4   4   4   27.40    5.10
  -2   5   3   40.92    5.46
   0   4   2   83.81    4.88
 -10   0   1    3.63    4.42
 -10   1   2   -0.08    4.57
  -9  -2  -2    9.46    3.99
  -9  -1   0    3.69    3.95
  -8  -3  -4   14.45    3.06
  -8   4   4    7.15    5.04
  -7   0   2    6.83    4.02
  -7   1   3   19.63    5.34
  -7   3   4   39.24    6.42
  -7   4   4   12.59    5.30
  -6  -2  -1  177.74    6.07
  -6   3   4   17.75    6.27
  -6   4   4    3.22    5.10
  -5  -2  -1   61.83    3.25
  -5   1   3   34.40    4.91
  -5   3   4  221.62   10.90
  -5   4   4   -0.43    3.69
  -4   6   3    3.01    3.71
   0   6   1    3.58    3.02
  -9   2   3   -2.29    4.18
  -6   0   2   62.98    5.68
  -6   1   3  150.78    8.44
  -5   0   2    3.59    2.54
  -3   2   3  173.00    7.88
  -3   5   3   31.47    5.49
  -2   3   3  139.25    6.83
  -2   4   3    3.61    2.90
  -2   6   2    9.46    4.02
   1   3   1  451.34    7.36
   1   4   1  293.06    7.27
   1   6   0    9.66    3.33
 -10  -1  -1   16.51    4.53
 -10   2   2    0.36    5.31
  -9   0   1    2.05    4.10
  -9   1   2   -0.58    4.59
  -9   3   3    6.10    5.15
  -8   2   3   12.62    4.87
  -4   5   3    7.32    4.78
  -2   1   2  849.92   12.45
  -1   5   2   56.75    5.50
   2   6  -1    3.62    2.63
   3   6  -2   15.06    2.46
  -8  -1   0   18.37    4.24
  -8   3   3    2.26    4.68
  -8   4   3    6.44    5.13
  -7   5   3    4.38    4.91
  -6   5   3    3.16    4.33
  -5   5   3   19.92    5.42
  -4   2   3  145.39    7.75
  -3   3   3  106.22    7.08
  -3   4   3   59.72    5.96
  -3   6   2   16.09    4.95
  -1   2   2   51.89    3.61
   2   4   0   50.71    2.74
   3   4  -1  289.07    4.03
 -10   0   0    3.03    4.00
 -10   1   1   10.88    4.74
  -9   2   2   -2.62    5.11
  -8  -2  -2    5.83    3.01
  -8   1   2    1.64    3.68
  -7  -3  -4   21.40    2.94
  -7   3   3   10.92    4.99
  -7   4   3    8.75    5.48
  -6   2   3  249.05   11.48
  -6   4   3   14.77    5.85
  -5   2   3   11.64    3.98
  -4   4   3    1.04    4.69
  -4   6   2    6.25    4.68
  -2   0   1 6732.63   27.47
  -1   4   2   24.53    3.87
  -1   6   1    1.34    3.48
  -9  -1  -1    4.48    4.08
  -9   3   2    2.45    4.97
  -7  -1   0    9.40    3.40
  -7   1   2   24.40    5.60
  -6   3   3   76.48    7.76
  -5   3   3   23.44    5.10
  -5   4   3  115.35    8.77
  -4   3   3    6.46    3.72
  -2   5   2   32.64    4.83
  -1   3   2  273.71    8.47
   0   5   1   24.16    3.90
   2   3   0   75.39    2.29
 -10  -1  -2   -0.28    3.66
 -10   2   1    4.65    4.97
  -9  -2  -3    1.15    3.42
  -9   0   0    8.67    4.33
  -9   1   1    3.79    4.21
  -8   2   2    0.63    4.15
  -8   4   2   25.07    7.05
  -7   0   1    9.84    4.24
  -7   5   2   10.38    5.43
  -6  -1   0    1.56    2.59
  -6   1   2   22.68    5.06
  -3  -1   0  640.00    8.12
  -3   1   2  756.32   13.50
  -3   5   2   14.64    4.88
  -2   6   1    2.30    3.72
 -10   0  -1    1.67    4.45
 -10   1   0   24.73    6.35
  -8   3   2    1.25    4.58
  -7  -2  -2    8.73    3.04
  -7   2   2   30.01    6.74
  -7   4   2    2.51    5.65
  -6   5   2    9.74    4.95
  -5   1   2   10.67    3.45
  -5   5   2    9.83    4.86
  -4   1   2    7.41    3.25
  -4   5   2    6.50    4.20
  -3   6   1    1.75    4.15
  -2   2   2  482.36   11.12
  -2   4   2   28.61    4.68
   0   6   0    4.41    3.22
  -9   2   1   -1.99    4.74
  -9   3   1    7.82    6.19
  -8  -3  -5    4.77    2.78
  -8  -1  -1   27.44    4.99
  -8   1   1    8.29    4.17
  -7   3   2    6.75    4.74
  -6   0   1   41.92    4.61
  -6   4   2    9.32    5.60
  -5  -1   0  246.84    7.60
  -4  -1   0  488.84    8.96
  -4   6   1    6.98    4.24
  -3   0   1 1528.76   16.23
  -2   3   2   31.11    4.26
  -1   5   1   99.18    6.88
   1   5   0    0.71    2.73
 -10   2   0   -1.41    4.55
  -9  -1  -2   18.66    4.75
  -8   0   0    5.94    4.46
  -8   4   1   17.67    6.60
  -7   5   1    4.55    5.76
  -6   2   2   47.29    6.12
  -6   3   2  113.17    9.00
  -5   0   1   62.05    4.78
  -5   4   2   86.68    7.92
  -4   0   1  165.14    6.76
  -4   4   2   31.15    6.14
  -3   2   2  706.53   14.85
  -3   4   2   74.12    6.53
   0   4   1   58.17    4.36
   1   6  -1    4.05    3.39
 -10   1  -1   15.13    6.22
  -9   0  -1    2.64    4.39
  -9   1   0    5.88    4.42
  -8  -2  -3   16.21    3.93
  -8   2   1   13.94    4.80
  -8   3   1    7.29    5.24
  -7   1   1   20.45    4.85
  -6  -3  -4   22.72    2.44
  -6  -2  -2   38.93    3.49
  -6   5   1   -7.90    4.60
  -5   2   2   26.53    4.63
  -5   3   2   81.56    7.38
  -4   2   2   38.39    4.70
  -4   3   2  171.79    9.45
  -3   3   2   81.37    6.15
  -2   5   1   56.15    6.29
  -1   6   0    7.21    3.94
   0   2   1   67.23    3.26
 -10   0  -2   11.42    4.57
  -9  -2  -4    2.78    3.49
  -9   2   0    8.08    5.85
  -9   3   0   10.52    6.36
  -7  -1  -1    7.44    3.36
  -7   0   0   78.69    6.85
  -7   4   1    5.23    5.00
  -5   5   1   -0.05    4.23
  -4   5   1   40.86    6.63
  -3   5   1   59.09    6.79
  -2   6   0   17.32    4.66
  -1   1   1 2599.91   17.46
   0   3   1   76.49    4.19
   2   5  -1   53.55    3.77
  -8   1   0   17.30    5.46
  -7   2   1   27.49    5.77
  -7   3   1    3.09    4.61
  -7   5   0   -1.26    5.46
  -6   1   1   50.11    5.62
  -6   4   1   24.84    6.45
  -4   6   0   13.66    4.72
  -3   6   0    0.98    3.59
  -1   4   1    5.34    3.10
   2   6  -2    8.41    3.21
 -10   1  -2    8.21    5.62
  -9   1  -1    8.17    5.44
  -8  -1  -2   99.18    7.41
  -8   4   0    2.72    5.05
  -5   4   1   91.07    8.55
   0   5   0    0.97    3.01
   0   6  -1    3.29    3.69
 -10   0  -3    3.92    4.68
  -9  -1  -3   10.79    4.24
  -9   0  -2    2.98    4.42
  -9   2  -1   49.56    7.92
  -9   3  -1    6.32    5.94
  -8   0  -1   29.11    4.97
  -8   2   0    0.19    4.30
  -8   3   0    7.17    5.21
  -7  -2  -3   51.22    4.63
  -7   4   0    0.14    5.60
  -6  -1  -1    8.99    2.97
  -6   0   0   34.42    4.70
  -6   2   1   36.06    5.70
  -6   3   1   21.36    5.56
  -6   5   0   13.63    5.36
  -5   1   1  153.28    7.83
  -4   4   1   67.15    6.90
  -3   4   1  307.85   12.21
  -2   4   1    3.82    3.08
   1   4   0   67.71    3.99
  -7   1   0   10.21    4.22
  -5   3   1   59.57    6.61
  -5   5   0   17.32    5.56
  -4   1   1  329.65   10.11
  -3   1   1  123.47    6.03
  -2   1   1 1625.02   16.73
  -1   3   1   33.51    3.75
  -1   5   0   -1.81    3.32
  -1   6  -1   12.23    4.15
  -8   4  -1    2.37    4.97
  -7   2   0   11.22    5.20
  -7   3   0   47.24    6.98
  -6   4   0    9.62    4.90
  -4   3   1  180.08    9.24
  -4   5   0   31.34    5.64
  -4   6  -1    1.23    3.76
  -1   2   1   75.38    4.07
   2   3  -5   59.10    6.35
   2   4  -7  145.98    9.86
   4   1  -6  155.46    8.60
   4   2  -7  100.18    8.79
   4   4 -11    8.30    6.00
   5   1  -8   56.53    6.82
   5   3 -11   16.79    6.47
   6   2 -12    5.07    5.75
   6   3 -14    7.93    6.80
   7  -1 -12    5.07    4.86
  -2   4  -2   34.12    3.19
  -2   5  -4    9.68    3.43
   0   4  -4  136.42    7.62
   0   5  -6    0.86    4.27
   2   5  -9    3.92    5.58
   3   5 -11    1.24    6.41
   5  -1  -7    3.79    2.83
   5   2  -9    5.33    5.28
   5   4 -13    2.46    6.26
   6  -3 -10    2.80    3.68
   6  -1  -9    8.97    4.67
   6   1 -10   19.52    5.89
   6   3 -13    8.29    7.72
   7  -3 -13   -2.11    3.57
   7  -2 -12    5.36    4.41
   7   0 -12    6.52    5.86
   7   1 -13    4.64    6.04
  -5   5  -2    8.77    1.57
   1   4  -5   87.74    7.08
   1   5  -7   12.17    5.33
   3   1  -4  227.50    9.19
   3   2  -5  871.01   19.04
   3   4  -8   12.36    5.22
   4  -1  -5  406.49   10.18
   4   3  -8    0.39    4.86
   4   4 -10   -0.93    5.25
   5  -2  -7  102.55    5.77
   5   0  -7   20.92    4.42
   5   3 -10   12.67    6.14
   6  -4 -11   -1.26    3.08
   6   0  -9   30.81    6.82
   6   2 -11   16.61    6.43
   7   2 -14    2.19    6.26
  -3   5  -3   23.47    3.37
  -1   6  -7   13.60    5.25
   2   4  -6   26.37    6.22
   3   3  -6   74.40    7.34
   3   5 -10   16.26    6.98
   4   0  -5  379.18   11.27
   5   4 -12    1.44    6.37
   6  -2  -9   28.40    4.77
   6   3 -12    5.94    7.66
   7  -1 -11    8.79    5.08
   7   1 -12    5.49    5.73
   7   2 -13    1.70    7.88
   0   6  -8    3.42    4.73
   1   2  -2   47.91    4.34
   2  -1  -2  832.47    7.84
   2   5  -8   12.14    5.99
   4  -2  -5    6.87    2.16
   4   2  -6  157.48   10.18
   4   4  -9   24.96    7.59
   5   1  -7    2.09    4.15
   5   2  -8   56.19    7.68
   6   1  -9   10.45    5.54
   6   2 -10   12.43    5.95
   7  -3 -12    2.60    4.25
   7  -2 -11   -2.05    5.00
   7   0 -11   -0.48    4.47
   8   0 -14    5.33    6.04
  -3   4  -1   60.19    2.95
  -3   6  -5   -0.14    3.08
   1   3  -3  444.38   12.11
   2   0  -2 9761.09   37.00
   3   4  -7    7.23    5.91
   4   3  -7    0.58    5.85
   4   5 -11   -3.08    6.68
   5   3  -9    9.92    5.92
   5   4 -11   -1.43    5.62
   6   3 -11    0.66    7.23
   7   1 -11    7.42    6.62
   7   2 -12   10.05    7.48
   0   5  -5   17.79    5.13
   1   5  -6   55.09    7.12
   2   2  -3  103.24    6.37
   2   3  -4   71.38    6.22
   3   5  -9    0.32    4.68
   4   1  -5  411.79   13.17
   6  -1  -8   96.47    7.67
   6   0  -8  160.15   10.60
   7   3 -13   11.27    8.24
   8  -1 -13    1.21    4.55
   8   0 -13   -0.94    5.19
   0   4  -3  103.42    6.57
   0   6  -7   11.90    4.91
   1   4  -4   24.37    4.97
   2   5  -7    3.17    5.21
   3   2  -4   40.18    5.15
   3   3  -5   -1.55    4.60
   4   4  -8   68.94    9.28
   5  -1  -6  102.07    6.50
   5   0  -6    4.94    3.49
   5   2  -7  115.22    9.49
   5   4 -10   29.36    8.23
   6  -3  -9    5.48    3.20
   6   2  -9   22.32    6.36
   6   4 -12   -4.05    7.20
   7  -1 -10    5.06    4.09
   7   0 -10   40.60    6.67
   7   2 -11    1.45    6.80
   8   1 -13    6.65    6.47
  -2   5  -3   15.73    3.43
   1   6  -8    3.10    5.13
   2   4  -5   33.85    5.59
   3  -1  -3  315.82    7.00
   3   0  -3  804.03   13.35
   3   5  -8   -3.70    5.46
   4   5 -10   11.05    6.74
   5  -3  -7   42.75    3.51
   5   3  -8   38.83    7.56
   6  -2  -8   33.16    4.83
   6   1  -8  101.43    9.22
   6   3 -10    3.95    6.07
   7  -3 -11    3.05    4.12
   7  -2 -10    1.09    4.50
   7   1 -10    1.51    4.99
   7   3 -12    5.04    7.52
   8  -1 -12   -0.38    4.83
   8   0 -12    3.85    5.72
  -4   5  -2   37.93    2.69
  -2   6  -5    9.86    4.04
   2   1  -2  845.32   13.54
   3   4  -6   31.94    6.61
   4   2  -5    4.65    4.17
   4   3  -6   71.22    7.84
   5   1  -6  112.08    8.33
   5   4  -9   -0.68    6.67
   6   4 -11    2.51    7.55
   8   1 -12   -1.01    5.14
   1   1  -1 2541.19   18.59
   1   5  -5   23.43    5.58
   3   1  -3  303.62    9.78
   4   0  -4  323.66   10.30
   4   4  -7   20.89    7.03
   4   5  -9    9.55    5.90
   5  -2  -6   64.14    4.59
   6  -4 -10   16.86    3.11
   6   2  -8   34.49    7.17
   6   3  -9    7.06    6.03
   7  -1  -9   36.50    6.26
   7   0  -9   28.30    6.02
   7   2 -10   -5.37    5.07
   7   3 -11    5.01    7.75
   8  -2 -12   10.62    4.63
   0   5  -4  155.21    8.89
   0   6  -6   16.07    4.70
   1   6  -7    7.99    5.14
   2   5  -6   18.68    5.49
   5   2  -6   59.33    7.28
   5   3  -7   44.58    7.96
   6  -1  -7   46.52    5.73
   6   1  -7   57.17    8.06
   7   1  -9   38.80    7.32
   8  -1 -11    8.86    5.32
   8   0 -11    3.26    4.87
   8   1 -11   10.20    6.83
   8   2 -12    2.22    6.44
  -3   6  -4    9.27    3.27
   2   3  -3  131.74    7.59
   3   3  -4   46.57    6.33
   3   5  -7   28.96    6.50
   4  -1  -4  819.21   13.45
   4   1  -4  841.65   17.86
   5   4  -8   17.14    6.52
   5   5 -10   -1.76    5.74
   6   4 -10   23.06    7.92
   1   3  -2  243.40    8.69
   1   4  -3   86.29    6.67
   2   4  -4   30.39    5.11
   3   4  -5    5.73    4.51
   4   3  -5    8.83    5.56
   4   5  -8    4.84    5.76
   5   0  -5  163.89    8.32
   6   2  -7   25.55    7.62
   6   3  -8   36.43    7.49
   7  -2  -9    5.45    4.43
   7   2  -9    3.16    5.47
   7   3 -10    3.75    6.34
   8   2 -11   -1.44    6.04
  -3   5  -2    8.72    2.43
  -2   3   0   73.08    2.59
  -2   4  -1  184.99    5.50
   2   2  -2  482.47   11.89
   3   2  -3  155.98    8.08
   4   2  -4  580.49   16.64
   4   4  -6   15.32    5.34
   5  -1  -5   96.97    5.97
   5   1  -5  104.66    7.76
   5   5  -9   21.41    8.18
   6   4  -9    8.90    6.47
   7  -3 -10   -3.97    3.81
   7   0  -8   72.86    7.72
   7   1  -8   -1.63    6.05
   8  -2 -11    6.18    4.17
   8   0 -10    4.40    4.81
   8   1 -10    6.04    5.51
   9   0 -12   -1.62    6.11
  -2   6  -4    6.96    3.72
   1   5  -4   66.02    6.93
   1   6  -6    8.70    4.78
   2   5  -5   79.37    7.70
   2   6  -7   13.32    5.33
   3   5  -6    5.78    5.52
   5   3  -6   23.93    6.79
   5   4  -7   14.48    6.85
   6  -3  -8   40.92    4.17
   6  -2  -7   22.84    3.96
   6   0  -6   44.90    6.37
   7  -1  -8    1.63    4.32
   7   3  -9   20.97    8.12
   8  -1 -10    4.96    3.79
   8   2 -10    7.43    7.00
   8   3 -11   -2.42    7.06
   0   6  -5    4.69    3.83
   1   2  -1   71.46    4.34
   4   5  -7   28.91    7.11
   5   2  -5   91.25    8.14
   6   1  -6   84.90    8.05
   6   3  -7   33.65    8.03
   7   4 -10   11.06    7.18
   5   5  -8   12.32    6.79
   6  -1  -6   81.67    6.52
   6   2  -6  251.72   14.07
   6   4  -8    4.40    5.90
   8   0  -9   32.40    6.95
   8   1  -9    6.60    5.43
   9   0 -11   -0.12    5.33
  -2   5  -2   76.00    4.68
   2   4  -3    9.65    4.54
   2   6  -6    2.65    5.01
   3   3  -3  110.41    7.71
   3   4  -4   75.80    7.50
   3   6  -7    0.08    5.50
   4   3  -4   55.18    6.78
   4   4  -5    6.53    4.89
   7   0  -7    8.20    5.42
   7   1  -7   35.52    6.82
   7   3  -8    5.95    6.16
   7   4  -9    8.27    7.75
   8  -2 -10   -0.50    3.91
   8  -1  -9    5.69    5.16
   8   2  -9    2.69    6.96
   8   3 -10    7.82    6.79
   9  -1 -11    1.40    4.84
   1   6  -5   27.11    5.64
   2   3  -2   28.87    4.23
   2   5  -4   33.18    6.23
   3   1  -2  748.04   14.58
   3   5  -5   29.59    6.10
   4   0  -3  882.31   15.85
   4   1  -3  626.64   15.21
   4   5  -6   14.86    6.71
   5   1  -4   91.30    7.69
   5   3  -5  167.54   11.39
   5   4  -6    2.41    5.11
   7  -2  -8    3.64    3.68
   7   2  -7   15.10    6.38
   8  -3 -11   -1.37    3.61
   1   4  -2   21.79    4.35
   3   0  -2  525.91   10.53
   4   2  -3  142.80    9.05
   5   0  -4   63.08    5.56
   5   5  -7    7.89    5.83
   6   1  -5  123.05    9.65
   6   3  -6   15.45    6.53
   6   4  -7   14.43    6.49
   7  -1  -7   34.47    5.75
   8   1  -8   12.88    6.77
   8   3  -9   25.17    8.12
   9   0 -10    0.99    5.61
   9   1 -10    3.61    5.54
   3   2  -2  674.85   15.81
   5   2  -4   36.63    6.13
   6   0  -5   40.59    5.50
   6   5  -8   10.20    6.83
   7   3  -7   30.96    7.87
   7   4  -8   17.34    7.72
   8   0  -8    0.26    4.19
   8   2  -8   21.23    7.22
   9   2 -10    1.33    6.26
 -10   0  -3    1.57    5.34
  -8   1  -2   94.32    9.39
  -8   3   3    0.68    5.44
  -8   4   7   -1.69    6.45
  -7   1  -2   15.49    5.12
  -7   2   0   15.91    7.00
  -7   3   3   17.08    6.12
  -7   4   7    7.67    6.46
  -6   1  -2   37.55    6.20
  -5   4   8   14.72    5.83
  -4   2   1   37.80    5.07
  -3  -1  -4   75.49    3.37
  -3   3   5    6.13    4.08
  -3   4  11    0.18    3.76
  -2   0  -2   23.28    2.57
  -9   1  -2   22.73    6.90
  -9   2   0   10.73    6.89
  -9   3   3    7.57    6.37
  -8  -1  -5   43.59    6.31
  -8   2   0    4.39    5.16
  -7  -1  -5   65.96    6.23
  -6  -1  -5  108.42    6.50
  -6   2   0   18.57    5.48
  -6   3   3   89.07    8.98
  -6   4   7    9.64    5.37
  -5   1  -2   90.35    7.15
  -4   3   4   49.98    6.15
  -4   4   9   22.41    4.98
  -3   1  -1   14.57    3.82
  -2   3   6   69.46    5.61
  -2   4  14   14.20    4.13
   0   3  11    8.91    2.42
 -10   1  -2    7.40    6.35
 -10   2   0    1.40    6.63
  -9  -1  -5    4.65    4.85
  -8   4   6    3.87    5.91
  -7  -2  -6   -0.50    3.26
  -7   0  -4   -5.30    4.06
  -7   4   6   10.57    6.66
  -6   0  -4   78.10    6.70
  -5   2   0   18.43    4.81
  -5   3   3   27.92    6.02
  -5   4   7   13.51    5.87
  -4   4   8   64.84    7.50
  -3  -2  -5  104.72    2.21
  -3   4  10   -1.85    3.83
  -2   4  13   24.33    4.99
  -9   0  -4   11.26    5.30
  -9   3   2    8.33    6.33
  -8  -2  -6    3.67    3.95
  -8   3   2   -0.54    5.34
  -7   3   2    8.35    5.57
  -6  -2  -6   20.06    3.26
  -6   3   2  115.02   10.87
  -6   4   6   -0.26    4.84
  -5  -1  -5  151.95    6.52
  -3   2   1   20.48    4.63
  -2   2   2  471.51   11.60
  -9   2  -1   55.80    9.08
  -8   1  -3   11.84    5.77
  -8   2  -1    7.17    5.04
  -8   4   5    0.36    5.72
  -7   1  -3    6.55    5.47
  -7   2  -1    6.26    4.98
  -7   4   5    1.59    6.33
  -5   0  -4   -0.01    3.15
  -5   4   6    4.68    5.66
  -4   1  -2  128.26    7.10
  -4   2   0   75.17    6.84
  -4   3   3    3.96    4.01
  -3   0  -3  351.37    8.55
  -3   3   4   48.85    5.42
  -3   4   9   20.76    5.26
   0   2   5 1007.20   11.01
  -9   1  -3    9.54    5.04
  -9   3   1    2.40    6.94
  -8   3   1    7.99    6.90
  -6   1  -3  183.93   10.08
  -6   2  -1  170.35   10.92
  -6   4   5   18.77    6.02
  -5   3   2   88.32    8.37
  -4   4   7   13.37    4.68
  -2   3   5   58.77    5.36
   0   3  10   55.71    3.58
  -8   4   4   10.22    6.37
  -7   3   1    3.01    5.20
  -7   4   4   15.37    7.28
  -6   3   1   20.26    7.46
  -5  -2  -6  113.24    4.69
  -5   2  -1   52.84    6.94
  -3   4   8   15.65    4.92
  -1   2   3  175.40    6.16
  -9   0  -5    3.17    4.62
  -9   2  -2    6.41    6.36
  -8  -1  -6    4.43    4.48
  -8   0  -5   16.63    5.53
  -8   2  -2    4.78    6.01
  -7   0  -5   90.96    7.81
  -6   4   4    4.90    6.15
  -5   1  -3   17.94    4.24
  -5   4   5   -0.43    4.74
  -4  -1  -5    2.66    2.07
  -4   0  -4   49.55    4.47
  -4   3   2  151.85    9.85
  -4   4   6   14.29    4.83
  -9  -1  -6    5.41    4.65
  -9   1  -4   12.18    5.89
  -9   3   0    7.34    6.34
  -8   1  -4    6.31    5.42
  -8   3   0   12.27    6.33
  -8   4   3    6.85    6.21
  -7  -1  -6   26.61    4.70
  -7   2  -2    6.85    4.79
  -7   3   0   52.11    8.73
  -7   4   3   13.69    7.28
  -5   3   1   62.52    7.53
  -5   5  10    5.69    5.46
  -3   2   0    7.50    4.21
  -3   3   3  100.39    7.20
  -3   4   7    9.44    4.68
  -2   1  -1  603.59   11.48
  -7  -3  -7    1.31    2.45
  -7   1  -4   93.33    8.20
  -6  -1  -6   46.47    4.97
  -6   0  -5  147.67    8.26
  -6   2  -2   45.19    6.77
  -6   5   8   10.05    6.44
  -5   4   4    0.80    4.91
  -4   2  -1  140.39    8.39
  -4   4   5    6.21    5.40
  -3   1  -2  478.20   11.73
  -2   2   1  421.24   11.25
  -2   3   4   60.65    5.56
  -1   4  14    0.65    2.93
  -8   4   2   29.80    7.81
  -6   1  -4   28.09    5.36
  -6   3   0    9.86    5.55
  -6   4   3   15.28    6.03
  -5   5   9   16.30    5.66
  -4   1  -3  177.28    8.28
  -4   5  11    4.38    4.58
  -1   4  13    4.29    3.40
  -9   2  -3    6.23    5.36
  -9   3  -1    1.20    5.91
  -8  -2  -7    7.27    3.83
  -8   2  -3   16.36    5.95
  -8   3  -1    4.56    5.80
  -7   2  -3   54.52    8.23
  -7   3  -1   10.47    6.63
  -7   4   2   -2.44    5.77
  -6   5   7   -0.46    5.27
  -5   0  -5   70.32    5.80
  -5   2  -2    2.19    4.13
  -5   3   0   23.58    6.71
  -5   5   8    5.98    5.51
  -4   3   1  196.41   10.66
  -4   5  10    5.60    4.80
  -3   3   2   95.65    7.55
  -3   4   6   28.01    5.02
  -2   4   8    7.42    3.83
  -1   1   0  475.99    8.44
  -9   0  -6   -1.23    4.28
  -9   1  -5    1.51    5.10
  -8   0  -6    1.62    4.52
  -8   4   1    2.78    6.92
  -7  -2  -7    0.28    3.10
  -6   4   2    8.41    5.60
  -6   5   6    6.19    6.70
  -5   1  -4  215.49   10.32
  -5   4   3  119.71   10.22
  -4   4   4   30.25    5.98
  -4   5   9   12.03    5.29
  -1   4  12   37.06    4.49
  -9   3  -2    6.34    6.94
  -8   1  -5   35.94    6.37
  -7   0  -6    2.56    4.21
  -7   1  -5   68.73    7.97
  -7   4   1    1.54    6.66
  -6  -3  -7   15.71    2.20
  -6   2  -3    7.95    5.00
  -6   3  -1  115.35    9.96
  -5  -1  -6    7.53    2.62
  -5   5   7    9.63    5.47
  -3   4   5    5.68    4.72
  -2   3   3  136.42    7.67
  -1   2   2   45.25    3.77
  -1   4  11   19.20    4.07
  -9   2  -4    0.38    5.33
  -8  -1  -7    6.06    4.12
  -8   2  -4    1.38    5.79
  -8   3  -2    6.16    5.87
  -7   3  -2   31.13    7.77
  -7   5   4    9.43    7.12
  -6  -2  -7   13.81    3.29
  -6   5   5   -1.41    5.03
  -5   4   2   88.51    8.99
  -5   5   6   10.87    6.12
  -4   2  -2  368.85   13.11
  -4   3   0   70.13    7.76
  -4   4   3    0.11    5.50
  -4   5   8    5.23    5.01
  -3   0  -4   11.72    2.85
  -3   2  -1   12.74    3.69
  -3   5  11    3.21    4.40
  -2   4   7  143.01    8.32
   0   3   8  218.21    6.27
  -8   4   0   -3.96    5.57
  -7  -1  -7    5.07    4.04
  -7   2  -4   15.95    5.58
  -6   0  -6  562.28   15.57
  -6   1  -5  113.30    8.90
  -6   4   1   20.76    6.52
  -5   2  -3  221.68   11.39
  -5   3  -1    1.38    4.78
  -4  -2  -6    3.88    1.33
  -3   3   1    6.65    3.87
  -3   5  10   10.89    5.07
  -2   0  -3  194.99    5.53
  -2   2   0  202.60    8.18
  -1   4  10   13.57    3.68
  -9   1  -6   10.49    5.88
  -7   4   0    0.55    5.63
  -7   5   3    5.84    7.07
  -6   3  -2   60.34    7.98
  -6   5   4   16.41    6.37
  -5   5   5   11.06    6.38
  -4   0  -5  301.33    9.41
  -4   1  -4   15.58    4.25
  -4   5   7   22.41    5.32
  -3   1  -3  593.01   13.34
  -3   4   4   75.42    7.21
  -2   4   6   21.45    4.75
  -9   0  -7    2.10    4.33
  -9   2  -5   11.16    7.07
  -8   0  -7    3.93    4.23
  -8   1  -6    5.14    4.54
  -8   3  -3    4.58    5.50
  -8   4  -1   -1.79    6.76
  -6   2  -4  110.87    9.32
  -6   4   0   15.28    6.24
  -5   4   1   89.24    9.12
  -4   4   2   21.87    6.00
  -4   5   6    2.25    5.21
  -3   5   9    1.77    3.96
  -2   1  -2  219.40    7.39
  -2   3   2   26.18    4.69
  -8   2  -5    0.57    4.68
  -7   1  -6   28.19    6.24
  -7   3  -3   18.24    6.45
  -7   4  -1    8.23    7.30
  -7   5   2   15.01    7.74
  -6  -1  -7  137.68    7.14
  -6   5   3   -0.25    5.55
  -5   0  -6   46.21    5.13
  -5   1  -5  151.68    8.80
  -5   3  -2   40.15    7.71
  -5   5   4   34.60    7.83
  -4   2  -3   13.06    5.03
  -4   3  -1   31.41    5.81
  -3  -1  -5  266.79    5.87
  -3   5   8    8.68    4.99
  -1   3   4  163.51    7.21
  -1   4   9    4.34    2.85
  -8  -2  -8    8.33    3.63
  -7   0  -7    9.49    4.71
  -7   2  -5    9.72    4.81
  -6   3  -3   14.93    6.91
  -5   2  -4   19.84    6.07
  -5   4   0   14.47    6.93
  -4   5   5   30.51    6.92
  -3   2  -2  115.94    7.32
  -3   3   0   67.20    6.57
  -3   4   3   60.70    6.82
  -2   4   5   29.16    5.21
  -1   2   1   72.36    4.99
   0   3   7   -1.45    1.90
  -8  -1  -8    8.91    4.67
  -8   3  -4   13.78    6.71
  -8   4  -2    9.41    6.58
  -7   5   1    5.68    7.15
  -6   1  -6   43.23    6.83
  -6   4  -1    6.60    5.77
  -6   5   2   13.25    6.70
  -5   5   3   18.24    7.20
  -4  -1  -6   97.12    4.64
  -4   4   1   80.17    8.50
  -3   5   7   28.39    6.05
  -2  -1  -4   74.84    2.33
  -2   5  12    2.38    3.44
  -8   1  -7    8.74    5.35
  -8   2  -6    3.80    5.66
  -7   3  -4   14.81    6.55
  -7   4  -2   10.09    7.05
  -6   0  -7    2.88    4.00
  -6   2  -5    3.81    4.56
  -4   5   4   23.09    6.65
  -3   4   2   76.81    8.19
  -2   2  -1  158.47    7.62
  -2   3   1  128.57    7.90
  -7  -2  -8    8.47    3.43
  -7  -1  -8    8.09    4.02
  -7   5   0   -7.13    6.46
  -6   5   1    1.25    5.37
  -5  -2  -7   39.91    3.03
  -5   3  -3  124.05   10.15
  -5   4  -1   23.84    6.65
  -5   5   2    8.06    6.79
  -4   1  -5    6.07    3.87
  -4   3  -2   14.59    5.14
  -3   1  -4   83.18    6.17
  -3   5   6    4.43    3.93
  -2   4   4   26.32    4.70
  -1   0  -2  301.69    4.96
  -1   1  -1 1173.28   13.69
  -1   3   3  427.46   11.49
  -8   0  -8   -3.04    3.60
  -8   3  -5   -2.67    5.64
  -7   1  -7    8.65    4.33
  -7   2  -6   -0.45    4.46
  -7   4  -3   11.13    7.95
  -6   3  -4   29.52    6.71
  -6   4  -2   -0.02    5.43
  -5  -1  -7  334.25    9.47
  -5   1  -6    3.55    4.59
  -5   2  -5  107.07    9.32
  -4   2  -4   71.65    6.85
  -4   4   0   64.99    8.08
  -4   5   3    8.47    6.08
  -3   3  -1   16.80    4.66
  -7   3  -5    9.00    5.89
  -6   5   0   23.32    7.63
  -5   5   1    9.90    6.97
  -4   0  -6   54.14    4.74
  -3   0  -5  135.30    5.93
  -3   2  -3  149.35    8.35
  -3   4   1  318.67   14.31
  -3   5   5   25.69    5.79
  -2   4   3    6.67    4.55
  -2   5   8    9.37    4.49
   0   3   6   33.35    3.09
  -8   2  -7    7.52    5.81
  -7   0  -8    5.82    4.58
  -6   1  -7  132.10    9.65
  -6   2  -6   22.37    5.99
  -6   4  -3   21.80    7.93
  -5   0  -7    1.36    3.42
  -5   3  -4   23.54    6.37
  -5   4  -2    0.37    5.08
  -4   3  -3   25.19    5.76
  -4   4  -1   24.34    7.23
  -4   5   2    3.10    5.94
  -2   1  -3   54.21    4.42
  -2   3   0   75.72    6.37
  -8   1  -8    3.24    4.71
  -8   3  -6    8.06    5.83
  -7  -3  -8   -0.50    1.76
  -7   4  -4   27.84    8.02
  -6  -1  -8   32.51    4.60
  -6   3  -5    7.21    5.46
  -6   5  -1   45.84    9.59
  -3   3  -2   14.10    5.40
  -3   5   4   12.52    4.84
  -2   2  -2  523.40   13.47
  -2   5   7    6.65    4.55
  -1   2   0  434.28   10.52
  -1   3   2  250.41    9.32
  -8  -1  -9   -1.29    3.77
  -7   1  -8    8.77    5.48
  -7   2  -7    2.37    4.78
  -7   3  -6   12.40    6.88
  -5   5   0   16.06    6.55
  -4   2  -5   27.29    5.94
  -2   0  -4  183.03    5.83
  -2   4   2   24.62    5.53
  -1   4   5   90.75    6.56
  -8   0  -9   -1.71    3.72
  -6  -2  -8   29.70    3.43
  -6   0  -8   34.93    5.57
  -6   4  -4   18.06    6.95
  -5   1  -7  360.42   13.77
  -5   2  -6  118.31    9.30
  -5   4  -3   32.10    7.23
  -4   1  -6  106.80    7.51
  -4   4  -2    6.39    6.81
  -4   5   1   40.95    7.45
  -4   6   5    0.43    5.79
  -3   2  -4   65.46    6.65
  -3   5   3   30.10    6.03
  -2   5   6   21.38    4.74
  -8   2  -8    7.39    5.51
  -7   4  -5    2.24    6.14
  -6   2  -7   14.67    5.21
  -6   3  -6   13.34    6.82
  -6   5  -2   10.57    6.87
  -5   3  -5   16.93    6.16
  -5   5  -1    7.54    6.56
  -4   3  -4   23.64    5.91
  -4   6   4    1.59    5.69
  -3   1  -5  282.04    9.97
  -2   3  -1  289.67   11.51
  -2   5   5   65.98    7.36
   0   4  12   43.86    3.14
   0   4  13    0.57    1.70
  -8   1  -9    1.20    4.84
  -7  -1  -9   -0.14    4.14
  -7   0  -9   20.37    5.28
  -7   2  -8    8.36    5.83
  -7   3  -7   -0.61    5.94
  -6   1  -8   30.96    6.14
  -4   5   0   29.92    7.04
  -3   3  -3   42.99    6.17
  -3   4  -1   65.16    7.76
  -3   5   2   17.68    5.43
  -3   6   7    1.27    4.83
  -2   4   1   10.14    4.48
  -1   3   1   40.22    4.93
  -1   4   4   33.25    4.97
  -1   5  11    8.39    3.84
  -1   5  12    0.12    3.01
   0   4  11    8.55    2.44
  -6   4  -5   19.85    7.63
  -6   5  -3   11.64    7.02
  -5   4  -4   90.19    9.99
  -5   5  -2    6.92    6.28
  -4   4  -3   27.98    6.85
  -4   6   3    8.98    6.34
  -3   6   6   10.38    5.64
  -2   2  -3  265.13   10.23
  -2   5   4   35.80    6.40
  -1   1  -2 2651.42   21.74
  -1   2  -1  140.90    6.92
  -1   5  10    8.79    4.11
   0   4  10   13.77    2.77
  -7   1  -9    2.47    4.61
  -7   4  -6    4.08    6.24
  -5  -1  -8   54.09    4.75
  -5   0  -8  103.06    6.97
  -5   2  -7   40.85    6.66
  -5   3  -6   66.79    8.16
  -4  -1  -7  176.41    6.05
  -4   0  -7  112.96    6.44
  -4   2  -6    0.17    4.00
  -4   3  -5   79.69    9.12
  -4   5  -1    4.47    5.48
  -3   5   1   61.53    7.67
  -3   6   5   24.39    6.62
  -2   1  -4   73.01    5.12
  -1   4   3   77.65    6.62
  -1   5   9   13.88    4.44
   0   4   9   23.16    3.17
  -7  -2  -9    4.73    2.99
  -6   2  -8   28.61    6.24
  -6   3  -7   13.08    6.11
  -6   5  -4   29.45    8.93
  -5   5  -3   24.08    8.36
  -4   1  -7  182.70    9.57
  -4   6   2    4.60    5.76
  -3   0  -6    0.25    2.32
  -3   2  -5  101.88    7.55
  -3   4  -2   18.77    5.76
  -2   3  -2   25.76    4.89
  -2   4   0   50.01    6.50
  -2   5   3   40.22    6.80
  -7   2  -9    6.43    5.68
  -7   3  -8   -1.36    5.48
  -6   0  -9   67.21    6.73
  -6   4  -6   18.92    6.94
  -5   1  -8   53.47    6.33
  -4   5  -2   44.06    8.77
  -4   6   1   -2.64    6.37
  -3  -1  -6   28.85    2.56
  -3   3  -4   11.03    4.83
  -3   5   0   24.73    6.28
  -3   6   4    4.01    4.67
  -1   3   0   94.01    6.40
   0   4   8    9.56    2.81
  -6  -1  -9   19.77    4.06
  -6   1  -9   12.10    4.58
  -5   3  -7    7.20    6.18
  -3   1  -6   33.21    4.33
  -3   4  -3    3.62    6.15
  -3   6   3    7.29    5.74
  -2   4  -1  212.67   11.87
  -2   5   2   42.72    7.02
  -1   4   2   25.99    5.10
   0   4   7   14.83    3.36
  -7   0 -10    2.37    4.01
  -7   1 -10    6.43    4.95
  -6   3  -8   11.05    6.00
  -6   4  -7    5.65    7.27
  -5   2  -8   47.51    6.87
  -5   4  -6    9.73    7.17
  -5   5  -4    8.54    6.87
  -4   2  -7   21.42    5.33
  -4   3  -6   94.95    9.49
  -4   6   0    5.79    7.01
  -3   5  -1   -1.02    4.77
  -2   2  -4  653.70   15.86
  -2   3  -3  137.35    8.78
  -2   6   7   13.84    4.94
  -1   2  -2   24.74    4.48
  -1   5   6   51.19    6.18
   0   2   1   61.51    4.07
  -6   2  -9    3.72    4.69
  -4   4  -5   34.55    7.31
  -4   5  -3   29.24    7.46
  -3   2  -6    0.83    4.42
  -3   3  -5   19.70    5.41
  -3   6   2   15.84    6.14
  -2   5   1   47.46    7.49
  -2   6   6    9.02    4.90
  -1   3  -1  443.18   13.33
  -1   5   5   20.82    5.31
  -7  -1 -10    1.64    3.80
  -7   2 -10   19.38    6.74
  -5   5  -5   16.75    7.17
  -4   6  -1    3.32    6.11
  -3   4  -4   19.46    6.13
  -3   5  -2    8.83    6.47
  -3   6   1   -2.56    5.38
  -2   0  -5 2841.87   22.15
  -2   1  -5 1045.78   17.43
  -2   4  -2   39.70    6.43
  -2   6   5   10.84    5.26
  -1   4   1    6.17    3.74
   0   1   0   -0.88    1.43
  -6   1 -10    2.70    4.84
  -6   3  -9    1.65    5.78
  -6   4  -8    4.26    6.93
  -5   0  -9    3.60    3.73
  -5   1  -9   32.72    5.44
  -5   3  -8   25.81    6.63
  -5   4  -7    2.07    5.72
  -4   0  -8   33.33    4.30
  -4   1  -8  165.61    9.09
  -4   3  -7    9.04    5.73
  -4   5  -4    1.27    6.22
  -2   5   0   26.55    6.80
  -2   6   4   -0.37    4.80
  -1   0  -3 2364.91   15.07
  -1   1  -3 2156.77   20.80
  -1   5   4   63.58    7.04
   0   3   2   93.37    5.55
  -6   0 -10   19.73    4.85
  -5  -2  -8   52.30    2.89
  -5   2  -9    8.85    4.72
  -5   5  -6    0.77    6.85
  -4   2  -8  137.27   10.17
  -4   4  -6   60.38    8.62
  -4   6  -2    4.03    6.11
  -3   1  -7   37.30    5.06
  -3   3  -6   62.89    8.25
  -3   5  -3   30.64    7.79
  -3   6   0    2.66    5.94
  -2   2  -5   37.10    5.55
  -2   3  -4   67.48    6.90
  -2   6   3   16.93    6.00
  -1   4   0   71.52    7.21
  -1   5   3   41.53    6.45
  -7   1 -11   12.16    5.29
  -6  -2  -9   -0.50    2.23
  -6   2 -10    9.95    4.95
  -4   5  -5   30.85    7.75
  -3   0  -7    1.53    2.42
  -3   4  -5   45.59    7.77
  -2   4  -3   22.07    5.77
  -2   5  -1  170.50   12.08
  -1   2  -3  215.90    8.68
  -1   3  -2   19.39    4.26
  -7   0 -11    0.68    4.31
  -6   3 -10    6.28    6.77
  -5  -1  -9   34.87    3.92
  -5   3  -9    6.87    5.42
  -5   4  -8   12.84    6.72
  -4   3  -8    5.45    5.70
  -4   4  -7    2.73    6.47
  -4   6  -3    3.15    6.27
  -3   2  -7   12.06    4.45
  -3   6  -1    2.09    5.75
  -2   6   2   12.06    5.11
  -1   5   2   57.45    7.26
   0   2   0  468.21    9.87
   0   3   1   77.98    5.44
  -6  -1 -10    4.27    3.54
  -5   1 -10   11.37    4.94
  -5   5  -7    1.37    6.04
  -4  -1  -8  150.63    5.70
  -4   5  -6    9.36    7.91
  -3   5  -4   49.55    8.20
  -2   3  -5   31.68    5.64
  -2   5  -2   84.99    9.41
  -2   6   1    1.94    5.33
  -1   4  -1  300.49   12.63
   0   4   3   96.07    6.48
  -7  -2 -10    9.24    2.85
  -6   1 -11    4.75    4.54
  -6   2 -11   11.32    5.97
  -5   2 -10    4.90    4.12
  -4   1  -9  116.96    7.98
  -4   2  -9   25.90    6.51
  -3   3  -7  149.12   10.61
  -3   4  -6  234.67   13.99
  -3   6  -2    7.61    6.23
  -2   1  -6  102.87    6.21
  -2   2  -6  104.46    7.72
  -2   4  -4    6.04    5.02
  -1   3  -3  153.78    8.66
  -1   5   1   97.20    8.37
  -1   6   6    7.81    4.23
  -7  -1 -11   16.58    4.10
  -6   0 -11    2.15    4.32
  -5   0 -10   26.25    4.74
  -5   3 -10    0.01    5.63
  -5   4  -9   -6.51    5.34
  -4   0  -9   11.53    3.77
  -4   4  -8    3.97    5.57
  -3   1  -8   82.00    6.65
  -3   5  -5   -0.66    5.39
  -3   6  -3    7.99    7.50
  -2   5  -3   24.23    7.05
  -2   6   0   10.25    5.24
  -1   1  -4   37.00    4.24
  -1   2  -4  263.87   10.12
  -1   4  -2  160.23    9.81
  -1   6   5   31.13    5.63
   0   3   0   -3.16    3.11
   0   4   2   84.41    6.43
   0   5   8    9.31    3.67
   0   5   9   -1.46    2.97
  -4   3  -9    0.15    4.62
  -4   5  -7    8.81    6.21
  -3   2  -8  108.08    8.33
  -3   4  -7   69.20    9.41
  -2   3  -6   44.77    6.43
  -2   4  -5   13.78    5.68
  -2   6  -1    9.94    6.25
  -1   5   0   -1.01    4.07
  -1   6   4   18.89    5.33
   0   2  -1   66.65    4.87
   0   5   7    9.10    3.47
   0   5  10    6.89    2.95
  -3   3  -8   21.59    6.04
  -3   5  -6    3.49    6.72
  -3   6  -4   14.85    6.70
  -2   0  -6   13.22    2.73
  -2   5  -4   14.80    6.65
  -1   3  -4   87.88    7.55
  -1   4  -3   40.01    6.87
  -1   5  -1  209.04   12.26
  -1   6   3   31.89    6.21
   0   1  -1 4442.35   22.98
   0   4   1   48.81    5.58
   0   5  11   10.60    2.63
  -6   2 -12    0.29    5.10
  -5   1 -11   16.25    5.31
  -5   2 -11    5.82    4.61
  -4   1 -10    0.21    4.08
  -4   2 -10   42.03    6.94
  -4   4  -9   -4.59    5.43
  -4   5  -8    6.28    6.19
  -3  -1  -7   35.79    2.65
  -3   0  -8   87.83    5.30
  -2   2  -7   42.34    6.01
  -2   6  -2    1.74    4.94
  -1   6   2    8.25    5.25
   0   3  -1   76.81    5.94
   0   5   4  156.99    8.84
  -6   1 -12    5.27    4.48
  -5   3 -11   21.05    6.27
  -4   3 -10   10.22    5.35
  -3   2  -9  128.96    9.56
  -3   4  -8    0.67    5.12
  -3   5  -7    7.15    7.07
  -3   6  -5    3.68    5.99
  -2   1  -7  167.19    7.88
  -2   3  -7  253.42   12.98
  -2   4  -6   69.67    8.80
  -2   5  -5   -0.04    5.88
  -1   2  -5  331.42   11.35
  -1   5  -2   71.30    8.51
  -1   6   1    2.99    4.98
   0   4   0    2.89    3.95
   0   5   3  176.05    9.51
  -5  -1 -10    7.55    3.00
  -3   1  -9  140.60    8.31
  -3   3  -9   36.69    6.48
  -2   6  -3    4.95    5.45
  -1   3  -5   10.67    4.28
  -1   4  -4   15.04    5.15
   0   2  -2 1709.75   20.41
   0   5   2   69.37    7.00
  -6  -1 -11    8.08    3.47
  -6   0 -12   11.52    4.90
  -5   0 -11    6.59    3.76
  -5   2 -12    1.69    4.85
  -4   4 -10   10.76    6.39
  -2   4  -7    8.29    5.16
  -2   6  -4    3.43    6.68
  -1   0  -4   14.86    2.13
  -1   1  -5  152.56    6.51
  -1   5  -3   12.37    5.12
  -1   6   0    1.56    4.49
   0   3  -2   81.78    6.00
   0   4  -1   48.15    6.05
  -5   1 -12    4.73    4.51
  -5   3 -12    6.00    5.68
  -4   0 -10   -0.06    2.74
  -4   2 -11    4.20    3.87
  -4   3 -11    3.69    4.89
  -3   4  -9   33.37    7.13
  -3   5  -8    4.67    5.99
  -2   2  -8   11.44    4.20
  -2   3  -8   96.38    9.27
  -2   5  -6    3.07    5.28
  -1   4  -5   10.13    4.98
  -1   6  -1    9.53    5.20
   0   5   1   25.27    4.93
  -2   6  -5    8.40    6.25
  -1   2  -6    1.00    3.18
  -1   3  -6  106.24    8.05
  -1   5  -4   40.82    6.93
  -9  -2   8    3.88    3.31
  -9   0  11    3.74    5.24
  -8  -1   9    2.42    4.25
  -7  -3   4   43.18    4.00
  -7   3  12    2.06    4.60
  -6   0   9   27.78    5.31
  -6   1  10   13.59    4.91
  -6   3  11    3.13    4.50
  -6   4  11   -2.36    5.00
  -5   0   8   54.72    5.56
  -5   1   9   47.81    6.43
  -5   5  10   -0.20    4.19
  -4   1   8   11.35    3.73
  -4   3   9    0.11    4.86
  -3   4   8   12.62    4.05
  -3   6   7   -0.21    3.66
  -2   0   4  186.79    5.95
  -2   2   6  225.45    8.45
   0   4   3  108.61    5.07
  -8  -2   7   28.00    5.06
  -8   2  12   11.21    5.33
  -5   3  10    2.99    4.07
  -5   4  10   24.76    5.60
  -4  -3   0   56.41    1.43
  -4  -2   3  150.25    4.88
  -4   4   9   20.05    4.86
  -2   5   6   15.85    4.45
  -9  -3   5    0.97    3.19
  -9  -1   9    3.10    4.26
  -8  -4   1    9.91    2.42
  -8   0  10    2.29    4.40
  -8   1  11   13.03    5.14
  -7  -2   6   10.44    3.72
  -7  -1   8    4.34    3.64
  -7   2  11   -2.03    4.10
  -4  -1   5  400.75    9.97
  -3   2   7   12.56    4.12
  -2   1   5   82.92    4.98
  -2   3   6   60.73    5.46
  -2   4   6   23.86    4.55
  -2   6   5   18.25    4.05
  -9  -2   7   11.38    4.08
  -9   1  11    1.75    5.23
  -7  -4   0    1.40    1.58
  -7   0   9   26.98    5.83
  -7   1  10   -1.83    3.91
  -7   3  11    7.82    5.20
  -6  -2   5  198.17    7.90
  -6  -1   7   51.92    5.30
  -6   2  10    8.29    4.57
  -5  -2   4   31.31    3.44
  -5  -1   6  100.46    5.99
  -5   2   9    6.27    4.22
  -5   5   9   18.72    5.65
  -4   2   8   68.77    6.34
  -4   5   8    1.97    4.09
  -3   5   7   28.32    4.81
  -2  -1   2  816.01    8.18
  -1   2   4  507.79   10.31
  -1   5   4   60.20    5.32
   1   5   0    0.21    1.67
  -9   0  10    0.34    3.90
  -8  -3   4    4.28    3.57
  -8   2  11    2.99    4.83
  -6   0   8  162.31    9.59
  -6   1   9    8.12    4.56
  -6   3  10    4.99    4.76
  -6   4  10   20.86    5.78
  -3   0   5    7.99    2.75
  -3   1   6  115.77    6.35
  -3   3   7   24.59    4.40
  -3   4   7    5.25    4.30
  -3   6   6    9.62    4.18
  -1   6   3   30.31    4.69
   0   5   2   78.54    4.87
   1   6  -1    3.06    1.97
  -8  -1   8    9.73    3.88
  -8   1  10    6.64    5.35
  -8   3  11    2.80    4.83
  -7   2  10    4.74    5.26
  -5   0   7   26.01    4.35
  -5   1   8   58.57    6.09
  -5   3   9    8.20    4.23
  -5   4   9   -1.26    3.91
  -4   0   6  526.06   12.74
  -4   1   7   72.15    5.88
  -4   3   8   -0.29    3.56
  -4   4   8   61.69    6.45
  -1   1   3 2138.82   17.53
  -1   4   4   30.98    3.94
   0   2   2 1737.62   14.16
   0   6   1    1.03    2.72
  -9  -1   8   28.28    5.57
  -8  -2   6   16.13    4.38
  -8   0   9   25.03    5.39
  -7  -3   3   12.86    3.05
  -7  -1   7   33.94    5.47
  -7   3  10    3.23    5.35
  -7   4  10   10.82    5.84
  -2   5   5   72.16    6.41
  -1   3   4  165.79    6.58
  -9  -3   4    6.05    3.74
  -9   0   9   26.30    6.12
  -9   1  10   -0.64    4.56
  -8   2  10    3.73    5.44
  -7   1   9   37.38    6.07
  -6   2   9   19.92    5.32
  -5   5   8    8.40    4.94
  -4   5   7   26.11    5.49
  -3   5   6    4.80    3.92
  -2   2   5  216.33    8.01
  -2   6   4   -0.70    3.04
 -10  -1   8    6.79    4.71
 -10   0   9   42.62    7.35
  -9  -2   6   20.14    4.66
  -8   3  10    3.80    5.54
  -7  -2   5   52.09    5.15
  -7   0   8   66.77    6.91
  -6  -3   2  112.81    4.82
  -6  -1   6   88.35    6.58
  -6   3   9    6.66    4.51
  -6   4   9   -0.65    4.14
  -5   2   8   59.50    6.53
  -5   4   8   17.37    5.60
  -4   2   7  100.65    7.18
  -3   2   6  267.83    9.87
  -3   6   5   29.47    5.14
  -2   3   5   57.52    5.18
  -2   4   5   38.23    4.88
   0   4   2   88.88    4.58
 -10  -2   6    2.19    3.76
  -9   2  10    0.82    4.59
  -8  -1   7   24.77    5.28
  -8   1   9    9.83    5.44
  -7   2   9   11.39    5.55
  -6   0   7  490.04   14.97
  -6   1   8  105.98    8.14
  -5  -3   1   59.09    2.73
  -5  -1   5  106.31    6.17
  -5   3   8   39.03    5.93
  -4   3   7    9.50    4.76
  -4   4   7   14.40    4.53
  -3  -1   3  305.87    6.95
  -3   3   6   73.42    6.40
  -3   4   6   22.25    4.38
  -1   5   3   35.74    4.36
   0   3   2   89.03    4.04
  -8  -3   3    1.91    3.27
  -8   0   8    1.50    3.85
  -7   3   9   22.95    5.87
  -7   4   9   12.65    5.40
  -6  -2   4   28.75    3.81
  -6   5   8    6.35    4.68
  -5   1   7    4.01    3.62
  -4  -1   4  820.10   13.37
  -2   0   3  123.02    4.60
  -2   1   4 1464.54   17.54
  -1   6   2   10.03    3.63
   1   4   0   65.65    2.92
  -9  -1   7    5.12    3.60
  -9   1   9    0.84    4.27
  -8  -4   0    0.85    2.23
  -8  -2   5   14.39    4.32
  -8   2   9    9.59    5.03
  -7   1   8    3.14    5.26
  -6   2   8   39.48    6.20
  -6   4   8   10.42    5.53
  -5   0   6    0.90    2.92
  -5   5   7    8.56    4.37
  -4   1   6  144.11    7.57
  -3  -2   1   20.28    1.52
  -3   1   5  133.16    6.63
  -2   5   4   37.57    5.07
   0   1   1 4381.11   15.59
 -10  -1   7   17.35    4.88
 -10   0   8   -0.83    5.08
  -9  -3   3    4.61    3.58
  -9   2   9    2.64    5.54
  -8   3   9   20.09    5.98
  -7  -1   6   42.18    5.20
  -7   0   7   -1.41    4.90
  -6   3   8   47.54    6.56
  -5  -2   3   13.99    2.47
  -4   0   5  367.94   10.41
  -4   5   6    5.53    3.83
  -3   0   4  148.85    6.02
  -3   5   5   23.36    4.41
  -2   6   3   12.30    3.87
  -1   2   3  171.86    6.07
  -1   4   3   87.15    5.42
   0   5   1   23.03    3.29
 -10  -2   5    4.81    4.12
  -9  -2   5   10.09    4.22
  -8   1   8   10.87    5.46
  -7   2   8    2.02    5.00
  -7   4   8    2.56    5.52
  -6   1   7   48.83    6.79
  -6   5   7    2.75    5.06
  -5   2   7  108.84    7.97
  -5   3   7   47.65    6.91
  -5   4   7   15.20    4.69
  -4  -2   2   36.55    2.68
  -4   6   5    2.83    3.64
  -3   6   4    4.01    3.61
   0   6   0    3.02    2.74
   1   3   0   98.83    2.82
  -9   1   8   25.31    6.51
  -8  -1   6   46.02    5.61
  -8   0   7   24.67    5.54
  -7  -3   2    9.84    2.91
  -7  -2   4   57.31    5.25
  -7   3   8    5.88    4.78
  -6  -1   5  120.46    7.21
  -4   2   6  142.01    8.09
  -4   3   6   71.38    6.97
  -4   4   6   12.07    4.16
  -3   2   5  900.69   17.30
  -3   4   5    8.70    4.18
  -2   2   4  250.36    8.33
  -2   4   4   33.87    4.21
  -1   3   3  432.38   10.03
   2   6  -4    0.24    1.36
 -10   1   8    3.79    4.84
  -9  -1   6    1.58    4.09
  -9   0   7    9.50    5.25
  -8   2   8   13.61    5.31
  -8   3   8    1.37    5.54
  -6   0   6   49.66    5.62
  -6   4   7    6.88    5.32
  -5   1   6  115.43    7.91
  -5   5   6    9.71    4.31
  -3   3   5    2.82    3.02
  -2   3   4   74.21    5.50
  -1   5   2   56.32    5.19
   1   6  -2    8.56    2.28
 -10  -1   6    9.92    4.40
 -10   0   7   -0.44    3.86
  -9   2   8    3.06    5.05
  -9   3   8    1.45    5.56
  -7   1   7   34.29    5.92
  -6   2   7   25.32    5.54
  -6   3   7   39.44    6.29
  -4   5   5   28.84    5.62
  -1   6   1    1.56    3.59
   1   5  -1  101.18    4.16
  -8  -3   2    1.23    3.36
  -8  -2   4   12.49    4.19
  -8   1   7   13.91    5.62
  -7  -1   5   14.93    4.46
  -7   0   6    0.07    4.33
  -7   4   7   13.48    5.20
  -6   5   6    7.58    5.50
  -5  -1   4   92.22    5.44
  -5   0   5  169.79    8.03
  -5   4   6    2.17    3.90
  -4   1   5  381.24   11.54
  -4   6   4    0.47    3.45
  -3   5   4   13.67    3.90
  -3   6   3    5.91    3.78
  -2   5   3   44.34    5.23
  -2   6   2    9.07    3.74
 -10  -2   4    2.04    3.59
 -10   1   7   20.08    6.60
  -9  -3   2    5.15    3.72
  -9  -2   4    8.58    4.11
  -9   1   7    9.78    5.71
  -8   4   7    4.41    5.76
  -7  -4  -1   10.50    2.33
  -7   2   7   10.60    5.02
  -7   3   7   47.87    7.26
  -6  -2   3  252.27    8.45
  -5   2   6   70.80    6.71
  -5   3   6   21.63    5.14
  -4   4   5    9.78    4.84
   0   4   1   55.14    3.73
  -9   0   6    1.12    4.62
  -9   2   7   20.64    6.51
  -8  -1   5   23.79    4.58
  -8   0   6    2.64    3.63
  -8   2   7   33.34    6.65
  -8   3   7    1.76    4.84
  -6  -3   1   23.55    2.94
  -6   1   6   84.07    7.22
  -6   4   6    4.32    5.18
  -5   5   5   13.01    4.61
  -4  -1   3  651.93   11.72
  -4   0   4  336.43   10.00
  -3   1   4  216.99    7.98
  -2   1   3 4084.56   28.08
  -1   1   2 2672.25   18.21
 -10  -1   5    0.26    3.70
 -10   0   6    4.28    4.13
  -9  -1   5    2.85    3.28
  -9   3   7    3.28    4.94
  -7   1   6   45.03    6.93
  -6   0   5   45.46    5.76
  -6   2   6  228.76   11.62
  -6   3   6   21.22    5.90
  -4   2   5    3.82    3.38
  -4   3   5    5.24    3.69
  -4   5   4   23.16    5.27
  -3   4   4   75.94    6.30
  -2   4   3    6.70    3.40
  -1   4   2   21.76    3.38
   0   6  -1    0.16    2.94
   2   5  -3   39.24    2.12
  -7  -2   3   10.35    3.43
  -7   4   6    6.73    5.31
  -6  -1   4    5.67    2.97
  -6   5   5    0.02    3.97
  -5   1   5  103.74    7.51
  -5   4   5   11.73    5.32
  -4   6   3    1.24    4.03
  -3   2   4   40.34    4.85
  -3   3   4   49.46    5.43
   0   2   1   65.68    3.00
   0   3   1   71.10    3.70
   0   5   0   -1.88    2.35
 -10  -2   3    0.88    3.89
 -10   1   6   13.12    5.58
  -9   1   6    3.16    4.49
  -8  -4  -1    2.48    2.51
  -8  -2   3   14.85    4.23
  -8   1   6   57.79    6.95
  -8   4   6    1.51    4.85
  -7   0   5   22.45    5.33
  -7   2   6    5.47    4.38
  -7   3   6   44.41    6.83
  -5  -2   2   27.56    3.08
  -3  -1   2  745.82   10.14
  -3   0   3  807.29   12.82
  -3   5   3   32.58    4.87
  -3   6   2   17.61    4.53
  -2   3   3  142.67    6.99
  -1   6   0    7.17    3.84
 -10   2   6    4.01    5.04
  -9  -2   3   -4.08    3.33
  -9   2   6   23.12    6.11
  -9   3   6   -1.92    4.63
  -8   0   5   29.28    5.85
  -8   2   6    5.07    4.72
  -8   3   6    3.50    4.90
  -7  -3   1    1.55    2.67
  -7  -1   4   21.12    4.58
  -6   4   5   13.89    5.70
  -5   2   5   80.05    6.93
  -5   3   5  164.37    9.81
  -5   5   4   38.62    6.65
  -4   4   4   31.93    5.83
  -2   2   3  111.61    5.69
  -2   5   2   31.74    4.78
  -2   6   1    1.08    3.77
  -1   2   2   46.86    3.60
  -1   3   2  261.56    7.87
  -1   5   1  107.12    6.28
 -10  -1   4    3.08    3.79
 -10   0   5    1.20    3.86
  -9  -3   1    9.87    3.94
  -9  -1   4    3.31    4.07
  -9   0   5    8.96    4.46
  -8  -3   1    3.30    3.51
  -8  -1   4   46.68    6.06
  -6   1   5  116.07    8.07
  -5   0   4   58.17    5.15
  -4   1   4  809.56   16.29
  -2   0   2 9724.14   35.57
  -8   4   5    0.42    5.66
  -7   1   5    8.16    5.25
  -7   4   5    8.21    5.10
  -6   2   5  207.54   11.05
  -6   3   5    6.75    4.31
  -6   5   4   16.01    5.11
  -5  -1   3   28.45    3.79
  -4   3   4   51.34    6.19
  -4   5   3   10.91    4.69
  -4   6   2    7.41    4.40
  -3   4   3   59.08    6.13
 -10   1   5   -0.19    4.60
 -10   2   5    4.92    5.77
  -9   1   5   -2.05    4.12
  -8   1   5   27.04    5.41
  -7   2   5   44.62    7.18
  -7   3   5   44.37    6.82
  -7   5   4    3.80    4.86
  -6  -2   2   50.13    4.52
  -6   0   4  194.03    9.45
  -5  -3   0   31.07    2.41
  -5   4   4    4.50    4.33
  -4   2   4  556.93   14.67
  -2  -1   1 1595.52   10.35
 -10  -2   2    0.21    3.61
 -10   0   4   -0.22    4.53
  -9   2   5   19.43    6.19
  -9   3   5    7.89    5.33
  -8   2   5   13.43    5.24
  -8   3   5   18.98    5.80
  -5   1   4   79.12    6.72
  -5   5   3   26.11    6.03
  -3   1   3  322.55    9.34
  -3   5   2   18.77    4.66
  -3   6   1    4.63    3.70
  -2   4   2   33.73    4.50
   1   4  -1    5.57    1.61
   1   6  -3   36.11    3.52
 -10  -1   3    3.31    4.41
  -9  -2   2    2.84    3.79
  -9   0   4   -0.82    3.80
  -8  -2   2    3.02    3.73
  -8   0   4   68.95    7.66
  -7  -2   2   29.46    4.16
  -7   0   4    1.36    3.54
  -7   4   4    9.56    5.99
  -6  -1   3  139.97    7.18
  -6   4   4    1.44    4.22
  -5   3   4  225.22   11.21
  -4  -2   1   45.01    2.85
  -4   0   3  916.72   15.59
  -3   3   3   97.72    6.46
  -2   6   0    9.76    3.91
  -1   4   1    5.28    2.95
 -10   1   4   -5.51    5.03
  -9  -1   3    5.87    3.75
  -8  -1   3    7.43    4.29
  -8   4   4   12.40    5.73
  -7  -1   3   14.55    4.23
  -7   5   3    6.26    5.62
  -6   1   4   10.11    4.84
  -6   3   4   17.71    6.12
  -6   5   3    1.64    4.10
  -5   2   4   33.42    5.18
  -4   4   3    4.00    3.81
  -4   6   1    6.03    4.39
  -3   2   3  162.87    7.49
  -2   5   1   54.20    5.58
  -1   6  -1    8.73    3.99
   0   4   0    3.75    2.11
   0   6  -2    3.19    3.07
 -10   2   4    6.10    5.16
  -9  -3   0    8.36    4.03
  -9   1   4   -1.08    4.12
  -9   3   4    3.85    5.02
  -8   1   4   50.12    7.26
  -8   3   4   -2.50    5.23
  -7   1   4   19.96    4.99
  -7   3   4   34.96    6.37
  -6  -3   0   13.50    2.78
  -6   2   4   19.95    5.28
  -4  -1   2    5.30    2.51
  -4   5   2    8.08    3.70
  -2   3   2   27.50    3.90
  -1   5   0    0.87    2.95
   1   5  -2   54.97    3.48
 -10  -2   1    8.61    4.55
 -10   0   3    2.69    4.73
  -9   2   4    6.94    5.04
  -8  -4  -2    3.18    2.65
  -8  -3   0    9.18    3.84
  -8   2   4   11.66    5.04
  -7   2   4   56.90    7.19
  -6  -4  -2    1.04    1.67
  -5   0   3  206.36    8.72
  -5   4   3  102.59    8.29
  -4   3   3    7.63    3.76
  -3   4   2   72.88    6.55
  -2   1   2  846.92   12.56
   0   5  -1   22.23    3.31
 -10  -1   2    1.08    4.34
  -9   0   3    0.51    4.59
  -8   4   3    9.56    5.54
  -7  -4  -2   13.85    2.74
  -7  -3   0   59.83    4.71
  -7   4   3   12.24    6.03
  -6   4   3   18.29    5.35
  -6   5   2    9.37    5.32
  -5   5   2    9.37    4.46
  -4   1   3  629.41   14.29
  -4   2   3  149.26    8.23
  -3   5   1   53.45    6.11
  -3   6   0    1.94    3.87
  -2   2   2  485.90   10.98
 -10   1   3    3.66    4.93
 -10   2   3    2.03    5.06
  -9  -2   1    1.30    3.70
  -9  -1   2    1.02    3.96
  -9   3   3    6.39    5.56
  -8   0   3    2.14    3.77
  -7   0   3    9.65    4.67
  -7   5   2   12.10    5.33
  -6   0   3  419.21   12.93
  -5  -2   1   50.63    3.74
  -5   3   3   23.00    5.16
  -3   0   2  531.92   10.37
  -1   3   1   41.70    3.68
  -9   1   3   11.60    4.97
  -9   2   3    1.52    4.72
  -8  -2   1   14.84    4.20
  -8  -1   2    6.24    4.29
  -8   3   3    0.03    4.57
  -7   3   3   12.63    5.19
  -6   3   3   82.67    8.05
  -5  -1   2    7.43    2.44
  -5   1   3   25.71    4.32
  -5   2   3    8.79    3.99
  -4   4   2   23.90    4.93
  -4   6   0    9.04    4.09
  -2   4   1    7.00    3.38
  -2   6  -1    8.57    3.78
 -10   0   2    9.98    4.67
  -8   1   3    4.19    4.44
  -8   2   3   15.83    5.29
  -7  -2   1   18.58    3.91
  -7  -1   2   27.22    4.74
  -7   1   3   16.06    4.74
  -7   2   3    8.46    5.53
  -6  -2   1   34.01    3.77
  -6  -1   2   29.56    4.27
  -6   1   3  137.17    8.43
  -6   2   3  253.25   11.87
  -5   4   2   91.18    8.59
  -4   5   1   43.98    5.75
  -3   3   2   83.02    6.03
  -2   5   0   31.10    4.80
  -1   6  -2   24.65    4.55
 -10  -2   0    0.09    3.70
 -10  -1   1    8.52    4.81
 -10   1   2    4.52    5.61
 -10   2   2    0.57    5.25
  -9  -3  -1    1.97    3.76
  -9   0   2   -1.29    4.38
  -8   4   2   29.20    6.87
  -7   4   2    0.64    4.53
  -7   5   1    4.81    5.59
  -6   4   2    7.76    4.60
  -6   5   1   -0.96    4.59
  -5   5   1    1.99    3.94
  -3   6  -1    4.86    3.77
  -1   1   1 2581.20   17.05
  -1   2   1   71.15    4.02
   0   3   0   -1.59    1.69
  -9   3   2    2.46    4.93
  -4   0   2 2042.75   22.63
  -4   3   2  154.24    8.58
  -3   1   2  756.81   13.67
  -3   2   2  674.70   14.31
  -3   4   1  299.31   11.49
  -1   4   0   68.42    4.84
   0   6  -3    5.62    3.33
  -9  -2   0    9.00    4.20
  -9  -1   1    2.07    4.15
  -9   1   2    3.13    4.44
  -9   2   2    1.30    4.65
  -8  -3  -1   13.56    4.22
  -8   0   2    1.06    3.63
  -8   3   2    2.91    4.77
  -7   3   2   10.62    5.62
  -5   3   2   83.26    7.43
  -4   6  -1    1.35    4.02
  -3  -1   1  128.97    4.43
  -3   5   0   22.58    4.39
  -1   5  -1  201.83    8.36
   1   6  -4   26.14    3.42
 -10   0   1    1.26    4.01
 -10   2   1    4.64    5.98
  -8   1   2    3.79    3.96
  -8   2   2    3.73    4.10
  -8   4   1   13.09    5.81
  -7   0   2    6.66    3.71
  -7   5   0   -0.61    5.25
  -6   0   2   59.35    5.51
  -6   3   2   99.72    8.57
  -5   0   2    4.78    2.79
  -4   1   2   10.24    3.94
  -4   2   2   36.35    4.61
  -4   4   1   68.14    7.10
  -4   5   0   26.90    5.47
  -2   3   1  127.35    6.30
  -2   6  -2    4.24    3.41
 -10  -1   0   19.96    5.57
 -10   1   1    4.16    5.11
  -9   3   1    5.75    5.19
  -8  -2   0    3.94    3.81
  -8  -1   1    7.16    3.71
  -7   1   2   22.81    5.04
  -7   2   2   29.35    5.81
  -7   4   1    3.63    4.65
  -6   2   2   45.76    6.07
  -6   4   1   26.69    5.65
  -6   5   0   12.23    4.78
  -5   1   2    7.54    3.90
  -5   2   2   29.35    4.81
  -5   4   1   84.55    7.81
  -5   5   0   15.50    4.78
  -9   0   1    7.55    4.30
  -9   2   1   -3.21    4.36
  -8   3   1    7.99    5.09
  -6   1   2   20.77    4.45
   1  -2   8  318.62    7.91
   3  -3  12    3.08    4.20
   4   0  10    0.65    4.43
   4   1   8  155.04   11.45
   4   2   5   31.79    6.78
   5   0  11   11.85    5.24
   5   1   9   30.61    7.31
   6   1  10    5.45    5.98
   6   3   4   23.00    6.18
   6   4  -2   16.45    5.72
   7   1  11   14.20    8.18
   7   4   0    1.57    4.89
   8   3   6    6.80    6.65
   2  -4  11    4.75    2.75
   2  -2  10  180.35    8.23
   2   0   7   -1.34    3.46
   2   1   4   74.72    5.88
   2   2  -1  432.63    9.92
   3   2   3  159.09    9.17
   4   3   0   67.08    6.45
   5   2   7   51.29    9.28
   5   3   3  128.22   10.88
   6   2   8   30.04    7.58
   7   2   9    2.14    6.64
   7   3   6   20.14    8.33
   7   4   1   12.75    6.62
   8   4   2    6.25    6.28
   1  -3   9  148.24    4.94
   2  -1   9  168.93    8.53
   3   0   9    3.41    3.91
   4  -2  13    0.52    4.37
   4  -1  12   14.69    5.60
   4   3   1   24.40    5.64
   5  -1  13    9.41    6.04
   5   1  10    7.10    6.74
   6   1  11    3.54    6.94
   6   3   5    6.86    5.84
   6   4  -1   23.68    5.61
   1  -1   7  240.41    7.73
   2  -3  11    0.50    2.85
   3  -2  12    1.60    4.77
   3  -1  11   21.29    5.52
   3   1   7   43.27    6.11
   3   3  -6   76.01    3.91
   3   3  -5    5.62    2.36
   4   0  11    6.13    5.68
   4   1   9  141.94   11.49
   4   2   6    2.83    4.84
   5   0  12    6.29    5.46
   5   3   4   30.56    7.78
   5   4  -8   18.05    3.89
   5   4  -7   11.32    3.69
   5   4  -6    3.70    3.62
   6   0  13   18.86    8.34
   6   2   9   -6.09    6.69
   6   4   0    7.62    5.77
   7   2  10   14.82    8.51
   7   3   7    9.71    7.86
   7   4   2    9.07    5.95
   1   0   5  915.57   14.81
   1   1   1 1171.44   13.79
   2   1   5 1044.37   19.84
   2   2   0  193.81    7.39
   3   2   4   66.21    6.68
   3   3  -7   18.99    2.07
   4   3   2   21.87    5.87
   5   2   8   60.28    8.99
   5   4  -9   -0.69    2.84
   6   3   6   12.50    6.55
   6   4   1   -0.37    5.54
   7   4   3   15.06    7.52
   2   0   8  167.62    9.07
   3   0  10   -1.67    4.84
   4   2   7   25.86    7.45
   5  -1  14   25.05    7.25
   5   1  11    4.64    6.74
   5   3   5   26.85    6.72
   5   4  -3  132.21    9.01
   5   4  -2   82.42    8.11
   6   1  12    7.47    6.84
   7   3   8   -3.99    7.05
   2  -2  11   30.78    4.99
   2   2   1  159.44    7.67
   3  -3  13   12.50    4.90
   3   1   8   85.38    8.11
   3   2   5  105.77    8.80
   3   3  -8    7.18    1.37
   3   3  -2   79.49    5.74
   4  -1  13   -0.17    5.19
   4   1  10    2.66    6.24
   4   3   3   19.98    5.48
   5   0  13    1.29    5.89
   5   2   9   13.66    6.45
   5   4  -1   92.69    8.85
   6   2  10   15.29    7.26
   6   3   7    9.70    6.79
   6   4   2    2.98    5.33
   7   4   4   17.61    7.56
   0  -1   4  900.64    7.68
   2  -1  10  210.34    9.70
   2   1   6  101.92    7.32
   3  -1  12    8.83    5.22
   3   3  -1    6.47    3.59
   4  -2  14    4.81    4.99
   4   0  12   -3.96    3.77
   5   3   6   61.16    9.02
   5   4 -10   25.06    3.19
   5   4   0   15.79    6.05
   6   4   3   23.63    7.76
   1  -2   9   66.36    4.40
   1   1   2 2689.02   23.25
   2   2   2  503.33   13.55
   3  -2  13    9.97    4.75
   4   2   8  150.39   11.73
   4   3   4   22.12    5.97
   5   1  12    2.66    5.69
   6   2  11   13.07    7.54
   6   3   8    4.52    6.54
   7   5  -4    4.14    5.19
   7   5  -3    3.11    5.11
   1  -1   8   33.27    3.92
   1   0   6  146.51    6.89
   2   0   9   24.65    4.73
   3   0  11   -1.70    4.15
   3   1   9  147.71   10.55
   3   2   6    2.69    4.42
   3   3   0   54.01    5.49
   4  -1  14    5.89    5.40
   4   1  11   55.82    8.47
   5   0  14    2.02    6.31
   5   2  10    5.23    6.17
   5   3   7   13.07    6.42
   5   4   1   25.00    5.99
   6   4   4   14.63    6.80
   7   4   6   -4.75    5.86
   7   5  -2    8.50    5.26
   7   5  -1    2.87    5.86
   2  -3  12    9.07    3.86
   2   1   7  162.48    9.34
   2   2   3  270.07   11.06
   3   3   1   13.17    4.05
   4   0  13   29.68    6.75
   4   2   9   35.29    7.72
   4   3   5   89.70    9.31
   5   4   2    1.71    4.51
   6   2  12    1.46    7.62
   6   3   9   -1.74    6.42
   6   4   5   12.51    6.94
   7   5   0   -2.91    5.68
   1   1   3 2158.23   22.95
   2  -4  12    5.18    2.65
   2  -1  11   19.44    4.86
   3  -3  14    7.31    4.37
   3  -1  13    7.17    5.47
   3   2   7   16.20    5.56
   3   3   2   16.67    5.21
   4   3   6   95.15   10.67
   5   1  13    4.61    5.85
   5   2  11    9.49    7.11
   5   3   8   20.40    7.25
   5   4   3   21.41    6.04
   6   4   6   24.15    8.52
   0  -2   6  339.28    4.13
   1  -3  10   78.06    3.99
   2  -2  12   17.85    4.36
   2   0  10   13.50    5.11
   2   2   4  685.80   17.57
   3  -2  14    8.78    5.16
   3   0  12   33.78    6.35
   4   1  12    7.18    5.77
   4   2  10   43.51    8.95
   4   4  -2   18.16    4.92
   5   4 -11    1.00    1.62
   5   4   4   86.03   10.49
   6   3  10    5.06    6.94
   6   5  -4   17.28    5.95
   6   5  -3    2.55    4.59
   1   0   7  701.94   15.16
   1   1   4   43.40    5.28
   2   1   8  235.70   11.60
   3   2   8  112.43   10.03
   3   3   3   39.00    6.04
   4  -1  15   -1.00    5.24
   4   0  14   -0.02    5.61
   4   3   7    3.74    5.41
   4   4  -5    7.87    3.49
   4   4  -1   70.83    7.48
   4   4   0   56.84    7.39
   5   1  14   22.65    8.72
   5   2  12    0.85    5.88
   5   3   9    7.31    6.68
   6   4   7   -2.22    6.40
   6   5  -2    8.82    5.36
   6   5  -1   -4.74    4.84
   1  -2  10   59.12    4.79
   1  -1   9   89.51    5.90
   2   2   5   37.74    5.65
   3   1  11   18.69    6.23
   3   3   4   10.58    4.92
   4   1  13   -1.04    6.40
   4   4  -6   15.32    3.43
   4   4   1   18.62    6.18
   5   4   5   46.92    8.49
   6   4   8    2.32    7.62
   6   5  -7    1.29    4.06
   6   5   0   18.14    6.18
   6   5   1   36.66    8.03
   2  -1  12   34.66    5.80
   2   0  11   42.12    6.70
   2   1   9  167.75   11.04
   3  -1  14    2.43    5.14
   3   0  13   -1.35    4.65
   3   2   9  120.77   10.74
   3   3   5   13.85    6.36
   4   2  11    4.93    6.03
   4   3   8    2.82    5.59
   4   4   2    9.50    5.17
   5   2  13    7.99    7.87
   5   3  10    1.43    6.57
   5   4   6    5.92    6.64
   6   5  -8    5.36    3.90
   6   5   2    9.98    6.83
   0  -1   5  287.00    5.58
   1   0   8   11.32    4.10
   2  -3  13   14.89    4.23
   2  -2  13    1.78    4.21
   2   2   6  107.96    8.47
   3   1  12    8.90    6.35
   4   0  15    7.90    6.02
   4   4  -7   14.01    2.99
   4   4   3   19.20    6.04
   5   3  11   17.02    8.85
   5   4   7   -3.68    6.96
   6   5   3   10.67    6.26
   3  -2  15    4.43    4.97
   3   2  10   69.50    9.29
   3   3   6   57.74    8.07
   4   1  14   11.60    6.72
   4   2  12    0.77    5.97
   4   3   9    2.03    5.80
   4   4   4   34.70    7.34
   6   5   4   19.58    7.70
   1  -1  10   46.95    5.06
   2  -1  13   33.83    6.31
   2   0  12    2.80    5.19
   2   1  10  208.10   12.11
   2   2   7   41.28    6.43
   3  -1  15   14.16    5.64
   3   0  14    5.79    4.94
   3   3   7  168.16   13.24
   4   3  10    9.94    7.77
   4   4   5   25.91    7.27
   5   3  12   14.97    8.68
   5   4   8   13.27    7.05
   5   5  -3   21.45    6.47
   5   5  -2   10.50    5.44
   5   5  -1    3.31    5.32
   5   5   0   20.97    6.67
   1   0   9   38.67    5.38
   3   1  13    8.82    5.75
   3   2  11   42.00    8.12
   4   1  15    5.28    7.98
   4   2  13   -2.45    6.17
   4   4   6   61.14    9.15
   5   4   9    1.16    6.68
   5   5   1    4.84    5.06
   5   5   2   11.92    6.52
   1  -2  11  205.35    8.06
   1   1   7  259.47   10.94
   2   1  11   21.46    6.99
   2   2   8   12.51    5.40
   2   3  -1  128.27    6.92
   2   3   0   80.46    5.93
   2   3   1  308.16   11.39
   2   3   2   18.80    5.12
   3   3   8   21.29    6.98
   4   3  11   -4.54    5.91
   4   4  -8   61.26    3.83
   4   4   7    0.90    6.99
   5   4  10   -1.44    7.70
   5   5   3   12.07    6.00
   1  -3  11   54.67    3.79
   1  -1  11   97.16    7.24
   2  -4  13    7.31    2.47
   2  -2  14    1.87    3.92
   2   0  13    0.98    5.17
   2   2   9  175.64   12.51
   2   3   3  123.46    8.57
   3  -1  16   14.87    6.29
   3   0  15    1.40    5.02
   3   1  14    0.21    6.42
   3   2  12   -4.01    6.32
   3   3   9   37.71    8.83
   3   4  -1  297.25   12.18
   3   4   0  225.56   11.47
   3   4   1   64.02    7.63
   5   5  -6    9.53    4.41
   5   5   4    9.25    6.13
   5   5   5   11.21    7.49
   0  -1   6  602.13    9.26
   1   0  10   17.13    4.23
   1   1   8   39.58    5.58
   1   2   0  438.67   10.09
   1   2   1  135.83    6.48
   1   2   2   26.12    4.08
   2  -3  14   10.17    4.17
   2  -1  14    4.00    4.88
   2   1  12   24.78    7.66
   2   3   4   64.70    7.12
   3   4  -2   73.86    6.47
   3   4   2   15.24    5.23
   3   4   3   -0.61    5.57
   4   3  12   -0.40    6.65
   4   4   8    1.47    6.15
   5   5   6    3.27    7.56
   0   0   3 5109.78   24.29
   1   2   3  201.98    9.00
   1   2   4  263.80   11.12
   2   2  10  177.76   12.50
   2   3   5   24.27    5.76
   3   0  16   -3.90    5.58
   3   2  13    7.27    7.41
   3   3  10   16.19    6.48
   3   4   4   19.58    6.15
   4   3  13   19.86    9.05
   4   4   9    2.20    6.94
   5   5   7   13.94    8.22
   0  -2   7   59.60    2.45
   0   0   4   19.13    3.13
   1  -2  12    4.36    3.37
   1   0  11    6.77    4.66
   1   1   9   87.34    7.70
   1   2   5  325.13   12.72
   2   0  14   16.11    5.99
   2   3  -4   62.04    3.82
   2   3   6   44.24    7.16
   3   1  15   15.13    6.41
   3   3  11    0.05    7.16
   3   4   5   32.62    7.14
   3   4   6  239.81   15.46
   4   4  10   14.56    7.85
   4   5   0   30.51    6.56
   4   5   1    1.00    5.08
   4   5   2   35.35    7.59
   5   5  -7    9.46    3.85
   0  -1   7    2.46    2.36
   1  -1  12   33.40    5.24
   1   2   6    2.41    4.90
   2  -2  15   -0.33    4.21
   2  -1  15    1.91    4.90
   2   1  13   33.24    7.24
   2   2  11   31.57    7.24
   2   3   7  241.76   13.86
   3   2  14    9.80    6.50
   3   4  -4   71.50    5.31
   3   4   7   71.31   10.30
   4   4  11   -0.26    7.72
   4   5  -2    2.84    4.72
   4   5  -1   38.12    6.91
   4   5   3   22.46    6.61
   4   5   4    4.50    6.66
   0   0   5   53.44    3.95
   1   1  10   47.21    6.69
   2   3   8   96.04   10.11
   3   1  16    8.34    6.68
   3   3  12    6.62    6.70
   3   4   8   -3.83    6.58
   4   5   5   30.22    8.15
   4   5   6   13.11    7.68
   0   0   6 1349.74   18.11
   1   0  12    1.95    3.87
   1   2   7  113.95    8.84
   2  -3  15   11.22    3.98
   2   0  15    0.09    4.76
   2   1  14    3.41    4.83
   2   2  12   20.41    6.80
   2   3   9   57.96    9.29
   3   2  15    6.98    7.00
   3   4  -5    7.57    2.86
   3   4   9   28.16    8.91
   4   4  -9   20.68    1.94
   4   5   7    5.39    7.18
   5   5  -8    5.80    3.29
   0  -1   8  312.40    8.52
   1  -3  12   21.94    3.15
   1  -2  13    4.80    3.87
   1  -1  13   29.18    5.59
   1   1  11   96.67    8.92
   1   2   8  306.30   14.04
   2  -1  16    8.97    5.01
   2   2  13    2.99    6.69
   2   3  10    3.75    7.18
   3   3  13   12.10    7.53
   3   4  10   14.77    8.62
   4   5   8    7.52    6.84
   0   0   7 1030.48   17.14
   1   0  13   31.81    6.56
   1   2   9   61.56    7.90
   2  -2  16   10.35    4.72
   2   0  16    4.03    5.69
   2   1  15    5.05    5.65
   3   3  14    4.95    7.00
   0  -2   8  117.14    3.81
   0   0   8  161.04    7.97
   1   1  12   42.38    7.15
   1   2  10   66.38    9.35
   2   2  14    8.23    6.24
   2   3  -5   56.15    3.00
   2   3  11    2.81    5.91
   2   4   1  197.91   10.89
   2   4   2   37.00    6.02
   2   4   3   19.65    5.43
   2   4   4   12.39    5.38
   2   4   5   18.64    7.22
   3   4  11    3.55    7.17
   4   5  -5   24.10    4.83
   0  -1   9   44.74    4.08
   1  -1  14   11.22    4.97
   1   0  14   -2.78    4.74
   1   1  13   19.54    6.98
   1   2  -3  164.28    4.05
   1   3   3  154.47    9.35
   1   3   4   89.21    8.14
   1   3   5    7.23    5.46
   2   1  16    8.79    6.67
   2   3  12   13.83    6.94
   2   4   0   55.10    6.41
   2   4   6   70.59    9.54
   2   4   7    1.64    5.54
   3   4  12    3.04    7.07
   3   5   1    0.70    5.15
   3   5   2    8.31    4.94
   3   5   3   25.56    6.42
   3   5   4   42.54    7.45
   3   5   5   -1.98    5.23
   3   5   6    6.91    7.17
   0   0   9   12.26    3.94
   0   1   3  526.46   10.99
   0   1   4  889.13   15.40
   0   1   5  273.08    9.57
   0   1   6  607.79   14.79
   1  -2  14    3.12    3.99
   1   2  11  212.76   13.61
   1   3   2   23.94    4.45
   1   3   6  115.87    9.45
   1   3   7  169.36   12.12
   2   0  17   -2.24    4.65
   2   2  15    3.48    6.41
   2   3  13   15.74    8.49
   2   4  -1    4.60    3.73
   2   4   8   67.50    9.52
   3   4  -6   22.84    2.94
   3   5   0   20.26    5.82
   3   5   7    5.48    6.99
   3   5   8   -6.18    7.05
   0  -1  10   13.15    3.55
   0   1   2 1993.65   18.87
   0   1   7    0.71    3.86
   1  -1  15   -5.98    4.65
   1   1  14   16.33    6.85
   1   2  12    6.57    6.12
   1   3   1  435.67   12.81
   1   3   8  141.31   11.35
   2   4   9   -1.10    5.80
   2   4  10   10.07    7.78
   3   5  -1   56.33    7.26
   3   5   9    4.25    6.83
   4   5  -6    7.41    3.85
   4   6   1    2.26    5.46
   4   6   2    2.04    5.88
   4   6   3    0.50    6.12
   5   5  -9   17.37    2.86
   0   0  10   54.93    5.57
   0   1   8  332.18   12.42
   1  -3  13   37.14    3.72
   1   0  15   16.29    5.19
   1   2  13   12.71    7.02
   1   3   0   96.94    6.34
   1   3   9  154.68   12.63
   2   2  16    6.98    6.89
   2   3  14   12.92    7.72
   2   4  11    0.84    7.60
   3   5  -2    9.85    4.83
   3   5  10   -1.93    6.46
   4   6   0   13.99    5.86
   0  -1  11   47.50    5.19
   0   0  11   37.37    5.70
   0   1   9   37.32    5.64
   1   1  15   -2.32    5.77
   1   3  10   74.51    9.91
   2   3  15    5.40    7.09
   2   4  12    1.04    7.98
   4   6  -1    5.64    4.86
   0   1   1 4491.16   24.74
   0   1  10    7.21    4.36
   1  -2  15   14.66    4.75
   1  -1  16    5.58    4.66
   1   0  16   -2.91    4.79
   1   2  14    1.29    5.67
   1   3  11   53.43    8.83
   2   4  13   14.92    8.80
   4   6  -2    0.15    4.07
   0  -2  10   36.84    3.32
   0   0  12   -3.61    4.17
   0   1  11   43.66    6.57
   0   2   4  972.55   19.15
   0   2   5  985.36   20.47
   0   2   6  341.08   13.00
   0   2   7   57.75    6.68
   0   2   8  127.15    9.36
   1   1  16    4.06    5.15
   1   2  15   12.57    7.52
   1   3  12   34.13    8.13
   2   5   3   25.21    7.23
   2   5   4   10.25    6.40
   2   5   5   -1.33    5.02
   2   5   6    2.89    5.59
   2   5   7    9.64    7.49
   0  -1  12  121.09    7.39
   0   1  12  136.32   10.74
   0   2   3    2.88    3.52
   0   2   9  189.29   11.59
   0   2  10   39.04    8.06
   1   0  17    1.36    5.37
   1   3  13   37.77    8.63
   1   4   4   20.22    6.44
   1   4   5   12.60    5.63
   1   4   6   22.54    6.58
   1   4   7   56.54    8.70
   1   4   8   83.69   10.18
   2   5   2   74.02    8.79
   2   5   8   10.44    6.94
   2   5   9   10.06    6.80
   2   5  10    1.29    7.61
   3   6   3   -3.45    5.71
   3   6   4    2.39    6.24
   3   6   5   -1.18    5.83
   4   5  -7   25.19    3.72
   0   0  13  140.52    9.44
   0   1  13    4.95    6.27
   0   2  11  366.40   17.25
   1  -3  14    3.05    2.78
   1  -2  16    1.84    4.15
   1  -1  17   26.76    6.39
   1   1  17   23.74    7.32
   1   2  16    0.97    6.18
   1   3  14   -3.21    6.68
   1   4   3   34.66    6.07
   1   4   9    6.06    6.19
   1   4  10   22.26    7.50
   2   5   1  146.13   10.65
   3   5  -4   12.68    4.23
   3   6   2    1.52    5.65
   0  -1  13    5.11    4.08
   0   0  14    2.03    5.07
   0   2   2 1699.69   21.92
   0   2  12   91.17   11.01
   1   3  15   29.04    8.86
   1   4   2  166.35   10.00
   1   4  11    0.94    6.28
   1   4  12    2.88    7.83
   2   5   0   23.17    5.91
   3   4  -7    3.19    1.89
   3   6   1    4.41    5.33
   4   6  -4    2.37    4.29
   0   1  14   62.23    8.06
   0   2  13   24.62    7.93
   0   3   6   29.88    5.97
   0   3   7   -1.60    4.68
   0   3   8  227.43   13.39
   0   3   9  271.79   15.64
   1   4   1  306.29   12.61
   1   4  13   14.85    8.74
   3   6   0   -0.33    4.63
   0  -2  12   72.14    5.04
   0  -1  14   61.95    6.57
   0   0  15    2.36    5.48
   0   1  15    2.67    5.85
   0   2  14   13.04    7.15
   0   3   4  112.07    8.60
   0   3   5  116.01    8.77
   0   3  10   64.95    9.68
   0   3  11   12.40    7.78
   1   4  14   14.33    7.95
   2   4  -4   22.98    3.28
   2   5  -1   50.51    6.40
   3   6  -1   -1.28    4.16
   0   2   1   59.73    4.56
   0   2  15    9.18    7.12
   0   3   3  190.94    9.95
   0   3  12   28.60    7.67
   1  -3  15   28.91    3.74
   1   4   0   68.03    6.45
   1   5   6    6.10    6.67
   1   5   7    0.75    6.71
   1   5   8    6.57    6.31
   1   5   9   23.03    8.70
   2   3  -6   53.95    1.91
   2   6   5   10.64    7.04
   2   6   6   21.88    8.37
   3   5  -5   31.74    4.56
   0  -1  15   -3.42    4.03
   0   0  16   48.72    7.24
   0   1  16    6.73    5.22
   0   3  13   19.43    7.42
   0   3  14    5.27    7.65
   1   5   4   44.17    8.27
   1   5   5   -2.38    4.83
   1   5  10   -3.62    6.56
   1   5  11   -1.12    6.58
   2   6   3    4.45    5.77
   2   6   4    6.86    5.61
   4   6  -5    2.72    3.51
   0  -2  13   22.06    3.83
   0   0  17    9.94    5.56
   0   1  17    3.06    6.25
   0   2  16    2.35    5.77
   0   3   2   87.08    6.89
   0   3  15   28.25    9.37
   0   4   7   11.32    7.74
   0   4   8   11.83    6.03
   0   4   9   35.99    7.97
   0   4  10   17.10    8.01
   1   5   3   12.73    6.38
   2   6   2    5.22    5.56
  -1   1   8  249.62   10.87
  -1   1   9    5.47    4.62
  -1   1  10   28.46    5.95
   0  -1  16    6.00    4.45
   0   2  17    7.56    6.74
   0   4   5   12.52    6.51
   0   4   6   13.98    6.44
   0   4  11    3.33    6.42
   0   4  12   51.10    9.65
   1   3  -3  409.86    8.70
   1   4  -1    4.70    3.46
   1   5   2   58.69    8.11
  -1   0   9  264.74    9.98
  -1   0  10   12.93    4.11
  -1   1   7  141.87    8.00
  -1   1  11  164.34   10.24
  -1   1  12   26.12    6.63
  -1   2   8   18.55    5.84
  -1   2   9    2.65    5.72
  -1   2  10  403.96   16.95
   0  -2  14    8.14    3.85
   0   0  18    3.60    5.31
   0   2   0  450.01    9.61
   0   4   4  142.37   10.64
   0   4  13    0.61    7.03
   0   4  14    1.63    7.79
   2   6   1    8.04    5.37
   4   5  -8    4.28    2.10
  -1   0   8  310.75    9.93
  -1   0  11   30.41    5.17
  -1   0  12   45.02    6.06
  -1   1   6   45.61    5.01
  -1   1  13   68.38    8.70
  -1   2   7   56.05    6.44
  -1   2  11   79.33    9.06
  -1   2  12   44.87    7.84
   0  -1  17    6.63    4.94
   0   3   1   74.92    5.74
   0   4   3  108.79    9.13
   1   5   1  195.29   11.62
   1   6   7   19.63    8.38
   2   4  -5   30.20    3.12
   2   6   0   10.97    5.27
  -1   0   7  290.50    8.99
  -1   0  13    1.36    4.41
  -1   1  14   78.29    8.63
  -1   2   6  289.06   11.84
  -1   2  13   29.52    6.89
  -1   2  14   20.74    7.51
  -1   3   9   87.37   10.28
  -1   3  10  226.16   14.85
  -1   3  11   83.70   10.90
   0  -2  15    6.05    3.89
   0   5   8   10.37    7.55
   0   5   9    1.76    6.14
   0   5  10   10.79    6.87
   0   5  11    9.65    8.46
   0   5  12    9.64    8.55
   1   6   5    4.46    6.28
   1   6   6    3.80    5.76
   3   5  -6    4.25    2.94
  -1   0   6  288.87    8.41
  -1   0  14    3.14    4.87
  -1   1   5   16.82    3.68
  -1   1  15   15.83    5.46
  -1   2   5   84.05    6.91
  -1   2  15    1.88    5.58
  -1   3   7    7.51    5.10
  -1   3   8   54.73    7.78
  -1   3  12   16.53    6.91
  -1   3  13   69.21    9.80
   0   4   2   89.28    8.02
   0   5   6    4.40    5.50
   0   5   7   12.06    6.39
   1   5   0    2.63    4.62
   1   6   4   20.97    6.98
   2   6  -1    0.83    5.18
   3   6  -4    1.23    4.03
  -1   1  16    4.09    5.08
  -1   2  16    6.22    5.67
  -1   3   6  137.14    9.69
  -1   3  14   27.43    7.91
  -1   3  15   -0.88    7.04
   0  -2  16    5.13    4.12
   0   3   0   -1.22    2.83
   0   5   5   11.43    6.06
   1   6   3    4.49    5.71
  -1  -1  10   32.23    3.88
  -1  -1  11  152.60    7.26
  -1   0  16   -1.97    4.92
  -1   1   4  217.91    8.18
  -1   1  17    3.94    5.09
  -1   2   4  491.60   13.65
  -1   2  17   -4.87    5.60
  -1   3   5   37.30    5.87
  -1   4   8   23.16    8.07
  -1   4   9    4.68    6.00
  -1   4  10    7.90    6.25
  -1   4  11   22.95    8.04
  -1   4  12   39.28    8.86
  -1   4  13   15.23    8.43
   0   4   1   55.43    6.34
   0   5   4  139.46   10.89
  -1  -1   9   10.37    2.80
  -1  -1  12   19.39    3.85
  -1  -1  13   64.21    6.17
  -1   0   5  499.08    9.82
  -1   0  17   -0.50    4.47
  -1   1  18    5.76    6.24
  -1   4   7   70.21    8.92
  -1   4  14    3.14    6.85
   0   5   3  190.45   12.52
   1   6   2   29.35    6.36
   2   5  -4   34.04    4.42
  -1  -1  14   88.65    6.98
  -1   3   4  160.47    9.40
  -1   4   6   63.88    8.27
   0  -2  17    3.01    3.60
   0   6   7   18.60    7.53
   0   6   8    6.65    6.63
   1   4  -3   88.32    5.43
   1   6   1    7.41    5.36
  -1  -1   8  234.40    6.79
  -1  -1  15   19.52    4.82
  -1   0  18   -0.35    4.68
  -1   2   3  171.77    8.02
  -1   4   5   87.17    8.73
  -1   5   9    8.51    6.61
  -1   5  10    9.27    7.20
  -1   5  11   12.56    7.48
  -1   5  12   -1.38    6.55
   0   5   2   81.22    8.74
   0   6   6   17.48    6.67
   3   6  -5   24.09    4.52
  -2   2  11    6.10    6.37
  -2   2  13   45.03    8.53
  -2   2  14   10.47    6.71
  -1  -1  16    3.26    4.76
  -1   1   3 2053.38   21.00
  -1   3   3  422.98   13.76
  -1   5   7    6.34    6.93
  -1   5   8    2.53    5.97
   0   4   0    4.85    3.17
   0   6   5    4.96    5.40
   1   3  -4  155.30    4.68
   1   6   0    8.47    5.24
  -2   1  11   62.00    7.58
  -2   1  12   45.85    6.63
  -2   1  13    2.60    5.60
  -2   1  14   41.33    7.52
  -2   2   9    1.93    4.35
  -2   2  10   28.59    6.16
  -2   2  15    2.60    5.55
  -2   2  16    8.00    6.67
  -2   3  10   21.39    6.67
  -2   3  11   24.12    6.73
  -2   3  12   33.09    7.60
  -2   3  13   20.33    7.22
  -2   3  14   12.28    6.88
  -2   3  15    5.67    7.26
  -1  -1  17    2.78    4.86
  -1   4   4   27.17    5.95
  -1   5   6   64.50    9.46
   0   5   1   26.59    6.10
   0   6   4    1.69    4.77
  -2   1   9  151.25    9.26
  -2   1  10  214.50   10.89
  -2   1  15    8.99    4.81
  -2   1  16   10.05    6.12
  -2   2   8   69.44    7.21
  -2   2  17   -0.77    6.33
  -2   3   8   24.74    7.11
  -2   3   9   13.12    6.02
  -2   4  11    2.51    7.22
  -2   4  12    9.00    6.88
  -2   4  13   35.75    9.49
  -2   4  14   17.71    8.71
  -1  -1   7  142.65    4.84
  -1   0   4  914.89   11.73
  -1   2   2   40.90    4.79
  -1   4   3   80.04    8.10
   0   6   3    5.79    5.72
  -2   1  17    5.32    5.82
  -2   2   7   76.81    7.64
  -2   3   7   18.59    6.45
  -2   4   9    3.81    5.78
  -2   4  10   28.94    7.50
  -1  -1  18    3.62    4.24
  -1   3   2  261.84   10.40
  -1   6   8    3.58    7.23
   0   4  -1   63.51    5.62
   1   6  -1    3.17    4.48
   2   5  -5   80.22    5.27
   3   5  -7   30.62    2.89
  -2   0  12    6.61    4.27
  -2   0  13    3.37    4.29
  -2   0  14    1.43    4.46
  -2   1   8   28.27    4.63
  -2   1  18    6.84    6.01
  -2   4   8   10.73    6.37
  -2   5  12   -2.35    7.36
  -1   5   4   59.27    7.79
  -1   6   7    6.46    6.69
   0   5   0    0.99    4.34
   0   6   2    3.47    5.54
   2   4  -6   19.75    2.14
  -2   0  11   99.55    7.01
  -2   0  15    7.48    4.10
  -2   0  16    0.96    4.77
  -2   1   7  104.58    7.35
  -2   2   6  235.86   10.79
  -2   3   6   65.28    7.34
  -2   4   7  162.20   12.29
  -2   5   9    6.54    7.44
  -2   5  10    7.64    6.40
  -2   5  11    7.32    6.90
  -1   4   2   25.76    5.01
  -1   6   6   14.55    6.36
   2   6  -4    1.96    3.89
   3   6  -6    7.96    3.29
  -2   0  10   32.17    4.44
  -2   0  17    1.73    4.41
  -2   4   6   30.12    7.98
  -2   5   8    8.67    7.30
  -1   1   2 2650.47   21.73
  -1   5   3   46.76    7.05
  -1   6   5   28.96    7.72
   0   6   1    2.39    5.07
   1   4  -4   27.70    3.10
  -2   0   9  252.35    9.58
  -2   0  18   -0.84    4.35
  -2   2   5  216.32   10.32
  -2   3   5   67.27    7.08
  -2   5   7    7.62    6.83
  -1  -1   6   40.97    2.61
  -1   2   1   70.13    5.15
  -1   3   1   36.65    4.52
  -3   2  12  137.10   11.81
  -3   2  13   15.30    6.28
  -3   2  14    4.88    5.39
  -3   2  15    1.33    5.26
  -3   2  16    1.11    6.11
  -3   3  11   26.63    8.00
  -3   3  12    3.34    5.68
  -3   3  13    8.75    6.26
  -3   3  14    3.81    6.11
  -3   3  15   27.80    8.03
  -3   3  16    2.11    6.14
  -3   4  13   26.20    9.14
  -3   4  14   37.41    9.72
  -2   1   6  206.18    8.88
  -2   4   5   33.07    6.47
  -2   5   6   24.09    7.48
  -1   4   1    4.49    4.21
  -1   5   2   62.89    7.98
  -1   6   4   21.78    6.30
   0   5  -1   22.29    4.88
  -3   2  11   64.70    8.14
  -3   2  17    9.60    6.51
  -3   3  10    8.00    6.27
  -3   4  11   -1.71    5.68
  -3   4  12   -1.19    6.11
  -2   0   8   80.95    5.71
  -2   3   4   61.00    6.46
  -1  -2  13   27.98    3.32
  -1  -2  14   23.35    3.62
  -1  -2  15    2.89    3.14
  -1   6   3   33.24    7.25
   0   6   0    6.15    4.81
  -3   1  13   74.12    8.59
  -3   1  14   35.10    6.79
  -3   1  15   -1.29    4.28
  -3   1  16   10.11    5.88
  -3   1  17   -4.43    5.04
  -3   2  10   26.78    6.15
  -3   3   9   88.87    9.35
  -3   4   9   15.88    7.30
  -3   4  10    1.22    5.61
  -3   5  11   -3.12    7.15
  -2   2   4  249.75   10.18
  -2   4   4   22.86    5.64
  -2   5   5   80.41    9.10
  -2   6   7   11.16    6.78
  -3   1  11   21.04    5.89
  -3   1  12   34.00    6.15
  -3   2   9    7.22    4.67
  -3   3   8    7.85    5.36
  -3   4   8   15.13    7.32
  -3   5  10   20.56    7.79
  -2  -1  14   44.21    5.21
  -2  -1  15   16.42    4.38
  -2   1   5   85.69    5.91
  -2   6   6    5.75    6.70
  -1   0   3  296.46    6.03
  -1   3   0  101.92    6.29
  -1   5   1  103.69    8.45
  -1   6   2   11.10    5.82
  -3   5   9    5.41    6.77
  -2   3   3  134.21    8.29
  -2   5   4   38.89    6.87
   0   3   1   71.18    3.46
   0   4   2   84.78    4.44
   2   4   1  195.75    8.53
   3   5   2    3.92    3.32
   4   2  -1   34.60    4.61
   4   5   2   31.73    5.80
   5   2  -1   44.16    6.08
   5   5   2    7.36    5.06
   6  -1  -1   60.52    5.89
   6   2  -1   32.60    5.77
   6   5   2   10.29    5.61
   7   4   1   17.71    6.53
   8  -3   1    2.64    3.66
   8  -2   0    3.92    3.33
   9  -1   0    3.98    4.90
   9   2   0    9.75    5.76
  -2   5   5   74.74    3.30
  -1   6   6    6.13    2.76
   1   5   3   11.60    3.83
   3   3   0   68.62    5.91
   3   6   4    8.97    4.21
   4  -1  -1  350.31    9.25
   5  -1  -1  144.54    7.21
   6   4   1    4.69    5.34
   7   0  -1    5.95    4.16
   7   1  -1   13.84    4.93
   7   3   0   47.63    7.16
   9   0   0   12.08    5.87
   9   1   0    8.20    6.10
   9   3   1    6.14    5.68
  -3   5   6    3.79    1.30
  -2   6   7   15.26    2.53
   1   2   0  414.16    8.45
   1   6   5    0.96    3.67
   3   0  -1 1537.07   17.95
   3   1  -1  122.34    6.12
   3   4   1   62.53    5.83
   4   3   0   71.89    6.78
   4   4   1   22.41    5.47
   5   3   0   35.38    6.28
   5   4   1   16.87    4.77
   6  -4   2    1.90    2.81
   6   0  -1   43.74    5.91
   6   1  -1   56.65    6.31
   6   3   0   19.33    5.56
   7  -3   1    8.85    4.10
   7  -2   0   13.45    4.23
   8   2   0    2.39    4.72
   8   4   2   -0.47    5.96
   9  -3   2    8.18    4.58
   9  -2   1   46.34    6.68
  10  -1   1   13.95    5.36
  10   0   1   -2.39    5.20
  10   1   1   12.91    6.81
   4   0  -1  163.22    7.59
   4   1  -1  336.66   10.87
   5   0  -1   57.24    5.32
   5   1  -1  157.39    8.51
   6   5   3    6.15    5.51
   7   2   0    5.57    7.07
   8  -1   0   21.50    5.06
   8   1   0   19.53    6.57
   8   3   1    0.96    5.09
   9   2   1   53.52    8.97
   2   5   3   20.66    4.69
   2   6   5    8.02    3.75
   5   5   3    9.48    5.28
   6  -2   0   21.46    4.03
   7   3   1    4.83    5.90
   7   4   2   13.02    5.98
   8   0   0    3.21    4.37
   9  -1   1    6.56    5.26
   9   3   2    1.52    5.56
  -1   4   3   74.35    3.56
   1   4   2  154.59    6.92
   3   5   3   20.21    4.45
   3   6   5    3.25    3.95
   4   5   3   26.20    4.99
   6  -3   1  126.37    6.72
   6   2   0   14.28    5.08
   6   4   2    0.35    5.20
   7  -1   0   10.99    4.76
   7   1   0    7.83    5.76
   8  -3   2    4.64    4.34
   8  -2   1    6.21    4.72
   8   2   1   -0.80    5.68
   9   0   1   -0.60    5.26
   9   1   1    6.72    5.45
  10  -1   2    5.28    5.65
  10   1   2    4.23    6.38
   0   5   4  147.45    6.76
   0   6   6   16.73    3.99
   1   3   1  431.09    9.92
   2   2   0  193.17    7.11
   5  -4   2    1.39    2.13
   5  -2   0   28.98    3.55
   5   2   0   28.42    5.14
   5   4   2    0.30    5.01
   6   3   1  109.70    9.53
   6   5   4   17.30    6.53
   7   0   0   80.47    7.61
   8   3   2    4.04    5.87
   9  -2   2    6.12    4.60
   9   2   2   13.81    7.34
  10   0   2    6.54    5.65
   2   4   2   33.96    4.68
   3   2   0    7.30    3.24
   3   4   2   11.91    4.45
   4   2   0   74.42    6.14
   4   4   2   11.35    5.06
   5   3   1    6.58    4.43
   6  -5   4   18.47    2.95
   6  -1   0    3.57    3.80
   6   1   0   -2.82    3.62
   7   2   1    2.35    5.71
   7   4   3   20.45    6.23
   8  -1   1   27.51    6.06
   8   1   1   29.95    7.10
  -1   3   2  253.79    4.82
   1   5   4   40.37    5.00
   1   6   6    3.30    3.71
   2   3   1  290.73    9.48
   3  -2   0    8.21    1.83
   3   3   1   15.61    4.17
   4  -2   0   70.92    3.97
   4   3   1   20.09    4.54
   5  -3   1    4.27    2.51
   5   5   4    6.06    4.80
   6   0   0   40.64    5.90
   7  -4   3   23.29    4.61
   7  -2   1    7.64    4.12
   7   3   2   27.94    6.21
   8   0   1   19.05    5.75
   9  -1   2   17.32    5.96
   9   1   2   22.61    6.60
  -1   6   7    6.25    3.10
   2   5   4   14.44    4.48
   2   6   6   16.20    4.51
   3   5   4   46.27    6.29
   4   5   4    2.49    3.62
   5   1   0  246.73   10.64
   6   2   1  199.19   11.86
   6   4   3   14.70    5.53
   7  -3   2   25.20    4.91
   8   2   2    5.25    5.33
   8   3   3    0.16    5.67
   9   0   2    2.19    4.86
   9   2   3   -0.58    5.47
  10   0   3    4.55    5.44
   1   1   0  479.11    7.69
   4   1   0  484.34   13.34
   5  -1   0  257.59    9.47
   5   0   0  246.43   10.14
   5   4   3   20.93    6.14
   6   3   2   72.21    8.00
   7   1   1    1.64    4.55
   7   4   4   24.37    6.96
   8  -2   2    3.07    4.67
   9  -2   3    2.33    4.43
   0   4   3   97.49    5.12
   5   2   1   50.24    6.73
   5   5   5   13.15    5.05
   7  -1   1    3.06    3.77
   7   0   1   17.94    5.09
   7   2   2    4.64    5.26
   7   3   3   14.80    5.87
   8  -3   3   -0.46    3.62
   8   1   2   94.94    9.21
   9   1   3    3.84    5.35
   0   6   7   13.67    4.04
   2   1   0   68.66    4.26
   3   1   0  641.33   13.18
   4  -4   2    8.01    1.68
   4  -1   0  508.48   11.31
   4   4   3   31.76    5.60
   4   5   5   14.72    5.43
   5   3   2   27.12    5.71
   6  -2   1  194.51    8.85
   6   1   1   13.62    5.44
   6   4   4   18.86    5.98
   8  -1   2   85.75    8.00
   8   0   2   17.88    5.68
   8   2   3   28.98    6.89
   8   3   4    7.66    6.09
   9  -1   3    9.67    5.54
   9   0   3    1.49    4.95
   9   2   4    3.12    5.65
   1   4   3   32.26    4.07
   1   6   7   13.13    4.42
   2   4   3   20.19    4.26
   3   4   3   -0.58    3.22
   3   5   5   -3.06    3.75
   4  -3   1   23.61    2.34
   4   0   0    5.94    3.17
   4   2   1  140.96    8.16
   4   3   2   13.95    4.98
   6   3   3    3.48    5.85
   7   4   5    4.32    5.85
   0   5   5   22.77    3.70
   1   5   5   -1.42    3.68
   2   5   5    2.44    4.03
   5   4   4   76.40    8.21
   5   5   6    0.03    4.21
   6  -4   3   20.74    3.92
   6  -3   2   73.57    5.86
   6  -1   1   12.96    4.37
   6   0   1   17.17    4.51
   6   2   2   34.60    6.39
   7  -2   2    9.89    4.42
   7   1   2   22.27    5.93
   7   3   4   16.97    6.91
   8   1   3   12.95    6.56
   8   3   5    0.57    6.40
   9  -2   4    3.06    4.73
   9   1   4   22.47    6.57
   9   2   5    2.41    6.56
  -2   4   4   25.31    1.97
   0   2   1   63.91    2.89
   0   3   2   89.86    4.28
   3  -1   0  641.28   10.33
   3   0   0  771.78   12.98
   3   2   1   13.60    3.59
   3   3   2   17.74    3.91
   5   1   1   34.59    5.12
   6   4   5   18.29    6.07
   7  -4   4   19.53    4.85
   7   0   2   11.55    5.87
   7   2   3   47.24    7.46
   7   4   6    0.65    6.16
   8  -2   3   16.30    4.45
   8   2   4    1.55    5.77
   9  -1   4   12.76    5.88
   9   0   4    6.73    6.02
  -1   6   8    6.16    3.00
   1   2   1  137.96    5.39
   1   3   2   23.18    3.33
   2   2   1  157.86    6.71
   2   3   2   29.92    3.88
   4   4   4   36.18    5.83
   4   5   6    7.90    4.66
   5  -5   4    7.76    2.34
   5  -2   1   57.65    4.68
   5   2   2    7.91    5.19
   5   3   3  115.47    9.14
   7  -3   3   13.95    4.32
   7  -1   2   18.09    4.77
   8  -3   4   13.02    4.46
   8  -1   3    5.19    4.59
   8   0   3   59.34    7.51
  -2   5   6   21.33    2.96
   0   6   8    5.17    3.61
   2   0   0  673.74    9.75
   3   4   4   15.79    5.00
   3   5   6    3.81    4.68
   5   0   1  245.42   10.34
   5   4   5   41.80    7.51
   5   5   7    2.20    4.88
   6   1   2   37.59    6.03
   6   3   4   25.85    6.10
   7   3   5   13.62    6.07
   8   1   4    5.67    6.29
   8   3   6   -1.01    5.37
   9  -2   5    5.95    5.03
   9   1   5    3.26    5.77
   4   1   1  192.58    8.82
   4   3   3   21.40    4.83
   5  -1   1   44.13    4.91
   6   2   3    4.37    4.90
   6   4   6   24.31    6.38
   7   1   3    4.89    5.52
   7   2   4   16.96    5.91
   8   2   5    1.40    5.38
   9  -1   5    7.14    5.60
   9   0   5   -4.28    4.27
   2  -1   0   72.21    2.86
   2   4   4   10.33    4.03
   2   5   6    3.40    4.27
   4   2   2  390.43   13.17
   4   5   7    1.95    4.43
   6  -2   2   44.07    5.24
   6   0   2   24.38    5.60
   7  -2   3   51.01    6.36
   8  -2   4    6.87    4.83
   8   0   4  101.23    9.54
   9   1   6    2.13    5.55
  -1   4   4   27.12    2.88
  -1   5   6   50.51    4.39
   0   5   6    0.80    3.28
   1   4   4   16.51    3.69
   1   5   6   14.69    4.32
   3   3   3   47.64    5.78
   4   4   5   27.10    5.54
   5  -3   2   30.08    3.56
   5   1   2   87.69    7.59
   5   3   4   23.98    6.21
   5   4   6    1.31    5.47
   6  -1   2   38.34    5.63
   6   3   5   -0.31    4.69
   6   4   7   -2.88    5.78
   7  -1   3    8.64    5.16
   7   0   3   22.58    5.61
   7   3   6   18.79    6.56
   8  -3   5    4.24    3.90
   8  -1   4   -1.57    3.97
   8   1   5   43.68    8.26
   8   2   6    6.83    5.93
   0   4   4  133.20    6.10
   3  -3   1   18.23    1.57
   3   1   1   13.33    3.37
   3   5   7    0.82    3.77
   4  -2   1  152.09    5.91
   4   0   1  505.91   12.66
   5  -4   3   24.71    3.45
   5   2   3  213.27   11.29
   6   2   4  117.07   10.27
   7  -4   5    7.32    4.11
   7  -3   4   17.55    5.18
   7   1   4   85.18    8.97
   7   2   5   16.40    5.98
   9  -1   6    3.91    5.76
   9   0   6    6.63    5.61
   3   2   2  114.02    6.78
   3   4   5   35.08    5.52
   4   5   8    1.99    4.13
   6  -4   4   13.73    4.06
   6  -3   3   13.41    3.72
   6   4   8    0.54    5.81
   7   3   7    8.10    6.09
   8  -2   5    1.76    4.46
   8   0   5   13.48    6.36
   8   2   7   11.29    7.03
   2   3   3  114.48    6.63
   2   5   7    4.03    4.42
   4  -1   1  204.34    7.66
   4   3   4   21.89    5.03
   4   4   6   57.21    6.94
   5   0   2   69.28    6.51
   5   3   5   21.37    6.69
   5   4   7    3.19    5.56
   6   3   6   12.11    5.59
   7   0   4   -0.89    5.38
   8  -1   5   34.00    6.33
   8   1   6    2.74    5.73
   9   0   7    3.12    5.33
   1   5   7   -1.90    4.12
   2   1   1  600.18   11.28
   2   4   5   15.60    4.57
   3   5   8    0.72    4.45
   4   1   2  128.81    7.50
   4   2   3    7.59    4.57
   5  -2   2    3.42    3.28
   6   0   3  264.43   12.06
   7  -2   4    8.69    4.59
   7  -1   4   94.20    8.66
   7   1   5   63.79    8.73
   7   2   6    7.70    5.41
   7   3   8   -3.89    4.96
   8  -3   6    0.43    3.88
   8   2   8    8.84    6.83
   1   3   3  152.15    6.74
   2   2   2  510.74   11.87
   5  -1   2   96.81    6.61
   5   1   3   19.66    5.44
   5   2   4   12.60    4.95
   6  -2   3    5.50    3.85
   6  -1   3  175.82    9.77
   6   1   4   30.72    6.18
   6   2   5    1.67    4.39
   6   3   7   19.33    7.01
   8   0   6    4.42    5.37
   8   1   7    8.52    6.48
   0   5   7   13.25    4.13
   1   4   5    8.47    3.48
   2   5   8   12.30    4.80
   3   0   1  588.65   11.70
   3   3   4   12.75    3.95
   3   4   6  206.36   11.00
   4   4   7    5.87    5.23
   5   3   6   50.91    7.61
   5   4   8   15.54    5.54
   7  -4   6    1.96    3.87
   7  -3   5    5.82    4.21
   7   2   7    2.03    5.25
   8  -2   6    5.31    4.21
   8  -1   6    2.34    4.44
  -3   5   7   32.63    2.94
  -1   5   7   12.61    3.48
   3   5   9    4.57    4.27
   4   3   5   89.58    7.96
   7   0   5   88.99    8.83
   7   1   6   32.24    6.72
   8   0   7   -0.10    5.45
   8   1   8    2.66    6.34
  -2   5   7    8.18    2.87
   0   3   3  195.80    6.30
   3   2   3  134.79    7.51
   5   4   9   -2.10    4.79
   6  -3   4   23.59    4.41
   6   0   4   70.91    7.33
   6   2   6   18.51    6.09
   6   3   8    8.50    5.63
   7  -2   5   15.59    5.00
   7  -1   5   62.13    7.63
   7   2   8    0.89    6.31
   0   4   5   12.63    3.06
   1   2   2   31.27    3.18
   1   5   8    3.98    4.15
   2   3   4   71.26    6.01
   2   4   6   63.76    6.24
   2   5   9   -1.94    3.91
   3   1   2  485.29   12.15
   3   4   7   53.25    7.10
   3   5  10   -1.15    4.70
   4  -3   2   19.61    2.62
   4   0   2  159.20    7.69
   4   2   4   69.24    6.61
   4   4   8    1.05    4.60
   5  -3   3  124.10    6.39
   5   0   3  137.52    8.22
   5   2   5   85.32    8.17
   5   3   7   16.27    5.48
   6  -4   5   18.29    4.43
   6   1   5  112.08    9.34
   8  -2   7    6.40    4.43
   8  -1   7    2.75    4.40
   8   0   8    4.62    5.69
   8   1   9    0.75    5.31
  -1   3   3  407.52    7.12
   1   1   1 1195.96   12.37
   3  -2   1   12.07    2.12
   3  -1   1   16.05    2.74
   3   3   5   17.65    4.94
   4   1   3  173.09    8.72
   4   3   6   93.65    8.30
   5  -5   5    7.26    2.81
   5   1   4  212.97   10.88
   5   4  10    3.84    5.21
   6  -2   4  116.09    7.86
   6  -1   4   27.83    5.11
   6   2   7   18.68    5.88
   6   3   9    0.59    5.24
   7  -3   6   13.13    4.59
   7   0   6    1.21    4.10
   7   1   7   -0.25    4.81
   7   2   9   11.06    6.03
  -1   4   5   76.73    4.48
   0   5   8    5.59    3.62
   4   4   9    5.88    5.35
   5  -1   3   11.55    4.07
   7  -1   6   19.61    6.06
   8  -2   8    6.18    5.27
   8  -1   8    9.71    5.40
   8   0   9   -2.28    5.62
   1   4   6   28.00    4.62
   1   5   9   26.62    5.20
   2   5  10   -3.20    4.08
   3   4   8    1.80    4.71
   4  -1   2  132.64    6.36
   5  -4   4   86.01    5.28
   5  -2   3  227.49    8.95
   5   2   6  114.23    9.31
   5   3   8   27.58    6.27
   6   0   5  155.79   10.20
   6   1   6   54.97    7.52
   6   2   8   27.83    7.30
   6   3  10    6.93    5.77
   7  -2   6   -2.60    3.19
   7   0   7   14.03    6.16
   7   1   8    5.95    5.40
   7   2  10    4.54    5.80
  -2   4   5   31.11    2.68
  -1   5   8   10.43    3.80
   1   3   4   88.51    5.62
   2   0   1   98.49    4.46
   2   2   3  276.25    9.25
   2   4   7    3.91    3.83
   4   2   5   33.00    5.40
   4   3   7    3.29    4.86
   4   4  10   11.72    5.78
   5   1   5  165.61   10.42
   6  -3   5    3.92    4.20
   8  -1   9    2.55    4.99
   0   2   2 1714.44   14.59
   2   3   5   32.55    4.93
   3   2   4   59.16    5.59
   3   3   6   57.09    6.39
   5   0   4    2.62    3.57
   5   3   9   11.54    5.56
   6  -4   6   22.64    4.81
   6  -1   5   99.50    7.94
   6   1   7  137.56   10.94
   6   2   9   -3.08    5.73
   7  -3   7    4.12    3.88
   7  -2   7    6.91    4.73
   7  -1   7    8.95    4.72
   7   0   8    6.99    5.98
   7   1   9    5.26    5.39
   0   4   6   14.28    3.43
   0   5   9   -1.20    3.53
   1   5  10    0.75    3.86
   2   1   2  214.56    7.21
   3   0   2   39.88    4.26
   3   4   9   27.09    5.45
   4   0   3  362.39   11.33
   4   1   4   11.95    3.91
   4   4  11    3.96    5.10
   5   2   7   40.78    7.25
   6  -2   5   -3.65    2.96
   6   0   6  561.90   18.38
   7   1  10    3.53    6.33
   1   4   7   50.31    5.78
   2   4   8   64.40    6.66
   3   1   3  623.37   14.15
   4   3   8    0.88    4.53
   5  -1   4  219.88    9.94
   5   3  10   -1.72    4.70
   6   2  10    6.24    5.69
   7  -3   8   -2.21    3.80
   7  -1   8    5.64    5.40
   7   0   9   22.59    6.89
   3   4  10   20.00    5.50
   4   2   6    2.90    4.04
   5   1   6    7.60    4.84
   5   2   8   48.53    7.40
   5   3  11   23.81    6.76
   6   1   8   26.64    6.31
   7   1  11    7.96    5.92
  -3   1  -8   85.73    6.89
  -3   2  -6    3.53    3.35
  -3   4  -6  200.54   11.17
  -3   5  -7    5.49    4.02
  -2  -1 -10  202.18    8.67
  -2   3  -2   25.67    3.92
  -2   4  -2   33.91    4.22
  -2   5  -3   21.66    4.67
  -1  -2 -10   58.93    4.45
   0  -3 -15   20.14    3.72
   0  -3 -14    6.58    3.02
   1   5   3   11.58    1.80
   1   6   2   29.57    3.11
  -3   2  -7   11.73    4.87
  -3   3  -6   58.26    6.36
  -3   5  -8    1.05    4.01
  -2  -1 -16    6.28    4.25
  -2  -1 -15    1.14    3.87
  -2  -1 -14    6.69    3.92
  -2  -1 -13   22.76    4.70
  -2  -1 -12   28.38    4.85
  -2  -1 -11   13.68    4.05
  -2   0  -6    6.38    3.53
  -2   6  -5    5.62    3.92
  -1  -2 -16   -0.80    3.60
  -1  -2 -11  217.24    8.05
  -1   2   0  408.44    7.69
  -1   6  -2   21.45    4.41
   0   4   2   83.39    3.59
  -3   1 -16   13.72    5.62
  -3   1 -15   13.98    5.74
  -3   1 -14   -0.94    4.93
  -3   1 -12    9.54    5.26
  -3   1 -11   14.39    5.82
  -3   1 -10   48.24    6.20
  -3   3  -7  163.53   10.42
  -3   4  -7   64.45    7.25
  -3   5 -10    1.34    4.51
  -3   5  -9    1.98    4.63
  -2   1  -4   68.80    4.97
  -2   5  -4   13.07    4.59
  -2   6  -6   10.47    5.07
  -1  -2 -15   10.36    3.85
  -1  -2 -14    3.25    3.85
  -1  -2 -13    5.46    3.50
  -1  -2 -12   -0.09    2.89
  -1   4   0   70.81    4.66
   0   6   0    5.91    3.42
  -3   1 -13   11.10    4.72
  -3   2  -9  120.77    9.84
  -3   2  -8  108.32    8.24
  -3   3  -8   18.03    5.33
  -3   4  -9   26.73    6.65
  -3   4  -8   -1.09    4.12
  -2   2  -3  265.99    9.04
  -2   4  -3   19.87    3.96
  -1   1  -1 1149.18   11.89
  -1   3   0   96.81    4.74
  -1   5  -1  197.62    8.69
  -3   2 -15    3.39    4.99
  -3   2 -14   10.02    5.19
  -3   2 -13    4.08    5.59
  -3   2 -12    1.55    5.27
  -3   2 -11   30.15    6.07
  -3   2 -10   66.64    7.64
  -3   3 -10   11.79    5.87
  -3   3  -9   40.47    6.65
  -3   4 -12    4.57    5.22
  -3   4 -11   -3.02    4.77
  -3   4 -10   15.11    5.64
  -2   0  -7   -2.14    2.40
  -2   3  -3  126.91    7.06
  -2   5  -5    3.60    4.48
  -1   6  -3   13.46    4.32
   0   5   1   27.13    3.42
   2   6   3   -0.39    1.69
  -3   3 -14    6.19    5.46
  -3   3 -13   10.90    5.76
  -3   3 -12    4.55    5.04
  -3   3 -11    7.33    4.99
  -2   0 -17    0.08    4.30
  -2   0 -16    1.39    4.56
  -2   0  -8  159.10    8.11
  -2   1  -5 1059.69   18.08
  -2   4  -4    4.91    3.57
  -2   5  -6    5.28    4.78
   0   3   2   92.81    3.09
  -2   0 -15   -1.53    4.51
  -2   0  -9   29.37    4.92
  -2   2  -4  675.38   15.03
  -2   3  -4   71.34    6.39
  -2   5  -7    5.22    5.16
  -1  -1  -6  400.79    8.64
  -1   0  -3 2389.12   18.05
  -1   4  -1  304.84    9.83
  -1   5  -2   66.84    6.18
  -1   6  -4   19.76    4.96
   0   6  -1    2.94    3.74
  -2   0 -14   14.56    4.61
  -2   0 -13   -1.57    3.40
  -2   0 -12    4.85    4.70
  -2   0 -11   36.27    5.86
  -2   0 -10   10.43    3.84
  -2   1  -6   90.90    6.35
  -2   4  -5   22.38    4.86
  -2   5  -8   17.24    6.08
  -1   6  -5    1.83    4.31
   2  -4 -14   17.09    2.62
   2  -4 -13   25.76    2.56
   2  -4 -12    5.22    1.67
  -2   1 -16   11.45    6.07
  -2   2  -5   41.47    4.94
  -2   3  -5   29.16    4.89
  -2   4  -6   70.08    7.33
  -2   5 -10   -1.86    4.80
  -2   5  -9    0.97    4.44
  -1  -1 -17   15.24    4.68
  -1   5  -3    9.79    4.45
   0  -2  -6  343.41    5.40
   1   6   1   12.29    3.23
   2   5   4   12.90    1.51
  -2   1 -15    0.36    4.92
  -2   1 -14    6.76    5.49
  -2   1  -8  235.43   10.85
  -2   1  -7  166.21    8.57
  -2   2 -16    8.98    6.40
  -2   2  -6  115.78    7.99
  -2   3  -6   64.31    7.25
  -2   4  -7    4.09    4.77
  -1  -1 -16    4.01    3.73
  -1  -1 -15    5.96    4.57
  -1  -1  -7  258.09    7.84
  -1   2  -1  137.79    5.40
  -1   6  -7   15.08    5.84
  -1   6  -6    4.34    4.20
   0  -2 -17    3.46    4.22
   0   5   0    2.50    2.95
   0   6  -2    6.17    3.88
  -2   1 -13   23.86    5.42
  -2   1 -12   37.11    7.29
  -2   1 -11   16.09    6.03
  -2   1 -10  221.40   11.73
  -2   1  -9  165.47    9.59
  -2   2 -15   -0.80    5.16
  -2   2  -7   44.97    6.34
  -2   3 -15   15.50    6.48
  -2   3  -7  273.60   13.03
  -2   4 -13   10.35    6.06
  -2   4 -12    2.05    5.55
  -2   4 -10    6.48    6.22
  -2   4  -9    9.32    5.15
  -2   4  -8   66.77    7.78
  -1  -1 -14    9.57    4.52
  -1  -1  -8   34.67    3.92
  -1   1  -2 2747.88   21.36
  -1   4  -2  178.52    8.50
  -1   5  -4   42.32    6.10
   0   4   1   55.84    3.81
   1  -3 -16    5.95    3.59
  -2   2 -14    0.54    4.88
  -2   2 -13    5.76    5.07
  -2   2 -12   18.66    6.56
  -2   2  -8   12.54    4.71
  -2   3 -14    9.63    6.06
  -2   3 -13   17.60    6.30
  -2   3 -12   13.57    6.72
  -2   3 -11   -0.52    5.60
  -2   3 -10    3.37    5.84
  -2   3  -9   69.52    9.00
  -2   3  -8   91.40    8.59
  -1  -1 -13   31.53    5.48
  -1  -1 -12   43.81    5.67
  -1  -1  -9   92.06    5.91
  -1   0  -4   14.86    3.13
   0  -2 -16    6.55    3.78
   0   6  -3    3.23    4.04
  -2   2 -11   38.66    7.20
  -2   2 -10  190.93   11.54
  -2   2  -9  168.64   10.49
  -1  -1 -11   99.64    6.76
  -1  -1 -10   54.98    5.03
  -1   0 -17    1.36    4.56
  -1   4  -3   40.84    5.44
  -1   5  -5    2.61    3.82
   0  -2 -15    2.84    3.71
   1  -3 -15    3.50    3.60
   1   5   2   70.76    4.19
   1   6   0    4.94    3.54
   3   6   4    8.60    1.78
  -1   0 -16   -1.29    4.27
  -1   2  -2   33.32    4.01
  -1   3  -2   23.90    3.62
  -1   5  -7    2.13    5.11
  -1   5  -6   14.34    4.79
   0  -2 -14   14.76    4.26
   0  -2  -7   61.66    3.22
   0   5  -1   24.20    4.36
   0   6  -4    0.28    3.82
   1   4   3   34.76    2.13
  -1   0 -15   15.59    4.87
  -1   1 -17   20.48    6.66
  -1   4  -4   16.91    4.94
  -1   5 -11    1.40    5.25
  -1   5 -10    6.03    5.94
  -1   5  -9   32.24    7.19
  -1   5  -8    9.37    5.10
   0  -2 -13   25.93    4.50
   0   6  -5    2.89    4.40
   1  -3 -14   26.99    4.27
   2   6   2    0.15    2.68
  -1   0 -14    2.17    3.93
  -1   0 -13   37.11    6.63
  -1   1 -16    5.12    4.82
  -1   4 -14   10.89    7.21
  -1   4  -5   11.57    5.16
   0  -2 -12   83.03    6.07
   0  -2 -11  351.23   10.41
   0  -2  -8  129.47    5.03
   0  -1 -17    1.98    4.57
   0   6  -6   13.10    5.44
   1  -3 -13   86.60    5.62
  -1   0 -12    2.31    4.74
  -1   0  -6  153.57    6.90
  -1   1 -15    1.14    4.71
  -1   2 -16    5.69    5.96
  -1   3 -15   21.59    7.02
  -1   4 -13   13.29    6.35
  -1   4 -12    6.46    6.48
  -1   4  -6   35.23    6.58
   0  -2 -10   49.80    4.46
   0  -2  -9  194.96    6.68
   0   3   1   81.99    3.83
   0   4   0    4.73    2.44
   0   5  -2   74.59    6.51
   0   6  -8   10.01    6.14
   0   6  -7    8.42    4.94
   1  -3 -12   17.87    3.32
   1   6  -1    4.54    3.68
  -1   0 -11    2.83    3.65
  -1   0 -10   24.40    5.12
  -1   0  -9   44.65    5.52
  -1   0  -8   17.84    4.38
  -1   0  -7  724.68   15.02
  -1   1 -14   12.10    5.32
  -1   1  -4   42.26    4.32
  -1   2 -15    7.82    5.75
  -1   2 -14    2.42    6.06
  -1   3 -14   -3.00    5.24
  -1   3 -13   36.71    8.24
  -1   3  -4   87.00    6.53
  -1   4 -11    8.42    5.62
  -1   4 -10   18.08    6.03
  -1   4  -9    5.29    5.08
  -1   4  -8   87.59    8.51
  -1   4  -7   64.90    7.54
   0  -1 -16    1.29    4.50
   0   0 -18   -3.39    5.75
   1  -3 -11   77.11    4.46
  -1   1 -13   36.59    6.69
  -1   1 -12   51.29    7.80
  -1   2 -13   11.07    5.52
  -1   3 -12   24.61    6.71
  -1   3  -5   14.13    4.16
   0  -1 -15    6.82    4.98
   1  -3 -10  215.13    5.98
   1  -2 -17    1.98    4.42
   1   5   1  216.48    7.69
   1   6  -2    6.04    3.98
  -1   1 -11  108.63    8.79
  -1   1  -5  164.28    7.52
  -1   2 -12    5.29    5.48
  -1   3 -11   58.95    8.20
  -1   3 -10   96.26    9.25
  -1   3  -9  170.99   11.88
  -1   3  -8  150.12   10.84
  -1   3  -7  180.15   10.51
  -1   3  -6  117.19    8.30
   0   0 -17    2.50    4.83
   1  -3  -9   79.37    3.38
   1  -3  -8   55.37    2.30
  -1   1 -10   52.46    6.49
  -1   1  -9   96.75    7.58
  -1   1  -8   32.70    5.63
  -1   1  -7  250.22   10.17
  -1   2 -10   66.08    7.83
  -1   2  -9   73.91    8.33
  -1   2  -6   -0.17    3.42
   0  -1 -14   72.84    7.36
   0   0 -16   52.01    7.87
   0   1 -17   -0.43    5.84
   0   2   1   72.55    2.83
   0   5 -12   -0.74    5.23
   0   5 -11    7.77    6.07
   0   5 -10   10.74    6.33
   0   5  -6   -0.25    4.48
   0   5  -5   19.90    4.98
   1  -2 -16    4.91    4.67
   1   6  -3   38.09    5.82
   2   6   1   14.77    3.81
  -1   2  -8  336.17   13.43
  -1   2  -7  115.65    8.06
   0  -1 -13    4.55    4.51
   0   2 -17    2.75    5.59
   0   3 -16   -2.74    5.48
   0   4 -14   -3.80    5.38
   0   5  -9   -1.65    4.53
   0   5  -8    8.03    4.92
   0   5  -7   13.60    5.01
   1  -1 -18    3.72    4.78
   1   6  -4   24.98    5.36
   0  -1 -12  126.37    8.20
   0   0 -15    2.51    4.38
   0   1 -16    2.22    5.05
   0   2 -16    9.46    6.10
   0   3 -15   26.92    7.37
   0   3   0    0.31    2.00
   0   4 -13    7.51    6.09
   1  -2 -15    5.55    4.70
   1   5   0    0.52    3.17
   1   6  -8    8.48    5.65
   1   6  -7    5.57    5.31
   1   6  -6    6.35    5.08
   1   6  -5   33.83    6.17
   2  -3 -16    2.88    3.81
   0   0 -14    0.77    5.01
   0   1 -15    3.17    4.93
   0   2 -15   -0.12    5.15
   0   3 -14    8.56    6.04
   0   4 -12   46.79    8.05
   0   4 -11    7.48    6.44
   0   4  -3  116.53    7.64
   1  -1 -17   -1.55    4.26
   2   6   0   16.53    4.19
   0  -1 -11   54.36    5.67
   0   1 -14   71.03    8.80
   0   2 -14   12.39    6.64
   0   3 -13   18.67    6.43
   0   4 -10   17.65    5.86
   0   4  -9   22.88    6.47
   1  -2 -14   32.13    5.47
   1   0 -18   -0.87    5.26
   1   4   2  180.56    5.49
   1   5  -1  111.77    7.18
   3   6   3   -1.23    2.25
   0  -1 -10    9.51    3.53
   0   0 -13  152.16    9.89
   0   2 -13   28.16    7.38
   0   3 -12   18.09    6.22
   0   3  -1   82.96    4.97
   0   4  -8    8.56    5.45
   0   4  -7   16.96    5.27
   0   4  -6    9.18    4.52
   0   4  -5   12.97    4.40
   1  -1 -16    5.02    4.74
   1   1 -18    2.72    6.03
   1   5 -12    8.92    6.62
   2  -3 -15    7.43    3.93
   2   5   3   21.13    2.67
   0  -1  -9   49.40    4.65
   0   0 -12   -0.58    3.67
   0   1 -13    4.83    4.85
   0   3 -11   11.11    5.94
   1   0 -17   -4.20    4.60
   1   5 -11    2.80    5.49
   1   5  -2   60.50    5.93
   2   6  -1    0.48    3.72
   0  -1  -8  341.12    9.46
   0  -1  -3  504.09    4.77
   0   0 -11   48.63    6.21
   0   1 -12  126.79    9.53
   0   2 -12   95.49    9.82
   0   3 -10   70.45    8.86
   0   3  -2   99.05    5.90
   1  -2 -13   35.22    4.95
   1  -1 -15   21.65    5.44
   1   1 -17   -0.49    5.00
   1   2 -17   -1.40    5.16
   1   3 -16    2.67    5.75
   1   4 -14    1.64    5.57
   1   5 -10    5.33    5.03
   1   5  -9   13.87    6.27
   1   5  -3   48.51    5.98
   2   6  -2   11.25    4.15
   0  -1  -7   -2.06    2.77
   0   1 -11   55.66    7.36
   0   2 -11  367.39   15.74
   0   3  -9  277.42   13.56
   0   3  -8  231.25   11.90
   0   3  -3  215.34    8.77
   1   0 -16    3.93    4.42
   1   2 -16    4.87    5.27
   1   3 -15    1.78    5.82
   1   4 -13    9.60    6.15
   1   5  -8   14.04    5.20
   1   5  -7   13.30    5.54
   1   5  -6   49.14    7.23
   1   5  -5   25.55    5.76
   1   5  -4   61.77    6.89
   2  -3 -14    9.86    3.75
   2  -2 -17    4.14    3.84
   2   6  -3   14.37    4.49
   0   2 -10   40.83    6.65
   0   3  -7   -2.47    3.79
   0   3  -6   30.83    5.06
   0   3  -4  117.10    7.03
   1  -2 -12   40.78    4.63
   1   1 -16    7.67    5.36
   1   3 -14   23.26    7.56
   1   4 -12   35.10    7.27
   1   4   1  309.83    8.03
   2  -1 -18   -3.64    4.32
   2   6  -7   15.14    5.74
   2   6  -6    6.41    4.85
   2   6  -5   19.13    5.23
   2   6  -4   -1.59    3.68
   0  -1  -5  293.83    6.17
   0  -1  -4  918.07    8.78
   0   0  -9   15.19    4.13
   0   1 -10   11.64    4.35
   0   2  -9  203.68   10.84
   1  -1 -14   80.72    7.15
   1   0 -15   50.33    6.79
   1   1 -15   17.58    6.52
   1   2 -15    1.42    5.13
   1   4 -11   17.24    5.94
   2  -2 -16    4.03    3.76
   3  -4 -14   31.42    3.66
   3   6   2    4.86    2.95
   0   1  -9   48.94    5.63
   0   2  -8  128.16    8.44
   0   2  -1   62.19    3.86
   1  -2 -11   75.75    5.47
   1   2 -14   27.30    6.44
   1   3 -13   76.24    9.02
   1   4 -10   13.13    5.30
   2  -1 -17    6.40    4.64
   2   0 -18    0.27    4.49
   2   1 -18    4.27    5.99
   2   5 -12    2.17    5.21
   0   0  -8  183.45    8.01
   0   1  -8  327.49   11.45
   0   2  -7   60.71    6.00
   0   2  -6  355.45   11.90
   1  -1 -13   71.33    6.81
   1   0 -14    4.46    4.25
   1   1 -14   93.99    8.67
   1   3 -12   15.61    5.75
   1   4  -9    9.15    5.07
   1   4   0   72.29    4.73
   2  -3 -13   15.82    3.71
   2   2 -17    6.18    6.29
   2   3 -16   -0.41    5.25
   2   4 -14   17.37    7.04
   2   5 -11    5.86    5.32
   3   6   1   -0.60    3.17
   0   0  -7 1067.12   16.88
   0   1  -7    0.47    3.20
   0   2  -5 1032.21   18.37
   0   2  -4  981.04   16.62
   0   2  -3    0.75    2.65
   1   2 -13   35.70    6.74
   1   3 -11   71.61    8.93
   1   4  -8   18.78    5.26
   1   4  -7   67.59    7.67
   2  -2 -15    3.22    3.78
   2   0 -17   -1.08    4.53
   2   1 -17    5.03    5.57
   2   5 -10    2.23    4.73
   2   5   1  156.00    6.68
   0   0  -6 1380.09   17.62
   0   1  -6  622.96   13.76
   0   1   0   -0.81    0.96
   1  -2 -10  390.12    9.73
   1  -1 -12   19.66    4.49
   1   0 -13    0.86    3.72
   1   1 -13   63.04    7.42
   1   2 -12   45.26    7.59
   1   4  -6   56.36    6.32
   1   4  -5   89.27    7.40
   1   4  -2   20.35    3.73
   1   4  -1    6.77    2.75
   2  -1 -16   12.58    4.94
   2   2 -16    1.87    4.86
   2   3 -15    2.18    5.58
   2   4 -13   21.35    6.33
   2   5  -9    2.62    4.41
   2   5  -8    8.04    5.11
   3  -3 -16    1.55    3.56
   3   6   0    0.60    3.28
   0   1  -5  291.43    9.00
   1   3 -10  203.06   11.71
   1   4  -4   28.27    4.47
   1   4  -3   79.88    5.83
   2  -3 -12   25.73    3.58
   2   0 -16    0.71    4.59
   2   1 -16    3.96    5.39
   2   3 -14   19.67    6.98
   2   4 -12    5.75    5.21
   2   5  -7   11.28    4.98
   2   5   0   30.39    4.09
   3  -4 -13   19.51    2.99
   3   6  -7    2.05    4.59
   3   6  -1    0.70    3.57
   0   0  -5   52.98    3.77
   1   0 -12   44.90    5.51
   1   1 -12   15.87    4.96
   1   2 -11   74.77    7.70
   1   3  -9   75.53    7.58
   2  -2 -14   17.46    4.21
   2  -1 -15   13.00    4.63
   2   2 -15   -1.12    4.50
   2   4 -11    3.84    5.41
   2   5  -6   12.71    4.21
   2   5  -5   71.19    7.05
   2   5  -1   47.25    5.06
   3  -2 -17   11.53    4.12
   3   6  -6    6.54    4.04
   3   6  -5   15.24    4.80
   3   6  -4    3.64    3.75
   3   6  -3    3.45    3.38
   3   6  -2   13.96    3.83
   0   0  -4   25.52    2.60
   0   1  -3  500.77    9.22
   0   1  -1 4451.85   19.99
   1  -2  -9    4.63    2.21
   1  -1 -11  143.55    7.32
   1   3  -8   57.89    6.40
   2   1 -15    7.78    5.45
   2   3 -13   12.83    5.34
   2   5  -4   34.74    4.82
   2   5  -3   32.76    4.94
   2   5  -2   30.08    4.62
   3   0 -18    4.12    5.40
   3   3 -16    3.23    5.81
   3   5 -11    3.49    5.65
   1   0 -11   28.36    4.87
   1   1 -11  152.59    9.05
   1   2 -10  380.13   14.06
   1   3  -7    4.29    4.24
   2   0 -15    3.07    3.72
   2   2 -14    9.94    4.95
   2   4 -10   26.09    5.60
   3  -3 -15   19.38    4.19
   3   2 -17    1.77    4.90
   3   4 -14   20.56    6.35
   1  -1 -10   28.09    3.84
   1   2  -9    1.17    4.30
   1   3  -6  145.29    8.15
   2  -2 -13   38.95    4.66
   2  -1 -14   43.88    5.59
   2   3 -12   22.84    5.64
   2   4  -9    1.99    3.75
   3  -2 -16   -0.01    3.80
   3  -1 -17    0.49    3.93
   3   1 -17    1.30    5.07
   3   3 -15   22.04    6.74
   3   4 -13   20.68    6.63
   3   5 -10    8.46    4.57
   1   1 -10   31.15    4.72
   2   0 -14    5.16    4.21
   2   1 -14   42.79    6.25
   2   2 -13   37.56    6.15
   2   3 -11   14.11    5.71
   2   4  -8    9.47    5.16
   3   0 -17   -0.42    3.71
   3   2 -16   -0.78    4.47
   3   5  -9    2.90    4.10
   1   0 -10   12.69    3.28
   1   2  -8   17.09    3.82
   1   3  -5   29.53    4.06
   3   3 -14    8.61    4.95
   3   4 -12   -2.96    4.26
   3   5  -8    3.97    3.72
 -10   0   2    5.31    3.92
  -9  -1   2    1.35    3.53
  -8   2   0    1.70    4.13
  -8   3   0    3.52    6.48
  -7   4   0   -0.70    6.03
  -6   2  -1  191.75   11.81
  -5   1  -1   38.81    4.83
  -5   3  -1    3.09    4.75
  -5   5   0   16.62    6.82
  -4   6   1    6.06    5.98
  -2   5   0   30.80    6.42
  -2   6   1    3.05    4.62
  -1   3  -1  444.13   13.45
   1   5   1  199.81   10.37
 -10   2   1    7.32    6.12
  -9   0   1    5.01    4.18
  -8   1   0   19.32    5.00
  -6   3  -1  120.19   10.45
  -6   5   0    9.70    6.92
  -5   4  -1   18.08    7.17
  -4   4  -1   22.82    6.37
  -3   4  -1   64.34    7.81
  -2   4  -1  202.84   11.27
  -1   5   0   -2.63    3.93
  -1   6   1    5.37    5.45
   1   6   2   22.43    5.48
  -8   4   0    5.77    6.31
  -7   5   0   -1.64    5.87
  -6   1  -1   16.42    4.33
  -1   1  -1 1185.68   14.30
   0   0   0    0.00    0.00
_computing_structure_solution     'SHELXT 2018/2 (Sheldrick, 2018)'
;
_shelx_hkl_checksum              43638
_shelx_res_file
;
TITL fermin6_a.res in P2(1)
    fermin6.res
    created by SHELXL-2018/3 at 23:41:50 on 28-Mar-2020
CELL  0.56083    8.3496   5.2632  14.2969   90.000   99.800   90.000
ZERR     2.00    0.0006   0.0002   0.0010    0.000    0.006    0.000
LATT -1
SYMM -X,0.5+Y,-Z
SFAC C H N O
UNIT 30 30 2 2
TEMP 22
SIZE 0.340   0.186   0.143
L.S. 12
PLAN 12
CONF
BOND $H
CONF
EQIV $1 x, y-1, z
HTAB N1 O1_$1
LIST 4
FMAP 2
ACTA
WGHT    0.052900
EXTI    0.076056
FVAR       1.41051
O1    4    0.436775    0.796238    0.722137    11.00000    0.08119    0.03485 =
         0.05549   -0.00228   -0.00106    0.00029
N1    3    0.480064    0.381152    0.753284    11.00000    0.05777    0.03626 =
         0.04333    0.00038   -0.00088    0.00032
H1    2    0.463274    0.229866    0.736124    11.00000   -1.20000
C1    1    0.544521    0.206991    0.912534    11.00000    0.08139    0.05876 =
         0.04949    0.00909    0.00910    0.00201
AFIX 137
H1A   2    0.431636    0.203287    0.918240    11.00000   -1.50000
H1B   2    0.609341    0.231415    0.974081    11.00000   -1.50000
H1C   2    0.573648    0.049095    0.886292    11.00000   -1.50000
AFIX   0
C2    1    0.574541    0.424452    0.847523    11.00000    0.06012    0.04033 =
         0.04059   -0.00259    0.00311    0.00531
AFIX  13
H2    2    0.533500    0.580228    0.872634    11.00000   -1.20000
AFIX   0
C3    1    0.753712    0.464692    0.844518    11.00000    0.05883    0.04883 =
         0.04185    0.00364   -0.00384    0.00403
C4    1    0.833871    0.325948    0.788538    11.00000    0.06782    0.13398 =
         0.07586   -0.04895    0.02146   -0.01808
AFIX  43
H4    2    0.777746    0.203331    0.749040    11.00000   -1.20000
AFIX   0
C5    1    0.998116    0.361234    0.788272    11.00000    0.07074    0.20019 =
         0.07770   -0.04575    0.02446   -0.01536
AFIX  43
H5    2    1.050709    0.260491    0.749457    11.00000   -1.20000
AFIX   0
C6    1    1.082002    0.538172    0.843069    11.00000    0.05794    0.13082 =
         0.09103    0.01307    0.00066   -0.01195
AFIX  43
H6    2    1.191933    0.563011    0.841941    11.00000   -1.20000
AFIX   0
C7    1    1.004023    0.681267    0.900489    11.00000    0.06505    0.09883 =
         0.17716   -0.04172   -0.03004   -0.00253
AFIX  43
H7    2    1.060842    0.805082    0.939071    11.00000   -1.20000
AFIX   0
C8    1    0.839868    0.643312    0.901770    11.00000    0.06170    0.07987 =
         0.11643   -0.04067   -0.01771    0.01181
AFIX  43
H8    2    0.787916    0.740396    0.941994    11.00000   -1.20000
AFIX   0
C9    1    0.420897    0.573274    0.695933    11.00000    0.04122    0.03579 =
         0.04834    0.00195    0.00817    0.00103
C10   1    0.333780    0.505379    0.599240    11.00000    0.03786    0.03701 =
         0.04380    0.00470    0.00742   -0.00163
C11   1    0.213264    0.668092    0.555496    11.00000    0.04774    0.03919 =
         0.05808    0.00150    0.00591    0.00302
AFIX  43
H11   2    0.186538    0.811620    0.587523    11.00000   -1.20000
AFIX   0
C12   1    0.132477    0.618575    0.464582    11.00000    0.05297    0.05472 =
         0.05917    0.00782   -0.00416    0.00428
AFIX  43
H12   2    0.050761    0.727543    0.436194    11.00000   -1.20000
AFIX   0
C13   1    0.172496    0.409016    0.416057    11.00000    0.05269    0.05892 =
         0.04519    0.00400    0.00388   -0.01175
AFIX  43
H13   2    0.118548    0.376985    0.354762    11.00000   -1.20000
AFIX   0
C14   1    0.292808    0.246260    0.458409    11.00000    0.05180    0.05002 =
         0.05033   -0.00522    0.01407   -0.00432
AFIX  43
H14   2    0.320498    0.105115    0.425418    11.00000   -1.20000
AFIX   0
C15   1    0.372509    0.292544    0.549984    11.00000    0.04655    0.04152 =
         0.05011    0.00252    0.00589    0.00343
AFIX  43
H15   2    0.452280    0.180724    0.578634    11.00000   -1.20000
AFIX   0
HKLF 4
REM  fermin6_a.res in P2(1)
REM wR2 = 0.0899, GooF = S = 0.942, Restrained GooF = 0.942 for all data
REM R1 = 0.0355 for 1847 Fo > 4sig(Fo) and 0.0519 for all 2456 data
REM 159 parameters refined using 1 restraints
END
WGHT      0.0529      0.0000
REM Highest difference peak  0.116,  deepest hole -0.138,  1-sigma level  0.027
Q1    1   0.8188  0.6545  0.8319  11.00000  0.05    0.12
Q2    1   1.0044  0.6571  0.8300  11.00000  0.05    0.10
Q3    1   0.3076  0.5957  0.5625  11.00000  0.05    0.10
Q4    1   0.1955  0.2851  0.4618  11.00000  0.05    0.10
Q5    1   0.2143  0.8258  0.4450  11.00000  0.05    0.09
Q6    1   0.3577  0.9608  0.6935  11.00000  0.05    0.09
Q7    1   0.3483  0.4142  0.5841  11.00000  0.05    0.09
Q8    1   0.7981  0.0814  0.8176  11.00000  0.05    0.09
Q9    1   1.0594  0.9840  0.8387  11.00000  0.05    0.09
Q10   1   0.3165  0.3770  0.5924  11.00000  0.05    0.08
Q11   1   0.3743  0.3003  0.6260  11.00000  0.05    0.08
Q12   1   0.2662  0.5422  0.5918  11.00000  0.05    0.08
;
_shelx_res_checksum              32677
loop_
_space_group_symop_operation_xyz
'x, y, z'
'-x, y+1/2, -z'
loop_
_atom_site_type_symbol
_atom_site_label
_atom_site_fract_x
_atom_site_fract_y
_atom_site_fract_z
_atom_site_U_iso_or_equiv
_atom_site_adp_type
_atom_site_calc_flag
_atom_site_occupancy
_atom_site_disorder_assembly
_atom_site_disorder_group
O O1 0.4368(2) 0.7962(3) 0.72214(11) 0.0587(5) Uani d 1 . .
N N1 0.4801(2) 0.3812(3) 0.75328(12) 0.0469(5) Uani d 1 . .
H H1 0.463(3) 0.230(5) 0.7361(17) 0.056 Uiso d 1 . .
C C1 0.5445(4) 0.2070(5) 0.91253(17) 0.0634(7) Uani d 1 . .
H H1A 0.431636 0.203287 0.918240 0.095 Uiso calc 1 . .
H H1B 0.609341 0.231415 0.974081 0.095 Uiso calc 1 . .
H H1C 0.573648 0.049095 0.886292 0.095 Uiso calc 1 . .
C C2 0.5745(3) 0.4245(4) 0.84752(14) 0.0477(5) Uani d 1 . .
H H2 0.533500 0.580228 0.872634 0.057 Uiso calc 1 . .
C C3 0.7537(3) 0.4647(4) 0.84452(15) 0.0513(5) Uani d 1 . .
C C4 0.8339(4) 0.3259(8) 0.7885(2) 0.0915(10) Uani d 1 . .
H H4 0.777746 0.203331 0.749040 0.110 Uiso calc 1 . .
C C5 0.9981(4) 0.3612(11) 0.7883(2) 0.1148(15) Uani d 1 . .
H H5 1.050709 0.260491 0.749457 0.138 Uiso calc 1 . .
C C6 1.0820(4) 0.5382(9) 0.8431(2) 0.0947(11) Uani d 1 . .
H H6 1.191933 0.563011 0.841941 0.114 Uiso calc 1 . .
C C7 1.0040(4) 0.6813(8) 0.9005(4) 0.1196(15) Uani d 1 . .
H H7 1.060842 0.805082 0.939071 0.144 Uiso calc 1 . .
C C8 0.8399(4) 0.6433(6) 0.9018(3) 0.0898(10) Uani d 1 . .
H H8 0.787916 0.740396 0.941994 0.108 Uiso calc 1 . .
C C9 0.4209(2) 0.5733(4) 0.69593(14) 0.0417(5) Uani d 1 . .
C C10 0.3338(2) 0.5054(4) 0.59924(14) 0.0395(5) Uani d 1 . .
C C11 0.2133(3) 0.6681(4) 0.55550(16) 0.0487(5) Uani d 1 . .
H H11 0.186538 0.811620 0.587523 0.058 Uiso calc 1 . .
C C12 0.1325(3) 0.6186(5) 0.46458(17) 0.0572(6) Uani d 1 . .
H H12 0.050761 0.727543 0.436194 0.069 Uiso calc 1 . .
C C13 0.1725(3) 0.4090(5) 0.41606(16) 0.0528(6) Uani d 1 . .
H H13 0.118548 0.376985 0.354762 0.063 Uiso calc 1 . .
C C14 0.2928(3) 0.2463(4) 0.45841(15) 0.0501(6) Uani d 1 . .
H H14 0.320498 0.105115 0.425418 0.060 Uiso calc 1 . .
C C15 0.3725(3) 0.2925(4) 0.54998(14) 0.0463(5) Uani d 1 . .
H H15 0.452280 0.180724 0.578634 0.056 Uiso calc 1 . .
loop_
_atom_site_aniso_label
_atom_site_aniso_U_11
_atom_site_aniso_U_22
_atom_site_aniso_U_33
_atom_site_aniso_U_12
_atom_site_aniso_U_13
_atom_site_aniso_U_23
O1 0.0812(12) 0.0348(7) 0.0555(9) 0.0003(7) -0.0011(8) -0.0023(7)
N1 0.0578(11) 0.0363(9) 0.0433(10) 0.0003(8) -0.0009(8) 0.0004(8)
C1 0.0814(17) 0.0588(13) 0.0495(14) 0.0020(13) 0.0091(12) 0.0091(11)
C2 0.0601(14) 0.0403(10) 0.0406(11) 0.0053(9) 0.0031(10) -0.0026(9)
C3 0.0588(14) 0.0488(12) 0.0419(11) 0.0040(10) -0.0038(10) 0.0036(10)
C4 0.0678(18) 0.134(3) 0.0759(18) -0.018(2) 0.0215(15) -0.049(2)
C5 0.071(2) 0.200(5) 0.078(2) -0.015(3) 0.0245(16) -0.046(3)
C6 0.0579(17) 0.131(3) 0.091(2) -0.012(2) 0.0007(17) 0.013(2)
C7 0.065(2) 0.099(2) 0.177(4) -0.0025(19) -0.030(2) -0.042(3)
C8 0.0617(17) 0.080(2) 0.116(2) 0.0118(14) -0.0177(16) -0.0407(18)
C9 0.0412(10) 0.0358(9) 0.0483(12) 0.0010(8) 0.0082(9) 0.0019(9)
C10 0.0379(10) 0.0370(9) 0.0438(11) -0.0016(8) 0.0074(8) 0.0047(8)
C11 0.0477(12) 0.0392(10) 0.0581(13) 0.0030(9) 0.0059(10) 0.0015(9)
C12 0.0530(14) 0.0547(14) 0.0592(15) 0.0043(10) -0.0042(11) 0.0078(11)
C13 0.0527(13) 0.0589(13) 0.0452(11) -0.0118(11) 0.0039(10) 0.0040(11)
C14 0.0518(12) 0.0500(13) 0.0503(13) -0.0043(9) 0.0141(10) -0.0052(10)
C15 0.0466(12) 0.0415(10) 0.0501(12) 0.0034(9) 0.0059(10) 0.0025(10)
loop_
_atom_type_symbol
_atom_type_description
_atom_type_scat_dispersion_real
_atom_type_scat_dispersion_imag
_atom_type_scat_source
C C 0.0015 0.0009 'International Tables Vol C Tables 4.2.6.8 and 6.1.1.4'
H H 0.0000 0.0000 'International Tables Vol C Tables 4.2.6.8 and 6.1.1.4'
N N 0.0030 0.0019 'International Tables Vol C Tables 4.2.6.8 and 6.1.1.4'
O O 0.0056 0.0036 'International Tables Vol C Tables 4.2.6.8 and 6.1.1.4'
loop_
_exptl_crystal_face_index_h
_exptl_crystal_face_index_k
_exptl_crystal_face_index_l
_exptl_crystal_face_perp_dist
1 3 8 0.0710
-1 -3 -9 0.0720
1 2 -3 0.1500
-2 -3 6 0.1900
5 -1 0 0.0800
-6 1 1 0.1060
loop_
_geom_angle_atom_site_label_1
_geom_angle_atom_site_label_2
_geom_angle_atom_site_label_3
_geom_angle_site_symmetry_1
_geom_angle_site_symmetry_3
_geom_angle
_geom_angle_publ_flag
C9 N1 C2 . . 122.11(18) ?
C9 N1 H1 . . 120.7(17) ?
C2 N1 H1 . . 117.1(17) ?
C2 C1 H1A . . 109.5 ?
C2 C1 H1B . . 109.5 ?
H1A C1 H1B . . 109.5 ?
C2 C1 H1C . . 109.5 ?
H1A C1 H1C . . 109.5 ?
H1B C1 H1C . . 109.5 ?
N1 C2 C3 . . 112.09(17) ?
N1 C2 C1 . . 109.10(18) ?
C3 C2 C1 . . 112.80(19) ?
N1 C2 H2 . . 107.5 ?
C3 C2 H2 . . 107.5 ?
C1 C2 H2 . . 107.5 ?
C4 C3 C8 . . 117.7(3) ?
C4 C3 C2 . . 122.3(2) ?
C8 C3 C2 . . 119.9(2) ?
C3 C4 C5 . . 121.5(3) ?
C3 C4 H4 . . 119.2 ?
C5 C4 H4 . . 119.2 ?
C6 C5 C4 . . 120.8(4) ?
C6 C5 H5 . . 119.6 ?
C4 C5 H5 . . 119.6 ?
C5 C6 C7 . . 118.9(3) ?
C5 C6 H6 . . 120.6 ?
C7 C6 H6 . . 120.6 ?
C6 C7 C8 . . 120.3(3) ?
C6 C7 H7 . . 119.9 ?
C8 C7 H7 . . 119.9 ?
C3 C8 C7 . . 120.7(3) ?
C3 C8 H8 . . 119.6 ?
C7 C8 H8 . . 119.6 ?
O1 C9 N1 . . 121.50(19) ?
O1 C9 C10 . . 121.34(18) ?
N1 C9 C10 . . 117.16(17) ?
C11 C10 C15 . . 118.86(19) ?
C11 C10 C9 . . 118.16(18) ?
C15 C10 C9 . . 122.93(18) ?
C12 C11 C10 . . 120.5(2) ?
C12 C11 H11 . . 119.7 ?
C10 C11 H11 . . 119.7 ?
C13 C12 C11 . . 120.3(2) ?
C13 C12 H12 . . 119.9 ?
C11 C12 H12 . . 119.9 ?
C12 C13 C14 . . 119.9(2) ?
C12 C13 H13 . . 120.1 ?
C14 C13 H13 . . 120.1 ?
C13 C14 C15 . . 120.2(2) ?
C13 C14 H14 . . 119.9 ?
C15 C14 H14 . . 119.9 ?
C14 C15 C10 . . 120.3(2) ?
C14 C15 H15 . . 119.8 ?
C10 C15 H15 . . 119.8 ?
loop_
_geom_bond_atom_site_label_1
_geom_bond_atom_site_label_2
_geom_bond_site_symmetry_2
_geom_bond_distance
_geom_bond_publ_flag
O1 C9 . 1.232(3) ?
N1 C9 . 1.342(3) ?
N1 C2 . 1.459(3) ?
N1 H1 . 0.84(3) ?
C1 C2 . 1.522(3) ?
C1 H1A . 0.9600 ?
C1 H1B . 0.9600 ?
C1 H1C . 0.9600 ?
C2 C3 . 1.519(3) ?
C2 H2 . 0.9800 ?
C3 C4 . 1.343(4) ?
C3 C8 . 1.368(3) ?
C4 C5 . 1.385(4) ?
C4 H4 . 0.9300 ?
C5 C6 . 1.336(5) ?
C5 H5 . 0.9300 ?
C6 C7 . 1.359(5) ?
C6 H6 . 0.9300 ?
C7 C8 . 1.388(5) ?
C7 H7 . 0.9300 ?
C8 H8 . 0.9300 ?
C9 C10 . 1.492(3) ?
C10 C11 . 1.387(3) ?
C10 C15 . 1.390(3) ?
C11 C12 . 1.383(3) ?
C11 H11 . 0.9300 ?
C12 C13 . 1.374(4) ?
C12 H12 . 0.9300 ?
C13 C14 . 1.379(3) ?
C13 H13 . 0.9300 ?
C14 C15 . 1.386(3) ?
C14 H14 . 0.9300 ?
C15 H15 . 0.9300 ?
loop_
_geom_hbond_atom_site_label_D
_geom_hbond_atom_site_label_H
_geom_hbond_atom_site_label_A
_geom_hbond_site_symmetry_A
_geom_hbond_distance_DH
_geom_hbond_distance_HA
_geom_hbond_distance_DA
_geom_hbond_angle_DHA
_geom_hbond_publ_flag
N1 H1 O1 1_545 0.84(3) 2.30(3) 3.123(2) 168(2) yes
loop_
_geom_torsion_atom_site_label_1
_geom_torsion_atom_site_label_2
_geom_torsion_atom_site_label_3
_geom_torsion_atom_site_label_4
_geom_torsion_site_symmetry_1
_geom_torsion_site_symmetry_2
_geom_torsion_site_symmetry_3
_geom_torsion_site_symmetry_4
_geom_torsion
_geom_torsion_publ_flag
C9 N1 C2 C3 . . . . -85.6(2) ?
C9 N1 C2 C1 . . . . 148.7(2) ?
N1 C2 C3 C4 . . . . -41.1(3) ?
C1 C2 C3 C4 . . . . 82.5(3) ?
N1 C2 C3 C8 . . . . 140.4(2) ?
C1 C2 C3 C8 . . . . -95.9(3) ?
C8 C3 C4 C5 . . . . 0.0(5) ?
C2 C3 C4 C5 . . . . -178.5(3) ?
C3 C4 C5 C6 . . . . -1.0(6) ?
C4 C5 C6 C7 . . . . 1.0(7) ?
C5 C6 C7 C8 . . . . 0.0(6) ?
C4 C3 C8 C7 . . . . 1.0(5) ?
C2 C3 C8 C7 . . . . 179.5(3) ?
C6 C7 C8 C3 . . . . -1.0(6) ?
C2 N1 C9 O1 . . . . -3.7(3) ?
C2 N1 C9 C10 . . . . 176.80(18) ?
O1 C9 C10 C11 . . . . -28.1(3) ?
N1 C9 C10 C11 . . . . 151.43(19) ?
O1 C9 C10 C15 . . . . 149.3(2) ?
N1 C9 C10 C15 . . . . -31.2(3) ?
C15 C10 C11 C12 . . . . 0.3(3) ?
C9 C10 C11 C12 . . . . 177.8(2) ?
C10 C11 C12 C13 . . . . -0.9(4) ?
C11 C12 C13 C14 . . . . 0.5(3) ?
C12 C13 C14 C15 . . . . 0.5(3) ?
C13 C14 C15 C10 . . . . -1.1(3) ?
C11 C10 C15 C14 . . . . 0.7(3) ?
C9 C10 C15 C14 . . . . -176.71(19) ?

_cod_database_fobs_code 2243477
