#------------------------------------------------------------------------------
#$Date: 2021-04-10 08:04:26 +0300 (Sat, 10 Apr 2021) $
#$Revision: 264035 $
#$URL: file:///home/coder/svn-repositories/cod/cif/2/24/38/2243800.cif $
#------------------------------------------------------------------------------
#
# This file is available in the Crystallography Open Database (COD),
# http://www.crystallography.net/. The original data for this entry
# were provided by IUCr Journals, http://journals.iucr.org/.
#
# The file may be used within the scientific community so long as
# proper attribution is given to the journal article from which the
# data were obtained.
#
data_2243800
loop_
_publ_author_name
'Pacifico, Jessica'
'Stoeckli-Evans, Helen'
_publ_section_title
;
 A new tetrakis-substituted pyrazine carboxylic acid,
 3,3',3'',3'''-{[pyrazine-2,3,5,6-tetrayltetrakis(methylene)]tetrakis(sulfanediyl)}tetrapropionic
 acid: crystal structures of two triclinic polymorphs and of two
 potassium--organic frameworks
;
_journal_issue                   5
_journal_name_full               'Acta Crystallographica Section E'
_journal_page_first              480
_journal_page_last               490
_journal_paper_doi               10.1107/S2056989021003479
_journal_volume                  77
_journal_year                    2021
_chemical_formula_iupac          'C20 H28 N2 O8 S4'
_chemical_formula_moiety         'C20 H28 N2 O8 S4'
_chemical_formula_sum            'C20 H28 N2 O8 S4'
_chemical_formula_weight         552.68
_chemical_name_systematic
'3,3',3'',3'''-{[Pyrazine-2,3,5,6-tetrayltetrakis(methylene))tetrakis(sulfanediyl]}tetrapropionic acid'
_space_group_crystal_system      triclinic
_space_group_IT_number           2
_space_group_name_Hall           '-P 1'
_space_group_name_H-M_alt        'P -1'
_atom_sites_solution_hydrogens   mixed
_atom_sites_solution_primary     direct
_atom_sites_solution_secondary   difmap
_audit_creation_method           SHELXL-2018/3
_cell_angle_alpha                101.537(18)
_cell_angle_beta                 94.313(18)
_cell_angle_gamma                103.701(17)
_cell_formula_units_Z            1
_cell_length_a                   5.5843(8)
_cell_length_b                   9.0061(14)
_cell_length_c                   12.739(2)
_cell_measurement_reflns_used    3225
_cell_measurement_temperature    293(2)
_cell_measurement_theta_max      25.92
_cell_measurement_theta_min      2.39
_cell_volume                     604.80(17)
_computing_cell_refinement
;
CELL in IPDS-I (Stoe & Cie, 2000)
;
_computing_data_collection
;
EXPOSE in IPDS-I (Stoe & Cie, 2000)
;
_computing_data_reduction
;
INTEGRATE in IPDS-I (Stoe & Cie, 2000)
;
_computing_molecular_graphics
;
Mercury (Macrae <i>et al.</i>,  2020)
;
_computing_publication_material
;
SHELXL-2018/3 (Sheldrick, 2015), PLATON (Spek, 2020) and
publcif (Westrip, 2010)
;
_computing_structure_refinement
;
SHELXL-2018/3 (Sheldrick, 2015)
;
_computing_structure_solution
;
SHELXS-97 (Sheldrick, 2008)
;
_diffrn_ambient_temperature      293(2)
_diffrn_detector                 'image plate'
_diffrn_measured_fraction_theta_full 0.940
_diffrn_measured_fraction_theta_max 0.931
_diffrn_measurement_device       '1 circle goniometer'
_diffrn_measurement_device_type  'STOE IPDS 1'
_diffrn_measurement_method       '\f rotation'
_diffrn_radiation_monochromator  'plane graphite'
_diffrn_radiation_source         'fine-focus sealed tube'
_diffrn_radiation_type           MoK\a
_diffrn_radiation_wavelength     0.71073
_diffrn_reflns_av_R_equivalents  0.0578
_diffrn_reflns_av_unetI/netI     0.0847
_diffrn_reflns_limit_h_max       6
_diffrn_reflns_limit_h_min       -6
_diffrn_reflns_limit_k_max       11
_diffrn_reflns_limit_k_min       -11
_diffrn_reflns_limit_l_max       15
_diffrn_reflns_limit_l_min       -14
_diffrn_reflns_number            4709
_diffrn_reflns_theta_full        25.242
_diffrn_reflns_theta_max         25.917
_diffrn_reflns_theta_min         2.389
_exptl_absorpt_coefficient_mu    0.442
_exptl_absorpt_correction_T_max  0.896798
_exptl_absorpt_correction_T_min  0.646791
_exptl_absorpt_correction_type   empirical
_exptl_absorpt_process_details
;
(<i>ShxAbs</i>; Spek, 2020)
;
_exptl_crystal_colour            pale-yellow
_exptl_crystal_density_diffrn    1.517
_exptl_crystal_description       plate
_exptl_crystal_F_000             290
_exptl_crystal_size_max          0.350
_exptl_crystal_size_mid          0.300
_exptl_crystal_size_min          0.050
_refine_diff_density_max         0.354
_refine_diff_density_min         -0.280
_refine_ls_extinction_method     none
_refine_ls_goodness_of_fit_ref   0.884
_refine_ls_hydrogen_treatment    mixed
_refine_ls_matrix_type           full
_refine_ls_number_parameters     162
_refine_ls_number_reflns         2194
_refine_ls_number_restraints     2
_refine_ls_restrained_S_all      0.884
_refine_ls_R_factor_all          0.0691
_refine_ls_R_factor_gt           0.0412
_refine_ls_shift/su_max          0.000
_refine_ls_shift/su_mean         0.000
_refine_ls_structure_factor_coef Fsqd
_refine_ls_weighting_details
'w=1/[\s^2^(Fo^2^)+(0.0478P)^2^] where P=(Fo^2^+2Fc^2^)/3'
_refine_ls_weighting_scheme      calc
_refine_ls_wR_factor_gt          0.0895
_refine_ls_wR_factor_ref         0.0966
_reflns_number_gt                1452
_reflns_number_total             2194
_reflns_threshold_expression     'I > 2\s(I)'
_cod_data_source_file            pk2656sup1.cif
_cod_data_source_block           H4L1A
_cod_database_code               2243800
_shelx_space_group_comment
;
The symmetry employed for this shelxl refinement is uniquely defined
by the following loop, which should always be used as a source of
symmetry information in preference to the above space-group names.
They are only intended as comments.
;
_shelx_estimated_absorpt_t_min   0.861
_shelx_estimated_absorpt_t_max   0.978
_shelx_hkl_file
;
  -2  -8   8  170.49   17.24   2
  -1  -3 -12   -1.56   14.02   2
  -1  -1  -8  149.01   10.05   2
   0  -8  12   71.31   14.80   2
   0   0  -9   36.54    8.98   2
   1   0   2 3230.95   39.67   2
   2  -7  13   11.07   15.52   2
   2  -4  10  154.94   11.31   2
   2   0 -13    7.93   11.54   2
   4  -4  10   -0.34   11.87   2
   5  -2   6  126.07   13.23   2
  -3  -6  -4    9.92   21.07   3
  -2  -4  -9    1.47   16.70   3
  -1  -7  10    9.27   17.46   3
  -1  -4   7  774.88   18.77   3
   0  -2 -13   34.58   19.72   3
   1   1  -7  342.36   14.12   3
   1   1  -3 9097.24   65.75   3
   3  -3   9  217.37   15.62   3
   3   1 -10   40.71   15.11   3
   4  -2   7   15.22   14.35   3
   4  -1   5  377.74   17.86   3
   4   0 -13   12.58   21.16   3
   5  -3   8   88.17   21.08   3
  -2  -3  -7    0.64   10.57   3
  -1  -2 -10   68.42   10.78   3
   0  -6  11  122.91   12.77   3
   0  -5  10    5.07   10.59   3
   0  -1 -11   18.23   10.02   3
   0   0  -8  184.60   10.67   3
   1  -6  12   84.88   11.79   3
   1  -5  11   34.59   10.45   3
   1  -4  10   43.83   10.82   3
   1  -2   7   18.61    7.39   3
   1  -1 -13    8.86   11.43   3
   1   0 -11  127.73   11.49   3
   1   1  -6  585.25   15.09   3
   1   1  -5   33.52   10.13   3
   1   1  -4  260.48   12.98   3
   2  -3   9  121.41    9.47   3
   2   0   3  120.34   11.39   3
   2   1  -9    1.66    8.99   3
   3   0 -13   36.00   13.79   3
   3   0   3  172.85   11.62   3
   4   1  -9   85.43   11.25   3
   5  -1   4    0.98    9.97   3
   6  -2   5   11.26   14.40   3
  -3  -7  -4   25.24   24.79   4
  -3  -6  -3   49.85   18.06   4
  -2  -6   7  369.09   19.69   4
  -1  -8  11   45.63   21.55   4
  -1  -4 -12   46.02   24.12   4
  -1  -3 -11   94.31   17.41   4
  -1  -1  -7   15.75   12.59   4
   0  -7  12   34.27   19.87   4
   0  -4   9  539.25   15.90   4
   1  -7  13   11.31   19.08   4
   1  -1   5 1966.38   25.71   4
   2  -1 -14   -5.81   19.34   4
   2   0 -12  128.07   16.19   4
   4  -3   9   71.27   17.12   4
   5   0   1   21.75   14.99   4
  -2  -7   8   73.09   14.25   4
  -2  -5  -9   51.99   14.55   4
  -2  -5   6   51.13   10.13   4
  -2  -4  -8    2.87   11.88   4
  -2  -3  -6  274.75   11.76   4
  -1  -2  -9   19.77   10.56   4
   0  -3 -13    5.25   14.01   4
   0  -2 -12   47.19   11.73   4
   0  -2   6  203.01   11.45   4
   0   0  -7   17.07    8.11   4
   1  -3   9  307.06   10.99   4
   1  -2 -14   15.48   13.88   4
   1   0 -10  462.53   12.18   4
   2  -6  13    8.94   13.44   4
   2  -5  12   17.78   11.06   4
   2   1  -8   39.11    9.49   4
   3  -5  12   46.92   13.52   4
   3  -4  11   12.73   11.60   4
   3   1  -9    1.36   11.06   4
   4   1  -8   34.40   10.92   4
  -3  -7  -3   48.61   21.85   5
  -3  -6  -2   60.26   19.30   5
  -1  -6  10   15.42   14.94   5
  -1  -5   9    6.94   15.62   5
  -1  -3   6   68.72   11.97   5
  -1  -1  -6  277.48   13.26   5
   0  -3   8    8.55   12.26   5
   0  -1 -10  173.51   16.44   5
   1  -1 -12    8.36   15.06   5
   2  -4  11   59.81   13.72   5
   2  -2   8   26.85   12.08   5
   2  -1   6  322.89   14.98   5
   3  -2   8  902.25   19.74   5
   3  -1 -14   37.77   21.22   5
   3  -1   6  599.59   16.70   5
   3   0 -12   48.09   16.78   5
   4   0 -12    4.89   19.59   5
   5   0 -11    5.35   20.19   5
  -2  -8   9  136.07   17.02   5
  -1  -7  11   69.27   12.77   5
  -1  -4 -11   28.99   14.60   5
  -1  -3 -10   23.04   12.01   5
  -1  -2   4  940.39   21.27   5
   0  -1   4   55.16    9.82   5
   2  -1 -13   12.19   11.66   5
   2   0 -11    3.28   10.08   5
   2   1  -7  246.62   12.00   5
   3  -3  10   46.62   10.18   5
   3   1  -8   -2.69    8.80   5
   4  -4  11    8.72   14.10   5
   5  -2   7    6.50   12.13   5
  -3  -6  -1    2.38   21.80   5
  -3  -6   0    6.45   22.34   5
  -2  -5  -8  176.01   19.68   6
  -2  -4  -7   54.50   14.93   6
  -2  -3  -5   15.14   12.76   6
  -1  -4   8  300.11   15.04   6
  -1  -1  -5    4.96   12.52   6
   0  -6  12   98.32   17.55   6
   0  -5  11  169.02   15.14   6
   0  -2 -11  377.10   16.82   6
   0   0  -6 1028.85   19.97   6
   1  -6  13   62.89   19.39   6
   1  -5  12   45.36   16.37   6
   1  -2 -13   25.86   17.81   6
   2  -3  10   -7.62   14.46   6
   4  -2   8  110.01   16.74   6
   4   0   3  145.46   14.32   6
   4   1  -7    0.89   15.32   6
   5  -3   9   47.31   21.21   6
   6  -1   3  113.42   21.80   6
   6   0  -8   -8.05   25.64   6
  -1  -8  12   23.03   17.56   6
  -1  -2  -8  286.26   11.38   6
   0  -7  13  160.01   15.37   6
   0  -4  10  187.77   12.20   6
   0  -3 -12    2.85   11.82   6
   0  -1  -9   37.39    9.01   6
   1  -4  11  244.33   11.91   6
   1  -2   8  133.95    9.88   6
   1  -1 -11   20.67   10.23   6
   1   0  -9  118.94    9.89   6
   2  -2 -14   21.94   13.72   6
   2   1  -6   -1.41    7.77   6
   3  -5  13   12.79   13.55   6
   3  -1 -13  108.32   14.47   6
   3   0 -11   35.13   10.29   6
   3   1  -7   -0.21    8.96   6
   4  -3  10  101.38   12.52   6
   4  -1   6    4.75   10.10   6
   4   0 -11    6.59   11.81   6
   5  -1   5   -7.33   12.15   6
   5   0 -10   -0.95   14.43   6
   6  -2   6   15.09   16.73   6
  -3  -7  -2  112.20   27.74   6
  -2  -7   9   21.60   18.62   7
  -2  -6  -8   18.03   21.88   7
  -2  -6   8   48.01   15.60   7
  -2  -4   5  802.24   22.32   7
  -1  -1  -4    2.67   14.03   7
   0   0  -5 1205.75   21.66   7
   1  -1   6  261.89   14.32   7
   2  -5  13   10.12   18.63   7
   2   0 -10  263.06   17.17   7
   3   0   4  663.66   18.56   7
   4  -1 -13    1.61   22.66   7
   4   1  -6   10.35   15.62   7
   4   1  -5   -0.80   12.51   7
   6   0  -7    3.56   22.17   7
  -2  -5  -7   12.16   12.02   7
  -2  -5   7   -0.90   11.73   7
  -2  -4  -6   25.22   10.66   7
  -2  -3  -4   12.81    9.26   7
  -1  -6  11   71.26   12.89   7
  -1  -4 -10    4.62   11.91   7
  -1  -3  -9   43.57   10.77   7
   0  -2   7    3.90    7.78   7
   1  -3  10   25.75    8.39   7
   1  -2 -12  143.21   12.80   7
   1   0  -8  605.99   13.73   7
   1   0   3   26.11    9.22   7
   2  -4  12  217.55   12.66   7
   2  -2   9   22.52    8.57   7
   2  -1 -12   57.79   12.27   7
   2   0   4  383.43   13.55   7
   2   1  -5 1042.12   20.72   7
   3  -4  12   44.30   13.94   7
   3  -2   9  159.10   11.30   7
  -3  -8   4   16.62   33.83   7
   5   0   2    3.95   17.64   7
  -3  -7  -1    2.68   21.56   8
  -2  -8  10    7.43   22.14   8
  -1  -7  12   -1.64   20.87   8
  -1  -5  10   -2.84   15.40   8
  -1  -3   7   48.18   13.61   8
  -1  -2  -7   92.57   13.28   8
  -1  -1  -3  592.77   18.97   8
   0  -4 -12  102.05   20.71   8
   0  -3   9   56.54   12.59   8
   0  -2 -10  120.99   15.75   8
   0   0  -4  125.21   14.00   8
   1  -3 -13   23.58   20.23   8
   2  -2 -13  -12.81   19.66   8
   2  -1   7  340.58   14.52   8
   3  -1   7   91.20   13.08   8
   3   1  -6  148.43   14.69   8
   4   0 -10   92.68   17.99   8
   4   1  -4   41.85   13.56   8
   5  -2   8  114.01   21.09   8
  -1  -5 -10   -5.28   14.41   8
  -1  -4   9    1.04    8.91   8
   0  -6  13   36.34   14.27   8
   0  -5  12   51.92   12.20   8
   0  -3 -11    5.20   11.92   8
   0  -1  -8  183.82   10.66   8
   1  -6  14   11.35   13.45   8
   1  -5  13   92.47   11.82   8
   1  -1 -10    2.39   10.75   8
   2  -3  11  420.78   12.80   8
   2   0  -9  218.66   10.71   8
   2   1  -4  685.00   19.50   8
   3  -3  11   46.06   11.91   8
   3  -1 -12  152.84   12.80   8
   3   0 -10  104.82   11.52   8
   4  -2   9   98.55   12.47   8
   4  -1 -12  170.16   14.99   8
   5   0  -9   39.80   12.70   8
   4   1  -3    3.58   17.98   8
   6   0  -6   97.59   28.40   8
  -2  -6  -7   31.04   20.16   9
  -2  -3  -3   55.65   13.46   9
  -1  -3  -8  403.27   17.88   9
  -1  -2   5    3.32   14.12   9
  -1  -1  -2    1.58   12.81   9
   0  -4  11   -9.41   14.76   9
   0  -1   5  489.54   17.03   9
   0   0  -3    2.91   16.15   9
   1  -4  12  139.68   15.94   9
   2  -1 -11   22.27   14.30   9
   2   1  -3    1.10   14.49   9
   3   1  -5   -2.40   13.21   9
   4  -3  11   74.16   20.75   9
   4  -1   7  170.68   15.96   9
   4   0   4   60.00   15.66   9
   5  -1   6   70.19   17.68   9
   6  -1   4   17.29   20.92   9
  -2  -7  10   36.46   16.15   9
  -2  -6   9  119.22   14.27   9
  -2  -5  -6    2.92   12.17   9
  -2  -4  -5  306.98   13.99   9
  -2  -4   6  114.14   11.14   9
  -1  -4  -9   74.51   12.94   9
  -1  -2  -6   71.18    9.75   9
   1  -4 -13    8.24   16.69   9
   1  -3 -12   50.17   12.00   9
   1  -2 -11   24.96   10.52   9
   1  -2   9    9.58    8.68   9
   1   0  -7   90.19    8.91   9
   2  -5  14   29.66   13.71   9
   3  -4  13   78.00   14.27   9
   3  -2 -13   -4.62   13.87   9
  -3  -7   3   64.32   37.65   7
  -3  -7   0  189.97   26.06   9
  -2  -3   3 1690.76   39.35   9
  -1  -1   0  662.93   41.28   9
   2   1  -2   89.31   19.72   9
  -2  -5   8  259.79   18.25  10
  -2  -3  -2   -2.51   13.25  10
  -1  -6  12  229.20   18.98  10
  -1  -1  -1   23.77   14.64  10
   0  -4 -11   -4.55   17.05  10
   0  -2  -9   21.00   12.57  10
   0  -2   8 2045.98   23.50  10
   0  -1  -7  487.81   16.40  10
   1  -3  11   29.85   14.32  10
   1  -1   7   28.13   11.83  10
   2  -4  13   53.42   17.62  10
   2  -3 -13    6.65   19.52  10
   2  -2 -12  174.13   17.38  10
   3  -2  10  100.14   14.57  10
   3   0  -9  289.65   17.16  10
   3   0   5  430.66   16.31  10
   3   1  -4   73.13   14.44  10
   4   0  -9    1.04   14.54  10
   5  -1 -11  -13.29   20.01  10
   5   0  -8  282.52   20.41  10
   6   0  -5    2.90   22.17  10
  -1  -7  13   17.90   14.96  10
  -1  -5  -9  162.28   13.22  10
  -1  -5  11    6.11   10.41  10
  -1  -3   8  117.50   10.31  10
   0  -3 -10   22.72   10.90  10
   0  -3  10   45.87    9.05  10
   0   0  -2  229.37   13.81  10
   1  -1  -9  261.98   11.19  10
   1   0   4  381.65   13.73  10
   2  -2  10    2.88   10.19  10
   2  -1   8   56.05    9.09  10
   2   0  -8   -2.78    9.15  10
   2   0   5  125.88    9.44  10
   3  -3  12   48.62   14.14  10
   3  -1 -11   -2.22   12.13  10
   3  -1   8    4.53   10.62  10
   4  -1 -11  112.80   12.86  10
   5  -2   9   39.31   14.60  10
  -3  -8   5   42.73   34.25  10
  -3  -8   0   21.17   31.74  10
   5   0   3   -4.99   17.72  10
  -2  -6  -6  301.09   19.65  11
  -2  -4  -4  184.23   14.47  11
  -1  -4  10  201.85   17.03  11
  -1  -3  -7  157.57   13.87  11
   0  -6  14  127.26   21.04  11
   0  -5  13   12.75   16.48  11
   1  -5  14    8.79   19.09  11
   2  -3  12   -1.48   16.24  11
   2  -1 -10   22.56   15.03  11
   4  -2  10   15.14   18.21  11
   6  -1   5   74.76   21.88  11
  -2  -7  -6   -3.92   14.26  11
  -2  -5  -5    5.95   10.42  11
  -1  -6  -9   23.91   14.62  11
  -1  -4  -8   38.23   10.70  11
  -1  -2  -5   38.32    8.14  11
  -1  -2   6   -2.30    8.79  11
   0  -5 -11  138.38   15.70  11
   0  -4  12  213.96   11.81  11
   0  -1   6   99.73   10.65  11
   1  -4 -12    2.08   14.07  11
   1  -4  13   14.42   11.25  11
   1  -2 -10    6.52   10.59  11
   1  -2  10  188.93    9.89  11
   1   0  -6  677.63   15.53  11
   3  -3 -13   -3.40   16.20  11
   3  -2 -12    9.26   11.54  11
   4  -1   8  108.95   12.68  11
   4   0   5   34.14   11.02  11
   5  -1   7   13.94   11.93  11
  -3  -7   1  172.74   30.02  11
  -3  -7   4    0.24   26.28  11
   6   0  -4   12.29   27.20  11
  -3  -8   6  199.50   26.86  12
  -2  -7  11  297.62   24.09  12
  -2  -6  10  128.38   19.81  12
  -2  -4   7   10.26   13.12  12
  -2  -3   4   27.85   12.77  12
   0  -4 -10   30.72   17.15  12
   0  -2  -8    4.07   12.48  12
   0  -1  -6  694.55   17.45  12
   1  -3 -11   21.95   16.90  12
   2  -2 -11   41.87   14.39  12
   3   0  -8  159.17   13.90  12
   3   1  -3  971.55   29.43  12
   4  -2 -12  101.46   20.21  12
   4   0  -8    6.64   14.82  12
   5  -1 -10    7.24   19.66  12
   5   0  -7   10.11   17.61  12
  -2  -5   9  232.18   13.69  12
  -1  -6  13   42.65   14.74  12
  -1  -5  12   21.57   12.28  12
  -1  -3   9   75.21    9.65  12
   0  -3  -9  157.62   12.01  12
   0  -3  11   20.88   10.49  12
   0  -2   9    3.47    8.65  12
   1  -5 -12   -8.69   16.78  12
   1  -3  12   22.79    9.87  12
   1  -1  -8   66.95    9.41  12
   1  -1   8  417.68   12.26  12
   2  -4  14  161.79   14.19  12
   2  -3 -12   39.72   11.84  12
   2  -2  11    0.26    9.58  12
   2   0  -7   54.19    9.68  12
   2   0   6   37.45    9.08  12
   3  -2  11    1.32   11.59  12
   3  -1 -10   -6.25   10.27  12
   3  -1   9  -10.94   10.04  12
   3   0   6 2206.42   24.06  12
   3   1   0    9.97   19.76  12
  -3  -7   5   50.22   23.96  12
  -2  -3  -1   58.42   17.36  12
  -2  -6  -5  107.22   18.03  13
  -1  -5  -8   27.60   17.39  13
   0  -5  14   27.62   19.50  13
   1   0   5  243.56   15.70  13
   2  -1   9 1191.12   19.02  13
   3  -3  13   32.12   19.59  13
   4  -2  11    3.65   20.10  13
   4  -1 -10   67.94   17.34  13
   5   0   4  153.92   19.11  13
   6  -1  -8   10.32   22.55  13
  -2  -4  -3  165.01   11.39  13
  -1  -4  -7   15.38   11.42  13
  -1  -4  11  171.87   12.00  13
  -1  -3  -6    3.42    9.04  13
  -1  -2   7   45.36    8.40  13
   0  -5 -10   19.19   12.08  13
   0  -4  13   12.77   11.90  13
   0  -1   7   71.18    9.04  13
   1  -4 -11   53.71   12.15  13
   1  -4  14  166.48   14.37  13
   1   0  -5   22.10    9.88  13
   2  -3  13    0.08   11.20  13
   2  -1  -9   76.08    9.46  13
   3  -2 -11    4.25   11.97  13
   4  -1   9   11.78   11.93  13
   5  -2 -11    7.87   16.11  13
  -3  -8   1   -0.60   31.38  13
   6   0  -3  127.17   30.47  13
  -3  -8   7   12.09   27.95  14
  -2  -7  -5    4.56   19.96  14
  -2  -7  12  128.53   25.18  14
  -2  -6  11   25.58   18.04  14
  -2  -5  -4   26.03   15.36  14
  -2  -4   8  436.44   16.86  14
  -2  -3   5   15.21   13.43  14
  -1  -6  -8   11.24   18.76  14
  -1  -2  -4 2147.67   27.13  14
   0  -2  -7  498.81   15.99  14
   1  -3 -10   44.87   14.74  14
   1  -2  -9  254.19   13.95  14
   1  -2  11   87.47   14.85  14
   2  -4 -12   64.05   20.58  14
   3  -3 -12   31.83   19.83  14
   3   0  -7  257.59   14.92  14
   3   1   1  133.34   16.53  14
   4  -2 -11   56.52   18.57  14
   4   0  -7  324.33   18.09  14
   4   0   6  126.41   15.60  14
   5  -1  -9   34.99   16.99  14
   5  -1   8   -1.84   20.14  14
   5   0  -6    3.77   14.48  14
  -2  -5  10   38.83   11.12  14
  -1  -7  -8   33.09   16.99  14
  -1  -6  14   49.44   17.22  14
  -1  -5  13   60.76   12.62  14
  -1  -3  10  246.83   11.19  14
   0  -6 -10   23.17   14.57  14
   0  -4  -9   59.80   11.02  14
   0  -3  12   -9.38    9.90  14
   0  -2  10   80.20    9.24  14
   0  -1  -5 1142.95   19.03  14
   0   0   2  221.19   13.89  14
   1  -3  13   -8.15   11.44  14
   1  -1   9   -0.03    8.45  14
   2  -3 -11   24.46   12.15  14
   2  -2 -10  198.20   12.34  14
   2  -2  12   39.83   11.88  14
   2   0   7  241.38   10.94  14
   3  -2  12   29.43   13.93  14
   3  -1  -9  119.63   11.75  14
   3   0   7    3.58   10.42  14
   4  -3 -12   27.41   14.07  14
   6   0   0   27.53   31.29  13
   3   1  -2 1045.10   40.78  14
  -3  -7   6   52.52   23.69  14
  -1  -5  -7    1.57   14.77  15
  -1  -1   2 1685.09   38.53  15
   0  -5  15  101.98   23.31  15
   0  -3  -8    5.02   12.34  15
   1  -5 -11   -5.66   20.16  15
   1  -1  -7  351.98   15.74  15
   1   0   6  554.60   16.14  15
   2  -1  10  283.52   16.11  15
   2   0  -6  163.11   12.99  15
   3  -1  10   15.22   16.41  15
   4  -1  -9   23.98   14.36  15
   5   0   5   22.09   17.03  15
  -2  -6  -4    4.81   12.04  15
  -2  -3   6   24.56    9.51  15
  -1  -4  12   13.15   12.13  15
  -1  -2   8  258.62   11.37  15
  -1  -1   3 7421.36   59.29  15
   0  -4  14   15.01   13.72  15
   0  -1   8  701.87   14.38  15
   0   0   3    7.54   11.17  15
   1  -6 -11    5.18   16.74  15
   1  -4  15   12.93   15.33  15
   2  -5 -12    2.53   16.61  15
   2  -3  14    2.81   13.35  15
   2  -1  -8  106.38    9.70  15
   3  -4 -12   29.37   14.07  15
   6  -1  -7   58.15   15.24  15
  -3  -7   2    4.33   31.06  14
  -2  -3   0 2124.58   46.65  15
   6   0   1   53.17   28.15  15
  -3  -7   7   25.70   22.46  16
  -2  -6  12   10.87   21.45  16
  -2  -5  11  106.34   18.28  16
  -2  -4   9    9.72   15.84  16
  -1  -4  -6   80.63   13.16  16
  -1  -3  -5   49.12   13.42  16
   0  -5  -9   40.44   17.61  16
   1  -4 -10  106.72   17.16  16
   1  -2  12  183.75   14.83  16
   1   0  -4 2820.85   31.75  16
   2   1   1 1468.25   35.95  16
   3  -3 -11   11.92   16.36  16
   3  -2 -10  173.58   15.42  16
   3   1   2   77.96   14.43  16
   4  -1  10   19.51   19.91  16
   4   0   7   11.26   14.19  16
   5  -2 -10   28.80   19.95  16
   5  -1  -8   25.60   16.96  16
   5  -1   9   -8.53   23.54  16
  -2  -8  -4  126.32   18.07  16
  -2  -7  -4   10.85   11.84  16
  -2  -4  -2  414.00   15.10  16
  -1  -6  -7   67.35   12.69  16
  -1  -5  14   27.52   14.74  16
  -1  -3  11  490.62   14.36  16
  -1  -1   4  256.10   12.96  16
   0  -6  -9   20.88   14.64  16
   0  -3  13   93.06   12.17  16
   0  -2  -6  241.31   10.37  16
   0  -2  11  177.76   11.99  16
   1  -3  -9  452.88   14.32  16
   1  -3  14   -1.89   13.34  16
   1  -2  -8  283.83   11.29  16
   1  -1  10  250.10   10.66  16
   1   0   7  160.09   10.51  16
   2  -4 -11  -13.58   12.10  16
   2  -2  -9   49.42    8.86  16
   2  -2  13   37.08   11.30  16
   2   0   8   26.28    8.51  16
   3  -2  13   13.23   13.85  16
   3   0   8  200.17   12.22  16
   4  -3 -11   -1.46   13.81  16
   4  -2 -10   -0.85   11.48  16
   4   0  -6   27.32   11.28  16
   6   0  -2   47.54   34.47  15
  -3  -7   8    2.09   22.39  17
  -2  -5  -3   99.10   16.47  17
  -2  -3   7  511.51   17.57  17
  -1  -7  -7  139.60   21.08  17
  -1  -4  13   -0.96   16.83  17
  -1  -2  -3 4395.48   39.70  17
  -1  -2   9  358.55   15.17  17
   0  -7  -9  114.74   25.18  17
   0  -4  -8   19.14   15.30  17
   0  -1  -4  241.21   15.19  17
   0   0   4  132.22   13.81  17
   2  -3 -10    3.90   14.36  17
   2  -1  11   25.49   13.92  17
   2   1   2  783.32   24.03  17
   3  -1  11  236.74   18.49  17
   3   0  -6  270.40   15.08  17
   3   1   3   96.63   14.09  17
   5   0  -5   43.40   15.27  17
   5   0   6   -1.00   17.10  17
   6   0   2   -1.77   21.90  17
  -2  -6  13   -6.25   15.30  17
  -2  -4  10  241.74   13.30  17
  -1  -1   5   38.71   10.17  17
   0  -4  15   14.36   13.75  17
   0  -3  -7   49.39    9.71  17
   0  -1   9  373.59   11.68  17
   1  -5 -10    6.98   12.21  17
   1  -2  13   84.42   11.82  17
   1  -1  -6   88.51    9.78  17
   2  -5 -11   19.24   14.21  17
   2   1   3  215.54   12.61  17
   3  -1  -8   45.12    8.99  17
   4  -1  -8    2.78   10.20  17
  -3  -8   2   57.77   32.21  17
   2   1   0  253.13   28.95  17
  -3  -6   5  144.98   22.76  17
  -3  -7   9  120.02   23.53  18
  -3  -6   6  105.35   19.83  18
  -2  -5  12   19.17   17.55  18
  -1  -5  -6  232.75   17.04  18
   0   0   5 1153.50   21.30  18
   1  -1  11   89.17   14.92  18
   2   0  -5 1186.90   22.27  18
   3  -4 -11  -13.53   18.21  18
   3   1   4   -3.17   12.57  18
   4  -1  11   88.03   20.86  18
   4   0   8  242.65   18.43  18
   5  -2  -9    5.61   17.85  18
   6  -1  -6   20.90   20.81  18
   6   0   3    5.56   21.66  18
  -2  -6  -3  170.87   12.51  18
  -2  -3   8   19.14    8.87  18
  -1  -3  12    4.49    9.92  18
  -1  -2  10   13.06    8.66  18
  -1  -1   6  570.81   15.10  18
   0  -5  -8   55.93   11.06  18
   0  -3  14    8.18   11.20  18
   0  -2  12   -0.40    9.77  18
   1  -6 -10   11.29   14.31  18
   1  -4  -9   60.35   11.00  18
   1  -3  15   18.90   15.48  18
   1   0   8   84.52    9.40  18
   2  -6 -11    4.64   16.30  18
   2  -2  14   48.28   13.92  18
   2  -1  -7  133.31   10.40  18
   2  -1  12  -12.53   11.35  18
   2   0   9  386.62   13.38  18
   2   1   4  163.85   10.54  18
   3  -3 -10    3.44   12.03  18
   3  -2  -9  365.65   13.18  18
   3  -1  12   48.43   14.02  18
   3   0   9   12.29    9.98  18
   6  -2  -8   78.63   17.00  18
  -3  -6   7  191.98   24.53  18
   4   1   1  171.61   20.05  18
   4   1   2   80.96   17.04  18
  -3  -6   8  132.10   19.61  19
  -2  -8  -3   -1.19   19.94  19
  -2  -7  -3   72.44   17.12  19
  -2  -4  11  130.58   15.72  19
  -1  -6  -6    8.31   17.23  19
  -1  -4  -5  411.05   16.00  19
  -1  -4  14   53.00   20.08  19
  -1  -3  -4    0.26   13.30  19
   0  -1  10   -3.25   11.94  19
   0   0   6  891.96   19.31  19
   1  -2  -7   -6.48   12.73  19
   2  -4 -10   68.86   17.49  19
   4  -4 -11    7.83   19.66  19
   4  -2  -9   15.24   15.31  19
   4   1   3  573.17   22.43  19
   5  -3 -10   34.84   19.82  19
   5  -1  -7   -0.33   16.72  19
   5   0   7   82.26   21.06  19
  -2  -5  13  108.22   15.37  19
  -2  -3   9   72.04    9.63  19
  -1  -8  -6  102.79   17.65  19
  -1  -7  -6    6.30   11.92  19
  -1  -1   7  263.24   10.99  19
   0  -7  -8   -1.88   14.69  19
   0  -6  -8    4.11   12.08  19
   0  -4  -7    0.41    8.91  19
   1  -3  -8   19.53    9.02  19
   1  -2  14   26.90   13.26  19
   1   0   9   17.54    8.66  19
   2  -3  -9   35.20   10.83  19
   2  -2  -8   15.93    8.90  19
   2   1   5  271.07   12.21  19
   3  -5 -11    4.20   13.87  19
   3   1   5    4.30    8.89  19
   4  -3 -10   64.08   11.89  19
   4   0  -5  182.10   11.60  19
   4   0   9   64.01   11.98  19
   6   0   4   30.90   26.84  19
  -3  -7  10  106.82   27.07  20
  -3  -6   9    3.08   17.90  20
  -2  -5  -2  398.84   16.88  20
  -2  -4  -1  156.07   15.20  20
  -1  -3  13   16.32   16.67  20
   0  -2  -5   97.08   13.55  20
   0  -2  13   26.43   16.05  20
   1  -5  -9   78.05   17.94  20
   1  -1  12    6.38   13.45  20
   1   0  -3 4980.62   45.44  20
   2  -5 -10   20.68   16.40  20
   2   0  10   12.68   14.10  20
   3  -1  -7    7.82   12.52  20
   3   0  -5   34.82   13.32  20
   3   0  10   39.21   16.47  20
   4   1   4  126.32   16.83  20
   5   0  -4   96.14   16.22  20
  -2  -4  12  133.63   13.30  20
  -1  -5  -5    2.81   11.12  20
  -1  -4  15   -7.45   14.13  20
  -1  -2  -2 3179.93   36.18  20
  -1  -2  11  156.05   11.66  20
  -1  -1   8   76.98    9.63  20
   0  -3  -6  738.16   14.73  20
   0  -3  15   26.98   13.36  20
   0  -1  11   29.42   10.35  20
   0   0   7   17.87    8.07  20
   1  -6  -9  190.18   13.37  20
   1  -1  -5   -1.32    9.77  20
   2  -1  13   -0.53   13.34  20
   2   1   6  110.44    9.97  20
   3  -4 -10   75.28   12.34  20
   3  -1  13   -5.72   16.06  20
   3   1   6    1.19    8.65  20
   4  -1  -7    2.48   10.63  20
   5   0   8  322.07   17.78  20
  -2  -3  10   10.93   15.25  21
   0  -5  -7  481.44   18.19  21
   0  -1  -3  360.34   17.02  21
   1  -7  -9  159.19   21.10  21
   1   0  10    3.42   14.50  21
   2  -6 -10  101.70   20.87  21
   4   0  10   42.26   20.05  21
   4   1   5    4.13   14.57  21
   5  -2  -8   -4.48   16.42  21
   6  -2  -7    7.30   19.77  21
   6  -1  -5   -5.66   20.44  21
  -3  -6  10  118.52   16.31  21
  -2  -5  14   85.96   17.65  21
  -1  -3  14   62.89   12.27  21
  -1  -2  12  406.17   13.27  21
   0  -2  14   80.39   11.71  21
   0   0   8  176.46   10.23  21
   1  -4  -8    5.84   10.80  21
   1  -2  15    1.91   15.32  21
   1  -1  13   40.38   11.42  21
   1   1   3  554.04   16.24  21
   1   1   4    4.44    9.76  21
   2  -4  -9  193.52   11.93  21
   2  -1  -6 1662.35   20.44  21
   2   0  -4  104.58   11.43  21
   2   0  11    2.00   11.73  21
   3  -3  -9    0.98   10.12  21
   3  -2  -8  242.99   11.03  21
   3   0  11   12.42   11.36  21
   4  -4 -10  168.33   15.08  21
   4  -2  -8  108.15   11.49  21
   5  -3  -9   11.80   13.51  21
   4   1   0  218.35   31.70  20
  -3  -5   7   10.91   14.93  22
  -3  -5   8    1.09   14.70  22
  -2  -8  -2   36.37   20.09  22
  -2  -7  -2    9.86   16.68  22
  -2  -6  -2   12.33   14.81  22
  -2  -4  13   -1.06   17.15  22
  -2  -3  11    6.88   14.52  22
  -2  -2   5  260.56   14.83  22
  -2  -2   6  988.93   21.61  22
  -1  -8  -5  110.97   20.84  22
  -1  -7  -5  -11.96   17.06  22
  -1  -6  -5  145.36   15.73  22
  -1  -4  -4   34.53   13.03  22
  -1  -1   9  183.29   13.63  22
   0  -6  -7  155.05   17.30  22
   0  -1  12   48.24   13.73  22
   1  -3  -7  410.54   15.10  22
   1   1   5   -0.91   12.45  22
   2   1   7   82.83   12.87  22
   3  -5 -10    2.22   18.18  22
   3   1   7   18.87   14.98  22
   4  -3  -9   94.14   17.22  22
   4   1   6   26.73   14.12  22
   5  -1  -6   85.39   15.09  22
  -3  -6  11    1.15   15.03  22
  -2  -2   7  218.61   11.52  22
  -1  -3  -3    7.52    8.23  22
   0  -8  -7   28.69   14.44  22
   0  -7  -7    8.93   12.10  22
   0  -4  -6  129.42   10.31  22
   0   0   9   32.16    8.84  22
   1  -5  -8   30.02   10.46  22
   1  -2  -6   62.85    8.47  22
   1   0  11  427.20   13.10  22
   1   1   2    2.69    8.65  22
   1   1   6  230.61   10.32  22
   2  -3  -8    3.90    8.61  22
   2  -2  -7  228.50   10.68  22
   2  -1  14   -3.52   15.39  22
   4   0  11   81.71   17.19  22
   6  -3  -8   24.62   16.28  22
  -3  -7   3   65.14   32.55  21
  -3  -8   3  227.63   35.04  22
  -3  -5   6   98.32   19.94  22
  -3  -5   9  101.46   18.37  23
  -2  -2   4   90.45   13.66  23
  -2  -2   8   22.65   12.54  23
  -1  -3  15    9.87   19.44  23
  -1  -2  13    2.94   16.59  23
  -1  -1  10   25.53   12.30  23
   0  -2  15   -3.27   18.66  23
   1  -1  14   -3.25   18.34  23
   2  -5  -9  101.54   17.39  23
   2   0  12   36.73   15.86  23
   2   1   8 1125.73   19.07  23
   3  -6 -10   18.08   19.66  23
   3   0  12   11.76   19.40  23
   3   1   8  165.78   15.66  23
   4  -5 -10   22.12   20.01  23
   4   0  -4  748.26   21.28  23
   4   1   7    7.34   16.35  23
  -2  -4  14    0.91   14.46  23
  -2  -3  12   34.12   12.33  23
  -2  -2   9   77.72    9.51  23
   0  -3  -5  512.91   13.02  23
   0  -2  -4   34.04   10.21  23
   0  -1  13   94.46   11.88  23
   0   0  10   84.39    9.01  23
   1  -8  -8   31.72   16.94  23
   1  -6  -8   11.40   12.11  23
   1   1   7    8.33    8.62  23
   2  -6  -9   21.14   12.23  23
   3  -4  -9   63.65   10.32  23
   3  -1  -6    3.15    8.81  23
   4  -1  -6   41.09    9.13  23
  -3  -5  10    2.60   17.42  24
  -2  -5  -1  254.29   15.88  24
  -1  -5  -4  183.29   14.20  24
  -1  -1  11    4.98   14.57  24
   0  -5  -6   27.12   15.80  24
   1  -7  -8   44.91   20.91  24
   1   0  12  239.97   17.51  24
   2  -7  -9   18.34   19.98  24
   2   1   9   -7.77   14.49  24
   3  -3  -8   -3.79   15.02  24
   3   0  -4   11.59   13.29  24
   3   1   9   18.55   17.00  24
   4  -4  -9   -8.93   16.77  24
   5  -4  -9   28.12   19.87  24
   5  -3  -8    6.73   16.32  24
   5  -2  -7   67.99   17.45  24
   5   0  -3  147.68   17.11  24
   6  -2  -6   23.12   19.79  24
   6  -1  -4   14.34   16.84  24
  -3  -5  11  392.31   18.45  24
  -2  -3  13  119.39   13.04  24
  -2  -2  10  185.65   12.34  24
  -1  -2  14   13.34   11.47  24
   0   0  11   -8.38   10.09  24
   1  -4  -7    0.57    8.87  24
   1  -1  15    0.01   15.21  24
   1   1   8  127.60    9.75  24
   2  -4  -8  113.37   11.38  24
   2   0  13  151.65   14.73  24
   3  -5  -9   13.55   11.74  24
   3  -2  -7  438.30   12.43  24
   4  -3  -8   16.65   10.06  24
   4  -2  -7   16.39   10.42  24
   4   1   8    6.55   11.54  24
  -3  -5   5    7.35   20.70  24
  -2  -3   1   51.01   18.29  24
  -1  -8  -4   26.21   19.93  25
  -1  -6  -4  902.85   21.30  25
   0  -8  -6   29.97   20.15  25
   0  -6  -6   45.05   14.96  25
   0  -1  14   22.95   17.46  25
   1  -1  -4   21.47   12.64  25
   1   1   9  431.23   14.82  25
   2  -1  -5 1560.61   23.08  25
   2   1  10   27.46   13.80  25
   5  -1  -5   70.38   15.06  25
   5   1   3   96.06   19.10  25
   5   1   4   13.64   17.43  25
   5   1   5  185.92   20.25  25
   6  -3  -7   28.37   19.71  25
  -3  -5  12   69.75   15.58  25
  -2  -8  -1   23.52   14.13  25
  -2  -2  11   14.11   10.27  25
  -1  -7  -4   37.52   12.18  25
  -1  -1  12   -5.14    9.76  25
  -1   0   6  663.97   15.23  25
  -1   0   7   84.10    8.68  25
   0  -7  -6  449.18   15.39  25
   1  -5  -7  654.03   15.24  25
   1  -3  -6  217.10   10.92  25
   1   0  13   86.46   11.40  25
   2  -5  -8    7.03   10.12  25
   2  -3  -7  506.91   12.82  25
   3  -6  -9   27.24   14.18  25
   3   1  10  141.40   12.67  25
   4  -5  -9   -0.30   14.05  25
   4   1   9   66.28   14.28  25
   5  -5  -9   47.72   16.77  25
  -3  -4   7   96.96   16.11  26
  -3  -4   8  106.75   15.70  26
  -3  -4   9  134.09   16.24  26
  -2  -7  -1  366.43   19.91  26
  -2  -6  -1  115.35   16.36  26
  -2  -4   0  163.11   15.70  26
  -2  -3  14   15.58   19.95  26
  -2  -2   3  134.40   16.29  26
  -1  -4  -3   60.68   13.38  26
  -1  -2  15   -2.65   18.91  26
  -1   0   5   26.54   13.50  26
  -1   0   8  620.67   16.32  26
   0  -4  -5  186.24   14.30  26
   0   0  12  239.18   15.25  26
   1  -2  -5   33.80   12.90  26
   1   0  -2  689.53   24.63  26
   1   1   1   22.49   14.27  26
   1   1  10   26.50   13.97  26
   2  -2  -6   -4.49   12.76  26
   3  -7  -9   -6.42   21.72  26
   5   1   6    2.01   20.40  26
  -3  -5  13   -2.96   17.19  26
  -3  -4  10   39.08   12.62  26
  -2  -2  12   70.32   10.46  26
  -1  -1  13    6.65   11.47  26
  -1   0   9  123.00    9.61  26
   0  -1  -2   31.73   12.10  26
   0  -1  15   -1.81   13.30  26
   0   1   5 1144.38   18.92  26
   0   1   6  617.69   14.27  26
   0   1   7  436.18   12.62  26
   1  -8  -7   16.41   14.26  26
   1  -7  -7   33.23   11.90  26
   1  -6  -7   -1.39   10.21  26
   1   0  14    7.23   13.08  26
   2  -8  -8   16.81   16.12  26
   2  -6  -8    3.95   11.75  26
   2   1  11   90.66   12.35  26
   3  -4  -8   82.18   11.24  26
   3   1  11  116.65   14.45  26
   4  -6  -9   -5.08   14.24  26
   5  -4  -8   54.82   14.28  26
   5   1   2   79.78   23.40  26
  -3  -4   6  350.60   20.16  27
  -3  -4  11   28.50   17.15  27
  -2  -3  15  163.06   24.12  27
  -1  -9  -3    7.14   19.48  27
  -1  -3  -2    6.86   13.13  27
  -1  -2  -1    2.01   12.47  27
  -1   0   4 3182.49   33.31  27
   0   0  13   63.65   16.26  27
   0   1   8  209.95   13.42  27
   1   1  11  133.59   14.57  27
   2  -7  -8   34.13   18.66  27
   2   0  -3   89.73   14.37  27
   3  -1  -5    7.76   12.24  27
   4  -4  -8  112.87   17.73  27
   4  -1  -5   25.79   12.20  27
   4   1  10   80.34   22.27  27
   5  -3  -7   -5.77   16.36  27
   5  -2  -6  261.17   16.04  27
   5   1   7   25.75   20.48  27
  -3  -4  12   -4.78   14.26  27
  -2  -2  13   -7.15   11.70  27
  -2  -1   8   39.57    9.09  27
  -1  -1  14    1.30   11.17  27
  -1   0  10  472.49   12.06  27
   0  -9  -5    2.30   16.47  27
   0  -5  -5   28.46    9.22  27
   0  -3  -4   26.81    8.90  27
   0   1   4  250.80   11.77  27
   0   1   9   30.29    8.63  27
   1  -4  -6   18.93    9.12  27
   2  -4  -7   11.60    8.90  27
   2   1  12   43.15   13.52  27
   3  -5  -8   18.32    9.94  27
   3  -3  -7   10.87    8.44  27
   6  -2  -5    5.90   13.78  27
  -2  -9   0   42.25   21.26  28
  -2  -1   7  271.91   14.66  28
  -2  -1   9    2.31   11.79  28
  -1  -8  -3  159.65   17.84  28
  -1  -5  -3    4.33   12.58  28
  -1   0  11  141.67   15.21  28
   0  -8  -5   33.34   16.88  28
   3  -2  -6   15.45   12.23  28
   3   1  12   18.72   22.23  28
   4  -3  -7   48.62   14.78  28
   4  -2  -6   90.60   15.75  28
   4   0  -3  308.44   16.86  28
   5  -5  -8    0.79   19.68  28
   6  -4  -7    0.07   21.39  28
   6  -3  -6    8.34   19.23  28
   6  -1  -3   46.29   17.25  28
  -3  -4  13   -0.02   14.39  28
  -2  -2  14   18.36   13.73  28
  -2  -1   6    5.03    7.22  28
  -2  -1  10    5.07   10.62  28
  -1  -7  -3   14.25   10.23  28
  -1  -6  -3  443.13   14.93  28
  -1  -1  15   27.01   13.39  28
   0  -7  -5  289.51   12.72  28
   0  -6  -5   32.94   10.71  28
   0  -2  -3    2.01    9.04  28
   0   0  14    5.57   13.01  28
   0   1  10  158.87   11.63  28
   1  -9  -6   22.40   16.66  28
   1   1  12  110.21   11.95  28
   2  -5  -7   93.03   11.20  28
   2   1  13   17.10   13.45  28
   2   2   6  306.69   11.98  28
   3  -7  -8   23.80   14.38  28
   3  -6  -8  122.20   12.94  28
   4  -5  -8    8.76   11.75  28
  -3  -3   9  218.72   16.45  29
  -3  -3  10    9.51   14.42  29
  -2  -5   0   80.98   13.63  29
  -2  -1  11  287.55   16.65  29
  -1   0  12   24.45   13.75  29
   0   1   3  320.30   16.30  29
   0   1  11   22.38   13.84  29
   1  -5  -6  246.97   14.18  29
   2  -3  -6  265.40   14.05  29
   2   2   5  901.04   19.46  29
   2   2   7   41.15   12.36  29
   3   0  -3  146.71   13.17  29
   3   2   5  143.71   15.28  29
   3   2   6   -8.70   14.78  29
   3   2   7   34.66   14.53  29
   5  -1  -4   13.98   13.87  29
  -3  -3   8   62.68   11.08  29
  -3  -3  11    2.38   11.74  29
  -2  -8   0   -3.30   11.37  29
  -2  -2  15   -7.33   16.02  29
  -2  -1   5 1045.15   19.96  29
  -2  -1  12   47.82    9.87  29
  -1   0   3 4219.17   40.63  29
   0   0  15   81.27   15.49  29
   1  -8  -6    5.37   11.60  29
   1  -7  -6   -9.51   12.18  29
   1  -6  -6   12.76   10.83  29
   1  -3  -5   67.60    8.59  29
   1   1  13    7.45   13.06  29
   2  -8  -7   31.68   14.15  29
   2  -7  -7  167.05   12.74  29
   2  -6  -7   12.88   10.30  29
   2  -1  -4   54.65   10.03  29
   2   2   4  105.61   10.47  29
   2   2   8   22.14   10.21  29
   3  -4  -7   89.01   11.19  29
   3   2   8  147.04   13.03  29
   4  -7  -8    0.36   13.95  29
   4  -6  -8   64.96   14.14  29
   5  -6  -8    2.06   16.53  29
   5  -4  -7    8.61   11.57  29
  -3  -8   4   18.98   29.00  29
   5   0  -2   11.40   17.80  29
  -3  -3   7   14.65   11.79  30
  -3  -3  12  125.36   17.63  30
  -2  -7   0  231.17   17.06  30
  -1   0  13   17.05   15.94  30
   0  -4  -4  401.46   16.29  30
   0   1  12  -11.80   15.84  30
   1   2   6   72.56   12.83  30
   1   2   7   73.00   12.57  30
   2  -2  -5  118.45   12.25  30
   2   2   9   49.73   14.14  30
   3   2   4  236.46   15.40  30
   3   2   9   24.38   16.22  30
   4  -4  -7   50.90   14.82  30
  -3  -3  13  151.91   15.24  30
  -2  -6   0  138.14   12.70  30
  -2  -1  13  245.78   13.36  30
  -1  -9  -2   19.67   14.10  30
   0  -9  -4   14.31   14.08  30
   1  -2  -4   16.82    9.87  30
   1  -1  -3  325.34   13.43  30
   1   1  14   34.39   13.10  30
   1   2   5   37.04    8.15  30
   1   2   8  270.51   11.12  30
   1   2   9    9.49   10.41  30
   2   2  10   61.58   12.02  30
   3  -5  -7   44.19   10.85  30
   5  -3  -6   -0.30   12.07  30
   5  -2  -5   42.58   10.54  30
  -3  -4   5   42.81   15.88  30
  -1  -4  -2 1954.19   27.22  31
  -1   0  14   25.90   18.27  31
   0   1  13   17.56   15.28  31
   1   2  10   72.22   14.21  31
   2  -4  -6   24.19   12.57  31
   2   2   3  112.18   12.28  31
   3  -3  -6   55.70   12.69  31
   3   2   3   22.70   12.53  31
   3   2  10   13.18   19.28  31
   4   2   5   25.62   14.40  31
   4   2   6   84.11   17.72  31
   4   2   7  262.56   19.41  31
   5  -5  -7    4.17   19.73  31
   6  -4  -6   83.59   20.17  31
   6  -2  -4   71.34   17.17  31
  -3  -3  14   56.66   16.92  31
  -2  -1  14  160.20   14.54  31
  -1  -8  -2  125.59   12.72  31
  -1   1   7  305.80   11.68  31
  -1   1   8   58.18    8.96  31
  -1   1   9  266.74   10.71  31
  -1   1  10    2.40    8.11  31
   0  -8  -4   45.38   12.27  31
   0  -5  -4  366.17   12.38  31
   1  -9  -5   15.53   14.15  31
   1  -4  -5   15.67    9.14  31
   2   2  11   10.72   11.22  31
   3  -8  -7    5.92   13.69  31
   3  -7  -7   11.56   11.41  31
   3  -6  -7  109.77   13.05  31
   4  -5  -7   70.55   12.57  31
   4  -3  -6   -0.84   10.39  31
   4  -1  -4   44.06    9.12  31
   4   2   8  175.75   15.64  31
   6  -3  -5    4.82   13.55  31
   6   0   0   24.95   30.91  30
  -3  -3   6    6.41   11.97  32
  -3  -2  10  116.12   14.98  32
  -2  -9   1  202.21   20.98  32
  -2   0   9  203.57   13.36  32
  -1   0  15   -2.74   19.95  32
  -1   1   6   94.64   12.55  32
  -1   1  11   22.48   13.80  32
   0  -7  -4   -2.19   14.58  32
   0  -6  -4  183.71   16.75  32
   0   1  14   23.47   18.53  32
   1   2   4 2238.21   27.43  32
   1   2  11   15.99   15.86  32
   2  -9  -6  -20.95   21.75  32
   2  -5  -6  252.77   15.44  32
   2   2  12    5.50   18.77  32
   3  -2  -5  404.93   15.34  32
   3  -1  -4 1812.43   25.63  32
   3   2  11    9.33   21.01  32
   4  -2  -5   48.42   12.47  32
   4   2   4  147.73   16.49  32
   4   2   9  325.19   22.38  32
   5  -6  -7    6.70   19.80  32
  -3  -2   9   90.11   11.18  32
  -3  -2  11    6.95   11.88  32
  -3  -2  12    0.00   11.55  32
  -2  -1   4  672.05   18.90  32
  -2  -1  15   15.30   15.40  32
  -2   0   8    4.27    8.51  32
  -2   0  10  244.30   12.11  32
  -2   0  11    1.76    9.93  32
  -1  -7  -2   59.13   10.99  32
  -1  -5  -2   -4.89    9.03  32
  -1   1  12   -7.77    9.52  32
   0  -3  -3  454.87   14.30  32
   0   2   8    4.04    8.30  32
   0   2   9   18.04    8.39  32
   1  -8  -5    8.18   12.12  32
   1  -5  -5  266.66   11.16  32
   1   2  12   13.77   10.98  32
   2  -8  -6    5.72   11.66  32
   2  -7  -6   -4.07   12.05  32
   2  -6  -6   -0.65   10.28  32
   4  -7  -7   53.24   14.17  32
   4  -6  -7   15.14   11.68  32
   5  -4  -6   67.78   12.32  32
   6  -5  -6    5.16   16.19  32
  -3  -7   4    1.27   22.76  32
  -3  -2   8  113.16   14.45  33
  -3  -2  13    9.24   19.35  33
  -2   0   7   54.77   12.78  33
  -2   0  12  116.07   15.74  33
  -1  -6  -2  239.57   14.36  33
   0   1   2   31.91   16.42  33
   0   2   7  564.94   15.67  33
   0   2  10  110.50   14.69  33
   1  -7  -5   82.97   15.05  33
   1  -6  -5   44.86   15.39  33
   2  -3  -5    1.32   12.85  33
   3  -4  -6  260.36   14.13  33
   6  -1  -2    4.88   16.23  33
  -3  -2  14    1.58   13.71  33
  -2   0  13   -3.71   11.37  33
  -1   1   5    2.66    9.44  33
  -1   1  13   17.93   10.86  33
   0  -9  -3   -4.84   13.77  33
   0   2   6  224.23   10.02  33
   0   2  11  345.92   12.57  33
   1  -3  -4 1076.80   17.45  33
   1   2  13  102.46   13.31  33
   4  -4  -6  114.59   11.32  33
  -3  -2   7  161.21   13.74  34
  -2  -8   1    4.22   15.82  34
  -2   0   6  178.98   12.32  34
  -1  -9  -1   59.16   19.63  34
  -1  -3  -1  413.71   18.90  34
  -1   1  14   37.99   18.64  34
   0   2  12   40.44   15.66  34
   1   2   3 3985.41   37.95  34
   3  -5  -6   10.54   14.87  34
   5  -5  -6    2.15   16.39  34
   5  -3  -5   56.28   14.74  34
   5  -1  -3   -1.42   13.88  34
   6  -4  -5   17.15   19.33  34
  -2   0  14  109.96   13.86  34
   0  -8  -3   12.55   12.02  34
   0  -4  -3 1097.35   17.51  34
   0   2   5   73.22    9.45  34
   0   2  13   19.52   13.21  34
   1  -9  -4    6.66   13.90  34
   2  -9  -5  -14.36   13.91  34
   2  -2  -4   23.89    9.15  34
   3  -8  -6   18.15   13.86  34
   3  -7  -6   27.70   11.69  34
   3  -6  -6   39.65    9.95  34
   4  -5  -6    4.25   10.21  34
   5  -2  -4   75.52   11.11  34
  -2  -4   1   37.96   15.98  34
  -3  -1  11   14.89   13.38  35
  -2  -7   1   -1.24   13.82  35
  -1   0   2  698.40   24.57  35
   0  -2  -2 1765.12   27.00  35
   2  -4  -5   67.24   12.79  35
   2   0  -2  277.49   16.99  35
   2   2   2  253.86   15.81  35
   3  -3  -5  171.98   13.69  35
   3   2   2  594.66   21.80  35
   4  -3  -5  -13.73   13.62  35
   4   0  -2   27.59   12.27  35
   4   2   3    7.14   14.53  35
   5  -6  -6   74.02   20.20  35
   6  -3  -4    8.76   15.96  35
   6  -2  -3  248.21   18.41  35
  -3  -1  10   31.85   10.02  35
  -3  -1  12  151.51   12.61  35
  -3  -1  13   -0.51   13.33  35
  -1  -8  -1    7.86   11.58  35
  -1   1   4   14.57    8.80  35
   0  -7  -3  220.01   12.50  35
   0  -5  -3  324.34   12.02  35
   0   2  14  115.42   13.63  35
   1  -8  -4   28.42   12.31  35
   1  -4  -4  426.47   12.80  35
   2  -8  -5   44.60   11.86  35
   2  -5  -5  573.39   13.02  35
   2   3   7   -0.97    9.98  35
   2   3   8   24.93   10.01  35
   2   3   9  131.95   12.66  35
   4  -8  -6   19.13   13.83  35
   4  -7  -6    6.70   11.54  35
   4  -6  -6  175.38   13.16  35
   5  -7  -6    8.48   13.78  35
   6  -5  -5    1.89   13.82  35
  -3  -1   9   28.07   14.21  36
  -3  -1  14   47.36   19.08  36
  -2  -9   2    3.06   18.63  36
  -2  -6   1  267.14   18.08  36
  -2   0   5 1099.28   21.12  36
  -2   1  10   12.06   14.24  36
  -2   1  11    7.60   13.66  36
  -1   2   9  233.26   13.10  36
  -1   2  10    3.93   13.92  36
  -1   2  11   44.41   13.36  36
   0  -6  -3   20.90   12.61  36
   1  -2  -3  127.93   13.58  36
   1   3   8  414.65   16.86  36
   1   3   9   54.75   14.02  36
   1   3  10   19.98   16.06  36
   2  -7  -5  127.51   14.81  36
   2  -6  -5   26.73   15.34  36
   2  -1  -3  734.94   19.71  36
   2   3  10  240.03   17.94  36
   3   3   8   69.27   16.76  36
   5  -4  -5   75.38   17.42  36
   5   2   6  220.35   24.44  36
  -3  -1   8    2.49    8.25  36
  -2   1   9   73.49    8.76  36
  -2   1  12   60.05   11.61  36
  -2   1  13    4.20   10.86  36
  -1   2   8  259.92   10.51  36
  -1   2  12  144.17   11.98  36
   0   2   4   30.71    9.70  36
   1 -10  -3   88.76   16.85  36
   1  -7  -4  167.95   11.99  36
   1  -6  -4    0.81    8.78  36
   1  -5  -4   10.22    8.86  36
   1   3   7  144.06    9.88  36
   1   3  11   83.20   11.71  36
   2   3   6  281.68   11.70  36
   2   3  11   -5.86   13.39  36
   3  -9  -5   13.69   13.28  36
   3  -4  -5   13.22    8.94  36
   3  -2  -4    1.40    9.06  36
   3   3   7   16.30   11.70  36
   3   3   9   85.61   14.15  36
   3   3  10   35.37   14.13  36
   4  -2  -4  101.68    9.62  36
  -3  -3   5  115.05   16.76  36
  -2  -5   1  246.16   18.54  36
  -3  -2   6   -0.16   11.72  37
  -2   1   8  111.60   12.53  37
  -1  -7  -1   78.70   15.06  37
  -1  -4  -1  842.55   19.89  37
  -1   2   7    4.41   11.75  37
  -1   2  13   14.69   16.62  37
   0  -9  -2    3.56   16.28  37
   1   3   6   14.15   11.73  37
   1   3  12    3.59   18.29  37
   3   0  -2   24.31   11.20  37
   3   3   6   20.69   13.75  37
   4  -4  -5   26.70   15.13  37
   4  -1  -3  182.41   14.08  37
   5   0  -1   71.06   15.16  37
   5   2   5   24.79   20.55  37
  -4  -4  11    3.89   13.89  37
  -2   1   7  145.51    9.88  37
  -2   1  14    3.38   12.86  37
  -1  -9   0   77.69   13.83  37
  -1  -6  -1   10.07    8.91  37
  -1  -5  -1   27.95    9.28  37
  -1   2  14   17.58   12.85  37
   0  -1  -1  320.65   16.20  37
   0   3   9  135.39   11.09  37
   0   3  10   36.90    9.81  37
   0   3  11   14.14   10.85  37
   2  -9  -4   41.53   14.06  37
   2  -3  -4 1158.24   17.36  37
   2   3   5   18.85    8.52  37
   3  -8  -5   13.87   11.41  37
   3  -7  -5  224.88   13.36  37
   3  -5  -5  111.18   11.60  37
   5  -5  -5   60.74   12.17  37
   6  -4  -4    2.99   13.53  37
  -4  -5  10  148.39   26.07  37
  -3  -8   5   43.66   24.24  37
  -3  -1   7    2.24   11.66  38
  -3   0  11   31.11   13.53  38
  -3   0  12   44.84   15.89  38
  -2  -1   3    4.00   13.67  38
  -1   2   6   67.71   10.76  38
   0  -8  -2   81.73   14.56  38
   0   3   8    1.76   11.35  38
   0   3  12    4.72   15.23  38
   1  -9  -3   16.47   16.38  38
   1   2   2 3206.66   37.22  38
   3  -6  -5   78.84   14.83  38
   3  -1  -3   14.40   10.78  38
   3   3   5   12.18   14.07  38
   4  -5  -5   70.92   14.84  38
   5  -6  -5   23.57   16.53  38
   5  -3  -4   16.07   14.42  38
   6  -1  -1   13.66   16.31  38
  -4  -4  10   38.68   14.13  38
  -4  -3  12   30.22   13.85  38
  -3   0  10  100.38   10.86  38
  -3   0  13   17.51   13.29  38
  -3   0  14    7.22   13.33  38
   0 -10  -1   19.46   13.55  38
   0  -3  -2  297.63   13.02  38
   0   3   7   60.32    8.79  38
   0   3  13   17.71   12.74  38
   1  -1  -2 8718.87   56.81  38
   1   3   5   47.61    9.13  38
   2  -8  -4    9.61   11.75  38
   4  -8  -5  -11.24   13.68  38
   4  -7  -5   68.55   12.27  38
   4  -6  -5   -3.34   11.99  38
   5  -7  -5   -4.62   13.84  38
   6  -3  -3    1.39   11.47  38
  -4  -3  11  158.40   20.43  39
  -3   0   9  284.47   16.36  39
  -2  -8   2  176.50   17.55  39
  -1 -10   1   97.85   22.39  39
  -1  -2   0 1994.28   40.49  39
   1  -8  -3    5.10   13.98  39
   1  -3  -3   53.29   14.24  39
   2  -4  -4   10.84   12.81  39
   4   3   7    4.34   19.67  39
   4   3   8   42.79   22.10  39
   5  -2  -3  148.36   15.57  39
   5  -1  -2  104.68   15.37  39
   6  -5  -4   16.87   19.33  39
   6  -2  -2   78.00   16.86  39
  -2   0   4  107.58   11.17  39
  -2   1   6 1557.48   19.65  39
  -2   2  10  198.26   11.37  39
  -2   2  11   32.96    9.75  39
  -2   2  12  144.18   12.15  39
  -1  -8   0   57.72   12.21  39
  -1   1   3  326.08   13.16  39
  -1   2   5   24.46    8.88  39
   0  -7  -2   13.86   10.39  39
   0   2   3    3.27    8.51  39
   0   3   6  730.61   14.41  39
   1 -10  -2    7.09   14.39  39
   2 -10  -3   33.25   14.53  39
   2  -7  -4   88.11   11.02  39
   2  -6  -4   11.31    8.65  39
   2  -5  -4   58.03    9.07  39
   2   3   4   22.70    8.43  39
   3  -9  -4   31.26   13.67  39
   3  -3  -4  126.68   10.08  39
   4  -3  -4  441.96   12.79  39
   5  -4  -4  212.50   12.18  39
   6  -6  -4   29.00   14.22  39
   5   2   4   65.71   23.03  39
  -4  -5   9  307.87   24.21  40
  -4  -4   9    0.30   15.89  40
  -4  -3  10  178.74   17.83  40
  -4  -2  13    0.67   22.35  40
  -3   0   8  169.02   13.17  40
  -2   2   9   41.29   11.71  40
  -2   2  13    8.35   17.95  40
  -1   3  10   30.25   13.66  40
  -1   3  11    5.04   15.68  40
  -1   3  12   45.15   15.51  40
   1  -7  -3  213.62   16.28  40
   1   0  -1    0.48   17.30  40
   4   3   6    4.24   16.24  40
  -4  -2  12   -1.04   13.47  40
  -2  -9   3   16.69   13.37  40
  -2   2  14    9.00   12.77  40
  -1   3   9  434.89   13.18  40
  -1   3  13   42.86   13.05  40
   0  -9  -1  158.90   13.17  40
   0  -6  -2  616.51   14.01  40
   0  -5  -2  168.65   10.77  40
   0  -4  -2   19.56    8.92  40
   1  -6  -3  234.80   10.82  40
   1  -4  -3    5.55    8.08  40
   1   3   4   -2.17    8.73  40
   2  -9  -3  234.75   13.25  40
   2  -2  -3   36.15   10.00  40
   3  -8  -4   21.60   11.58  40
   3  -4  -4    8.98    8.70  40
   3   3   4    1.66   10.14  40
   4  -9  -4   -9.55   13.54  40
  -4  -6   9   -2.61   28.47  40
  -4  -2  11   17.81   16.03  41
  -3  -2   5  471.03   18.85  41
  -3  -1   6  149.24   13.75  41
  -3   1  11   -5.59   14.70  41
  -3   1  12  153.05   16.68  41
  -3   1  13   80.95   18.96  41
  -3   1  14   29.84   20.03  41
  -2  -7   2   11.34   13.53  41
  -2   2   8   22.69   11.63  41
  -1   3   8   26.89   11.58  41
   0   3   5  487.28   14.21  41
   1  -9  -2   16.65   16.11  41
   1  -5  -3    8.81   12.68  41
   1   4   9   97.97   16.45  41
   1   4  10   11.80   15.50  41
   1   4  11   34.95   18.64  41
   2   4   9    2.26   15.94  41
   2   4  10   43.85   19.26  41
   3  -7  -4    2.62   13.88  41
   4  -8  -4   21.86   18.88  41
   4  -4  -4   39.85   15.31  41
   5  -8  -4   66.80   21.33  41
   5  -5  -4    7.80   16.90  41
   6  -4  -3  120.02   17.31  41
  -3   1  10    5.03    9.49  41
  -2   1   5 1457.21   20.21  41
  -1  -9   1   58.12   11.60  41
  -1  -7   0   14.38   10.32  41
  -1   3   7  357.40   11.11  41
   0 -10   0   17.00   13.41  41
   1   4   8   39.55    9.70  41
   1   4  12   64.15   15.56  41
   2   4   8   -6.47   11.34  41
   3  -6  -4   63.40   11.11  41
   3  -5  -4  158.98   10.16  41
   4  -7  -4   57.83   12.06  41
   4  -5  -4   37.14   11.02  41
   4  -2  -3  217.49   11.35  41
   5  -7  -4    0.70   13.86  41
   5  -6  -4   67.10   12.15  41
   4   1   0  220.39   29.00  40
   4   2   2   52.89   20.94  41
   6   0   1   49.84   25.26  41
  -4  -3   9    7.32   16.01  42
  -4  -2  10   -1.15   15.85  42
  -4  -1  13   20.89   20.80  42
  -3   0   7  307.72   14.60  42
  -2   2   7  237.42   13.32  42
   0  -8  -1    2.05   14.23  42
   0   1   1  315.48   17.73  42
   0   4  10   35.22   15.66  42
   0   4  11    7.69   15.39  42
   0   4  12  107.00   18.79  42
   2  -8  -3    8.46   13.65  42
   2   4   7   43.96   14.11  42
   3  -2  -3  206.67   12.81  42
   4  -6  -4   -1.13   14.48  42
   4   3   5  161.81   18.72  42
   5  -3  -3   18.32   14.35  42
   6  -5  -3   -0.75   19.35  42
  -4  -1  12   37.56   13.48  42
  -3   1   9  128.93   11.08  42
  -1 -10   2   35.42   15.62  42
  -1   2   4   17.13    9.39  42
   0   4   9   77.57    9.93  42
   1 -10  -1    0.77   13.90  42
   1  -8  -2  160.15   11.58  42
   1   4   7   20.42   10.22  42
   2 -10  -2    3.77   13.50  42
   2   3   3   49.97    9.09  42
   3  -9  -3   87.12   13.73  42
   3   4   9   99.27   14.91  42
   6  -6  -3   11.29   13.81  42
   6  -3  -2   89.45   12.34  42
  -3  -7   5   49.27   19.98  42
   2   2   1  145.10   17.84  42
  -4  -1  11    0.66   15.47  43
  -2  -6   2  117.69   16.23  43
  -2   3  11   11.16   15.45  43
  -2   3  12   36.46   15.29  43
  -2   3  13   -3.60   17.71  43
  -1  -6   0  247.60   14.77  43
  -1   3   6  221.70   13.43  43
   0   4   8   20.51   13.88  43
   2  -7  -3    6.13   14.85  43
   2  -3  -3  234.17   14.39  43
   2   4   6   20.73   13.99  43
   3   4   8    6.98   19.11  43
   4  -9  -3   27.85   18.88  43
   4  -1  -2   47.38   12.47  43
  -4  -2   9   97.13   12.59  43
  -3   1   8   44.34    8.58  43
  -3   2  12    4.01   10.87  43
  -3   2  13   11.00   12.66  43
  -2   2   6   -4.07    8.73  43
  -2   3  10    4.51    9.36  43
  -1   4  11   43.23   11.28  43
  -1   4  12    5.96   12.74  43
   0  -7  -1    2.56   10.75  43
   0   3   4   18.59    8.37  43
   0   4   7    4.40    8.10  43
   1  -2  -2  803.02   17.44  43
   1   3   3    3.44    7.67  43
   1   4   6   73.51    8.99  43
   2  -6  -3    7.70    8.52  43
   3  -8  -3   80.77   11.97  43
   3   4   7  298.68   15.03  43
   5  -8  -3   -0.66   13.64  43
   5  -4  -3  164.18   11.89  43
  -4  -4   8    9.17   15.86  44
  -4  -1  10   15.88   16.00  44
  -4   0  13   10.21   20.16  44
  -3   2  11   33.43   15.32  44
  -2  -8   3    4.46   15.71  44
  -2   3   9   30.03   13.97  44
  -1  -8   1    8.17   13.88  44
  -1  -5   0  497.08   17.43  44
  -1  -3   0   21.55   14.25  44
  -1   4  10  135.07   15.24  44
  -1   4  13   25.98   20.94  44
   0  -9   0   25.68   16.59  44
   1  -7  -2   65.25   15.67  44
   2  -9  -2   12.64   16.13  44
   2  -5  -3    0.79   12.39  44
   2  -4  -3  124.70   14.08  44
   2  -1  -2  217.31   15.08  44
   3 -10  -2   43.74   19.44  44
   3   3   3  426.78   17.69  44
   4  -8  -3   36.01   16.24  44
   4  -3  -3  615.23   16.85  44
   4   0  -1   34.41   12.41  44
   5  -2  -2   65.99   15.14  44
   6  -2  -1  502.40   21.00  44
   6  -1   0   18.51   16.23  44
  -4   0  12    9.53   12.90  44
  -3   0   6  228.17   11.14  44
  -3   2  10  136.68   10.82  44
  -1  -4   0 1029.79   20.71  44
  -1   4   9   50.88    9.86  44
   0  -2  -1  535.21   17.61  44
   0   2   2 1514.80   23.43  44
   1  -9  -1    9.64   11.62  44
   3  -7  -3  204.17   11.40  44
   3  -3  -3   17.67    9.32  44
   5  -7  -3   21.35   11.42  44
   5  -6  -3   19.52   11.63  44
   5  -5  -3  244.24   12.06  44
   6  -4  -2   83.17   12.42  44
  -4  -5   8   53.12   22.63  44
   3   2   1   66.05   16.25  44
  -4  -3   8   28.61   16.17  45
  -4  -1   9   97.63   14.13  45
  -4   0  11   -4.40   15.58  45
  -3  -1   5   -0.96   12.16  45
  -3   1   7   13.64   11.67  45
  -2  -9   4    5.17   18.19  45
  -2   1   4   56.09   13.67  45
  -2   3   8    7.49   11.21  45
  -1   3   5   77.75   10.71  45
  -1   4   8    7.87   13.75  45
   0 -10   1   -2.77   19.36  45
   0  -6  -1  711.74   17.46  45
   0   4   6  137.91   12.51  45
   1  -6  -2  294.23   14.38  45
   1   4   5  364.52   14.42  45
   2   4   5  344.24   17.21  45
   3  -6  -3   11.35   15.06  45
   3  -1  -2   33.80   11.93  45
   3   4   6  330.86   19.00  45
   4  -7  -3  461.68   18.98  45
   4  -4  -3   62.32   12.52  45
   4   3   4   69.25   17.17  45
   5  -1  -1  202.94   16.62  45
  -3   2   9  342.01   12.68  45
  -1  -9   2    4.79   11.19  45
   1 -10   0  199.46   14.83  45
   1  -3  -2   53.31   10.03  45
   1   5  10    4.55   12.97  45
   1   5  11   30.73   15.58  45
   2 -10  -1   50.42   14.23  45
   2  -8  -2  154.45   11.43  45
   3  -9  -2   18.01   11.37  45
   3  -5  -3  223.60   10.53  45
   3  -4  -3   40.52    9.29  45
   4  -6  -3   67.36   10.81  45
   4  -5  -3   30.85   10.92  45
   6  -7  -2   67.71   16.38  45
   6  -5  -2  -11.69   13.82  45
  -3  -8   6  180.77   25.66  45
   1   1   0  710.46   41.28  45
  -4  -2   8  100.80   14.99  46
  -4   0  10  110.49   16.57  46
  -4   1  13   -7.41   21.28  46
  -2  -5   2  285.69   16.70  46
  -2   0   3   98.44   14.53  46
  -2   3   7  526.00   14.84  46
  -2   4  13   -1.30   20.80  46
  -1   1   2 9740.33   61.38  46
   0  -8   0  232.36   15.71  46
   0  -5  -1  566.97   17.36  46
   0   5  11  151.82   19.35  46
   1  -5  -2 1236.98   20.03  46
   1  -4  -2   11.63   12.69  46
   1   5   9  142.15   16.76  46
   4  -9  -2   58.88   18.95  46
   5   0   0    6.45   13.64  46
   6  -6  -2   21.05   19.31  46
  -4   1  12  180.14   14.27  46
  -3   2   8  246.50   10.41  46
  -3   3  12   14.60   12.82  46
  -3   3  13   -7.20   12.74  46
  -2   2   5   97.29    8.83  46
  -2   4  11   14.48   10.66  46
  -2   4  12   87.15   13.30  46
  -1 -10   3    2.85   13.31  46
  -1  -7   1  284.64   13.38  46
  -1   2   3  120.83   10.05  46
  -1   4   7    1.95    7.93  46
   0  -3  -1    7.16    9.05  46
   0   5   9   34.66   11.12  46
   0   5  10    6.45   10.71  46
   1  -8  -1  713.41   15.05  46
   1   2   1    0.39    8.32  46
   1   5   8   24.75   11.55  46
   2  -7  -2   84.91   11.02  46
   2   5   9   53.49   13.90  46
   5  -8  -2   13.25   13.48  46
   5  -3  -2   35.86   10.82  46
  -4   1  11  123.12   16.49  47
  -3   3  11   -3.31   14.90  47
  -2  -7   3  371.81   17.97  47
  -2   4  10   54.02   16.04  47
   0  -4  -1  387.59   16.52  47
   0   3   3  461.57   16.54  47
   0   4   5  223.36   13.16  47
   2  -9  -1   14.88   16.09  47
   2   5   8  186.73   18.59  47
   3 -10  -1   54.10   19.17  47
   3  -8  -2   31.70   15.23  47
   3   4   5   17.92   13.25  47
   4  -2  -2  157.81   13.67  47
   6  -3  -1   48.67   16.51  47
  -4  -1   8   26.50   10.08  47
  -4   0   9   -1.47    9.52  47
  -3   1   6    3.45    8.42  47
  -3   3  10   12.63   10.95  47
  -2   4   9  195.87   10.88  47
  -1   5  11    5.79   12.68  47
  -1   5  12   -6.34   15.00  47
   0  -9   1   22.41   11.80  47
   0   5   8   70.90    9.72  47
   1   4   4   22.52    8.61  47
   1   5   7   -3.22    9.42  47
   2  -2  -2  456.72   14.47  47
   2   4   4  196.31   10.86  47
   4  -8  -2   35.64   11.72  47
   5  -7  -2   75.92   11.62  47
   5  -4  -2   -6.85   10.34  47
  -4   1  10  102.79   16.27  48
  -3   0   5   44.33   12.78  48
  -2  -4   2   50.00   13.57  48
  -2   3   6  256.48   13.16  48
  -1   3   4 1222.28   19.86  48
  -1   4   6   34.16   11.54  48
  -1   5  10   14.52   15.24  48
   1  -9   0   48.24   16.95  48
   1  -7  -1   58.79   12.68  48
   2  -6  -2  156.42   13.24  48
   2   3   2    3.84   11.82  48
   2   5   7   -0.34   15.74  48
   3  -7  -2   26.54   13.98  48
   5  -6  -2  100.32   16.68  48
   5  -5  -2   20.52   14.32  48
   6  -4  -1  117.41   16.98  48
  -3   2   7  424.19   12.06  48
  -3   3   9   11.08    9.41  48
  -2   4   8  110.34   10.58  48
  -1  -8   2    8.49   10.03  48
  -1   5   9   77.45   11.89  48
   0 -10   2    4.46   13.99  48
   0  -7   0   55.37    9.20  48
   0   5   7  454.40   13.18  48
   2 -10   0  110.57   14.72  48
   2  -5  -2    9.44    9.12  48
   3  -9  -1  156.63   12.67  48
   3  -2  -2  168.26   10.39  48
   4  -7  -2   72.90   10.53  48
   5  -9  -1    3.61   15.66  48
   6  -7  -1    7.43   15.87  48
   5   2   3    0.47   25.51  47
  -4   2  12   98.86   18.98  49
  -2  -8   4   60.49   16.27  49
  -1  -6   1   87.82   13.39  49
   1 -10   1   78.38   20.06  49
   1   3   2   10.53   12.07  49
   1   5   6  207.90   15.36  49
   2  -8  -1   87.44   14.72  49
   2  -4  -2    0.66   11.48  49
   2  -3  -2 1173.89   21.10  49
   2   0  -1  200.85   16.58  49
   3  -6  -2   15.46   12.07  49
   3   0  -1   62.42   12.75  49
   4  -9  -1  103.62   19.55  49
   4  -6  -2   45.54   14.47  49
   4  -3  -2   50.80   13.07  49
   4   4   6   65.77   20.34  49
   5  -2  -1   32.44   15.10  49
   6  -6  -1   95.01   19.95  49
   6  -5  -1   82.93   18.36  49
   6  -2   0   23.56   16.44  49
  -4   0   8   -1.96    9.82  49
  -4   1   9   23.81    9.65  49
  -4   2  11   56.40   11.28  49
  -3   3   8   -0.47    9.82  49
  -3   4  12   48.80   12.63  49
  -2   2   4   28.49    8.94  49
  -2   5  11   10.07   12.92  49
  -2   5  12    2.31   14.76  49
  -1   5   8   38.31    9.33  49
   0   4   4  385.89   11.94  49
   1  -6  -1   50.08    9.27  49
   2   5   6    0.54   11.08  49
   3 -10   0   17.26   13.57  49
   4  -5  -2  204.85   12.40  49
   4  -4  -2  140.33   10.18  49
   5  -8  -1   -0.64   13.46  49
  -4  -3   7   90.34   17.61  49
  -3  -6   5  142.28   19.52  49
  -4  -2   7   29.77   14.13  50
  -3   4  11    1.85   16.25  50
  -2  -9   5   38.60   18.74  50
  -2   4   7    6.89   11.19  50
  -1 -10   4   -2.98   18.70  50
  -1  -9   3  454.20   19.67  50
  -1   4   5   23.31   11.55  50
   0   5   6   21.94   14.16  50
   3  -5  -2   26.23   12.53  50
   3  -4  -2   90.39   13.32  50
   3  -3  -2  313.48   15.68  50
   3   4   4    5.12   13.11  50
   3   5   7   -3.52   19.07  50
   4 -10   0   -2.56   21.64  50
   5   3   5    2.94   24.08  50
  -4   2  10    3.12   10.79  50
  -3   2   6    9.77    8.26  50
  -3   4  10   64.74   11.33  50
  -2   1   3  664.62   16.99  50
  -2   3   5    2.29    8.43  50
  -2   5  10   15.97   10.36  50
  -1   5   7  619.25   14.05  50
   0  -8   1   -1.91   10.67  50
   0  -6   0   36.09    9.17  50
   0   6  10    4.95   13.40  50
   1  -8   0   82.40   11.23  50
   2  -9   0  -16.72   11.59  50
   2  -7  -1   56.20    8.97  50
   3  -8  -1   38.59    9.72  50
   4  -8  -1   25.27   11.52  50
   4  -1  -1  194.15   11.70  50
   5  -7  -1  227.41   13.45  50
  -2  -3   2  104.65   19.77  50
  -3  -2   4  255.18   20.07  50
   4   3   3    1.63   16.01  50
   6  -1   1   14.23   19.70  50
   6   0   2   -1.63   23.98  50
  -4  -1   7   -3.97   14.16  51
  -4   3  12   11.13   19.77  51
  -3   1   5    1.42   12.23  51
  -2  -6   3  486.73   19.88  51
  -2   5   9   90.21   15.79  51
  -1   0   1    4.94   17.45  51
  -1   6  11    9.97   21.00  51
   0   6   9    9.17   17.15  51
   1  -1  -1 1013.46   26.83  51
   1   4   3   51.26   12.25  51
   1   5   5    1.46   14.01  51
   1   6   9   12.84   18.91  51
   3   3   2  270.35   16.95  51
   5  -9   0   17.58   22.12  51
   5  -3  -1  397.05   18.07  51
   6  -3   0    3.16   16.18  51
  -4   1   8    0.19    9.64  51
  -4   2   9   10.39    9.22  51
  -4   3  11    0.53   12.90  51
  -3   3   7    3.62    8.06  51
  -3   4   9   62.99    9.55  51
  -2   4   6   11.97    8.27  51
  -1  -5   1  123.13   10.91  51
  -1   3   3   56.42    9.94  51
  -1   6  10   14.22   12.95  51
   0  -9   2  385.72   14.90  51
   1  -9   1   85.27   12.52  51
   1  -5  -1   -0.36    7.71  51
   1   6   8    0.45   13.20  51
   2 -10   1   27.85   14.03  51
   2   4   3  171.62   10.68  51
   3  -9   0    0.08   11.22  51
   4  -7  -1    6.09    9.51  51
   5  -6  -1   48.50   11.83  51
   5  -5  -1   -5.18   10.10  51
   5  -4  -1   21.82   10.46  51
   6  -7   0    7.28   13.58  51
  -5  -1  11    6.73   20.32  52
  -4   0   7  342.78   17.45  52
  -3  -1   4   84.12   13.92  52
  -2   5   8    2.42   13.14  52
  -1  -7   2  547.26   19.13  52
  -1   5   6  215.04   12.68  52
   0 -10   3   14.26   19.49  52
   0   3   2  291.17   15.41  52
   0   5   5   35.29   11.54  52
   0   6   8   15.41   15.22  52
   2   5   5   -2.51   13.14  52
   3  -7  -1   -1.38   14.48  52
   3   5   6    2.87   18.58  52
   4  -9   0    7.69   18.49  52
   4   4   5  153.07   21.10  52
   5  -1   0  478.74   19.74  52
   6  -6   0   28.36   19.63  52
   6  -4   0   17.49   16.04  52
  -4   3  10   57.49   11.39  52
  -3   4   8   93.49   10.45  52
  -3   5  11   10.75   12.34  52
  -1   2   2  802.49   17.35  52
  -1   4   4  414.93   12.11  52
  -1   6   9  157.65   12.19  52
   0  -5   0   18.97    7.66  52
   1 -11   3   18.74   16.49  52
   1 -10   2   23.21   11.76  52
   1  -7   0    4.33    8.76  52
   1  -4  -1  301.72   12.43  52
   1   6   7   81.17   11.81  52
   2  -8   0  316.90   12.72  52
   2  -6  -1  429.00   12.07  52
   2   6   8   16.51   13.39  52
   3 -10   1   71.35   13.81  52
   4 -10   1   36.30   15.55  52
   5  -8   0    7.42   13.25  52
   6  -5   0   22.07   13.52  52
  -4  -4   7   43.99   22.78  52
  -3  -7   6   55.66   19.31  52
  -5   0  11   11.29   18.30  53
  -3  -8   7   12.86   21.56  53
  -2   6  11    1.57   20.57  53
  -1   6   8   -8.09   15.31  53
   0  -7   1  641.43   16.96  53
   0   2   1  512.21   19.64  53
   0   4   3 1200.43   19.14  53
   0   6   7  125.25   15.62  53
   1  -3  -1  154.27   14.06  53
   1  -2  -1 2520.90   31.59  53
   3  -6  -1  248.48   13.66  53
   4  -6  -1   30.01   14.62  53
   4  -2  -1    1.61   12.48  53
  -4   2   8   97.88   10.74  53
  -3   2   5  379.23   12.20  53
  -3   3   6   51.46    8.77  53
  -3   5  10    1.15   10.51  53
  -2   3   4 1176.60   17.14  53
  -2   5   7   85.85   10.24  53
  -2   6  10  118.46   13.14  53
  -1  -8   3   28.62    9.87  53
   2  -5  -1   -5.91    9.24  53
   3  -8   0  186.51   11.18  53
   4  -8   0   -3.73   11.26  53
   4  -5  -1  689.90   14.06  53
   5  -7   0    8.08   11.39  53
  -5  -2  10   13.94   18.80  54
  -5  -1  10  129.19   19.84  54
  -5   1  11   11.13   18.38  54
  -4   1   7    6.38   14.26  54
  -4   3   9   87.04   16.18  54
  -4   4  11   -2.06   17.79  54
  -3   0   4   14.23   12.95  54
  -2  -7   4   -1.16   13.86  54
  -2   4   5   67.03   11.81  54
  -1 -10   5  187.04   21.81  54
  -1  -9   4   78.57   16.76  54
  -1  -4   1    1.53   12.05  54
  -1   5   5  264.30   13.10  54
   1  -8   1   35.53   14.97  54
   1   5   4  172.54   12.95  54
   2  -9   1   -7.48   16.31  54
   2   6   7   24.18   18.50  54
   3  -1  -1 1026.12   22.56  54
   3   5   5   -0.45   15.50  54
   4  -4  -1   14.27   12.63  54
   4  -3  -1  220.17   14.44  54
   5  -9   1   25.18   20.34  54
   6  -2   1    3.22   15.71  54
  -5   0  10    0.30   12.91  54
  -3   4   7   74.86   10.46  54
  -3   5   9    5.94   10.52  54
  -2   2   3   28.63   10.10  54
  -2   6   9   12.33   10.76  54
  -1   6   7   -1.71    9.29  54
   0  -8   2   52.53   10.63  54
   0  -4   0 1222.10   20.52  54
   0   5   4  351.37   11.24  54
   0   6   6   36.67    9.30  54
   1  -6   0  206.73   10.61  54
   1   6   6    2.07   11.09  54
   2 -11   3    1.42   16.14  54
   2 -10   2  201.65   15.10  54
   2  -7   0    3.79    8.28  54
   2  -1  -1   21.88    9.26  54
   2   5   4   20.51    9.68  54
   3  -9   1    2.46   11.28  54
   3  -5  -1  148.15   10.22  54
   4  -9   1    3.06   13.09  54
   5  -6   0   44.65   12.06  54
   6  -7   1   81.48   13.79  54
  -3  -3   4  124.38   28.13  52
  -2  -1   2   99.70   19.24  54
  -5  -3  10   15.11   22.08  55
  -4  -1   6    6.88   14.46  55
  -4   4  10  192.25   19.17  55
  -2  -9   6    1.34   18.32  55
  -2  -8   5  468.20   19.98  55
  -2   5   6  254.27   12.92  55
   0   7   9  157.91   20.79  55
   1  -9   2   70.15   17.46  55
   2  -4  -1  468.90   15.44  55
   3   4   3   61.65   14.52  55
   4  -7   0   12.82   13.54  55
   4   0   0    5.27   12.12  55
   5  -2   0  129.93   15.98  55
   6  -6   1   18.96   19.02  55
   6  -3   1  131.54   17.11  55
  -5   1  10   -4.80   12.88  55
  -5   2  11   15.53   14.79  55
  -4   2   7   15.62    9.96  55
  -4   3   8    4.18    9.51  55
  -3   1   4 1681.04   22.76  55
  -3   5   8   15.54    9.00  55
  -2   6   8  -10.47   10.88  55
  -1  -6   2    8.23    8.97  55
   0 -10   4   15.71   13.98  55
   0  -9   3  162.89   13.19  55
   1 -10   3    6.09   11.57  55
   2  -3  -1   12.86    9.96  55
   2   6   6  282.06   14.00  55
   3 -10   2   71.27   14.06  55
   3  -7   0  687.76   14.66  55
   3  -4  -1  247.98   11.24  55
   3  -3  -1   -1.91    7.68  55
   3  -2  -1  378.48   13.12  55
   4 -10   2   -2.70   13.35  55
   5  -8   1   18.35   13.50  55
   5  -5   0  164.19   11.45  55
   6  -5   1    9.46   13.42  55
   5   0   1   16.74   17.24  55
  -4  -2   6  335.46   19.23  56
  -4   0   6   27.87   13.52  56
  -4   4   9   -3.85   15.28  56
  -3   6  10   -3.13   17.64  56
  -2  -5   3  440.18   18.68  56
  -1   4   3    3.91   10.54  56
  -1   6   6   29.10   13.36  56
  -1   7   9  152.02   18.90  56
   0  -6   1  425.92   15.70  56
   0   7   8   -3.08   18.19  56
   1   4   2 1795.99   24.91  56
   1   7   8   38.28   21.52  56
   2  -2  -1 1030.32   21.24  56
   4   4   4   25.94   16.45  56
   5  -4   0   -9.86   14.49  56
   5  -3   0   21.90   14.78  56
   6  -4   1   71.64   16.41  56
   6  -1   2  212.29   21.23  56
  -3   3   5  127.47    9.71  56
  -3   4   6  177.75    9.76  56
  -2   0   2  215.23   13.78  56
  -2   4   4   13.61    8.40  56
  -2   6   7   19.83    9.13  56
  -1   5   4    5.51    7.99  56
  -1   7   8   47.61   13.27  56
   0  -3   0   65.42    9.96  56
   0   6   5   20.45    9.67  56
   1   3   1  398.64   15.36  56
   1   6   5  109.61   10.43  56
   2  -8   1  178.58   11.40  56
   2  -6   0   60.12    9.40  56
   4  -8   1   44.08   11.60  56
   4  -6   0  170.34   11.63  56
   5  -9   2   47.93   13.23  56
   3   1   0   10.12   18.59  56
  -5  -2   9    2.22   18.03  57
  -5  -1   9    3.45   18.09  57
  -5   0   9   54.67   15.93  57
  -5   2  10   37.14   18.69  57
  -4   1   6   52.28   12.29  57
  -4   5  10   27.95   17.88  57
  -3   5   7   51.25   13.72  57
  -3   6   9   33.41   17.84  57
  -2   5   5  571.55   14.95  57
  -1   3   2   61.13   13.14  57
   0   7   7   13.68   14.99  57
   1  -7   1   95.93   12.89  57
   1  -5   0  690.64   16.03  57
   1   5   3    1.21   11.29  57
   2  -9   2   -6.54   16.35  57
   2   3   1   65.05   13.68  57
   2   4   2  489.44   17.15  57
   3  -8   1  282.40   15.73  57
   5  -7   1   -2.17   16.11  57
   6  -7   2   12.53   20.59  57
  -5   1   9   45.63   11.21  57
  -4   3   7   39.63   10.23  57
  -4   4   8  114.20   12.04  57
  -3   2   4    3.87    8.85  57
  -2   3   3  204.89   10.71  57
  -2   7   9   13.80   12.49  57
  -1 -10   6  109.59   16.91  57
  -1  -7   3   17.87   10.77  57
  -1   1   1 2084.21   32.49  57
   0   4   2   21.92    8.25  57
   0   5   3  312.70   11.13  57
   1   7   7  124.76   14.00  57
   2 -10   3   23.38   11.47  57
   2   6   5  112.35   11.87  57
   3  -9   2   40.33   11.24  57
   3  -6   0   23.39    8.65  57
   4  -9   2   13.54   12.95  57
   4  -5   0  247.44   10.83  57
  -3   6   8  166.75   15.67  58
  -1  -9   5    1.03   16.15  58
  -1  -8   4  286.49   16.22  58
  -1  -3   1  354.98   19.23  58
  -1   6   5   43.80   13.78  58
  -1   7   7   21.18   15.00  58
   0  -7   2   18.86   12.60  58
   1  -8   2  157.90   15.72  58
   3 -10   3    0.43   18.82  58
   3   5   4   73.17   16.08  58
   3   6   6   23.47   20.19  58
   4 -10   3   28.45   20.44  58
   5  -8   2   20.30   18.77  58
   5  -6   1   28.75   16.17  58
   6  -6   2    2.86   18.91  58
  -5   2   9    0.67   10.78  58
  -5   3  10   25.96   13.12  58
  -4   2   6   78.68   11.02  58
  -4   5   9   -3.54   12.63  58
  -3   4   5   17.77    8.35  58
  -3   5   6   -1.28    9.71  58
  -2   1   2  195.15   12.05  58
  -2   6   6   -5.04    9.48  58
  -2   7   8   34.39   12.64  58
   0 -10   5    5.49   13.83  58
   0  -2   0 1032.55   24.20  58
   0   7   6  471.51   14.55  58
   1 -10   4   19.23   13.83  58
   1  -9   3   22.02   12.09  58
   2  -7   1   89.93    9.25  58
   2   5   3   90.85   10.99  58
   4  -7   1  168.23   11.13  58
   4  -4   0   -4.42    8.79  58
   4  -1   0   29.56    9.29  58
   6  -2   2   19.87   11.38  58
  -2  -9   7    6.60   20.53  59
   0  -9   4   23.45   16.77  59
   0  -8   3  320.22   17.02  59
   0  -5   1  136.80   12.53  59
   0   3   1    7.79   12.05  59
   0   6   4  184.92   15.03  59
   1   6   4  916.34   19.51  59
   1   7   6   -1.98   14.99  59
   2  -5   0 1225.98   19.56  59
   3  -7   1  133.38   15.29  59
   3  -5   0   13.74   12.24  59
   5  -9   3   36.30   20.50  59
   5  -5   1  236.79   16.02  59
   5  -1   1  922.07   23.15  59
   6  -5   2   76.76   19.43  59
   6   0   3    8.36   19.65  59
  -4   3   6   -2.77   10.03  59
  -4   4   7   43.28    9.80  59
  -4   5   8   -2.07   10.74  59
  -3   3   4  142.58    9.81  59
  -3   6   7  115.92   11.64  59
  -3   7   9    5.98   12.28  59
  -2   5   4   47.47    8.56  59
  -2   7   7  121.23   11.49  59
  -1  -5   2   61.21    9.82  59
  -1   7   6    2.83   10.75  59
   1  -6   1  168.36   10.46  59
   1  -4   0   10.89    9.82  59
   2  -8   2   83.78   10.98  59
   4  -8   2  324.28   13.58  59
   4  -3   0  101.03    9.88  59
   4  -2   0    7.83    8.80  59
   5  -7   2   97.53   11.90  59
   6  -7   3   20.34   15.39  59
   6  -4   2    8.77   11.25  59
   6  -3   2   47.87   11.73  59
  -3  -5   5    3.43   19.63  59
  -5  -3   9  132.32   24.18  59
   5   1   2   82.64   21.49  59
  -5  -1   8   90.06   16.48  60
  -5   0   8  325.33   18.85  60
  -5   1   8   18.54   15.82  60
  -5   3   9    2.26   18.22  60
  -5   4  10   22.94   20.96  60
  -2  -8   6   27.46   15.97  60
  -2  -6   4  181.38   16.90  60
  -1   5   3   13.05   11.64  60
   2 -10   4   11.72   19.38  60
   4  -9   3   32.66   18.99  60
   4  -6   1   47.69   14.75  60
   5  -4   1    1.19   14.36  60
   5  -2   1   52.04   15.39  60
  -5   2   8    2.07   11.25  60
  -4   6   9   -6.51   12.67  60
  -2  -7   5   20.54   10.09  60
  -2   2   2  462.07   14.48  60
  -2   4   3  101.52    9.68  60
  -2   6   5   29.63    9.97  60
  -1   2   1 2349.66   28.72  60
  -1   4   2   16.67    8.49  60
  -1   6   4   -0.20    7.83  60
  -1   8   8   19.96   15.12  60
   0  -1   0  489.63   24.40  60
   0   7   5  251.71   11.68  60
   2  -9   3  115.22   12.49  60
   2   6   4    2.78   10.70  60
   2   7   6   -2.69   12.85  60
   3 -10   4   11.31   13.15  60
   3  -9   3   44.80   11.53  60
   3  -8   2    1.56    9.94  60
   3  -4   0  493.79   13.21  60
   4 -10   4  119.99   16.05  60
   5  -3   1   21.28   10.29  60
  -4  -3   6   21.20   18.99  60
   4   5   5    9.40   26.71  60
  -4   0   5  217.18   14.58  61
  -4   1   5   30.85   11.95  61
  -3  -7   7   16.73   18.56  61
  -3   5   5  112.23   13.57  61
  -3   7   8   17.89   17.92  61
   0   8   7   25.64   18.03  61
   1   7   5   -3.75   14.93  61
   2  -4   0  211.80   14.20  61
   3   6   5  303.08   21.47  61
   5  -8   3    5.35   18.77  61
   6  -6   3   36.56   18.97  61
  -5   3   8    4.79   10.82  61
  -5   4   9   13.83   12.88  61
  -4   4   6  122.42   10.86  61
  -4   5   7   73.64   11.42  61
  -4   6   8   48.51   13.01  61
  -3   4   4    2.25    8.37  61
  -3   6   6   18.25    9.35  61
  -2   7   6    9.14   10.59  61
  -2   8   8    0.85   14.39  61
  -1   7   5   64.84    9.75  61
  -1   8   7   13.78   12.50  61
   0  -6   2    6.07    8.94  61
   1 -10   5    7.09   13.71  61
   1  -7   2  212.57   10.36  61
   1  -3   0 2674.33   27.80  61
   1   5   2   -1.35    8.08  61
   2  -6   1   30.08    8.84  61
   3  -6   1   14.44    8.51  61
   4  -7   2  370.16   12.42  61
   5  -9   4    8.28   15.37  61
   5  -6   2   20.69   11.72  61
  -3  -6   6  127.32   21.10  61
  -5  -2   8   -1.79   14.96  62
  -4   2   5   48.64   12.16  62
  -3   0   3  177.81   13.65  62
  -3   1   3   15.58   10.89  62
  -3   7   7   -3.07   14.70  62
  -1  -9   6   80.09   16.68  62
  -1  -6   3   29.24   12.73  62
   0 -10   6   -8.01   19.32  62
   0   5   2  189.54   13.31  62
   0   6   3   26.49   11.32  62
   1  -9   4  157.87   17.81  62
   1  -8   3    6.56   14.94  62
   1   6   3  456.88   17.00  62
   3  -3   0  770.48   17.13  62
   3   4   2   51.98   14.83  62
   4  -5   1   84.93   12.57  62
   6  -5   3   57.24   19.10  62
   6  -1   3  119.65   20.16  62
  -3   2   3  193.63   10.03  62
  -2   3   2 1010.03   17.61  62
  -2   6   4    9.25    8.04  62
  -2   8   7   19.80   12.72  62
   0  -9   5  204.79   13.37  62
   0   8   6   23.68   12.64  62
   1  -5   1  691.02   14.21  62
   1   4   1  714.03   16.78  62
   2  -7   2   67.79    8.95  62
   3  -7   2  125.62   11.38  62
   4  -9   4   -2.21   13.06  62
   4  -8   3   45.89   11.92  62
   5  -7   3   -5.70   11.29  62
   5  -5   2   18.85    9.91  62
  -4  -1   5    0.36   14.07  62
   4   1   1  178.65   18.71  62
  -5   1   7    9.42   15.78  63
  -5   4   8   66.60   18.64  63
  -5   5   9   15.58   21.50  63
  -4   3   5   11.49   13.06  63
  -2   5   3    9.61   11.44  63
  -2   7   5  113.25   13.58  63
  -1  -8   5   24.00   14.04  63
  -1  -7   4  418.22   18.37  63
  -1   6   3  219.89   12.85  63
  -1   8   6    0.95   16.30  63
   0  -8   4   31.24   14.99  63
   0  -7   3   95.48   13.27  63
   0  -4   1  175.71   15.65  63
   0   7   4   -1.71   12.87  63
   1   2   0 2135.06   40.92  63
   2 -10   5   36.88   19.19  63
   2  -3   0  739.38   18.99  63
   2   7   5    1.47   17.82  63
   3 -10   5   -4.11   18.72  63
   3  -2   0  341.20   15.21  63
   3   0   0  225.60   15.82  63
   3   5   3   81.13   14.09  63
   6  -4   3   25.17   18.58  63
   6  -3   3   19.17   18.69  63
   6  -2   3    6.29   18.38  63
  -5   0   7   11.22   11.32  63
  -5   2   7   64.33   11.96  63
  -4   5   6   15.22    9.48  63
  -4   6   7   12.12   10.68  63
  -3   5   4  163.81    9.66  63
  -3   6   5   49.69   10.01  63
  -3   7   6    2.66   10.92  63
  -1   3   1  158.31   10.64  63
  -1   5   2  999.40   15.89  63
  -1   7   4  140.41   10.62  63
   0   4   1  314.37   12.48  63
   1   7   4   28.91   11.10  63
   1   8   6  133.03   15.89  63
   2  -9   4   97.80   12.17  63
   2  -8   3  116.25   10.95  63
   2   5   2  340.54   12.84  63
   3  -9   4   26.87   11.22  63
   3  -8   3    0.64    9.88  63
   3  -5   1   40.95    8.98  63
   3  -1   0  488.34   15.47  63
   4  -6   2    5.64   10.27  63
   4  -4   1    8.76    8.50  63
   5  -8   4  208.27   14.55  63
   6  -6   4   -1.92   13.31  63
  -2  -4   3    7.86   15.29  63
  -1  -2   1   68.11   16.98  63
  -5   3   7    5.20   15.60  64
  -4   4   5   32.31   14.48  64
  -4   7   8    1.29   19.13  64
  -3   3   3   18.90   12.59  64
   2  -5   1  458.35   15.75  64
   2   6   3  187.76   14.96  64
   5  -4   2   51.91   14.01  64
   5   0   2    0.48   13.45  64
  -5   5   8    5.60   12.55  64
  -3   8   7   21.38   12.41  64
  -2   4   2    2.98    7.37  64
  -2   8   6    9.57   10.23  64
  -1   8   5   22.74   10.41  64
   0   1   0  452.81   23.21  64
   0   8   5   16.93   10.57  64
   1 -10   6   19.82   13.45  64
   1  -6   2   27.64    9.00  64
   1  -2   0 7661.48   51.57  64
   4  -3   1   13.69    8.39  64
   5  -6   3   -7.06   11.25  64
   5   2   3    0.72   25.24  63
  -5  -1   7  282.46   18.93  65
  -5   4   7    2.38   15.44  65
  -4   6   6  180.45   16.55  65
  -3  -1   3  844.68   26.96  65
  -2  -8   7  100.95   16.75  65
  -1  -4   2    3.87   11.96  65
   0 -10   7   93.49   19.67  65
   1  -9   5  174.94   17.74  65
   1   8   5  102.18   18.37  65
   2  -2   0   26.72   12.97  65
   2   4   1  176.54   14.44  65
   3   6   4   15.50   18.38  65
   4  -7   3   10.43   13.64  65
   5  -3   2  678.51   19.00  65
   6  -5   4   -0.80   18.41  65
   6   0   4   29.92   19.61  65
  -4   5   5   59.76   10.20  65
  -4   7   7   58.54   12.75  65
  -3   4   3   51.35    8.72  65
  -3   6   4   68.47   10.08  65
  -3   7   5  229.38   12.65  65
  -2   6   3    8.84    7.82  65
  -2   7   4   88.47   10.07  65
  -1  -9   7   37.13   13.93  65
   0   6   2  583.05   13.14  65
   0   7   3  227.31   11.28  65
   1  -8   4    5.86   10.53  65
   1  -7   3  307.36   11.19  65
   2 -10   6   66.74   13.64  65
   2  -6   2  991.30   15.36  65
   2   7   4    5.62   10.49  65
   3 -10   6   19.69   13.47  65
   3  -6   2  715.16   13.44  65
   3  -4   1  457.17   12.65  65
   4  -9   5  120.14   13.97  65
   4  -8   4   30.26   11.53  65
   5  -8   5    7.50   13.27  65
   5  -7   4    3.80   11.13  65
   5  -2   2    7.67   10.36  65
   5  -1   2    9.28    9.78  65
   4   4   3   83.42   24.10  65
  -5   5   7   -3.29   18.09  66
  -4   2   4  114.11   12.90  66
  -2   8   5   37.85   14.97  66
  -1   4   1  339.84   15.48  66
   0  -9   6  117.61   17.07  66
   0  -5   2  241.12   13.55  66
   1   6   2  211.37   13.25  66
   3  -9   5  309.68   17.50  66
   3  -7   3  512.46   17.12  66
   4  -5   2  119.64   12.74  66
   4  -2   1  262.76   14.56  66
   4   0   1    1.61   12.16  66
   5  -5   3   15.40   13.56  66
   6  -6   5   86.17   21.98  66
   6  -4   4   56.00   18.80  66
  -5   2   6  220.51   12.23  66
  -5   3   6   13.47   11.37  66
  -4   1   4   40.00    9.18  66
  -4   3   4  459.69   12.62  66
  -3   8   6   26.90   12.31  66
  -2  -7   6    0.00    9.69  66
  -2   5   2   10.84    8.38  66
  -1   6   2  275.31   10.65  66
  -1   7   3  192.62   10.93  66
  -1   8   4   34.60   10.92  66
  -1   9   6    6.89   14.62  66
   0   2   0 1026.29   24.15  66
   0   5   1  581.50   14.01  66
   0   8   4   45.38   10.87  66
   1  -4   1  152.89   11.14  66
   1   7   3    7.11    9.08  66
   2  -9   5    8.48   11.57  66
   2  -8   4   65.63   10.89  66
   2  -7   3  343.41   11.28  66
   3  -8   4  264.31   11.70  66
   4  -1   1  116.70   10.47  66
   4   5   4   31.85   24.18  66
  -5   1   6   99.01   14.18  67
  -4   4   4   16.31   14.60  67
  -4   6   5    5.37   14.35  67
  -4   7   6   18.75   16.46  67
  -3   5   3  244.00   13.45  67
  -2  -6   5   -0.56   14.61  67
  -2  -5   4  133.80   14.28  67
  -2   9   6    1.39   18.82  67
  -1  -8   6   29.85   16.70  67
   0  -8   5   50.19   14.73  67
   0  -6   3    2.32   12.35  67
   1 -10   7   42.00   19.36  67
   1   5   1   34.44   11.88  67
   2  -4   1 1063.93   19.03  67
   2  -1   0  557.96   19.24  67
   4  -6   3  131.63   14.66  67
   6  -3   4   94.66   18.84  67
   6  -2   4   19.01   18.39  67
   6  -1   4   32.22   18.43  67
  -5   4   6   52.14   11.79  67
  -5   6   7    3.74   12.56  67
  -1  -5   3 1246.12   20.87  67
   0 -10   8  230.73   15.71  67
   0  -7   4  253.85   11.34  67
   0  -3   1  312.14   13.30  67
   1   8   4   25.75   12.73  67
   3 -10   7    1.98   15.44  67
   4  -9   6   30.02   13.11  67
   4  -7   4   13.54    9.26  67
   5  -6   4    9.67   10.98  67
   6  -5   5   16.36   12.93  67
   3   3   1    2.86   16.57  67
  -4   0   4  844.78   21.26  68
  -3  -7   8    8.32   18.38  68
  -3   7   4  -15.39   13.00  68
  -3   8   5    1.47   14.64  68
  -2   7   3   14.98   13.43  68
  -2   8   4   25.38   14.87  68
  -1  -7   5  607.88   19.54  68
  -1   5   1    2.84    9.96  68
  -1   9   5   20.94   17.27  68
   0   9   5   17.78   18.96  68
   1  -9   6   43.13   16.69  68
   1  -1   0   29.04   16.04  68
   1   3   0   22.53   13.99  68
   2 -10   7   17.15   18.75  68
   3  -5   2  363.84   14.33  68
   3  -3   1  521.43   15.11  68
   4  -8   5  252.56   17.05  68
   4  -4   2  359.01   14.49  68
   5  -8   6    4.44   18.82  68
   5  -7   5   21.66   16.96  68
   5  -4   3    7.35   13.51  68
  -5   0   6   -0.39    9.14  68
  -5   5   6   -0.29   10.74  68
  -4   5   4   33.40   10.18  68
  -3   3   2  252.79   11.44  68
  -3   6   3    5.00   10.17  68
  -2   2   1  844.34   17.72  68
  -2   3   1   13.20    9.66  68
  -2   6   2  123.87    9.24  68
  -2   9   5    3.91   12.09  68
  -1  -6   4   62.50    9.84  68
   0   3   0   64.59    9.49  68
   1  -5   2  170.41    9.89  68
   3  -9   6   22.61   11.30  68
  -4  -2   5  372.84   26.96  68
  -6   2   8   78.42   20.33  69
  -4  -6   9    2.60   21.45  69
  -4   7   5   84.26   15.71  69
  -4   8   6  -15.79   17.77  69
  -3   2   2  196.56   13.05  69
  -1  -9   8   -3.75   18.71  69
  -1   8   3  -12.54   12.57  69
   0  -9   7    4.21   16.03  69
   0   7   2    9.00   13.48  69
   0   8   3   23.25   14.97  69
   1  -8   5   -4.55   14.46  69
   2  -9   6   13.15   16.04  69
   2  -5   2  247.84   14.11  69
   2   6   2   14.48   13.15  69
   2   7   3   65.79   15.44  69
   3  -6   3   -8.61   12.24  69
   5  -3   3   63.76   14.32  69
   6  -4   5  122.53   19.00  69
  -5   6   6   68.36   13.26  69
  -4   6   4   19.24    9.34  69
  -3   4   2   93.94    9.42  69
  -2  -8   8  157.29   14.86  69
  -2   1   1   20.31    8.90  69
  -2   4   1  391.97   12.11  69
  -1   7   2   66.13   10.04  69
   1 -10   8    0.43   13.32  69
   1  -7   4   26.77    8.71  69
   1  -6   3  240.08   10.78  69
   2  -8   5   26.72   10.17  69
   2   0   0  509.01   19.84  69
   3  -8   5   55.61   10.16  69
   3  -7   4    6.83   10.62  69
   4  -9   7   52.72   13.29  69
   4  -5   3   13.19   10.34  69
   5  -5   4  132.42   12.35  69
  -5  -3   8   -0.66   25.08  69
  -6   1   8   -4.00   19.22  70
  -5   3   5   78.01   14.11  70
  -5   4   5   85.84   16.32  70
  -3  -6   7  192.43   18.53  70
  -3   1   2   40.75   11.61  70
  -3   8   4    3.18   14.81  70
  -1   9   4   -7.94   17.24  70
   0   6   1  786.22   16.87  70
   0   9   4   20.80   17.37  70
   1   7   2   64.24   13.49  70
   2 -10   8  125.70   19.31  70
   2  -7   4   17.25   12.06  70
   2  -6   3  630.84   16.03  70
   3   5   2   62.05   14.22  70
   3   6   3   43.47   15.71  70
   4  -3   2  153.45   13.21  70
   5  -6   5  179.18   16.68  70
   5   1   3   92.60   17.20  70
   6  -3   5    7.05   17.96  70
  -5   2   5   46.32    9.92  70
  -5   5   5   58.08   11.58  70
  -5   7   6    4.74   12.61  70
  -4   3   3  540.52   13.37  70
  -4   4   3   51.75    8.86  70
  -4   8   5    7.55   12.21  70
  -3   5   2   25.93    8.57  70
  -3   7   3  180.29   10.68  70
  -3   9   5   12.09   11.88  70
  -2   7   2   71.45   10.29  70
  -2   8   3    4.39    8.71  70
  -2   9   4   39.82   12.36  70
  -1   6   1   50.43    8.60  70
   0  -8   6  201.30   11.56  70
   0   4   0 1216.17   20.12  70
   1  -3   1  753.82   16.41  70
   1   8   3  183.28   12.08  70
   2  -3   1   10.17    9.57  70
   2   5   1  222.68   11.87  70
   2   8   4  147.55   16.07  70
   3  -2   1    9.43    8.19  70
   4  -8   6   30.60   11.16  70
   4  -7   5   56.94   11.69  70
   4  -6   4  381.20   12.75  70
   5  -7   6    3.61   13.04  70
   5  -2   3    9.29    9.53  70
  -5  -2   7   60.58   19.19  70
  -4   2   3  265.69   14.29  71
  -4   7   4   70.04   15.56  71
  -2   5   1   -2.19   12.17  71
  -1  -8   7  156.22   17.34  71
   0  -4   2  657.58   19.16  71
   1  -9   7  141.69   16.72  71
   1   4   0 1128.33   22.87  71
   1   6   1   10.14   11.49  71
   3  -9   7    0.61   17.02  71
   3  -4   2 1087.94   18.97  71
   3   7   4   19.32   22.07  71
   5  -4   4  109.64   14.03  71
   5  -1   3  120.05   14.67  71
   5   0   3   -1.15   12.84  71
   6  -2   5    4.47   18.09  71
   6  -1   5   99.92   19.34  71
  -6   3   7   26.79   12.66  71
  -6   4   7    6.23   14.82  71
  -5   6   5   16.18   10.84  71
  -4   5   3   32.30   10.35  71
  -3   6   2   18.84    8.17  71
  -1   2   0 7614.59   51.44  71
  -1   3   0 2698.94   27.83  71
   0  -7   5  101.24    9.75  71
   1 -10   9  120.59   16.13  71
   2  -9   7  225.32   12.89  71
   3  -8   6  124.60   12.07  71
   4  -9   8  -12.94   15.66  71
   6  -4   6  118.26   15.68  71
  -6   0   8    7.48   20.04  72
  -6   2   7   -4.11   17.78  72
  -5   1   5   79.79   14.04  72
  -3  -5   6   93.77   15.52  72
  -3   9   4   32.36   17.27  72
  -2  -7   7   -5.07   16.27  72
  -1  -9   9   22.76   18.64  72
  -1   4   0    8.12   13.57  72
  -1   8   2  195.36   14.22  72
  -1   9   3   20.12   14.40  72
   0  -9   8   17.16   15.55  72
   0   8   2  101.37   13.41  72
   3  -5   3    6.65   11.85  72
   4  -4   3   34.00   11.95  72
   4  -2   2   44.60   12.20  72
   5  -5   5   11.74   15.98  72
  -5   7   5   -8.32   12.76  72
  -4   6   3   59.87   10.33  72
  -4   8   4   14.06   12.27  72
  -3   8   3   58.67   11.09  72
  -2   6   1  433.08   11.50  72
  -2   9   3  225.40   11.95  72
  -1  -7   6   19.64   10.40  72
  -1   7   1   47.39    8.38  72
   0  -6   4    7.44    8.64  72
   0  -5   3  214.98   10.35  72
   0   5   0   16.19    7.45  72
   0   7   1    6.75    9.74  72
   0   9   3    0.99   12.07  72
   1  -8   6   43.69   10.26  72
   2  -8   6  182.09   10.91  72
   2  -4   2  167.98   10.27  72
   3  -7   5  152.56   10.65  72
   3  -6   4  522.06   12.18  72
   4  -8   7    1.16   13.17  72
   5  -7   7    9.39   13.07  72
   5  -6   6  205.30   12.58  72
   5   3   4   27.78   37.75  70
  -5  -1   6   -2.20   18.53  72
  -5   4   4  283.52   15.60  73
  -4   1   3  206.41   14.29  73
  -3  -7   9  133.41   19.56  73
  -3   7   2   15.03   13.39  73
  -2  -8   9  139.81   19.57  73
  -2   8   2  195.96   14.08  73
  -1  -3   2  215.97   16.90  73
   1  -4   2 1951.39   25.02  73
   2   7   2    9.79   15.06  73
   3  -9   8  290.20   20.11  73
   3  -1   1  506.40   17.01  73
   4  -7   6   24.09   16.11  73
   4  -5   4   24.55   14.64  73
   5  -3   4   34.70   13.52  73
   6  -3   6   31.80   19.64  73
  -6   1   7   49.54   12.88  73
  -5   3   4   15.61    9.89  73
  -5   5   4   -3.89   11.41  73
  -4   7   3  408.21   13.88  73
  -1   5   0  568.94   12.96  73
   1  -9   8    9.77   11.30  73
   1  -7   5  360.77   11.62  73
   1   8   2  127.31   11.85  73
   2  -9   8    4.09   11.17  73
   2  -7   5   82.31   11.03  73
   2  -5   3   15.46    9.06  73
   4  -6   5    5.17    9.74  73
   4  -1   2   43.15    9.03  73
  -3  -3   4  124.58   26.46  72
   2   1   0  249.56   27.72  73
  -4  -5   8   53.21   21.98  73
  -4  -1   4   45.80   15.01  73
  -3  -4   5   46.56   15.68  73
  -6   3   6    5.43   17.72  74
  -6   4   6   60.36   18.80  74
  -6   5   6   11.36   20.86  74
  -5   6   4   78.65   15.99  74
  -3   0   2   24.64   11.54  74
  -3   4   1  284.52   14.18  74
  -3   9   3   50.21   17.87  74
  -2  -6   6  272.57   17.28  74
  -2   0   1  204.94   16.60  74
  -2   7   1   65.61   11.72  74
  -1  -6   5  220.85   14.41  74
   0  -8   7  102.34   14.75  74
   1  -6   4   24.60   12.09  74
   1  -5   3   61.56   11.48  74
   1   5   0  561.00   17.22  74
   1   7   1   72.21   14.34  74
   1   9   3   10.82   17.57  74
   2  -6   4  475.38   14.98  74
   2  -2   1    6.08   12.41  74
   2   8   3    4.27   18.03  74
   3  -8   7    2.96   15.87  74
   3  -3   2  183.65   14.25  74
   5  -7   8   63.60   22.13  74
   5  -4   5   84.56   16.65  74
   6  -2   6   -8.44   21.39  74
  -5   2   4   76.68   10.62  74
  -5   7   4    7.15   12.87  74
  -4   4   2  135.32    9.54  74
  -4   5   2  188.99   11.66  74
  -4   8   3   36.13   10.95  74
  -4   9   4    7.62   14.19  74
  -3   3   1   -1.85    7.36  74
  -3   5   1  150.47    9.72  74
  -3   8   2   34.16    9.42  74
  -1  -9  10   82.72   15.63  74
  -1  -8   8  189.78   13.17  74
  -1   1   0   20.45   12.45  74
  -1   6   0  195.51    9.98  74
  -1   9   2   -0.50   10.42  74
  -1  10   3   71.64   15.11  74
   0  -9   9    7.45   13.00  74
   0   6   0   39.00    8.82  74
   3  -9   9  146.87   14.07  74
   4  -8   8   -5.18   13.20  74
   4  -3   3   52.80    8.98  74
   5  -6   7   52.90   13.57  74
   5  -5   6   20.59   11.05  74
   5  -2   4   -0.69    9.40  74
   2   3   0 2456.14   47.91  74
  -5   0   5   48.72   13.70  75
  -3   6   1  264.13   13.25  75
  -2   4   0  185.44   13.69  75
  -2   9   2   12.12   14.60  75
  -2  10   3   33.93   19.05  75
  -1  -5   4   43.03   12.83  75
  -1  -4   3   37.01   12.25  75
  -1   8   1  784.42   17.83  75
   0  -2   1   14.24   15.54  75
   0   9   2  -15.56   14.60  75
   1  -8   7   42.13   14.00  75
   2  -8   7   13.85   13.35  75
   2   6   1  117.45   15.35  75
   3  -7   6   26.42   13.82  75
   3   7   3   46.35   19.25  75
   4   0   2  754.34   20.29  75
  -6   2   6   25.39   12.59  75
  -4   3   2   37.76    8.80  75
  -4   6   2   33.63    9.84  75
  -2  -5   5  328.18   13.73  75
  -2   3   0  659.91   15.47  75
  -2   5   0 1026.00   16.12  75
  -2   8   1   63.70    9.90  75
   0  -7   6  233.99   12.53  75
   0   8   1    7.70    9.01  75
   1  -9   9   24.65   13.35  75
   2  -9   9  233.53   14.06  75
   3  -6   5  133.34   11.28  75
   3  -4   3  231.17   10.61  75
   4  -7   7  129.16   12.35  75
   4  -4   4    5.94    8.11  75
  -5   8   4   26.92   19.95  76
  -4   7   2   85.52   13.61  76
  -3   2   1  434.37   15.45  76
  -3   7   1    0.88   13.73  76
  -2  -7   8   84.02   16.59  76
   1   0   0   58.22   18.65  76
   3  -8   8   30.60   15.46  76
   3  -5   4    8.95   11.63  76
   3   0   1  451.93   17.68  76
   3   6   2   69.37   16.75  76
   4  -8   9  -11.86   18.69  76
   4  -6   6    8.33   13.32  76
   4  -5   5   14.72   14.02  76
   4   1   2   75.63   13.05  76
   5  -3   5   30.51   15.75  76
   5  -1   4   -0.26   12.83  76
  -6   4   5   18.16   12.62  76
  -6   5   5    2.30   12.78  76
  -5   4   3  169.03   11.32  76
  -5   5   3  254.58   13.32  76
  -5   6   3   17.01   10.93  76
  -4   9   3   40.86   12.37  76
  -3   9   2   22.14   10.54  76
  -2  -8  10   -2.38   12.90  76
  -2   6   0   61.20    8.76  76
  -1  -7   7   -9.32    9.96  76
  -1   7   0    5.59    8.04  76
   0  -9  10    0.72   12.98  76
   0   7   0   50.43    8.69  76
   1  -7   6  426.95   13.42  76
   1  -2   1  282.96   13.77  76
   1   6   0  232.78   11.07  76
   2  -7   6   13.33   10.13  76
   5  -6   8   71.59   13.68  76
   4   2   2   49.16   20.79  76
  -2  -3   3 1791.98   39.64  76
   3   4   1    2.65   17.46  76
   5   2   4   62.30   22.46  76
  -6   0   7    5.05   17.33  77
  -5   1   4    9.87   13.51  77
  -5   7   3   -2.37   15.35  77
  -4   0   3  334.73   16.73  77
  -4   2   2  149.43   13.42  77
  -4   8   2   30.23   15.53  77
  -3  -6   8  150.44   17.45  77
  -2  -4   4  123.51   14.35  77
  -2  10   2   -2.20   17.37  77
  -1   9   1   -1.43   14.96  77
  -1  10   2   13.36   17.37  77
   0  -8   8   47.94   16.61  77
   0  -6   5   47.78   12.35  77
   1   8   1   -8.60   15.25  77
   1   9   2   30.30   17.83  77
   2  -3   2  322.17   15.83  77
   2   4   0  170.74   15.20  77
   2   8   2   35.40   18.30  77
   4  -7   8  107.58   16.70  77
   4  -2   3   69.10   12.32  77
   5  -5   7   87.86   16.30  77
   5  -4   6   40.55   15.59  77
   5   0   4  168.15   17.24  77
  -6   3   5    5.06   12.57  77
  -5   3   3    9.05    9.89  77
  -3  -7  10   95.10   16.23  77
  -3   8   1   37.23    9.33  77
  -2   2   0   25.99    9.08  77
  -2   7   0   -0.85    7.95  77
  -2   9   1   19.23   10.45  77
  -1  -8   9   63.24   11.58  77
   1  -9  10    9.95   12.97  77
   1  -8   8  121.56   12.36  77
   2  -9  10    4.55   13.25  77
   2  -8   8    5.32   11.44  77
   2  -6   5    1.45    8.33  77
   3  -7   7  281.57   11.64  77
   3  -2   2  143.37    9.45  77
   5   1   4   18.04   18.65  77
  -6   1   6   28.31   17.55  78
  -5   8   3   -6.49   17.89  78
  -3  10   2   30.33   17.56  78
  -1   8   0   87.16   14.39  78
   0   9   1  193.92   15.99  78
   0  10   2   97.33   21.21  78
   1  -6   5   -1.85   12.05  78
   2  -5   4  399.35   14.59  78
   2  -4   3   50.35   11.78  78
   2   7   1  358.75   18.75  78
   3  -8   9    9.78   17.02  78
   4  -6   7   24.89   16.18  78
   5  -2   5  230.38   16.95  78
  -4   5   1  645.95   13.36  78
  -4   6   1   23.15    9.91  78
  -4   9   2   55.29   12.65  78
  -3   5   0    5.61    8.16  78
  -3   6   0   11.66    8.47  78
  -3   9   1  173.12   11.47  78
  -2   8   0  305.77   11.92  78
   0  -9  11   66.68   15.53  78
   0  -5   4  223.98   11.37  78
   0  -3   2  260.03   12.48  78
   0   4  -1  141.10   11.43  78
   3  -6   6   14.90   10.16  78
   4  -5   6  132.35   10.65  78
   4  -3   4   61.40    8.93  78
   4   5   3  218.33   32.91  78
  -6   5   4    1.83   17.89  79
  -6   6   4   20.30   19.82  79
  -4   4   1   19.34   11.82  79
  -4   7   1   -6.23   12.91  79
  -3   4   0  555.92   16.02  79
  -2  -6   7  334.23   17.17  79
  -1  -6   6  450.71   15.84  79
  -1   4  -1  162.13   14.66  79
  -1   5  -1  842.23   16.96  79
   0  -7   7  157.90   15.47  79
   0  -4   3    9.50   13.48  79
   0   5  -1  163.55   12.21  79
   0   8   0  246.10   14.86  79
   1  -5   4  850.64   17.88  79
   1  -3   2 1813.67   24.64  79
   1   7   0   12.17   13.76  79
   2  -7   7  421.17   16.37  79
   2   5   0   89.13   13.02  79
   3  -3   3  351.98   14.71  79
   4  -7   9   83.78   19.19  79
   4  -4   5  233.87   15.58  79
   5  -5   8   29.04   18.73  79
   5  -3   6    8.27   15.48  79
  -6   2   5   10.81   12.23  79
  -6   4   4    3.73   12.55  79
  -5   5   2   13.72    9.56  79
  -5   6   2   62.30   11.54  79
  -5   7   2   68.72   11.15  79
  -4   8   1   24.35   10.79  79
  -3   1   1  769.55   18.18  79
  -3   7   0  705.97   14.25  79
  -2  10   1   55.58   12.65  79
  -1   6  -1  174.27    9.97  79
  -1  10   1   -0.81   12.31  79
   0  -8   9  326.33   13.49  79
   0   3  -1  330.57   13.22  79
   1  -9  11   12.32   12.87  79
   1  -7   7  314.90   12.37  79
   1  -4   3  290.52   12.16  79
   2  -8   9    4.46   10.93  79
   2  -1   1   36.88    9.18  79
   3  -8  10   60.21   13.40  79
   3  -7   8   -2.03   11.27  79
   3  -5   5  148.56    9.62  79
   3  -4   4  166.29    9.95  79
   4  -1   3  158.04   10.28  79
   5  -4   7  152.96   12.40  79
  -4  -4   7   45.79   20.11  79
  -5   2   3  145.33   14.92  80
  -2  -7   9   30.20   15.79  80
  -1  -8  10  110.77   18.72  80
  -1  -7   8   51.58   13.93  80
  -1   3  -1  787.05   18.59  80
  -1   9   0   54.32   15.52  80
   0   6  -1  446.65   15.08  80
   1  -8   9   16.33   15.87  80
   1   9   1   63.91   17.98  80
   3   1   1  127.57   15.18  80
   4  -6   8  -19.49   15.82  80
   5  -1   5    0.31   15.25  80
  -5   4   2   -4.16    9.76  80
  -5   8   2   -3.27   12.92  80
  -4   1   2   35.04    8.87  80
  -4   3   1  191.77   10.39  80
  -4   9   1   97.58   13.10  80
  -3   3   0  669.12   14.18  80
  -3   8   0  172.99   10.66  80
  -3  10   1   49.80   12.60  80
  -2   5  -1  396.40   12.13  80
  -2   6  -1   34.20    8.55  80
  -2   9   0    2.06   10.48  80
  -1   7  -1   90.58    8.91  80
   0  10   1   15.59   12.43  80
   2  -6   6  150.58    9.43  80
   4  -7  10   52.28   13.57  80
   5  -5   9    0.39   13.17  80
  -6   3   4    6.48   14.68  81
  -3  -5   7   14.93   13.58  81
  -2   4  -1  956.79   18.34  81
  -2   7  -1  103.38   11.97  81
  -1  -5   5   45.11   12.58  81
   0  -6   6    5.97   12.04  81
   0   7  -1  625.88   16.09  81
   0   9   0    9.95   15.18  81
   1   4  -1    1.09   11.69  81
   1   8   0   56.58   15.74  81
   2  -8  10  181.41   17.67  81
   2   6   0  152.38   15.67  81
   3  -8  11    1.82   20.32  81
   3  -6   7   -1.88   13.87  81
   3   7   2  118.00   19.99  81
   4  -5   7  145.15   14.54  81
   5  -2   6  138.57   16.24  81
  -6   6   3   10.18   12.78  81
  -3   9   0    1.52   10.51  81
  -1   8  -1   26.44    9.84  81
   0  -8  10   32.77   11.12  81
   1  -6   6  294.24   10.97  81
   1   5  -1  131.76   10.51  81
   2  -7   8  566.63   13.51  81
   2  -5   5    5.33    8.32  81
   2   8   1   24.41   12.93  81
   3  -7   9   -1.51   11.23  81
   3  -1   2   28.01    8.00  81
   4  -2   4 1418.39   18.92  81
   5  -4   8   44.68   13.43  81
   5  -3   7   19.18   10.88  81
   5   0   5   21.80   10.68  81
   3   5   1  355.25   23.54  81
  -6   5   3   11.46   17.75  82
  -5   3   2   31.79   14.09  82
  -4   6   0  196.02   15.01  82
  -4   7   0   13.89   13.06  82
  -3  -6   9    1.91   15.25  82
  -2   1   0  564.61   18.92  82
  -2   8  -1  198.29   14.85  82
  -2  10   0  114.26   18.46  82
  -1  -8  11   53.08   18.51  82
  -1  10   0  214.98   18.58  82
   0  -7   8   22.66   14.04  82
   1  -8  10   39.39   15.80  82
   4  -6   9  103.68   15.99  82
   4  -4   6  396.22   16.52  82
   4  -3   5   19.33   14.32  82
   4   0   3  142.04   13.30  82
  -5   6   1   44.19   11.62  82
  -5   7   1  262.69   12.49  82
  -4   5   0  247.09   10.61  82
  -4   8   0   -2.69   10.83  82
  -3   6  -1   22.53    8.24  82
  -3  10   0   21.25   12.21  82
  -2  -5   6   48.82    9.30  82
   0   8  -1    4.33   10.01  82
   1  -7   8   48.17   10.32  82
   1   6  -1   82.39    9.62  82
   2  -8  11  112.03   13.78  82
   2  -4   4 1941.91   20.31  82
   2  -2   2 4994.65   36.57  82
   3  -5   6   66.28    8.88  82
  -4  -5   9  394.53   27.59  82
  -6   0   6   79.87   18.72  83
  -6   1   5    1.46   17.54  83
  -6   4   3  126.91   15.99  83
  -5  -1   5   29.06   13.53  83
  -5   0   4   86.75   14.77  83
  -5   8   1   -6.51   18.00  83
  -4   2   1   -0.96   11.85  83
  -3   5  -1   45.61   11.99  83
  -3   7  -1  139.29   15.13  83
  -2  -7  10   49.03   17.20  83
  -2   3  -1   20.06   13.45  83
  -2   9  -1   -3.53   15.57  83
  -1  -7   9   14.27   15.75  83
  -1  -6   7   24.68   14.73  83
  -1   9  -1   92.82   16.03  83
   0   2  -1    9.40   15.39  83
   1   3  -1  336.47   18.30  83
   2  -3   3  158.11   14.10  83
   3  -7  10  236.30   16.99  83
   3  -6   8  -14.39   13.65  83
   3  -4   5   15.38   11.71  83
   3  -2   3   96.39   13.51  83
   4  -5   8  223.23   17.18  83
   5  -4   9   32.14   18.52  83
   5  -1   6   77.55   15.76  83
   5   1   5  215.65   17.59  83
   5   3   5    2.09   21.86  83
  -5   5   1    9.55    9.32  83
  -5   9   1   11.14   14.50  83
  -4   4   0   -2.17    8.32  83
  -4   9   0   -1.69   12.65  83
  -3   2   0  286.58   11.94  83
  -3   8  -1  271.55   11.40  83
  -2  -6   8   32.57   10.01  83
  -1  -4   4   33.99    8.40  83
  -1   2  -1  297.17   13.83  83
   0  -8  11   -2.94   12.91  83
   0  -5   5 1592.19   19.82  83
   0  10   0    2.62   12.35  83
   1  -8  11  386.12   15.28  83
   1  -5   5  373.87   11.69  83
   1   9   0   71.51   13.00  83
   2  -7   9   11.63    9.38  83
   2  -6   7  157.27    9.54  83
   3  -3   4  305.76   11.38  83
   4  -6  10    1.10   13.31  83
   5  -3   8   74.74   13.40  83
   5   2   5   19.79   22.50  83
  -6   2   4   79.68   15.72  84
  -6   7   2   61.39   21.48  84
  -5   1   3    5.30   13.56  84
  -3   9  -1    7.81   15.10  84
  -1  -8  12   20.06   21.14  84
   1   7  -1  333.36   16.61  84
   2  -8  12   49.34   20.23  84
   2   7   0  296.88   16.13  84
   4  -4   7   18.44   13.75  84
   5  -2   7    5.15   15.11  84
  -6   6   2   21.15   12.77  84
  -5   4   1   22.87    9.78  84
  -4  10   0   -8.31   14.48  84
  -3   4  -1  507.37   12.90  84
  -2  10  -1   22.79   12.83  84
  -1   5  -2  172.38    9.62  84
  -1   6  -2   30.85    8.52  84
  -1   7  -2  205.10   10.13  84
   0  -7   9    6.03    9.36  84
   0  -6   7  506.05   12.66  84
   0   9  -1   32.45   10.88  84
   1  -8  12   12.05   13.06  84
   1  -7   9  117.24   10.46  84
   1  -6   7    5.06    8.43  84
   1  -4   4  210.37   10.83  84
   3  -7  11   42.46   13.13  84
   3  -5   7   57.84   10.67  84
   4  -6  11   -0.47   15.22  84
   4  -1   4  454.14   13.15  84
  -6   3   3    8.56   15.00  85
  -6   5   2    1.84   17.95  85
  -5   2   2   72.47   14.35  85
  -2   6  -2 1065.74   17.41  85
  -2   7  -2   59.52   11.88  85
  -1  10  -1   83.04   17.99  85
   0  -8  12   80.83   18.55  85
   2  -7  10   20.80   15.91  85
   2  -5   6  467.81   14.57  85
   3  -6   9   -2.32   16.06  85
   3   6   1    0.91   15.42  85
   4  -5   9   49.44   15.89  85
   4  -3   6   26.92   14.14  85
   4  -2   5  143.27   15.25  85
   4   1   3  645.05   20.79  85
   5  -3   9   53.96   18.89  85
   5   0   6    5.04   14.77  85
  -5   7   0    2.90   10.84  85
  -5   8   0   -0.15   12.67  85
  -4   6  -1   40.85   10.07  85
  -4   7  -1  181.28   10.78  85
  -4   8  -1   59.88   11.11  85
  -3  -6  10   99.81   14.20  85
  -3  10  -1   54.57   12.92  85
  -2  -7  11  263.01   15.00  85
  -2   5  -2  206.17   10.58  85
  -2   8  -2   73.47   10.46  85
  -1  -7  10    7.32   10.90  85
  -1   8  -2  145.49   10.89  85
   0  -4   4   49.83    9.45  85
   0   5  -2  205.98   10.06  85
   0   6  -2    4.30    8.42  85
   1  -1   1   -3.16   10.65  85
   1   8  -1    1.97    9.36  85
   2  -6   8    2.95   10.15  85
   3  -7  12   22.96   15.26  85
   5  -2   8  100.61   13.38  85
  -6  -1   7    7.03   26.20  85
   3   2   1   60.07   16.25  85
  -5   6   0   55.17   15.91  86
  -5   9   0   10.14   20.89  86
  -4   3   0  110.61   12.80  86
  -4   9  -1   -3.38   16.36  86
  -3  -4   6  390.33   19.99  86
  -2  -4   5  762.80   20.79  86
  -1  -3   3  153.09   15.79  86
  -1   4  -2 2077.99   25.02  86
   0   7  -2   21.86   11.88  86
   1  -7  10   63.99   16.39  86
   1  -3   3   93.92   13.14  86
   2   8   0    4.74   14.98  86
   3  -4   6  260.98   13.71  86
   3   0   2  495.22   18.20  86
   4  -4   8  261.08   17.36  86
   5  -1   7   11.53   16.52  86
  -6   7   1   -1.74   12.95  86
  -4   5  -1   63.77    9.00  86
  -4  10  -1   41.02   12.73  86
  -3   7  -2  135.37   10.90  86
  -3   8  -2    6.59    9.36  86
  -2   2  -1    9.34    8.86  86
  -2   9  -2   10.74   10.70  86
  -1  -6   8  411.08   13.68  86
  -1  -5   6   77.28    9.38  86
  -1   9  -2   70.90   11.74  86
   0  -7  10   -2.76   10.99  86
   0  10  -1    9.47   12.65  86
   1  -2   2  292.99   12.87  86
   2  -7  11   69.72   11.47  86
   2  -4   5   73.28    9.55  86
   3  -6  10  122.44   12.03  86
   4  -5  10  106.55   13.83  86
   5   1   6    5.71   12.26  86
  -6   4   2   77.49   16.07  87
  -5   3   1  403.51   17.07  87
  -5   5   0  177.28   14.69  87
  -3  -5   8    3.68   13.19  87
  -3   3  -1  555.52   15.14  87
  -3   6  -2  863.92   16.55  87
  -3   9  -2   14.98   15.30  87
  -2  -7  12  142.36   20.52  87
  -2  -6   9  127.94   17.07  87
   0   4  -2  742.35   19.15  87
   0   8  -2   65.97   14.35  87
   1  -6   8  138.62   15.50  87
   1  -5   6   58.67   12.43  87
   3  -5   8  185.69   15.53  87
   3  -3   5    0.01   11.95  87
  -6   6   1   73.31   13.24  87
  -2   4  -2  150.89   10.14  87
  -2  10  -2  228.91   13.71  87
  -1  -7  11   82.07   11.45  87
   0  -6   8  258.35   12.32  87
   0  -5   6  318.05   11.45  87
   0  -3   3 2179.80   26.16  87
   1  -7  11   13.47   11.12  87
   1   9  -1   53.85   11.22  87
   2  -7  12    2.87   13.37  87
   2  -6   9   66.05   10.46  87
   2  -5   7   77.94    9.31  87
   2   0   1    8.08    8.69  87
   3  -6  11   83.02   13.64  87
   4  -5  11   65.54   13.77  87
   4  -4   9   22.91   11.10  87
   4  -3   7   39.90   10.09  87
   4   0   4   40.07   10.55  87
   5  -2   9   31.47   13.15  87
   5   0   7   76.13   13.46  87
  -4  -5  10  147.39   24.00  87
  -4   0   2   31.60   12.33  88
  -3   0   1   66.50   12.79  88
  -3   5  -2  369.35   14.11  88
  -3  10  -2  105.29   18.21  88
  -2  -5   7    1.72   14.48  88
  -1  10  -2   21.38   16.52  88
   0  -7  11   65.35   15.79  88
   0   9  -2  418.13   18.04  88
   2  -3   4   67.09   12.55  88
   3  -2   4  702.02   17.21  88
   3  -1   3  205.08   14.44  88
   4  -2   6  366.40   16.75  88
   4   2   3    3.78   13.29  88
   5  -1   8   -1.54   17.80  88
   5   2   6  232.79   20.57  88
  -6   5   1   75.43   12.93  88
  -5   7  -1   -5.05   10.81  88
  -5   8  -1   22.87   12.84  88
  -5   9  -1   16.75   14.95  88
  -4   4  -1   10.16    8.38  88
  -4   7  -2  383.40   12.31  88
  -4   8  -2  338.35   13.16  88
  -4   9  -2   -1.07   10.70  88
  -3  -6  11    1.79   12.52  88
  -2  11  -2   47.09   14.93  88
  -1   0   0   40.32   13.41  88
   2  -7  13   -5.19   15.85  88
   3  -6  12   10.73   13.37  88
   3  -5   9  101.47   10.64  88
   3  -4   7    2.88    8.50  88
   4  -1   5  287.48   12.92  88
   3   7   1   -2.34   22.64  88
  -6   1   4   14.93   14.91  89
  -6   2   3  251.37   17.59  89
  -5   4   0    5.15   13.65  89
  -4   1   1  259.88   15.10  89
  -4  10  -2   26.99   19.30  89
  -2   7  -3  375.70   13.89  89
  -2   8  -3  129.52   14.48  89
  -1  -7  12    0.51   18.13  89
  -1  -2   2  108.13   14.53  89
  -1   3  -2 1818.89   24.34  89
  -1   7  -3  312.79   13.91  89
   1  -7  12   15.43   18.61  89
   1  -6   9  451.67   16.87  89
   1  -4   5   14.14   11.28  89
   1   6  -2   12.30   11.90  89
   1   7  -2  499.71   17.99  89
   2  -6  10   21.77   13.44  89
   2  -2   3  958.62   20.24  89
   2  -1   2  406.72   16.90  89
   2   5  -1  231.06   15.18  89
   2   6  -1  296.06   17.50  89
   2   9   0   46.93   20.23  89
   4  -4  10   24.91   15.51  89
   4  -3   8  119.92   14.03  89
   5  -1   9    1.94   20.65  89
   5   1   7    7.42   18.24  89
  -6   3   2   90.46   11.56  89
  -6   7   0    5.16   12.86  89
  -5   6  -1   -6.53   11.48  89
  -4   6  -2    6.80    9.93  89
  -3   1   0  470.21   15.10  89
  -3   4  -2  927.75   15.50  89
  -2  -6  10  142.39   12.50  89
  -2   6  -3  521.42   12.60  89
  -2   9  -3  115.50   12.13  89
  -1  -6   9  284.83   12.27  89
  -1   6  -3  240.57   10.59  89
  -1   8  -3    6.34   10.00  89
   0  -7  12   17.67   13.34  89
   0  10  -2    4.68   12.90  89
   1  -5   7  396.22   11.70  89
   1   5  -2   64.01    9.55  89
   1  10  -1  103.71   15.48  89
   2  -4   6  309.22   11.00  89
   5   0   8  293.45   15.08  89
  -4  -3   6   23.55   19.65  89
  -3  -1   2 1160.14   41.86  89
  -4  -4   8    8.30   18.85  89
  -4   2   0    6.29   11.93  90
  -3   7  -3  507.77   16.85  90
  -3   8  -3   16.22   13.06  90
  -3   9  -3   45.91   15.30  90
  -2   3  -2  313.26   15.71  90
  -1  -7  13    9.31   19.92  90
  -1  -4   5   70.10   13.59  90
  -1   9  -3   32.23   16.01  90
   0  -6   9  227.66   15.64  90
   1  -7  13   10.23   18.77  90
   1   2  -1   60.19   13.70  90
   1   8  -2   18.60   13.00  90
   2  -6  11  110.83   16.67  90
   2  -5   8    0.03   11.86  90
   2   7  -1    5.48   13.02  90
   3  -5  10   49.10   15.97  90
   3  -3   6   -0.73   12.00  90
   4  -4  11    9.06   18.63  90
  -6   4   1   97.49   11.64  90
  -6   6   0   35.02   13.13  90
  -3  -6  12   33.53   15.22  90
  -3  10  -3    3.54   12.63  90
  -2  10  -3   31.99   12.62  90
  -1  -5   7  136.07    9.99  90
  -1   5  -3   63.18    8.21  90
   0  -7  13  158.88   14.30  90
   0  -5   7    3.30    8.45  90
   0  -4   5   -1.68    8.08  90
   0   3  -2  244.44   11.96  90
   0   7  -3   86.76    8.98  90
   1  -6  10  314.00   12.11  90
   3  -4   8  178.01   11.30  90
   4  -3   9   64.46   11.65  90
   4  -2   7    0.50    9.53  90
  -5  -3   8    4.91   25.33  90
  -6   0   5   -1.43   21.77  90
  -4  -1   3    1.90   14.46  90
   4   3   3    0.93   15.49  90
  -5   1   2  112.80   15.59  91
  -5   2   1   36.95   14.22  91
  -5   5  -1  279.13   15.70  91
  -5   8  -2   10.22   18.04  91
  -5   9  -2   27.61   19.87  91
  -4   5  -2  114.93   12.55  91
  -3  -5   9  101.17   16.61  91
  -3   2  -1   18.45   11.20  91
  -3   6  -3   -4.47   11.89  91
  -2  -3   4   25.81   12.37  91
  -2   5  -3   12.97   12.23  91
  -1  10  -3    2.10   16.62  91
   0   6  -3    2.56   11.80  91
   0   8  -3  297.41   15.89  91
   2  -6  12  289.69   17.74  91
   3  -5  11  497.40   18.35  91
   4  -1   6    7.01   13.68  91
   4   1   4  137.91   15.29  91
  -5   7  -2  108.21   11.40  91
  -4   3  -1   13.33    8.55  91
  -4   8  -3   62.98   11.41  91
  -4   9  -3   42.14   12.95  91
  -4  10  -3   15.38   13.12  91
  -2  -6  11    5.48   10.95  91
  -2  -5   8  247.57   12.69  91
  -2  11  -3   -6.01   14.79  91
  -1  -6  10   20.64    9.47  91
   0  -6  10   10.72    9.55  91
   0  -1   1  245.10   16.83  91
   0   9  -3  161.55   12.41  91
   1  -3   4  194.29   11.53  91
   1   4  -2    2.89    8.11  91
   1   9  -2    1.78   10.83  91
   2  -6  13   32.61   13.31  91
   2  -5   9  278.96   12.31  91
   2   8  -1    2.18   10.59  91
   3  -5  12   50.90   13.59  91
   3  -2   5  310.47   11.44  91
   4   0   5   26.67   10.28  91
   2   4  -1   36.50   15.15  91
  -6   5   0   21.54   16.77  92
  -5   0   3  134.80   16.13  92
  -5   3   0   17.73   14.15  92
  -4   7  -3   20.51   13.33  92
  -1   1  -1    9.49   15.80  92
   0   5  -3  225.08   12.58  92
   1  -6  11  169.37   17.22  92
   1  -5   8  421.55   14.57  92
   2  -3   5  153.79   11.92  92
   3  -4   9   41.67   14.09  92
   3   1   2   77.52   13.26  92
   4  -3  10  125.07   15.99  92
   4  -2   8  136.66   15.55  92
  -6   7  -1   77.41   13.23  92
  -3   5  -3    3.94    8.33  92
  -2   8  -4   77.33   10.21  92
  -2   9  -4   92.58   11.87  92
   1  -4   6   50.08    9.57  92
   2  -4   7  171.27    9.99  92
   3  -5  13    5.98   15.74  92
   3  -3   7  252.34   10.75  92
   3  -1   4   12.68    8.70  92
   4  -3  11  121.60   13.52  92
  -5   4  -1   -5.58   13.90  93
  -5   6  -2   41.84   15.75  93
  -4   4  -2  324.96   14.13  93
  -3  -4   7  106.79   15.23  93
  -3  -3   5  103.30   14.25  93
  -3   3  -2  186.36   14.44  93
  -3   9  -4   15.45   15.39  93
  -2  -6  12    7.50   18.19  93
  -2  -4   6  134.87   13.58  93
  -2   4  -3   47.84   11.56  93
  -2   7  -4   22.79   11.72  93
  -2  10  -4   -0.41   16.85  93
  -1  -6  11   61.28   16.13  93
  -1   4  -3  347.34   15.36  93
  -1   8  -4   14.07   13.99  93
   0  -6  11  130.07   16.95  93
   0  10  -3   24.80   18.01  93
   1  -6  12   76.08   16.31  93
   1  10  -2   19.10   20.01  93
   2  -5  10   82.08   14.33  93
   3   0   3  198.37   14.50  93
  -6   6  -1   -2.43   13.21  93
  -5   9  -3   20.56   15.09  93
  -4   6  -3  101.79   10.50  93
  -3   8  -4  255.75   11.35  93
  -3  10  -4   14.94   12.65  93
  -1  -5   8   18.37    8.58  93
  -1   7  -4   27.01    8.58  93
  -1   9  -4  154.35   12.14  93
   0  -5   8  194.29   10.31  93
   1  -6  13  100.88   13.74  93
   2   9  -1  194.51   15.03  93
   3  -4  10   -4.27   11.61  93
   4  -2   9   89.26   11.68  93
   4  -1   7  144.20   11.23  93
   4   4   3   72.06   23.16  93
  -6   2   2   89.12   16.28  94
  -6   3   1   44.96   15.89  94
  -5   8  -3   -4.26   18.16  94
  -3  -5  10    4.20   15.13  94
  -3   7  -4   21.35   14.28  94
  -2  -6  13   -6.92   18.23  94
  -2   6  -4  441.40   14.56  94
  -1  -6  12  207.51   16.90  94
  -1  10  -4   29.35   16.78  94
   0  -6  12  117.12   16.62  94
   0  -3   4  182.05   14.98  94
   1  -6  14   10.05   20.47  94
   1  -5   9  113.68   14.13  94
   2  -5  11  106.48   17.04  94
   2  -2   4   39.14   13.11  94
   3  -4  11   36.68   15.80  94
   4   2   4  174.52   15.19  94
  -6   4   0    1.47   10.82  94
  -5   5  -2   29.14    9.81  94
  -4   8  -4   27.05   11.25  94
  -4   9  -4   -5.05   12.90  94
  -4  10  -4  109.67   15.30  94
  -2  -5   9  239.07   12.29  94
  -2   1  -1   32.86    9.41  94
  -1   2  -2  296.90   12.95  94
  -1   6  -4   21.89    8.40  94
   0  -4   6   81.35   10.05  94
   1  -2   3   61.87    9.55  94
   1   7  -3   21.19   10.51  94
   2  -5  12    3.64   11.47  94
   2  -4   8  110.02    9.58  94
   3  -4  12   31.62   13.67  94
   3  -3   8  194.97   11.98  94
   3  -2   6  345.22   11.59  94
   4  -2  10   -4.48   10.98  94
   4   0   6  108.54   10.80  94
  -6   1   3   43.44   15.84  95
  -5   7  -3   21.93   15.22  95
  -4  -4   9   -0.84   15.07  95
  -4   5  -3    9.45   14.35  95
  -3   4  -3  264.18   13.81  95
  -3   6  -4  607.26   15.02  95
  -2   0   0  797.46   25.64  95
  -1  -6  13   32.44   18.71  95
  -1  -4   6 2071.29   25.42  95
  -1  -3   4   -0.48   13.34  95
   0  -6  13   40.11   18.74  95
   0   4  -3    5.87   13.13  95
   0   8  -4   33.87   14.21  95
   1   6  -3   31.07   12.11  95
   1   8  -3   36.04   13.41  95
   2  -3   6  166.66   13.68  95
   4  -2  11   27.17   18.35  95
   4  -1   8  125.36   16.60  95
   4   1   5    5.37   13.40  95
  -6   5  -1    5.12   12.81  95
  -6   7  -2   17.25   14.83  95
  -4   7  -4   11.68    9.34  95
  -2   2  -2 5171.44   37.90  95
  -2   5  -4  359.82   11.08  95
  -1  -6  14   44.11   15.44  95
  -1  -5   9    0.92   10.27  95
   0  -6  14  144.96   14.51  95
   0  -5   9  479.69   12.22  95
   0   1  -1  209.46   14.72  95
   0   7  -4  267.29   10.78  95
   0   9  -4    8.47   11.01  95
   1  -5  10    2.55   10.12  95
   1  -4   7  176.64   10.26  95
   1   9  -3  400.89   14.74  95
   2  -5  13    6.79   13.17  95
   2  -5  14   42.58   15.70  95
   2  -4   9   32.64   10.65  95
   3  -4  13   69.01   13.83  95
   3  -3   9  202.20   11.71  95
   4   5   3  220.87   35.32  94
  -4   2  -1  260.00   14.42  96
  -3  -5  11  428.28   20.35  96
  -2   9  -5   28.12   15.54  96
  -2  10  -5   22.48   18.34  96
  -1   5  -4  749.16   17.13  96
   0  10  -4   24.80   18.25  96
   1  -3   5  493.54   16.65  96
   2  -1   3  367.37   17.10  96
   2   7  -2    9.37   13.04  96
   3  -1   5  149.37   13.21  96
   4  -1   9   22.02   15.30  96
  -5   3  -1   17.77   10.05  96
  -5   6  -3    1.36   10.84  96
  -5   9  -4    0.05   14.93  96
  -3   8  -5   89.17    9.86  96
  -3   9  -5  290.45   12.86  96
  -3  10  -5    1.55   12.77  96
  -2  -5  10   29.46    9.78  96
  -2   8  -5   42.14    9.83  96
   0   6  -4    3.71    8.50  96
   1  -5  11   52.20   10.41  96
   1  10  -3   -3.69   12.89  96
   3  -3  10   39.28   10.22  96
   3  -2   7  315.03   11.36  96
   4   0   7   18.48    9.24  96
  -6   6  -2   11.72   18.12  97
  -5   2   0  127.65   15.67  97
  -5   8  -4  245.18   19.32  97
  -4   1   0   39.64   12.78  97
  -4   3  -2  147.05   13.36  97
  -4   6  -4  453.33   16.60  97
  -3  -5  12   75.31   18.81  97
  -3  -4   8  103.86   14.81  97
  -3   5  -4   -1.05   11.62  97
  -2  -4   7    2.41   11.83  97
  -2   3  -3  178.69   14.19  97
  -2   7  -5  113.27   14.57  97
  -1   3  -3   93.08   13.18  97
  -1   8  -5   -5.50   13.87  97
  -1   9  -5  206.12   17.22  97
  -1  10  -5    3.70   18.38  97
   0  -5  10   20.81   14.42  97
   1  -5  12   48.52   16.60  97
   1   3  -2  194.16   16.35  97
   1   5  -3 1330.52   22.51  97
   2  -4  10  186.58   15.62  97
   2  -3   7   43.98   12.57  97
   2   6  -2  130.72   15.73  97
   2   8  -2  179.33   16.95  97
   4  -1  10   32.83   18.34  97
   4   3   4   63.00   16.04  97
  -5   4  -2   35.28   10.08  97
  -4   9  -5  131.43   13.68  97
  -3   7  -5  140.36   10.65  97
  -1  -5  10   10.52    9.74  97
  -1   7  -5  378.40   11.12  97
   0  -4   7  114.25    9.94  97
   1  -5  13   83.25   11.97  97
   1  -4   8   76.35    9.33  97
   1  -1   2    1.10   10.57  97
   2  -4  11   59.42    9.90  97
   2  -2   5   47.96    8.84  97
   3  -3  11   56.42   11.43  97
   3  -3  12   46.68   13.53  97
   4  -1  11  126.46   13.68  97
   4   1   6   13.09    9.56  97
   3   3   1    4.13   16.23  97
   3   6   0    1.68   21.80  97
  -5  -3   9  130.33   24.88  97
   3   7   0  197.91   22.60  97
  -5   1   1  264.97   17.34  98
  -5   7  -4   -4.05   15.24  98
  -4  -4  10   46.96   18.67  98
  -4   4  -3   28.67   12.08  98
  -4   8  -5  229.49   17.09  98
  -3   2  -2  178.04   12.60  98
  -2  -5  11   90.87   16.35  98
  -1  -4   7  702.65   17.31  98
   0  -5  11  167.74   15.03  98
   1  -5  14   14.70   19.26  98
   2   9  -2    4.56   18.32  98
   3  -3  13   25.93   18.98  98
   3  -2   8  908.53   19.66  98
   3   0   4  764.93   18.54  98
   4   0   8  232.74   17.03  98
   4   2   5   37.47   12.91  98
  -6   3   0   -0.45   10.93  98
  -6   4  -1   59.28   11.38  98
  -6   7  -3    6.20   15.19  98
  -5   5  -3   12.86    9.64  98
  -3   1  -1  441.65   14.54  98
  -3   3  -3  312.64   11.72  98
  -2   4  -4 1992.27   20.33  98
  -2   6  -5    4.38    8.23  98
  -1  -5  11    9.09    9.66  98
   0  -5  12   65.48   11.84  98
   0   5  -4  221.91   10.99  98
   2  -4  12  222.40   13.07  98
   2  -4  13   75.94   13.55  98
   2  -4  14  150.94   14.26  98
   2   0   2 1501.14   25.92  98
   3  -1   6  497.06   13.12  98
   3   8   0   14.69   24.63  98
  -6   2   1  502.35   20.54  99
  -6   5  -2   75.92   18.92  99
  -4  -3   7   85.53   15.00  99
  -4   5  -4   32.41   14.44  99
  -4   7  -5   62.77   16.03  99
  -3   6  -5  148.81   13.67  99
  -3  10  -6   32.45   18.29  99
  -2  -5  12    8.19   15.60  99
  -2  10  -6   62.42   18.65  99
  -1   4  -4  229.80   13.76  99
  -1   6  -5   -0.16   11.75  99
   0  -5  13   -3.88   16.13  99
   0  -3   5  336.81   16.19  99
   0  -2   3  405.73   17.31  99
   0   8  -5   34.46   13.95  99
   0   9  -5  220.68   16.85  99
   1  -4   9  121.35   12.97  99
   1  -3   6 2713.96   25.78  99
   1   8  -4  266.02   15.47  99
   2  -3   8  479.56   15.08  99
   3  -2   9  186.14   14.94  99
   3   1   3  113.64   13.45  99
   4   0   9   67.67   15.41  99
   4   1   7   -6.67   15.41  99
  -5   6  -4    2.33   11.35  99
  -3   9  -6   21.73   10.72  99
  -2  -5  13   92.50   13.68  99
  -2  -3   5   17.89    9.12  99
  -2   8  -6  183.83   10.88  99
  -2   9  -6   27.32   11.08  99
  -1  -5  12   20.73   11.37  99
   0  -5  14   25.47   13.41  99
   0  -5  15  120.47   16.37  99
   0  -4   8    6.63    8.68  99
   0   3  -3 2096.81   25.43  99
   0  10  -5    5.21   12.96  99
   1  -2   4  131.32   10.67  99
   1   9  -4   73.56   11.34  99
   4   0  10   48.72   13.08  99
  -4   0   1   43.91   15.48  99
   2   5  -2  308.76   18.39  99
  -6   6  -3   38.16   18.46 100
  -5   8  -5   -9.29   18.35 100
  -4  -4  11    6.51   18.19 100
  -4   9  -6   30.74   18.05 100
  -3  -4   9  137.82   15.02 100
  -3   4  -4  190.35   13.04 100
  -3   8  -6  122.41   16.55 100
  -2  -5  14   87.38   22.04 100
  -2  -4   8  427.79   15.61 100
  -1  -5  13   49.78   16.39 100
   0   7  -5  117.84   12.53 100
   1  -4  10   80.80   15.37 100
   1   7  -4  423.38   17.37 100
   1  10  -4   -2.56   18.10 100
   2  -3   9  140.45   13.10 100
   3  -2  10  113.03   14.09 100
   3   2   2  575.02   20.64 100
   4   2   6   87.89   15.92 100
   4   4   4   27.90   15.36 100
  -4   6  -5   -1.05    9.74 100
  -2   5  -5   -2.97    8.21 100
  -2   7  -6   10.29    9.97 100
  -1  -5  14   29.57   13.49 100
  -1  -4   8  268.23   11.16 100
  -1  -3   5 1967.41   25.17 100
  -1   8  -6   38.50   10.06 100
  -1   9  -6   44.76   11.60 100
  -1  10  -6   24.59   12.97 100
   1  -4  11  275.25   12.14 100
   2  -2   6  570.29   13.79 100
   2  -1   4  322.80   13.07 100
   3  -2  11    0.67   11.22 100
   3  -2  12   22.56   13.36 100
   3  -2  13   12.26   13.29 100
   3  -1   7   82.76    9.31 100
   4   1   8    3.07   10.57 100
  -6   0   4   12.36   22.50 100
  -5  -3  10   22.83   22.29 101
  -4   8  -6   46.78   15.45 101
  -3  -3   6    0.92   11.78 101
  -3   5  -5  143.14   12.61 101
  -3   7  -6   29.01   13.62 101
  -2  -2   3  145.22   16.47 101
  -1   5  -5  377.96   14.37 101
   0  -4   9  542.54   15.53 101
   1  -4  12  147.13   15.99 101
   1  -3   7   24.57   13.17 101
   1   4  -3   42.96   11.80 101
   1   6  -4   52.29   12.31 101
   2  -3  10   11.28   14.66 101
   2   1   1 1641.16   36.06 101
   3   0   5  482.71   16.00 101
   4   1   9   57.98   18.22 101
   4   3   5  145.67   16.96 101
  -5   3  -2  552.00   15.16 101
  -5   4  -3   -0.33    9.78 101
  -5   7  -5   21.06   12.74 101
  -1   7  -6  434.51   13.13 101
   0   4  -4   50.92    9.25 101
   0   6  -5   35.86    8.67 101
   1  -4  13    7.85   11.46 101
   1  -4  14  170.12   14.73 101
   1  -4  15   -6.44   15.49 101
   2  -3  11  443.32   13.44 101
   2  -3  12    7.70   11.46 101
   2  -3  13    5.60   11.00 101
   2  -3  14    2.44   13.21 101
   4   1  10   91.82   15.48 101
   4   5   4   29.03   22.87 101
  -6   1   2    0.72   15.46 102
  -6   4  -2   10.13   15.45 102
  -5   0   2    7.37   14.30 102
  -5   2  -1   54.93   15.05 102
  -5   5  -4  171.87   17.13 102
  -4   2  -2   38.20   12.49 102
  -4   3  -3   58.46   12.70 102
  -4   4  -4   -2.46   11.58 102
  -3  -4  10   51.91   16.00 102
  -3   0   0  219.17   15.78 102
  -3  10  -7   19.37   19.78 102
  -2  -4   9   16.30   14.35 102
  -2  10  -7    7.37   18.16 102
  -1  -2   3   16.27   12.58 102
   0  -4  10  225.91   16.38 102
   0  -3   6  604.59   16.79 102
   2  -2   7  119.64   13.11 102
   2   8  -3    2.30   15.30 102
   3  -1   8    9.53   14.53 102
   4   2   7  314.61   17.56 102
  -6   3  -1  115.87   12.18 102
  -6   5  -3   56.62   13.26 102
  -4   7  -6   13.10   11.29 102
  -3   6  -6   11.66    9.86 102
  -3   9  -7   -1.32   12.86 102
  -2   6  -6  134.81    9.01 102
  -2   9  -7  229.78   12.33 102
  -1  -4   9    0.78    8.50 102
   0   9  -6   93.99   11.99 102
   1  -3   8   49.76    9.21 102
   3  -1   9    4.65    9.76 102
   4   2   8  152.61   13.67 102
  -6   6  -4    1.37   18.49 103
  -5   6  -5  168.06   17.02 103
  -5   8  -6   23.98   17.96 103
  -4  -3   8   37.37   15.94 103
  -4   5  -5   -1.13   14.34 103
  -4   9  -7   43.40   18.12 103
  -3  -4  11   38.22   15.74 103
  -3   8  -7    6.24   15.54 103
  -2   2  -3  986.21   20.67 103
  -2   3  -4   77.04   12.24 103
  -2   8  -7   10.24   13.19 103
   0  -4  11    2.63   14.60 103
   0  -4  15   18.61   18.82 103
   0   8  -6  212.36   14.77 103
   0  10  -6   12.14   18.21 103
   2   7  -3  443.28   18.02 103
   2   9  -3    9.66   18.73 103
   3  -1  10   35.65   15.78 103
   3   0   6 2671.79   26.84 103
   3   1   4   -0.81   12.15 103
   4   2   9  319.61   19.97 103
   4   3   6   10.11   14.61 103
   4   4   5  148.52   19.25 103
  -2  -4  10  231.13   12.40 103
  -2   4  -5   83.40    9.40 103
  -1  -4  10  176.84   12.27 103
  -1   2  -3   64.44    9.39 103
  -1   3  -4  189.41   11.45 103
  -1   6  -6  288.68   10.77 103
  -1   9  -7  119.69   12.07 103
  -1  10  -7   58.40   13.29 103
   0  -4  12  212.21   11.55 103
   0  -4  13   36.74   11.43 103
   0  -4  14   16.05   13.57 103
   1  -2   5 1008.82   17.95 103
   1   0   1  382.16   19.85 103
   1   8  -5   13.25    9.53 103
   1   9  -5   -1.99   10.85 103
   2  -2   8   26.01    9.04 103
   3  -1  11  231.50   12.76 103
   3  -1  12   74.19   13.48 103
   2   3  -1   53.32   17.84 103
  -6   2   0   33.73   15.93 104
  -4   1  -1  157.69   14.23 104
  -4   6  -6   14.40   13.20 104
  -4   8  -7   -2.82   18.17 104
  -3  -4  12   -2.85   18.46 104
  -3  -4  13    2.22   18.30 104
  -3   3  -4  349.40   14.53 104
  -2  -3   6   35.53   12.41 104
  -1  -4  11  192.35   15.51 104
  -1  -3   6   63.54   11.63 104
   0   5  -5 1815.12   22.44 104
   0   7  -6  245.75   15.92 104
   1  -3   9  417.43   14.94 104
   1   5  -4   40.09   12.33 104
   1  10  -5  184.23   21.29 104
   2  -1   5   25.55   11.89 104
   2   6  -3  487.01   19.28 104
   4   3   7   12.64   17.37 104
  -5   1   0  379.04   15.27 104
  -5   7  -6   -9.30   13.03 104
  -3   2  -3   92.05   10.15 104
  -3   4  -5   10.61    8.44 104
  -3   7  -7  272.93   11.38 104
  -2  -4  11   99.06   10.82 104
  -2   1  -2  356.40   14.09 104
  -2   7  -7  382.94   12.26 104
  -1  -4  12    1.17    9.59 104
  -1  -4  13   21.45   11.23 104
  -1  -4  14   58.10   13.49 104
  -1  -4  15   -4.66   13.25 104
  -1   4  -5   -1.69    7.76 104
  -1   8  -7   34.43    9.60 104
   0  -3   7  752.49   15.11 104
   1  -3  10   16.14    8.76 104
   1  -3  14    7.49   13.18 104
   1  -3  15   17.17   13.22 104
   1   7  -5  537.47   14.60 104
   2  -2   9   18.23    8.82 104
   2  -2  14   82.99   13.52 104
   2   0   3  130.45   11.69 104
   3   0   7   -1.66   10.30 104
   4   3   8   32.53   12.85 104
  -3  -3   7    8.43   11.68 105
  -2  -4  12  142.31   16.96 105
  -2  -4  13   12.55   15.66 105
  -2  -4  14   -2.49   18.63 105
  -2   5  -6  467.94   14.45 105
  -2  10  -8  100.77   19.10 105
   0  -2   4  254.29   15.17 105
   1  -3  11   40.27   14.60 105
   1  -3  12   33.79   14.00 105
   1  -3  13    2.55   16.04 105
   1  -1   3  213.33   15.34 105
   2  -2  10    9.30   14.57 105
   2  -2  11    4.91   13.71 105
   2  -2  12   72.40   16.32 105
   2  -2  13   29.43   17.71 105
   4   4   6   59.73   18.33 105
   4   5   5   12.19   21.00 105
  -5   4  -4   90.08   10.80 105
  -5   5  -5   25.02   11.72 105
  -5   8  -7   38.81   15.14 105
  -4   7  -7  135.24   12.19 105
  -3   5  -6   74.57    8.80 105
  -3   9  -8  287.19   14.17 105
  -2   9  -8   23.10   10.99 105
  -1   1  -2    3.19   10.62 105
  -1   7  -7  313.00   12.16 105
   1  -2   6  152.55   10.47 105
   3   0   8  191.98   11.56 105
   3   0  12   21.40   13.18 105
  -5  -2   7   62.04   20.15 105
  -4  -2   5  356.45   24.67 105
  -6   4  -3   15.19   18.92 106
  -6   5  -4    7.46   18.60 106
  -5   3  -3   67.42   14.84 106
  -4  -3   9   11.43   15.86 106
  -1   5  -6   55.58   11.93 106
   0  -3   8   -6.23   12.69 106
   0   6  -6    7.37   11.80 106
   0   9  -7   -8.89   15.51 106
   0  10  -7   89.00   18.97 106
   2  -1   6  384.16   15.42 106
   2   4  -2   52.30   13.24 106
   3   0   9    7.20   13.88 106
   3   0  10   34.87   16.08 106
   3   0  11   11.31   15.50 106
   3   1   5   -1.59   11.99 106
   3   2   3   24.73   12.20 106
   4   4   7   45.91   21.14 106
  -6   6  -5   97.52   15.85 106
  -5   6  -6  214.69   12.57 106
  -4   3  -4   67.50    9.26 106
  -4   4  -5  187.98   11.87 106
  -4   5  -6  139.29   11.07 106
  -3   1  -2   30.86    8.32 106
  -3   6  -7    8.72    9.79 106
  -3   8  -8   13.72   10.85 106
  -2   6  -7  153.93   11.13 106
  -2   8  -8   -0.60   11.16 106
  -1  -3   7   42.21    9.57 106
  -1  10  -8    3.20   13.10 106
   0  -3  15   12.68   13.41 106
   1   6  -5  193.65   10.63 106
   2   2   0 2398.96   81.29 105
   3   8  -1    0.89   23.01 106
  -6   3  -2   37.58   16.21 107
  -5   2  -2   25.22   14.08 107
  -4  -3  10  176.05   17.44 107
  -4   8  -8    3.94   17.82 107
  -3  -2   4  223.64   17.20 107
  -2  -3   7  539.94   17.01 107
  -1   9  -8   13.06   15.58 107
   0  -3   9   52.54   12.89 107
   0  -3  14   -5.66   15.91 107
   0   8  -7  105.50   13.86 107
   1   9  -6   75.59   15.60 107
   1  10  -6  103.98   22.04 107
   2  -1  14    4.42   20.34 107
   2   8  -4   77.87   15.80 107
   2   9  -4    4.77   18.29 107
  -5   7  -7   -5.75   12.99 107
  -4   2  -3   62.16    9.42 107
  -4   6  -7   40.50   11.39 107
  -3  -3   8   63.37   11.19 107
  -3   7  -8   -1.31   11.14 107
  -1   6  -7   -0.05    8.35 107
  -1   8  -8  100.03   12.18 107
   0  -3  10   54.64    9.10 107
   0  -3  11   14.73   10.55 107
   0  -3  12    9.39    9.84 107
   0  -3  13   91.69   12.15 107
   0  -1   2   52.37    9.61 107
   0   3  -4  173.51   11.49 107
   0   4  -5    3.19    7.87 107
   1  -2   7   25.00    9.74 107
   1  -2  15   -8.55   15.58 107
   2  -1   7  297.84   11.35 107
   2  -1  13    3.62   13.28 107
   3   1   6    0.38    8.24 107
   3   7  -1  168.81   22.71 107
  -6   1   1   20.61   15.90 108
  -4  -3  11  145.10   20.13 108
  -4  -3  12   22.09   18.89 108
  -2   3  -5  137.66   11.72 108
  -2   7  -8  649.91   16.65 108
  -1  -3   8  125.83   13.61 108
   0   2  -3  390.51   17.02 108
   0   7  -7  140.92   15.13 108
   1  -2  14   23.15   18.89 108
   1   3  -3  154.50   15.76 108
   1   8  -6   18.76   15.92 108
   2  -1   8   61.11   12.59 108
   2  -1  12    6.10   15.75 108
   2   0   4  439.93   16.75 108
   2   5  -3  441.58   17.94 108
   2   7  -4    6.80   13.08 108
   3   1   7   15.57   14.58 108
   3   1  12   18.91   21.28 108
   3   3   2  270.29   16.72 108
  -4   7  -8  130.84   11.81 108
  -3   3  -5    2.78    8.45 108
  -3   4  -6  255.66   10.64 108
  -3   9  -9  130.25   13.65 108
  -2  -3   8   12.61    8.75 108
  -2   4  -6  278.96   10.76 108
  -2   9  -9  191.06   14.65 108
  -1  -3  14   64.21   13.98 108
  -1  -3  15   10.16   13.26 108
  -1  -2   4  979.32   20.78 108
   0  -2   5   -0.53    9.75 108
   1  -2   8  141.65   10.15 108
   1  -2   9   17.39    8.65 108
   1  -2  12  155.62   11.24 108
   1  -2  13   86.16   11.83 108
   1   4  -4   34.99    8.21 108
   2  -1   9 1074.55   15.94 108
   2  -1  10  276.82   12.37 108
   2  -1  11   31.51   10.01 108
   3   1   8  143.74   11.03 108
   3   1  10  142.39   12.03 108
   3   1  11  108.52   13.51 108
  -6   2  -1   -6.23   15.63 109
  -6   5  -5   23.07   18.74 109
  -5  -2   8    0.19   15.51 109
  -5   4  -5   94.55   17.07 109
  -5   5  -6   20.07   15.73 109
  -3  -3   9  247.44   16.21 109
  -3   5  -7   63.21   14.71 109
  -2   2  -4   32.03   13.04 109
  -2   5  -7   84.06   12.21 109
  -1  -3   9   90.51   13.02 109
  -1   7  -8   50.30   14.10 109
   0   5  -6  352.59   14.26 109
   0  10  -8  292.47   21.23 109
   1  -2  10  220.15   13.70 109
   1  -2  11   93.07   15.14 109
   1  -1   4 1256.33   22.23 109
   1   7  -6   11.57   14.10 109
   3   1   9   42.70   15.71 109
   3   2   4  237.26   14.56 109
  -6   4  -4   51.16   13.68 109
  -5   6  -7   53.07   13.58 109
  -3  -3  10   13.17    9.83 109
  -3  -3  13  138.04   14.42 109
  -3  -3  14   51.12   15.85 109
  -3   8  -9   12.35   12.82 109
  -2  -3   9   69.46    9.33 109
  -2  -3  14   20.98   13.29 109
  -2   8  -9   -0.73   11.05 109
  -1  -3  10  229.02   10.80 109
  -1  -3  11  496.39   14.18 109
  -1  -3  12   -6.97    9.81 109
  -1  -3  13   -3.84   11.82 109
  -1   3  -5  420.45   12.94 109
  -1   4  -6   49.83    9.22 109
  -1  10  -9  134.10   15.89 109
   0   9  -8   -5.09   10.88 109
   1   5  -5   40.42    8.94 109
  -4   0   0    8.10   14.81 109
  -5   3  -4   40.41   14.08 110
  -4   1  -2   58.63   12.73 110
  -4   4  -6  395.88   16.78 110
  -4   8  -9  -16.54   18.13 110
  -3  -3  11    8.21   16.08 110
  -3  -3  12  109.52   16.78 110
  -3   2  -4  727.26   17.58 110
  -3   6  -8   -1.89   13.26 110
  -2  -3  10   12.66   14.80 110
  -2  -3  13  128.54   16.83 110
  -2  -2   4   78.23   13.62 110
  -2   0  -1    6.95   12.95 110
  -2   6  -8  -10.74   13.88 110
  -1   5  -7  409.24   14.10 110
  -1   9  -9   15.09   18.47 110
   0  -2  15   46.23   18.34 110
   1   2  -2   89.24   14.34 110
   2   1   2  867.88   24.06 110
  -5   7  -8   52.42   15.66 110
  -4   3  -5    3.82   10.66 110
  -4   5  -7  120.29   10.70 110
  -2  -3  11   -9.94   10.12 110
  -2  -3  12   32.35   11.86 110
  -1   2  -4  131.03   10.55 110
   0  -2   6  221.67   11.75 110
   0  -2  14   91.49   11.80 110
   0   6  -7  495.98   12.35 110
   0   8  -8   42.70   11.56 110
   1  -1  14   -5.96   13.28 110
   2   0   5  122.85    9.44 110
   2   0  13  129.30   14.63 110
   3   2   5  118.93   11.70 110
   3   2  11   12.90   13.07 110
  -6   3  -3   15.53   18.83 111
  -5  -2   9    2.02   18.65 111
  -5   1  -1  777.92   21.97 111
  -4   6  -8   -3.57   15.42 111
  -3   7  -9   18.73   15.26 111
  -2   7  -9   18.21   13.12 111
  -1   6  -8  123.98   15.07 111
  -1   8  -9    5.38   15.91 111
   1   6  -6  402.84   14.94 111
   1   9  -7   57.42   18.09 111
   2   0  12   24.60   15.93 111
   2   6  -4  169.79   16.32 111
   2   9  -5   37.99   18.59 111
   3   2   6    7.80   14.01 111
   3   2  10  -13.69   18.39 111
  -5  -2  10   14.11   13.45 111
  -4   7  -9  101.76   13.35 111
  -2   9 -10   12.67   12.77 111
  -1  -2  15   -2.89   12.99 111
   0  -2   7    6.93    8.11 111
   0  -2  12   12.63   10.05 111
   0  -2  13   36.68   11.60 111
   1  -1   5 1669.92   22.28 111
   1  -1  13   43.13   11.67 111
   1   8  -7  133.20   12.23 111
   2   0   6   34.29    9.25 111
   2   0  11    6.89   11.49 111
   3   2   7   38.17    9.96 111
   3   2   8  148.00   12.31 111
   3   2   9   16.37   11.08 111
  -6   0   3  125.68   25.63 111
   3   4   1    1.07   20.01 111
  -6  -1   7    7.92   25.25 111
  -5   0   1   75.55   18.23 111
  -4  -2   6  359.13   21.97 111
  -5   2  -3    3.19   13.97 112
  -4   2  -4 1643.59   22.64 112
  -3   0  -1  448.14   17.96 112
  -2   1  -3  401.48   17.48 112
  -1  -2   5    1.85   14.01 112
   0   7  -8   29.82   13.75 112
   2   0   7  296.44   14.54 112
   2   0   9  424.64   17.42 112
   2   0  10   14.70   14.11 112
   2   8  -5  455.24   19.58 112
   3   3   3  435.33   17.44 112
  -6   5  -6   -4.79   15.77 112
  -5   4  -6   26.02   11.81 112
  -5   5  -7  103.13   11.83 112
  -5   6  -8   67.18   13.71 112
  -3   1  -3  168.43   11.22 112
  -3   4  -7    1.30    8.34 112
  -3   5  -8  168.43   11.17 112
  -3   8 -10   48.57   13.27 112
  -2   3  -6  137.60    9.81 112
  -2   4  -7  161.09    9.81 112
  -2   5  -8   -0.60    8.09 112
  -2   8 -10  146.45   12.05 112
  -1  -2  14   23.80   11.08 112
  -1   7  -9  110.62   10.40 112
   0  -2   8 1967.31   20.90 112
   0  -2   9    1.81    8.77 112
   0  -2  10   87.47    9.50 112
   0  -2  11  190.60   12.07 112
   0  -1  15    1.08   13.27 112
   0   1  -2   54.18    9.65 112
   0   4  -6   73.36    8.14 112
   0   9  -9   -1.16   13.02 112
   1  -1   6  271.11   11.82 112
   1  -1  11  112.07   11.05 112
   1  -1  12    1.35    9.64 112
   2   0   8   20.55    8.87 112
   2   1  13   22.19   13.40 112
  -6   2  -2   20.67   15.81 113
  -6   4  -5  106.79   19.64 113
  -3  -2   5  451.53   18.94 113
  -3   3  -6    6.98   12.04 113
  -3   6  -9   -4.90   15.73 113
  -2  -2  15    8.77   19.77 113
  -1   9 -10   10.58   18.28 113
   0   3  -5  286.33   15.71 113
   0   5  -7   -4.57   11.75 113
   1  -1  10  284.68   15.40 113
   1   0   2 3820.02   44.03 113
   1   7  -7    3.22   13.58 113
   2   7  -5   28.50   13.17 113
   3   3  10   54.30   18.42 113
  -5   3  -5    9.65   12.08 113
  -4   4  -7   21.29   10.11 113
  -4   5  -8  201.79   13.05 113
  -2  -2  14    4.58   13.34 113
  -2   6  -9   60.50   10.37 113
  -1  -2  13    9.90   11.73 113
  -1   0  -1  343.11   19.55 113
  -1   4  -7  168.89    9.80 113
   0  -1  14   10.57   11.48 113
   0   8  -9  307.46   13.03 113
   1  -1   7   35.06    9.68 113
   1  -1   8  477.82   12.82 113
   1  -1   9   -0.63    8.81 113
   1   0  14   12.54   13.18 113
   2   1   3  222.71   12.46 113
   2   1  12   54.83   13.53 113
   3   3   9   81.78   13.38 113
  -6   1   0   21.22   15.59 114
  -4  -2   7   25.07   14.39 114
  -4  -2  13    3.27   21.41 114
  -4   6  -9   74.04   16.34 114
  -3  -2  14   -3.06   18.25 114
  -3   7 -10  216.72   16.71 114
  -2  -2   5  254.19   14.96 114
  -2   2  -5   58.74   11.77 114
  -1  -2   6   -3.87   12.57 114
  -1  -2  12  426.58   17.14 114
  -1   1  -3  204.21   14.99 114
  -1   3  -6 2380.19   24.19 114
  -1   5  -8  417.76   14.18 114
  -1   8 -10   40.17   15.54 114
   0  -1   3   24.13   16.03 114
   0   6  -8  264.95   15.96 114
   1   4  -5   71.68   13.57 114
   1   9  -8   -4.13   18.33 114
   2   1  11  105.01   16.81 114
   3   3   4    1.95   14.09 114
   3   3   8   69.98   15.69 114
  -6   3  -4   58.69   13.77 114
  -4  -2  12   -6.59   13.07 114
  -4   3  -6    9.03   10.62 114
  -4   7 -10   51.80   13.27 114
  -3   2  -5  302.21   11.53 114
  -2  -2  13    5.84   10.98 114
  -2   7 -10   21.08   10.80 114
  -1  -2  11  171.80   11.82 114
  -1   6  -9  400.59   12.56 114
   0  -1  13   88.87   12.07 114
   1   0  13   77.23   11.99 114
   1   5  -6   64.58    9.32 114
   3   3   5    3.37    9.56 114
   3   3   6   14.78    9.49 114
   3   3   7   28.74   11.10 114
  -4  -2   8   95.40   15.13 115
  -4  -2   9  112.77   17.05 115
  -4  -2  10    0.37   15.74 115
  -4  -2  11    8.06   15.91 115
  -3  -2  13    2.71   18.32 115
  -3   8 -11   14.70   19.77 115
  -1  -2   7   60.21   11.29 115
  -1  -2   8  246.91   14.69 115
  -1  -2   9  374.46   15.04 115
  -1  -2  10    9.94   12.29 115
  -1  -1  15   14.31   18.72 115
   1   6  -7   19.88   14.80 115
   1   8  -8  217.25   16.87 115
   2   1  10   44.33   13.79 115
   2   5  -4  123.22   13.57 115
   2   9  -6    1.75   18.13 115
   3   4   9  106.81   20.24 115
  -5   1  -2    8.50    9.85 115
  -5   5  -8   42.11   13.66 115
  -5   6  -9   26.70   15.95 115
  -4   1  -3  160.15   10.72 115
  -3  -2   6    3.05    8.38 115
  -3  -2  12    3.93   10.99 115
  -3   5  -9   97.40   10.36 115
  -2  -2  12   58.96   10.54 115
  -2   8 -11  130.65   13.21 115
  -1   7 -10   53.38   11.67 115
   0  -1  12   25.01   10.19 115
   0   0  15   88.92   15.72 115
   0   2  -4  221.14   11.61 115
   0   7  -9    4.51    9.51 115
   0   9 -10    2.94   13.17 115
   1   0  12  214.33   12.82 115
   1   1  14   53.67   13.45 115
   1   3  -4   -2.50    9.75 115
   2   1   4  156.74   10.46 115
   2   1   9    1.23   10.22 115
   2   2  12    8.58   13.22 115
   3   8  -2   53.44   27.90 115
   3   4   2   53.71   17.87 115
  -6   4  -6  122.85   21.43 116
  -5   2  -4    4.93   13.62 116
  -5   4  -7  177.48   17.63 116
  -3  -2  11    1.99   16.21 116
  -3   4  -8  194.32   15.54 116
  -3   6 -10  111.37   16.42 116
  -2  -2   6 1004.23   21.61 116
  -2  -2  11    1.67   14.29 116
  -2   4  -8  125.53   12.83 116
  -2   5  -9  285.50   15.83 116
  -1  -1  14    6.55   15.20 116
  -1   2  -5 1179.91   21.43 116
  -1   9 -11   -1.90   19.90 116
   1   0  11  463.60   17.12 116
   2   1   8 1101.63   18.79 116
   2   4  -3    7.33   12.29 116
   2   6  -5    4.94   13.92 116
   2   8  -6   25.72   15.56 116
   3   4   8    7.00   17.58 116
  -4   2  -5  101.95   11.63 116
  -4   5  -9   40.96   11.45 116
  -4   6 -10   -8.55   13.20 116
  -3  -2  10   98.52   11.25 116
  -3   3  -7  250.29   10.76 116
  -3   7 -11   41.11   12.90 116
  -2  -2   7  223.23   11.66 116
  -2  -2  10  180.99   12.33 116
  -2  -1  15    7.10   14.67 116
  -2   3  -7   39.79    8.88 116
  -2   6 -10   12.84    9.35 116
   0  -1   4   66.14   10.22 116
   0  -1  11   27.07   10.92 116
   0   0  14    2.06   13.15 116
   1   7  -8   49.13   10.02 116
   2   1   5  258.80   11.96 116
   2   1   6  119.28    9.96 116
   2   1   7   64.77    9.28 116
   2   2  11   12.33   11.13 116
  -6   2  -3    4.31   18.46 117
  -5   3  -6   10.64   16.14 117
  -4   0  -1    3.99   11.76 117
  -4   4  -8  256.29   18.26 117
  -3  -2   7  179.79   14.42 117
  -3  -2   8  107.81   14.56 117
  -3  -2   9   94.52   15.54 117
  -2  -2   8   12.59   12.63 117
  -2  -2   9   97.44   13.02 117
  -2   7 -11   39.58   15.89 117
  -1  -1  13    3.03   15.93 117
  -1   8 -11  401.34   20.39 117
   0  -1  10    9.17   12.29 117
   0   4  -7  129.06   12.88 117
   0   5  -8  213.31   13.40 117
   0   8 -10   45.90   15.42 117
   1   0   3   34.68   13.43 117
   1   0  10   10.81   15.03 117
   1   1  13    7.44   18.81 117
   1   9  -9   20.07   18.17 117
   2   7  -6   -2.37   13.11 117
   3   4   3   58.31   14.24 117
   3   4   6  276.04   17.34 117
   3   4   7  325.52   17.95 117
  -6   3  -5    6.01   13.03 117
  -3   1  -4   11.11    8.88 117
  -2  -1  14  158.89   14.05 117
  -2   1  -4  334.01   12.94 117
  -1   4  -8   79.11    9.17 117
  -1   5  -9   95.92   10.93 117
  -1   6 -10  302.63   11.76 117
   0  -1   9  380.18   12.03 117
   0   6  -9  207.27   11.50 117
   1   0   9   15.98    8.92 117
   2   2  10   58.34   11.95 117
   3   5   8   49.49   15.25 117
  -6   1  -1   14.85   15.39 118
  -4   3  -7   46.20   14.73 118
  -3  -1  14   33.58   18.01 118
  -1   0  15   -8.21   18.20 118
  -1   3  -7   30.99   12.80 118
   0  -1   5  516.26   17.54 118
   0   0  13   98.37   16.24 118
   0   3  -6  714.52   17.21 118
   1   1  12  128.70   17.28 118
   1   8  -9   65.43   15.92 118
   2   9  -7   15.29   18.32 118
   3   4   4   -0.72   13.08 118
   3   4   5   10.87   12.67 118
  -5   5  -9    5.77   13.80 118
  -3   2  -6  342.56   11.80 118
  -3   5 -10   16.05   11.62 118
  -2  -1  13  212.62   13.06 118
  -2   0  -2 1510.30   26.72 118
  -2   2  -6  576.25   13.73 118
  -2   8 -12   37.98   15.16 118
  -1  -1  12   -1.15    9.91 118
  -1   7 -11   10.39   11.06 118
   0  -1   6   97.71   10.95 118
   0  -1   7   77.91    9.29 118
   0  -1   8  706.57   14.58 118
   0   7 -10   10.76   10.94 118
   0   9 -11   67.94   15.58 118
   1   0   4  403.21   14.16 118
   1   0   8  100.93    9.86 118
   1   5  -7  136.62    9.98 118
   2   2   9   57.29   10.13 118
   2   3  11   -9.26   13.30 118
   3   5   7    5.51   12.44 118
  -5   0   0    6.22   17.08 118
  -5  -1  11   -3.75   20.43 119
  -5   4  -8   54.78   19.70 119
  -4  -1  13   36.29   19.70 119
  -3   0  -2  510.62   18.82 119
  -3   4  -9   22.98   14.30 119
  -3   6 -11   73.21   17.32 119
  -2   5 -10   58.05   14.18 119
  -1  -1   2 2007.11   41.24 119
  -1   0  14    8.37   18.34 119
   0   0  12  221.55   15.39 119
   0   1  14   35.72   18.92 119
   1   0   5  265.44   16.16 119
   1   0   6  554.47   16.24 119
   1   0   7  216.56   14.58 119
   1   2  13  108.51   19.78 119
   1   4  -6 2024.41   25.13 119
   1   6  -8  462.95   17.61 119
   2   2   1  148.00   16.24 119
   2   8  -7  106.35   15.91 119
  -5   2  -5  182.36   13.28 119
  -4   1  -4  512.01   13.79 119
  -4   5 -10  128.36   14.21 119
  -4   6 -11   -1.22   13.08 119
  -3  -1  13    1.75   12.65 119
  -3   7 -12   37.53   14.85 119
  -2   0  15   -3.73   14.73 119
  -2   4  -9   38.43   10.30 119
  -2   6 -11  107.63   11.64 119
  -1  -1  11  -10.16   10.54 119
  -1   1  -4 1102.16   19.38 119
  -1   8 -12    0.44   13.06 119
   0   8 -11   -0.08   12.86 119
   1   1  11  120.30   11.10 119
   2   2   8   16.60   10.58 119
   2   3  10  234.12   13.21 119
   3   5   6   -0.32   12.64 119
   3   7  -2    3.56   24.02 118
  -5  -1  10  126.52   20.04 120
  -5   1  -3  104.81   14.89 120
  -5   3  -7   14.72   16.18 120
  -4  -1  12   33.48   18.26 120
  -4   2  -6  378.35   17.36 120
  -4   4  -9   30.32   16.20 120
  -3   3  -8  232.44   16.19 120
  -2  -1  12   49.56   13.71 120
  -2   3  -8  420.82   14.69 120
  -2   7 -12   12.04   18.09 120
  -1  -1  10   24.39   12.32 120
  -1   2  -6  160.84   13.58 120
   0   0  11   -9.38   14.55 120
   1   2  -3   16.41   12.93 120
   1   7  -9   18.42   15.99 120
   1   9 -10   65.96   21.92 120
   2   5  -5  328.80   15.73 120
   2   6  -6  251.87   16.60 120
   3   5   5    0.79   14.75 120
  -6   2  -4    4.66   13.27 120
  -3  -1  12  151.04   12.62 120
  -1   0  13   18.59   11.30 120
  -1   4  -9   94.54    9.34 120
  -1   5 -10   -0.09   10.08 120
  -1   6 -11  151.45   12.20 120
   0   1  -3   13.72   11.33 120
   0   1  13    8.54   11.28 120
   0   2  -5   -1.81    9.74 120
   0   4  -8   12.51    8.55 120
   0   5  -9  464.76   12.07 120
   0   6 -10    0.43    9.90 120
   1   1  10   22.45   10.48 120
   1   2  12   11.49   11.26 120
   1   3  -5 2008.75   25.22 120
   2   2   7   29.74    8.95 120
   3   6   6    9.47   14.65 120
  -5  -1   5   33.50   17.53 120
   3   5   1  304.52   22.57 120
  -6   3  -6   17.73   20.67 121
  -5  -1   8   81.26   16.86 121
  -5  -1   9   -1.55   17.39 121
  -4  -1  11   -2.75   15.49 121
  -4   3  -8  116.48   14.66 121
  -2  -1  11  315.93   16.52 121
  -2   0  14  119.14   18.65 121
  -1  -1   9  189.26   13.67 121
   1   8 -10   99.26   18.88 121
   2   2   6  366.48   15.05 121
   2   3   9  180.05   17.28 121
   2   7  -7    8.39   15.39 121
   3   5   2   55.00   13.62 121
   3   5   3   65.58   13.66 121
   3   5   4   63.37   15.73 121
  -5   4  -9   37.47   13.98 121
  -3  -1  11   12.60    9.45 121
  -3   0  14    1.92   12.48 121
  -3   1  -5  140.64   10.13 121
  -3   2  -7  295.44   11.30 121
  -3   5 -11  430.17   14.15 121
  -3   6 -12   14.10   12.82 121
  -2   1  -5   23.12    8.32 121
  -1   3  -8   47.72    8.95 121
  -1   7 -12    0.44   12.85 121
   0   0  10   88.19    9.33 121
   0   2  14   83.79   14.32 121
   0   3  -7  691.77   13.70 121
   0   7 -11   71.96   11.44 121
   1   1   9  464.57   12.40 121
   1   2  11   10.20   11.54 121
   2   2   2  203.43   12.60 121
   2   2   5  788.83   16.19 121
   2   4  10   42.08   13.61 121
  -5  -1   6    0.89   19.66 121
  -6   1  -2  215.36   20.78 122
  -5  -1   7  296.93   20.40 122
  -4  -1  10   20.22   15.86 122
  -4   0  -2  760.97   20.67 122
  -4   5 -11   64.02   19.01 122
  -3   4 -10    1.19   14.98 122
  -2  -1  10   -4.43   15.12 122
  -2   2  -7  103.95   13.08 122
  -2   5 -11  119.14   16.64 122
  -2   6 -12  274.79   17.21 122
  -1  -1   8  100.06   13.50 122
  -1   0  12   27.51   13.75 122
  -1   1  14   84.63   18.63 122
   0   1  12  -18.70   16.58 122
   1   5  -8   21.60   12.07 122
   1   6  -9  304.60   16.01 122
   2   2   3  117.22   12.62 122
   2   2   4  116.17   13.64 122
   2   3   8   31.84   13.98 122
   2   4  -4  116.33   14.06 122
   3   6   5  267.62   20.60 122
  -5   2  -6  133.88   12.36 122
  -4   4 -10    5.95   11.33 122
  -2   0  13    5.11   10.83 122
  -2   4 -10  172.29   11.05 122
  -2   7 -13   11.05   15.14 122
  -1  -1   3 8348.12   62.75 122
  -1  -1   7  283.76   11.42 122
  -1   0  -2 3541.89   41.44 122
   0   0   9   38.94    9.14 122
   0   8 -12   68.94   13.69 122
   1   1   8  158.02   10.14 122
   1   3  12   -8.46   13.34 122
   1   4  -7  679.03   14.71 122
   2   8  -8  151.18   14.43 122
   3   8  -3  217.40   34.26 121
  -5   1  -4   -0.47   13.26 123
  -5   3  -8   88.19   19.63 123
  -4   0  13   -3.98   19.10 123
  -4   1  -5  375.39   17.58 123
  -4   2  -7   12.17   14.11 123
  -3  -1  10   33.72   14.15 123
  -3   3  -9  250.47   15.72 123
  -2   3  -9  147.62   12.73 123
   0   2  13   20.80   19.00 123
   1   2  10   70.94   14.73 123
   1   7 -10   20.47   15.85 123
   2   4   9   -7.71   15.81 123
   3   6   4    9.99   17.61 123
  -4  -1   9   71.00   10.44 123
  -3   0  -3  177.56   11.49 123
  -3   0  13   24.62   12.76 123
  -2  -1   9    6.31    8.59 123
  -2   0  -3  128.25   11.72 123
  -2   1  14    6.32   12.39 123
  -1  -1   4  269.71   13.25 123
  -1  -1   5   39.17   10.59 123
  -1  -1   6  610.17   15.48 123
  -1   0  11  124.56   11.17 123
  -1   1  13    2.62   11.15 123
  -1   2  -7   24.46    7.67 123
  -1   4 -10   68.57   10.73 123
  -1   5 -11   63.40   10.12 123
  -1   6 -12   92.93   11.46 123
   0   0   8  192.24   10.83 123
   0   1  11   17.32   10.34 123
   0   4  -9  495.72   12.54 123
   0   5 -10   11.55   10.47 123
   0   6 -11  128.74   12.28 123
   1   1   7   14.32    8.99 123
   1   4  12   58.88   16.20 123
   2   3   7    1.41   10.21 123
  -6   0   2   55.64   30.03 122
   2   3  -2  104.36   19.78 123
  -6   2  -5    6.52   18.61 124
  -5   0  -1   22.08   13.97 124
  -4   3  -9   67.14   16.86 124
  -3  -1   9   10.02   14.54 124
  -2   0  12  122.83   15.65 124
  -1   1  -5 2254.67   27.04 124
  -1   2  14    6.47   18.51 124
  -1   7 -13    4.44   18.31 124
   0   7 -12   21.62   18.54 124
   1   3  11   86.41   16.88 124
   1   8 -11   66.78   18.82 124
   2   5  -6   45.48   12.36 124
   2   5   9   55.34   18.84 124
   2   6  -7  348.60   17.10 124
   2   7  -8   83.66   16.13 124
   3   6   3   38.23   15.28 124
   3   7   4   17.41   20.73 124
  -4  -1   8   26.85   10.30 124
  -3   4 -11   19.92   11.47 124
  -3   5 -12   45.13   13.60 124
  -2  -1   8   48.04    9.33 124
  -2   5 -12   13.98   11.08 124
  -2   6 -13   19.09   13.12 124
  -1   0  10  493.55   12.45 124
  -1   3  -9  370.62   11.32 124
   0   0   7   26.50    8.27 124
   0   2  -6  205.87   11.76 124
   0   2  12   32.84   11.61 124
   0   3  13   10.84   13.43 124
   1   2   9   19.33   10.77 124
   1   3  -6   61.22    8.91 124
   2   3   6  261.12   11.52 124
   2   4   8    0.57   11.23 124
  -5   0  11   -2.79   17.98 125
  -4   0  12   -2.67   17.62 125
  -3   0  12   45.61   15.56 125
  -3   1  -6  610.61   16.58 125
  -3   1  14   40.15   19.14 125
  -3   2  -8  969.45   20.15 125
  -2   1  -6  356.41   15.36 125
  -2   2  -8   31.15   12.35 125
  -2   4 -11   46.22   14.20 125
  -1   1  12   -7.10   14.90 125
   0   1  10  180.06   16.43 125
   0   3  -8   -1.41   12.32 125
   1   1   6  294.61   13.50 125
   1   2  -4 1044.75   23.61 125
   1   5  -9   -4.97   14.82 125
   1   6 -10   22.91   13.67 125
   2   8  -9  138.36   19.03 125
   3   6   2   56.67   16.16 125
   3   7   3   40.28   18.39 125
  -5   2  -7    6.62   11.20 125
  -4  -1   7   -0.87   10.05 125
  -4   4 -11   16.24   13.45 125
  -3  -1   8   -3.07    8.52 125
  -3   3 -10   50.10   10.42 125
  -2  -1   7  247.44   11.71 125
  -2   0  11    2.35    9.78 125
  -2   1  13   23.22   10.61 125
  -1   2  13   12.11   10.85 125
   0   0   6  852.08   16.75 125
   0   1  -4   55.90   10.01 125
   1   3  10   28.58   12.07 125
   1   4  11   49.50   13.80 125
   1   7 -11   71.81   11.66 125
   3   6   0    2.75   18.85 125
   3   6   1    1.52   18.58 125
  -6   0   8    3.19   22.46 126
  -6   1  -3   93.28   19.99 126
  -5   3  -9   57.24   19.73 126
  -4  -1   6    7.80   14.68 126
  -4   0  -3  151.57   13.85 126
  -4   2  -8  141.95   16.30 126
  -2   2  14   21.32   17.68 126
  -2   3 -10   -3.63   14.65 126
  -1   0   9  133.10   13.41 126
  -1   5 -12   43.38   16.40 126
  -1   6 -13   97.35   19.15 126
   0   2  11  395.08   16.76 126
   0   5 -11  166.51   14.99 126
   0   6 -12  123.03   16.63 126
   1   1   5    6.59   12.97 126
   1   2   8  311.69   14.54 126
   1   4  -8  311.27   14.82 126
   2   3   5   24.66   12.21 126
   2   4  -5  703.90   20.06 126
   2   4   7   58.49   14.31 126
   2   5   8  187.19   18.74 126
  -6   2  -6    8.54   15.32 126
  -5   0  10    1.55   12.57 126
  -5   1  -5    0.25   11.28 126
  -4   0  11   -1.55   10.81 126
  -4   1  -6    3.06   10.04 126
  -4   3 -10  100.97   12.16 126
  -3  -1   7    0.94    8.60 126
  -3   0  11   33.35    9.51 126
  -3   1  13  109.26   13.07 126
  -3   5 -13   29.29   13.25 126
  -2  -1   6   -1.02    7.75 126
  -1   1  11    9.17   10.25 126
  -1   2  -8  150.25   10.15 126
  -1   4 -11  264.83   12.07 126
   0   1   9   39.09    9.06 126
   0   3  12    0.35   11.16 126
   0   4 -10  210.41   12.14 126
   0   7 -13  189.02   14.39 126
   1   8 -12   27.12   15.37 126
   3   7   2   97.40   23.15 126
   3   8  -4   18.09   23.41 126
  -6   0   7    6.24   19.46 127
  -4  -1   5    3.47   11.83 127
  -4   1  13   -2.21   20.39 127
  -3   0  -4  689.75   18.30 127
  -2   0  10  275.21   16.34 127
  -2   1  12   57.41   15.96 127
  -2   5 -13    0.65   18.62 127
  -1   1  -6  291.24   14.94 127
   0   0   5 1277.09   22.32 127
   1   1   4    6.46   14.38 127
   2   5  -7    7.40   14.56 127
   2   6  -8   42.03   13.86 127
   2   6   8   13.09   20.35 127
   2   7  -9   25.03   15.72 127
  -3  -1   6  128.22   10.57 127
  -3   2  -9  158.85   11.51 127
  -3   4 -12   47.50   13.66 127
  -2  -1   5 1063.64   20.53 127
  -2   0  -4  425.75   14.02 127
  -2   2  -9   17.11    8.57 127
  -2   4 -12  223.60   13.09 127
  -1   0  -3   26.86    9.64 127
  -1   0   8  623.04   13.90 127
  -1   2  12  145.80   12.55 127
  -1   3 -10    5.49    8.61 127
  -1   3  13   38.14   13.39 127
   0   2  -7   -1.32    8.03 127
   0   3  -9   47.24    9.20 127
   1   3  -7   41.64    9.59 127
   1   3   9   31.95   10.79 127
   1   4  10    4.92   11.31 127
   1   5 -10    0.71   10.31 127
   1   6 -11   69.64   12.13 127
   2   3   4   12.34    8.99 127
   2   4   6   14.69   10.22 127
   2   5   7   12.90   11.05 127
  -4  -1   3    2.07   14.74 127
  -4  -1   4   38.75   15.63 127
  -5   0  -2   -1.76   13.74 128
  -5   0   9   45.51   15.87 128
  -5   2  -8  119.41   19.81 128
  -4   0  10   99.84   16.10 128
  -3   0  10  106.91   14.56 128
  -3   1  -7   98.57   12.81 128
  -2  -1   4  737.84   22.14 128
  -2   1  -7  382.56   14.96 128
  -2   2  13   18.95   17.80 128
   0   0   4  135.29   14.29 128
   0   1   8  226.30   14.11 128
   0   2  10  136.25   15.29 128
   0   4  12   85.40   19.81 128
   1   1   3  642.26   19.71 128
   1   2   7   92.30   13.23 128
   1   7 -12    4.39   18.46 128
   2   8 -10    4.62   18.26 128
   3   7   1    2.43   17.71 128
  -4   1  12  155.79   13.59 128
  -4   2  -9   94.27   12.13 128
  -3   1  12  149.90   11.83 128
  -3   3 -11   43.22   11.81 128
  -2   0   9  216.48   10.57 128
  -2   3 -11  492.25   13.15 128
  -1   1  10   -1.93   10.60 128
  -1   5 -13   99.50   11.57 128
  -1   6 -14    3.04   13.13 128
   0   3  11   -1.28   11.79 128
   0   5 -12   56.14   11.83 128
   0   6 -13   55.35   13.31 128
   1   2  -5    3.08   10.10 128
   1   4  -9    3.50    8.51 128
   1   5  10   -7.03   13.46 128
   3   7  -3   62.54   28.33 127
  -6   0   6   89.06   25.22 128
  -6   1  -4   24.00   18.81 129
  -5   1  -6   80.96   16.36 129
  -4   0  -4   59.31   15.22 129
  -4   1  -7  186.91   15.45 129
  -4   3 -11  104.92   20.00 129
  -3  -1   5    2.18   12.44 129
  -2  -1   2   82.54   16.69 129
  -2  -1   3    1.17   14.33 129
  -2   1  11   18.73   13.84 129
  -1   4 -12  148.60   16.02 129
   0   0   3    5.99   16.51 129
   0   1  -5  543.00   17.76 129
   0   4 -11    2.34   14.44 129
   1   1   2   -0.03   13.11 129
   1   3   8  435.67   17.76 129
   1   4   9   87.07   17.35 129
   2   3  -3 1483.67   34.61 129
   2   3   3   56.17   13.13 129
   2   6  -9  104.18   15.80 129
   2   6   7   22.82   18.51 129
  -5   1  11   -5.84   12.32 129
  -3   2  13   -1.74   12.17 129
  -3   4 -13   86.66   13.96 129
  -2   5 -14   40.23   15.70 129
  -1   0   7   87.56    8.94 129
  -1   2  -9   17.75    8.69 129
  -1   2  11   24.36    9.82 129
  -1   3  12   60.27   11.28 129
  -1   4  13    6.72   15.28 129
   0   2   9   23.67    8.70 129
   1   2   6   76.61    9.90 129
   2   4  -6  115.02   10.34 129
   2   4   5  318.85   13.56 129
   2   5   6   -3.92   11.55 129
   2   7 -10   45.42   13.27 129
  -6   0   5   -0.45   23.95 129
   1   1   0  666.96   42.54 129
   3   7   0  170.70   22.08 129
   3   8  -5   38.98   23.71 129
  -5   0   8  278.90   18.67 130
  -4   0   9   -5.71   13.19 130
  -3  -1   4   66.71   14.06 130
  -3   0  -5  474.25   16.29 130
  -3   0   9  276.48   16.39 130
  -3   2 -10  108.79   14.44 130
  -2   2  12  176.49   16.50 130
  -2   3  13   -2.34   17.88 130
  -2   4 -13   69.57   17.52 130
  -1   1  -7   26.27   12.31 130
  -1   3 -11   26.43   14.75 130
   0   1   7  531.96   16.90 130
   0   2  -8 2349.67   24.24 130
   0   4  11   -4.75   16.04 130
   1   1   1   27.18   14.94 130
   1   5 -11   11.43   13.94 130
   1   6 -12  228.31   17.24 130
   2   5  -8  262.37   16.74 130
  -5   2  -9   41.02   13.81 130
  -4   1  11  107.74   11.47 130
  -3   1  -8   10.03   10.31 130
  -3   1  11    0.25   11.06 130
  -3   3 -12   51.57   13.78 130
  -2   0  -5  147.59    9.83 130
  -2   0   8    2.65    8.67 130
  -2   1  -8   60.00    9.27 130
  -2   2 -10   12.78   10.41 130
  -1   0  -4  410.71   14.35 130
  -1   1   9  282.37   11.09 130
  -1   5 -14   21.77   13.34 130
   0   0   2  237.06   14.30 130
   0   3 -10   59.29    9.03 130
   0   3  10   26.46   10.54 130
   1   3  -8  121.23   10.16 130
   1   5   9  157.53   12.89 130
   1   7 -13   26.31   13.12 130
   2   3   2    2.59    8.86 130
   3   7  -4   -1.01   21.45 130
   3   8   0   11.52   25.04 130
  -6   0   4   11.40   19.87 131
  -6   1  -5   90.34   19.57 131
  -5   0  -3   -5.21   13.40 131
  -4   2 -10   22.84   17.20 131
  -2   1  10   18.90   14.53 131
  -2   3 -12   27.70   15.92 131
  -1   0   6  732.54   18.68 131
   0   5 -13  -14.92   16.22 131
   0   6 -14  158.79   20.07 131
   1   3   7  148.34   13.71 131
   1   4 -10  215.01   16.54 131
   2   4   4  192.47   14.05 131
   2   6   6  320.26   18.23 131
  -5   1  -7   18.00   13.06 131
  -5   1  10   -3.84   12.48 131
  -4   1  -8  129.95   12.42 131
  -3   2  12   -0.27   10.45 131
  -3   3  13   -2.99   12.26 131
  -2   4  13   -4.49   14.60 131
  -1   2 -10  217.55   10.27 131
  -1   2  10    4.78    9.99 131
  -1   4 -13   -3.32   11.41 131
  -1   4  12   11.00   13.01 131
   0   1  -6  101.98   11.22 131
   0   4 -12  221.56   11.61 131
   0   5  11  109.27   15.11 131
   1   2  -6    2.83    8.98 131
   1   2   5   40.87    8.48 131
   1   4   8   35.23   10.38 131
   1   6   9   30.66   13.55 131
   2   5   5    4.16    9.74 131
   2   6 -10  152.40   12.64 131
   2   7   6    2.81   12.76 131
   0   0   0    0.00    0.00   0
;
_shelx_hkl_checksum              37208
_shelx_res_file
;
TITL G:/000_WORK/A_TCEP -1ERPOL_A/SR   0.04L2
    G:\000_work\A_TCESMP1erpol_A\ShxAbs\jpl2_pl.res
    created by SHELXL-2018/3 at 12:50:31 on 31-Oct-2020
CELL  0.71073  5.58430  9.00610 12.73900 101.53700 94.31300 103.70100
ZERR 1  0.00080  0.00140  0.00200  0.01800  0.01800  0.01700
LATT 1
SFAC C H N O S
UNIT 20 28 2 8 4
SIZE    0.0500    0.3000    0.3500
L.S. 9
FMAP 2
PLAN 20
dfix 0.84 .02 o2 h2o o4 h4o
ACTA
CONF
BOND $H
HTAB
EQIV $2 -X-1, -Y, -Z
HTAB O2 O1_$2
EQIV $3 -X+1, -Y+1, -Z
HTAB O4 O3_$3
EQIV $4 X-1, Y, Z
HTAB C5 O3_$4
EQIV $5 X+1, Y, Z
HTAB C8 O4_$5
WGHT    0.047800
FVAR       0.90641
S1    5    0.401696    0.391209    0.296976    11.00000    0.02916    0.02461 =
         0.03475    0.01089   -0.01010   -0.00185
S2    5    1.275478    0.862903    0.379082    11.00000    0.02432    0.02413 =
         0.03758    0.01565    0.00272   -0.00127
O1    4   -0.338135    0.071634    0.122067    11.00000    0.03333    0.05005 =
         0.03615    0.00535   -0.00931   -0.00224
O2    4   -0.209840    0.106379   -0.035669    11.00000    0.03225    0.04856 =
         0.03450    0.00987   -0.00991    0.00011
H2O   2   -0.362723    0.051718   -0.058743    11.00000    0.09818
O3    4    0.776144    0.527749    0.080836    11.00000    0.04000    0.04245 =
         0.03413    0.00392   -0.00022    0.02158
O4    4    0.504529    0.673623    0.092318    11.00000    0.03446    0.05192 =
         0.03964    0.00038   -0.00639    0.02175
H4O   2    0.422289    0.607076    0.039171    11.00000    0.08683
N1    3    0.835333    0.553990    0.440744    11.00000    0.01821    0.01588 =
         0.02417    0.00717   -0.00088    0.00104
C1    1    0.785856    0.402370    0.445148    11.00000    0.01836    0.01582 =
         0.02220    0.00548    0.00047    0.00059
C2    1    1.044719    0.652262    0.495203    11.00000    0.01823    0.01251 =
         0.02259    0.00465    0.00087    0.00112
C3    1    0.545959    0.295734    0.385026    11.00000    0.01912    0.01886 =
         0.03273    0.00846   -0.00279   -0.00249
AFIX  23
H3A   2    0.434405    0.264980    0.436177    11.00000   -1.20000
H3B   2    0.577409    0.201607    0.342827    11.00000   -1.20000
AFIX   0
C4    1    0.147251    0.223417    0.230751    11.00000    0.02586    0.02895 =
         0.03590    0.00971   -0.00531   -0.00694
AFIX  23
H4A   2    0.202811    0.128008    0.222673    11.00000   -1.20000
H4B   2    0.011542    0.214305    0.274306    11.00000   -1.20000
AFIX   0
C5    1    0.060008    0.244907    0.121880    11.00000    0.03166    0.02793 =
         0.04042    0.01138   -0.00798    0.00083
AFIX  23
H5A   2    0.041788    0.350865    0.129466    11.00000   -1.20000
H5B   2    0.186183    0.233148    0.074799    11.00000   -1.20000
AFIX   0
C6    1   -0.180705    0.132058    0.069767    11.00000    0.02278    0.02642 =
         0.03596    0.00834   -0.00737    0.00479
C7    1    1.087703    0.819583    0.485717    11.00000    0.02507    0.01548 =
         0.03129    0.00879    0.00205    0.00276
AFIX  23
H7A   2    1.170302    0.887935    0.554088    11.00000   -1.20000
H7B   2    0.928434    0.841937    0.471163    11.00000   -1.20000
AFIX   0
C8    1    1.093545    0.722026    0.261515    11.00000    0.02633    0.03165 =
         0.02927    0.01317    0.00659    0.00923
AFIX  23
H8A   2    1.187763    0.725553    0.200717    11.00000   -1.20000
H8B   2    1.068152    0.617707    0.275367    11.00000   -1.20000
AFIX   0
C9    1    0.842670    0.749109    0.230721    11.00000    0.02812    0.02756 =
         0.03237    0.00973    0.00078    0.00745
AFIX  23
H9A   2    0.742172    0.735720    0.288698    11.00000   -1.20000
H9B   2    0.866452    0.856524    0.223186    11.00000   -1.20000
AFIX   0
C10   1    0.704581    0.640734    0.127706    11.00000    0.02617    0.03852 =
         0.02536    0.01289    0.00678    0.01249
HKLF 4
REM  G:/000_WORK/A_TCEP -1ERPOL_A/SR   0.04L2
REM wR2 = 0.0966, GooF = S = 0.884, Restrained GooF = 0.884 for all data
REM R1 = 0.0412 for 1452 Fo > 4sig(Fo) and 0.0691 for all 2194 data
REM 162 parameters refined using 2 restraints
END
WGHT      0.0493      0.0000
REM Instructions for potential hydrogen bonds
HTAB O2 O1_$2
HTAB O4 O3_$3
HTAB C5 O3_$4
HTAB C8 O4_$5
HTAB C8 N1
REM Highest difference peak  0.354,  deepest hole -0.280,  1-sigma level  0.067
Q1    1   0.5078  0.3528  0.2458  11.00000  0.05    0.35
Q2    1   0.8784  0.3767  0.4459  11.00000  0.05    0.24
Q3    1  -0.0381  0.3026  0.1506  11.00000  0.05    0.24
Q4    1   0.7960  0.4914  0.0311  11.00000  0.05    0.23
Q5    1   0.7373  0.5582  0.4231  11.00000  0.05    0.23
Q6    1   1.2602  0.8161  0.3071  11.00000  0.05    0.23
Q7    1   0.3295  0.4954  0.3419  11.00000  0.05    0.23
Q8    1   1.1319  0.7830  0.4359  11.00000  0.05    0.22
Q9    1  -0.0800  0.3595  0.0290  11.00000  0.05    0.22
Q10   1  -0.3092  0.1623  0.1148  11.00000  0.05    0.21
Q11   1  -0.2273  0.0677  0.2177  11.00000  0.05    0.20
Q12   1  -0.0423  0.1484  0.0599  11.00000  0.05    0.20
Q13   1   0.9515  0.7379  0.2304  11.00000  0.05    0.20
Q14   1   0.6157  0.6577  0.0984  11.00000  0.05    0.20
Q15   1   0.7452  0.7055  0.1784  11.00000  0.05    0.20
Q16   1   0.4932  0.8253  0.1461  11.00000  0.05    0.20
Q17   1  -0.2171  0.1608  0.0387  11.00000  0.05    0.19
Q18   1   0.5107  0.6964  0.1438  11.00000  0.05    0.19
Q19   1   0.0252  0.2837  0.2352  11.00000  0.05    0.19
Q20   1  -0.3348  0.2062  0.0134  11.00000  0.05    0.19
;
_shelx_res_checksum              93827
loop_
_space_group_symop_operation_xyz
'x, y, z'
'-x, -y, -z'
loop_
_atom_site_type_symbol
_atom_site_label
_atom_site_fract_x
_atom_site_fract_y
_atom_site_fract_z
_atom_site_U_iso_or_equiv
_atom_site_adp_type
_atom_site_calc_flag
_atom_site_occupancy
_atom_site_disorder_assembly
_atom_site_disorder_group
S S1 0.40170(15) 0.39121(9) 0.29698(6) 0.0312(2) Uani d 1 . .
S S2 1.27548(15) 0.86290(9) 0.37908(6) 0.0288(2) Uani d 1 . .
O O1 -0.3381(5) 0.0716(3) 0.12207(17) 0.0435(6) Uani d 1 . .
O O2 -0.2098(5) 0.1064(3) -0.03567(17) 0.0409(6) Uani d 1 . .
H H2O -0.363(5) 0.052(5) -0.059(4) 0.098(19) Uiso d 1 . .
O O3 0.7761(4) 0.5277(3) 0.08084(16) 0.0379(6) Uani d 1 . .
O O4 0.5045(5) 0.6736(3) 0.09232(19) 0.0422(6) Uani d 1 . .
H H4O 0.422(8) 0.607(4) 0.039(3) 0.087(17) Uiso d 1 . .
N N1 0.8353(4) 0.5540(3) 0.44074(17) 0.0198(5) Uani d 1 . .
C C1 0.7859(5) 0.4024(3) 0.4451(2) 0.0194(6) Uani d 1 . .
C C2 1.0447(5) 0.6523(3) 0.4952(2) 0.0183(6) Uani d 1 . .
C C3 0.5460(5) 0.2957(3) 0.3850(2) 0.0248(6) Uani d 1 . .
H H3A 0.434405 0.264980 0.436177 0.030 Uiso calc 1 . .
H H3B 0.577409 0.201607 0.342827 0.030 Uiso calc 1 . .
C C4 0.1473(6) 0.2234(4) 0.2308(2) 0.0328(7) Uani d 1 . .
H H4A 0.202811 0.128008 0.222673 0.039 Uiso calc 1 . .
H H4B 0.011542 0.214305 0.274306 0.039 Uiso calc 1 . .
C C5 0.0600(6) 0.2449(4) 0.1219(2) 0.0347(8) Uani d 1 . .
H H5A 0.041788 0.350865 0.129466 0.042 Uiso calc 1 . .
H H5B 0.186183 0.233148 0.074799 0.042 Uiso calc 1 . .
C C6 -0.1807(6) 0.1321(3) 0.0698(2) 0.0291(7) Uani d 1 . .
C C7 1.0877(6) 0.8196(3) 0.4857(2) 0.0239(6) Uani d 1 . .
H H7A 1.170302 0.887935 0.554088 0.029 Uiso calc 1 . .
H H7B 0.928434 0.841937 0.471163 0.029 Uiso calc 1 . .
C C8 1.0935(6) 0.7220(4) 0.2615(2) 0.0277(7) Uani d 1 . .
H H8A 1.187763 0.725553 0.200717 0.033 Uiso calc 1 . .
H H8B 1.068152 0.617707 0.275367 0.033 Uiso calc 1 . .
C C9 0.8427(6) 0.7491(3) 0.2307(2) 0.0290(7) Uani d 1 . .
H H9A 0.742172 0.735720 0.288698 0.035 Uiso calc 1 . .
H H9B 0.866452 0.856524 0.223186 0.035 Uiso calc 1 . .
C C10 0.7046(6) 0.6407(4) 0.1277(2) 0.0283(7) Uani d 1 . .
loop_
_atom_site_aniso_label
_atom_site_aniso_U_11
_atom_site_aniso_U_22
_atom_site_aniso_U_33
_atom_site_aniso_U_12
_atom_site_aniso_U_13
_atom_site_aniso_U_23
S1 0.0292(5) 0.0246(4) 0.0348(4) -0.0018(3) -0.0101(3) 0.0109(3)
S2 0.0243(5) 0.0241(4) 0.0376(4) -0.0013(3) 0.0027(3) 0.0156(3)
O1 0.0333(15) 0.0501(14) 0.0362(13) -0.0022(12) -0.0093(10) 0.0054(11)
O2 0.0322(16) 0.0486(14) 0.0345(13) 0.0001(13) -0.0099(10) 0.0099(10)
O3 0.0400(15) 0.0425(13) 0.0341(12) 0.0216(12) -0.0002(10) 0.0039(10)
O4 0.0345(15) 0.0519(15) 0.0396(13) 0.0217(13) -0.0064(11) 0.0004(12)
N1 0.0182(14) 0.0159(11) 0.0242(11) 0.0010(10) -0.0009(9) 0.0072(9)
C1 0.0184(16) 0.0158(13) 0.0222(13) 0.0006(12) 0.0005(10) 0.0055(10)
C2 0.0182(16) 0.0125(12) 0.0226(13) 0.0011(12) 0.0009(10) 0.0047(10)
C3 0.0191(17) 0.0189(14) 0.0327(15) -0.0025(13) -0.0028(11) 0.0085(11)
C4 0.0259(19) 0.0290(16) 0.0359(16) -0.0069(14) -0.0053(13) 0.0097(13)
C5 0.032(2) 0.0279(16) 0.0404(18) 0.0008(15) -0.0080(14) 0.0114(13)
C6 0.0228(19) 0.0264(16) 0.0360(17) 0.0048(15) -0.0074(13) 0.0083(13)
C7 0.0251(18) 0.0155(13) 0.0313(15) 0.0028(13) 0.0021(12) 0.0088(11)
C8 0.0263(18) 0.0316(16) 0.0293(15) 0.0092(14) 0.0066(12) 0.0132(12)
C9 0.0281(19) 0.0276(16) 0.0324(16) 0.0074(15) 0.0008(12) 0.0097(12)
C10 0.0262(18) 0.0385(17) 0.0254(15) 0.0125(15) 0.0068(12) 0.0129(13)
loop_
_atom_type_symbol
_atom_type_description
_atom_type_scat_dispersion_real
_atom_type_scat_dispersion_imag
_atom_type_scat_source
C C 0.0033 0.0016 'International Tables Vol C Tables 4.2.6.8 and 6.1.1.4'
H H 0.0000 0.0000 'International Tables Vol C Tables 4.2.6.8 and 6.1.1.4'
N N 0.0061 0.0033 'International Tables Vol C Tables 4.2.6.8 and 6.1.1.4'
O O 0.0106 0.0060 'International Tables Vol C Tables 4.2.6.8 and 6.1.1.4'
S S 0.1246 0.1234 'International Tables Vol C Tables 4.2.6.8 and 6.1.1.4'
loop_
_geom_angle_atom_site_label_1
_geom_angle_atom_site_label_2
_geom_angle_atom_site_label_3
_geom_angle_site_symmetry_1
_geom_angle_site_symmetry_3
_geom_angle
_geom_angle_publ_flag
C3 S1 C4 . . 97.53(13) ?
C8 S2 C7 . . 101.68(14) ?
C6 O2 H2O . . 108(3) ?
C10 O4 H4O . . 113(3) ?
C2 N1 C1 . . 119.1(2) ?
N1 C1 C2 . 2_766 120.3(2) ?
N1 C1 C3 . . 117.7(2) ?
C2 C1 C3 2_766 . 122.0(2) ?
N1 C2 C1 . 2_766 120.6(2) ?
N1 C2 C7 . . 115.9(2) ?
C1 C2 C7 2_766 . 123.4(2) ?
C1 C3 S1 . . 110.88(18) ?
C1 C3 H3A . . 109.5 ?
S1 C3 H3A . . 109.5 ?
C1 C3 H3B . . 109.5 ?
S1 C3 H3B . . 109.5 ?
H3A C3 H3B . . 108.1 ?
C5 C4 S1 . . 109.2(2) ?
C5 C4 H4A . . 109.8 ?
S1 C4 H4A . . 109.8 ?
C5 C4 H4B . . 109.8 ?
S1 C4 H4B . . 109.8 ?
H4A C4 H4B . . 108.3 ?
C6 C5 C4 . . 113.8(3) ?
C6 C5 H5A . . 108.8 ?
C4 C5 H5A . . 108.8 ?
C6 C5 H5B . . 108.8 ?
C4 C5 H5B . . 108.8 ?
H5A C5 H5B . . 107.7 ?
O1 C6 O2 . . 123.6(3) ?
O1 C6 C5 . . 122.7(3) ?
O2 C6 C5 . . 113.7(3) ?
C2 C7 S2 . . 112.8(2) ?
C2 C7 H7A . . 109.0 ?
S2 C7 H7A . . 109.0 ?
C2 C7 H7B . . 109.0 ?
S2 C7 H7B . . 109.0 ?
H7A C7 H7B . . 107.8 ?
C9 C8 S2 . . 114.2(2) ?
C9 C8 H8A . . 108.7 ?
S2 C8 H8A . . 108.7 ?
C9 C8 H8B . . 108.7 ?
S2 C8 H8B . . 108.7 ?
H8A C8 H8B . . 107.6 ?
C10 C9 C8 . . 113.5(2) ?
C10 C9 H9A . . 108.9 ?
C8 C9 H9A . . 108.9 ?
C10 C9 H9B . . 108.9 ?
C8 C9 H9B . . 108.9 ?
H9A C9 H9B . . 107.7 ?
O3 C10 O4 . . 122.8(3) ?
O3 C10 C9 . . 122.4(3) ?
O4 C10 C9 . . 114.8(3) ?
loop_
_geom_bond_atom_site_label_1
_geom_bond_atom_site_label_2
_geom_bond_site_symmetry_2
_geom_bond_distance
_geom_bond_publ_flag
S1 C3 . 1.796(3) ?
S1 C4 . 1.818(3) ?
S2 C8 . 1.813(3) ?
S2 C7 . 1.825(3) ?
O1 C6 . 1.233(4) ?
O2 C6 . 1.307(4) ?
O2 H2O . 0.87(2) ?
O3 C10 . 1.240(4) ?
O4 C10 . 1.294(4) ?
O4 H4O . 0.830(19) ?
N1 C2 . 1.332(3) ?
N1 C1 . 1.341(3) ?
C1 C2 2_766 1.406(3) ?
C1 C3 . 1.499(4) ?
C2 C7 . 1.500(3) ?
C3 H3A . 0.9700 ?
C3 H3B . 0.9700 ?
C4 C5 . 1.500(4) ?
C4 H4A . 0.9700 ?
C4 H4B . 0.9700 ?
C5 C6 . 1.493(4) ?
C5 H5A . 0.9700 ?
C5 H5B . 0.9700 ?
C7 H7A . 0.9700 ?
C7 H7B . 0.9700 ?
C8 C9 . 1.514(4) ?
C8 H8A . 0.9700 ?
C8 H8B . 0.9700 ?
C9 C10 . 1.499(4) ?
C9 H9A . 0.9700 ?
C9 H9B . 0.9700 ?
loop_
_geom_hbond_atom_site_label_D
_geom_hbond_atom_site_label_H
_geom_hbond_atom_site_label_A
_geom_hbond_site_symmetry_A
_geom_hbond_distance_DH
_geom_hbond_distance_HA
_geom_hbond_distance_DA
_geom_hbond_angle_DHA
_geom_hbond_publ_flag
O2 H2O O1 2_455 0.87(2) 1.80(2) 2.667(3) 172(5) yes
O4 H4O O3 2_665 0.83(2) 1.85(2) 2.673(3) 175(5) yes
C5 H5A O3 1_455 0.97 2.55 3.405(4) 147 yes
C8 H8A O4 1_655 0.97 2.40 3.308(4) 156 yes
loop_
_geom_torsion_atom_site_label_1
_geom_torsion_atom_site_label_2
_geom_torsion_atom_site_label_3
_geom_torsion_atom_site_label_4
_geom_torsion_site_symmetry_1
_geom_torsion_site_symmetry_2
_geom_torsion_site_symmetry_3
_geom_torsion_site_symmetry_4
_geom_torsion
_geom_torsion_publ_flag
C2 N1 C1 C2 . . . 2_766 -1.2(4) ?
C2 N1 C1 C3 . . . . 178.6(2) ?
C1 N1 C2 C1 . . . 2_766 1.2(4) ?
C1 N1 C2 C7 . . . . 179.6(2) ?
N1 C1 C3 S1 . . . . 11.3(3) ?
C2 C1 C3 S1 2_766 . . . -168.8(2) ?
C4 S1 C3 C1 . . . . 174.1(2) ?
C3 S1 C4 C5 . . . . -155.3(2) ?
S1 C4 C5 C6 . . . . -167.9(2) ?
C4 C5 C6 O1 . . . . 26.8(4) ?
C4 C5 C6 O2 . . . . -154.4(3) ?
N1 C2 C7 S2 . . . . -94.0(3) ?
C1 C2 C7 S2 2_766 . . . 84.3(3) ?
C8 S2 C7 C2 . . . . 57.6(2) ?
C7 S2 C8 C9 . . . . 65.7(2) ?
S2 C8 C9 C10 . . . . 174.8(2) ?
C8 C9 C10 O3 . . . . 8.8(4) ?
C8 C9 C10 O4 . . . . -171.8(3) ?

_cod_database_fobs_code 2243800
