#------------------------------------------------------------------------------
#$Date: 2021-03-06 08:22:41 +0200 (Sat, 06 Mar 2021) $
#$Revision: 262795 $
#$URL: file:///home/coder/svn-repositories/cod/cif/2/24/37/2243775.cif $
#------------------------------------------------------------------------------
#
# This file is available in the Crystallography Open Database (COD),
# http://www.crystallography.net/. The original data for this entry
# were provided by IUCr Journals, http://journals.iucr.org/.
#
# The file may be used within the scientific community so long as
# proper attribution is given to the journal article from which the
# data were obtained.
#
data_2243775
loop_
_publ_author_name
'Kingsbury, Christopher J.'
'Sample, Harry C.'
'Senge, Mathias O.'
_publ_section_title
;
 Crystal structures of 4-bromo-2-formyl-1-tosyl-1<i>H</i>-pyrrole,
 (<i>E</i>)-4-bromo-2-(2-nitrovinyl)-1-tosyl-1<i>H</i>-pyrrole and
 6-(4-bromo-1-tosylpyrrol-2-yl)-4,4-dimethyl-5-nitrohexan-2-one
;
_journal_issue                   4
_journal_name_full               'Acta Crystallographica Section E'
_journal_page_first              341
_journal_page_last               345
_journal_paper_doi               10.1107/S2056989021002280
_journal_volume                  77
_journal_year                    2021
_chemical_formula_moiety         'C13 H11 Br N2 O4 S'
_chemical_formula_sum            'C13 H11 Br N2 O4 S'
_chemical_formula_weight         371.21
_chemical_name_common            (E)-4-bromo-2-(2-nitrovinyl)-1-tosyl-1H-pyrrole
_chemical_name_systematic        (E)-4-bromo-2-(2-nitrovinyl)-1-tosyl-1H-pyrrole
_space_group_crystal_system      triclinic
_space_group_IT_number           2
_space_group_name_Hall           '-P 1'
_space_group_name_H-M_alt        'P -1'
_atom_sites_solution_hydrogens   geom
_atom_sites_solution_primary     direct
_audit_creation_method           SHELXL-2018/3
_cell_angle_alpha                83.423(3)
_cell_angle_beta                 80.393(3)
_cell_angle_gamma                85.693(3)
_cell_formula_units_Z            2
_cell_length_a                   6.8904(4)
_cell_length_b                   8.3224(4)
_cell_length_c                   12.8763(7)
_cell_measurement_reflns_used    4853
_cell_measurement_temperature    100(2)
_cell_measurement_theta_max      68.21
_cell_measurement_theta_min      3.50
_cell_volume                     722.06(7)
_computing_cell_refinement       'SAINT (Bruker, 2015)'
_computing_data_collection       'APEX3 (Bruker, 2015)'
_computing_data_reduction        'SAINT (Bruker, 2015)'
_computing_molecular_graphics    '<i>shelXle</i> (H\"ubschle, 2011)'
_computing_publication_material  'publCIF (Westrip, 2010)'
_computing_structure_refinement  '<i>SHELXL2018/3</i> (Sheldrick, 2015b)'
_computing_structure_solution    '<i>SHELXT2018/2</i> (Sheldrick, 2015a)'
_diffrn_ambient_temperature      100(2)
_diffrn_measured_fraction_theta_full 0.992
_diffrn_measured_fraction_theta_max 0.990
_diffrn_measurement_device_type  'Bruker APEXII CCD'
_diffrn_measurement_method       '\f and \w scans'
_diffrn_radiation_type           CuK\a
_diffrn_radiation_wavelength     1.54178
_diffrn_reflns_av_R_equivalents  0.0416
_diffrn_reflns_av_unetI/netI     0.0448
_diffrn_reflns_limit_h_max       8
_diffrn_reflns_limit_h_min       -6
_diffrn_reflns_limit_k_max       9
_diffrn_reflns_limit_k_min       -9
_diffrn_reflns_limit_l_max       15
_diffrn_reflns_limit_l_min       -15
_diffrn_reflns_number            7190
_diffrn_reflns_theta_full        67.679
_diffrn_reflns_theta_max         68.205
_diffrn_reflns_theta_min         3.500
_exptl_absorpt_coefficient_mu    5.403
_exptl_absorpt_correction_T_max  0.7531
_exptl_absorpt_correction_T_min  0.5443
_exptl_absorpt_correction_type   multi-scan
_exptl_absorpt_process_details
;
(SADABS; Krause <i>et al.</i>,  2015)
;
_exptl_crystal_colour            colourless
_exptl_crystal_density_diffrn    1.707
_exptl_crystal_description       plate
_exptl_crystal_F_000             372
_exptl_crystal_size_max          0.080
_exptl_crystal_size_mid          0.060
_exptl_crystal_size_min          0.010
_refine_diff_density_max         0.800
_refine_diff_density_min         -0.627
_refine_ls_extinction_method     none
_refine_ls_goodness_of_fit_ref   1.047
_refine_ls_hydrogen_treatment    constr
_refine_ls_matrix_type           full
_refine_ls_number_parameters     191
_refine_ls_number_reflns         2617
_refine_ls_number_restraints     0
_refine_ls_restrained_S_all      1.047
_refine_ls_R_factor_all          0.0520
_refine_ls_R_factor_gt           0.0491
_refine_ls_shift/su_max          0.000
_refine_ls_shift/su_mean         0.000
_refine_ls_structure_factor_coef Fsqd
_refine_ls_weighting_details
'w=1/[\s^2^(Fo^2^)+(0.1118P)^2^] where P=(Fo^2^+2Fc^2^)/3'
_refine_ls_weighting_scheme      calc
_refine_ls_wR_factor_gt          0.1388
_refine_ls_wR_factor_ref         0.1423
_reflns_number_gt                2378
_reflns_number_total             2617
_reflns_threshold_expression     'I > 2\s(I)'
_cod_data_source_file            tx2036sup1.cif
_cod_data_source_block           2
_cod_database_code               2243775
_shelx_space_group_comment
;
The symmetry employed for this shelxl refinement is uniquely defined
by the following loop, which should always be used as a source of
symmetry information in preference to the above space-group names.
They are only intended as comments.
;
_shelx_estimated_absorpt_t_min   0.672
_shelx_estimated_absorpt_t_max   0.948
_shelx_hkl_file
;
   1   0   0  543.65   34.80
   1   0   0  540.15   34.80
   2   0   0  867.41   59.59
   2   0   0 1045.50   59.79
   2   0   0  940.91   59.79
   2   0   0  855.81   59.79
   3   0   0   10.60    1.90
   3   0   0   13.00    1.90
   3   0   0    9.60    1.60
  -4   0   0   85.99    6.20
   4   0   0   75.59    6.80
   4   0   0   89.39    6.50
   4   0   0   96.69    6.60
   5   0   0   71.49    5.80
   6   0   0   27.50    3.60
   6   0   0   26.90    3.00
   7   0   0   54.29    4.80
   8   0   0    4.20    1.20
   7  -1   0   89.19    7.10
   7  -1   0   94.09    6.70
   6  -1   0  149.99   10.30
   6  -1   0  143.09   10.80
   5  -1   0   50.59    4.50
  -5   1   0   41.00    4.10
   4  -1   0   15.50    2.30
   4  -1   0   15.30    2.40
  -4   1   0   20.10    2.30
   3  -1   0   34.80    2.90
   3  -1   0   33.80    3.00
  -3   1   0   35.50    2.90
  -3   1   0   30.30    2.50
   2  -1   0  875.41   52.29
   2  -1   0  830.42   52.39
   2  -1   0  775.62   52.39
  -2   1   0  755.52   52.19
  -2   1   0  801.52   52.29
  -2   1   0  828.32   52.29
   1  -1   0 5127.79  324.07
  -1   1   0 5183.68  323.87
  -1   1   0 4789.02  323.57
   0  -1   0  629.64   40.30
   0  -1   0  619.04   40.20
   0   1   0  614.64   40.30
   0   1   0  632.24   40.30
  -1  -1   0  933.51   58.29
  -1  -1   0  894.81   58.29
   1   1   0  901.11   58.29
   1   1   0  897.61   58.29
   2   1   0 2204.98  127.29
   2   1   0 1850.01  126.79
   2   1   0 1881.31  126.99
   2   1   0 1969.70  126.99
   3   1   0  401.06   27.70
   3   1   0  420.06   27.80
   3   1   0  451.25   28.10
   4   1   0   29.70    3.00
   4   1   0   31.50    3.50
   4   1   0   31.60    3.30
   5   1   0    7.10    2.30
   6   1   0    6.40    1.90
   6   1   0    4.80    1.80
   7   1   0   78.59    5.90
   7  -2   0    0.30    1.20
   7  -2   0   -0.20    1.20
   6  -2   0   48.60    4.30
   6  -2   0   49.99    4.90
   5  -2   0   51.49    4.50
  -5   2   0   46.70    4.40
   4  -2   0  276.87   17.80
  -4   2   0  251.27   17.70
   3  -2   0  113.69    7.80
  -3   2   0  112.19    7.80
  -3   2   0  108.49    7.60
   2  -2   0  564.74   35.30
   2  -2   0  494.35   35.60
  -2   2   0  555.64   35.30
  -2   2   0  539.65   35.60
  -2   2   0  569.54   35.30
   1  -2   0  222.58   15.40
   1  -2   0  259.47   15.80
  -1   2   0  213.68   15.40
  -1   2   0  251.67   15.70
  -1   2   0  235.78   15.40
  -1   2   0  227.38   15.70
   0  -2   0   17.00    1.70
   0  -2   0   20.40    1.90
   0  -2   0   19.60    2.00
   0   2   0   16.80    1.80
   0   2   0   19.00    2.00
   0   2   0   16.80    1.90
   0   2   0   19.90    1.90
  -1  -2   0 8809.12  597.94
  -1  -2   0 9999.00  599.54
  -1  -2   0 9457.15  598.94
   1   2   0 8987.10  598.54
   1   2   0 9182.28  599.04
   1   2   0 9524.75  599.44
   1   2   0 9010.80  598.44
   1   2   0 9529.85  599.24
  -2  -2   0   74.19    5.40
   2   2   0   85.49    6.00
   2   2   0   82.89    5.70
   2   2   0   79.49    5.80
   3   2   0  730.93   45.70
   3   2   0  657.13   45.20
   3   2   0  699.23   45.30
   4   2   0   53.79    4.90
   4   2   0   52.69    4.80
   5   2   0  158.08   11.80
   5   2   0  167.58   12.30
   6   2   0    0.80    1.80
   6   2   0    1.20    1.40
   7   2   0   10.50    1.80
   7  -3   0   19.00    2.00
   7  -3   0   15.90    2.30
   6  -3   0   73.29    6.00
   6  -3   0  100.09    7.20
   6  -3   0   87.19    6.50
   5  -3   0  433.16   27.50
   5  -3   0  385.36   26.80
   5  -3   0  412.76   27.00
   4  -3   0  536.55   33.20
  -4   3   0  483.05   32.90
  -4   3   0  489.25   33.10
   3  -3   0   82.89    6.30
  -3   3   0   88.39    6.40
  -3   3   0   92.49    6.60
   2  -3   0    6.50    1.40
  -2   3   0    5.30    1.50
  -2   3   0    7.90    1.60
   1  -3   0  797.42   50.99
   1  -3   0  778.32   50.59
  -1   3   0  809.42   50.49
  -1   3   0  737.93   50.59
  -1   3   0  767.52   50.39
  -1   3   0  792.42   50.89
   0  -3   0  575.54   36.70
   0  -3   0  596.74   36.40
   0   3   0  573.04   36.50
   0   3   0  497.55   36.20
   0   3   0  565.34   36.70
   0   3   0  545.95   36.30
  -1  -3   0   78.59    5.50
  -1  -3   0   76.39    5.80
   1   3   0   74.99    5.80
   1   3   0   79.79    5.70
   1   3   0   82.39    6.10
   1   3   0   76.09    5.80
  -2  -3   0 1376.16   88.79
  -2  -3   0 1313.67   88.89
   2   3   0 1429.06   89.29
   2   3   0 1394.56   88.99
   3   3   0 1602.04   97.89
   3   3   0 1546.85   97.29
   3   3   0 1373.46   97.29
   4   3   0  382.46   25.10
   4   3   0  345.07   24.40
   5   3   0  315.97   21.40
   5   3   0  286.67   20.70
   6   3   0    1.00    1.80
   6   3   0    1.80    1.60
   6   3   0    0.20    0.90
   7   3   0    1.70    1.70
   7  -4   0   19.20    2.10
   7  -4   0   18.00    1.90
   6  -4   0    9.90    1.50
   6  -4   0   11.30    1.80
   6  -4   0   10.30    2.30
   5  -4   0  213.28   16.90
   5  -4   0  268.77   16.70
   5  -4   0  260.87   16.40
   4  -4   0   86.29    6.50
  -4   4   0   85.29    6.20
  -4   4   0   70.89    6.20
   3  -4   0  343.07   22.60
  -3   4   0  356.56   22.70
  -3   4   0  317.67   22.50
   2  -4   0   87.89    6.50
  -2   4   0   91.69    6.60
  -2   4   0   83.29    6.40
   1  -4   0  276.07   18.40
  -1   4   0  273.57   18.40
   0  -4   0  272.97   17.30
   0   4   0  258.77   17.40
   0   4   0  240.48   17.10
  -1  -4   0   63.59    4.80
   1   4   0   65.99    5.40
   1   4   0   61.59    5.20
   1   4   0   63.29    5.10
  -2  -4   0 2803.92  175.78
   2   4   0 2658.13  176.18
   2   4   0 2735.73  176.08
   3   4   0    0.90    1.80
   3   4   0    0.30    1.40
   4   4   0  429.46   29.50
   5   4   0    9.70    2.20
   5   4   0   11.40    1.50
   5   4   0    7.10    1.20
   5   4   0   10.00    1.70
   6   4   0  171.38   11.20
   6   4   0  162.08   11.40
   6   4   0  165.58   12.00
   7   4   0    0.00    0.60
   7   4   0   -0.40    1.30
   6  -5   0   10.30    1.60
   6  -5   0   10.90    1.50
   5  -5   0   92.69    6.50
   5  -5   0   79.39    6.10
  -5   5   0   88.29    6.50
   4  -5   0  224.68   15.20
   4  -5   0  220.88   14.80
   4  -5   0  230.58   15.00
  -4   5   0  225.38   15.50
   3  -5   0  348.47   22.80
  -3   5   0  335.27   22.80
  -3   5   0  330.77   22.70
   2  -5   0   80.89    6.00
  -2   5   0   75.39    6.20
   1  -5   0    5.40    1.40
  -1   5   0    6.20    1.50
   0  -5   0   65.19    5.00
   0   5   0   62.79    5.60
   0   5   0   57.09    5.00
  -1  -5   0   64.29    5.10
   1   5   0   65.39    5.50
   1   5   0   63.59    6.00
  -2  -5   0    1.70    1.20
   2   5   0    1.30    1.70
   2   5   0    0.60    1.60
   3   5   0  116.99    9.50
   4   5   0  248.08   18.40
   4   5   0  253.47   17.50
   5   5   0  128.49    8.70
   5   5   0  130.19    8.80
   5   5   0  119.79    8.60
   6   5   0  116.29    7.20
   6   5   0   84.19    6.70
   6   5   0   97.09    6.80
   7   5   0    5.00    1.00
   7   5   0    6.40    0.90
   6  -6   0    5.60    1.00
   6  -6   0    4.70    0.90
   5  -6   0    2.40    1.20
   5  -6   0    3.60    0.90
  -5   6   0    2.40    1.80
   4  -6   0   99.59    7.00
   4  -6   0   88.29    6.60
  -4   6   0  108.59    7.60
   3  -6   0    1.50    1.20
   3  -6   0    1.40    0.90
  -3   6   0    2.40    2.20
   2  -6   0  399.36   25.80
  -2   6   0  370.96   25.90
   1  -6   0   21.60    2.90
   1  -6   0   25.90    3.40
  -1   6   0   21.90    2.80
   0  -6   0  180.18   12.50
   0   6   0  170.38   12.80
  -1  -6   0    1.50    1.50
   1   6   0    0.90    1.90
   2   6   0    8.60    2.40
   3   6   0  321.67   20.70
   3   6   0  310.77   21.20
   4   6   0   34.60    3.10
   4   6   0   35.80    3.00
   4   6   0   35.40    2.90
   5   6   0  118.19    8.10
   5   6   0  118.29    8.10
   5   6   0  115.89    8.10
   6   6   0    0.90    0.60
   6   6   0    0.90    0.80
   6   6   0    0.60    0.90
   5  -7   0    1.50    0.80
  -5   7   0    1.60    0.90
   4  -7   0   22.50    2.30
   4  -7   0   18.20    2.40
  -4   7   0   24.50    2.60
   3  -7   0  193.68   13.10
   3  -7   0  203.38   13.30
  -3   7   0  195.48   13.70
   2  -7   0  256.37   15.70
   2  -7   0  204.08   16.60
  -2   7   0  243.98   16.20
   1  -7   0   47.20    3.70
  -1   7   0   46.10    3.70
  -1   7   0   52.99    4.60
   0   7   0   41.20    4.10
   0   7   0   40.20    3.20
   1   7   0   16.30    2.00
   1   7   0   19.90    2.70
   1   7   0   16.50    1.90
   2   7   0    1.30    1.60
   2   7   0    1.20    0.80
   2   7   0    0.10    1.00
   2   7   0    0.70    0.70
   2   7   0    0.90    1.20
   3   7   0   12.80    2.20
   3   7   0   18.50    2.20
   3   7   0   15.10    2.20
   3   7   0   17.70    1.90
   4   7   0   38.30    3.10
   4   7   0   37.70    3.30
   5   7   0   73.89    5.10
   5   7   0   68.99    5.10
   5   7   0   73.39    5.00
   6   7   0   43.70    3.20
   6   7   0   49.40    3.50
   4  -8   0    1.10    0.70
   4  -8   0    0.40    0.70
  -4   8   0    1.60    1.30
   3  -8   0   46.40    3.20
   3  -8   0   41.70    3.30
  -3   8   0   39.10    3.60
   2  -8   0    5.60    1.00
  -2   8   0    5.60    1.60
   1  -8   0  103.89    7.40
  -1   8   0  109.29    7.40
  -1   8   0  108.69    8.00
   0   8   0    7.90    1.70
   0   8   0    7.10    1.20
   1   8   0  187.18   12.10
   1   8   0  177.38   12.70
   2   8   0   18.80    2.30
   2   8   0   18.10    1.90
   2   8   0   18.30    1.70
   2   8   0   19.00    1.90
   2   8   0   17.70    2.30
   3   8   0    2.60    0.80
   3   8   0    2.80    0.90
   3   8   0    1.80    1.00
   3   8   0    2.00    1.10
   4   8   0   48.60    3.70
   4   8   0   50.99    3.60
   5   8   0    0.80    0.80
   5   8   0    1.20    0.50
   3  -9   0    8.30    1.10
  -2   9   0   15.40    1.90
   1  -9   0   99.49    7.00
  -1   9   0  105.69    7.10
  -1   9   0  107.99    7.40
   0   9   0    8.20    1.90
   0   9   0   14.70    1.50
   1   9   0   75.39    5.90
   1   9   0   80.49    5.40
   2   9   0    0.10    0.50
   2   9   0    0.60    0.80
   3   9   0   25.70    2.20
   3   9   0   26.30    2.10
   3   9  -1   84.79    6.20
   3   9  -1   95.09    6.10
  -3  -9   1   92.99    6.30
   2   9  -1    1.60    0.50
   2   9  -1    2.70    1.20
   1   9  -1   15.00    1.50
   1   9  -1   13.60    1.90
   0   9  -1    1.30    0.80
   0   9  -1    0.80    1.50
  -1   9  -1   28.10    2.70
  -1   9  -1   29.00    2.30
   1  -9   1   27.40    2.30
  -2   9  -1   91.69    7.20
   2  -9   1  114.89    7.00
   5   8  -1    1.10    0.80
   5   8  -1    2.20    0.50
   4   8  -1  217.28   13.90
   4   8  -1  202.98   13.80
   3   8  -1    7.70    1.10
   3   8  -1    6.30    0.90
   3   8  -1    6.30    1.30
   2   8  -1   92.99    5.80
   2   8  -1   71.79    6.40
   2   8  -1   87.69    6.50
   1   8  -1   32.50    2.60
   1   8  -1   30.50    3.10
   0   8  -1   37.30    3.70
   0   8  -1   42.70    3.20
  -1   8  -1   28.20    2.40
  -1   8  -1   32.10    3.10
   1  -8   1   31.50    2.60
  -2   8  -1    1.60    1.80
   2  -8   1    0.70    0.70
  -3   8  -1   25.60    3.00
   3  -8   1   27.60    2.30
  -4   8  -1    0.80    0.80
   4  -8   1    0.10    0.60
   4  -8   1    0.30    0.70
   5   7  -1   57.29    4.20
   5   7  -1   59.99    4.00
   5   7  -1   48.40    3.90
   4   7  -1   77.99    5.20
   4   7  -1   66.29    5.70
   3   7  -1   -0.70    0.70
   3   7  -1   -0.30    1.00
   3   7  -1   -0.10    1.00
   2   7  -1  221.48   14.00
   2   7  -1  196.38   14.00
   2   7  -1  212.68   14.50
   2   7  -1  209.78   14.00
   2   7  -1  215.58   13.90
   1   7  -1  129.39    8.90
   1   7  -1  129.09    9.40
   1   7  -1  132.79    8.80
   0   7  -1  247.48   16.40
   0   7  -1  249.28   16.90
  -1   7  -1    8.30    2.20
  -1   7  -1    4.30    1.00
   1  -7   1    6.60    1.20
  -2   7  -1   14.30    2.60
   2  -7   1   13.60    1.80
  -3   7  -1   95.79    7.20
   3  -7   1   85.29    6.60
   3  -7   1   98.89    6.50
  -4   7  -1  108.39    7.40
   4  -7   1  111.39    7.10
   4  -7   1  101.09    6.80
   4  -7   1   83.49    6.90
   5  -7   1   21.00    1.90
   5  -7   1   16.50    1.70
   6   6  -1    0.10    0.80
   6   6  -1   -1.00    1.10
   5   6  -1   29.20    3.00
   5   6  -1   30.00    2.70
   5   6  -1   29.90    2.50
   4   6  -1   16.50    1.80
   4   6  -1   13.10    2.20
   4   6  -1   14.00    1.60
   4   6  -1    8.60    1.50
   3   6  -1  627.44   41.00
   3   6  -1  657.73   40.90
   3   6  -1  607.04   41.20
  -2  -6   1   28.70    3.00
   1   6  -1  718.93   47.30
   1   6  -1  751.82   47.70
  -1  -6   1  676.33   47.00
   0   6  -1  170.88   12.70
   0   6  -1  171.68   12.70
   0  -6   1  173.68   12.20
  -1   6  -1  237.38   16.50
  -2   6  -1    4.20    2.00
   2  -6   1    1.80    1.70
  -3   6  -1   31.80    3.70
   3  -6   1   28.90    2.50
   3  -6   1   25.90    2.80
  -4   6  -1   35.20    4.00
   4  -6   1   42.50    3.30
   4  -6   1   33.90    2.80
   5  -6   1    9.00    1.40
   5  -6   1   10.60    1.50
   6  -6   1   69.99    4.50
   6  -6   1   57.69    4.50
   7   5  -1    1.50    0.50
   7   5  -1    1.20    0.80
   6   5  -1    5.50    1.20
   6   5  -1    6.00    1.10
   5   5  -1   26.10    2.60
   5   5  -1   24.20    2.50
   5   5  -1   24.70    2.50
   4   5  -1   84.29    6.20
   4   5  -1   86.39    6.00
   4   5  -1   86.19    6.10
   3   5  -1  268.47   19.00
   2   5  -1    6.50    2.10
   2   5  -1   12.50    2.90
  -2  -5   1    8.20    1.70
   1   5  -1 1024.00   63.89
   1   5  -1  925.61   63.39
  -1  -5   1  971.00   63.29
   0   5  -1  513.35   35.80
   0   5  -1  557.94   35.90
   0  -5   1  542.95   35.40
  -1   5  -1  246.18   16.60
   1  -5   1  239.28   16.60
  -2   5  -1   31.30    3.30
   2  -5   1   30.30    3.20
  -3   5  -1    2.30    1.60
   3  -5   1    1.50    1.60
  -4   5  -1  173.78   12.50
   4  -5   1  192.48   12.10
   4  -5   1  170.88   11.80
   5  -5   1   37.70    3.50
   5  -5   1   46.40    3.90
   5  -5   1   46.70    3.70
   6  -5   1   11.30    2.60
   6  -5   1   16.80    2.20
   6  -5   1   15.70    1.90
   7   4  -1   26.20    2.20
   7   4  -1   24.30    2.30
   6   4  -1    0.30    0.70
   6   4  -1    0.20    1.50
   5   4  -1   63.09    5.90
   5   4  -1   59.09    4.70
   5   4  -1   65.09    5.00
   5   4  -1   64.29    4.70
   4   4  -1    0.50    2.00
   3   4  -1   45.50    4.70
   2   4  -1 2147.39  140.29
   2   4  -1 2049.59  140.09
   2   4  -1 2291.77  140.49
  -2  -4   1 2199.58  139.89
   1   4  -1   16.40    2.20
   1   4  -1   17.60    2.40
   1   4  -1   16.70    2.60
  -1  -4   1   16.60    2.00
   0   4  -1  584.34   39.50
   0   4  -1  586.04   39.80
   0  -4   1  647.84   39.60
  -1   4  -1   -0.10    1.20
  -1   4  -1    1.10    1.30
   1  -4   1    0.70    1.20
  -2   4  -1  670.03   42.80
  -2   4  -1  593.34   42.50
   2  -4   1  702.03   42.70
  -3   4  -1    6.20    1.70
  -3   4  -1    4.70    1.70
   3  -4   1    7.20    1.80
  -4   4  -1   -0.40    1.40
  -4   4  -1    1.50    1.30
   4  -4   1    2.20    1.70
   5  -4   1   19.10    3.20
   5  -4   1   18.20    2.00
   5  -4   1   18.30    2.50
   5  -4   1   18.40    2.30
   6  -4   1    0.10    1.10
   6  -4   1   -0.40    1.20
   6  -4   1    0.40    1.30
   7  -4   1   73.19    5.20
   7  -4   1   76.79    5.40
   7   3  -1   51.59    4.30
   7   3  -1   63.29    4.20
   6   3  -1   52.49    5.30
   6   3  -1   56.59    4.60
   6   3  -1   54.59    4.20
   5   3  -1  384.66   25.20
   5   3  -1  329.37   24.20
   4   3  -1    2.40    2.20
   4   3  -1    2.40    1.80
   3   3  -1   27.70    3.30
   3   3  -1   31.60    3.20
   2   3  -1  130.59    9.20
   2   3  -1  137.59    9.60
   2   3  -1  143.89    9.80
  -2  -3   1  122.99    9.20
  -2  -3   1  134.79    9.00
   1   3  -1  133.29    9.80
   1   3  -1  149.69   10.00
   1   3  -1  141.69    9.70
   1   3  -1  133.89    9.70
  -1  -3   1  142.79    9.50
  -1  -3   1  141.59    9.90
   0   3  -1 2097.99  135.49
   0   3  -1 2039.40  135.59
   0   3  -1 2003.70  135.19
   0  -3   1 2213.88  135.29
   0  -3   1 2157.88  135.69
  -1   3  -1  754.62   50.59
  -1   3  -1  752.22   50.39
  -1   3  -1  813.02   50.29
  -1   3  -1  734.53   49.99
   1  -3   1  834.82   50.29
   1  -3   1  764.32   50.69
  -2   3  -1  853.61   56.59
  -2   3  -1  886.71   56.69
   2  -3   1  884.11   56.59
  -3   3  -1   36.20    3.40
  -3   3  -1   38.50    3.20
   3  -3   1   32.30    3.10
  -4   3  -1  236.18   15.50
  -4   3  -1  227.48   15.70
   4  -3   1  224.78   15.60
   5  -3   1   75.49    5.80
   5  -3   1   79.99    5.70
   5  -3   1   64.09    6.00
   6  -3   1   28.20    3.10
   6  -3   1   34.80    4.00
   6  -3   1   26.70    2.60
   7  -3   1   20.00    2.30
   7  -3   1   14.60    2.40
   7  -3   1   19.60    2.00
   7   2  -1   16.70    2.40
   6   2  -1  147.29   11.40
   6   2  -1  175.48   11.20
   5   2  -1   43.80    4.40
   5   2  -1   35.60    4.20
   4   2  -1  489.25   32.90
   4   2  -1  504.35   33.40
   3   2  -1   12.30    2.10
   3   2  -1   16.40    2.40
   2   2  -1   44.50    4.30
   2   2  -1   40.80    3.50
   2   2  -1   47.80    3.70
   2   2  -1   47.70    4.00
  -2  -2   1   45.80    3.30
  -2  -2   1   47.10    3.30
   1   2  -1 7616.54  494.85
   1   2  -1 7771.22  494.15
   1   2  -1 7642.54  495.15
   1   2  -1 7940.21  494.05
   1   2  -1 7247.17  493.95
  -1  -2   1 8165.08  495.15
  -1  -2   1 7628.44  494.25
  -1  -2   1 7517.35  494.85
   0   2  -1  136.99   10.00
   0   2  -1  139.39    9.80
   0   2  -1  156.48   10.20
   0   2  -1  150.18   10.10
   0  -2   1  156.28   10.20
   0  -2   1  147.79    9.90
   0  -2   1  152.68   10.10
  -1   2  -1 1708.83  103.89
  -1   2  -1 1564.94  103.79
  -1   2  -1 1524.55  103.69
  -1   2  -1 1567.54  103.59
   1  -2   1 1711.73  103.99
   1  -2   1 1586.14  103.59
  -2   2  -1  232.08   15.90
  -2   2  -1  244.28   15.70
  -2   2  -1  227.78   15.80
   2  -2   1  253.37   15.70
   2  -2   1  232.88   16.10
  -3   2  -1  451.65   29.60
   3  -2   1  456.05   29.60
  -4   2  -1   20.80    2.50
   4  -2   1   19.60    2.40
  -5   2  -1    9.70    2.10
   5  -2   1   12.30    2.40
   6  -2   1    1.40    1.40
   6  -2   1    1.50    1.90
   6  -2   1    0.70    1.10
   7  -2   1   33.50    3.30
   7  -2   1   35.70    3.90
   7   1  -1   16.40    2.60
   6   1  -1  135.79    9.80
   6   1  -1  129.19    9.80
   6   1  -1  135.69    9.40
   5   1  -1   65.39    5.90
   5   1  -1   67.79    5.60
   4   1  -1  244.98   17.50
   4   1  -1  259.77   17.20
   3   1  -1  205.68   15.40
   3   1  -1  261.47   15.80
   3   1  -1  238.58   15.90
   2   1  -1    2.40    1.00
   2   1  -1    1.00    0.40
   2   1  -1    2.50    1.50
   2   1  -1    2.80    1.50
  -2  -1   1    1.90    0.60
   1   1  -1    7.40    1.10
   1   1  -1    7.70    1.10
   1   1  -1    5.90    1.00
   1   1  -1    8.80    1.30
  -1  -1   1    5.00    0.80
  -1  -1   1    4.40    0.70
   0   1  -1  221.88   14.80
   0   1  -1  232.18   14.80
   0  -1   1  216.78   14.80
   0  -1   1  236.18   14.90
  -1   1  -1  965.10   59.19
  -1   1  -1  823.32   58.99
  -1   1  -1  950.90   59.19
   1  -1   1  863.51   59.19
   1  -1   1  987.00   59.19
  -2   1  -1  437.66   27.80
  -2   1  -1  381.96   27.70
  -2   1  -1  439.76   27.80
   2  -1   1  453.25   27.80
   2  -1   1  442.96   28.00
   2  -1   1  415.06   27.90
  -3   1  -1  716.23   49.40
   3  -1   1  787.12   49.60
   3  -1   1  795.72   49.80
   4  -1   1   53.09    4.30
   4  -1   1   53.79    4.90
  -5   1  -1  105.19    7.90
   5  -1   1  104.79    7.80
   6  -1   1  153.18   10.60
   6  -1   1  149.79   11.00
   7  -1   1    1.60    1.80
   7  -1   1   -0.20    1.30
   8  -1   1    2.40    1.00
   8   0  -1    3.10    1.20
   7   0  -1   27.50    3.30
   6   0  -1   44.10    4.60
   5   0  -1  228.48   15.80
   4   0  -1    2.20    1.60
   4   0  -1    2.80    1.50
  -4   0   1    1.30    1.10
   3   0  -1 2494.05  148.49
   3   0  -1 2389.56  148.69
   3   0  -1 2031.40  148.29
  -3   0   1 2316.07  148.29
   2   0  -1   41.40    3.10
   2   0  -1   37.90    3.00
   2   0  -1   48.80    3.50
   2   0  -1   42.80    3.10
   2   0  -1   51.89    3.40
  -2   0   1   39.10    3.00
  -2   0   1   44.60    3.20
   1   0  -1  329.57   20.10
   1   0  -1  323.47   20.10
  -1   0   1  265.17   20.00
  -1   0   1  320.57   20.00
   0   0  -1  530.05   33.10
   0   0  -1  481.15   33.10
   0   0   1  524.95   33.10
   0   0   1  520.55   33.20
  -1   0  -1   33.40    2.40
  -1   0  -1   33.00    2.30
   1   0   1   33.10    2.30
   1   0   1   31.50    2.30
  -2   0  -1  829.52   58.59
   2   0   1  819.42   58.79
   2   0   1  905.41   58.69
   2   0   1  936.01   58.69
   2   0   1  974.00   58.79
   2   0   1 1010.70   58.89
  -3   0  -1  396.66   28.10
   3   0   1  425.06   28.30
   3   0   1  427.16   28.20
   3   0   1  476.95   28.40
   4   0   1  289.47   18.90
   4   0   1  269.87   18.70
  -5   0  -1   30.30    3.10
   5   0   1   30.10    3.80
   5   0   1   25.70    3.10
   6   0   1   29.20    3.50
   6   0   1   31.50    3.70
   6   0   1   34.80    3.30
   7   0   1    0.10    1.30
   7   0   1    0.00    1.00
   8   0   1    6.60    1.30
   7  -1  -1   36.80    3.40
   7  -1  -1   42.60    4.10
   6  -1  -1   20.60    3.00
   6  -1  -1   23.70    2.80
   5  -1  -1  435.06   27.60
  -5   1   1  389.86   27.30
   4  -1  -1  267.47   18.00
  -4   1   1  270.17   18.00
   3  -1  -1  366.86   25.50
   3  -1  -1  413.26   25.50
  -3   1   1  360.36   25.20
  -3   1   1  415.36   25.40
   2  -1  -1   84.59    6.10
   2  -1  -1   95.39    6.20
   2  -1  -1   87.19    6.20
  -2   1   1   82.09    6.00
  -2   1   1   90.69    6.10
  -2   1   1   92.69    6.20
   1  -1  -1  651.93   45.40
   1  -1  -1  726.83   45.40
   1  -1  -1  698.63   45.20
  -1   1   1  678.83   45.40
  -1   1   1  672.33   45.20
  -1   1   1  787.62   45.40
   0  -1  -1   67.59    4.70
   0  -1  -1   69.99    4.70
   0   1   1   70.39    4.70
   0   1   1   65.59    4.70
  -1  -1  -1  134.49    8.90
  -1  -1  -1  142.19    8.90
   1   1   1  131.59    8.90
   1   1   1  133.99    8.90
   2   1   1 1133.39   76.69
   2   1   1 1213.08   76.69
   2   1   1 1156.88   76.39
   2   1   1 1253.07   76.49
   3   1   1  164.58   10.80
   3   1   1  154.48   10.90
   3   1   1  148.59   10.60
   4   1   1 1110.79   70.99
   4   1   1 1040.40   70.89
   4   1   1 1131.39   71.29
   5   1   1   93.39    7.40
   6   1   1  109.99    8.30
   7   1   1   60.79    5.20
   7  -2  -1   18.00    2.00
   7  -2  -1   19.70    3.00
   6  -2  -1   58.39    5.30
   6  -2  -1   54.59    4.50
   5  -2  -1   18.60    2.70
  -5   2   1   16.50    2.50
   4  -2  -1  319.07   21.80
  -4   2   1  337.17   21.90
   3  -2  -1   74.29    5.60
  -3   2   1   78.59    5.60
  -3   2   1   73.99    5.40
   2  -2  -1 1374.06   83.59
   2  -2  -1 1146.59   83.49
  -2   2   1 1254.97   83.59
  -2   2   1 1282.07   83.79
  -2   2   1 1432.56   83.59
   1  -2  -1   39.30    3.20
   1  -2  -1   45.90    3.60
   1  -2  -1   40.20    3.10
  -1   2   1   41.60    3.40
  -1   2   1   45.00    3.20
  -1   2   1   41.50    3.30
  -1   2   1   46.00    3.50
   0  -2  -1  143.69    9.70
   0  -2  -1  152.78   10.00
   0  -2  -1  142.59    9.90
   0   2   1  139.69    9.70
   0   2   1  139.19    9.90
   0   2   1  158.58   10.00
  -1  -2  -1  235.98   16.00
  -1  -2  -1  245.28   16.20
  -1  -2  -1  264.37   16.30
   1   2   1  236.58   16.30
   1   2   1  258.87   16.30
   1   2   1  240.88   16.20
   1   2   1  238.28   16.30
  -2  -2  -1  246.18   16.80
  -2  -2  -1  266.37   16.80
   2   2   1  257.07   17.00
   2   2   1  269.07   17.40
   2   2   1  259.67   17.20
   3   2   1  427.76   29.40
   3   2   1  466.05   29.80
   3   2   1  450.05   29.30
   4   2   1   10.00    2.00
   4   2   1    8.60    1.90
   4   2   1   15.80    2.80
   5   2   1  433.66   29.50
   6   2   1   22.70    3.40
   7   2   1   19.30    3.10
   7  -3  -1   18.60    2.70
   7  -3  -1   16.50    2.20
   6  -3  -1   21.40    2.50
   6  -3  -1   20.60    2.40
   6  -3  -1   23.20    3.40
   5  -3  -1    0.30    1.80
   5  -3  -1    2.00    1.10
   5  -3  -1    2.00    1.40
   4  -3  -1  325.97   21.50
  -4   3   1  316.77   21.60
   3  -3  -1   91.39    6.80
  -3   3   1   94.59    6.90
  -3   3   1   96.29    6.80
   2  -3  -1  159.98   11.10
  -2   3   1  163.88   11.20
  -2   3   1  172.08   11.20
   1  -3  -1  192.38   13.90
   1  -3  -1  198.68   13.50
  -1   3   1  199.48   13.30
  -1   3   1  195.68   13.80
  -1   3   1  221.88   13.50
   0  -3  -1  428.06   28.00
   0  -3  -1  453.25   27.60
   0   3   1  432.46   27.60
   0   3   1  415.16   27.70
   0   3   1  430.46   27.90
   0   3   1  378.66   27.40
  -1  -3  -1   28.40    2.40
  -1  -3  -1   28.80    2.70
   1   3   1   27.70    2.70
   1   3   1   28.90    3.00
   1   3   1   29.20    3.50
   1   3   1   27.70    2.70
  -2  -3  -1  113.89    7.70
  -2  -3  -1  107.19    7.80
   2   3   1  120.29    8.20
   2   3   1  114.39    8.30
   3   3   1   98.99    7.20
   3   3   1   99.69    7.40
   3   3   1  102.39    7.80
   4   3   1   89.79    7.10
   4   3   1  101.59    7.90
   4   3   1   88.29    7.00
   5   3   1  413.76   28.50
   6   3   1   28.40    2.60
   6   3   1   33.00    4.00
   6   3   1   24.60    3.50
   7   3   1   46.20    4.50
   7  -4  -1   22.50    2.50
   7  -4  -1   29.50    2.50
   6  -4  -1   43.80    3.70
   6  -4  -1   54.59    3.80
   6  -4  -1   37.50    3.90
  -6   4   1   51.79    4.30
   5  -4  -1   15.60    2.60
   5  -4  -1   19.10    2.60
   5  -4  -1   17.40    2.20
   4  -4  -1    2.50    1.60
  -4   4   1    0.60    1.40
  -4   4   1    5.40    1.70
   3  -4  -1  205.88   15.10
  -3   4   1  233.68   15.20
  -3   4   1  229.48   15.20
   2  -4  -1  496.55   33.80
  -2   4   1  542.35   34.00
  -2   4   1  514.85   33.90
   1  -4  -1  609.34   38.20
  -1   4   1  535.45   37.90
  -1   4   1  607.94   38.20
   0  -4  -1   58.99    4.50
   0   4   1   54.89    4.40
   0   4   1   54.99    4.80
  -1  -4  -1  459.65   30.70
   1   4   1  477.95   31.00
   1   4   1  470.45   31.10
  -2  -4  -1   13.80    1.80
   2   4   1   13.00    2.30
   2   4   1   13.10    2.60
   3   4   1  438.46   29.60
   3   4   1  450.55   30.00
   4   4   1  157.08   11.60
   4   4   1  138.29   10.70
   5   4   1    6.50    1.10
   5   4   1    9.30    1.60
   5   4   1   10.30    1.40
   5   4   1   10.30    2.20
   6   4   1   76.59    6.10
   6   4   1   62.49    5.20
   6   4   1   72.39    5.10
   7   4   1    6.30    0.90
   6  -5  -1   20.30    2.10
   6  -5  -1   19.70    2.40
  -6   5   1   14.70    2.10
   5  -5  -1   13.50    1.70
   5  -5  -1   13.40    1.90
  -5   5   1   11.50    2.00
   4  -5  -1   11.30    1.40
   4  -5  -1   10.90    1.60
   4  -5  -1   11.80    1.80
  -4   5   1   12.90    2.10
   3  -5  -1  130.59    9.50
  -3   5   1  128.49    9.60
  -3   5   1  137.89    9.70
   2  -5  -1   46.10    4.00
  -2   5   1   48.50    4.30
   1  -5  -1  198.98   13.80
   1  -5  -1  200.38   13.60
  -1   5   1  199.58   13.80
   0  -5  -1    1.60    1.10
   0   5   1    2.00    1.90
   0   5   1    2.20    1.20
  -1  -5  -1  695.03   47.40
   1   5   1  758.22   47.80
  -2  -5  -1   89.29    6.60
   2   5   1   88.79    7.10
   3   5   1    1.00    2.40
   3   5   1   -0.60    2.00
   4   5   1   89.09    8.00
   5   5   1    2.90    0.70
   5   5   1    4.10    1.40
   5   5   1    5.00    1.20
   5   5   1    5.60    1.90
   6   5   1   49.10    3.90
   6   5   1   48.90    3.70
   6   5   1   53.09    4.00
   7   5   1   22.10    2.00
   6  -6  -1   28.90    2.20
   6  -6  -1   23.00    2.30
  -6   6   1   24.30    2.40
   5  -6  -1   30.10    3.00
   5  -6  -1   42.90    3.20
  -5   6   1   41.20    3.70
   4  -6  -1    2.00    1.20
   4  -6  -1    2.30    0.80
   4  -6  -1    2.40    1.30
  -4   6   1    0.50    2.10
   3  -6  -1    1.30    1.30
   3  -6  -1    0.80    0.90
  -3   6   1    2.30    2.10
   2  -6  -1   25.20    2.90
  -2   6   1   23.60    3.00
   1  -6  -1   81.69    6.50
   1  -6  -1   81.69    6.20
  -1   6   1   79.99    6.50
   0  -6  -1  839.02   54.79
   0   6   1  833.82   55.19
  -1  -6  -1  279.57   19.10
   1   6   1  281.97   19.50
  -2  -6  -1   79.49    5.90
   2   6   1   67.59    6.30
   4   6   1   35.50    3.20
   4   6   1   31.00    2.70
   4   6   1   29.50    3.00
   4   6   1   34.50    2.80
   5   6   1   24.40    2.40
   5   6   1   28.10    2.50
   5   6   1   24.50    2.40
   6   6   1    3.60    0.80
   6   6   1    3.40    0.80
   6   6   1    2.10    0.90
   5  -7  -1   15.40    1.50
  -5   7   1   15.70    1.80
   4  -7  -1    3.00    1.10
  -4   7   1    4.70    1.50
   3  -7  -1   93.49    6.90
   3  -7  -1  102.79    6.70
  -3   7   1   90.29    7.40
   2  -7  -1   36.40    3.00
   2  -7  -1   32.30    3.20
  -2   7   1   32.70    4.00
   1  -7  -1   11.70    1.50
  -1   7   1   12.40    2.50
  -1   7   1   10.90    1.40
   0   7   1  226.78   15.90
   0   7   1  239.88   15.50
   1   7   1   19.10    1.80
   1   7   1   13.80    1.60
   1   7   1   12.40    2.30
   1   7   1   11.10    1.40
   2   7   1  209.18   14.40
   2   7   1  227.98   14.30
   2   7   1  214.58   14.10
   2   7   1  208.68   14.30
   3   7   1    0.60    1.20
   3   7   1   -0.10    1.20
   3   7   1    1.10    0.80
   4   7   1    1.00    1.10
   4   7   1    0.60    0.70
   4   7   1   -0.30    0.60
   4   7   1    0.90    0.90
   5   7   1    6.40    1.00
   5   7   1    8.40    1.00
   5   7   1    4.80    1.30
   6   7   1    0.80    0.70
   6   7   1    0.20    0.60
   6   7   1    1.10    0.70
   4  -8  -1   34.70    2.80
  -4   8   1   40.40    3.30
   3  -8  -1    4.10    0.90
   3  -8  -1    6.50    1.00
  -3   8   1    4.20    1.90
   2  -8  -1   25.70    2.30
   2  -8  -1   27.90    3.00
  -2   8   1   29.10    3.40
   1  -8  -1    0.90    0.90
  -1   8   1    2.30    1.50
  -1   8   1    2.90    0.90
   0   8   1   72.79    5.10
   0   8   1   68.29    5.80
   1   8   1  156.88   10.90
   1   8   1  150.48   10.50
   2   8   1   14.10    1.50
   2   8   1   13.30    1.50
   2   8   1   12.90    1.40
   2   8   1   12.10    2.10
   2   8   1   13.70    1.80
   3   8   1  101.59    7.30
   3   8   1  106.89    7.40
   3   8   1  113.39    7.40
   4   8   1   35.30    2.70
   4   8   1   38.40    3.10
   4   8   1   31.20    2.60
   5   8   1   12.40    1.20
   5   8   1   12.40    1.40
   3  -9  -1   -0.40    0.70
  -3   9   1   -1.10    1.10
  -2   9   1   92.89    6.80
  -1   9   1    1.70    1.70
   0   9   1    1.10    1.20
   0   9   1    0.90    0.70
   1   9   1    5.00    1.60
   1   9   1    4.90    0.80
   2   9   1   38.70    3.00
   2   9   1   39.10    2.90
   2   9   1   40.20    2.80
   3   9   1  103.19    6.70
   3   9   1   97.69    6.80
   4   9   1    0.50    0.70
   4   9   1    0.00    0.30
   3   9  -2   15.80    1.70
  -3  -9   2   12.70    1.20
   2   9  -2   61.89    4.50
   1   9  -2  126.69    9.00
   1   9  -2  130.09    8.50
   0   9  -2    3.60    1.10
   0   9  -2    2.30    0.80
  -1   9  -2   35.80    3.10
  -1   9  -2   29.20    2.40
   1  -9   2   32.00    2.50
  -2   9  -2   16.90    1.90
  -2   9  -2   20.10    1.90
   2  -9   2   18.50    1.60
   4   8  -2   37.20    2.70
   4   8  -2   34.30    2.90
   4   8  -2   34.00    2.70
   3   8  -2   28.30    2.30
   3   8  -2   30.50    2.90
   2   8  -2   96.69    6.60
   2   8  -2  100.29    7.30
   1   8  -2   15.00    1.70
   1   8  -2   15.60    2.40
   0   8  -2  187.88   13.00
   0   8  -2  207.18   13.60
  -1   8  -2   19.20    2.80
  -1   8  -2   16.20    1.80
   1  -8   2   12.90    1.50
  -2   8  -2   10.40    1.80
   2  -8   2   10.90    1.30
  -3   8  -2   -0.60    1.40
   3  -8   2   -0.90    0.80
  -4   8  -2   25.10    2.50
   4  -8   2   31.10    2.10
   4  -8   2   27.30    2.30
   5   7  -2   17.70    1.70
   5   7  -2   17.90    1.80
   5   7  -2   17.30    1.60
   4   7  -2   25.90    2.10
   4   7  -2   21.40    2.30
   4   7  -2   23.30    2.20
   3   7  -2    0.80    1.40
   3   7  -2    1.30    1.00
   3   7  -2    0.30    0.50
   2   7  -2   77.89    6.10
   2   7  -2   79.49    5.40
   2   7  -2   74.99    5.90
   1   7  -2   42.40    3.30
   1   7  -2   41.40    4.10
   0   7  -2   30.30    2.50
   0   7  -2   26.00    3.00
  -1   7  -2  157.88   10.50
  -1   7  -2  135.99    9.70
   1  -7   2  142.09    9.70
  -2   7  -2  134.49    9.80
   2  -7   2  134.39    9.10
  -3   7  -2   74.89    6.30
   3  -7   2   93.29    6.00
  -4   7  -2   25.70    2.80
   4  -7   2   20.20    2.40
   4  -7   2   23.70    2.00
   4  -7   2   21.00    2.30
   5  -7   2    8.90    1.20
   5  -7   2   10.80    1.30
   6   6  -2   73.79    5.50
   6   6  -2   79.29    5.40
   5   6  -2   14.70    2.30
   5   6  -2   15.40    1.70
   5   6  -2   15.30    1.70
   4   6  -2   38.70    3.20
   4   6  -2   39.00    3.30
   4   6  -2   40.80    3.30
   4   6  -2   40.90    3.80
   3   6  -2   59.99    4.30
   3   6  -2   55.19    4.40
   3   6  -2   57.29    4.80
  -2  -6   2   84.59    6.70
   1   6  -2   14.20    2.90
  -1  -6   2    9.00    1.80
   0   6  -2   32.40    4.30
  -1   6  -2  338.77   23.00
   2  -6   2   61.69    5.20
  -3   6  -2   63.59    5.30
   3  -6   2   60.39    4.40
   3  -6   2   57.49    4.50
  -4   6  -2   12.10    2.60
   4  -6   2    9.80    1.50
   4  -6   2   12.60    1.40
   4  -6   2    9.30    1.80
   5  -6   2   61.89    4.00
   5  -6   2   45.30    3.90
   6  -6   2    4.90    0.90
   6  -6   2    3.80    0.70
   6   5  -2   82.59    6.00
   6   5  -2   84.49    5.80
   5   5  -2    3.60    1.70
   5   5  -2    4.30    1.10
   5   5  -2    3.00    1.00
   5   5  -2    4.10    1.20
   4   5  -2  137.49    9.90
   4   5  -2  139.09    9.50
   4   5  -2  143.59    9.60
   4   5  -2  138.09    9.40
   3   5  -2   10.60    2.80
   2   5  -2    6.80    2.60
  -2  -5   2    9.50    1.90
   1   5  -2  182.78   13.30
  -1  -5   2  183.98   12.80
   0   5  -2   10.30    2.20
   0  -5   2   12.80    2.10
  -1   5  -2  366.16   22.20
  -1   5  -2  309.37   22.40
   1  -5   2  309.07   22.00
  -2   5  -2   46.30    4.40
   2  -5   2   49.30    4.20
  -3   5  -2  240.28   16.40
   3  -5   2  233.98   16.30
   4  -5   2   74.89    5.30
   4  -5   2   78.29    5.60
   5  -5   2   64.29    4.50
   5  -5   2   62.59    4.70
   5  -5   2   47.70    4.20
   6  -5   2   21.30    2.80
   6  -5   2   17.20    2.10
   6  -5   2   15.60    1.70
   6  -5   2   16.30    1.60
   7   4  -2   13.20    1.90
   7   4  -2   11.80    1.30
   6   4  -2   31.70    3.40
   6   4  -2   36.10    3.00
   5   4  -2  209.78   13.40
   5   4  -2  198.68   13.50
   5   4  -2  193.28   13.40
   5   4  -2  198.38   13.70
   4   4  -2    1.10    2.20
   3   4  -2  101.69    8.30
   2   4  -2  173.88   12.90
   2   4  -2  198.78   13.30
  -2  -4   2  176.78   12.50
   1   4  -2  441.36   29.30
  -1  -4   2  433.56   28.80
   0   4  -2  188.48   12.90
   0   4  -2  188.78   13.40
   0  -4   2  192.58   13.00
  -1   4  -2  159.18   10.80
  -1   4  -2  152.18   11.10
   1  -4   2  152.18   10.70
  -2   4  -2   92.79    6.80
   2  -4   2   89.49    6.70
  -3   4  -2   78.09    5.90
  -3   4  -2   74.29    5.90
   3  -4   2   75.69    5.90
  -4   4  -2  177.98   12.70
  -4   4  -2  178.48   12.70
   4  -4   2  187.78   12.70
   5  -4   2    1.50    1.20
   5  -4   2    4.50    1.30
   5  -4   2    2.90    1.40
   5  -4   2    3.60    2.00
   6  -4   2  112.29    8.50
   6  -4   2  132.09    8.30
   6  -4   2  122.39    8.40
   7  -4   2    1.90    1.50
   7  -4   2    1.10    0.80
   7  -4   2    1.10    1.00
   7   3  -2   48.30    3.60
   7   3  -2   37.70    3.10
   6   3  -2    1.20    1.10
   6   3  -2    0.30    1.60
   5   3  -2   10.50    2.20
   5   3  -2   13.90    1.70
   5   3  -2   12.80    2.50
   5   3  -2   13.10    2.00
   5   3  -2    9.90    1.50
   4   3  -2   94.49    7.30
   4   3  -2   87.29    7.60
   3   3  -2  538.25   36.40
   3   3  -2  554.04   36.00
   2   3  -2    4.70    1.70
   2   3  -2    4.40    1.90
  -2  -3   2    5.80    1.30
   1   3  -2  281.97   17.90
   1   3  -2  258.67   17.60
   1   3  -2  241.98   17.80
   1   3  -2  258.47   17.40
  -1  -3   2  274.87   17.40
   0   3  -2  252.87   18.00
   0   3  -2  279.97   18.00
   0   3  -2  259.97   17.70
   0  -3   2  283.07   17.70
   0  -3   2  259.47   18.10
  -1   3  -2   88.59    6.70
  -1   3  -2   90.29    6.30
   1  -3   2   80.69    6.60
   1  -3   2   87.49    6.30
  -2   3  -2  475.85   33.30
  -2   3  -2  522.15   33.00
   2  -3   2  517.15   32.90
  -3   3  -2  135.19    9.10
  -3   3  -2  122.79    9.00
   3  -3   2  131.69    9.10
  -4   3  -2  171.38   12.30
  -4   3  -2  179.28   12.40
   4  -3   2  186.38   12.40
   5  -3   2  119.49    8.40
   5  -3   2  119.39    8.90
   5  -3   2  119.29    8.30
   5  -3   2  112.69    8.10
   6  -3   2   79.49    6.00
   6  -3   2   93.79    6.90
   6  -3   2   64.39    5.40
   6  -3   2   82.39    5.80
   7  -3   2   12.00    1.50
   7  -3   2   10.90    1.70
   7  -3   2   16.00    2.80
   7   2  -2    4.20    1.20
   6   2  -2    6.10    1.50
   6   2  -2    3.90    1.20
   6   2  -2    6.50    2.00
   5   2  -2   15.80    3.00
   5   2  -2    7.90    2.10
   4   2  -2  631.74   42.10
   3   2  -2   57.99    4.70
   3   2  -2   49.99    4.60
   2   2  -2   41.70    3.90
   2   2  -2   47.90    3.80
   2   2  -2   44.40    3.60
  -2  -2   2   43.60    3.30
  -2  -2   2   41.10    3.40
   1   2  -2  160.48   10.20
   1   2  -2  151.88   10.40
   1   2  -2  137.69   10.10
   1   2  -2  158.08   10.30
   1   2  -2  147.99   10.30
  -1  -2   2  144.19   10.20
  -1  -2   2  146.09   10.00
  -1  -2   2  160.68   10.40
   0   2  -2  943.81   59.79
   0   2  -2  914.71   59.69
   0   2  -2  923.31   59.49
   0  -2   2  908.91   59.49
   0  -2   2  899.61   59.69
   0  -2   2  947.71   59.79
  -1   2  -2   16.10    2.20
  -1   2  -2   10.80    1.80
  -1   2  -2   15.10    2.00
  -1   2  -2   13.80    1.60
   1  -2   2   12.50    1.60
   1  -2   2   13.60    2.10
  -2   2  -2  162.58   10.80
  -2   2  -2  150.78   11.00
  -2   2  -2  171.48   11.30
   2  -2   2  156.28   11.20
   2  -2   2  161.28   10.70
  -3   2  -2  236.88   15.90
   3  -2   2  243.68   15.90
   4  -2   2  301.97   20.10
  -5   2  -2  123.39    9.10
   6  -2   2   10.50    1.50
   6  -2   2   10.00    1.60
   6  -2   2    5.90    1.20
   6  -2   2    7.50    2.30
   7  -2   2   58.79    5.60
   7  -2   2   79.19    5.50
   7  -2   2   77.79    5.20
   7   1  -2   14.60    2.00
   7   1  -2   12.00    2.00
   6   1  -2   87.29    7.30
   6   1  -2   94.29    7.30
   6   1  -2   96.29    6.70
   5   1  -2    7.50    2.60
   5   1  -2    3.10    1.70
   4   1  -2   74.99    5.90
   4   1  -2   70.19    6.10
   3   1  -2    1.80    1.40
   3   1  -2    3.20    1.80
   2   1  -2 1431.86  100.19
   2   1  -2 1615.04  100.39
   2   1  -2 1710.43  100.19
  -2  -1   2 1476.55   99.89
  -2  -1   2 1545.65   99.99
   1   1  -2   39.00    3.00
   1   1  -2   42.50    3.30
   1   1  -2   36.60    3.00
   1   1  -2   39.10    3.10
   1   1  -2   36.20    3.00
  -1  -1   2   35.70    3.00
  -1  -1   2   34.60    2.80
  -1  -1   2   42.60    3.10
   0   1  -2   13.30    1.60
   0   1  -2   15.70    1.80
   0  -1   2   13.70    1.60
   0  -1   2   14.40    1.70
   0  -1   2   12.90    1.60
  -1   1  -2  319.67   23.20
  -1   1  -2  378.86   23.20
  -1   1  -2  372.26   23.20
  -1   1  -2  340.37   23.00
   1  -1   2  343.57   23.10
   1  -1   2  361.76   23.10
   1  -1   2  361.36   23.20
  -2   1  -2   56.59    4.10
  -2   1  -2   52.69    3.90
  -2   1  -2   54.59    4.80
   2  -1   2   56.29    4.40
   2  -1   2   53.89    3.90
   2  -1   2   54.39    4.20
  -3   1  -2 1426.56   95.29
  -3   1  -2 1448.56   94.89
   3  -1   2 1547.45   95.39
   3  -1   2 1477.45   94.99
   4  -1   2  139.49    9.70
   4  -1   2  122.99    9.10
  -5   1  -2  205.08   13.50
   5  -1   2  184.58   14.00
   6  -1   2   23.50    3.30
   6  -1   2   16.90    2.20
   6  -1   2   21.50    2.40
   7  -1   2   55.99    4.90
   7  -1   2   49.50    4.10
   8  -1   2   14.00    2.00
   8  -1   2   14.00    1.90
   7   0  -2    4.40    1.40
   6   0  -2    0.20    1.20
   6   0  -2   -0.70    1.80
   5   0  -2    6.70    1.90
   4   0  -2  163.18   12.40
   4   0  -2  187.68   12.20
   3   0  -2  303.47   20.20
   3   0  -2  306.27   20.50
  -3   0   2  307.37   20.10
   2   0  -2   10.80    1.70
   2   0  -2    8.50    1.20
   2   0  -2   10.50    1.70
  -2   0   2    8.60    1.20
  -2   0   2   10.60    1.40
   1   0  -2  373.26   23.70
   1   0  -2  372.86   23.70
   1   0  -2  348.37   23.70
   1   0  -2  331.07   23.50
  -1   0   2  398.76   23.70
  -1   0   2  327.67   23.50
  -1   0   2  390.46   23.70
   0   0  -2 1050.49   65.69
   0   0  -2  971.00   65.69
   0   0   2 1053.59   65.69
   0   0   2 1002.90   65.69
  -1   0  -2 1119.09   76.69
  -1   0  -2 1281.47   76.69
   1   0   2 1174.88   76.69
  -2   0  -2   70.79    4.80
  -2   0  -2   75.59    4.90
  -2   0  -2   68.69    4.80
  -2   0  -2   72.79    5.20
   2   0   2   57.09    4.90
   2   0   2   74.19    5.00
   2   0   2   80.59    5.40
   2   0   2   73.49    5.00
  -3   0  -2    8.90    1.80
   3   0   2   10.10    1.70
   3   0   2   12.20    2.40
   4   0   2  339.37   22.90
   5   0   2  266.77   18.50
   6   0   2   43.40    3.80
   6   0   2   50.49    4.70
   6   0   2   45.70    4.10
   6   0   2   47.70    4.50
   7   0   2    6.00    1.60
   7   0   2    5.40    1.60
   7   0   2    6.30    1.90
   8   0   2   33.70    2.80
   8   0   2   28.80    2.80
   7  -1  -2    6.10    1.60
   6  -1  -2   42.00    4.20
   5  -1  -2   52.39    4.70
   4  -1  -2   35.50    3.40
  -4   1   2   39.30    3.50
   3  -1  -2    2.90    1.40
   3  -1  -2    5.80    1.70
  -3   1   2    1.60    1.20
  -3   1   2    3.20    1.10
   2  -1  -2  128.29    8.30
   2  -1  -2  121.59    8.50
  -2   1   2  127.19    8.20
  -2   1   2  123.19    8.30
  -2   1   2  111.89    8.30
   1  -1  -2 2157.88  138.59
   1  -1  -2 2373.36  138.99
   1  -1  -2 2145.79  138.79
   1  -1  -2 1960.70  138.89
  -1   1   2 2157.88  138.69
  -1   1   2 2079.59  138.89
  -1   1   2 2426.06  138.89
  -1   1   2 1972.20  138.69
   0  -1  -2   12.50    1.40
   0   1   2   14.60    1.70
   0   1   2   11.40    1.50
  -1  -1  -2    4.10    0.80
  -1  -1  -2    6.00    1.00
  -1  -1  -2    7.00    0.90
   1   1   2    4.90    0.80
   1   1   2    4.70    0.80
   1   1   2    6.30    1.20
  -2  -1  -2  124.79    8.70
   2   1   2  137.99    8.80
   2   1   2  143.19    9.20
   2   1   2  145.19    9.10
   2   1   2  117.29    8.80
   2   1   2  129.79    8.70
   3   1   2   56.99    4.90
   3   1   2   61.79    4.70
   3   1   2   71.89    5.10
  -4  -1  -2  498.85   31.60
   4   1   2  512.15   31.70
   4   1   2  426.76   31.70
   5   1   2   29.90    3.50
   6   1   2   46.80    4.60
   6   1   2   49.00    4.20
   7   1   2    0.50    1.40
   7   1   2    0.80    1.50
   8   1   2   33.10    3.10
   7  -2  -2   47.80    3.70
   7  -2  -2   40.90    3.80
   6  -2  -2   35.00    4.10
   6  -2  -2   31.40    3.30
   5  -2  -2    2.20    1.80
  -5   2   2    3.60    2.00
   4  -2  -2    8.70    1.80
  -4   2   2    8.50    1.80
   3  -2  -2  295.87   19.60
  -3   2   2  296.47   19.70
  -3   2   2  297.07   19.60
   2  -2  -2  437.16   29.00
   2  -2  -2  455.65   28.90
  -2   2   2  425.46   29.20
  -2   2   2  433.96   28.90
  -2   2   2  469.75   29.00
   1  -2  -2  392.66   24.60
   1  -2  -2  394.16   25.00
   1  -2  -2  359.66   24.60
  -1   2   2  393.56   24.70
  -1   2   2  390.56   24.60
  -1   2   2  384.96   24.90
  -1   2   2  334.37   24.90
   0  -2  -2  557.24   34.80
   0  -2  -2  509.15   34.70
   0  -2  -2  542.25   34.50
   0   2   2  501.75   34.40
   0   2   2  508.85   34.50
   0   2   2  530.35   35.10
   0   2   2  579.04   34.80
  -1  -2  -2  548.15   36.80
  -1  -2  -2  566.44   37.00
  -1  -2  -2  610.64   37.00
   1   2   2  576.34   37.00
   1   2   2  578.54   37.00
   1   2   2  537.65   36.70
  -2  -2  -2 2464.85  151.48
  -2  -2  -2 2373.46  151.38
   2   2   2 2504.65  151.88
   2   2   2 2268.47  151.38
   2   2   2 2449.85  151.68
   2   2   2 2087.39  151.38
   3   2   2   37.40    3.20
   3   2   2   43.80    3.80
   3   2   2   44.70    4.10
   4   2   2    8.10    2.20
   4   2   2    7.40    1.90
   5   2   2   18.20    3.60
   5   2   2   15.10    2.70
   6   2   2   42.30    4.40
   7   2   2   41.20    4.20
   8   2   2    0.10    0.80
   7  -3  -2   60.59    4.60
   7  -3  -2   59.79    4.90
   6  -3  -2    1.10    1.10
   6  -3  -2    2.40    1.90
   5  -3  -2  275.47   19.20
   5  -3  -2  299.97   19.70
   4  -3  -2    8.40    2.10
  -4   3   2    6.50    1.70
   3  -3  -2   23.90    2.60
  -3   3   2   26.30    2.80
  -3   3   2   29.90    2.70
   2  -3  -2   63.79    4.80
  -2   3   2   63.09    4.80
  -2   3   2   64.09    4.90
   1  -3  -2   75.39    5.90
   1  -3  -2   70.39    5.30
   1  -3  -2   71.79    5.30
  -1   3   2   77.69    5.30
  -1   3   2   75.49    5.40
   0  -3  -2 2407.76  148.69
   0  -3  -2 2320.17  148.99
   0   3   2 2401.16  148.69
   0   3   2 2160.58  148.49
   0   3   2 2266.27  148.99
  -1  -3  -2  314.17   20.10
  -1  -3  -2  308.07   20.50
   1   3   2  316.27   20.50
   1   3   2  276.47   20.00
   1   3   2  325.67   20.40
   1   3   2  302.97   20.50
  -2  -3  -2   87.09    6.10
   2   3   2   87.99    6.90
   2   3   2   89.39    6.50
   3   3   2  123.39    9.20
   3   3   2  118.99    8.80
   4   3   2  234.68   17.30
   4   3   2  272.37   18.00
   5   3   2    2.90    1.90
   5   3   2    2.90    2.90
   6   3   2   36.30    4.10
   6   3   2   36.30    3.00
   7   3   2   62.29    5.10
   7  -4  -2   18.80    1.90
   7  -4  -2   12.30    2.00
   6  -4  -2   81.79    6.20
   6  -4  -2   84.89    6.00
   6  -4  -2   88.99    6.60
   5  -4  -2  198.68   13.30
   5  -4  -2  198.78   13.60
   4  -4  -2    0.80    1.40
  -4   4   2    0.90    1.20
  -4   4   2    1.10    1.80
   3  -4  -2   60.79    5.00
  -3   4   2   56.89    5.10
  -3   4   2   68.09    5.10
   2  -4  -2   43.10    3.60
  -2   4   2   45.90    3.90
  -2   4   2   42.90    3.70
   1  -4  -2  562.44   37.10
   1  -4  -2  554.44   36.90
  -1   4   2  608.94   37.10
  -1   4   2  542.55   36.90
   0  -4  -2  431.36   25.90
   0   4   2  398.16   25.80
   0   4   2  347.87   25.50
  -1  -4  -2  217.58   14.90
   1   4   2  227.98   15.30
  -2  -4  -2  441.26   29.50
   2   4   2  452.35   30.20
   2   4   2  461.45   29.90
   3   4   2  296.07   20.10
   3   4   2  293.47   20.50
   4   4   2   75.29    6.80
   4   4   2   72.89    6.30
   5   4   2    1.20    1.30
   5   4   2    1.10    1.10
   5   4   2    0.70    1.60
   5   4   2    2.10    1.00
   5   4   2    1.20    1.30
   6   4   2    4.10    1.50
   6   4   2    1.50    1.40
   6   4   2    4.50    1.80
   6   4   2    4.20    1.10
   7   4   2   24.70    3.00
   7   4   2   33.70    2.50
   6  -5  -2  101.49    6.60
   6  -5  -2   78.79    6.10
  -6   5   2   91.79    6.70
   5  -5  -2    9.40    1.70
   5  -5  -2   10.20    1.30
  -5   5   2    7.20    2.20
   4  -5  -2  315.97   20.00
   4  -5  -2  281.57   19.60
   4  -5  -2  304.77   19.90
   3  -5  -2   -0.80    1.30
  -3   5   2    0.00    1.40
  -3   5   2   -0.20    2.00
   2  -5  -2  235.08   16.20
  -2   5   2  238.48   16.20
  -2   5   2  243.18   16.40
   1  -5  -2   16.40    2.50
   1  -5  -2   17.90    2.10
  -1   5   2   15.70    2.10
   0  -5  -2   22.00    2.30
   0   5   2   22.20    3.20
   0   5   2   16.20    2.20
  -1  -5  -2  651.13   44.60
   1   5   2  717.53   45.10
  -2  -5  -2   10.60    1.80
   2   5   2    9.90    2.30
  -3  -5  -2   72.79    5.60
   3   5   2   76.09    6.30
   4   5   2    9.20    2.90
   5   5   2  169.18   11.90
   5   5   2  195.88   12.10
   5   5   2  182.58   11.80
   5   5   2  158.58   12.40
   5   5   2  180.28   11.90
   6   5   2    1.20    0.70
   6   5   2    1.10    1.60
   6   5   2    0.70    1.40
   6   5   2    0.80    1.30
   7   5   2   14.30    1.60
   6  -6  -2    5.30    0.90
   6  -6  -2    3.30    0.80
  -6   6   2    3.80    2.00
   5  -6  -2   89.29    5.90
   5  -6  -2   79.09    6.10
  -5   6   2   80.59    6.20
   4  -6  -2   62.19    4.90
   4  -6  -2   69.59    4.70
   4  -6  -2   59.39    5.10
  -4   6   2   76.89    5.90
   3  -6  -2  211.48   12.40
   3  -6  -2  171.68   12.40
   3  -6  -2  165.58   12.50
  -3   6   2  190.58   13.10
   2  -6  -2  142.79   10.40
  -2   6   2  149.19   10.80
   1  -6  -2   45.70    4.20
   1  -6  -2   47.10    4.40
  -1   6   2   46.40    4.30
   0  -6  -2    5.60    1.80
   0   6   2    2.50    1.70
  -1  -6  -2    1.20    1.40
   1   6   2   -0.10    2.20
  -2  -6  -2  321.67   21.60
   2   6   2  320.27   22.10
   3   6   2  203.38   14.80
   4   6   2  133.09    9.10
   4   6   2  122.09    9.00
   4   6   2  127.89    8.90
   4   6   2  137.09    8.90
   5   6   2   62.99    4.50
   5   6   2   57.79    4.60
   5   6   2   57.99    4.40
   5   6   2   64.99    4.60
   6   6   2   21.50    2.00
   6   6   2   23.30    2.10
   6   6   2   22.30    2.20
   5  -7  -2   61.89    5.00
   5  -7  -2   70.29    4.90
  -5   7   2   81.89    5.30
   4  -7  -2   -0.10    1.10
   4  -7  -2    1.00    0.60
   4  -7  -2    1.00    0.80
  -4   7   2    1.30    2.00
   3  -7  -2  414.36   25.80
   3  -7  -2  403.46   26.00
  -3   7   2  369.56   26.30
   2  -7  -2    5.10    1.40
   2  -7  -2    3.70    0.90
  -2   7   2    2.30    2.30
   1  -7  -2  169.98   11.70
   1  -7  -2  166.18   11.60
  -1   7   2  180.88   12.30
  -1   7   2  178.28   11.70
   0   7   2   64.49    4.70
   0   7   2   65.69    4.90
   0   7   2   59.79    5.30
   1   7   2  109.79    7.30
   1   7   2   98.09    7.20
   1   7   2  111.19    7.50
   1   7   2  106.19    8.40
   2   7   2   99.69    6.90
   2   7   2   99.29    7.30
   2   7   2  105.69    7.10
   2   7   2  102.89    7.20
   3   7   2    5.90    1.50
   3   7   2    4.80    1.20
   3   7   2    4.30    0.80
   4   7   2   60.99    4.80
   4   7   2   66.39    4.90
   4   7   2   66.09    5.00
   4   7   2   71.99    4.80
   5   7   2   -0.10    0.70
   5   7   2    0.70    1.10
   5   7   2    1.30    0.80
   5   7   2    1.20    1.00
   6   7   2   91.19    6.30
   6   7   2   87.69    6.10
   6   7   2   93.99    6.20
   4  -8  -2   44.20    3.10
   4  -8  -2   46.50    3.30
  -4   8   2   42.80    3.50
   3  -8  -2   75.09    5.10
  -3   8   2   71.39    5.60
   2  -8  -2   81.79    5.60
   2  -8  -2   76.49    5.70
  -2   8   2   77.09    6.10
   1  -8  -2   79.19    5.40
  -1   8   2   69.99    5.30
  -1   8   2   75.29    6.10
   0   8   2   21.00    2.70
   0   8   2   23.20    2.20
   1   8   2   38.80    3.30
   1   8   2   33.90    3.40
   1   8   2   37.20    3.00
   1   8   2   32.50    3.80
   1   8   2   43.20    3.00
   2   8   2    2.90    0.70
   2   8   2    2.80    1.40
   2   8   2    1.50    1.10
   2   8   2    2.20    0.60
   3   8   2   11.00    1.60
   3   8   2    9.60    1.60
   3   8   2   13.70    1.40
   4   8   2   44.10    3.30
   4   8   2   45.00    3.40
   4   8   2   46.30    3.50
   5   8   2   50.09    3.40
   5   8   2   46.10    3.50
   5   8   2   45.60    3.40
  -2   9   2  134.69    9.40
  -1   9   2    2.10    1.70
   0   9   2  149.88   10.00
   0   9   2  151.48   10.40
   1   9   2   12.70    1.40
   1   9   2   10.70    1.40
   1   9   2    8.60    2.00
   2   9   2    9.60    1.40
   2   9   2    9.60    1.10
   3   9   2    0.50    0.90
   3   9   2    0.00    0.40
   4   9   2    8.10    1.10
   4   9   2    9.20    1.00
   2   9  -3    1.80    1.00
   1   9  -3   11.80    1.30
   1   9  -3   11.70    1.60
   0   9  -3    8.60    0.90
   0   9  -3    5.10    1.50
  -1   9  -3   25.20    2.00
  -1   9  -3   21.90    2.40
   1  -9   3   20.20    1.90
  -2   9  -3   38.40    3.20
   2  -9   3   40.50    2.90
   4   8  -3    2.20    0.70
  -4  -8   3    2.50    1.00
   3   8  -3   98.09    7.60
   3   8  -3  110.09    7.40
   2   8  -3   11.10    1.60
   2   8  -3   11.10    1.30
  -2  -8   3   16.10    1.70
   1   8  -3    0.40    0.80
   1   8  -3    0.80    1.20
   0   8  -3   13.90    1.70
   0   8  -3   12.90    2.00
  -1   8  -3   50.19    3.90
  -1   8  -3   59.39    4.80
   1  -8   3   54.39    4.00
  -2   8  -3   59.79    4.90
   2  -8   3   57.89    4.30
  -3   8  -3    3.00    1.10
   3  -8   3    3.30    0.90
   3  -8   3    2.40    1.20
   4  -8   3   52.59    3.70
   4  -8   3   57.59    3.90
   5   7  -3   54.29    4.20
   5   7  -3   65.19    4.20
   5   7  -3   60.19    4.30
   4   7  -3    3.10    0.90
   4   7  -3    3.30    1.40
   4   7  -3    3.10    0.70
   3   7  -3   11.50    2.00
   3   7  -3   16.60    1.80
   2   7  -3    8.40    1.20
   2   7  -3    6.10    1.90
   1   7  -3   86.49    6.80
   1   7  -3   87.79    6.10
   0   7  -3  126.09    8.30
   0   7  -3  117.69    8.80
  -1   7  -3   17.30    1.90
  -1   7  -3   20.80    3.10
   1  -7   3   18.20    2.00
  -2   7  -3   46.20    4.20
   2  -7   3   51.49    3.80
  -3   7  -3   35.10    3.60
   3  -7   3   33.30    2.80
   4  -7   3  218.38   15.60
   4  -7   3  253.57   15.50
   5  -7   3    4.70    0.80
   5  -7   3    3.70    0.70
   6   6  -3   57.99    3.90
   6   6  -3   50.79    4.00
   5   6  -3   12.10    1.60
   5   6  -3   10.90    1.40
   5   6  -3   11.70    1.60
   5   6  -3    7.20    1.20
   4   6  -3   27.90    2.50
   4   6  -3   25.00    2.60
   4   6  -3   26.20    2.70
   4   6  -3   21.00    2.20
   3   6  -3   12.50    2.00
   3   6  -3   13.10    1.70
   3   6  -3   14.90    1.80
   2   6  -3  315.97   20.60
   2   6  -3  315.47   21.10
   1   6  -3   27.20    4.30
  -1  -6   3   18.70    2.90
   0   6  -3  136.79   10.70
   0  -6   3  129.69    9.80
  -1   6  -3    1.10    2.20
  -1   6  -3    0.70    1.60
   1  -6   3    0.10    1.40
  -2   6  -3   88.09    6.80
   2  -6   3   80.69    7.60
   2  -6   3   88.69    6.10
  -3   6  -3  113.49    8.50
   3  -6   3  109.49    7.60
   4  -6   3   -0.10    0.80
   4  -6   3    0.70    1.00
   4  -6   3    0.10    1.30
   5  -6   3   90.29    6.10
   5  -6   3   82.99    6.00
   6  -6   3    4.30    0.80
   6  -6   3    3.10    0.60
   6   5  -3    1.20    1.60
   6   5  -3    1.70    1.00
   6   5  -3    0.60    0.70
   5   5  -3    2.60    1.00
   5   5  -3    3.30    0.90
   5   5  -3    3.10    1.70
   5   5  -3    3.30    1.10
   4   5  -3  122.89    8.40
   4   5  -3  110.29    8.20
   4   5  -3  120.89    8.60
   4   5  -3  124.59    8.30
   3   5  -3    2.60    3.00
   2   5  -3   80.89    7.10
  -2  -5   3   64.49    5.60
   1   5  -3    1.80    2.00
  -1  -5   3   -0.50    1.00
   0   5  -3  259.07   18.60
   0  -5   3  271.87   18.10
  -1   5  -3  228.48   16.50
  -1   5  -3  232.98   16.00
  -2   5  -3   23.00    3.10
   2  -5   3   27.80    3.20
  -3   5  -3   38.40    3.80
   3  -5   3   38.80    3.80
   4  -5   3    4.50    1.50
   4  -5   3    7.10    1.30
   4  -5   3    5.00    0.90
   5  -5   3  144.19    9.80
   5  -5   3  155.28   10.00
   5  -5   3  135.99   10.40
   6  -5   3    7.60    1.40
   6  -5   3    8.70    2.00
   6  -5   3    9.70    1.10
   6  -5   3   10.00    1.30
   7   4  -3    9.70    1.10
   7   4  -3   10.80    1.40
   6   4  -3    3.10    1.60
   6   4  -3    5.50    1.70
   6   4  -3    3.60    1.10
   5   4  -3   29.30    2.80
   5   4  -3   36.30    3.10
   5   4  -3   35.70    3.60
   5   4  -3   33.90    3.40
   4   4  -3   53.49    5.80
   3   4  -3   59.69    5.80
   2   4  -3  573.64   35.60
   2   4  -3  491.85   35.30
  -2  -4   3  526.55   34.80
   1   4  -3 1129.59   71.49
  -1  -4   3 1059.29   70.89
   0   4  -3  341.47   22.40
   0   4  -3  310.27   21.80
   0  -4   3  331.57   21.80
  -1   4  -3  236.28   15.90
  -1   4  -3  241.08   16.50
   1  -4   3  225.18   15.90
  -2   4  -3    2.60    1.40
  -2   4  -3    1.80    1.80
   2  -4   3    1.10    1.40
  -3   4  -3  358.26   25.10
   3  -4   3  394.06   25.00
  -4   4  -3   11.90    2.20
  -4   4  -3    9.50    2.30
   5  -4   3   20.50    2.30
   5  -4   3   15.70    2.40
   5  -4   3   18.30    3.30
   5  -4   3   16.90    2.00
   6  -4   3   91.59    6.30
   6  -4   3   85.19    5.90
   6  -4   3   90.59    6.80
   6  -4   3   70.79    5.80
   7  -4   3   23.30    2.10
   7  -4   3   16.70    2.20
   7  -4   3   19.40    1.70
   7  -4   3   22.30    2.00
   7   3  -3    7.60    1.20
   7   3  -3    4.70    1.00
   6   3  -3   40.00    3.30
   6   3  -3   33.70    3.40
   6   3  -3   41.10    3.70
   5   3  -3   -0.10    1.70
   5   3  -3    1.30    1.20
   5   3  -3    1.00    1.10
   4   3  -3    0.00    1.60
   4   3  -3    0.60    1.60
   3   3  -3  405.36   28.80
   3   3  -3  445.16   28.30
   2   3  -3  140.09    9.90
   2   3  -3  129.79    9.80
  -2  -3   3  131.69    9.30
   1   3  -3 1250.87   83.29
   1   3  -3 1302.47   83.49
  -1  -3   3 1306.37   83.09
   0   3  -3   14.60    1.80
   0   3  -3    7.70    1.50
   0   3  -3   11.00    2.20
   0  -3   3   13.90    1.80
  -1   3  -3  559.14   36.30
  -1   3  -3  570.94   35.90
   1  -3   3  518.55   35.80
  -2   3  -3  530.55   34.80
  -2   3  -3  536.25   35.30
   2  -3   3  529.25   34.70
  -3   3  -3  100.69    7.30
   3  -3   3  101.09    7.30
  -4   3  -3   10.30    1.90
  -4   3  -3    9.40    2.10
   5  -3   3   -0.10    1.10
   5  -3   3    1.70    1.60
   5  -3   3    0.40    1.90
   5  -3   3    1.10    1.10
   6  -3   3  189.48   12.30
   6  -3   3  163.78   11.50
   6  -3   3  158.58   11.30
   7  -3   3    1.00    1.10
   7  -3   3    0.80    1.30
   7  -3   3    1.50    1.00
   7  -3   3    0.70    0.60
   7   2  -3    7.10    1.30
   6   2  -3   61.19    5.00
   6   2  -3   55.39    5.20
   6   2  -3   56.79    4.50
   6   2  -3   62.59    4.90
   5   2  -3    8.30    2.10
   5   2  -3    9.90    2.00
   5   2  -3    5.40    2.10
   5   2  -3    7.30    1.50
   4   2  -3   -0.20    1.50
   4   2  -3    0.40    1.50
   3   2  -3  166.48   11.40
   3   2  -3  158.18   11.80
   2   2  -3  244.68   15.60
   2   2  -3  224.68   15.40
   2   2  -3  233.18   15.20
  -2  -2   3  235.88   15.10
  -2  -2   3  199.28   15.20
   1   2  -3 1369.26   85.29
   1   2  -3 1244.48   85.39
   1   2  -3 1357.06   85.39
   1   2  -3 1385.06   85.09
  -1  -2   3 1318.17   84.99
  -1  -2   3 1246.98   85.39
   0   2  -3 1901.91  122.49
   0   2  -3 1960.80  122.49
   0   2  -3 1996.90  122.19
   0   2  -3 1704.23  122.09
   0  -2   3 1938.31  122.19
   0  -2   3 1897.31  122.49
  -1   2  -3  461.85   29.70
  -1   2  -3  446.96   29.70
  -1   2  -3  483.15   29.40
   1  -2   3  439.96   29.70
   1  -2   3  421.46   29.30
  -2   2  -3   91.79    6.10
  -2   2  -3   75.69    6.90
   2  -2   3   85.29    5.90
  -3   2  -3    6.10    1.40
  -3   2  -3    5.20    2.80
   3  -2   3    9.70    1.60
  -5   2  -3    0.80    1.80
   6  -2   3    0.20    1.00
   6  -2   3    1.20    2.00
   6  -2   3    0.30    1.10
   6  -2   3   -0.80    1.30
   7  -2   3   15.20    2.00
   7  -2   3   15.40    2.20
   7  -2   3   10.30    1.40
   7  -2   3   15.00    2.40
   7   1  -3   71.89    5.60
   6   1  -3    4.30    2.00
   6   1  -3    3.90    1.80
   5   1  -3  215.08   15.80
   4   1  -3    3.00    2.00
   4   1  -3    1.60    1.50
   3   1  -3  171.58   11.50
   3   1  -3  163.48   11.90
   2   1  -3  372.06   22.10
   2   1  -3  367.26   22.50
   2   1  -3  320.87   22.50
  -2  -1   3  306.37   22.00
  -2  -1   3  321.37   22.10
   1   1  -3   57.19    4.30
   1   1  -3   64.59    4.50
   1   1  -3   59.29    4.60
   1   1  -3   60.89    4.80
  -1  -1   3   67.89    4.80
  -1  -1   3   55.79    4.50
  -1  -1   3   54.79    4.40
   0   1  -3  384.16   27.50
   0   1  -3  454.75   27.70
   0   1  -3  443.56   27.40
   0  -1   3  396.26   27.50
   0  -1   3  442.46   27.60
   0  -1   3  404.76   27.30
  -1   1  -3  130.89    9.20
  -1   1  -3  141.89    9.20
  -1   1  -3  135.69    9.00
  -1   1  -3  139.59    9.50
   1  -1   3  143.19    9.30
   1  -1   3  124.59    9.10
   1  -1   3  122.19    9.00
  -2   1  -3 1166.18   71.39
  -2   1  -3 1141.09   71.59
  -2   1  -3 1228.78   71.79
   2  -1   3  971.90   71.19
   2  -1   3 1113.09   71.69
   2  -1   3 1027.10   71.59
  -3   1  -3    3.10    2.50
  -3   1  -3    4.70    1.20
   3  -1   3    4.90    2.20
   4  -1   3  234.18   16.30
   5  -1   3   -0.50    1.80
   6  -1   3   75.49    5.90
   6  -1   3   71.39    5.40
   6  -1   3   80.89    7.50
   6  -1   3   79.49    6.40
   6  -1   3   75.49    5.60
   7  -1   3   29.80    3.50
   7  -1   3   25.20    2.50
   7  -1   3   29.10    2.70
   7  -1   3   33.70    3.20
   8  -1   3    1.50    1.10
   8  -1   3    1.40    1.00
   7   0  -3   40.00    3.80
   7   0  -3   31.70    3.40
   6   0  -3   47.60    4.80
   6   0  -3   62.89    4.80
   5   0  -3  259.77   17.90
   4   0  -3  102.89    7.50
   4   0  -3   97.89    7.90
   3   0  -3   93.69    6.90
   3   0  -3   89.69    6.40
  -3   0   3   84.99    6.10
  -3   0   3   83.99    6.20
   2   0  -3  939.61   59.79
   2   0  -3  954.10   59.99
  -2   0   3  895.21   59.69
  -2   0   3  914.01   59.69
   1   0  -3   19.40    1.90
   1   0  -3   20.40    2.30
   1   0  -3   19.80    2.20
  -1   0   3   19.30    2.20
  -1   0   3   18.50    1.90
  -1   0   3   21.90    2.30
   0   0  -3  200.38   14.00
   0   0  -3  232.48   14.10
   0   0  -3  207.58   13.80
   0   0   3  196.38   13.80
   0   0   3  200.38   14.00
   0   0   3  222.38   14.00
  -1   0  -3 6037.70  408.96
  -1   0  -3 6336.97  409.36
  -1   0  -3 6157.88  408.96
  -1   0  -3 7111.89  409.76
   1   0   3 6095.09  408.76
   1   0   3 6539.45  408.96
   1   0   3 6095.39  409.16
   1   0   3 6595.64  409.76
  -2   0  -3 2120.09  136.19
  -2   0  -3 2094.09  136.29
  -2   0  -3 2116.79  135.99
   2   0   3 2242.48  136.29
   2   0   3 2015.40  136.19
  -3   0  -3  283.17   18.60
  -3   0  -3  260.17   18.00
   3   0   3  289.87   18.60
  -4   0  -3  222.58   16.00
   4   0   3  246.08   16.20
   5   0   3  107.59    8.50
   6   0   3    5.20    1.30
   6   0   3    3.80    1.60
   6   0   3    4.60    1.20
   6   0   3    5.10    1.80
   6   0   3    3.10    1.70
   7   0   3   -0.50    1.30
   7   0   3    1.00    1.50
   7   0   3    1.30    1.00
   7   0   3    1.00    1.10
   8   0   3   11.10    1.60
   7  -1  -3    0.20    1.10
   6  -1  -3  359.36   23.20
   6  -1  -3  321.67   22.60
   5  -1  -3   38.40    4.00
   4  -1  -3  629.04   40.80
   4  -1  -3  617.14   41.20
  -4   1   3  620.54   40.70
   3  -1  -3    5.50    1.60
   3  -1  -3    6.20    1.70
  -3   1   3    5.00    1.70
  -3   1   3    2.40    1.20
   2  -1  -3    7.00    1.70
   2  -1  -3    6.60    1.50
  -2   1   3    9.10    1.60
  -2   1   3    7.20    1.50
   1  -1  -3  281.87   20.80
   1  -1  -3  337.47   21.10
   1  -1  -3  336.97   21.20
   1  -1  -3  317.37   20.80
  -1   1   3  322.77   20.90
  -1   1   3  326.17   20.90
  -1   1   3  306.87   21.20
  -1   1   3  336.77   21.20
   0  -1  -3  895.11   60.49
   0  -1  -3 1031.00   60.49
   0  -1  -3  932.91   60.19
   0   1   3 1038.30   60.49
   0   1   3  932.31   60.19
   0   1   3  841.32   60.19
   0   1   3  872.41   60.49
  -1  -1  -3 1085.89   65.69
  -1  -1  -3 1053.59   65.39
  -1  -1  -3  905.71   65.59
   1   1   3  965.20   65.39
   1   1   3 1140.99   65.69
   1   1   3  949.21   65.49
  -2  -1  -3   16.20    1.70
   2   1   3   17.80    2.20
   2   1   3   19.50    2.00
  -3  -1  -3 1074.59   63.69
   3   1   3  856.81   63.69
   3   1   3 1016.80   63.79
  -4  -1  -3   59.49    5.00
   4   1   3   55.89    5.00
   5   1   3  282.27   19.50
   6   1   3    0.50    1.40
   6   1   3    0.10    1.10
   6   1   3    0.50    1.60
   7   1   3   34.60    3.20
   7   1   3   36.80    3.40
   7   1   3   34.10    3.00
   8   1   3   22.60    2.90
   8   1   3   29.80    2.80
   7  -2  -3    8.00    1.50
   6  -2  -3   59.19    5.30
   6  -2  -3   66.39    4.90
   5  -2  -3   87.59    6.80
   5  -2  -3   87.49    7.20
   5  -2  -3  102.49    7.60
   4  -2  -3  377.56   25.30
  -4   2   3  381.76   25.30
   3  -2  -3   75.09    6.10
   3  -2  -3   78.29    5.90
  -3   2   3   92.19    6.20
  -3   2   3   81.09    5.90
   2  -2  -3  264.97   18.60
   2  -2  -3  280.17   18.40
  -2   2   3  279.07   18.40
  -2   2   3  288.97   18.40
   1  -2  -3  898.91   57.29
   1  -2  -3  887.01   57.79
   1  -2  -3  864.81   57.39
  -1   2   3  878.01   57.69
  -1   2   3  924.31   57.39
  -1   2   3  883.21   57.39
   0  -2  -3   75.19    5.30
   0  -2  -3   84.19    5.50
   0  -2  -3   77.89    5.80
   0   2   3   68.69    5.50
   0   2   3   83.69    5.60
   0   2   3   77.29    5.60
   0   2   3   84.39    5.90
  -1  -2  -3  662.33   40.60
  -1  -2  -3  639.04   40.30
  -1  -2  -3  538.35   40.50
   1   2   3  649.83   40.60
   1   2   3  631.74   40.30
   1   2   3  592.74   40.30
   1   2   3  654.33   40.50
  -2  -2  -3  104.99    7.40
  -2  -2  -3  104.49    7.20
   2   2   3  111.59    7.60
   2   2   3  107.89    7.90
   2   2   3  105.69    7.30
   3   2   3  483.15   32.20
   3   2   3  496.25   32.50
   4   2   3  253.57   18.00
   4   2   3  267.17   17.80
  -5  -2  -3  154.28   11.70
   5   2   3  157.38   11.40
   6   2   3   71.09    5.20
   6   2   3   67.49    5.60
   6   2   3   70.69    5.90
   7   2   3   18.30    2.50
   7   2   3   16.90    2.10
   8   2   3   -0.40    1.10
   7  -3  -3   17.70    1.90
   7  -3  -3   17.70    2.30
   6  -3  -3    2.10    1.40
   6  -3  -3    3.30    1.70
   5  -3  -3  303.17   20.30
   5  -3  -3  290.87   19.80
   4  -3  -3    2.20    1.50
  -4   3   3    3.20    2.00
   3  -3  -3 1535.85   99.19
   2  -3  -3    9.80    2.10
   2  -3  -3    9.10    1.70
  -2   3   3    8.90    1.80
  -2   3   3    9.50    1.70
   1  -3  -3  109.89    7.90
   1  -3  -3  115.19    7.90
   1  -3  -3  106.59    8.50
  -1   3   3  120.39    8.00
  -1   3   3  123.29    8.10
   0  -3  -3    6.00    1.30
   0  -3  -3   12.40    1.60
   0   3   3   11.50    1.70
   0   3   3    6.90    1.30
   0   3   3    8.90    1.40
  -1  -3  -3  137.69    9.60
  -1  -3  -3  142.59    9.20
   1   3   3  145.09    9.50
   1   3   3  125.69    9.60
   1   3   3  128.99    9.50
   1   3   3  132.89    9.20
  -2  -3  -3   11.20    2.00
  -2  -3  -3   14.50    1.60
   2   3   3   19.30    2.60
   2   3   3   16.80    1.80
   3   3   3    6.80    1.90
   3   3   3    5.10    2.10
   4   3   3  755.42   49.00
   4   3   3  734.73   49.30
   5   3   3    9.10    3.20
   5   3   3    9.20    2.50
   6   3   3  357.06   23.10
   6   3   3  350.16   23.70
   6   3   3  352.06   23.10
   7   3   3    4.70    1.80
   7   3   3    3.50    0.90
   6  -4  -3    5.90    1.50
   6  -4  -3    3.50    1.60
   5  -4  -3    3.30    1.50
   5  -4  -3    3.80    1.20
   4  -4  -3  383.76   30.00
   4  -4  -3  523.75   30.00
   3  -4  -3  501.15   33.90
  -3   4   3  530.85   34.10
   2  -4  -3  125.19    9.10
  -2   4   3  131.29    9.30
  -2   4   3  136.49    9.30
   1  -4  -3  784.72   52.09
   1  -4  -3  752.92   52.29
  -1   4   3  888.21   52.49
  -1   4   3  796.12   52.19
   0  -4  -3  254.97   16.20
   0   4   3  245.68   16.40
   0   4   3  245.58   16.20
   0   4   3  216.58   15.90
  -1  -4  -3   94.99    6.70
   1   4   3   92.29    7.20
  -2  -4  -3  251.97   16.90
   2   4   3  255.67   17.30
  -3  -4  -3  121.19    8.60
   3   4   3  131.89    9.40
   4   4   3  363.56   24.70
   5   4   3  151.08   10.70
   5   4   3  169.68   10.80
   5   4   3  168.28   11.00
   5   4   3  152.78   11.40
   6   4   3   67.09    4.60
   6   4   3   61.89    5.40
   6   4   3   58.09    4.60
   7   4   3   43.80    3.30
   7   4   3   44.70    3.90
   6  -5  -3   15.30    1.80
   6  -5  -3   16.70    1.70
  -6   5   3   16.40    2.50
   5  -5  -3    0.00    1.40
   5  -5  -3    1.20    1.10
  -5   5   3   -1.20    1.30
   4  -5  -3  238.98   15.80
   4  -5  -3  216.88   16.10
   4  -5  -3  266.67   16.10
   3  -5  -3    2.10    1.60
  -3   5   3    0.20    1.80
  -3   5   3    2.80    1.70
  -2   5   3  766.82   49.99
   1  -5  -3   23.90    2.60
   1  -5  -3   23.40    2.60
  -1   5   3   25.50    2.60
  -1   5   3   15.50    2.50
   0  -5  -3  170.28   11.40
   0   5   3  149.09   11.30
   0   5   3  168.68   11.70
  -1  -5  -3   75.59    6.00
   1   5   3   82.69    6.40
  -2  -5  -3   68.59    5.30
   2   5   3   69.59    5.90
  -3  -5  -3   97.19    6.90
   3   5   3   93.99    7.70
   4   5   3   17.70    3.20
   5   5   3  123.99    8.90
   5   5   3  127.29    8.90
   5   5   3  121.79    8.70
   5   5   3  135.59    9.00
   6   5   3   -0.40    1.20
   6   5   3   -0.40    1.50
   6   5   3    1.00    1.40
   6   5   3    1.10    0.90
   7   5   3   92.59    6.30
   5  -6  -3   -0.70    1.10
   5  -6  -3    0.40    0.90
  -5   6   3   -0.30    1.30
   4  -6  -3   19.80    2.40
   4  -6  -3   16.10    1.70
   4  -6  -3   17.60    2.00
  -4   6   3   16.80    3.00
   3  -6  -3   86.39    6.40
   3  -6  -3   90.29    6.80
   3  -6  -3   99.79    6.70
  -3   6   3   94.39    7.50
   2  -6  -3   98.69    8.90
   2  -6  -3  116.49    8.10
   1  -6  -3  146.99   10.20
  -1   6   3  147.39   10.80
  -1   6   3  132.99   10.30
   0  -6  -3  957.90   61.99
   0  -6  -3  936.71   61.69
   0   6   3  953.60   62.29
  -1  -6  -3  168.78   12.00
   1   6   3  171.48   12.40
  -2  -6  -3  287.07   19.30
   2   6   3  281.67   19.80
   3   6   3  113.99    9.10
   4   6   3    1.10    1.00
   4   6   3    1.80    0.80
   4   6   3    2.20    1.40
   4   6   3    3.20    1.50
   5   6   3   92.59    6.60
   5   6   3   94.89    6.70
   5   6   3  105.89    7.00
   5   6   3   91.69    6.70
   6   6   3   26.80    2.30
   6   6   3   24.60    2.40
   6   6   3   21.80    2.20
   7   6   3    8.30    1.10
   5  -7  -3    9.60    1.40
   5  -7  -3   10.20    1.40
  -5   7   3    8.40    1.70
   4  -7  -3    9.90    1.30
   4  -7  -3   12.00    1.30
   4  -7  -3   12.40    1.70
  -4   7   3    9.00    2.50
   3  -7  -3   38.00    3.50
   3  -7  -3   47.70    3.40
  -3   7   3   46.30    4.30
   2  -7  -3    2.50    1.10
   2  -7  -3    4.00    1.30
  -2   7   3    4.80    2.50
   1  -7  -3  351.76   24.00
   1  -7  -3  366.26   23.90
  -1   7   3  368.16   23.90
  -1   7   3  376.76   24.50
   0  -7  -3    2.20    1.20
   0   7   3    2.40    1.20
   0   7   3    2.60    1.00
   0   7   3    0.60    0.80
   0   7   3    1.20    2.00
   1   7   3  331.57   22.10
   1   7   3  335.17   22.20
   1   7   3  347.17   22.10
   2   7   3   35.40    2.80
   2   7   3   35.00    3.00
   2   7   3   37.00    3.50
   2   7   3   35.40    3.40
   3   7   3   48.80    4.10
   3   7   3   46.40    4.00
   3   7   3   47.20    3.70
   4   7   3   35.10    3.10
   4   7   3   41.20    3.60
   4   7   3   40.90    3.50
   4   7   3   39.60    3.00
   5   7   3    7.00    1.10
   5   7   3    4.90    0.90
   5   7   3    7.90    1.20
   5   7   3    7.40    1.00
   6   7   3   34.60    2.70
   6   7   3   31.20    2.50
   6   7   3   32.00    2.40
   6   7   3   31.10    2.40
   4  -8  -3    1.80    0.50
   4  -8  -3    1.90    0.60
  -4   8   3    1.20    1.40
   3  -8  -3    0.50    0.70
   3  -8  -3    1.50    1.00
  -3   8   3    0.80    1.40
   2  -8  -3   56.39    4.20
   2  -8  -3   49.30    3.90
  -2   8   3   54.09    4.60
   1  -8  -3   79.09    5.70
   1  -8  -3   76.59    5.60
  -1   8   3   80.49    5.60
  -1   8   3   80.59    6.40
   0   8   3   56.09    4.00
   0   8   3   54.19    4.60
   1   8   3  234.78   15.90
   1   8   3  247.28   15.90
   1   8   3  241.68   16.00
   2   8   3  116.19    8.10
   2   8   3  126.29    8.30
   2   8   3  124.99    8.50
   2   8   3  120.69    8.60
   3   8   3  127.59    8.90
   3   8   3  129.49    8.60
   3   8   3  125.69    8.70
   4   8   3   13.70    1.50
   4   8   3   12.30    1.50
   4   8   3    9.40    1.50
   5   8   3   -0.10    0.80
   5   8   3    1.00    0.90
   5   8   3    0.00    0.40
   5   8   3   -0.30    0.70
   2  -9  -3   13.00    1.40
   2  -9  -3   13.20    1.50
  -2   9   3   11.10    2.00
   1  -9  -3    7.10    0.90
  -1   9   3    4.20    0.80
  -1   9   3    6.50    1.80
   0   9   3  101.89    7.10
   0   9   3   97.39    7.40
   0   9   3  105.39    6.90
   1   9   3    0.20    0.60
   1   9   3    0.80    1.10
   1   9   3    0.10    0.50
   2   9   3  168.08   11.40
   2   9   3  173.78   11.30
   3   9   3   14.10    1.40
   3   9   3   14.50    1.80
   3   9   3   16.00    1.90
   4   9   3   31.80    2.70
   4   9   3   34.90    2.60
   4   9   3   34.90    2.50
   2   9  -4  129.09    8.70
   1   9  -4    0.30    0.60
   1   9  -4    0.70    0.70
   0   9  -4   57.09    4.50
   0   9  -4   65.39    4.30
  -1   9  -4    0.00    0.60
  -1   9  -4    0.10    1.00
   1  -9   4    0.40    0.70
   4   8  -4    7.00    1.20
  -4  -8   4   11.60    1.20
   3   8  -4   74.69    5.20
  -3  -8   4   68.59    4.90
   2   8  -4   58.79    4.30
   2   8  -4   66.39    4.90
  -2  -8   4   61.59    4.50
   1   8  -4   76.09    6.00
   1   8  -4   84.39    5.60
   0   8  -4   85.19    6.50
   0   8  -4   84.99    6.00
  -1   8  -4   33.90    2.70
  -1   8  -4   36.80    3.20
   1  -8   4   33.30    2.80
  -2   8  -4   12.10    1.80
   2  -8   4   10.30    1.30
   3  -8   4    9.40    1.10
   5   7  -4    1.80    1.00
   5   7  -4    2.10    0.70
  -5  -7   4    3.30    0.60
   4   7  -4    1.90    0.90
   4   7  -4    1.20    0.60
   3   7  -4   22.20    2.20
   3   7  -4   23.50    2.40
   2   7  -4    0.20    0.70
   2   7  -4    0.50    1.50
   1   7  -4  188.88   12.50
   1   7  -4  184.38   11.90
  -1  -7   4  164.48   12.00
   0   7  -4   11.30    1.40
   0   7  -4   14.60    2.40
  -1   7  -4  254.47   17.40
  -1   7  -4  291.07   18.10
   1  -7   4  252.67   17.40
  -2   7  -4   18.70    2.90
   2  -7   4   16.50    2.00
   3  -7   4   36.60    2.80
   4  -7   4    0.90    0.70
   4  -7   4    0.20    1.00
   5  -7   4    4.70    0.80
   5   6  -4    8.10    1.60
   5   6  -4    7.20    1.20
   5   6  -4    6.90    1.20
   4   6  -4    2.40    1.10
   4   6  -4    1.80    1.10
   4   6  -4    0.20    0.90
   4   6  -4    1.40    1.20
   3   6  -4  107.19    7.70
   3   6  -4  118.49    8.20
   2   6  -4   59.59    4.90
   2   6  -4   55.99    4.20
   1   6  -4  116.09    8.70
   1   6  -4  126.89    8.20
   0   6  -4  228.98   16.10
   0  -6   4  194.88   15.60
  -1   6  -4  101.49    8.20
  -2   6  -4   75.59    6.10
   2  -6   4   77.99    5.50
   3  -6   4  143.69    9.70
   4  -6   4   24.90    2.10
   4  -6   4   22.50    2.30
   5  -6   4    1.80    1.00
   5  -6   4    0.30    0.80
   6  -6   4    6.50    0.80
   6  -6   4    6.60    1.20
   6   5  -4   13.10    1.50
   6   5  -4   14.20    2.00
   6   5  -4   15.80    2.00
   5   5  -4   63.79    4.60
   5   5  -4   59.49    4.70
   5   5  -4   55.29    4.60
   4   5  -4    0.50    1.30
   4   5  -4    1.30    1.60
   4   5  -4    2.40    1.10
   4   5  -4    0.90    0.90
   3   5  -4   12.70    1.50
   3   5  -4   13.00    2.60
   3   5  -4   12.50    2.10
   3   5  -4   14.10    1.60
   2   5  -4   98.09    7.90
  -2  -5   4   70.19    6.20
   1   5  -4   -0.80    1.60
  -1  -5   4    0.10    1.10
   0   5  -4  324.57   24.40
   0  -5   4  380.36   23.90
  -1   5  -4    1.50    1.70
  -1   5  -4    1.90    1.50
   1  -5   4    3.80    1.60
  -2   5  -4  336.17   24.40
  -2   5  -4  322.07   23.50
   2  -5   4  395.36   24.10
   4  -5   4  164.78   10.40
   4  -5   4  146.99   10.10
   4  -5   4  144.89   11.40
   4  -5   4  151.68   10.30
   5  -5   4    0.60    1.10
   5  -5   4    0.50    1.10
   5  -5   4    2.20    2.10
   6  -5   4    0.40    1.80
   6  -5   4    2.20    0.90
   6  -5   4    2.10    0.90
   6   4  -4   12.80    1.90
   6   4  -4   12.20    2.00
   5   4  -4  187.08   12.50
   5   4  -4  181.98   12.20
   5   4  -4  171.18   12.30
   4   4  -4  114.89    7.80
   4   4  -4  112.99    7.80
   4   4  -4  107.59    8.00
   4   4  -4  109.49    7.80
   3   4  -4   55.89    5.70
   2   4  -4  161.48   12.40
  -2  -4   4  170.98   11.70
   1   4  -4   30.30    3.80
  -1  -4   4   32.90    3.10
   0   4  -4  179.28   13.30
   0   4  -4  197.38   13.90
   0  -4   4  194.38   13.20
  -1   4  -4   81.39    7.10
  -1   4  -4   82.79    6.40
   1  -4   4   79.89    6.30
  -2   4  -4   45.90    5.10
  -2   4  -4   42.10    3.90
   2  -4   4   38.90    3.60
  -3   4  -4  114.49    8.50
   4  -4   4   96.79    7.90
   4  -4   4  116.99    7.70
   5  -4   4    9.20    1.50
   5  -4   4    9.20    1.50
   5  -4   4    6.30    2.30
   6  -4   4   36.20    3.10
   6  -4   4   29.70    3.10
   6  -4   4   36.40    4.10
   6  -4   4   39.90    3.00
   7  -4   4   -0.20    0.70
   7  -4   4    0.10    0.80
   7  -4   4    0.30    0.80
   7  -4   4    0.50    1.10
   7   3  -4   16.80    1.60
   7   3  -4   19.50    2.10
   6   3  -4  142.79   10.20
   6   3  -4  163.88   10.30
   6   3  -4  137.39    9.90
   5   3  -4    2.10    1.80
   5   3  -4    1.00    1.20
   5   3  -4    0.90    1.20
   4   3  -4  486.75   31.90
   4   3  -4  470.95   32.90
   3   3  -4  124.69    9.90
   3   3  -4  129.29    9.20
   2   3  -4  182.38   13.20
   2   3  -4  174.48   13.10
  -2  -3   4  192.38   12.60
   1   3  -4   51.19    4.90
  -1  -3   4   50.99    4.20
   0   3  -4    5.20    1.60
   0   3  -4    5.60    2.00
   0  -3   4    4.80    1.40
  -1   3  -4  310.07   22.20
  -1   3  -4  349.57   21.80
   1  -3   4  319.77   21.70
  -2   3  -4  165.78   13.30
  -2   3  -4  197.88   12.60
  -3   3  -4  723.23   43.90
  -3   3  -4  617.34   44.60
  -4   3  -4    7.40    1.70
   5  -3   4  456.95   29.90
   5  -3   4  458.65   29.90
   5  -3   4  473.65   30.50
   5  -3   4  445.86   30.10
   6  -3   4   19.30    2.80
   6  -3   4   21.40    2.40
   6  -3   4   22.90    2.30
   6  -3   4   17.60    2.20
   7  -3   4    0.70    0.80
   7  -3   4    2.00    0.90
   7  -3   4    1.00    1.30
   7  -3   4    1.50    0.90
   7   2  -4    9.40    1.60
   6   2  -4   98.39    6.80
   6   2  -4   84.59    7.20
   6   2  -4   90.69    6.50
   5   2  -4  115.19    8.30
   5   2  -4  111.49    8.70
   5   2  -4  111.39    8.00
   5   2  -4  117.29    8.30
   4   2  -4  742.13   50.39
   4   2  -4  769.42   49.60
   3   2  -4  417.76   28.80
   3   2  -4  432.66   28.10
   2   2  -4  433.36   29.60
   2   2  -4  405.36   29.40
   2   2  -4  467.95   29.20
  -2  -2   4  471.45   29.20
   1   2  -4  185.38   13.20
   1   2  -4  198.68   13.20
  -1  -2   4  190.38   12.90
   0   2  -4    2.50    1.40
   0   2  -4    2.10    1.60
   0   2  -4    1.20    1.00
   0  -2   4    0.40    1.00
   0  -2   4    3.00    1.50
  -1   2  -4  675.83   39.50
  -1   2  -4  608.54   39.80
   1  -2   4  594.04   39.40
   1  -2   4  547.55   39.80
  -2   2  -4  244.38   17.20
  -2   2  -4  250.07   16.50
  -3   2  -4  361.86   24.30
  -3   2  -4  352.36   23.60
  -4   2  -4   89.49    6.50
   6  -2   4   10.20    1.50
   6  -2   4    9.10    1.80
   6  -2   4   12.00    2.40
   6  -2   4   11.10    1.60
   7  -2   4    7.80    1.20
   7  -2   4    8.30    1.30
   7  -2   4    7.30    1.70
   7  -2   4   11.00    1.70
   7   1  -4   59.89    4.40
   7   1  -4   56.59    4.80
   6   1  -4   44.50    4.00
   6   1  -4   50.89    4.90
   5   1  -4  280.37   18.90
   5   1  -4  274.07   18.30
   5   1  -4  268.27   18.50
   4   1  -4    1.90    1.50
   4   1  -4    0.70    1.60
   3   1  -4  182.08   12.80
   3   1  -4  189.28   12.30
  -3  -1   4  167.28   12.00
   2   1  -4   49.70    4.20
   2   1  -4   48.00    3.70
  -2  -1   4   42.60    3.90
   1   1  -4  336.87   21.60
   1   1  -4  312.27   21.80
   1   1  -4  314.57   21.30
   1   1  -4  361.76   21.70
  -1  -1   4  322.17   21.40
  -1  -1   4  308.47   21.70
   0   1  -4  100.19    7.10
   0   1  -4  104.19    7.60
   0   1  -4  113.49    7.20
   0   1  -4  105.29    7.50
   0  -1   4   94.09    7.50
   0  -1   4  104.39    7.20
   0  -1   4   97.09    6.90
  -1   1  -4  279.97   17.50
  -1   1  -4  278.17   17.80
  -1   1  -4  259.27   17.70
   1  -1   4  259.57   17.30
   1  -1   4  257.37   17.40
   1  -1   4  263.07   17.80
   1  -1   4  252.37   17.40
  -2   1  -4  132.69   10.00
  -2   1  -4  151.38    9.80
  -2   1  -4  145.69   10.30
   2  -1   4  145.49   10.00
  -3   1  -4  478.25   31.10
  -3   1  -4  466.45   31.70
   3  -1   4  485.95   31.60
  -4   1  -4  617.24   41.60
   4  -1   4  639.74   41.60
   5  -1   4    0.40    2.00
   6  -1   4  236.88   14.50
   6  -1   4  212.58   14.10
   6  -1   4  200.68   14.60
   6  -1   4  198.38   14.80
   6  -1   4  215.88   14.20
   7  -1   4    0.10    1.10
   7  -1   4   -0.50    0.90
   7  -1   4   -1.00    1.60
   7  -1   4    0.70    1.00
   7  -1   4    0.00    1.00
   8  -1   4   13.10    2.00
   8  -1   4   16.70    2.00
   7   0  -4   17.10    1.90
   7   0  -4   13.30    2.10
   6   0  -4    3.50    2.20
   6   0  -4    3.00    1.40
   5   0  -4  142.89   10.40
   5   0  -4  154.88   11.10
   4   0  -4   20.30    2.80
   4   0  -4   10.50    2.50
   3   0  -4  853.21   55.89
   3   0  -4  874.31   55.39
  -3   0   4  831.92   55.19
   2   0  -4  744.53   46.60
   2   0  -4  675.03   46.20
  -2   0   4  696.33   46.20
  -2   0   4  739.83   46.30
   1   0  -4 1280.47   95.19
   1   0  -4 1424.26   95.59
   1   0  -4 1626.24   95.59
   1   0  -4 1355.46   95.09
  -1   0   4 1527.25   95.59
  -1   0   4 1528.05   95.19
  -1   0   4 1617.94   95.29
   0   0  -4 1110.89   76.89
   0   0  -4 1260.27   77.19
   0   0  -4 1209.38   76.89
   0   0   4 1180.48   76.89
   0   0   4 1240.18   77.19
   0   0   4 1158.18   76.79
  -1   0  -4 2913.71  179.58
  -1   0  -4 2544.15  179.48
  -1   0  -4 3056.69  179.28
  -1   0  -4 2716.13  179.38
   1   0   4 2531.95  179.18
   1   0   4 2800.72  179.18
   1   0   4 2739.63  179.18
   1   0   4 3023.40  179.58
  -2   0  -4   63.29    5.40
  -2   0  -4   61.09    4.70
  -2   0  -4   68.19    5.00
   2   0   4   69.19    5.10
   2   0   4   69.59    4.90
  -3   0  -4  138.49    9.40
  -3   0  -4  140.09   10.10
   3   0   4  142.59   10.00
  -4   0  -4  159.08   11.80
   4   0   4  168.58   11.80
   5   0   4   48.30    4.90
   6   0   4   63.39    4.90
   6   0   4   71.69    5.60
   6   0   4   50.79    5.40
   6   0   4   71.29    5.30
   6   0   4   64.79    4.80
   7   0   4   11.50    1.90
   7   0   4   11.00    1.80
   7   0   4   12.20    1.50
   7   0   4   15.00    2.50
   8   0   4   20.80    2.40
   8   0   4   23.40    2.40
   7  -1  -4   24.70    2.50
   7  -1  -4   29.80    3.10
   6  -1  -4   54.99    5.30
   6  -1  -4   53.49    4.50
   5  -1  -4   35.60    3.80
   5  -1  -4   35.70    4.30
   4  -1  -4  419.66   29.00
   4  -1  -4  455.75   29.70
   3  -1  -4    5.60    1.80
   3  -1  -4    5.60    1.80
  -3   1   4    4.20    1.50
  -3   1   4    4.50    1.70
   2  -1  -4  505.75   33.40
   2  -1  -4  535.05   33.90
  -2   1   4  490.35   33.50
  -2   1   4  525.65   33.50
   1  -1  -4  422.86   30.00
   1  -1  -4  488.55   30.30
   1  -1  -4  416.96   29.90
   1  -1  -4  468.75   30.50
  -1   1   4  422.26   30.40
  -1   1   4  490.35   30.00
  -1   1   4  527.05   30.20
   0  -1  -4 2166.18  137.69
   0  -1  -4 2140.89  138.09
   0   1   4 2176.48  137.79
   0   1   4 2082.39  137.69
   0   1   4 2147.49  138.09
  -1  -1  -4  519.65   32.00
  -1  -1  -4  513.25   32.20
  -1  -1  -4  466.45   32.20
  -1  -1  -4  517.95   31.90
   1   1   4  509.85   32.20
   1   1   4  489.35   31.80
   1   1   4  451.25   31.90
   1   1   4  461.25   31.80
  -2  -1  -4  754.92   49.10
  -2  -1  -4  782.22   49.10
   2   1   4  753.32   48.90
   2   1   4  732.53   49.00
  -3  -1  -4  157.48   11.20
  -3  -1  -4  172.68   11.70
   3   1   4  178.08   11.70
  -4  -1  -4  349.37   23.40
   4   1   4  344.87   23.40
  -5  -1  -4  335.87   23.90
   5   1   4  356.26   23.70
   6   1   4    0.60    1.60
   6   1   4    0.60    1.50
   6   1   4    0.50    1.20
   7   1   4  147.69   10.40
   7   1   4  141.19    9.90
   7   1   4  153.28   10.60
   8   1   4    4.60    1.40
   8   1   4    3.90    1.30
   7  -2  -4   21.00    2.70
   6  -2  -4    5.90    2.20
   6  -2  -4    7.00    1.80
   5  -2  -4    9.60    1.80
   5  -2  -4   11.90    2.10
   5  -2  -4   10.40    2.50
   4  -2  -4  205.88   14.40
  -4   2   4  211.28   14.40
   3  -2  -4   26.10    2.90
   3  -2  -4   22.80    2.60
  -3   2   4   18.50    2.60
  -3   2   4   22.90    2.50
   2  -2  -4 2123.29  136.19
   2  -2  -4 2041.50  135.79
  -2   2   4 2184.18  135.89
  -2   2   4 2094.69  135.89
   1  -2  -4  109.99    8.40
   1  -2  -4  113.79    7.90
   1  -2  -4  116.89    8.00
  -1   2   4  124.09    8.10
  -1   2   4  121.69    8.20
   0  -2  -4 1254.87   74.89
   0  -2  -4 1116.79   74.89
   0  -2  -4 1132.59   74.99
   0  -2  -4 1079.19   75.09
   0   2   4 1226.88   74.89
   0   2   4 1146.19   75.19
   0   2   4 1180.68   74.89
   0   2   4 1150.38   74.79
  -1  -2  -4 1088.29   70.59
  -1  -2  -4 1105.39   70.19
   1   2   4 1060.29   70.49
   1   2   4 1108.39   70.19
   1   2   4 1136.39   70.39
   1   2   4 1036.90   70.29
  -2  -2  -4  582.94   37.20
  -2  -2  -4  531.75   37.40
   2   2   4  582.94   37.50
   2   2   4  597.24   37.20
   3   2   4  496.65   32.80
  -4  -2  -4   19.60    3.00
   4   2   4   15.10    2.60
  -5  -2  -4   18.40    3.20
   5   2   4   16.70    3.00
   6   2   4   37.20    3.90
   6   2   4   32.40    3.00
   6   2   4   34.40    3.70
   7   2   4   30.50    3.50
   7   2   4   35.30    3.40
   7   2   4   34.70    3.00
   8   2   4    4.60    1.40
   7  -3  -4   -0.30    1.00
   6  -3  -4   68.79    5.40
   6  -3  -4   65.89    5.00
   6  -3  -4   54.59    5.50
   5  -3  -4   17.30    2.60
   5  -3  -4   16.20    3.00
   5  -3  -4   16.10    2.70
   4  -3  -4   82.29    6.30
  -4   3   4   75.79    6.30
   3  -3  -4  150.98   11.00
  -3   3   4  161.08   11.10
  -3   3   4  159.98   11.00
   2  -3  -4   96.29    7.70
   2  -3  -4   98.29    7.20
  -2   3   4  111.39    7.50
  -2   3   4  105.09    7.50
   1  -3  -4  362.56   24.80
   1  -3  -4  374.16   25.00
  -1   3   4  401.16   25.00
  -1   3   4  385.16   25.10
   0  -3  -4  768.62   54.19
   0  -3  -4  896.71   54.39
   0   3   4  818.82   54.29
   0   3   4  860.51   54.39
   0   3   4  855.21   54.49
  -1  -3  -4  457.35   29.00
   1   3   4  455.95   29.20
   1   3   4  410.36   29.30
   1   3   4  452.45   28.90
  -2  -3  -4    3.10    1.10
   2   3   4    3.20    1.90
   2   3   4    3.30    1.30
  -3  -3  -4  801.62   54.19
   3   3   4  877.71   54.79
   4   3   4   -0.90    1.80
  -5  -3  -4   75.59    6.50
   5   3   4   65.59    6.20
   6   3   4   44.70    3.70
   6   3   4   51.29    4.10
   6   3   4   49.80    4.70
   7   3   4    0.60    1.20
   7   3   4    2.20    1.60
   8   3   4   50.79    4.10
   6  -4  -4   65.09    5.00
   5  -4  -4   11.30    1.70
   5  -4  -4    8.60    2.40
   4  -4  -4   46.50    3.90
   4  -4  -4   38.30    4.60
   4  -4  -4   40.10    3.60
   3  -4  -4  105.29    8.30
  -3   4   4  125.19    8.70
  -3   4   4  117.69    8.50
   2  -4  -4    6.80    1.60
  -2   4   4    3.90    1.50
  -2   4   4    6.40    1.90
   1  -4  -4 2105.69  142.99
   1  -4  -4 2127.29  142.79
  -1   4   4 2400.76  143.19
  -1   4   4 2245.68  142.89
   0  -4  -4   17.30    2.00
   0  -4  -4   17.30    2.20
   0   4   4   16.90    2.20
   0   4   4   13.60    2.30
   0   4   4   18.10    2.30
  -1  -4  -4 1120.49   68.99
   1   4   4  983.40   68.79
   1   4   4 1092.49   69.19
  -2  -4  -4  492.75   32.50
   2   4   4  501.35   32.90
  -3  -4  -4  354.76   23.40
   3   4   4  355.16   24.00
   4   4   4  101.09    8.10
   5   4   4    4.00    1.30
   5   4   4    1.40    1.60
   5   4   4    3.00    1.60
   5   4   4    2.70    1.00
   6   4   4   15.30    2.90
   6   4   4   17.10    2.00
   6   4   4   19.00    2.20
   6   4   4   14.60    1.70
   7   4   4    0.30    0.80
   7   4   4    0.40    1.10
   7   4   4    1.00    1.10
   6  -5  -4   10.50    1.40
  -6   5   4    6.90    1.80
   5  -5  -4   70.29    5.00
   5  -5  -4   66.49    5.20
   4  -5  -4    0.20    1.30
   4  -5  -4    1.10    2.20
   4  -5  -4    1.10    0.80
   4  -5  -4    2.10    1.50
   3  -5  -4   83.89    7.10
   3  -5  -4   91.39    6.50
  -3   5   4   96.19    7.90
   2  -5  -4   58.89    4.80
  -2   5   4   58.29    5.10
  -2   5   4   62.29    5.30
   1  -5  -4   67.09    5.10
   1  -5  -4   53.59    5.20
  -1   5   4   73.69    5.50
  -1   5   4   69.69    5.40
   0  -5  -4  515.65   31.90
   0   5   4  451.55   31.90
   0   5   4  480.45   32.10
  -1  -5  -4  154.68   10.60
   1   5   4  146.89   10.90
  -2  -5  -4  368.46   24.50
   2   5   4  369.26   24.90
  -3  -5  -4    3.20    1.30
   3   5   4    1.50    1.80
   4   5   4  150.18   11.30
   5   5   4    3.60    0.90
   5   5   4    6.50    1.30
   5   5   4    3.10    1.70
   6   5   4   84.69    6.00
   6   5   4   72.79    6.40
   6   5   4   86.99    5.80
   7   5   4    0.60    0.90
   7   5   4    1.90    0.60
   5  -6  -4   60.09    4.40
   5  -6  -4   66.69    4.70
  -5   6   4   54.99    5.00
   4  -6  -4    0.20    0.60
   4  -6  -4    1.60    1.20
   4  -6  -4    0.10    1.20
  -4   6   4    1.30    1.70
   3  -6  -4   55.89    4.80
   3  -6  -4   54.99    4.30
   3  -6  -4   63.99    4.70
  -3   6   4   63.09    5.80
   2  -6  -4   74.39    5.50
   2  -6  -4   74.79    5.30
  -2   6   4   70.39    6.30
   1  -6  -4    4.90    1.80
  -1   6   4    5.10    1.80
  -1   6   4    6.40    2.10
   0  -6  -4  350.96   24.70
   0   6   4  386.56   25.20
  -1  -6  -4  133.49    9.70
   1   6   4  135.19   10.10
  -2  -6  -4  567.24   37.40
   2   6   4  567.34   37.90
   3   6   4   15.20    2.20
   3   6   4   21.40    2.50
   3   6   4   15.10    1.90
   3   6   4   25.40    2.70
   4   6   4   75.49    5.60
   4   6   4   71.29    5.20
   4   6   4   66.69    5.20
   4   6   4   76.79    5.70
   4   6   4   73.99    5.40
   5   6   4    1.80    1.10
   5   6   4    0.90    0.50
   5   6   4    2.00    1.20
   5   6   4    2.20    1.20
   6   6   4    4.30    0.80
   6   6   4    3.50    1.00
   4  -7  -4   38.60    3.20
   4  -7  -4   40.90    3.20
   4  -7  -4   34.80    2.70
  -4   7   4   37.60    3.60
   3  -7  -4    3.00    1.30
   3  -7  -4    4.10    1.00
   3  -7  -4    3.80    1.30
  -3   7   4    1.30    2.60
   2  -7  -4  109.59    7.70
   2  -7  -4  113.29    7.60
  -2   7   4  104.29    8.50
   1  -7  -4    0.80    1.30
   1  -7  -4    0.90    1.00
  -1   7   4    1.50    2.20
  -1   7   4    1.20    0.90
   0  -7  -4    4.20    1.30
   0   7   4    3.50    0.90
   0   7   4    4.80    1.20
   0   7   4    3.20    1.00
   1   7   4  213.38   14.00
   1   7   4  205.88   14.10
   1   7   4  211.78   14.00
   2   7   4   75.69    5.70
   2   7   4   81.19    5.60
   2   7   4   82.09    5.70
   3   7   4   70.09    4.90
   3   7   4   68.49    5.30
   3   7   4   63.29    5.30
   4   7   4   51.19    4.20
   4   7   4   49.99    3.70
   4   7   4   48.50    3.80
   4   7   4   43.40    3.60
   5   7   4   27.30    2.40
   5   7   4   25.50    2.30
   5   7   4   22.10    2.00
   5   7   4   25.30    2.60
   6   7   4    1.40    0.80
   6   7   4    2.40    0.70
   6   7   4    2.30    0.90
   4  -8  -4   46.20    3.30
  -4   8   4   43.80    3.60
   3  -8  -4    1.70    0.70
   3  -8  -4    0.10    0.60
  -3   8   4    1.00    1.30
   2  -8  -4   33.00    2.90
   2  -8  -4   34.90    2.70
  -2   8   4   24.60    3.70
   1  -8  -4   63.09    4.90
   1  -8  -4   61.99    4.70
  -1   8   4   71.09    4.80
  -1   8   4   64.89    5.60
   0  -8  -4    3.60    1.20
   0   8   4    3.60    0.90
   0   8   4    4.40    1.00
   1   8   4  132.89    9.10
   1   8   4  137.39    9.30
   1   8   4  136.39    9.20
   2   8   4    0.30    0.60
   2   8   4   -0.50    1.10
   2   8   4    0.30    0.80
   2   8   4    0.90    1.50
   3   8   4   97.39    6.70
   3   8   4   95.29    6.90
   3   8   4   95.89    7.00
   4   8   4    6.40    1.20
   4   8   4    7.40    0.90
   4   8   4    5.60    1.40
   5   8   4   62.59    4.20
   5   8   4   64.19    4.20
   5   8   4   51.29    3.90
   5   8   4   50.59    3.90
   2  -9  -4   14.40    1.60
   2  -9  -4   17.10    1.50
  -2   9   4   15.00    2.20
   1  -9  -4   21.20    1.80
   1  -9  -4   22.70    2.10
  -1   9   4   24.20    2.70
   0   9   4    0.40    0.70
   0   9   4    1.00    1.30
   1   9   4    0.40    0.50
   1   9   4    0.70    0.50
   1   9   4    0.90    1.00
   2   9   4    4.50    1.30
   2   9   4    3.90    0.80
   2   9   4    5.00    0.70
   3   9   4   -0.30    0.70
   3   9   4   -0.10    0.40
   3   9   4   -0.40    0.70
   4   9   4   35.10    2.70
   4   9   4   31.00    2.50
   4   9   4   35.40    2.50
   0   9  -5   91.39    5.70
   0   9  -5   77.59    5.80
   3   8  -5   20.50    2.00
  -3  -8   5   17.50    1.60
   2   8  -5    8.80    1.10
   2   8  -5    8.40    1.60
  -2  -8   5    9.30    1.10
   1   8  -5    1.20    0.80
   1   8  -5    0.60    1.30
   0   8  -5    4.30    1.20
   0   8  -5    3.50    0.80
  -1   8  -5   27.60    2.30
  -1   8  -5   28.00    2.70
   1  -8   5   29.30    2.40
   2  -8   5  127.19    8.10
   2  -8   5  113.99    8.10
   3  -8   5   -0.80    0.70
   3  -8   5   -0.30    0.70
   4   7  -5   58.49    4.10
  -4  -7   5   49.90    3.80
   3   7  -5    8.20    1.40
  -3  -7   5    7.60    1.40
   2   7  -5    9.90    1.20
   2   7  -5    9.00    1.80
  -2  -7   5   11.80    1.60
   1   7  -5    2.00    1.70
   1   7  -5    0.50    0.90
  -1  -7   5   -0.10    1.10
   0   7  -5   36.80    3.50
   0   7  -5   38.50    3.10
  -1   7  -5   21.60    3.00
  -1   7  -5   21.50    2.20
   1  -7   5   20.80    2.10
   2  -7   5    6.00    1.20
   3  -7   5  217.98   13.80
   3  -7   5  200.78   13.90
   4  -7   5    7.70    1.00
   4  -7   5    8.20    1.20
   5   6  -5   32.00    2.70
   5   6  -5   30.30    2.60
   5   6  -5   32.20    2.70
  -5  -6   5   37.50    2.60
   4   6  -5  102.89    6.70
   4   6  -5   80.19    6.30
   3   6  -5   15.50    2.10
   3   6  -5   14.70    1.90
   2   6  -5   95.79    6.70
   2   6  -5   80.69    6.00
   1   6  -5   27.40    2.50
   1   6  -5   32.80    3.30
  -1  -6   5   27.80    2.90
   0   6  -5  107.29    7.70
   0   6  -5  105.59    7.10
   0  -6   5   95.49    7.30
  -1   6  -5   31.00    3.40
  -1   6  -5   30.90    2.60
   1  -6   5   27.10    2.60
   2  -6   5   56.79    4.20
   3  -6   5  151.48   10.20
   4  -6   5   24.30    2.10
   4  -6   5   23.70    2.50
   5  -6   5   62.19    4.40
   6   5  -5    3.00    1.10
   6   5  -5    3.10    0.80
   6   5  -5    2.70    0.80
   5   5  -5   53.89    4.40
   5   5  -5   60.69    4.40
   5   5  -5   55.09    4.30
   4   5  -5   32.00    2.90
   4   5  -5   35.40    3.00
   4   5  -5   28.00    3.10
   3   5  -5  168.38   10.90
   3   5  -5  141.19   10.50
   3   5  -5  156.78   10.50
   2   5  -5  102.19    8.80
   1   5  -5   98.89    8.90
  -1  -5   5  103.49    8.00
   0   5  -5    7.60    2.50
   0  -5   5   16.30    2.80
  -1   5  -5  188.48   13.10
  -1   5  -5  184.68   14.00
   1  -5   5  168.28   12.90
  -2   5  -5   96.69    7.80
   3  -5   5    7.80    1.20
   4  -5   5  226.58   15.10
   4  -5   5  192.28   14.10
   4  -5   5  227.68   14.30
   5  -5   5    8.60    1.30
   5  -5   5   10.50    1.20
   5  -5   5    9.10    2.00
   6  -5   5   54.29    3.70
   6  -5   5   55.09    4.50
   6  -5   5   42.80    3.50
   6   4  -5    0.70    1.00
   6   4  -5   -0.20    0.90
   6   4  -5    0.00    0.90
   5   4  -5  125.89    8.70
   5   4  -5  117.39    8.60
   4   4  -5   20.70    2.40
   4   4  -5   25.40    2.60
   4   4  -5   23.70    2.90
   3   4  -5  189.68   14.50
   2   4  -5   47.90    4.90
  -2  -4   5   42.90    4.10
   1   4  -5  307.87   21.80
  -1  -4   5  318.07   21.20
   0   4  -5  132.49   10.40
   0  -4   5  131.89    9.60
  -1   4  -5   77.49    7.40
  -1   4  -5   97.19    7.00
   1  -4   5   80.69    6.70
  -2   4  -5   75.49    5.80
  -2   4  -5   61.39    6.90
  -3   4  -5    0.90    1.50
   4  -4   5   80.09    6.30
   4  -4   5   68.19    5.00
   4  -4   5   66.59    5.20
   4  -4   5   73.29    5.30
   5  -4   5   19.60    2.00
   5  -4   5   19.40    2.40
   5  -4   5   28.70    3.80
   6  -4   5   32.10    3.90
   6  -4   5   26.80    2.70
   6  -4   5   30.90    2.60
   7  -4   5   24.80    1.90
   7  -4   5   20.10    2.40
   7  -4   5   24.00    2.00
   6   3  -5    3.10    1.70
   6   3  -5    2.70    1.60
   6   3  -5    3.80    1.20
   5   3  -5   58.99    4.90
   5   3  -5   57.79    4.50
   5   3  -5   55.19    4.90
   4   3  -5    6.10    1.80
   4   3  -5    6.90    1.50
   4   3  -5    9.40    2.00
   3   3  -5    3.70    2.50
   2   3  -5  326.47   23.80
   2   3  -5  340.27   23.70
  -2  -3   5  371.96   23.30
   1   3  -5  239.58   17.00
  -1  -3   5  244.18   16.40
   0   3  -5  425.16   30.50
   0   3  -5  476.75   30.20
   0  -3   5  462.05   30.00
  -1   3  -5   -0.50    1.30
  -1   3  -5    3.30    1.80
   1  -3   5    1.10    1.60
  -2   3  -5  801.22   53.39
  -2   3  -5  812.92   52.69
  -3   3  -5   38.90    5.30
  -3   3  -5   41.20    3.80
  -4   3  -5    1.20    1.30
   5  -3   5   98.89    6.70
   5  -3   5   94.29    6.80
   5  -3   5  103.69    7.60
   5  -3   5   85.79    7.00
   6  -3   5    0.40    0.70
   6  -3   5    0.30    0.70
   6  -3   5   -0.30    1.10
   6  -3   5   -0.10    2.00
   7  -3   5   52.89    4.40
   7  -3   5   60.49    4.30
   7  -3   5   58.19    4.20
   7  -3   5   62.39    5.10
   7   2  -5   27.40    2.60
   6   2  -5   27.80    3.50
   6   2  -5   23.80    2.60
   6   2  -5   27.30    3.20
   5   2  -5   72.49    5.40
   5   2  -5   55.59    5.80
   5   2  -5   64.49    5.00
   5   2  -5   63.39    5.30
   4   2  -5   70.99    6.70
   3   2  -5    3.30    1.90
   3   2  -5    5.30    1.60
  -3  -2   5    5.20    1.50
   2   2  -5  766.92   48.10
   2   2  -5  754.02   48.70
  -2  -2   5  694.73   48.10
   1   2  -5  115.99    8.10
   1   2  -5  111.29    8.10
  -1  -2   5   95.29    7.70
   0   2  -5 1327.87   81.99
   0   2  -5 1197.28   82.09
   0  -2   5 1271.67   81.89
  -1   2  -5  199.48   13.20
  -1   2  -5  196.18   13.70
   1  -2   5  182.38   13.10
  -2   2  -5  339.77   22.40
  -2   2  -5  333.87   22.90
  -3   2  -5   10.00    3.00
  -3   2  -5    3.70    1.50
  -4   2  -5   -0.40    2.70
  -4   2  -5    1.00    1.10
   5  -2   5   58.79    5.50
   5  -2   5   72.39    5.40
   5  -2   5   55.49    6.10
   5  -2   5   66.29    4.80
   5  -2   5   62.39    4.70
   6  -2   5    0.20    0.70
   6  -2   5    0.10    1.30
   6  -2   5   -0.40    1.90
   6  -2   5    1.50    1.10
   7  -2   5   40.10    3.40
   7  -2   5   37.90    3.00
   7  -2   5   34.40    3.10
   7   1  -5    2.70    1.40
   7   1  -5    2.20    1.00
   6   1  -5   53.19    5.00
   6   1  -5   45.70    4.40
   5   1  -5    0.80    2.20
   5   1  -5    1.70    1.90
   5   1  -5    1.20    1.20
   5   1  -5    0.30    1.80
   4   1  -5  124.79    8.80
   4   1  -5  112.39    9.50
   3   1  -5   14.60    2.80
   3   1  -5   14.70    2.20
  -3  -1   5   16.80    2.20
   2   1  -5  369.16   24.80
   2   1  -5  363.56   25.30
  -2  -1   5  398.46   24.90
   1   1  -5  477.55   35.70
   1   1  -5  498.55   34.50
   1   1  -5  516.75   34.80
   1   1  -5  565.74   35.00
  -1  -1   5  597.24   34.80
   0   1  -5  187.08   11.80
   0   1  -5  180.38   12.00
   0   1  -5  170.98   11.70
   0   1  -5  148.99   12.00
   0  -1   5  155.48   11.30
   0  -1   5  190.58   11.70
  -1   1  -5 1709.13  108.19
  -1   1  -5 1848.02  108.49
   1  -1   5 1751.62  107.99
   1  -1   5 1438.56  108.59
   1  -1   5 1648.14  108.19
  -2   1  -5    1.20    1.40
  -2   1  -5   -0.10    2.00
   2  -1   5    0.90    1.50
  -3   1  -5  682.73   44.70
  -3   1  -5  678.33   44.10
   3  -1   5  673.33   44.40
  -4   1  -5   43.80    5.10
   4  -1   5   49.10    4.90
   6  -1   5   46.40    4.90
   6  -1   5   60.29    4.60
   6  -1   5   57.09    4.30
   6  -1   5   53.49    4.10
   6  -1   5   51.09    4.90
   7  -1   5   10.60    2.10
   7  -1   5   11.10    1.90
   7  -1   5   10.40    1.30
   7  -1   5   13.90    2.50
   8  -1   5   12.70    1.50
   7   0  -5    0.10    1.00
   7   0  -5   -0.60    1.30
   6   0  -5   45.30    3.90
   6   0  -5   45.50    4.80
   5   0  -5   20.50    2.60
   5   0  -5   23.00    3.70
   4   0  -5   65.69    6.40
   4   0  -5   67.49    5.50
   3   0  -5  692.23   47.10
   3   0  -5  720.23   46.60
  -3   0   5  728.43   46.40
   2   0  -5  143.79   10.20
   2   0  -5  149.79   10.70
  -2   0   5  154.38   10.20
   1   0  -5  638.84   39.20
   1   0  -5  527.45   38.70
   1   0  -5  561.14   39.30
  -1   0   5  642.34   38.90
  -1   0   5  625.94   38.80
   0   0  -5  419.36   27.30
   0   0  -5  391.86   27.30
   0   0  -5  413.86   27.70
   0   0  -5  448.76   27.30
   0   0   5  431.46   27.30
   0   0   5  420.46   27.10
   0   0   5  393.26   27.50
  -1   0  -5  444.86   28.80
  -1   0  -5  430.16   28.90
  -1   0  -5  481.95   28.60
   1   0   5  435.26   28.50
   1   0   5  418.06   28.50
   1   0   5  416.16   28.90
  -2   0  -5  318.07   20.90
  -2   0  -5  313.17   21.30
   2   0   5  335.57   20.90
   2   0   5  306.27   21.00
  -3   0  -5  280.57   19.80
  -3   0  -5  299.47   19.20
   3   0   5  292.27   19.60
  -4   0  -5    2.70    2.00
   4   0   5    3.80    1.90
   5   0   5    0.70    1.90
   6   0   5   62.39    4.40
   6   0   5   45.40    4.80
   6   0   5   56.49    4.00
   6   0   5   55.49    4.70
   6   0   5   50.79    4.60
   7   0   5    1.40    1.50
   7   0   5    1.40    1.20
   7   0   5    0.90    0.80
   8   0   5   20.60    1.80
   8   0   5   16.90    1.90
   8   0   5   20.40    2.30
   7  -1  -5   35.80    3.00
   7  -1  -5   40.90    3.50
   6  -1  -5   58.09    5.20
   6  -1  -5   48.30    4.70
   5  -1  -5   45.60    4.40
   5  -1  -5   46.00    4.90
   4  -1  -5   13.70    2.40
   4  -1  -5   22.60    3.30
   3  -1  -5  409.56   26.90
   3  -1  -5  401.96   27.40
  -3   1   5  405.26   26.80
  -3   1   5  410.96   26.80
   2  -1  -5    2.60    1.50
   2  -1  -5    3.90    1.70
  -2   1   5    3.60    1.40
  -2   1   5    2.00    1.40
   1  -1  -5  513.55   35.10
   1  -1  -5  486.45   35.70
   1  -1  -5  462.65   35.20
   1  -1  -5  606.14   35.60
  -1   1   5  588.44   35.30
  -1   1   5  597.64   35.40
   0  -1  -5  198.68   13.70
   0  -1  -5  203.08   13.40
   0  -1  -5  181.58   13.20
   0   1   5  217.98   13.40
   0   1   5  227.48   13.30
   0   1   5  167.78   13.60
  -1  -1  -5  137.99    9.50
  -1  -1  -5  138.59    9.20
  -1  -1  -5  141.39    9.10
   1   1   5  133.59    8.90
   1   1   5  129.39    9.00
   1   1   5  112.79    9.30
   1   1   5  126.29    8.90
  -2  -1  -5  890.81   53.89
  -2  -1  -5  763.42   53.49
   2   1   5  808.22   53.69
   2   1   5  850.21   53.59
  -3  -1  -5   18.60    2.70
  -3  -1  -5   18.10    2.00
   3   1   5   17.00    2.40
  -4  -1  -5  314.97   21.80
   4   1   5  323.17   21.60
  -5  -1  -5    2.00    2.10
   5   1   5    2.50    2.00
   6   1   5   50.89    4.10
   6   1   5   50.29    4.90
   6   1   5   51.99    4.60
   7   1   5   11.60    2.10
   7   1   5   10.30    2.00
   7   1   5    7.90    1.20
   8   1   5    9.30    1.50
   8   1   5   11.40    1.40
   7  -2  -5   30.30    2.60
   6  -2  -5    2.70    1.50
   6  -2  -5    4.30    2.00
   5  -2  -5  163.88   11.30
   5  -2  -5  155.38   11.60
   4  -2  -5   43.70    4.20
  -4   2   5   48.60    4.40
   3  -2  -5  264.97   18.80
   3  -2  -5  275.67   18.30
  -3   2   5  284.27   18.40
  -3   2   5  263.97   18.30
   2  -2  -5  686.73   44.40
   2  -2  -5  647.54   44.00
  -2   2   5  677.23   44.10
  -2   2   5  696.63   44.10
   1  -2  -5   25.60    2.50
   1  -2  -5   28.90    2.80
  -1   2   5   32.00    2.90
  -1   2   5   28.00    3.10
   0  -2  -5 1326.57   83.49
   0   2   5 1239.18   83.39
   0   2   5 1315.17   83.49
  -1  -2  -5   16.60    2.00
  -1  -2  -5   14.40    2.20
   1   2   5   10.30    2.00
   1   2   5   12.90    1.90
   1   2   5   14.40    2.10
  -2  -2  -5  105.99    7.60
  -2  -2  -5  111.39    7.90
   2   2   5  110.29    7.90
   2   2   5  107.99    7.70
  -3  -2  -5  126.49    9.10
   3   2   5  120.09    8.80
   3   2   5  131.29    9.20
  -4  -2  -5  377.46   25.50
   4   2   5  379.46   25.50
  -5  -2  -5   10.50    2.60
   5   2   5   12.70    3.10
   6   2   5   68.79    5.70
   6   2   5   66.89    5.20
   6   2   5   70.19    5.90
   7   2   5   15.70    1.80
   7   2   5   15.60    2.30
   7   2   5   15.60    2.40
   8   2   5    0.30    1.20
   8   2   5    0.30    0.80
   8   2   5   -0.50    1.00
   6  -3  -5   26.70    3.10
   6  -3  -5   27.10    2.70
   6  -3  -5   31.50    2.80
   5  -3  -5   36.50    3.60
   5  -3  -5   43.30    4.50
   5  -3  -5   41.70    4.30
   4  -3  -5  120.89    8.90
   4  -3  -5  131.19    9.10
   3  -3  -5  108.09    7.80
  -3   3   5   96.69    8.00
  -3   3   5  114.59    8.00
   2  -3  -5  126.29    9.10
   2  -3  -5  134.39    9.70
  -2   3   5  132.19    9.30
  -2   3   5  129.89    9.30
   1  -3  -5   57.09    4.80
  -1   3   5   61.79    5.00
  -1   3   5   70.79    5.10
   0  -3  -5   98.49    6.70
   0   3   5   87.19    6.70
   0   3   5   93.19    6.80
   0   3   5   89.69    6.70
  -1  -3  -5  238.08   16.10
   1   3   5  240.88   16.30
   1   3   5  246.88   16.10
  -2  -3  -5   61.89    4.80
   2   3   5   69.69    5.30
   2   3   5   64.49    5.00
  -3  -3  -5  328.27   22.20
   3   3   5  329.17   22.30
   3   3   5  354.56   22.80
  -4  -3  -5    9.90    2.50
   4   3   5   12.10    2.80
  -5  -3  -5  429.06   26.40
   5   3   5  316.17   25.20
   6   3   5   33.60    3.90
   6   3   5   38.50    4.00
   6   3   5   34.40    3.10
   6   3   5   35.00    3.00
   6   3   5   36.00    3.50
   7   3   5   17.60    2.40
   7   3   5   13.90    2.20
   7   3   5   16.90    1.90
   6  -4  -5   31.10    2.80
   5  -4  -5    0.30    1.50
   5  -4  -5    1.40    1.10
   4  -4  -5  249.68   16.80
   4  -4  -5  249.78   17.10
   3  -4  -5   10.50    2.20
  -3   4   5    3.70    1.90
  -3   4   5    7.60    2.10
   2  -4  -5  223.58   15.90
  -2   4   5  242.48   16.20
  -2   4   5  244.38   16.20
   1  -4  -5   12.80    2.20
  -1   4   5   18.50    2.50
  -1   4   5   22.50    2.70
   0  -4  -5   32.60    3.10
   0   4   5   27.20    3.10
   0   4   5   29.10    3.20
   0   4   5   32.70    3.30
  -1  -4  -5  449.95   29.50
   1   4   5  428.76   29.40
   1   4   5  468.15   29.80
  -2  -4  -5   27.10    2.70
   2   4   5   29.30    3.30
  -3  -4  -5  118.99    8.60
   3   4   5  126.69    9.20
   4   4   5    2.40    1.90
   5   4   5  147.49    9.00
   5   4   5  117.29    8.80
   5   4   5  129.69    9.30
   6   4   5   -0.20    1.50
   6   4   5    1.00    1.00
   6   4   5    0.80    1.00
   6   4   5    0.10    1.10
   7   4   5   10.80    1.40
   7   4   5   10.50    2.00
   7   4   5    8.50    1.30
   6  -5  -5   29.30    2.50
  -6   5   5   28.80    2.60
   5  -5  -5   34.80    3.70
   5  -5  -5   38.50    3.20
   4  -5  -5  102.29    7.10
   4  -5  -5  117.79    7.50
   4  -5  -5  102.89    7.90
   4  -5  -5   88.39    6.80
   3  -5  -5   58.79    4.10
   3  -5  -5   44.10    4.60
   3  -5  -5   55.09    4.30
   2  -5  -5   40.70    4.20
  -2   5   5   45.00    4.50
  -2   5   5   53.89    4.60
  -1   5   5   79.49    6.70
  -1   5   5   89.09    6.80
  -1   5   5   88.59    6.80
   0  -5  -5    5.90    1.60
   0   5   5    6.20    2.10
   0   5   5    5.10    1.80
   0   5   5    3.40    1.80
  -1  -5  -5   85.89    6.40
   1   5   5   81.09    6.60
  -2  -5  -5   19.50    2.20
   2   5   5   13.60    2.60
  -3  -5  -5  154.48   10.70
   3   5   5  150.38   11.30
   4   5   5   57.79    4.30
   4   5   5   50.59    4.80
   4   5   5   60.39    4.40
   5   5   5   44.10    4.40
   5   5   5   44.20    3.60
   5   5   5   48.80    3.80
   6   5   5   99.49    7.60
   6   5   5  119.79    7.60
   7   5   5    3.90    0.80
   7   5   5    2.80    1.00
   5  -6  -5   27.00    2.30
   5  -6  -5   30.90    2.70
  -5   6   5   27.30    2.80
   4  -6  -5    2.10    1.20
   4  -6  -5    1.00    0.60
   4  -6  -5    0.10    1.20
  -4   6   5    0.70    1.60
   3  -6  -5   62.99    4.40
   3  -6  -5   67.29    4.80
  -3   6   5   46.20    5.60
   2  -6  -5   69.09    4.60
   2  -6  -5   59.89    4.80
  -2   6   5   54.49    5.60
   1  -6  -5  307.07   19.70
  -1   6   5  257.97   19.40
   0  -6  -5    6.00    2.00
   0   6   5    4.80    2.00
  -1  -6  -5  101.49    7.70
  -2  -6  -5    3.60    1.40
   2   6   5    4.80    2.00
   3   6   5    2.80    1.20
   3   6   5    1.20    0.80
   3   6   5    2.60    1.20
   3   6   5    2.30    1.50
   3   6   5    2.90    1.00
   4   6   5   85.39    6.20
   4   6   5   88.99    6.30
   4   6   5   79.69    6.60
   4   6   5   86.19    6.10
   4   6   5   93.69    6.50
   5   6   5   10.90    1.40
   5   6   5   11.10    2.10
   6   6   5   61.19    4.40
   6   6   5   64.69    4.80
   4  -7  -5   24.30    2.40
   4  -7  -5   21.70    1.80
   4  -7  -5   23.80    2.00
  -4   7   5   22.70    2.60
   3  -7  -5   40.40    3.40
   3  -7  -5   38.80    2.90
   3  -7  -5   33.90    3.00
  -3   7   5   33.00    4.30
   2  -7  -5   38.50    3.30
   2  -7  -5   45.70    3.40
  -2   7   5   41.80    4.60
   1  -7  -5   30.90    2.90
   1  -7  -5   39.00    3.30
  -1   7   5   37.20    3.00
  -1   7   5   32.20    2.80
   0  -7  -5   54.39    4.50
   0   7   5   58.39    4.30
   0   7   5   57.79    4.30
  -1  -7  -5  148.49   10.30
   1   7   5  149.29   10.20
   1   7   5  146.49   10.10
   1   7   5  156.88   10.10
   2   7   5    2.30    0.90
   2   7   5    1.20    1.30
   2   7   5    1.50    1.00
   3   7   5    6.90    1.80
   3   7   5    8.70    1.20
   3   7   5    8.30    1.80
   4   7   5   11.70    1.70
   4   7   5   10.40    1.40
   4   7   5   10.20    1.30
   4   7   5   13.00    1.80
   5   7   5   40.10    3.40
   5   7   5   45.00    3.20
   5   7   5   47.20    3.40
   5   7   5   49.00    3.90
   6   7   5   11.80    1.30
   6   7   5   10.10    1.30
   3  -8  -5    0.10    0.60
   3  -8  -5    0.30    0.90
   3  -8  -5    1.00    0.90
  -3   8   5    0.90    1.20
   2  -8  -5   42.10    3.20
   2  -8  -5   39.30    3.30
   2  -8  -5   47.10    3.60
  -2   8   5   44.80    4.10
   1  -8  -5    1.80    0.90
   1  -8  -5    2.30    1.20
  -1   8   5    1.00    0.60
   0  -8  -5  166.48   11.20
   0   8   5  160.38   11.00
   0   8   5  168.88   11.10
  -1  -8  -5   10.10    1.50
   1   8   5    9.50    1.30
   1   8   5   10.60    1.30
   1   8   5   10.10    1.30
   2   8   5   64.99    4.90
   2   8   5   61.89    4.50
   2   8   5   67.49    4.70
   3   8   5    3.20    0.70
   3   8   5    3.70    1.40
   3   8   5    3.30    1.30
   4   8   5   23.20    2.40
   4   8   5   27.10    2.30
   4   8   5   27.40    2.60
   5   8   5    6.00    0.90
   5   8   5    6.20    1.00
   5   8   5    6.90    0.90
   5   8   5    7.80    0.90
   2  -9  -5   28.00    2.30
   2  -9  -5   27.10    2.10
   1  -9  -5    4.30    0.80
   1  -9  -5    5.70    1.00
  -1   9   5    4.60    0.80
   0  -9  -5   14.20    1.70
   0   9   5   14.00    1.50
   0   9   5   15.60    1.40
   1   9   5   42.60    3.40
   1   9   5   42.30    3.10
   1   9   5   41.10    3.20
   2   9   5   38.20    3.20
   2   9   5   33.70    2.50
   2   9   5   33.50    2.60
   3   9   5   47.20    3.50
   3   9   5   47.00    3.30
   3   9   5   41.40    3.20
   2   8  -6    6.50    1.30
  -2  -8   6    6.40    0.80
   1   8  -6  134.19    8.80
   1   8  -6  127.99    8.40
  -1  -8   6  118.59    8.40
   0   8  -6    2.60    0.90
   0   8  -6    1.30    1.20
  -1   8  -6    9.80    1.20
  -1   8  -6   10.40    2.10
   1  -8   6   10.10    1.20
  -2   8  -6    4.50    0.80
   3  -8   6    6.90    0.90
   4   7  -6    8.70    1.40
  -4  -7   6   11.00    1.10
   3   7  -6   25.70    2.40
  -3  -7   6   26.90    2.40
   2   7  -6   76.39    5.60
   2   7  -6   69.09    5.10
  -2  -7   6   83.49    5.40
   1   7  -6   26.20    2.90
   1   7  -6   23.80    2.30
  -1  -7   6   26.50    2.50
   0   7  -6  146.79   10.70
   0   7  -6  163.28   10.40
  -1   7  -6   -0.70    0.90
  -1   7  -6    1.30    2.00
   1  -7   6    0.60    0.70
   2  -7   6   79.39    5.60
   3  -7   6    4.30    1.10
   3  -7   6    6.10    1.20
   4  -7   6    6.50    0.90
   4  -7   6    6.30    1.00
   5   6  -6    1.70    0.80
   5   6  -6    1.70    0.80
   4   6  -6   37.60    3.10
   4   6  -6   36.00    3.10
  -4  -6   6   40.00    3.00
   3   6  -6    0.50    1.00
  -3  -6   6    1.90    1.20
   2   6  -6  125.29    8.70
   2   6  -6  122.89    8.20
  -2  -6   6  119.49    8.30
   1   6  -6   29.70    2.70
   1   6  -6   31.50    3.40
  -1  -6   6   34.30    3.00
   0   6  -6  161.38   10.60
   0   6  -6  159.38   11.00
   0  -6   6  152.88   10.60
  -1   6  -6   62.79    4.60
   1  -6   6   61.69    4.60
   2  -6   6  105.79    7.30
   3  -6   6    2.50    1.20
   3  -6   6    3.80    0.90
   4  -6   6    0.50    0.70
   4  -6   6    0.70    0.90
   5  -6   6   28.80    2.30
   5   5  -6   17.90    2.10
   5   5  -6    9.50    1.50
   5   5  -6   13.50    1.60
   4   5  -6   18.30    2.40
   4   5  -6   14.40    1.70
  -4  -5   6   11.90    1.60
   3   5  -6    5.20    1.30
   3   5  -6    3.10    1.60
   2   5  -6   18.00    2.60
   2   5  -6   17.10    1.80
   1   5  -6  199.08   18.50
  -1  -5   6  268.97   16.10
   0   5  -6   31.10    4.30
   0  -5   6   33.80    4.10
  -1   5  -6  288.27   21.10
   1  -5   6  293.17   20.30
   2  -5   6   19.60    2.10
   3  -5   6   75.49    5.00
   3  -5   6   69.89    6.00
   3  -5   6   60.39    5.00
   4  -5   6    1.50    1.10
   4  -5   6    1.70    2.30
   4  -5   6    0.80    0.90
   5  -5   6   13.50    2.60
   5  -5   6   12.00    1.70
   5  -5   6   14.60    1.50
   6  -5   6    7.80    1.10
   6  -5   6    7.30    1.80
   6  -5   6    7.70    1.00
   6   4  -6   63.99    4.00
   6   4  -6   46.30    3.90
   5   4  -6    1.50    1.40
   5   4  -6    2.90    1.70
   5   4  -6    3.30    1.00
   4   4  -6   57.09    4.70
   4   4  -6   57.59    4.60
   4   4  -6   57.39    4.80
   3   4  -6   68.69    5.60
   3   4  -6   84.19    5.90
   2   4  -6    0.60    1.90
  -2  -4   6    0.00    1.10
   1   4  -6  317.17   22.30
  -1  -4   6  320.97   21.80
   0   4  -6   43.40    4.80
   0  -4   6   41.00    4.20
  -1   4  -6  417.56   29.10
  -1   4  -6  457.95   28.60
   1  -4   6  391.16   28.30
  -2   4  -6    8.30    2.30
  -2   4  -6    5.80    2.40
  -3   4  -6  105.39    9.50
   4  -4   6   21.60    3.70
   4  -4   6   13.90    1.70
   4  -4   6   19.90    2.20
   5  -4   6   49.70    4.90
   5  -4   6   43.30    3.40
   5  -4   6   45.80    3.70
   6  -4   6   12.70    1.50
   6  -4   6   16.90    1.90
   6  -4   6   14.80    2.60
   6   3  -6   12.60    1.80
   5   3  -6   53.49    4.60
   5   3  -6   58.39    5.40
   5   3  -6   66.89    4.80
   5   3  -6   64.09    4.80
   4   3  -6    8.80    1.70
   4   3  -6   10.20    2.00
   4   3  -6    9.40    1.60
   4   3  -6   10.30    2.50
   2   3  -6    4.90    2.40
  -2  -3   6    4.50    1.70
   1   3  -6    0.00    1.60
  -1  -3   6    1.50    1.70
   0   3  -6 1227.98   77.89
   0  -3   6 1152.98   77.29
  -1   3  -6  150.98   11.40
  -1   3  -6  150.48   10.70
   1  -3   6  141.09   10.60
  -2   3  -6  397.86   26.70
  -2   3  -6  398.96   27.30
  -3   3  -6   55.19    5.90
  -3   3  -6   48.10    4.40
   5  -3   6   23.50    3.70
   5  -3   6   23.90    2.50
   5  -3   6   21.70    2.30
   6  -3   6   23.50    3.10
   6  -3   6   28.50    2.40
   6  -3   6   21.70    2.20
   6  -3   6   26.30    2.70
   7  -3   6    4.70    1.10
   7  -3   6    5.70    0.90
   7  -3   6    4.70    1.50
   6   2  -6    6.00    1.40
   6   2  -6    3.90    1.20
   6   2  -6    7.00    2.00
   5   2  -6  147.59   11.00
   5   2  -6  149.29   11.10
   5   2  -6  164.08   10.90
   5   2  -6  178.68   11.80
   4   2  -6   17.90    2.50
   4   2  -6   18.30    2.30
   4   2  -6   18.40    2.50
   4   2  -6   21.70    3.30
   3   2  -6  181.08   12.40
   3   2  -6  179.78   13.40
  -3  -2   6  170.88   12.30
   2   2  -6   81.29    6.90
   2   2  -6   70.89    6.00
  -2  -2   6   90.19    6.50
   1   2  -6    4.00    1.70
   1   2  -6    4.50    2.00
  -1  -2   6    5.50    1.80
   0   2  -6  202.28   15.90
   0   2  -6  248.48   16.30
   0  -2   6  248.58   15.90
  -1   2  -6   45.90    4.20
  -1   2  -6   49.80    4.90
   1  -2   6   43.00    4.20
  -2   2  -6  596.34   39.30
  -2   2  -6  585.54   38.80
  -3   2  -6    5.90    2.70
  -3   2  -6    2.60    1.60
  -4   2  -6  256.47   18.70
  -4   2  -6  269.57   17.90
   5  -2   6    6.70    2.10
   5  -2   6    6.00    1.50
   5  -2   6    7.00    1.20
   5  -2   6   10.60    2.40
   5  -2   6    8.90    1.60
   6  -2   6   22.50    2.30
   6  -2   6   25.50    3.70
   6  -2   6   23.80    2.90
   6  -2   6   30.00    2.50
   6  -2   6   24.50    3.40
   7  -2   6   23.50    2.70
   7  -2   6   25.30    2.40
   6   1  -6   36.70    3.10
   6   1  -6   29.50    3.40
   5   1  -6   97.59    7.10
   5   1  -6   86.59    6.80
   5   1  -6   99.59    7.80
   5   1  -6   85.59    6.70
   4   1  -6  115.19    9.50
   4   1  -6  104.29    9.50
   4   1  -6  118.59    8.50
   3   1  -6   38.70    4.50
   3   1  -6   43.40    3.80
  -3  -1   6   42.90    3.80
   2   1  -6  446.46   31.50
   2   1  -6  477.85   32.20
  -2  -1   6  522.15   31.80
   1   1  -6   43.00    4.20
  -1  -1   6   48.40    4.00
   0   1  -6    1.40    1.70
   0   1  -6    2.80    1.30
   0   1  -6    3.10    1.70
   0  -1   6    3.30    1.40
  -1   1  -6  303.57   19.90
  -1   1  -6  307.57   20.30
   1  -1   6  292.97   19.70
   1  -1   6  293.07   19.90
  -2   1  -6   54.19    4.40
  -2   1  -6   57.19    5.30
  -3   1  -6  582.14   35.90
  -3   1  -6  557.04   36.40
   3  -1   6  503.25   36.00
  -4   1  -6  245.88   16.80
  -4   1  -6  254.07   17.70
   4  -1   6  248.08   17.30
   5  -1   6  171.08   11.90
   5  -1   6  165.68   10.40
   5  -1   6  143.39   11.50
   5  -1   6  134.19   10.70
   5  -1   6  155.58   10.50
   6  -1   6   28.00    3.00
   6  -1   6   35.80    2.90
   6  -1   6   32.20    3.90
   6  -1   6   27.90    2.70
   6  -1   6   37.90    4.00
   7  -1   6   43.90    3.90
   7  -1   6   39.00    3.70
   7  -1   6   50.09    3.50
   7   0  -6    1.00    0.80
   7   0  -6    1.00    0.90
   6   0  -6   29.90    3.30
   6   0  -6   25.50    3.10
   5   0  -6   35.20    3.80
   5   0  -6   32.00    4.30
   4   0  -6  436.36   28.80
   4   0  -6  427.76   29.70
   3   0  -6   29.90    3.90
   3   0  -6   29.00    3.10
  -3   0   6   31.20    3.10
   2   0  -6  251.27   18.30
   2   0  -6  283.77   19.00
  -2   0   6  293.27   18.40
   1   0  -6  179.88   12.60
  -1   0   6  183.68   12.20
  -1   0   6  178.98   12.30
   0   0  -6  545.35   36.30
   0   0  -6  500.55   36.30
   0   0  -6  550.74   36.20
   0   0   6  600.74   36.30
   0   0   6  580.04   36.10
  -1   0  -6   28.40    2.70
  -1   0  -6   23.20    3.30
   1   0   6   26.50    2.60
   1   0   6   24.10    2.70
  -2   0  -6  174.58   11.60
  -2   0  -6  175.28   12.10
   2   0   6  158.08   11.60
   2   0   6  175.18   11.60
  -3   0  -6  915.81   59.59
  -3   0  -6  941.71   60.19
   3   0   6  901.11   59.79
  -4   0  -6   41.90    5.10
   4   0   6   43.00    4.50
  -5   0  -6  566.74   39.40
   5   0   6  609.34   39.30
   6   0   6    4.50    1.20
   6   0   6    4.40    1.70
   6   0   6    4.90    2.00
   7   0   6   39.60    3.90
   7   0   6   41.00    3.20
   7   0   6   31.90    3.30
   8   0   6    3.20    1.20
   8   0   6    4.80    1.20
   8   0   6    2.60    0.60
   6  -1  -6   11.90    2.40
   6  -1  -6   11.90    1.90
   5  -1  -6  102.69    8.50
   5  -1  -6  111.79    7.80
   4  -1  -6  122.39    9.70
   4  -1  -6  120.59    9.00
   3  -1  -6  140.69   10.20
   3  -1  -6  146.69   10.70
  -3   1   6  141.99   10.00
   2  -1  -6   48.70    4.40
   2  -1  -6   41.50    3.90
  -2   1   6   48.90    4.10
  -2   1   6   49.90    4.20
   1  -1  -6  386.56   26.10
  -1   1   6  403.26   25.80
  -1   1   6  386.16   25.90
   0   1   6  147.79   10.30
   0   1   6  153.78   10.40
  -1  -1  -6   52.69    4.60
   1   1   6   49.20    4.20
   1   1   6   57.99    4.20
  -2  -1  -6  306.07   20.60
  -2  -1  -6  337.37   21.20
   2   1   6  282.77   20.60
   2   1   6  325.97   20.70
  -3  -1  -6  162.38   11.30
  -3  -1  -6  152.98   10.70
   3   1   6  153.88   11.00
  -4  -1  -6  560.54   36.40
   4   1   6  526.05   36.00
  -5  -1  -6  143.99   11.10
   5   1   6  137.69   10.60
   6   1   6  147.49   10.40
   6   1   6  144.79    9.70
   6   1   6  132.09   10.10
   7   1   6   35.90    3.60
   7   1   6   30.20    3.20
   7   1   6   35.20    3.00
   8   1   6    9.00    1.50
   8   1   6   11.50    1.40
   8   1   6   14.60    2.00
   6  -2  -6    3.70    1.50
   6  -2  -6    4.20    1.80
   5  -2  -6   21.20    3.10
   5  -2  -6   20.20    2.80
   4  -2  -6   12.90    2.60
   4  -2  -6   13.40    2.40
   3  -2  -6  432.86   29.80
   3  -2  -6  438.56   29.30
  -3   2   6  442.86   29.30
  -3   2   6  452.95   29.40
   2  -2  -6   10.00    2.30
  -2   2   6   12.50    2.20
  -2   2   6    9.90    2.20
   1  -2  -6  259.57   18.20
  -1   2   6  269.47   17.90
  -1   2   6  277.27   18.10
   0  -2  -6    2.30    1.30
   0   2   6    1.70    1.60
   0   2   6    1.80    1.40
  -1  -2  -6  959.00   62.39
  -1  -2  -6 1014.70   62.39
   1   2   6  988.90   62.19
   1   2   6  868.21   62.39
   1   2   6  980.00   62.69
  -2  -2  -6   37.60    3.60
  -2  -2  -6   42.70    4.10
   2   2   6   42.90    3.70
   2   2   6   41.70    3.70
  -3  -2  -6   72.39    5.30
  -3  -2  -6   70.09    5.90
   3   2   6   65.49    5.60
   3   2   6   69.39    5.60
  -4  -2  -6  139.89   10.50
   4   2   6  137.29   10.30
  -5  -2  -6   47.50    5.10
   5   2   6   49.30    5.00
   6   2   6  194.48   12.30
   6   2   6  186.08   12.80
   6   2   6  162.48   12.60
   7   2   6   11.60    2.00
   7   2   6    8.60    1.30
   7   2   6    8.60    1.70
   8   2   6   27.30    2.60
   8   2   6   18.90    2.00
   6  -3  -6    7.70    1.80
   6  -3  -6   12.20    2.10
   5  -3  -6   44.70    3.80
   5  -3  -6   40.10    3.80
   5  -3  -6   35.20    4.00
   4  -3  -6   10.20    2.60
   4  -3  -6   12.30    2.10
  -4   3   6    9.00    1.40
   3  -3  -6   15.80    3.20
   3  -3  -6   16.90    2.60
  -3   3   6    9.40    1.90
  -3   3   6   12.90    2.70
   2  -3  -6  305.97   20.70
  -2   3   6  294.57   20.30
  -2   3   6  304.77   20.30
  -1   3   6  312.37   21.00
  -1   3   6  314.07   20.90
   0  -3  -6  690.53   43.90
   0   3   6  653.83   44.00
   0   3   6  675.53   43.80
  -1  -3  -6  311.57   19.80
   1   3   6  305.57   19.70
   1   3   6  273.87   19.80
  -2  -3  -6  190.68   13.40
  -2  -3  -6  195.28   13.20
   2   3   6  200.88   13.60
   2   3   6  190.58   13.20
  -3  -3  -6   29.30    3.40
   3   3   6   31.20    3.30
   3   3   6   33.90    3.60
  -4  -3  -6   68.19    6.10
   4   3   6   67.49    5.90
   5   3   6   90.29    7.40
   5   3   6   97.99    6.80
   5   3   6  100.39    7.00
   5   3   6  101.09    7.40
   5   3   6   93.39    6.70
   6   3   6    8.80    1.40
   6   3   6    8.50    2.00
   6   3   6    8.40    1.20
   6   3   6    7.30    1.70
   6   3   6   10.20    1.80
   7   3   6  114.09    8.30
   7   3   6  132.59    8.90
   7   3   6  118.69    8.60
   6  -4  -6    0.80    1.20
   6  -4  -6    1.40    0.80
   5  -4  -6   20.60    2.50
   5  -4  -6   22.00    2.70
   4  -4  -6   25.50    3.00
   4  -4  -6   28.20    3.80
   3  -4  -6   98.19    7.50
   3  -4  -6  110.59    7.20
  -3   4   6   78.79    7.40
   2  -4  -6  516.15   33.00
  -2   4   6  467.85   32.50
  -1   4   6    4.30    2.00
  -1   4   6    5.90    2.20
   0  -4  -6  780.12   48.90
   0   4   6  743.13   49.00
   0   4   6  724.63   48.70
  -1  -4  -6   22.50    2.40
   1   4   6   16.40    2.50
   1   4   6   23.40    2.80
  -2  -4  -6  908.91   57.89
   2   4   6  870.71   57.79
  -3  -4  -6    4.10    1.70
   3   4   6    2.90    1.80
  -4  -4  -6    0.30    1.70
   4   4   6   -0.50    1.60
   5   4   6   30.10    2.80
   5   4   6   32.80    4.00
   5   4   6   32.60    3.00
   5   4   6   29.40    3.50
   6   4   6   27.00    3.30
   6   4   6   37.50    2.90
   6   4   6   30.90    3.80
   6   4   6   37.90    3.50
   6   4   6   40.80    3.10
   7   4   6   78.09    6.00
   7   4   6   81.19    5.60
   7   4   6   75.19    5.40
   5  -5  -6   33.80    3.00
   5  -5  -6   30.20    2.90
  -5   5   6   27.10    3.30
   4  -5  -6   10.30    2.00
   4  -5  -6    5.00    0.90
   4  -5  -6    8.60    1.50
   3  -5  -6    4.40    1.40
   3  -5  -6    5.30    2.50
   3  -5  -6    4.70    1.10
  -2   5   6   41.50    4.80
  -1   5   6   73.09    6.20
  -1   5   6   78.69    6.20
   0  -5  -6  226.58   15.10
   0   5   6  225.38   15.20
   0   5   6  202.68   14.80
  -1  -5  -6  410.46   26.80
   1   5   6  396.16   27.10
  -2  -5  -6  216.08   15.20
   2   5   6  227.78   15.60
  -3  -5  -6   15.10    2.30
   3   5   6    8.10    2.20
   4   5   6    5.10    1.40
   4   5   6    2.70    1.10
   4   5   6    1.80    2.60
   4   5   6    2.90    1.30
   5   5   6   30.60    2.90
   5   5   6   29.90    2.80
   5   5   6   28.30    3.00
   6   5   6    4.20    0.90
   6   5   6    1.60    1.10
   6   5   6    3.30    0.90
   7   5   6    0.00    0.40
   7   5   6    0.00    0.70
   5  -6  -6    0.20    0.90
  -5   6   6    1.10    1.40
   4  -6  -6   32.20    2.50
   4  -6  -6   34.50    2.90
  -4   6   6   36.30    3.90
   3  -6  -6    3.80    1.30
   3  -6  -6    3.60    1.00
  -3   6   6    2.70    2.40
   2  -6  -6   23.60    2.70
   2  -6  -6   26.90    2.40
  -2   6   6   26.20    2.60
  -2   6   6   15.30    3.10
   1  -6  -6   83.49    6.10
   1  -6  -6   80.09    6.20
  -1   6   6   90.59    6.20
   0   6   6    1.50    1.10
   0   6   6    1.20    1.70
   1   6   6  409.16   27.70
  -2  -6  -6    0.60    1.90
   2   6   6    0.50    0.90
   2   6   6    0.60    0.90
   2   6   6    0.80    1.70
   2   6   6    0.90    1.50
  -3  -6  -6  389.86   27.40
   3   6   6  413.76   27.20
   3   6   6  402.36   27.00
   3   6   6  410.36   27.20
   3   6   6  438.26   27.40
   3   6   6  428.56   27.20
   3   6   6  437.16   27.30
   4   6   6    2.10    1.80
   4   6   6    6.60    1.20
   4   6   6    4.50    0.80
   4   6   6    6.00    1.20
   5   6   6    7.80    1.20
   5   6   6    7.00    1.90
   5   6   6    6.20    1.20
   6   6   6    1.20    0.90
   6   6   6   -1.40    1.20
   4  -7  -6   39.10    3.00
   4  -7  -6   31.70    2.60
  -4   7   6   36.20    3.10
   3  -7  -6   51.99    3.70
   3  -7  -6   50.99    4.10
   3  -7  -6   51.69    4.00
  -3   7   6   47.40    4.30
   2  -7  -6   26.30    2.50
   2  -7  -6   31.00    2.60
  -2   7   6   25.20    3.80
   1  -7  -6    5.10    1.40
   1  -7  -6    3.80    1.10
  -1   7   6    3.90    1.10
  -1   7   6    2.50    1.00
   0  -7  -6   36.60    3.40
   0   7   6   46.60    3.40
   0   7   6   45.40    3.50
  -1  -7  -6   27.00    2.90
   1   7   6   24.70    2.60
   1   7   6   25.40    2.50
  -2  -7  -6  322.27   21.50
   2   7   6  309.07   21.30
   2   7   6  347.77   21.40
   2   7   6  321.67   21.20
   3   7   6  123.29    7.70
   3   7   6   96.19    7.60
   3   7   6  109.99    7.80
   3   7   6  119.79    7.90
   4   7   6    9.40    1.80
   4   7   6   10.00    1.20
   4   7   6    9.50    1.40
   4   7   6   13.00    1.50
   5   7   6   21.90    2.10
   5   7   6   20.70    2.70
   6   7   6   11.20    1.20
   6   7   6    8.30    1.10
   3  -8  -6   39.60    2.80
   3  -8  -6   42.00    3.00
   3  -8  -6   36.70    3.00
  -3   8   6   39.60    3.30
   2  -8  -6   15.00    1.70
   2  -8  -6   19.30    1.80
   2  -8  -6   17.30    2.00
   1  -8  -6    5.30    1.10
   1  -8  -6    4.60    1.00
  -1   8   6    3.60    1.00
  -1   8   6    2.80    0.90
   0  -8  -6   39.00    3.20
  -1  -8  -6    3.20    1.00
   1   8   6    3.90    0.80
   1   8   6    2.70    1.00
   2   8   6   62.99    4.50
   2   8   6   67.69    4.70
   2   8   6   67.19    5.10
   2   8   6   58.29    4.50
   3   8   6    3.90    0.80
   3   8   6    4.80    1.10
   3   8   6    5.50    1.00
   4   8   6  151.58   10.00
   4   8   6  163.18   10.10
   4   8   6  133.29    9.80
   5   8   6    5.00    0.80
   5   8   6    5.50    1.00
   5   8   6    4.70    1.40
   1  -9  -6   11.40    1.20
   1  -9  -6   16.30    1.70
   0  -9  -6    8.50    1.20
   0   9   6   10.80    1.30
   0   9   6   10.70    1.10
   1   9   6    1.70    0.70
   1   9   6    1.20    0.70
   1   9   6    0.00    1.30
   2   9   6    2.10    0.60
   2   9   6    2.70    0.90
   2   9   6    1.90    0.60
   3   9   6   45.60    3.50
   3   9   6   46.40    3.30
   3   9   6   50.59    3.50
   1   8  -7   55.39    3.50
   1   8  -7   47.90    3.60
  -1  -8   7   46.40    3.50
   0   8  -7   12.50    1.40
  -1   8  -7   99.59    6.60
   1  -8   7   96.09    6.60
   2  -8   7    0.80    0.50
   3   7  -7   -0.30    0.70
  -3  -7   7   -0.30    0.50
   2   7  -7   13.50    1.40
   2   7  -7   13.40    1.70
  -2  -7   7   15.10    1.70
   1   7  -7   12.10    1.60
   1   7  -7   12.80    1.50
  -1  -7   7   10.30    1.40
   0   7  -7   75.39    5.20
   0   7  -7   74.29    5.50
   0  -7   7   70.99    5.10
  -1   7  -7   56.99    4.30
   1  -7   7   59.79    4.30
   2  -7   7   82.79    5.80
   3  -7   7   79.09    5.40
   4  -7   7   30.50    2.20
   4   6  -7    3.30    1.00
  -4  -6   7    2.60    0.80
   3   6  -7   40.70    3.40
  -3  -6   7   36.20    2.90
   2   6  -7   16.70    2.40
   2   6  -7   17.30    1.60
  -2  -6   7   16.00    1.80
   1   6  -7    1.10    1.00
   1   6  -7    2.00    1.40
  -1  -6   7    2.50    1.10
   0   6  -7   44.30    3.60
   0  -6   7   45.50    3.40
  -1   6  -7    5.10    1.20
   1  -6   7    9.70    1.20
   2  -6   7  191.18   12.70
   3  -6   7    0.00    0.70
   4  -6   7  162.68   10.80
   5  -6   7    4.50    0.60
   5   5  -7   28.40    2.40
   5   5  -7   32.60    2.70
   4   5  -7   78.29    5.50
   4   5  -7   81.69    5.70
  -4  -5   7   67.19    5.20
   3   5  -7   65.79    4.70
   3   5  -7   51.29    4.60
  -3  -5   7   64.09    4.50
   2   5  -7    0.60    1.00
   2   5  -7    0.20    0.70
  -2  -5   7    2.30    1.20
   1   5  -7    0.20    1.40
   1   5  -7    2.50    1.10
  -1  -5   7    0.10    1.20
   0   5  -7   13.10    1.70
   0  -5   7   14.20    1.70
  -1   5  -7   98.49    7.10
   1  -5   7  103.69    6.90
   1  -5   7  100.99    7.00
   2  -5   7  158.98   10.70
   2  -5   7  157.88   11.40
   3  -5   7  111.69    8.90
   3  -5   7  122.59    8.10
   4  -5   7  142.49    9.10
   4  -5   7  121.39    9.60
   4  -5   7  138.39    9.00
   5  -5   7   74.09    4.90
   5  -5   7   63.59    5.40
   6  -5   7   16.90    1.50
   6  -5   7   18.90    2.30
   5   4  -7    2.80    1.50
   5   4  -7    3.90    1.00
   5   4  -7    1.60    1.10
   4   4  -7  208.18   13.60
   4   4  -7  195.08   13.60
   3   4  -7    4.40    1.40
   3   4  -7    0.70    1.50
  -3  -4   7    1.50    1.20
   2   4  -7  237.78   15.70
   2   4  -7  245.08   16.20
  -2  -4   7  235.48   15.90
  -1  -4   7    8.50    2.30
   0   4  -7   15.00    3.10
   0  -4   7    7.50    2.00
  -1   4  -7   17.60    3.40
  -1   4  -7   15.00    3.10
   1  -4   7   22.00    3.30
  -2   4  -7   -0.50    1.40
  -2   4  -7   -2.10    2.20
   3  -4   7  207.38   14.20
   3  -4   7  223.38   15.10
   4  -4   7    4.00    1.00
   4  -4   7    3.90    1.10
   4  -4   7    2.80    2.50
   5  -4   7  110.99    7.30
   5  -4   7  103.09    8.40
   6  -4   7    1.30    0.60
   6  -4   7    1.80    0.90
   6  -4   7    0.60    1.40
   6   3  -7   18.20    2.10
   6   3  -7   20.90    1.90
   5   3  -7   16.90    1.90
   5   3  -7   22.20    2.60
   5   3  -7   19.90    2.70
   5   3  -7   13.70    2.30
   4   3  -7   19.90    2.80
   4   3  -7   20.10    3.40
   4   3  -7   16.20    2.40
   4   3  -7   17.40    2.20
   3   3  -7  276.77   19.50
   3   3  -7  280.97   18.80
   3   3  -7  293.77   19.00
  -2  -3   7  392.96   26.60
   1   3  -7    9.00    2.00
   0   3  -7  410.66   27.20
   0  -3   7  381.66   26.60
  -1   3  -7   12.40    3.00
  -1   3  -7    5.80    2.60
   1  -3   7   11.90    2.70
  -2   3  -7   48.20    4.80
  -2   3  -7   59.19    5.70
  -3   3  -7  167.98   12.70
  -3   3  -7  187.38   13.70
   4  -3   7   93.89    8.20
   4  -3   7  105.09    7.10
   4  -3   7  110.29    8.10
   5  -3   7  101.19    8.60
   5  -3   7  115.59    7.70
   5  -3   7  124.69    8.80
   5  -3   7  109.09    7.80
   6  -3   7  108.39    9.10
   6  -3   7  135.59    8.70
   6  -3   7  139.79    8.60
   7  -3   7   51.19    3.20
   7  -3   7   37.70    3.60
   6   2  -7   -0.50    1.30
   6   2  -7   -0.50    1.30
   6   2  -7   -0.30    0.60
   5   2  -7   71.79    5.30
   5   2  -7   58.39    5.40
   5   2  -7   69.49    5.00
   5   2  -7   60.99    5.00
   4   2  -7   13.50    2.40
   4   2  -7   15.40    2.10
   4   2  -7   15.30    2.90
   4   2  -7   14.20    2.20
   3   2  -7  437.66   30.60
  -3  -2   7  449.26   29.50
   2   2  -7   13.20    2.90
  -2  -2   7   22.50    2.70
  -1  -2   7 1692.23  109.59
   0   2  -7  136.39   10.80
   0   2  -7  141.79   10.50
   0  -2   7  157.08   10.60
  -1   2  -7  146.99   10.70
  -1   2  -7  166.28   11.30
   1  -2   7  133.49   10.50
  -2   2  -7   11.10    2.20
  -2   2  -7   17.70    3.20
  -3   2  -7   12.30    2.30
  -3   2  -7   19.30    3.60
  -4   2  -7  311.97   23.10
  -4   2  -7  376.86   24.10
   5  -2   7   15.40    2.70
   5  -2   7   16.50    2.00
   5  -2   7   14.70    2.90
   5  -2   7   14.80    1.80
   6  -2   7  104.09    7.70
   6  -2   7  106.19    7.00
   6  -2   7   86.99    7.10
   6  -2   7  118.69    8.20
   6  -2   7  102.79    7.50
   7  -2   7    4.50    1.30
   7  -2   7    3.20    1.40
   7  -2   7    2.60    0.70
   6   1  -7    1.30    1.70
   6   1  -7   -0.40    1.60
   5   1  -7   11.20    1.80
   5   1  -7   12.70    2.70
   5   1  -7   14.00    2.30
   4   1  -7   16.40    3.10
   4   1  -7   16.20    2.50
   4   1  -7   15.00    2.10
   4   1  -7   18.40    2.30
   3   1  -7   66.99    6.40
  -3  -1   7   72.39    5.60
   2   1  -7  220.18   16.20
  -2  -1   7  237.58   15.70
   1   1  -7  351.46   24.50
  -1  -1   7  378.06   24.30
   0   1  -7   77.09    6.30
   0   1  -7   69.89    5.90
   0  -1   7   79.89    5.80
  -1   1  -7  772.32   47.70
  -1   1  -7  735.13   48.00
   1  -1   7  721.73   47.70
   1  -1   7  693.13   47.40
  -2   1  -7  116.79    8.60
  -2   1  -7  121.69    9.30
  -3   1  -7    2.00    1.40
  -3   1  -7    0.40    2.40
  -4   1  -7   56.29    6.20
  -4   1  -7   62.19    5.10
   4  -1   7   57.89    5.50
   5  -1   7   63.89    4.50
   5  -1   7   56.19    5.60
   5  -1   7   59.19    5.00
   5  -1   7   63.39    5.60
   5  -1   7   64.09    4.70
   6  -1   7   83.69    6.10
   6  -1   7   85.39    6.80
   6  -1   7   72.09    6.40
   6  -1   7   87.69    6.40
   6  -1   7   87.29    5.90
   7  -1   7   35.90    3.30
   7  -1   7   35.60    2.80
   7  -1   7   37.60    3.70
   6   0  -7   19.30    3.00
   6   0  -7   13.50    2.20
   5   0  -7   26.70    4.00
   5   0  -7   26.30    3.40
   4   0  -7   24.30    3.20
   4   0  -7   25.10    3.80
   4   0  -7   19.80    2.60
   4   0  -7   23.40    3.20
   3   0  -7   81.09    6.90
  -3   0   7   78.89    6.10
   2   0  -7  246.38   17.10
  -2   0   7  244.38   16.60
   1   0  -7   65.49    5.60
  -1   0   7   70.99    5.30
   0   0  -7 2456.05  159.38
   0   0  -7 2368.66  159.48
   0   0   7 2547.95  159.38
   0   0   7 2526.35  159.18
  -1   0  -7    7.80    1.90
  -1   0  -7    8.50    2.30
   1   0   7    6.20    1.60
   1   0   7    6.70    1.80
  -2   0  -7 1404.16   89.49
  -2   0  -7 1358.06   88.99
   2   0   7 1368.86   88.89
  -3   0  -7  133.09    9.80
  -3   0  -7  124.69    8.90
   3   0   7  118.59    9.10
  -4   0  -7    7.70    3.00
  -4   0  -7    7.00    2.00
   4   0   7   10.30    2.40
   5   0   7   42.10    4.20
   5   0   7   49.20    3.70
   5   0   7   48.10    4.70
   6   0   7   10.10    1.50
   6   0   7   13.60    2.50
   6   0   7   13.50    2.20
   7   0   7   26.50    2.30
   7   0   7   28.00    2.70
   6  -1  -7   35.40    3.80
   6  -1  -7   40.30    3.70
   5  -1  -7   74.69    5.80
   5  -1  -7   65.19    6.10
   4  -1  -7    9.40    2.50
   4  -1  -7    8.60    2.20
   3  -1  -7    1.90    2.10
  -3   1   7    2.40    1.40
   2  -1  -7   95.09    7.60
  -2   1   7   92.69    7.10
  -2   1   7  100.69    7.10
   1  -1  -7  535.85   35.50
  -1   1   7  526.75   35.00
  -1   1   7  547.35   35.30
   0  -1  -7  495.05   34.80
   0  -1  -7  515.35   34.70
   0   1   7  549.65   34.60
   0   1   7  556.14   34.70
  -1  -1  -7  611.84   39.20
  -1  -1  -7  575.24   39.40
   1   1   7  647.44   39.10
   1   1   7  564.94   39.20
  -2  -1  -7 1620.44  101.09
  -2  -1  -7 1491.75  100.49
   2   1   7 1562.14  100.59
  -3  -1  -7   82.79    7.30
  -3  -1  -7   86.09    6.30
   3   1   7   81.59    6.40
  -4  -1  -7   63.19    6.60
   4   1   7   73.49    5.90
   5   1   7    4.00    1.90
   5   1   7    7.30    1.30
   5   1   7    6.90    1.90
   5   1   7    5.80    1.10
   6   1   7    6.00    1.30
   6   1   7    5.80    1.60
   6   1   7    6.20    2.20
   7   1   7   51.49    4.30
   7   1   7   42.50    4.00
   7   1   7   49.30    3.70
   6  -2  -7   57.39    4.20
   6  -2  -7   50.69    4.50
   5  -2  -7   48.40    4.60
   5  -2  -7   53.89    4.60
  -5   2   7   40.80    3.60
   4  -2  -7   44.30    4.70
   4  -2  -7   50.09    4.50
   3  -2  -7    3.90    2.00
  -3   2   7    3.20    1.40
  -3   2   7    3.60    2.00
   2  -2  -7  120.39    9.00
  -2   2   7  120.29    8.70
  -2   2   7  112.69    8.60
   1  -2  -7  501.35   33.80
  -1   2   7  537.95   33.50
  -1   2   7  490.45   33.60
   0  -2  -7  119.49    8.80
   0   2   7  127.99    8.60
   0   2   7  114.29    8.70
  -1  -2  -7 1804.72  118.89
   1   2   7 1878.21  118.69
  -2  -2  -7    1.30    1.80
   2   2   7    0.70    1.60
   2   2   7    0.50    1.30
  -3  -2  -7  335.07   21.80
  -3  -2  -7  342.97   22.50
   3   2   7  339.07   22.00
   3   2   7  297.97   22.10
  -4  -2  -7    4.60    2.10
   4   2   7   11.80    2.50
   5   2   7   14.10    2.40
   5   2   7   11.60    2.40
   5   2   7   13.20    1.70
   5   2   7   12.60    1.70
   6   2   7   -1.20    1.20
   6   2   7   -0.70    1.80
   6   2   7    0.70    1.90
   6   2   7   -0.50    1.10
   7   2   7    3.50    1.30
   7   2   7    3.70    1.40
   7   2   7    4.70    1.00
   6  -3  -7   50.09    3.80
   5  -3  -7   44.90    4.40
   4  -3  -7  135.99    9.30
  -4   3   7  125.79    9.00
   3  -3  -7   55.49    4.90
   3  -3  -7   57.59    5.30
  -3   3   7   37.30    4.50
   2  -3  -7   51.49    5.00
  -2   3   7   56.69    4.90
  -2   3   7   55.89    4.90
   1  -3  -7   72.29    6.10
  -1   3   7   75.79    6.00
  -1   3   7   76.59    6.00
   0  -3  -7  160.08   10.80
   0   3   7  156.28   10.60
   0   3   7  139.19   10.80
  -1  -3  -7  306.27   20.90
   1   3   7  318.47   20.80
  -2  -3  -7   38.00    3.90
  -2  -3  -7   31.10    3.40
   2   3   7   31.30    3.50
   2   3   7   39.50    3.40
  -3  -3  -7  311.07   21.50
   3   3   7  302.07   21.20
   3   3   7  333.77   21.60
  -4  -3  -7  100.39    8.50
   4   3   7  108.99    8.30
   5   3   7  199.08   13.00
   5   3   7  201.68   13.40
   5   3   7  170.58   13.40
   5   3   7  190.78   12.80
   5   3   7  199.98   12.90
   6   3   7    0.50    1.20
   6   3   7   -1.00    1.50
   6   3   7   -1.00    1.80
   6   3   7   -0.20    1.30
   7   3   7    3.20    1.60
   7   3   7    3.50    1.20
   7   3   7    2.80    1.20
   5  -4  -7  111.39    7.50
   5  -4  -7   93.79    7.10
   4  -4  -7   21.20    2.80
   4  -4  -7   21.10    2.60
   3  -4  -7  365.06   23.60
   3  -4  -7  362.96   24.00
  -3   4   7  353.66   23.80
   2  -4  -7    9.50    2.30
  -2   4   7   12.70    2.50
   1  -4  -7  230.78   16.10
  -1   4   7  219.68   15.60
  -1   4   7  235.08   15.90
   0  -4  -7  222.68   14.10
   0   4   7  174.18   14.00
   0   4   7  211.48   13.90
  -1  -4  -7   78.39    6.00
   1   4   7   73.59    5.80
  -2  -4  -7  641.14   40.60
   2   4   7  579.94   40.40
   2   4   7  630.74   40.80
  -3  -4  -7   21.20    3.10
  -3  -4  -7   21.20    2.60
   3   4   7   26.90    3.30
   4   4   7  192.88   13.80
   4   4   7  210.58   13.40
   4   4   7  202.18   13.30
   4   4   7  187.38   13.30
   5   4   7   45.50    4.60
   5   4   7   45.00    3.60
   5   4   7   40.00    3.50
   5   4   7   47.10    4.00
   6   4   7   39.20    3.40
   6   4   7   33.90    3.80
   6   4   7   34.80    2.80
   6   4   7   39.30    3.00
   6   4   7   25.80    3.80
   7   4   7    1.10    1.10
   7   4   7    2.00    1.30
   7   4   7    2.00    1.30
   5  -5  -7   83.29    5.90
   4  -5  -7   62.59    4.70
   4  -5  -7   51.19    4.00
   4  -5  -7   60.89    4.60
   3  -5  -7  212.08   13.40
   3  -5  -7  200.08   13.90
   3  -5  -7  217.98   14.00
  -3   5   7  177.18   13.60
   2  -5  -7   71.99    5.80
   2  -5  -7   65.89    5.00
   2  -5  -7   62.39    4.90
  -2   5   7   60.09    5.20
   1  -5  -7   27.30    3.60
  -1   5   7   28.70    3.40
   0  -5  -7   24.20    3.10
   0   5   7    7.20    2.10
  -1  -5  -7   21.10    2.50
   1   5   7   11.70    2.30
  -2  -5  -7   83.59    6.60
   2   5   7   82.99    7.00
  -3  -5  -7   42.80    4.60
   3   5   7   32.70    4.30
   3   5   7   36.40    3.50
   4   5   7  234.88   15.70
   4   5   7  226.48   16.20
   4   5   7  247.38   15.80
   4   5   7  234.38   15.70
   5   5   7   10.40    2.50
   5   5   7   17.10    2.20
   5   5   7   16.90    1.90
   5   5   7   12.60    1.70
   6   5   7  102.19    7.40
   6   5   7  107.49    7.30
   6   5   7  102.79    7.20
   7   5   7    9.40    1.30
   7   5   7   10.50    1.20
   4  -6  -7   79.59    5.80
  -4   6   7   81.19    6.10
   3  -6  -7   22.40    2.60
   3  -6  -7   31.50    2.40
   3  -6  -7   24.80    2.60
  -3   6   7   26.00    3.50
   2  -6  -7  145.09    9.80
   2  -6  -7  155.58    9.90
  -2   6   7  127.79    9.90
   1  -6  -7    9.00    1.50
   1  -6  -7    6.70    1.50
  -1   6   7    5.60    1.50
   0  -6  -7  247.68   16.40
   0   6   7  235.08   16.30
   0   6   7  255.77   16.40
  -1  -6  -7    2.50    1.40
   1   6   7    1.60    1.00
   1   6   7    2.40    1.20
  -2  -6  -7    1.70    1.50
   2   6   7    1.10    1.00
   2   6   7    0.70    1.70
   2   6   7    0.60    1.00
  -3  -6  -7  136.19    9.50
   3   6   7  123.19    9.00
   3   6   7  135.79    9.20
   3   6   7  128.29    9.70
   3   6   7  139.99    9.80
   3   6   7  143.39    9.20
   3   6   7  136.19    9.30
  -4  -6  -7   38.50    4.00
   4   6   7   54.49    4.10
   4   6   7   49.90    3.90
   4   6   7   47.80    3.70
   4   6   7   40.50    4.50
   5   6   7   68.79    5.30
   5   6   7   79.19    5.40
   5   6   7   79.49    5.50
   6   6   7   11.10    1.30
   6   6   7   13.00    1.60
   4  -7  -7   95.49    6.00
  -4   7   7   78.39    6.20
   3  -7  -7    5.40    0.90
   3  -7  -7    7.20    1.20
   3  -7  -7    8.00    1.20
  -3   7   7    8.10    1.60
   2  -7  -7  113.99    7.40
   2  -7  -7  115.19    7.50
  -2   7   7   93.49    7.40
   1  -7  -7   50.09    4.00
   1  -7  -7   59.19    4.20
  -1   7   7   45.10    3.90
  -1   7   7   49.30    3.90
   0  -7  -7   51.99    4.60
   0   7   7   66.39    4.80
   0   7   7   68.09    4.70
  -1  -7  -7    1.10    1.40
   1   7   7   -1.10    1.00
   1   7   7   -0.60    1.00
  -2  -7  -7    6.40    1.70
   2   7   7    7.90    1.30
   2   7   7    7.40    1.30
  -3  -7  -7   42.30    3.80
   3   7   7   49.80    3.50
   3   7   7   39.70    3.50
   3   7   7   46.30    3.60
   3   7   7   39.70    3.10
   4   7   7    5.20    0.90
   4   7   7    6.80    1.20
   4   7   7    7.30    1.20
   4   7   7    6.80    1.50
   5   7   7  145.89   10.00
   5   7   7  153.38   10.00
   2  -8  -7   11.70    1.40
   2  -8  -7    6.30    1.20
   2  -8  -7    7.10    1.20
   1  -8  -7   70.79    4.70
   1  -8  -7   62.89    4.70
  -1   8   7   65.19    4.70
  -1   8   7   60.89    4.60
   0  -8  -7   12.40    1.70
   0   8   7   12.50    1.60
  -1  -8  -7  151.78   10.50
   1   8   7  152.28   10.40
   1   8   7  158.18   10.40
  -2  -8  -7    0.30    1.10
   2   8   7    1.30    1.50
   2   8   7   -0.40    0.70
   2   8   7    0.80    0.60
   2   8   7   -0.60    1.00
   3   8   7   35.60    2.70
   3   8   7   31.50    2.60
   3   8   7   31.00    2.70
   4   8   7   22.30    2.10
   4   8   7   19.40    1.70
   4   8   7   16.40    1.70
   1  -9  -7   49.00    3.90
   1  -9  -7   64.49    4.00
   0  -9  -7    2.50    0.90
   0   9   7    2.90    0.60
   0   9   7    2.10    0.70
  -1  -9  -7   14.10    1.60
   1   9   7   16.70    2.10
   1   9   7   13.30    1.30
   1   9   7   11.50    1.30
   2   9   7    5.60    1.00
   2   9   7    4.30    0.70
   2   9   7    4.20    0.80
   3   9   7   44.00    3.20
   3   9   7   44.60    3.30
   2   7  -8   58.39    4.20
  -2  -7   8   55.39    3.90
   1   7  -8    3.40    0.80
   1   7  -8    4.00    1.20
  -1  -7   8    5.00    0.90
   0   7  -8   12.80    1.60
   0  -7   8   12.60    1.50
  -1   7  -8   21.80    2.00
   1  -7   8   19.10    1.80
  -2   7  -8    1.20    0.70
   4   6  -8    0.20    0.60
   3   6  -8  124.09    8.70
  -3  -6   8  133.49    8.60
   2   6  -8   51.49    3.50
   2   6  -8   47.00    3.70
  -2  -6   8   47.40    3.60
   1   6  -8   63.19    4.30
   1   6  -8   48.20    4.80
  -1  -6   8   65.39    4.40
   0   6  -8   24.00    2.40
   0  -6   8   24.50    2.40
  -1   6  -8   57.39    4.40
   1  -6   8   61.49    4.50
   1  -6   8   60.09    4.50
   2  -6   8    5.60    1.30
   3  -6   8   17.80    1.90
   4  -6   8   28.70    2.20
   4   5  -8   11.90    1.70
   4   5  -8   10.70    1.40
  -4  -5   8    8.20    1.20
   3   5  -8   72.99    6.00
   3   5  -8   84.59    6.10
  -3  -5   8   87.19    5.80
   2   5  -8   11.40    1.50
   2   5  -8   13.80    1.80
  -2  -5   8   13.50    1.50
   1   5  -8  340.87   21.30
  -1  -5   8  309.47   21.30
   0   5  -8   28.30    2.80
   0  -5   8   34.50    2.90
  -1   5  -8  127.99    8.90
   1  -5   8  128.39    8.80
   1  -5   8  130.69    8.70
   2  -5   8    5.30    1.40
   3  -5   8    3.10    2.10
   3  -5   8    1.90    0.90
   4  -5   8   37.20    2.90
   4  -5   8   37.50    3.60
   5  -5   8   25.10    2.60
   5  -5   8   25.30    2.10
   5   4  -8   29.00    2.40
   5   4  -8   23.40    2.30
   4   4  -8    5.80    1.20
   4   4  -8    6.20    1.70
   3   4  -8   14.60    2.30
   3   4  -8   17.20    2.30
   3   4  -8   18.00    2.10
  -3  -4   8   16.10    1.90
   2   4  -8  294.97   20.00
   2   4  -8  285.37   19.60
  -2  -4   8  319.67   19.70
   1   4  -8   71.49    4.90
  -1  -4   8   63.69    4.90
   0   4  -8  156.88   11.00
   0  -4   8  167.88   10.90
   1  -4   8   34.40    2.90
   2  -4   8   14.80    1.90
   2  -4   8   18.40    3.00
   2  -4   8   16.10    2.10
   3  -4   8    5.50    2.60
   3  -4   8    5.20    1.30
   4  -4   8    0.00    0.80
   4  -4   8   -0.40    1.80
   4  -4   8   -0.40    2.30
   5  -4   8    6.50    1.00
   5  -4   8    5.70    1.80
   6  -4   8    5.40    0.70
   6  -4   8    6.20    1.40
   5   3  -8   28.70    2.70
   5   3  -8   23.10    2.30
   4   3  -8    8.80    2.30
   4   3  -8    9.70    1.70
   4   3  -8   11.90    2.20
   3   3  -8   47.60    4.40
   3   3  -8   52.09    4.30
   3   3  -8   50.19    5.10
   2   3  -8   27.10    3.60
   2   3  -8   19.80    2.00
   2   3  -8   18.30    2.20
  -2  -3   8   19.80    1.90
  -1  -3   8   30.20    3.60
   0   3  -8  327.17   25.10
   0  -3   8  407.36   25.10
  -1   3  -8   73.89    6.90
  -1   3  -8   61.79    6.00
   1  -3   8   69.89    6.20
  -2   3  -8  226.08   16.70
   3  -3   8   10.80    1.50
   3  -3   8   12.40    2.80
   4  -3   8   17.60    2.10
   4  -3   8   16.50    1.70
   4  -3   8   18.80    3.50
   4  -3   8   13.80    3.00
   5  -3   8   27.70    3.50
   5  -3   8   21.80    2.50
   5  -3   8   25.00    2.30
   5  -3   8   31.70    4.10
   6  -3   8    0.60    1.40
   6  -3   8    0.90    0.60
   6   2  -8   42.20    3.20
   6   2  -8   37.70    3.30
   5   2  -8   16.10    1.90
   5   2  -8   15.30    2.00
   5   2  -8   16.90    2.50
   4   2  -8  277.87   21.60
   4   2  -8  341.87   22.20
   4   2  -8  338.97   21.80
   4   2  -8  347.27   21.60
   3   2  -8   25.90    4.10
   3   2  -8   25.80    3.10
   3   2  -8   26.90    3.00
   2   2  -8   37.40    4.50
  -2  -2   8   48.70    4.40
  -1  -2   8  460.15   30.70
   0   2  -8   63.09    5.90
   0  -2   8   69.59    5.60
  -1   2  -8  405.16   26.80
  -1   2  -8  399.26   27.20
   1  -2   8  390.76   26.80
  -2   2  -8   84.89    7.40
  -2   2  -8   77.39    6.50
  -3   2  -8   88.89    7.70
  -3   2  -8   74.59    6.50
   4  -2   8   47.70    5.40
   4  -2   8   54.39    4.00
   4  -2   8   65.19    5.60
   5  -2   8    0.70    2.50
   5  -2   8   -0.20    0.90
   5  -2   8    0.30    1.90
   5  -2   8    1.30    1.10
   6  -2   8    0.50    0.90
   6  -2   8    0.50    1.70
   6  -2   8    0.70    2.20
   7  -2   8   10.70    1.80
   7  -2   8   11.70    1.30
   7  -2   8    9.20    1.40
   7  -2   8    9.90    1.80
   6   1  -8  135.89    9.40
   6   1  -8  132.09    9.10
   5   1  -8    5.80    1.50
   5   1  -8    3.30    1.40
   5   1  -8    6.00    2.20
   4   1  -8  102.59    7.70
   4   1  -8  102.79    8.30
   4   1  -8  103.49    7.60
   4   1  -8  107.29    7.50
   3   1  -8    4.90    1.80
   3   1  -8    5.30    1.50
   3   1  -8    6.80    2.70
   2   1  -8   24.00    3.60
  -2  -1   8   26.40    3.20
   1   1  -8  162.08   12.30
  -1  -1   8  183.98   12.20
   0   1  -8   13.20    2.50
   0  -1   8   20.60    2.90
  -1   1  -8  417.76   28.20
  -1   1  -8  416.26   27.80
   1  -1   8  420.96   27.90
  -2   1  -8   78.69    6.90
  -2   1  -8   70.59    5.90
  -3   1  -8  609.64   42.30
  -3   1  -8  679.73   43.10
  -4   1  -8    2.90    2.50
   5  -1   8   37.10    2.90
   5  -1   8   29.70    4.30
   5  -1   8   33.70    3.70
   5  -1   8   36.30    3.60
   6  -1   8   38.10    4.20
   6  -1   8   38.20    3.60
   6  -1   8   36.80    3.00
   6  -1   8   30.90    4.10
   7  -1   8    0.20    0.60
   7  -1   8   -0.10    1.20
   7  -1   8    0.80    1.00
   7  -1   8   -0.50    1.30
   6   0  -8   25.80    2.70
   6   0  -8   35.50    3.00
  -6   0   8   32.50    2.50
   5   0  -8   70.69    5.20
   5   0  -8   61.49    5.50
   4   0  -8   64.49    5.20
   4   0  -8   60.19    4.80
   4   0  -8   59.39    5.70
   3   0  -8  118.39    9.40
   2   0  -8    4.80    1.90
  -2   0   8    4.90    1.80
   1   0  -8  161.98   11.90
  -1   0   8  168.78   11.60
   0   0  -8  128.09    9.40
   0   0  -8  122.89    9.20
   0   0   8  137.99    9.40
   0   0   8  129.89    9.10
  -1   0  -8  100.29    7.90
  -1   0  -8  105.09    7.50
   1   0   8  102.19    7.30
   1   0   8   94.19    7.40
  -2   0  -8  101.79    8.10
  -2   0  -8   93.89    7.30
   2   0   8   97.99    7.30
  -3   0  -8   10.60    2.90
  -3   0  -8   15.40    2.50
  -4   0  -8  139.39   10.40
  -4   0  -8  116.69    9.20
   5   0   8  102.29    7.50
   5   0   8   84.89    6.40
   5   0   8   92.59    7.00
   6   0   8    6.60    2.20
   6   0   8    5.20    1.00
   6   0   8    5.00    1.40
   7   0   8    1.10    1.40
   7   0   8    1.70    1.10
   7   0   8    3.50    1.00
   6  -1  -8    2.80    1.30
   6  -1  -8    3.30    1.10
  -6   1   8    2.40    0.50
   5  -1  -8  254.87   17.10
   5  -1  -8  251.97   17.40
   4  -1  -8    6.80    2.40
   4  -1  -8    6.40    2.10
   3  -1  -8  111.19    9.20
   3  -1  -8  124.29   10.70
   2  -1  -8   14.40    2.90
  -2   1   8   15.10    2.60
   1  -1  -8  307.77   21.40
  -1   1   8  318.87   21.20
  -1   1   8  317.17   21.00
   0  -1  -8   65.69    5.50
   0  -1  -8   70.49    5.80
   0   1   8   72.09    5.40
   0   1   8   71.99    5.60
  -1  -1  -8   36.00    5.10
  -1  -1  -8   52.49    4.20
   1   1   8   49.99    4.10
   1   1   8   49.00    5.80
  -2  -1  -8  220.08   15.20
  -2  -1  -8  224.28   15.90
   2   1   8  227.18   15.30
  -3  -1  -8    0.60    2.80
  -3  -1  -8    0.50    1.30
  -4  -1  -8  654.13   43.80
   4   1   8  656.83   43.40
   5   1   8    0.70    1.70
   5   1   8    1.30    1.00
   5   1   8    1.10    1.80
   5   1   8    1.30    0.80
   6   1   8   53.89    5.00
   6   1   8   46.40    3.70
   6   1   8   48.20    4.60
   7   1   8   13.00    2.10
   7   1   8   10.80    2.00
   7   1   8   11.00    1.40
   6  -2  -8   24.20    2.30
   6  -2  -8   24.20    2.40
   5  -2  -8   53.99    4.30
   5  -2  -8   48.90    4.30
  -5   2   8   49.60    3.80
   4  -2  -8  119.09    9.10
   4  -2  -8  137.49    9.60
   3  -2  -8   79.39    5.90
   3  -2  -8   89.29    6.60
   2  -2  -8  875.01   56.89
  -2   2   8  897.21   56.49
  -2   2   8  819.22   56.19
   1  -2  -8   57.59    5.20
  -1   2   8   55.09    4.90
  -1   2   8   59.69    5.10
   0   2   8   60.79    4.90
   0   2   8   54.69    4.90
   1   2   8   68.59    5.50
  -2  -2  -8  455.55   31.60
  -2  -2  -8  470.45   31.20
   2   2   8  489.95   31.10
  -3  -2  -8   50.09    5.30
  -3  -2  -8   53.69    4.40
   3   2   8   56.19    4.90
  -4  -2  -8   32.80    4.70
   4   2   8   30.10    3.70
   5   2   8   95.39    7.30
   5   2   8   80.79    6.30
   5   2   8   94.19    7.20
   5   2   8   97.79    6.60
   6   2   8   58.29    4.10
   6   2   8   58.49    4.90
   6   2   8   49.90    4.50
   6   2   8   43.30    3.80
   7   2   8   35.50    3.30
   7   2   8   32.50    3.30
   7   2   8   25.90    2.40
   5  -3  -8    0.20    1.30
  -5   3   8    0.90    0.80
   4  -3  -8  168.08   11.40
  -4   3   8  156.28   11.00
   3  -3  -8   33.70    3.10
   3  -3  -8   34.30    4.00
  -3   3   8   35.10    3.30
   2  -3  -8  149.99   10.90
  -2   3   8  150.98   10.50
  -2   3   8  134.99   10.60
   1  -3  -8   20.40    3.00
  -1   3   8   18.40    2.70
  -1   3   8   17.50    3.00
   0  -3  -8  310.47   22.70
   0   3   8  371.56   22.50
   0   3   8  329.07   22.70
  -1  -3  -8   14.20    2.60
   1   3   8   11.00    2.20
   2   3   8    8.20    2.00
  -3  -3  -8  206.98   15.20
  -3  -3  -8  220.48   14.60
   3   3   8  209.28   14.70
   4   3   8    1.40    1.00
   4   3   8    1.80    2.00
   4   3   8    2.50    1.40
   5   3   8  278.27   18.90
   5   3   8  296.97   19.50
   5   3   8  277.47   18.90
   5   3   8  296.37   19.00
   6   3   8   29.40    2.60
   6   3   8   29.30    2.70
   6   3   8   39.20    3.80
   6   3   8   27.70    3.50
   7   3   8   48.60    3.90
   7   3   8   46.60    3.90
   7   3   8   40.20    3.30
   5  -4  -8    7.80    1.40
   4  -4  -8   27.70    2.70
   4  -4  -8   32.20    3.50
  -4   4   8   28.80    2.70
   3  -4  -8   81.29    6.40
   3  -4  -8   79.39    5.70
  -3   4   8   81.29    6.00
   2  -4  -8  135.29    9.10
   2  -4  -8  126.89    9.60
  -2   4   8  134.09    9.30
   1  -4  -8  584.24   41.10
  -1   4   8  659.93   40.70
  -1   4   8  612.94   41.00
   0  -4  -8  298.77   20.50
   0   4   8  301.17   20.20
   0   4   8  301.47   20.60
  -1  -4  -8    4.10    1.60
   1   4   8    5.20    1.80
  -2  -4  -8    0.00    1.60
   2   4   8    2.90    1.70
  -3  -4  -8  229.98   16.60
   3   4   8  224.08   16.30
   3   4   8  254.77   16.80
   4   4   8   30.60    3.00
   4   4   8   32.80    3.90
   4   4   8   31.50    3.10
   4   4   8   32.40    3.10
   5   4   8    3.30    1.10
   5   4   8    4.40    2.10
   5   4   8    3.40    1.50
   5   4   8    3.40    1.00
   6   4   8   59.29    4.40
   6   4   8   56.29    4.90
   6   4   8   54.29    4.10
   6   4   8   53.09    4.10
   7   4   8   36.30    3.30
   7   4   8   44.80    3.20
  -5   5   8    8.60    1.30
   4  -5  -8   -0.20    1.00
   4  -5  -8    0.90    1.20
  -4   5   8    0.30    0.80
  -4   5   8    0.30    1.00
   3  -5  -8  163.68   11.50
   3  -5  -8  177.38   12.00
  -3   5   8  176.38   11.70
   2  -5  -8    1.50    2.10
   2  -5  -8    0.80    1.20
   2  -5  -8    0.20    1.20
  -2   5   8    0.80    1.30
   1  -5  -8   83.89    6.20
   1  -5  -8   83.99    6.20
  -1   5   8   86.69    6.30
   0   5   8    4.80    1.30
   1   5   8  462.35   30.60
  -2  -5  -8   15.20    2.50
   2   5   8   10.20    1.50
   2   5   8   13.20    2.30
   2   5   8    8.70    1.90
   2   5   8   17.60    2.20
   3   5   8   28.20    3.40
   3   5   8   26.80    2.70
   3   5   8   20.30    2.20
   3   5   8   23.10    2.70
   4   5   8   95.89    6.50
   4   5   8   95.69    6.60
   4   5   8   76.99    6.90
   4   5   8   89.19    6.50
   5   5   8    4.60    1.00
   5   5   8    4.80    1.20
   5   5   8    6.60    1.50
   5   5   8    5.20    2.00
   6   5   8  126.99    9.70
   6   5   8  158.98    9.80
   6   5   8  142.59   10.10
   6   5   8  157.18    9.90
   4  -6  -8    4.00    1.00
  -4   6   8    4.50    1.10
   3  -6  -8   37.90    2.80
   3  -6  -8   33.50    2.90
   3  -6  -8   34.60    3.00
  -3   6   8   36.90    3.00
   2  -6  -8    7.50    1.30
   2  -6  -8   10.20    1.50
  -2   6   8    6.70    1.50
   1  -6  -8   47.60    3.80
   1  -6  -8   43.60    3.80
  -1   6   8   44.30    3.90
   0  -6  -8  449.86   27.40
   0   6   8  407.76   27.30
   0   6   8  392.56   27.30
  -1  -6  -8   98.59    7.70
   1   6   8  109.09    7.60
   1   6   8  115.89    7.70
  -2  -6  -8  124.49    8.40
   2   6   8  112.49    8.00
   2   6   8  111.89    8.00
   2   6   8  116.99    8.50
  -3  -6  -8   37.00    3.50
   3   6   8   37.80    3.90
   3   6   8   33.70    2.90
   3   6   8   33.30    2.90
   3   6   8   33.90    3.00
  -4  -6  -8   47.70    4.20
   4   6   8   47.00    3.80
   4   6   8   51.89    4.70
   4   6   8   52.09    3.90
   4   6   8   50.29    4.00
  -5  -6  -8   17.70    2.40
   5   6   8   18.20    2.70
   5   6   8   17.90    1.90
   5   6   8   19.80    2.40
   5   6   8   15.90    1.80
   6   6   8    0.70    0.90
   6   6   8    0.00    0.70
   3  -7  -8    0.90    0.60
   3  -7  -8    1.00    0.70
   3  -7  -8    0.90    0.70
   2  -7  -8   47.50    3.50
   2  -7  -8   41.90    3.30
  -2   7   8   39.60    3.30
   1  -7  -8    0.50    1.20
   1  -7  -8    0.40    0.80
  -1   7   8    0.50    1.00
  -1   7   8    0.50    0.80
   0  -7  -8   39.60    3.50
   0   7   8   35.40    3.10
   0   7   8   38.10    3.30
   1   7   8   17.40    2.10
   1   7   8   10.80    1.50
  -2  -7  -8  393.56   28.30
   2   7   8  450.05   28.20
   2   7   8  454.55   28.20
  -3  -7  -8    5.10    1.50
   3   7   8    3.70    1.10
   3   7   8    3.20    0.90
   3   7   8    4.00    1.00
   3   7   8    2.80    0.90
   3   7   8    2.90    1.30
  -4  -7  -8    3.00    1.20
   4   7   8    2.20    0.70
   4   7   8    4.70    1.10
   4   7   8    3.00    1.00
   5   7   8    0.50    0.80
   5   7   8    2.30    1.00
   2  -8  -8   18.20    1.50
   2  -8  -8   17.30    1.80
   2  -8  -8   18.80    1.80
   1  -8  -8   10.60    1.20
   1  -8  -8    8.20    1.20
  -1   8   8    7.30    1.10
  -1   8   8    6.40    1.10
   0  -8  -8   79.69    5.40
   0   8   8   71.59    5.30
   0   8   8   69.79    5.20
  -1  -8  -8  151.58   11.00
   1   8   8  172.08   11.10
   1   8   8  171.38   11.00
  -2  -8  -8   79.59    6.10
   2   8   8   99.09    6.10
   2   8   8   90.49    6.20
   2   8   8   82.39    6.00
  -3  -8  -8   21.60    2.20
   3   8   8   23.10    2.10
   3   8   8   24.20    2.30
   4   8   8   12.20    1.10
   4   8   8   13.90    1.50
   0  -9  -8    1.70    0.80
   0   9   8    1.80    0.80
   0   9   8    0.90    0.40
   0   9   8    1.10    0.60
  -1  -9  -8   14.40    1.50
   1   9   8   12.00    1.30
   1   9   8   13.00    1.30
   1   9   8   15.80    1.80
   2   9   8   15.00    1.40
   2   9   8   12.70    1.40
   1   7  -9    4.80    0.70
  -1  -7   9    3.40    0.60
   0   7  -9   88.99    5.70
   0  -7   9   79.99    5.70
  -1   7  -9    0.60    0.50
   1  -7   9    1.80    0.50
  -2   7  -9    5.60    0.90
   2  -7   9    6.70    0.80
   3   6  -9    3.20    0.80
  -3  -6   9    3.40    0.70
   2   6  -9   26.80    2.70
   2   6  -9   26.70    2.00
  -2  -6   9   29.60    2.20
   1   6  -9   21.60    2.00
  -1  -6   9   21.70    2.10
   0   6  -9   11.70    1.40
   0  -6   9   10.60    1.30
  -1   6  -9    2.90    1.00
   1  -6   9    1.50    0.70
   3  -6   9   51.69    3.60
   4  -6   9    8.10    1.00
   4   5  -9   43.70    3.30
   4   5  -9   44.70    3.20
   3   5  -9    4.60    1.10
  -3  -5   9    3.80    0.80
   2   5  -9   11.60    1.40
   2   5  -9   11.70    2.00
  -2  -5   9   10.20    1.40
   1   5  -9    7.30    1.20
  -1  -5   9    9.90    1.20
   0   5  -9    3.40    1.10
   0  -5   9    2.90    1.10
  -1   5  -9  155.08   10.40
   1  -5   9  152.78   10.30
   3  -5   9   42.20    5.50
   4  -5   9    5.30    1.00
   4   4  -9   48.50    3.50
   4   4  -9   39.50    3.60
   4   4  -9   36.10    3.10
   3   4  -9   24.80    2.50
   3   4  -9   27.70    3.40
   3   4  -9   31.90    3.00
  -3  -4   9   32.00    2.50
   2   4  -9    2.60    1.00
  -2  -4   9    3.70    1.10
   1   4  -9   62.29    4.50
  -1  -4   9   57.29    4.30
   0   4  -9   23.40    2.40
   0  -4   9   23.90    2.40
  -1   4  -9   29.40    2.80
   1  -4   9   33.60    2.80
   2  -4   9   22.70    2.30
   3  -4   9  129.99    9.60
   3  -4   9  126.79    9.60
   4  -4   9   40.40    4.10
   4  -4   9   28.00    3.30
   4  -4   9   36.50    2.70
   5  -4   9    2.30    1.90
   5  -4   9    2.40    0.80
   6  -4   9   36.60    3.20
   5   3  -9   38.90    2.70
   5   3  -9   28.00    2.70
   4   3  -9    3.20    1.70
   4   3  -9    2.70    1.00
   4   3  -9    1.60    1.50
   3   3  -9   82.29    6.10
   3   3  -9   83.99    6.70
   3   3  -9   77.09    6.10
   2   3  -9   37.00    3.50
   2   3  -9   38.20    3.10
  -2  -3   9   39.10    3.10
   1   3  -9   54.59    4.10
  -1  -3   9   50.59    4.00
   0   3  -9    1.90    1.80
   0   3  -9    0.10    1.30
   0  -3   9    1.70    1.00
  -1   3  -9    1.30    2.40
   1  -3   9    0.30    1.10
   2  -3   9  451.35   29.60
   2  -3   9  459.45   30.40
   3  -3   9    1.50    1.00
   3  -3   9    1.10    1.10
   3  -3   9    1.60    2.40
   4  -3   9   65.79    5.90
   4  -3   9   66.49    4.50
   4  -3   9   58.39    5.30
   5  -3   9    9.90    2.10
   5  -3   9   13.70    1.50
   5  -3   9   12.00    2.20
   6  -3   9   44.60    3.90
   6  -3   9   37.00    3.50
   6  -3   9   40.70    3.00
   5   2  -9   27.00    2.50
   5   2  -9   26.40    3.00
   4   2  -9  173.88   11.90
   4   2  -9  153.48   11.20
   4   2  -9  169.58   11.50
   3   2  -9   39.80    4.00
   3   2  -9   47.40    4.80
   3   2  -9   41.90    3.90
   2   2  -9   43.20    3.50
   2   2  -9   42.30    3.80
  -1  -2   9   75.99    6.70
   0  -2   9  100.89    8.00
  -1   2  -9    1.00    1.80
  -1   2  -9    0.90    2.20
  -2   2  -9   31.80    3.60
  -2   2  -9   28.30    4.30
   3  -2   9   25.00    2.50
   3  -2   9   24.40    4.40
   3  -2   9   26.80    2.50
   4  -2   9  122.79    8.90
   4  -2   9  132.09   10.10
   4  -2   9  148.59   10.20
   5  -2   9   72.69    5.80
   5  -2   9   91.99    7.00
   5  -2   9   91.49    7.10
   6  -2   9    6.00    1.00
   6  -2   9    6.40    1.60
   6  -2   9   10.90    2.00
   5   1  -9   -0.10    1.60
   5   1  -9    0.70    0.80
   5   1  -9    0.40    1.40
   4   1  -9   74.99    5.40
   4   1  -9   70.79    6.10
   4   1  -9   61.79    5.50
   3   1  -9   14.70    1.90
   3   1  -9   21.90    3.70
   3   1  -9   13.50    1.80
   2   1  -9  261.17   17.80
   2   1  -9  274.87   17.90
  -1  -1   9   10.20    2.30
   0  -1   9  266.27   18.30
  -1   1  -9   10.20    2.80
  -1   1  -9   11.20    2.40
   1  -1   9    2.10    2.70
  -2   1  -9  117.69    9.20
  -2   1  -9  103.59    8.30
  -3   1  -9  420.96   28.20
   4  -1   9    2.40    0.90
   4  -1   9    4.90    1.40
   4  -1   9    3.40    2.30
   4  -1   9    3.00    2.10
   5  -1   9  101.09    7.30
   5  -1   9   87.89    6.90
   5  -1   9   76.99    6.00
   6  -1   9    0.10    1.30
   6  -1   9    0.20    0.90
   6  -1   9    0.10    1.30
   6  -1   9    0.60    1.40
   7  -1   9   25.30    2.60
   7  -1   9   30.60    2.30
   7  -1   9   33.30    3.00
   5   0  -9    2.90    1.80
   5   0  -9    4.50    1.40
   4   0  -9   28.60    3.80
   4   0  -9   25.80    2.80
   4   0  -9   24.90    3.20
   3   0  -9  352.96   23.10
   3   0  -9  333.37   22.20
   3   0  -9  334.47   22.50
   2   0  -9  191.18   13.90
   1   0  -9   63.19    5.70
  -1   0   9   65.29    5.50
   0   0   9  149.19   10.70
  -1   0  -9  634.34   42.50
   1   0   9  660.03   42.30
  -2   0  -9   53.09    5.40
  -2   0  -9   50.19    4.60
   2   0   9   52.19    4.70
  -3   0  -9    8.40    3.40
  -3   0  -9    7.50    2.20
   4   0   9   49.60    5.00
   4   0   9   49.70    4.00
   5   0   9   96.59    7.40
   5   0   9   85.29    6.30
   5   0   9   88.89    6.90
   6   0   9   83.99    6.80
   6   0   9  105.59    6.60
   6   0   9   94.49    7.20
   7   0   9   12.00    1.80
   7   0   9   12.00    1.30
   7   0   9   14.00    2.10
   5  -1  -9    0.20    1.20
   5  -1  -9    1.70    1.40
  -5   1   9    1.10    0.70
   4  -1  -9    9.00    2.40
   4  -1  -9    8.00    1.80
   3  -1  -9   65.49    5.50
   3  -1  -9   63.99    4.50
   3  -1  -9   59.09    4.70
   3  -1  -9   50.19    5.10
   2  -1  -9   21.70    3.20
   1  -1  -9  601.34   39.90
  -1   1   9  597.54   39.60
   0  -1  -9    5.20    1.70
   0  -1  -9   15.80    2.60
   0   1   9    8.90    2.00
  -1  -1  -9  443.06   29.60
  -1  -1  -9  419.76   30.10
   1   1   9  470.75   29.40
  -2  -1  -9    1.20    2.40
  -2  -1  -9    2.90    1.80
   2   1   9    1.30    1.70
  -3  -1  -9   35.30    3.60
  -3  -1  -9   39.20    5.20
   4   1   9  212.48   13.50
   4   1   9  193.68   14.10
   4   1   9  197.88   13.80
   5   1   9   11.50    2.40
   5   1   9   15.50    2.40
   5   1   9   14.00    1.70
   5   1   9   12.60    1.60
   6   1   9   58.39    5.30
   6   1   9   52.89    4.30
   6   1   9   61.89    5.00
   7   1   9    0.30    1.30
   7   1   9   -0.20    0.90
   7   1   9    0.30    0.80
   5  -2  -9    8.60    1.70
   5  -2  -9   12.80    1.80
  -5   2   9   11.40    1.30
   4  -2  -9    3.30    1.60
   4  -2  -9    4.60    1.90
  -4   2   9    1.00    1.10
   3  -2  -9   26.20    3.00
   3  -2  -9   30.20    2.60
   2  -2  -9  194.58   12.90
   2  -2  -9  178.88   12.80
   1  -2  -9  376.86   26.30
  -1   2   9  402.36   26.10
  -1   2   9  382.26   25.80
   0  -2  -9  111.09    8.60
   0  -2  -9  119.19    8.80
   0   2   9  109.59    8.30
   0   2   9  115.59    8.50
  -1  -2  -9  392.86   25.00
   1   2   9  350.36   24.70
  -2  -2  -9  278.47   18.60
   2   2   9  268.87   18.50
  -3  -2  -9    6.30    3.10
  -3  -2  -9    5.00    1.80
   3   2   9    9.20    2.20
   4   2   9   16.30    2.60
   4   2   9   15.40    1.90
   4   2   9   14.30    1.90
   5   2   9    1.20    1.80
   5   2   9    0.40    1.10
   5   2   9    1.90    2.00
   5   2   9    0.30    0.90
   6   2   9   42.70    4.20
   6   2   9   35.30    3.70
   6   2   9   43.20    3.30
   6   2   9   40.70    3.30
   7   2   9   22.10    2.70
   7   2   9   21.10    2.60
   7   2   9   20.50    2.00
   5  -3  -9   43.40    3.20
  -5   3   9   34.70    2.80
   4  -3  -9    1.60    1.40
  -4   3   9    0.50    0.70
   3  -3  -9   36.90    3.00
   3  -3  -9   31.00    3.90
  -3   3   9   36.80    3.30
   2  -3  -9    6.80    1.60
   2  -3  -9   11.30    2.50
  -2   3   9    9.00    1.30
   1  -3  -9    9.70    2.70
  -1   3   9   13.60    2.60
  -1   3   9   10.30    2.50
   0  -3  -9  880.11   56.69
   0   3   9  902.41   56.19
   0   3   9  801.72   56.29
   1   3   9   30.00    3.30
  -2  -3  -9  385.26   25.90
   2   3   9  387.96   25.80
  -3  -3  -9    6.60    2.30
   3   3   9    5.80    1.90
   4   3   9  129.99    9.20
   4   3   9  137.89    9.20
   4   3   9  130.49    9.70
   5   3   9   40.00    3.30
   5   3   9   39.60    4.20
   5   3   9   33.60    3.10
   5   3   9   35.00    3.20
   6   3   9    3.00    0.90
   6   3   9    3.80    1.60
   6   3   9    3.80    1.30
   6   3   9    6.60    2.00
   7   3   9    3.80    1.20
   7   3   9    3.60    0.80
   7   3   9    5.30    1.50
   7   3   9    3.60    0.80
   5  -4  -9   28.70    2.30
  -5   4   9   20.80    2.80
   4  -4  -9   49.70    4.10
  -4   4   9   52.69    3.90
   3  -4  -9   76.59    6.20
   3  -4  -9   84.29    5.90
  -3   4   9   89.19    6.00
   2  -4  -9    0.70    2.00
   2  -4  -9    1.30    1.30
  -2   4   9   -0.10    1.20
   1  -4  -9  176.68   12.80
   1  -4  -9  180.88   12.60
  -1   4   9  199.38   12.60
   0  -4  -9   99.79    7.80
   0   4   9   90.79    7.30
  -1  -4  -9  323.47   22.50
   1   4   9  337.77   22.20
   2   4   9  104.19    8.00
   3   4   9  165.58   11.00
   3   4   9  160.38   10.60
   3   4   9  144.59   10.40
   3   4   9  146.69   10.50
   4   4   9   56.59    4.20
   4   4   9   53.09    4.00
   4   4   9   45.10    4.40
   5   4   9    0.20    1.30
   5   4   9    1.40    1.30
   5   4   9    0.70    1.10
   5   4   9   -0.40    1.40
   6   4   9    0.50    0.60
   6   4   9   -0.70    1.10
   6   4   9   -0.40    1.60
   6   4   9   -0.10    1.10
   7   4   9    5.30    0.90
   4  -5  -9   60.99    4.40
  -4   5   9   59.89    4.20
   3  -5  -9   26.40    2.40
   3  -5  -9   29.10    2.90
   3  -5  -9   31.30    3.40
  -3   5   9   32.10    2.80
   2  -5  -9   27.90    2.80
  -2   5   9   24.90    2.90
   1  -5  -9    4.30    1.30
   1  -5  -9    4.30    1.60
  -1   5   9    7.00    1.20
   0  -5  -9   25.20    2.70
   0  -5  -9   21.10    2.70
   0   5   9   26.60    2.40
   0   5   9   19.90    2.70
  -1  -5  -9  271.37   17.80
   1   5   9  261.67   17.70
   1   5   9  236.08   17.80
   1   5   9  301.17   18.20
  -2  -5  -9   13.00    1.90
   2   5   9   14.10    1.90
   2   5   9   14.10    1.60
   2   5   9   17.70    2.50
   2   5   9   13.90    1.90
   3   5   9  252.87   15.50
   3   5   9  217.08   14.90
   3   5   9  207.38   15.00
   3   5   9  222.98   15.00
   4   5   9    8.70    1.50
   4   5   9   10.30    2.20
   4   5   9   10.90    1.50
   5   5   9   48.20    3.80
   5   5   9   38.70    3.60
   5   5   9   56.99    3.90
   5   5   9   55.49    4.60
  -6  -5  -9    0.50    1.10
   6   5   9    1.20    1.00
   6   5   9    1.00    1.20
   6   5   9   -1.20    0.90
   6   5   9    0.50    0.80
   3  -6  -9   49.20    3.50
   3  -6  -9   50.49    3.80
  -3   6   9   47.40    3.60
   2  -6  -9   30.00    2.60
   2  -6  -9   25.60    2.40
  -2   6   9   30.00    2.80
   1  -6  -9   35.50    3.50
   1  -6  -9   41.60    3.40
  -1   6   9   43.10    3.40
   0  -6  -9    1.10    1.50
   0  -6  -9    1.30    1.30
   0   6   9    0.30    1.30
   0   6   9    1.40    1.20
  -1  -6  -9   23.30    2.80
   1   6   9   23.50    2.70
   1   6   9   23.10    2.50
  -2  -6  -9   98.29    7.50
   2   6   9  121.49    8.00
   2   6   9  102.29    7.40
   2   6   9  119.09    7.60
   2   6   9   99.49    7.60
  -3  -6  -9   44.40    3.60
   3   6   9   48.60    3.80
   3   6   9   43.80    3.90
   3   6   9   43.10    3.40
  -4  -6  -9   97.69    6.70
   4   6   9   79.59    6.40
   4   6   9   88.79    6.90
   4   6   9  102.49    6.60
  -5  -6  -9  101.39    6.60
   5   6   9   76.99    6.70
   5   6   9  102.69    6.50
   5   6   9   93.99    6.40
   5   6   9   91.39    6.40
   6   6   9    2.20    0.70
   6   6   9    1.50    0.80
   3  -7  -9   49.10    3.30
   3  -7  -9   47.40    3.40
   2  -7  -9    1.70    0.90
   2  -7  -9    1.20    0.60
  -2   7   9    1.50    0.80
   1  -7  -9   77.19    5.50
   1  -7  -9   69.99    5.50
  -1   7   9   93.39    5.80
  -1   7   9   77.39    5.60
   0  -7  -9    1.50    1.20
   0   7   9    1.60    1.20
   0   7   9    0.90    1.10
  -1  -7  -9   25.10    2.70
   1   7   9   18.90    2.50
   1   7   9   22.70    2.40
  -2  -7  -9   17.60    2.10
   2   7   9   20.60    2.10
   2   7   9   18.30    2.10
   3   7   9   35.30    2.60
   3   7   9   33.30    2.50
   3   7   9   32.70    2.70
  -4  -7  -9  191.68   12.40
   4   7   9  180.28   12.30
   5   7   9    1.30    0.70
   5   7   9   -0.30    0.70
   1  -8  -9   53.19    3.70
   1  -8  -9   48.30    3.60
  -1   8   9   53.59    3.70
  -1   8   9   45.80    3.60
   0  -8  -9    0.10    1.00
   0   8   9    0.30    0.60
   0   8   9    0.30    0.60
  -1  -8  -9    5.40    1.00
   1   8   9    5.40    0.90
   1   8   9    4.20    0.80
  -2  -8  -9    0.30    0.70
   2   8   9    0.30    0.50
   2   8   9    0.80    0.60
   2   8   9    0.50    0.90
  -3  -8  -9   23.50    2.00
   3   8   9   19.30    1.70
  -2  -6  10   30.50    2.20
   1   6 -10   24.40    1.90
  -1  -6  10   22.10    1.90
   0   6 -10   13.60    1.40
   0  -6  10   15.70    1.70
  -1   6 -10    2.70    0.70
   1  -6  10    1.80    0.80
   1  -6  10    1.50    0.90
   2  -6  10   59.19    4.20
   3  -6  10   17.90    1.60
  -3  -5  10    1.30    0.60
   2   5 -10   83.09    5.80
  -2  -5  10   88.99    5.90
   1   5 -10    4.40    1.00
  -1  -5  10    2.30    1.00
   0   5 -10   97.99    7.00
   0  -5  10  104.79    7.00
  -1   5 -10   36.30    3.10
   1  -5  10   38.80    3.10
   1  -5  10   37.00    3.00
   2  -5  10   12.40    1.40
   2  -5  10   13.10    1.50
   3  -5  10   39.60    2.90
   3  -5  10   35.70    3.60
   4  -5  10    0.60    0.70
   4   4 -10   26.90    2.10
   4   4 -10   22.20    2.10
   4   4 -10   20.30    2.50
   3   4 -10   18.10    2.10
   3   4 -10   17.40    1.80
   2   4 -10  106.49    7.00
   2   4 -10  100.39    7.80
  -2  -4  10  102.19    7.00
   1   4 -10  124.79    9.40
  -1  -4  10  156.98    9.60
   0   4 -10  176.08   11.80
   0  -4  10  175.48   11.80
  -1   4 -10   14.60    1.90
   1  -4  10   14.00    1.60
   1  -4  10   11.70    1.50
   2  -4  10    3.60    1.10
   2  -4  10    4.60    1.20
   3  -4  10   68.49    5.90
   3  -4  10   81.49    5.30
   4  -4  10   16.70    1.50
   4  -4  10   12.50    2.10
   5  -4  10    5.30    1.40
   4   3 -10    1.70    1.40
   4   3 -10    1.20    0.90
   4   3 -10    1.20    1.10
   3   3 -10   60.39    4.50
   3   3 -10   60.29    4.90
   2   3 -10    1.70    1.30
   2   3 -10    2.10    1.00
  -2  -3  10    2.40    0.90
   1   3 -10  360.96   23.50
  -1  -3  10  355.86   23.40
   0   3 -10    0.40    1.10
   0  -3  10    1.00    1.00
  -1   3 -10  387.56   26.20
   1  -3  10  425.86   26.20
   1  -3  10  389.56   26.10
   2  -3  10    4.10    1.20
   2  -3  10    4.00    1.00
   3  -3  10   29.90    2.80
   3  -3  10   31.70    2.70
   3  -3  10   32.90    4.10
   4  -3  10   14.50    1.60
   4  -3  10   13.80    2.40
   4  -3  10   13.20    2.70
   5  -3  10    8.70    1.90
   5  -3  10    7.30    2.10
   6  -3  10   18.90    2.60
   6  -3  10   27.00    2.60
   5   2 -10    2.30    0.80
   5   2 -10    2.40    0.90
   4   2 -10    3.60    1.30
   4   2 -10    3.90    1.80
   3   2 -10   49.00    4.10
   3   2 -10   58.79    5.20
   2   2 -10   93.39    6.80
   2   2 -10   93.99    6.50
   1   2 -10  154.38   10.80
  -1  -2  10  159.78   10.50
   0   2 -10  397.66   26.80
   0  -2  10  422.66   26.70
  -1   2 -10  412.16   24.40
   1  -2  10  331.87   23.80
   1  -2  10  356.06   23.80
   2  -2  10   33.90    2.90
   2  -2  10   33.60    2.80
   3  -2  10   16.20    1.80
   3  -2  10   17.10    1.90
   3  -2  10   17.20    2.90
   4  -2  10   44.80    3.40
   4  -2  10   34.90    4.00
   4  -2  10   44.80    4.60
   4  -2  10   40.80    3.10
   5  -2  10    6.30    1.60
   5  -2  10    6.80    2.30
   6  -2  10    4.00    1.30
   6  -2  10    5.30    1.30
   6  -2  10    3.50    0.80
   5   1 -10   25.80    2.50
   5   1 -10   26.90    2.30
   4   1 -10    2.40    1.40
   4   1 -10    1.60    1.30
   3   1 -10    0.60    1.00
   3   1 -10    0.90    1.00
   3   1 -10    1.00    1.50
   2   1 -10  154.88   10.70
   2   1 -10  158.48   11.50
   2   1 -10  154.58   10.50
   1   1 -10    2.40    1.40
   1   1 -10    2.10    1.50
   0  -1  10  378.06   25.60
  -1   1 -10    8.60    2.30
  -2   1 -10  371.06   27.30
   2  -1  10  415.86   26.00
   3  -1  10   -0.30    2.50
   3  -1  10    0.30    1.10
   3  -1  10    0.10    0.90
   3  -1  10    0.60    2.00
   4  -1  10   57.89    5.80
   4  -1  10   67.39    4.70
   4  -1  10   60.99    5.50
   4  -1  10   76.59    5.00
   5  -1  10   -0.30    1.80
   5  -1  10    0.90    2.00
   6  -1  10    5.70    0.80
   6  -1  10   10.80    2.00
   6  -1  10    3.60    2.80
   5   0 -10   60.79    4.40
   5   0 -10   45.40    3.90
  -5   0  10   54.19    3.80
   4   0 -10   10.10    2.30
   4   0 -10   16.10    2.10
   4   0 -10   10.40    1.70
   3   0 -10   15.50    2.20
   3   0 -10   17.80    1.90
   3   0 -10   19.90    2.70
   2   0 -10  173.68   12.00
   2   0 -10  160.58   11.10
   2   0 -10  159.88   11.30
   1   0 -10   32.30    3.60
   1   0 -10   26.50    3.20
   1   0 -10   21.50    2.90
   0   0  10  189.88   13.50
  -1   0 -10  240.78   16.70
  -2   0 -10  201.98   14.40
  -2   0 -10  209.08   15.30
   3   0  10  167.28   11.00
   3   0  10  155.58   10.90
   3   0  10  165.88   11.90
   4   0  10  104.29    7.10
   4   0  10  105.09    7.00
   4   0  10   97.39    7.70
   5   0  10   24.90    4.00
   5   0  10   25.60    3.10
   5   0  10   28.40    2.60
   6   0  10    9.40    1.80
   6   0  10   11.80    2.20
   6   0  10    8.70    1.20
   7   0  10    4.30    1.20
   7   0  10    2.10    1.10
   5  -1 -10    5.60    1.50
   5  -1 -10    5.80    1.40
  -5   1  10    4.00    0.70
   4  -1 -10  183.18   13.30
   4  -1 -10  179.68   13.00
   4  -1 -10  187.18   13.30
  -4   1  10  223.18   13.00
   3  -1 -10    9.60    2.20
   3  -1 -10    8.80    1.30
   3  -1 -10    7.50    1.60
   2  -1 -10    1.80    2.10
   2  -1 -10   -0.40    1.40
   2  -1 -10   -0.50    1.10
   1  -1 -10   68.69    5.80
   0  -1 -10    1.00    1.80
   0   1  10    1.10    1.70
   0   1  10    1.70    2.00
  -1  -1 -10  356.06   23.60
   1   1  10  342.87   23.40
  -2  -1 -10   56.89    5.10
   2   1  10   65.99    5.30
   3   1  10  530.25   35.00
   3   1  10  545.15   34.90
   4   1  10   39.50    4.20
   4   1  10   36.40    3.00
   4   1  10   36.40    4.00
   4   1  10   34.20    3.10
   5   1  10  165.78   11.90
   5   1  10  168.68   11.30
   6   1  10    1.60    0.90
   6   1  10    1.40    0.80
   6   1  10    1.50    1.70
   6   1  10    1.80    1.30
   7   1  10   13.10    1.40
   7   1  10   13.40    2.00
   7   1  10   17.00    2.10
   5  -2 -10   62.09    4.40
  -5   2  10   52.49    4.00
   4  -2 -10  100.49    7.20
  -4   2  10  102.99    7.10
   3  -2 -10    9.70    2.10
   3  -2 -10   10.90    1.40
  -3   2  10    7.40    1.40
   2  -2 -10   82.69    6.10
  -2   2  10   87.19    6.20
   1  -2 -10   39.60    3.40
  -1   2  10   39.20    3.30
   0  -2 -10   94.09    7.60
   0   2  10   94.39    7.00
   0   2  10   87.39    7.30
  -1  -2 -10   78.09    6.50
  -1  -2 -10   71.09    6.00
   1   2  10   72.59    6.10
   2   2  10  142.79   10.30
   3   2  10  256.27   17.10
   3   2  10  269.37   17.20
   3   2  10  255.37   17.60
   4   2  10   40.50    3.50
   4   2  10   41.00    4.20
   4   2  10   39.40    3.20
   5   2  10   25.00    2.40
   5   2  10   29.40    3.60
   5   2  10   27.30    3.50
   6   2  10   45.10    3.40
   6   2  10   42.80    4.20
   6   2  10   45.00    4.10
   6   2  10   43.90    3.50
   7   2  10   16.70    2.10
   7   2  10   15.50    1.60
   7   2  10   20.40    2.20
   4  -3 -10    6.80    1.50
  -4   3  10   12.00    1.30
   3  -3 -10  263.07   15.90
   3  -3 -10  213.88   16.10
  -3   3  10  248.78   16.10
   2  -3 -10    0.60    1.90
   2  -3 -10    4.10    1.40
  -2   3  10    3.00    1.20
   1  -3 -10    4.40    1.50
  -1   3  10    3.90    1.20
   0   3  10   -0.10    0.90
   2   3  10  141.99   11.00
   2   3  10  148.49   10.10
   3   3  10    2.90    1.30
   3   3  10    3.70    1.90
   3   3  10    2.50    1.10
   4   3  10  131.69    9.40
   4   3  10  136.59    9.50
   4   3  10  143.89   10.00
   5   3  10   19.50    2.20
   5   3  10   25.50    3.50
   5   3  10   22.80    2.40
   6   3  10  175.08   11.50
   6   3  10  151.48   11.00
   6   3  10  171.18   11.10
   4  -4 -10   42.90    3.60
  -4   4  10   47.90    3.30
   3  -4 -10   45.70    3.30
   3  -4 -10   38.60    3.60
  -3   4  10   44.50    3.40
   2  -4 -10  100.69    7.40
   2  -4 -10  105.99    7.80
  -2   4  10  110.49    7.50
   1  -4 -10  328.07   22.40
  -1   4  10  351.36   22.40
   0  -4 -10   31.80    3.10
   0   4  10   33.30    2.90
   0   4  10   27.70    3.00
  -1  -4 -10   -0.10    1.20
   1   4  10    0.70    1.00
   1   4  10    0.10    1.30
   1   4  10    2.20    1.80
  -2  -4 -10   23.00    2.80
   2   4  10   27.20    3.30
   2   4  10   24.70    2.70
   3   4  10   14.80    2.40
   3   4  10   13.60    2.00
   3   4  10   16.40    1.80
   3   4  10   18.50    2.10
   4   4  10  199.88   12.40
   4   4  10  169.58   11.80
   4   4  10  161.18   11.80
   5   4  10   54.49    5.00
   5   4  10   67.79    4.70
   5   4  10   67.09    4.80
   6   4  10   25.20    2.30
   6   4  10   25.30    2.50
   6   4  10   22.30    2.10
   6   4  10   30.70    2.20
  -4   5  10   28.50    2.20
   3  -5 -10    0.80    0.70
   3  -5 -10    1.30    1.00
  -3   5  10    1.70    0.70
   2  -5 -10  292.07   19.30
  -2   5  10  295.07   19.40
   1  -5 -10    5.40    1.60
  -1   5  10    4.50    1.30
   0  -5 -10    8.20    1.50
   0  -5 -10    7.80    1.40
   0   5  10    8.50    1.20
   0   5  10    5.40    1.40
  -1  -5 -10    8.10    1.50
   1   5  10    7.10    1.20
   1   5  10    8.80    1.70
  -2  -5 -10   33.60    3.10
   2   5  10   31.70    3.50
   2   5  10   26.30    2.70
   2   5  10   28.60    3.00
  -3  -5 -10   30.70    2.80
   3   5  10   28.70    3.10
   3   5  10   37.80    3.20
   3   5  10   30.70    2.80
  -4  -5 -10    1.30    1.20
   4   5  10    1.00    1.70
   4   5  10    0.90    1.00
   4   5  10    2.20    1.10
  -5  -5 -10  130.89    9.00
   5   5  10  128.79    8.90
   5   5  10  118.99    9.10
   5   5  10  151.38    9.00
  -6  -5 -10   24.90    2.20
   6   5  10   17.40    1.80
   6   5  10   24.40    1.90
   6   5  10   21.70    2.30
   6   5  10   19.20    1.80
   3  -6 -10   21.50    1.90
   3  -6 -10   19.30    1.60
  -3   6  10   22.60    1.80
   2  -6 -10   53.39    3.90
  -2   6  10   52.29    4.00
   1  -6 -10    4.80    1.40
   1  -6 -10    4.90    1.20
  -1   6  10    6.80    1.10
   0  -6 -10  232.18   14.40
   0  -6 -10  190.38   14.40
   0   6  10  235.68   14.50
   0   6  10  206.88   14.40
  -1  -6 -10   25.80    2.60
   1   6  10   31.60    2.70
   1   6  10   29.50    3.00
  -2  -6 -10   66.99    4.60
   2   6  10   55.19    4.20
   2   6  10   49.70    4.40
   2   6  10   55.09    4.40
  -3  -6 -10   -0.50    1.30
   3   6  10    0.20    0.90
   3   6  10    0.30    0.80
   3   6  10    1.30    1.50
  -4  -6 -10    5.90    1.30
   4   6  10    3.50    1.10
   4   6  10    6.50    1.20
   4   6  10    5.20    1.60
  -5  -6 -10   43.20    3.80
   5   6  10   57.29    3.90
   5   6  10   53.59    4.20
   5   6  10   61.09    3.90
   2  -7 -10   15.70    1.40
   2  -7 -10   13.90    1.40
   2  -7 -10   10.80    1.40
  -2   7  10   13.50    1.30
   1  -7 -10   86.99    5.90
   1  -7 -10   84.09    5.90
  -1   7  10   86.99    5.90
   0  -7 -10    5.60    1.20
   0  -7 -10    5.00    1.20
   0   7  10    6.40    1.10
   0   7  10    6.10    1.10
  -1  -7 -10   49.00    3.80
   1   7  10   47.40    3.60
   1   7  10   45.90    3.80
   2   7  10   34.10    2.90
   2   7  10   37.20    2.90
  -3  -7 -10   45.50    3.40
   3   7  10   43.70    3.30
   3   7  10   41.60    3.30
   3   7  10   50.59    3.50
  -4  -7 -10    0.50    0.90
   4   7  10    0.80    0.80
   0  -8 -10    6.10    1.00
   0   8  10    4.90    0.80
   0   8  10    5.70    0.80
  -1  -8 -10  173.38   10.70
   1   8  10  166.78   10.70
   1   8  10  136.29   10.70
   1   8  10  173.18   10.70
  -2  -8 -10    7.20    1.00
   2   8  10    7.30    0.90
   2   8  10    4.50    0.70
   0   6 -11    7.00    0.90
   0  -6  11    6.40    0.90
  -1   6 -11   18.50    1.50
   1  -6  11   13.10    2.30
   1  -6  11   15.80    1.30
   1  -6  11   12.40    1.80
  -2  -5  11   53.09    3.70
   1   5 -11    0.30    1.40
   1   5 -11    1.70    0.80
  -1  -5  11    0.90    0.60
   0   5 -11  161.58   10.10
   0  -5  11  142.39   10.10
  -1   5 -11    4.30    1.00
   1  -5  11    3.80    0.80
   1  -5  11    6.70    0.90
   2  -5  11  233.78   15.60
   2  -5  11  225.38   15.10
   2  -5  11  230.18   15.10
   3  -5  11   26.20    2.00
   3  -5  11   22.90    2.70
   3   4 -11    5.60    1.30
   3   4 -11    4.50    0.90
   2   4 -11    9.00    1.90
   2   4 -11   10.40    1.30
  -2  -4  11   10.00    1.20
   1   4 -11   35.30    2.90
  -1  -4  11   35.00    2.70
   0   4 -11  149.19   10.10
   0  -4  11  151.88   10.20
  -1   4 -11   32.50    2.80
   1  -4  11   38.60    3.00
   1  -4  11   35.00    2.90
   2  -4  11   40.30    3.10
   2  -4  11   40.60    3.30
   3  -4  11   14.70    1.70
   3  -4  11   13.70    1.50
   3  -4  11   14.60    2.30
   4  -4  11   52.59    4.50
   4  -4  11   56.19    3.80
   4   3 -11    3.50    1.20
   4   3 -11    4.80    0.90
   3   3 -11    0.80    0.80
   3   3 -11    0.50    1.50
   2   3 -11   89.49    6.50
   2   3 -11   90.79    6.30
   2   3 -11   94.79    7.20
   1   3 -11    7.20    1.40
  -1  -3  11    6.50    1.00
   0   3 -11    1.00    1.20
   0  -3  11   -0.50    1.00
  -1   3 -11   58.79    4.60
   1  -3  11   67.09    4.60
   1  -3  11   59.39    4.50
   2  -3  11   20.70    2.10
   2  -3  11   24.80    2.10
   3  -3  11  213.28   15.00
   3  -3  11  198.98   14.30
   3  -3  11  238.58   14.30
   4  -3  11   11.10    2.10
   4  -3  11   11.70    1.50
   5  -3  11   53.39    4.40
   4   2 -11  106.49    7.10
   4   2 -11  100.59    7.40
   3   2 -11  133.29   10.00
   3   2 -11  145.49    9.60
   2   2 -11  110.99    7.90
   2   2 -11  120.19    7.70
   2   2 -11  105.49    8.30
   1   2 -11    2.30    1.30
   1   2 -11    3.80    1.40
  -1  -2  11    2.00    1.00
   0   2 -11    1.20    1.20
   0  -2  11    0.20    1.00
  -1   2 -11  100.79    7.40
   1  -2  11  105.19    7.40
   1  -2  11  114.19    7.40
   2  -2  11   31.20    2.80
   2  -2  11   32.00    2.90
   3  -2  11   39.20    3.40
   3  -2  11   40.90    3.20
   3  -2  11   40.10    4.60
   4  -2  11   37.90    2.90
   4  -2  11   41.00    4.30
   4  -2  11   36.70    3.00
   5  -2  11  163.08   11.40
   6  -2  11    6.00    1.30
   4   1 -11   14.40    2.50
   4   1 -11   15.40    1.90
   3   1 -11   33.30    3.10
   3   1 -11   29.60    3.70
   2   1 -11   18.90    2.20
   2   1 -11   20.60    2.60
   2   1 -11   21.90    3.50
   1   1 -11   65.29    5.20
   1   1 -11   69.59    5.10
   0   1 -11   14.10    1.90
   0  -1  11   11.50    1.50
  -1   1 -11   20.30    2.70
   1  -1  11   15.10    2.00
   1  -1  11   15.40    2.00
   2  -1  11   37.80    3.20
   2  -1  11   36.00    3.10
   3  -1  11   81.29    5.80
   3  -1  11   80.89    6.80
   3  -1  11   79.99    5.70
   4  -1  11  332.27   21.50
   4  -1  11  303.77   20.80
   4  -1  11  315.77   20.70
   5  -1  11    9.30    2.10
   5  -1  11   12.20    2.20
   5  -1  11    6.90    1.10
   6  -1  11   40.70    3.40
   4   0 -11    1.70    1.10
   4   0 -11    1.00    1.60
  -4   0  11    1.80    0.60
   3   0 -11  204.88   13.20
   3   0 -11  200.18   13.60
   3   0 -11  182.58   12.90
   2   0 -11   28.10    3.90
   2   0 -11   31.30    2.80
   2   0 -11   30.50    3.10
   1   0 -11   40.70    3.80
   1   0 -11   41.90    3.50
   0   0 -11    8.00    1.50
   1   0  11   32.00    2.90
   1   0  11   32.40    2.90
   2   0  11  175.38   11.30
   2   0  11  158.98   11.20
   3   0  11    0.10    1.70
   3   0  11   -0.40    1.20
   3   0  11   -0.20    1.00
   4   0  11    2.70    1.90
   4   0  11    2.80    1.00
   4   0  11    1.40    0.90
   5   0  11   36.40    3.00
   5   0  11   40.50    3.70
   6   0  11  106.89    7.80
   4  -1 -11   81.19    6.30
  -4   1  11   87.09    5.80
   3  -1 -11   27.60    3.20
   3  -1 -11   23.80    2.20
  -3   1  11   24.30    2.50
   2  -1 -11    9.50    2.80
   2  -1 -11   14.50    1.70
  -2   1  11    7.90    1.30
   1  -1 -11   55.39    4.30
   0  -1 -11  144.49    9.80
   1   1  11    6.60    1.30
   1   1  11    7.60    1.40
   2   1  11   98.49    6.80
   2   1  11   92.99    6.70
   3   1  11    0.90    1.30
   3   1  11    2.20    1.30
   4   1  11   78.99    6.40
   4   1  11   82.89    5.60
   4   1  11   76.69    5.50
   5   1  11  164.98   11.80
   5   1  11  178.48   11.30
   5   1  11  163.48   11.60
   6   1  11    3.00    1.00
   6   1  11    2.60    1.40
   6   1  11    2.70    1.10
   4  -2 -11   46.80    3.90
  -4   2  11   50.19    3.50
   3  -2 -11    1.40    1.00
  -3   2  11    0.80    1.00
   2  -2 -11  254.97   17.80
  -2   2  11  288.27   18.00
   1  -2 -11   40.70    3.60
  -1   2  11   43.00    3.50
   0  -2 -11  230.28   15.60
   0   2  11  239.28   15.80
   1   2  11   -0.10    1.20
   2   2  11   34.50    3.20
   2   2  11   38.10    3.20
   3   2  11  177.18   11.90
   3   2  11  169.98   12.60
   3   2  11  184.88   11.90
   4   2  11    1.50    0.90
   4   2  11    1.00    1.20
   4   2  11   -0.10    1.70
   5   2  11    3.50    1.90
   5   2  11    5.00    1.90
   5   2  11    6.80    1.40
   6   2  11    6.70    1.50
   6   2  11    6.60    1.00
   6   2  11    6.30    1.60
   4  -3 -11    9.20    1.50
  -4   3  11   10.30    1.10
   3  -3 -11   37.40    3.00
   3  -3 -11   40.00    3.50
  -3   3  11   37.70    3.00
   2  -3 -11   21.10    2.30
  -2   3  11   18.80    2.40
   1  -3 -11   31.00    3.10
  -1   3  11   33.30    3.00
   0  -3 -11  109.59    7.30
   0   3  11   96.69    7.30
   0   3  11  103.69    7.30
   1   3  11  134.59    9.30
   2   3  11   19.60    2.40
   2   3  11   19.90    3.00
   3   3  11   34.90    3.00
   3   3  11   33.80    3.70
   3   3  11   32.70    2.90
   4   3  11   13.70    1.80
   4   3  11   13.40    2.30
   4   3  11   11.90    1.70
   5   3  11   76.09    5.70
   5   3  11   80.79    6.30
   5   3  11   88.09    5.90
   6   3  11   23.10    2.10
   6   3  11   28.20    2.80
  -4   4  11   15.00    1.30
   3  -4 -11   33.70    2.60
  -3   4  11   38.20    2.90
   2  -4 -11   21.20    2.30
  -2   4  11   19.70    2.30
   1  -4 -11  245.38   16.20
  -1   4  11  242.18   16.10
   0  -4 -11    4.70    1.50
   0   4  11    9.10    1.20
   0   4  11    9.80    1.60
   1   4  11  355.46   23.40
  -2  -4 -11    7.50    1.50
   2   4  11    8.60    1.50
   2   4  11    7.40    1.90
   3   4  11   15.40    1.90
   3   4  11   15.90    2.00
   3   4  11   16.10    2.10
   3   4  11   19.70    2.90
   4   4  11   31.10    3.30
   4   4  11   39.40    3.30
   4   4  11   39.60    3.30
   5   4  11   -0.10    0.80
   5   4  11    1.60    1.50
   5   4  11    0.00    0.90
   6   4  11    0.70    0.80
   6   4  11   -0.10    0.60
   6   4  11    0.50    1.10
   3  -5 -11   10.00    1.10
  -3   5  11   10.90    1.10
   2  -5 -11   19.80    2.10
  -2   5  11   21.40    2.20
   1  -5 -11   76.79    5.40
  -1   5  11   68.79    5.20
   0  -5 -11   31.40    3.00
   0   5  11   39.60    3.30
   0   5  11   42.40    3.20
  -1  -5 -11   75.39    5.50
   1   5  11   75.79    5.30
  -2  -5 -11   99.49    7.80
   2   5  11  119.69    8.30
   2   5  11  117.79    7.90
   2   5  11  117.29    7.90
  -3  -5 -11   49.60    3.90
   3   5  11   43.80    3.80
   3   5  11   40.20    3.50
   3   5  11   52.49    4.20
  -4  -5 -11   22.40    2.50
   4   5  11   22.80    2.80
   4   5  11   20.30    2.00
   4   5  11   18.90    1.90
  -5  -5 -11    0.10    1.10
   5   5  11   -0.40    0.60
   5   5  11    1.10    0.70
   5   5  11    0.30    0.90
   2  -6 -11   43.40    3.10
  -2   6  11   42.90    3.10
   1  -6 -11   21.30    2.10
  -1   6  11   19.10    1.80
   0  -6 -11  113.39    8.30
   0  -6 -11  125.59    8.30
   0   6  11  128.19    8.30
   0   6  11  120.09    8.30
  -1  -6 -11    1.00    1.10
   1   6  11    4.70    1.10
   1   6  11    2.00    0.90
  -2  -6 -11  102.99    7.90
   2   6  11  111.29    7.80
   2   6  11  119.19    7.90
   2   6  11  127.19    7.90
  -3  -6 -11    4.20    1.00
   3   6  11    3.20    0.80
   3   6  11    4.50    1.10
  -4  -6 -11   32.00    2.50
   4   6  11   21.90    2.30
   4   6  11   24.40    2.10
  -5  -6 -11    0.10    0.80
   5   6  11    0.80    0.90
   5   6  11    0.40    0.60
   5   6  11    0.20    0.50
   1  -7 -11    1.40    0.50
   1  -7 -11    1.50    0.70
  -1   7  11    0.90    0.50
  -1   7  11    1.30    0.50
   0  -7 -11   26.30    2.30
   0  -7 -11   24.00    2.20
   0   7  11   29.00    2.20
   0   7  11   28.20    2.20
  -1  -7 -11   13.30    1.80
   1   7  11   11.20    1.30
   1   7  11   13.70    1.70
  -2  -7 -11    6.70    1.20
   2   7  11    7.30    1.00
   2   7  11    5.30    0.70
  -3  -7 -11   64.59    4.60
   3   7  11   63.19    4.40
   1   5 -12   15.70    1.60
  -1  -5  12   16.30    1.50
   0   5 -12    7.50    1.00
   0  -5  12    7.20    1.00
  -1   5 -12   25.80    2.30
   1  -5  12   31.90    2.30
   1  -5  12   27.80    2.30
   2  -5  12   23.50    1.90
   2  -5  12   20.90    2.30
   2  -5  12   25.30    1.80
   2   4 -12   -0.70    1.10
  -2  -4  12   -0.10    0.50
   1   4 -12   51.69    4.30
   1   4 -12   57.59    3.80
  -1  -4  12   51.39    3.70
   0   4 -12    7.40    1.20
   0  -4  12    6.70    1.00
  -1   4 -12   14.00    1.80
   1  -4  12   17.20    1.80
   1  -4  12   18.30    1.90
   2  -4  12    1.10    1.60
   2  -4  12    0.80    0.60
   2  -4  12    0.40    0.70
   3  -4  12    1.40    0.80
   3  -4  12    2.20    0.80
   3  -4  12    2.30    1.50
   4  -4  12   72.89    5.30
   3   3 -12   15.50    1.70
   2   3 -12   15.80    1.60
   2   3 -12   14.40    2.10
   1   3 -12    7.80    1.10
  -1  -3  12    5.60    1.10
   0   3 -12   85.79    6.30
   0  -3  12   98.19    6.40
  -1   3 -12   14.00    1.60
   1  -3  12   15.30    1.60
   1  -3  12    9.60    1.50
   2  -3  12   75.79    5.40
   2  -3  12   77.69    5.50
   3  -3  12   58.19    4.10
   3  -3  12   54.29    4.00
   4  -3  12   13.10    2.30
   4  -3  12   10.70    1.30
   4  -3  12    6.90    1.40
   3   2 -12    7.10    1.20
   3   2 -12    8.10    1.40
   2   2 -12   33.00    2.70
   2   2 -12   36.10    3.00
   2   2 -12   32.00    3.30
   1   2 -12    0.20    1.10
  -1  -2  12    1.20    0.60
   0   2 -12  109.89    7.50
   0  -2  12  103.79    7.30
  -1   2 -12    9.90    1.70
   1  -2  12   12.40    1.60
   1  -2  12    9.70    1.50
   2  -2  12   35.60    3.00
   2  -2  12   33.40    3.00
   3  -2  12   -0.10    0.90
   3  -2  12    0.20    1.20
   3  -2  12    0.60    1.10
   4  -2  12    0.00    0.80
   4  -2  12    0.00    0.80
   4  -2  12   -0.10    1.50
   5  -2  12   27.50    2.90
   3   1 -12   -0.30    0.70
   3   1 -12    2.40    1.60
  -3  -1  12    0.40    0.70
   2   1 -12   70.49    5.70
   2   1 -12   61.59    4.70
   2   1 -12   66.89    5.00
   1   1 -12   42.60    3.40
   0   1 -12   94.99    6.50
   0  -1  12   87.49    6.30
  -1   1 -12  115.19    8.60
   1  -1  12  126.29    8.60
   1  -1  12  135.29    8.60
   2  -1  12   14.20    1.80
   3  -1  12  149.59   10.50
   3  -1  12  165.08   11.30
   3  -1  12  155.78   10.50
   4  -1  12    1.50    0.80
   4  -1  12    1.00    1.20
   4  -1  12    0.90    0.80
   5  -1  12    2.30    1.50
   5  -1  12    1.20    0.60
   4   0 -12   21.30    2.20
  -4   0  12   16.50    1.50
   3   0 -12   37.50    3.40
  -3   0  12   38.10    2.90
   2   0 -12    5.00    2.10
   2   0 -12    8.80    1.40
   1   0 -12  214.48   14.40
   1   0 -12  216.58   15.10
   0   0 -12    2.00    1.30
   1   0  12   65.59    4.60
   1   0  12   61.39    4.70
   2   0  12   40.30    3.10
   2   0  12   37.70    3.30
   3   0  12   66.29    6.10
   3   0  12   82.59    5.60
   3   0  12   78.69    5.40
   4   0  12    0.30    0.70
   4   0  12    0.90    0.80
   4   0  12    0.70    1.20
   5   0  12    4.60    1.10
   5   0  12    4.30    1.60
   6   0  12   12.10    1.90
  -4   1  12   30.20    2.40
   3  -1 -12    5.50    1.70
   3  -1 -12    6.40    1.00
  -3   1  12    6.30    0.90
   2  -1 -12    4.00    0.90
  -2   1  12    3.50    1.00
   1  -1 -12   85.69    6.20
   0  -1 -12   25.50    2.60
   1   1  12   95.19    6.70
   2   1  12  121.39    8.50
   2   1  12  128.79    8.60
   3   1  12   21.60    2.40
   3   1  12   21.60    2.20
   4   1  12   69.99    4.40
   4   1  12   56.79    4.20
   4   1  12   50.59    4.60
   5   1  12    4.60    1.50
   5   1  12    5.50    1.00
   6   1  12    1.00    1.00
   6   1  12    0.80    0.70
   3  -2 -12   50.19    3.70
  -3   2  12   56.69    4.00
   2  -2 -12   33.40    2.90
  -2   2  12   33.40    2.90
   1  -2 -12   35.60    3.00
  -1   2  12   29.40    2.90
   0  -2 -12  133.89    9.00
   0   2  12  130.69    9.00
   1   2  12    1.20    1.20
   2   2  12   79.49    5.50
   2   2  12   72.19    5.30
   3   2  12    8.10    1.20
   3   2  12    9.80    1.40
   4   2  12   28.40    3.10
   4   2  12   26.30    2.60
   4   2  12   29.20    2.70
   4   2  12   32.10    2.50
   5   2  12    0.50    0.70
   5   2  12    0.70    1.30
   6   2  12   19.20    1.70
   6   2  12   17.70    2.00
   3  -3 -12   38.70    2.70
  -3   3  12   37.70    2.90
   2  -3 -12   75.59    5.30
  -2   3  12   72.99    5.20
   1  -3 -12    3.70    1.30
  -1   3  12    1.40    1.00
   0  -3 -12   24.20    2.50
   0   3  12   21.90    2.10
   1   3  12   38.30    3.30
   2   3  12  142.29    9.70
   3   3  12   65.59    4.90
   3   3  12   68.49    4.80
   3   3  12   68.19    5.40
   4   3  12   30.90    2.80
   4   3  12   32.30    2.80
   4   3  12   30.60    3.30
   5   3  12   54.99    4.40
   5   3  12   71.19    4.90
   5   3  12   62.09    4.40
   6   3  12   13.20    1.20
   6   3  12   14.10    1.90
   3  -4 -12    8.10    1.00
  -3   4  12    9.00    1.00
   2  -4 -12  111.79    7.50
  -2   4  12  110.89    7.50
   1  -4 -12    1.70    0.90
  -1   4  12    0.90    0.90
   0  -4 -12   16.10    1.90
   0   4  12   19.50    2.20
   0   4  12   18.50    2.00
   1   4  12   32.50    3.00
  -2  -4 -12   13.70    1.80
   2   4  12   17.40    1.90
   2   4  12   15.90    2.20
  -3  -4 -12   48.20    4.10
   3   4  12   56.29    4.50
   3   4  12   55.09    4.00
   3   4  12   54.59    4.10
   3   4  12   55.79    4.10
  -4  -4 -12    4.70    1.30
   4   4  12    5.10    1.00
   4   4  12    3.40    1.10
   4   4  12    6.00    1.70
  -5  -4 -12   71.59    4.60
   5   4  12   59.39    4.70
   5   4  12   66.79    4.40
   5   4  12   51.29    4.20
   2  -5 -12  105.19    6.70
  -2   5  12   93.99    6.70
   1  -5 -12   10.30    1.20
  -1   5  12    6.80    1.10
   0  -5 -12    4.60    1.20
   0   5  12    5.40    1.20
   0   5  12    3.80    0.80
  -1  -5 -12    3.60    1.10
   1   5  12    4.70    1.30
   1   5  12    2.30    1.10
  -2  -5 -12    1.60    0.80
   2   5  12    0.00    1.00
   2   5  12    1.50    0.80
  -3  -5 -12   90.09    5.70
   3   5  12   63.89    5.60
   3   5  12   81.69    5.60
   3   5  12   77.99    5.40
  -4  -5 -12   47.90    3.40
   4   5  12   38.40    3.00
   4   5  12   36.30    3.30
   4   5  12   41.60    3.10
   5   5  12   54.29    3.90
   5   5  12   49.80    3.60
   5   5  12   48.80    3.60
   1  -6 -12   47.00    3.40
  -1   6  12   46.60    3.40
   0  -6 -12    1.20    0.70
   0   6  12    2.10    0.60
   0   6  12    1.80    0.90
  -1  -6 -12   94.49    6.20
   1   6  12   76.39    6.00
   1   6  12   99.79    6.30
  -2  -6 -12    2.40    1.10
   2   6  12    4.20    0.80
   2   6  12    4.40    1.00
  -3  -6 -12    1.10    1.00
   3   6  12    0.40    0.50
   3   6  12    1.10    0.60
  -4  -6 -12   21.00    1.90
   4   6  12   17.00    1.50
  -1  -7 -12   14.80    1.50
   1   7  12   19.20    1.50
   1   7  12   13.40    1.30
  -2  -7 -12   12.00    1.40
   2   7  12   10.90    1.10
   0   4 -13    3.80    0.70
   0  -4  13    3.10    0.60
  -1   4 -13   99.19    7.00
   1  -4  13  103.19    7.10
   1  -4  13  114.49    7.10
   2  -4  13    5.00    1.20
   2  -4  13    6.00    0.90
   2  -4  13    4.80    0.80
   2   3 -13   -0.30    1.00
   1   3 -13   45.00    3.10
   1   3 -13   40.30    3.50
  -1  -3  13   38.40    2.90
   0   3 -13   66.89    4.70
   0  -3  13   64.29    4.60
  -1   3 -13   14.00    1.80
   1  -3  13   15.10    1.50
   1  -3  13   15.20    1.70
   2  -3  13  115.09    8.40
   2  -3  13  114.39    7.90
   2  -3  13  125.39    7.90
   3  -3  13  111.19    7.70
   3  -3  13  111.29    7.20
   3  -3  13   97.59    7.10
   2   2 -13    7.80    1.00
   2   2 -13    8.60    1.40
   1   2 -13    0.40    0.70
   1   2 -13    0.60    1.30
   0   2 -13   11.20    1.30
   0  -2  13    9.30    1.20
  -1   2 -13   10.40    1.30
   1  -2  13    6.50    1.20
   1  -2  13    9.00    1.30
   2  -2  13  203.58   13.70
   2  -2  13  196.88   13.10
   2  -2  13  194.78   13.10
   3  -2  13    2.00    1.10
   3  -2  13    2.50    0.80
   3  -2  13    2.70    0.90
   4  -2  13   56.39    4.20
   4  -2  13   51.09    3.60
   4  -2  13   45.10    3.40
   3   1 -13   35.90    3.10
   2   1 -13    1.50    1.50
   2   1 -13    0.40    0.80
   1   1 -13    1.30    2.00
   1   1 -13    0.90    0.80
   0   1 -13   58.19    4.30
   0  -1  13   59.29    4.20
  -1   1 -13   28.30    2.70
   1  -1  13   30.10    2.70
   1  -1  13   32.40    2.70
   2  -1  13   13.40    2.30
   2  -1  13   16.40    2.00
   2  -1  13   17.10    2.00
   3  -1  13   72.29    4.90
   3  -1  13   62.59    4.90
   3  -1  13   73.49    5.60
   4  -1  13   97.29    7.20
   4  -1  13  113.99    7.40
   4  -1  13  117.99    7.90
   5  -1  13   18.10    1.90
   5  -1  13   17.60    1.60
   3   0 -13    2.40    1.20
   2   0 -13  142.39    9.30
   2   0 -13  134.89    9.70
   1   0 -13    3.30    1.00
   1   0 -13    2.90    1.90
   0   0 -13   22.60    2.50
  -1   0 -13    2.20    1.30
   1   0  13    0.60    0.80
   1   0  13    1.50    1.00
   2   0  13   19.20    1.90
   2   0  13   21.20    2.20
   3   0  13   75.89    6.00
   3   0  13   71.49    5.40
   3   0  13   85.99    5.50
   4   0  13    1.50    0.70
   4   0  13    1.20    1.40
   4   0  13    1.90    0.70
   5   0  13  101.09    7.00
   5   0  13  110.49    7.40
  -3   1  13   71.89    4.90
  -2   1  13   54.89    4.10
   1  -1 -13   17.60    2.20
   0  -1 -13   31.70    2.70
  -1  -1 -13   66.69    5.70
   1   1  13   74.09    5.10
   2   1  13    4.40    1.30
   2   1  13    2.10    1.10
   3   1  13    6.70    1.00
   3   1  13    6.20    1.20
   4   1  13   94.59    6.90
   4   1  13  112.79    7.10
   5   1  13   97.99    7.20
   5   1  13  100.89    6.70
  -3   2  13   78.09    5.30
   2  -2 -13    4.30    1.00
  -2   2  13    2.50    0.60
   1  -2 -13  182.78   12.20
   0  -2 -13   11.70    1.70
   0   2  13   10.60    1.50
   1   2  13   21.80    2.30
   2   2  13    0.30    0.90
   2   2  13    1.30    1.10
   3   2  13    4.70    1.10
   3   2  13    5.70    1.00
   4   2  13   98.29    6.70
   5   2  13    0.80    0.60
   2  -3 -13   37.90    2.90
  -2   3  13   36.80    2.80
   1  -3 -13   69.59    4.70
  -1   3  13   63.49    4.60
   0  -3 -13   34.40    2.90
   0   3  13   30.40    2.80
   1   3  13  114.89    7.90
   2   3  13   51.89    3.80
   3   3  13    2.20    1.00
   3   3  13    0.90    0.80
   3   3  13    1.00    1.00
  -4  -3 -13   22.00    2.40
   4   3  13   25.80    2.60
   4   3  13   29.20    2.40
   4   3  13   28.80    2.30
  -5  -3 -13   11.00    1.50
   5   3  13   11.30    1.70
   5   3  13    9.60    1.10
   2  -4 -13   39.50    2.80
  -2   4  13   37.20    2.90
   1  -4 -13    1.90    1.00
  -1   4  13    2.40    0.60
   0  -4 -13  286.47   17.90
   0   4  13  259.97   17.90
   2   4  13  119.19    8.10
  -3  -4 -13    2.20    1.00
   3   4  13    2.80    1.00
   3   4  13    2.70    1.20
   3   4  13    1.50    1.00
  -4  -4 -13   13.20    1.50
   4   4  13   14.00    2.00
   4   4  13   16.90    1.60
   4   4  13   15.30    1.50
   1  -5 -13   49.40    3.60
  -1   5  13   49.10    3.50
   0  -5 -13   66.79    4.70
   0   5  13   65.49    4.60
   0   5  13   68.39    4.70
   1   5  13   60.79    4.40
  -2  -5 -13   83.69    6.40
   2   5  13  101.79    6.40
   2   5  13   93.19    6.40
  -3  -5 -13   50.59    3.60
   3   5  13   43.70    3.30
   3   5  13   47.20    3.40
  -4  -5 -13   13.90    1.50
   4   5  13    9.30    1.10
   0  -6 -13   15.60    1.80
   0   6  13    9.70    1.00
   0   6  13   11.30    1.10
   1   6  13   95.49    6.40
  -2  -6 -13    1.00    0.70
   2   6  13    0.70    0.60
   2   6  13    1.40    0.60
  -3  -6 -13   87.19    5.90
   0   3 -14   50.09    3.40
   0   3 -14   46.80    3.70
   0  -3  14   45.20    3.30
  -1   3 -14    0.20    0.70
   1  -3  14    0.70    0.70
   1  -3  14    1.90    0.60
   1  -3  14    1.60    0.90
   2  -3  14    0.60    1.00
   2  -3  14    0.00    0.70
   2  -3  14    0.20    0.70
   1   2 -14  164.88   10.80
   1   2 -14  164.68   11.20
   0   2 -14   53.99    4.30
   0   2 -14   50.69    3.70
   0  -2  14   46.30    3.50
  -1   2 -14   55.39    4.40
   1  -2  14   67.09    4.30
   1  -2  14   63.39    4.90
   1  -2  14   59.89    4.40
   2  -2  14    0.00    0.80
   2  -2  14   -0.10    0.60
   2  -2  14    0.30    1.10
   3  -2  14   -0.10    0.60
   3  -2  14    0.00    0.70
   3  -2  14   -0.40    1.00
   1   1 -14  155.58    9.50
   1   1 -14  129.69    9.80
   0   1 -14   24.20    2.70
   0   1 -14   29.50    2.40
  -1   1 -14   86.09    5.90
   1  -1  14   86.79    5.80
   1  -1  14   82.89    5.80
   2  -1  14   18.10    1.90
   2  -1  14   17.90    2.40
   2  -1  14   20.30    1.70
   3  -1  14    4.30    0.80
   3  -1  14    3.80    1.20
   3  -1  14    2.90    0.80
   4  -1  14   27.60    2.50
   4  -1  14   25.90    2.00
   2   0 -14   71.99    4.90
   1   0 -14   36.40    2.90
   0   0 -14  135.99    9.20
  -1   0 -14   17.20    2.00
   1   0  14   16.90    1.90
   1   0  14   14.50    1.70
   2   0  14   81.69    5.70
   3   0  14    0.20    0.80
   3   0  14    1.50    0.60
   4   0  14    5.00    0.70
   4   0  14    4.50    1.10
   2  -1 -14   35.30    2.60
   1  -1 -14   26.30    2.40
   0  -1 -14  148.59    9.10
   0   1  14  117.89    9.10
  -1  -1 -14   38.50    3.20
   1   1  14   47.50    3.40
   2   1  14  147.89    9.70
   2   1  14  141.69    9.60
   3   1  14   33.30    2.60
   3   1  14   33.10    2.50
   4   1  14   42.30    3.10
   2  -2 -14   24.30    1.90
   1  -2 -14   68.59    4.90
   0  -2 -14   13.00    1.40
   0   2  14    7.40    1.20
  -1  -2 -14  191.68   15.20
   1   2  14  259.37   15.00
   2   2  14   18.20    2.00
   3   2  14   69.59    4.60
   3   2  14   60.89    4.60
   3   2  14   65.99    4.50
   4   2  14    0.00    0.50
   1  -3 -14   23.10    2.10
   0  -3 -14   32.10    2.70
   0   3  14   32.80    2.60
   1   3  14   93.59    6.40
   2   3  14   26.70    2.30
   3   3  14   96.99    6.70
   3   3  14   95.69    6.70
   3   3  14  103.39    6.60
   4   3  14    4.40    0.70
   4   3  14    6.00    0.90
   1  -4 -14   54.99    3.80
   0  -4 -14    7.50    1.10
   0   4  14    8.80    1.00
   1   4  14    5.90    1.10
   2   4  14  138.59    9.30
   2   4  14  139.49    9.20
   3   4  14   16.90    1.50
   3   4  14   18.80    1.80
   1   5  14    7.20    1.00
   1   5  14    8.80    1.00
   2   5  14   53.59    3.70
  -1   1 -15   99.99    6.90
   1  -1  15  103.79    6.80
   2  -1  15    4.40    0.90
   2  -1  15    5.00    0.70
   0   0 -15   43.40    3.10
  -1   0 -15   10.80    1.10
   1   0  15    6.60    1.00
   2   0  15   26.00    2.00
   2   0  15   29.10    2.20
   3   0  15    9.80    1.10
   3   0  15   10.10    1.20
   0  -1 -15   16.90    1.50
   0   1  15   12.70    1.40
  -1  -1 -15    0.30    0.80
   1   1  15    1.30    0.80
   2   1  15   62.49    4.30
   2   1  15   60.89    4.30
   3   1  15    1.40    0.60
   3   1  15    1.20    0.50
   0  -2 -15   14.10    1.30
   0   2  15   12.60    1.20
  -1  -2 -15    3.00    0.90
   1   2  15    1.40    0.80
   2   2  15    2.70    0.80
   3   2  15   24.40    1.90
   1   3  15    0.80    0.70
   2   3  15    5.40    0.90
   2   3  15    6.30    0.90
   0   0   0    0.00    0.00
_computing_structure_solution     'SHELXT 2014/5 (Sheldrick, 2014)'
;
_shelx_hkl_checksum              58160
_shelx_res_file
;
TITL ck001_xp_a.res in P-1
    ck001_xp.res
    created by SHELXL-2018/3 at 09:35:48 on 02-Mar-2021
REM Old TITL ck001_xp in P-1
REM SHELXT solution in P-1
REM R1 0.096, Rweak 0.006, Alpha 0.051, Orientation as input
REM Formula found by SHELXT: C14 N2 O3 S Br
CELL 1.54178 6.8904 8.3224 12.8763 83.423 80.393 85.693
ZERR 2 0.0004 0.0004 0.0007 0.003 0.003 0.003
LATT 1
SFAC C H Br N O S
UNIT 26 22 2 4 8 2
L.S. 10
PLAN  20
SIZE 0.01 0.06 0.08
TEMP -173.15
BOND $H
LIST 4
CONF
WPDB
FMAP 2 53
ACTA
WGHT    0.111800
FVAR       0.56282
BR1   3    0.781107    0.593782    0.353807    11.00000    0.04882    0.04338 =
         0.03469   -0.00571   -0.00398   -0.00224
N1    4    0.629176    0.725583    0.650184    11.00000    0.05235    0.02780 =
         0.03477   -0.00157   -0.00839   -0.00060
C2    1    0.464896    0.794562    0.607187    11.00000    0.04426    0.02549 =
         0.03707    0.00152   -0.00721   -0.00488
C3    1    0.491422    0.763359    0.502584    11.00000    0.04424    0.03412 =
         0.03696   -0.00041   -0.00163   -0.00327
AFIX  43
H3    2    0.405169    0.797263    0.452898    11.00000   -1.20000
AFIX   0
C4    1    0.672303    0.670969    0.483951    11.00000    0.05003    0.02895 =
         0.03605   -0.00204   -0.00237   -0.00509
C5    1    0.754411    0.647785    0.573961    11.00000    0.05010    0.02934 =
         0.03807   -0.00463   -0.00313    0.00164
AFIX  43
H5    2    0.875264    0.589067    0.582710    11.00000   -1.20000
AFIX   0
C6    1    0.302034    0.882665    0.665095    11.00000    0.05046    0.02844 =
         0.03392   -0.00092   -0.00272   -0.00542
AFIX  43
H6    2    0.306219    0.898197    0.736623    11.00000   -1.20000
AFIX   0
C7    1    0.147422    0.942513    0.622451    11.00000    0.04362    0.04965 =
         0.03761   -0.00908   -0.00164   -0.00500
AFIX  43
H7    2    0.141618    0.927123    0.551082    11.00000   -1.20000
AFIX   0
N8    4   -0.012790    1.030770    0.682077    11.00000    0.04432    0.04657 =
         0.04436   -0.00657   -0.00775   -0.00477
O9    5   -0.009597    1.045189    0.776351    11.00000    0.05172    0.05449 =
         0.04292   -0.01021   -0.00336   -0.00103
O10   5   -0.145763    1.085761    0.635633    11.00000    0.05813    0.09902 =
         0.05668   -0.01923   -0.01811    0.01858
S11   6    0.663348    0.698807    0.778751    11.00000    0.05069    0.02513 =
         0.03452   -0.00421   -0.00697   -0.00343
O12   5    0.567954    0.837036    0.826006    11.00000    0.06540    0.02650 =
         0.03957   -0.00602   -0.01000   -0.00124
O13   5    0.870783    0.663521    0.773692    11.00000    0.05263    0.03628 =
         0.04132   -0.00339   -0.00999   -0.00808
C14   1    0.537492    0.526136    0.832662    11.00000    0.04366    0.02630 =
         0.03104   -0.00578   -0.00315   -0.00101
C15   1    0.346523    0.543429    0.886656    11.00000    0.05796    0.03179 =
         0.04410   -0.00390    0.00814    0.00625
AFIX  43
H15   2    0.283748    0.647790    0.895024    11.00000   -1.20000
AFIX   0
C16   1    0.249835    0.404874    0.927997    11.00000    0.04815    0.04154 =
         0.05380   -0.00684    0.01345    0.00070
AFIX  43
H16   2    0.118816    0.415207    0.964877    11.00000   -1.20000
AFIX   0
C17   1    0.338942    0.250972    0.917106    11.00000    0.05322    0.03683 =
         0.03285   -0.00552   -0.00519   -0.00715
C18   1    0.528297    0.238539    0.860981    11.00000    0.04840    0.02738 =
         0.04253   -0.00743   -0.00420   -0.00155
AFIX  43
H18   2    0.589695    0.134135    0.851045    11.00000   -1.20000
AFIX   0
C19   1    0.630615    0.374431    0.818913    11.00000    0.04047    0.02925 =
         0.04600   -0.00620   -0.00620    0.00018
AFIX  43
H19   2    0.761277    0.364040    0.781580    11.00000   -1.20000
AFIX   0
C20   1    0.228034    0.104454    0.964817    11.00000    0.06149    0.04075 =
         0.04096   -0.00454   -0.00057   -0.01459
AFIX 137
H20A  2    0.123086    0.091657    0.924079    11.00000   -1.50000
H20B  2    0.169992    0.118266    1.038312    11.00000   -1.50000
H20C  2    0.318724    0.007925    0.963164    11.00000   -1.50000
AFIX   0
HKLF 4
REM  ck001_xp_a.res in P-1
REM wR2 = 0.1423, GooF = S = 1.047, Restrained GooF = 1.047 for all data
REM R1 = 0.0491 for 2378 Fo > 4sig(Fo) and 0.0520 for all 2617 data
REM 191 parameters refined using 0 restraints
END
WGHT      0.1118      0.0000
REM Highest difference peak  0.800,  deepest hole -0.627,  1-sigma level  0.111
Q1    1   0.6905  0.6678  0.3591  11.00000  0.05    0.80
Q2    1   0.6012  0.7261  0.4783  11.00000  0.05    0.64
Q3    1   0.8239  0.5337  0.3979  11.00000  0.05    0.63
Q4    1   0.7575  0.6222  0.2973  11.00000  0.05    0.58
Q5    1   0.8527  0.5047  0.3560  11.00000  0.05    0.56
Q6    1   0.6267  0.7141  0.7130  11.00000  0.05    0.54
Q7    1   0.5503  0.7651  0.8008  11.00000  0.05    0.48
Q8    1   0.5629  0.4746  0.8164  11.00000  0.05    0.44
Q9    1   0.2297  1.1694  0.7156  11.00000  0.05    0.43
Q10   1   0.5626  0.7740  0.6418  11.00000  0.05    0.41
Q11   1   0.6022  0.6145  0.8044  11.00000  0.05    0.39
Q12   1   0.8142  0.7069  0.7639  11.00000  0.05    0.38
Q13   1   0.6592  0.7133  0.6222  11.00000  0.05    0.38
Q14   1   0.4964  0.5427  0.4242  11.00000  0.05    0.37
Q15   1   0.2464  0.8734  0.7209  11.00000  0.05    0.37
Q16   1   0.2990  0.3205  0.9295  11.00000  0.05    0.36
Q17   1   0.4350  0.2453  0.8997  11.00000  0.05    0.36
Q18   1   0.7562  0.6224  0.7761  11.00000  0.05    0.35
Q19   1   0.9739  0.2750  0.7039  11.00000  0.05    0.35
Q20   1   0.7348  0.6451  0.5179  11.00000  0.05    0.35
;
_shelx_res_checksum              59569
loop_
_space_group_symop_operation_xyz
'x, y, z'
'-x, -y, -z'
loop_
_atom_site_type_symbol
_atom_site_label
_atom_site_fract_x
_atom_site_fract_y
_atom_site_fract_z
_atom_site_U_iso_or_equiv
_atom_site_adp_type
_atom_site_calc_flag
_atom_site_occupancy
_atom_site_disorder_assembly
_atom_site_disorder_group
Br Br1 0.78111(5) 0.59378(4) 0.35381(3) 0.0425(2) Uani d 1 . .
N N1 0.6292(5) 0.7256(3) 0.6502(2) 0.0384(6) Uani d 1 . .
C C2 0.4649(5) 0.7946(4) 0.6072(3) 0.0358(7) Uani d 1 . .
C C3 0.4914(5) 0.7634(4) 0.5026(3) 0.0392(7) Uani d 1 . .
H H3 0.405169 0.797263 0.452898 0.047 Uiso calc 1 . .
C C4 0.6723(5) 0.6710(4) 0.4840(3) 0.0388(7) Uani d 1 . .
C C5 0.7544(6) 0.6478(4) 0.5740(3) 0.0397(7) Uani d 1 . .
H H5 0.875264 0.589067 0.582710 0.048 Uiso calc 1 . .
C C6 0.3020(5) 0.8827(4) 0.6651(3) 0.0381(7) Uani d 1 . .
H H6 0.306219 0.898197 0.736623 0.046 Uiso calc 1 . .
C C7 0.1474(6) 0.9425(5) 0.6225(3) 0.0437(8) Uani d 1 . .
H H7 0.141618 0.927123 0.551082 0.052 Uiso calc 1 . .
N N8 -0.0128(5) 1.0308(4) 0.6821(3) 0.0447(7) Uani d 1 . .
O O9 -0.0096(4) 1.0452(4) 0.7764(2) 0.0499(6) Uani d 1 . .
O O10 -0.1458(5) 1.0858(5) 0.6356(3) 0.0706(10) Uani d 1 . .
S S11 0.66335(12) 0.69881(8) 0.77875(6) 0.0366(2) Uani d 1 . .
O O12 0.5680(4) 0.8370(3) 0.8260(2) 0.0435(6) Uani d 1 . .
O O13 0.8708(4) 0.6635(3) 0.7737(2) 0.0429(6) Uani d 1 . .
C C14 0.5375(5) 0.5261(4) 0.8327(2) 0.0338(6) Uani d 1 . .
C C15 0.3465(6) 0.5434(4) 0.8867(3) 0.0469(8) Uani d 1 . .
H H15 0.283748 0.647790 0.895024 0.056 Uiso calc 1 . .
C C16 0.2498(6) 0.4049(5) 0.9280(3) 0.0503(9) Uani d 1 . .
H H16 0.118816 0.415207 0.964877 0.060 Uiso calc 1 . .
C C17 0.3389(6) 0.2510(4) 0.9171(3) 0.0408(7) Uani d 1 . .
C C18 0.5283(5) 0.2385(4) 0.8610(3) 0.0395(7) Uani d 1 . .
H H18 0.589695 0.134135 0.851045 0.047 Uiso calc 1 . .
C C19 0.6306(5) 0.3744(4) 0.8189(3) 0.0386(7) Uani d 1 . .
H H19 0.761277 0.364040 0.781580 0.046 Uiso calc 1 . .
C C20 0.2280(6) 0.1045(4) 0.9648(3) 0.0480(9) Uani d 1 . .
H H20A 0.123086 0.091657 0.924079 0.072 Uiso calc 1 . .
H H20B 0.169992 0.118266 1.038312 0.072 Uiso calc 1 . .
H H20C 0.318724 0.007925 0.963164 0.072 Uiso calc 1 . .
loop_
_atom_site_aniso_label
_atom_site_aniso_U_11
_atom_site_aniso_U_22
_atom_site_aniso_U_33
_atom_site_aniso_U_12
_atom_site_aniso_U_13
_atom_site_aniso_U_23
Br1 0.0488(3) 0.0434(3) 0.0347(3) -0.00224(17) -0.00398(17) -0.00571(16)
N1 0.0524(17) 0.0278(13) 0.0348(14) -0.0006(11) -0.0084(12) -0.0016(10)
C2 0.0443(18) 0.0255(14) 0.0371(17) -0.0049(12) -0.0072(14) 0.0015(12)
C3 0.0442(18) 0.0341(16) 0.0370(17) -0.0033(13) -0.0016(14) -0.0004(12)
C4 0.0500(19) 0.0289(15) 0.0360(16) -0.0051(13) -0.0024(14) -0.0020(12)
C5 0.0501(19) 0.0293(15) 0.0381(17) 0.0016(12) -0.0031(14) -0.0046(12)
C6 0.050(2) 0.0284(14) 0.0339(16) -0.0054(13) -0.0027(14) -0.0009(12)
C7 0.0436(19) 0.0496(19) 0.0376(18) -0.0050(15) -0.0016(14) -0.0091(14)
N8 0.0443(17) 0.0466(16) 0.0444(18) -0.0048(13) -0.0077(14) -0.0066(13)
O9 0.0517(15) 0.0545(16) 0.0429(15) -0.0010(12) -0.0034(12) -0.0102(11)
O10 0.0581(19) 0.099(3) 0.057(2) 0.0186(18) -0.0181(15) -0.0192(18)
S11 0.0507(5) 0.0251(4) 0.0345(4) -0.0034(3) -0.0070(3) -0.0042(3)
O12 0.0654(16) 0.0265(11) 0.0396(13) -0.0012(10) -0.0100(11) -0.0060(9)
O13 0.0526(14) 0.0363(12) 0.0413(13) -0.0081(10) -0.0100(11) -0.0034(9)
C14 0.0437(17) 0.0263(14) 0.0310(15) -0.0010(12) -0.0031(12) -0.0058(11)
C15 0.058(2) 0.0318(16) 0.0441(19) 0.0063(14) 0.0081(16) -0.0039(13)
C16 0.048(2) 0.0415(19) 0.054(2) 0.0007(15) 0.0134(17) -0.0068(15)
C17 0.053(2) 0.0368(17) 0.0328(16) -0.0071(14) -0.0052(14) -0.0055(12)
C18 0.0484(19) 0.0274(15) 0.0425(18) -0.0015(12) -0.0042(14) -0.0074(13)
C19 0.0405(17) 0.0292(15) 0.0460(18) 0.0002(12) -0.0062(14) -0.0062(13)
C20 0.061(2) 0.0407(18) 0.0410(19) -0.0146(16) -0.0006(16) -0.0045(14)
loop_
_atom_type_symbol
_atom_type_description
_atom_type_scat_dispersion_real
_atom_type_scat_dispersion_imag
_atom_type_scat_source
C C 0.0181 0.0091 'International Tables Vol C Tables 4.2.6.8 and 6.1.1.4'
H H 0.0000 0.0000 'International Tables Vol C Tables 4.2.6.8 and 6.1.1.4'
Br Br -0.6763 1.2805 'International Tables Vol C Tables 4.2.6.8 and 6.1.1.4'
N N 0.0311 0.0180 'International Tables Vol C Tables 4.2.6.8 and 6.1.1.4'
O O 0.0492 0.0322 'International Tables Vol C Tables 4.2.6.8 and 6.1.1.4'
S S 0.3331 0.5567 'International Tables Vol C Tables 4.2.6.8 and 6.1.1.4'
loop_
_geom_angle_atom_site_label_1
_geom_angle_atom_site_label_2
_geom_angle_atom_site_label_3
_geom_angle_site_symmetry_1
_geom_angle_site_symmetry_3
_geom_angle
_geom_angle_publ_flag
C5 N1 C2 . . 109.1(3) ?
C5 N1 S11 . . 120.8(2) ?
C2 N1 S11 . . 129.0(2) ?
C3 C2 N1 . . 107.6(3) ?
C3 C2 C6 . . 128.1(3) ?
N1 C2 C6 . . 124.2(3) ?
C2 C3 C4 . . 106.5(3) ?
C2 C3 H3 . . 126.8 ?
C4 C3 H3 . . 126.8 ?
C5 C4 C3 . . 109.6(3) ?
C5 C4 Br1 . . 125.7(3) ?
C3 C4 Br1 . . 124.7(3) ?
C4 C5 N1 . . 107.2(3) ?
C4 C5 H5 . . 126.4 ?
N1 C5 H5 . . 126.4 ?
C7 C6 C2 . . 122.4(4) ?
C7 C6 H6 . . 118.8 ?
C2 C6 H6 . . 118.8 ?
C6 C7 N8 . . 121.2(4) ?
C6 C7 H7 . . 119.4 ?
N8 C7 H7 . . 119.4 ?
O10 N8 O9 . . 123.7(3) ?
O10 N8 C7 . . 116.7(3) ?
O9 N8 C7 . . 119.6(3) ?
O12 S11 O13 . . 121.14(15) ?
O12 S11 N1 . . 106.10(14) ?
O13 S11 N1 . . 104.39(15) ?
O12 S11 C14 . . 109.60(15) ?
O13 S11 C14 . . 109.53(15) ?
N1 S11 C14 . . 104.67(14) ?
C15 C14 C19 . . 121.5(3) ?
C15 C14 S11 . . 119.5(2) ?
C19 C14 S11 . . 119.0(3) ?
C16 C15 C14 . . 118.3(3) ?
C16 C15 H15 . . 120.8 ?
C14 C15 H15 . . 120.8 ?
C15 C16 C17 . . 121.9(4) ?
C15 C16 H16 . . 119.1 ?
C17 C16 H16 . . 119.1 ?
C18 C17 C16 . . 118.1(3) ?
C18 C17 C20 . . 122.2(3) ?
C16 C17 C20 . . 119.7(3) ?
C17 C18 C19 . . 121.7(3) ?
C17 C18 H18 . . 119.1 ?
C19 C18 H18 . . 119.1 ?
C18 C19 C14 . . 118.4(3) ?
C18 C19 H19 . . 120.8 ?
C14 C19 H19 . . 120.8 ?
C17 C20 H20A . . 109.5 ?
C17 C20 H20B . . 109.5 ?
H20A C20 H20B . . 109.5 ?
C17 C20 H20C . . 109.5 ?
H20A C20 H20C . . 109.5 ?
H20B C20 H20C . . 109.5 ?
loop_
_geom_bond_atom_site_label_1
_geom_bond_atom_site_label_2
_geom_bond_site_symmetry_2
_geom_bond_distance
_geom_bond_publ_flag
Br1 C4 . 1.881(3) ?
N1 C5 . 1.381(4) ?
N1 C2 . 1.399(4) ?
N1 S11 . 1.698(3) ?
C2 C3 . 1.381(5) ?
C2 C6 . 1.441(5) ?
C3 C4 . 1.414(5) ?
C3 H3 . 0.9500 ?
C4 C5 . 1.361(5) ?
C5 H5 . 0.9500 ?
C6 C7 . 1.318(6) ?
C6 H6 . 0.9500 ?
C7 N8 . 1.439(5) ?
C7 H7 . 0.9500 ?
N8 O10 . 1.210(5) ?
N8 O9 . 1.237(4) ?
S11 O12 . 1.428(2) ?
S11 O13 . 1.430(3) ?
S11 C14 . 1.748(3) ?
C14 C15 . 1.387(5) ?
C14 C19 . 1.389(4) ?
C15 C16 . 1.383(6) ?
C15 H15 . 0.9500 ?
C16 C17 . 1.390(5) ?
C16 H16 . 0.9500 ?
C17 C18 . 1.385(5) ?
C17 C20 . 1.503(5) ?
C18 C19 . 1.386(5) ?
C18 H18 . 0.9500 ?
C19 H19 . 0.9500 ?
C20 H20A . 0.9800 ?
C20 H20B . 0.9800 ?
C20 H20C . 0.9800 ?
loop_
_geom_hbond_atom_site_label_D
_geom_hbond_atom_site_label_H
_geom_hbond_atom_site_label_A
_geom_hbond_site_symmetry_A
_geom_hbond_distance_DH
_geom_hbond_distance_HA
_geom_hbond_distance_DA
_geom_hbond_angle_DHA
_geom_hbond_publ_flag
C3 H3 O10 2_576 0.95 2.37 3.297(5) 165.8 yes
C7 H7 O10 2_576 0.95 2.41 3.360(5) 173.8 yes
C6 H6 O12 . 0.95 2.29 2.963(4) 126.9 yes
loop_
_geom_torsion_atom_site_label_1
_geom_torsion_atom_site_label_2
_geom_torsion_atom_site_label_3
_geom_torsion_atom_site_label_4
_geom_torsion_site_symmetry_1
_geom_torsion_site_symmetry_2
_geom_torsion_site_symmetry_3
_geom_torsion_site_symmetry_4
_geom_torsion
_geom_torsion_publ_flag
C5 N1 C2 C3 . . . . -1.8(3) ?
S11 N1 C2 C3 . . . . -169.3(2) ?
C5 N1 C2 C6 . . . . 178.8(3) ?
S11 N1 C2 C6 . . . . 11.2(5) ?
N1 C2 C3 C4 . . . . 1.4(3) ?
C6 C2 C3 C4 . . . . -179.2(3) ?
C2 C3 C4 C5 . . . . -0.5(4) ?
C2 C3 C4 Br1 . . . . 179.7(2) ?
C3 C4 C5 N1 . . . . -0.5(4) ?
Br1 C4 C5 N1 . . . . 179.2(2) ?
C2 N1 C5 C4 . . . . 1.4(4) ?
S11 N1 C5 C4 . . . . 170.2(2) ?
C3 C2 C6 C7 . . . . 2.4(6) ?
N1 C2 C6 C7 . . . . -178.3(3) ?
C2 C6 C7 N8 . . . . -179.7(3) ?
C6 C7 N8 O10 . . . . 177.7(4) ?
C6 C7 N8 O9 . . . . -3.0(6) ?
C5 N1 S11 O12 . . . . 157.4(3) ?
C2 N1 S11 O12 . . . . -36.3(3) ?
C5 N1 S11 O13 . . . . 28.4(3) ?
C2 N1 S11 O13 . . . . -165.3(3) ?
C5 N1 S11 C14 . . . . -86.7(3) ?
C2 N1 S11 C14 . . . . 79.6(3) ?
O12 S11 C14 C15 . . . . 17.3(3) ?
O13 S11 C14 C15 . . . . 152.4(3) ?
N1 S11 C14 C15 . . . . -96.2(3) ?
O12 S11 C14 C19 . . . . -163.7(3) ?
O13 S11 C14 C19 . . . . -28.6(3) ?
N1 S11 C14 C19 . . . . 82.9(3) ?
C19 C14 C15 C16 . . . . 0.6(6) ?
S11 C14 C15 C16 . . . . 179.6(3) ?
C14 C15 C16 C17 . . . . 0.3(7) ?
C15 C16 C17 C18 . . . . -1.5(6) ?
C15 C16 C17 C20 . . . . 179.2(4) ?
C16 C17 C18 C19 . . . . 1.9(6) ?
C20 C17 C18 C19 . . . . -178.8(3) ?
C17 C18 C19 C14 . . . . -1.0(5) ?
C15 C14 C19 C18 . . . . -0.2(5) ?
S11 C14 C19 C18 . . . . -179.2(3) ?

_cod_database_fobs_code 2243775
