#------------------------------------------------------------------------------
#$Date: 2020-07-25 08:24:34 +0300 (Sat, 25 Jul 2020) $
#$Revision: 254582 $
#$URL: file:///home/coder/svn-repositories/cod/cif/2/24/35/2243509.cif $
#------------------------------------------------------------------------------
#
# This file is available in the Crystallography Open Database (COD),
# http://www.crystallography.net/. The original data for this entry
# were provided by IUCr Journals, http://journals.iucr.org/.
#
# The file may be used within the scientific community so long as
# proper attribution is given to the journal article from which the
# data were obtained.
#
data_2243509
loop_
_publ_author_name
'Chadeayne, Andrew R.'
'Pham, Duyen N. K.'
'Golen, James A.'
'Manke, David R.'
_publ_section_title
;
 Quaternary tryptammonium salts:
 <i>N</i>,<i>N</i>-dimethyl-<i>N</i>-<i>n</i>-propyltryptammonium (DMPT)
 iodide and <i>N</i>-allyl-<i>N</i>,<i>N</i>-dimethyltryptammonium (DMALT)
 iodide
;
_journal_issue                   8
_journal_name_full               'Acta Crystallographica Section E'
_journal_page_first              1357
_journal_page_last               1360
_journal_paper_doi               10.1107/S2056989020010014
_journal_volume                  76
_journal_year                    2020
_chemical_formula_iupac          '0.5C15 H21 N2 +, 0.5I -'
_chemical_formula_moiety         '0.5(C15 H21 N2 +), 0.5(I -)'
_chemical_formula_sum            'C7.5 H10.5 I0.5 N'
_chemical_formula_weight         178.12
_chemical_name_common
;
<i>N</i>-Allyl-<i>N</i>,<i>N</i>-dimethyltryptammonium iodide
;
_chemical_name_systematic
'2-(1<i>H</i>-Indol-3-yl)-<i>N</i>,<i>N</i>-dimethyl-<i>N</i>-(prop-2-en-1-yl)azanium iodide'
_space_group_crystal_system      monoclinic
_space_group_IT_number           4
_space_group_name_Hall           'P 2yb'
_space_group_name_H-M_alt        'P 1 21 1'
_atom_sites_solution_hydrogens   geom
_audit_creation_method
;
Olex2 1.3
(compiled 2020.06.28 svn.raecde09e for OlexSys, GUI svn.r6132)
;
_cell_angle_alpha                90
_cell_angle_beta                 94.671(3)
_cell_angle_gamma                90
_cell_formula_units_Z            4
_cell_length_a                   7.3471(8)
_cell_length_b                   9.9672(9)
_cell_length_c                   10.9499(11)
_cell_measurement_reflns_used    9625
_cell_measurement_temperature    303.22
_cell_measurement_theta_max      25.68
_cell_measurement_theta_min      3.22
_cell_volume                     799.20(14)
_computing_cell_refinement
;
SAINT (Bruker, 2018)
;
_computing_data_collection
;
APEX3 (Bruker, 2018)
;
_computing_data_reduction
;
SAINT (Bruker, 2018)
;
_computing_molecular_graphics
;
<i>OLEX2</i> (Dolomanov <i>et al.</i>,  2009)
;
_computing_publication_material
;
publCIF (Westrip, 2010)
;
_computing_structure_refinement
;
SHELXL2018 (Sheldrick, 2015b)
;
_computing_structure_solution
;
SHELXT2014 (Sheldrick, 2015a)
;
_diffrn_ambient_temperature      303.22
_diffrn_measured_fraction_theta_full 0.998
_diffrn_measured_fraction_theta_max 0.996
_diffrn_measurement_device_type  'Bruker D8 Venture CMOS'
_diffrn_measurement_method       '\f and \w scans'
_diffrn_radiation_type           MoK\a
_diffrn_radiation_wavelength     0.71073
_diffrn_reflns_av_R_equivalents  0.0312
_diffrn_reflns_av_unetI/netI     0.0156
_diffrn_reflns_limit_h_max       8
_diffrn_reflns_limit_h_min       -8
_diffrn_reflns_limit_k_max       12
_diffrn_reflns_limit_k_min       -12
_diffrn_reflns_limit_l_max       13
_diffrn_reflns_limit_l_min       -13
_diffrn_reflns_number            26314
_diffrn_reflns_theta_full        25.242
_diffrn_reflns_theta_max         25.736
_diffrn_reflns_theta_min         3.221
_exptl_absorpt_coefficient_mu    1.991
_exptl_absorpt_correction_T_max  0.7453
_exptl_absorpt_correction_T_min  0.6077
_exptl_absorpt_correction_type   multi-scan
_exptl_absorpt_process_details
;
(SADABS; Bruker, 2018)
;
_exptl_crystal_colour            colourless
_exptl_crystal_density_diffrn    1.480
_exptl_crystal_description       block
_exptl_crystal_F_000             356
_exptl_crystal_size_max          0.39
_exptl_crystal_size_mid          0.22
_exptl_crystal_size_min          0.15
_refine_diff_density_max         0.456
_refine_diff_density_min         -0.484
_refine_ls_abs_structure_details
;
 Refined as an inversion twin
;
_refine_ls_abs_structure_Flack   0.29(5)
_refine_ls_extinction_coef       0.056(3)
_refine_ls_extinction_expression Fc^*^=kFc[1+0.001xFc^2^\l^3^/sin(2\q)]^-1/4^
_refine_ls_extinction_method
;
SHELXL2018 (Sheldrick, 2015b)
;
_refine_ls_goodness_of_fit_ref   1.133
_refine_ls_hydrogen_treatment    constr
_refine_ls_matrix_type           full
_refine_ls_number_parameters     174
_refine_ls_number_reflns         3038
_refine_ls_number_restraints     5
_refine_ls_restrained_S_all      1.134
_refine_ls_R_factor_all          0.0287
_refine_ls_R_factor_gt           0.0268
_refine_ls_shift/su_max          0.001
_refine_ls_shift/su_mean         0.000
_refine_ls_structure_factor_coef Fsqd
_refine_ls_weighting_details
'w=1/[\s^2^(Fo^2^)+(0.0345P)^2^+0.6140P] where P=(Fo^2^+2Fc^2^)/3'
_refine_ls_weighting_scheme      calc
_refine_ls_wR_factor_gt          0.0696
_refine_ls_wR_factor_ref         0.0707
_reflns_number_gt                2868
_reflns_number_total             3038
_reflns_threshold_expression     'I > 2\s(I)'
_cod_data_source_file            zq2255sup1.cif
_cod_data_source_block           DMALT
_cod_original_formula_sum        'C7.50 H10.50 I0.50 N'
_cod_database_code               2243509
_shelx_space_group_comment
;
The symmetry employed for this shelxl refinement is uniquely defined
by the following loop, which should always be used as a source of
symmetry information in preference to the above space-group names.
They are only intended as comments.
;
_shelx_estimated_absorpt_t_min   0.511
_shelx_estimated_absorpt_t_max   0.754
_shelx_hkl_file
;
  -2   0   0 6453.55  168.28
  -2   0   0 6005.30  168.58
   2   0   0 6054.99  168.58
   2   0   0 5468.05  168.08
   2   0   0 5387.46  168.18
  -2   0   0 6169.18  168.28
   2   0   0 5934.21  168.28
  -2   0   0 5545.25  168.18
  -2   0   0 5314.97  168.38
  -3   0   0 3316.37   94.69
   3   0   0 3283.87   94.69
  -3   0   0 3118.59   95.39
  -3   0   0 3273.97   94.79
  -3   0   0 3209.18   94.99
   3   0   0 3231.98   94.69
   3   0   0 3350.16   95.29
   3   0   0 3117.79   94.79
  -3   0   0 3242.28   94.79
   3   0   0 3219.48   95.49
  -3   0   0 3331.37   95.29
   3   0   0 3355.46   94.89
  -4   0   0   53.49    8.00
  -4   0   0   68.69    3.50
   4   0   0   70.49    3.30
  -4   0   0   61.29    7.30
   4   0   0   71.69    3.50
   4   0   0   68.99    7.10
   4   0   0   59.29    6.70
   4   0   0   64.49    8.50
  -4   0   0   71.19    3.50
  -4   0   0   62.99    4.00
  -4   0   0   61.29    7.20
  -5   0   0 1824.82   54.09
   5   0   0 1825.92   53.99
  -5   0   0 1800.02   53.89
  -5   0   0 1877.31   53.19
   5   0   0 1740.73   53.89
  -5   0   0 1679.13   54.69
  -5   0   0 1814.92   53.19
   5   0   0 1751.82   53.49
  -5   0   0 1762.32   54.19
   5   0   0 1770.22   53.09
   5   0   0 1720.33   54.99
   5   0   0 1871.31   53.49
  -6   0   0  178.78   16.10
   6   0   0  218.18    8.80
  -6   0   0  230.78    8.50
   6   0   0  218.68    8.00
   6   0   0  205.28   12.90
  -6   0   0  207.28    8.10
  -6   0   0  205.48    9.00
  -6   0   0  208.98   13.80
   6   0   0  190.18   17.10
   6   0   0  220.48    8.30
  -6   0   0  192.28   14.80
  -7   0   0  417.76   14.60
  -7   0   0  434.86   15.70
  -7   0   0  399.66   14.40
  -7   0   0  413.66   23.90
   7   0   0  416.96   25.20
   7   0   0  439.96   15.30
  -7   0   0  419.16   21.80
   7   0   0  416.46   19.70
   7   0   0  433.56   14.00
  -7   0   0  405.66   22.00
  -8   0   0  273.57   27.60
   8   0   0  294.97   29.50
  -8   0   0  290.97   11.20
  -8   0   0  309.67   25.40
  -8   0   0  313.27   13.70
   8   0   0  322.17   12.50
  -8   0   0  303.77   23.50
   8   0   0  291.07   21.40
  -1  -1   0 3105.19   97.09
   1  -1   0 3613.44   97.49
   1  -1   0 3424.36   97.29
   1  -1   0 3451.95   97.29
  -1  -1   0 3129.19   97.09
   1  -1   0 3680.23   97.29
  -1  -1   0 3282.77   97.09
   1   1   0 3513.25   97.19
  -1   1   0 3437.96   97.49
  -1   1   0 3577.74   97.49
  -1   1   0 3391.06   97.19
   1   1   0 2783.22   96.99
  -1   1   0 3261.07   97.19
   2  -1   0 3155.68   89.09
  -2  -1   0 2926.81   89.09
   2  -1   0 3070.39   89.49
  -2  -1   0 3064.09   88.89
  -2  -1   0 3082.99   88.79
  -2  -1   0 3101.39   89.09
   2  -1   0 2983.80   88.99
   2  -1   0 3002.80   89.09
   2  -1   0 3177.98   89.49
   2   1   0 3051.59   88.69
   2   1   0 3179.48   89.09
   2   1   0 3085.49   88.69
  -2   1   0 2954.80   88.99
  -2   1   0 3021.70   89.19
   2   1   0 3184.98   88.99
  -2   1   0 3002.60   89.49
  -2   1   0 2979.50   88.99
  -2   1   0 3143.99   89.49
  -2   1   0 3014.00   88.99
   3  -1   0 1008.00   32.00
  -3  -1   0 1001.90   30.80
  -3  -1   0 1030.70   30.60
   3  -1   0 1059.09   30.90
   3  -1   0  994.50   31.00
  -3  -1   0 1033.50   30.60
  -3  -1   0 1002.50   31.00
   3  -1   0  975.70   31.10
  -3  -1   0  963.00   31.30
  -3  -1   0 1034.20   31.10
   3  -1   0 1044.40   30.70
   3  -1   0 1058.79   32.10
  -3   1   0 1065.29   31.50
   3   1   0 1014.80   30.60
   3   1   0 1079.49   31.10
  -3   1   0 1033.30   31.30
  -3   1   0 1069.29   30.90
  -3   1   0 1005.40   31.90
   3   1   0  993.30   30.60
  -3   1   0 1017.40   31.10
   3   1   0 1086.79   30.90
   3   1   0 1073.69   31.10
  -3   1   0 1071.29   30.80
   4  -1   0 4087.89  115.99
   4  -1   0 3925.81  115.99
  -4  -1   0 4064.89  115.79
  -4  -1   0 4042.20  116.39
   4  -1   0 3830.92  116.09
  -4  -1   0 3955.60  116.19
  -4  -1   0 4115.39  115.79
   4  -1   0 4080.29  116.19
   4  -1   0 3929.51  117.09
  -4  -1   0 3816.42  116.49
   4  -1   0 3582.54  119.29
  -4  -1   0 3929.91  115.89
   4   1   0 4151.68  116.09
   4   1   0 4091.59  115.59
  -4   1   0 3838.72  116.89
  -4   1   0 4018.70  116.19
   4   1   0 3945.21  116.69
  -4   1   0 3945.91  116.39
   4   1   0 3875.51  115.59
  -4   1   0 4060.49  115.99
  -4   1   0 4176.08  116.89
   5  -1   0   37.50    6.30
   5  -1   0   21.40    8.00
  -5  -1   0   26.50    2.70
  -5  -1   0   30.90    6.90
  -5  -1   0   25.70    5.80
  -5  -1   0   34.20    6.00
   5  -1   0   31.50    2.70
   5  -1   0   34.00    3.70
   5  -1   0   23.90    5.90
   5  -1   0   25.40    2.50
   5   1   0   22.80    7.10
  -5   1   0   32.90    6.20
   5   1   0   25.90    2.20
   5   1   0   33.10    3.20
  -5   1   0   18.00    7.00
   5   1   0   34.00    2.60
   5   1   0   28.30    5.20
  -5   1   0   21.60    4.50
  -5   1   0   28.70    2.90
  -5   1   0   40.40    6.90
  -5   1   0   34.60    2.80
   6  -1   0  455.95   14.70
  -6  -1   0  441.96   18.30
   6  -1   0  440.26   15.10
   6  -1   0  434.46   22.20
   6  -1   0  460.35   15.80
  -6  -1   0  439.56   20.50
  -6  -1   0  434.26   18.90
  -6  -1   0  455.75   15.70
  -6  -1   0  450.45   14.60
   6  -1   0  437.76   19.30
  -6  -1   0  446.66   14.70
   6  -1   0  423.36   18.40
  -6   1   0  399.16   16.00
  -6   1   0  429.36   19.60
   6   1   0  433.06   17.20
   6   1   0  425.16   20.90
  -6   1   0  458.25   15.10
   6   1   0  470.25   15.10
   6   1   0  445.46   15.40
   6   1   0  452.25   14.20
  -6   1   0  440.26   19.40
  -6   1   0  448.46   16.00
  -6   1   0  418.16   21.10
  -7  -1   0   29.80   10.10
  -7  -1   0   33.00    4.30
  -7  -1   0   38.30   10.20
  -7  -1   0   30.20    3.50
   7  -1   0   25.80    3.50
   7  -1   0   31.40    9.50
   7  -1   0   33.00    9.30
  -7  -1   0   29.40   11.90
   7  -1   0   37.00   14.20
   7  -1   0   44.90    4.20
   7   1   0   36.10   12.40
   7   1   0   31.80    8.00
  -7   1   0   43.10    3.70
  -7   1   0   40.20    4.70
  -7   1   0   30.30   12.30
   7   1   0   41.30    3.60
  -7   1   0   30.70   10.60
  -7   1   0   35.20    3.40
  -7   1   0   22.20    9.60
  -7   1   0   28.10   10.50
   7   1   0   28.90    2.90
  -8  -1   0   66.59   22.70
  -8  -1   0   93.99    5.60
   8  -1   0  107.99   19.60
  -8  -1   0  119.59    7.60
  -8  -1   0  103.59   16.90
   8  -1   0   92.09   22.30
  -8  -1   0  113.59   14.50
   8   1   0   91.39    6.60
  -8   1   0  114.29    7.40
  -8   1   0   98.39   15.00
  -8   1   0   93.39   15.10
  -8   1   0   97.09   18.00
   8   1   0  102.19   18.10
   8   1   0   93.19   11.40
  -8   1   0   88.89   14.70
   0  -2   0 4190.58  117.39
   0  -2   0 3821.12  117.59
   0  -2   0 3788.42  117.39
   0   2   0 4097.89  117.49
   0   2   0 4438.66  117.59
   1  -2   0 2807.32   85.39
   1  -2   0 2915.21   84.89
   1  -2   0 2984.40   84.89
  -1  -2   0 2965.70   84.99
   1  -2   0 2779.62   85.29
   1  -2   0 3003.00   85.19
  -1  -2   0 3168.28   85.09
   1  -2   0 3066.39   85.09
  -1   2   0 2915.81   84.89
  -1   2   0 2927.51   85.19
  -1   2   0 2971.90   84.89
  -1   2   0 2855.61   84.99
  -1   2   0 2880.11   85.09
  -1   2   0 2958.50   85.19
  -1   2   0 2723.53   84.79
  -2  -2   0 2391.86   68.99
  -2  -2   0 2367.06   68.99
   2  -2   0 2361.26   70.09
  -2  -2   0 2304.37   69.29
   2  -2   0 2383.16   69.39
  -2  -2   0 2405.66   69.29
   2  -2   0 2334.77   69.59
   2  -2   0 2466.95   69.59
   2  -2   0 2273.57   69.49
  -2  -2   0 2393.26   69.49
   2  -2   0 2470.25   70.19
   2   2   0 2396.76   69.19
  -2   2   0 2309.57   69.99
  -2   2   0 2401.36   69.39
   2   2   0 2496.95   69.49
  -2   2   0 2343.07   69.49
  -2   2   0 2447.06   69.99
  -2   2   0 2335.67   69.59
  -2   2   0 2342.57   69.49
   3  -2   0 2799.52   78.29
   3  -2   0 2723.83   77.69
  -3  -2   0 2698.53   77.09
   3  -2   0 2598.44   77.79
  -3  -2   0 2529.45   77.59
  -3  -2   0 2658.13   77.49
  -3  -2   0 2708.13   77.29
   3  -2   0 2613.04   77.59
  -3  -2   0 2642.54   77.59
  -3  -2   0 2584.84   77.09
   3  -2   0 2672.13   77.49
   3  -2   0 2612.84   78.49
  -3   2   0 2565.54   77.69
  -3   2   0 2543.55   78.29
  -3   2   0 2740.13   77.49
  -3   2   0 2569.94   77.89
  -3   2   0 2694.33   77.79
   3   2   0 2647.83   77.49
  -3   2   0 2577.34   77.59
  -3   2   0 2673.03   78.29
   3   2   0 2765.22   77.59
   3   2   0 2645.14   76.79
   3   2   0 2653.43   76.79
   4  -2   0  349.87   11.20
  -4  -2   0  330.17   12.50
  -4  -2   0  324.17   11.10
  -4  -2   0  320.17   11.90
   4  -2   0  309.97   14.60
  -4  -2   0  329.77   10.50
   4  -2   0  339.37   11.30
   4  -2   0  312.47   12.70
   4  -2   0  277.37   12.50
  -4  -2   0  305.07   12.70
  -4  -2   0  330.07   10.60
   4  -2   0  325.87   12.90
   4   2   0  285.67   12.30
  -4   2   0  324.67   12.80
  -4   2   0  324.17   11.60
  -4   2   0  300.17   14.00
  -4   2   0  327.37   12.80
   4   2   0  312.07   11.10
   4   2   0  318.37   11.00
  -4   2   0  306.67   13.40
  -4   2   0  345.47   11.90
   4   2   0  329.87   10.10
  -4   2   0  337.97   10.80
   4   2   0  356.56   10.90
  -5  -2   0 1264.27   37.00
  -5  -2   0 1189.58   38.90
   5  -2   0 1269.37   38.50
   5  -2   0 1252.17   37.30
  -5  -2   0 1243.68   37.80
  -5  -2   0 1228.78   38.00
  -5  -2   0 1216.28   38.40
   5  -2   0 1235.28   38.40
   5  -2   0 1186.58   40.10
   5  -2   0 1193.08   38.50
   5  -2   0 1278.07   37.80
  -5  -2   0 1255.87   37.30
  -5   2   0 1231.88   38.50
   5   2   0 1262.17   36.60
  -5   2   0 1259.57   38.70
  -5   2   0 1224.28   38.50
  -5   2   0 1284.17   37.40
  -5   2   0 1237.08   37.50
   5   2   0 1253.77   37.70
  -5   2   0 1205.38   39.10
   5   2   0 1284.37   37.60
  -5   2   0 1183.68   40.00
   5   2   0 1183.68   39.00
   5   2   0 1179.88   37.10
   6  -2   0  159.88   14.60
  -6  -2   0  174.28    7.50
  -6  -2   0  160.18   13.10
  -6  -2   0  170.88   14.30
   6  -2   0  173.38    8.90
   6  -2   0  162.08    7.50
   6  -2   0  153.38   14.30
  -6  -2   0  167.48    6.60
   6  -2   0  143.49   18.20
  -6  -2   0  166.18   14.60
  -6  -2   0  170.08    6.60
   6  -2   0  158.88    6.70
  -6   2   0  161.68    6.90
   6   2   0  158.58    7.00
   6   2   0  157.28    5.90
   6   2   0  160.08   15.30
   6   2   0  156.48   10.80
  -6   2   0  163.08   14.10
   6   2   0  157.98    6.80
  -6   2   0  167.78    8.00
  -6   2   0  141.49   17.20
  -6   2   0  159.78   15.50
  -6   2   0  171.98   13.80
  -6   2   0  171.58    7.10
   7  -2   0  362.46   21.50
   7  -2   0  380.36   26.30
  -7  -2   0  367.46   20.60
  -7  -2   0  383.36   12.60
  -7  -2   0  391.16   13.70
  -7  -2   0  331.77   22.30
   7  -2   0  355.26   19.60
  -7  -2   0  353.46   12.50
  -7  -2   0  377.96   20.20
   7  -2   0  378.16   14.20
   7  -2   0  357.86   12.60
   7   2   0  342.27   22.90
  -7   2   0  359.26   13.20
  -7   2   0  308.97   14.70
   7   2   0  359.86   12.90
   7   2   0  345.87   16.70
  -7   2   0  360.86   20.50
  -7   2   0  389.66   30.40
  -7   2   0  371.76   27.40
   8  -2   0  178.48   24.00
  -8  -2   0  180.58   23.00
  -8  -2   0  183.98    8.90
  -8  -2   0  163.88    7.70
   8  -2   0  181.58   30.80
  -8  -2   0  178.38   25.70
   8  -2   0  180.28   22.90
   8   2   0  174.78   17.10
  -8   2   0  168.08   28.60
  -8   2   0  177.88   22.40
  -8   2   0  195.08    9.90
  -8   2   0  187.98   23.50
   8   2   0  186.08    6.70
   8   2   0  193.38   27.50
   0  -3   0    0.50    0.60
   0  -3   0    1.60    1.90
   0  -3   0    0.00    0.40
   0  -3   0    2.50    0.80
   0  -3   0    0.40    0.40
   0  -3   0    2.40    0.60
   0   3   0    2.10    0.60
   0   3   0    0.30    0.60
   0   3   0    0.80    2.20
   0   3   0    0.20    0.50
   1  -3   0 3850.01  117.59
  -1  -3   0 3824.42  117.79
  -1  -3   0 4187.78  117.69
   1  -3   0 4195.88  117.89
   1  -3   0 4082.29  117.29
  -1  -3   0 3992.50  117.79
   1  -3   0 4053.39  117.49
   1  -3   0 4171.98  117.79
   1  -3   0 4009.80  117.79
   1  -3   0 3948.10  117.89
  -1   3   0 4078.69  117.89
  -1   3   0 3989.10  117.39
  -1   3   0 3937.21  117.29
  -1   3   0 4087.09  117.89
  -1   3   0 4266.97  117.79
  -1   3   0 4216.18  117.89
   2  -3   0 1257.77   38.90
   2  -3   0 1307.67   37.90
   2  -3   0 1356.86   38.60
   2  -3   0 1288.87   38.40
   2  -3   0 1252.97   38.10
   2  -3   0 1364.66   38.30
  -2  -3   0 1205.18   37.50
  -2  -3   0 1272.57   38.10
  -2  -3   0 1219.88   37.50
   2  -3   0 1345.77   38.20
  -2   3   0 1309.37   38.50
  -2   3   0 1218.98   38.30
  -2   3   0 1312.07   37.90
  -2   3   0 1325.87   38.10
   2   3   0 1263.27   37.40
   2   3   0 1264.77   37.40
  -2   3   0 1233.38   38.70
  -2   3   0 1301.07   37.70
   2   3   0 1303.17   38.00
  -2   3   0 1249.28   38.10
   3  -3   0 1123.19   33.60
  -3  -3   0 1093.19   32.50
  -3  -3   0 1030.10   32.70
   3  -3   0 1076.89   34.40
  -3  -3   0 1106.99   32.10
   3  -3   0 1035.60   33.20
  -3  -3   0 1097.09   33.10
   3  -3   0 1093.49   33.50
   3  -3   0 1148.59   33.10
   3  -3   0 1086.09   32.70
   3   3   0 1129.19   33.10
  -3   3   0 1053.39   33.40
   3   3   0 1114.29   32.50
  -3   3   0 1112.49   33.60
  -3   3   0 1028.10   33.10
  -3   3   0 1115.39   32.70
  -3   3   0 1121.89   32.60
  -3   3   0 1121.79   33.00
   3   3   0 1146.19   32.90
  -3   3   0 1012.80   34.00
   4  -3   0 2302.87   67.69
  -4  -3   0 2113.19   66.49
  -4  -3   0 2182.58   65.89
   4  -3   0 2181.38   67.99
  -4  -3   0 2246.08   65.89
  -4  -3   0 2292.57   66.29
   4  -3   0 2304.07   66.49
  -4  -3   0 2218.78   66.49
   4  -3   0 2330.07   66.69
   4  -3   0 2192.08   66.89
  -4  -3   0 2196.28   65.59
   4  -3   0 2193.88   66.69
  -4   3   0 2333.97   67.39
   4   3   0 2334.67   66.49
  -4   3   0 2344.57   66.29
  -4   3   0 2241.88   66.79
  -4   3   0 2134.99   67.79
  -4   3   0 2329.77   66.49
  -4   3   0 2195.98   66.89
   4   3   0 2234.38   66.19
   5  -3   0    4.80    6.50
   5  -3   0   13.50    1.90
  -5  -3   0    8.60    5.40
   5  -3   0    7.50    8.90
   5  -3   0    9.30    6.40
   5  -3   0   13.20    2.30
  -5  -3   0    7.70    1.90
  -5  -3   0    7.00    6.10
  -5  -3   0    9.00    5.70
   5  -3   0   12.70    2.50
  -5   3   0    4.70    8.30
   5   3   0    6.00    1.70
  -5   3   0    9.00    2.40
   5   3   0    8.60    1.80
   5   3   0   12.20    1.90
  -5   3   0    7.30    6.40
  -5   3   0    5.00    1.80
  -5   3   0   13.50    6.30
   5   3   0    5.60    1.90
  -5   3   0    7.80    1.50
   6  -3   0  447.86   15.60
   6  -3   0  465.55   16.50
  -6  -3   0  460.45   15.70
  -6  -3   0  461.05   14.80
   6  -3   0  449.26   20.00
  -6  -3   0  443.76   20.40
  -6  -3   0  455.25   19.00
  -6  -3   0  456.45   19.80
   6  -3   0  448.76   20.70
   6  -3   0  463.55   15.30
  -6  -3   0  454.65   14.90
   6  -3   0  443.06   24.40
   6   3   0  461.25   13.90
  -6   3   0  458.45   20.40
  -6   3   0  448.76   23.60
   6   3   0  455.15   15.70
  -6   3   0  460.65   16.80
  -6   3   0  460.05   20.20
   6   3   0  454.65   15.50
  -6   3   0  453.95   15.50
   6   3   0  451.55   15.50
   6   3   0  454.65   20.90
  -7  -3   0  135.79   18.30
  -7  -3   0  137.39   18.00
  -7  -3   0  158.08   16.60
  -7  -3   0  129.69    6.20
   7  -3   0  168.08    9.70
  -7  -3   0  141.29    7.00
   7  -3   0  120.49   20.00
  -7  -3   0  159.88    6.40
   7  -3   0  134.09   19.40
   7  -3   0  154.98   24.00
  -7   3   0  157.88   18.40
  -7   3   0  145.59   19.70
  -7   3   0  153.48    8.00
   7   3   0  144.99    5.70
  -7   3   0  131.69    6.70
   7   3   0  140.09    6.70
   7   3   0  144.09   10.90
   7   3   0  151.38   20.10
  -8  -3   0   62.09   19.90
  -8  -3   0   66.69   16.70
  -8  -3   0   64.69    6.70
   8  -3   0   60.39   19.90
   8  -3   0   62.19   15.40
  -8  -3   0   75.89   16.10
  -8  -3   0   61.29    4.90
   8  -3   0   69.19   14.40
   8   3   0   69.59    8.50
  -8   3   0   54.89   18.90
  -8   3   0   66.29   14.20
  -8   3   0   65.49   15.30
   8   3   0   61.39   16.80
   0  -4   0 4779.12  129.39
   0  -4   0 4271.17  128.79
   0  -4   0 4109.29  128.59
   0  -4   0 4464.65  128.59
   0  -4   0 4746.02  128.99
   0  -4   0 4182.08  128.89
   0  -4   0 4583.54  129.29
   0   4   0 4166.68  128.89
   0   4   0 4418.66  129.39
   0   4   0 4777.92  129.29
   1  -4   0  591.24   19.80
   1  -4   0  607.54   19.70
  -1  -4   0  627.74   19.20
   1  -4   0  635.54   19.20
   1  -4   0  627.44   18.80
   1  -4   0  656.33   18.60
  -1  -4   0  608.24   19.00
   1  -4   0  598.94   19.10
  -1  -4   0  627.34   19.30
   1  -4   0  651.93   19.30
  -1   4   0  629.04   18.60
  -1   4   0  650.23   19.20
  -1   4   0  641.64   19.20
  -1   4   0  606.74   19.90
  -1   4   0  628.34   19.20
  -1   4   0  621.64   18.60
   1   4   0  613.14   19.60
   2  -4   0 1812.22   51.79
  -2  -4   0 1733.63   51.09
   2  -4   0 1666.43   51.29
   2  -4   0 1704.53   51.69
   2  -4   0 1772.12   51.09
   2  -4   0 1793.02   51.39
  -2  -4   0 1728.23   51.49
   2  -4   0 1665.73   52.09
  -2   4   0 1784.12   51.79
  -2   4   0 1767.82   51.39
  -2   4   0 1770.22   50.79
  -2   4   0 1799.52   50.99
  -2   4   0 1660.53   51.89
  -2   4   0 1674.13   51.19
  -2   4   0 1692.93   51.69
  -3  -4   0 2118.09   62.29
   3  -4   0 1992.10   62.69
  -3  -4   0 2064.99   61.19
  -3  -4   0 2032.40   61.49
   3  -4   0 2209.38   62.99
   3  -4   0 2204.98   62.49
  -3  -4   0 1847.92   62.09
   3  -4   0 2064.19   62.39
  -3  -4   0 2095.89   61.09
   3  -4   0 2130.29   62.79
   3  -4   0 2084.29   63.49
   3   4   0 2105.19   61.39
  -3   4   0 2090.49   62.69
  -3   4   0 2180.88   62.99
  -3   4   0 2198.58   62.99
   3   4   0 2171.48   62.19
   3   4   0 2131.99   61.39
  -3   4   0 2066.09   63.29
  -3   4   0 2140.99   61.79
  -3   4   0 2076.19   62.29
  -3   4   0 2195.18   62.39
   4  -4   0  132.59    6.70
  -4  -4   0  146.89    5.40
   4  -4   0  137.49   11.10
  -4  -4   0  133.09    7.50
  -4  -4   0  154.78    9.60
  -4  -4   0  132.69    8.50
   4  -4   0  126.29   13.00
   4  -4   0  136.09   10.10
   4  -4   0  157.98    5.90
   4  -4   0  151.98    6.10
  -4  -4   0  144.19    5.10
   4   4   0  131.49    5.70
  -4   4   0  121.29    6.50
   4   4   0  146.89    5.80
  -4   4   0  139.19    6.00
  -4   4   0  136.99   10.60
  -4   4   0  122.89   12.60
  -4   4   0  147.99    5.60
  -4   4   0  147.69    5.80
  -4   4   0  127.89    9.90
  -5  -4   0 1019.70   30.70
   5  -4   0 1040.70   34.00
  -5  -4   0  982.60   32.50
  -5  -4   0  983.80   31.60
   5  -4   0 1014.80   31.40
  -5  -4   0  997.70   32.70
   5  -4   0 1018.40   31.80
   5  -4   0  997.00   35.90
   5  -4   0 1011.20   33.30
  -5  -4   0 1039.20   30.90
   5  -4   0 1056.89   32.70
  -5  -4   0 1017.20   31.20
  -5   4   0 1058.69   31.40
  -5   4   0 1022.60   31.70
  -5   4   0 1010.10   32.60
  -5   4   0 1034.70   31.30
   5   4   0 1041.60   31.10
   5   4   0 1036.80   31.20
   5   4   0 1032.30   31.50
  -5   4   0  987.10   35.50
  -5   4   0  991.80   33.50
  -5   4   0  988.20   33.50
   6  -4   0  103.09    6.40
   6  -4   0   86.19   10.40
   6  -4   0   99.39   10.50
  -6  -4   0   87.99   12.40
  -6  -4   0   98.79    4.50
   6  -4   0   96.89   14.20
  -6  -4   0   89.09    4.50
   6  -4   0   91.49    5.10
   6  -4   0   97.09    5.20
  -6  -4   0   86.59   13.70
  -6  -4   0   95.39    5.10
  -6  -4   0  102.59   14.20
   6   4   0   88.69    5.00
  -6   4   0  104.19    4.90
  -6   4   0  111.39   14.20
  -6   4   0   98.69    5.10
  -6   4   0  105.39    5.50
  -6   4   0   97.59   10.30
   6   4   0   84.79    6.00
  -6   4   0   88.19    6.20
   6   4   0   87.89    5.00
  -6   4   0  109.39   10.80
  -7  -4   0  220.68   19.80
  -7  -4   0  217.58    7.90
  -7  -4   0  211.78   19.70
  -7  -4   0  213.88    8.60
   7  -4   0  222.38   22.20
  -7  -4   0  208.18    8.00
   7  -4   0  206.98   28.50
   7  -4   0  189.08   20.10
  -7  -4   0  208.28   18.20
   7   4   0  188.78    8.50
  -7   4   0  149.39   21.30
  -7   4   0  222.48   20.50
  -7   4   0  197.68   10.20
   7   4   0  196.48   20.10
  -7   4   0  206.58    8.60
  -7   4   0  192.78   19.50
  -8  -4   0   81.39   24.20
   8  -4   0   85.09   16.70
  -8  -4   0   86.09   15.50
   8  -4   0   90.59   22.70
  -8  -4   0   82.59    7.60
   8  -4   0   81.99   16.30
  -8  -4   0   88.29    6.80
  -8   4   0   89.69   21.40
   8   4   0   81.49   17.00
  -8   4   0   84.59   16.90
  -8   4   0  101.79   16.90
   0  -5   0   -0.40    3.40
   0  -5   0   -1.60    2.60
   0  -5   0   -1.10    0.70
   0  -5   0   -1.30    0.60
   0  -5   0   -0.80    0.90
   0  -5   0    2.50    0.80
   0   5   0   -0.90    3.60
   0   5   0   -0.70    0.60
  -1  -5   0 3177.58   92.69
   1  -5   0 3149.19   92.49
   1  -5   0 3198.48   93.09
   1  -5   0 3166.08   92.39
   1  -5   0 3303.27   92.99
   1  -5   0 3226.78   92.09
  -1  -5   0 3091.59   92.59
  -1  -5   0 3264.57   92.89
   1  -5   0 3128.29   93.09
   1  -5   0 3265.27   92.89
  -1   5   0 3298.07   92.89
  -1   5   0 3143.49   93.29
  -1   5   0 3185.48   91.99
   1   5   0 3159.08   93.09
  -1   5   0 3237.78   92.89
  -1   5   0 3276.37   92.89
  -1   5   0 2683.83   92.29
  -1   5   0 3195.58   92.19
   2  -5   0 1165.68   33.60
   2  -5   0  997.70   35.90
   2  -5   0 1110.69   35.20
  -2  -5   0 1146.09   33.70
   2  -5   0 1103.39   34.10
  -2  -5   0 1115.39   33.90
   2  -5   0 1153.18   34.30
   2  -5   0 1135.69   34.70
  -2  -5   0 1143.69   34.60
  -2   5   0 1116.39   35.00
  -2   5   0 1163.08   33.30
  -2   5   0 1092.39   33.80
  -2   5   0 1097.99   35.20
  -2   5   0 1171.38   33.30
  -2   5   0 1120.79   34.80
   3  -5   0  678.03   23.10
  -3  -5   0  718.93   21.50
   3  -5   0  712.23   21.80
  -3  -5   0  684.83   20.30
   3  -5   0  708.93   21.60
  -3  -5   0  669.53   20.40
   3  -5   0  652.13   24.40
   3  -5   0  705.63   23.50
   3  -5   0  660.03   22.70
   3  -5   0  717.73   22.00
  -3  -5   0  679.43   20.30
  -3  -5   0  701.13   22.90
  -3  -5   0  664.43   20.60
  -3   5   0  664.93   22.60
  -3   5   0  668.93   24.30
  -3   5   0  720.83   21.20
   3   5   0  703.93   20.30
  -3   5   0  712.33   21.80
  -3   5   0  693.63   23.50
   3   5   0  678.73   20.30
  -3   5   0  716.63   22.40
  -3   5   0  734.63   21.40
   4  -5   0  848.42   30.20
  -4  -5   0  847.92   25.80
   4  -5   0  845.62   27.90
  -4  -5   0  820.32   26.00
   4  -5   0  885.11   27.40
   4  -5   0  849.22   28.50
  -4  -5   0  875.51   25.50
  -4  -5   0  870.21   25.20
  -4  -5   0  847.62   27.70
  -4  -5   0  854.31   26.20
   4  -5   0  795.02   27.50
   4  -5   0  852.51   27.40
   4   5   0  703.43   27.80
   4   5   0  858.41   25.30
   4   5   0  845.02   25.30
  -4   5   0  842.32   27.60
  -4   5   0  879.11   25.90
  -4   5   0  825.92   27.10
  -4   5   0  836.72   28.50
  -4   5   0  856.91   27.30
  -4   5   0  818.02   29.60
  -4   5   0  893.81   26.10
  -5  -5   0   -0.90    1.50
   5  -5   0   -1.00    1.50
  -5  -5   0   -4.90    5.50
  -5  -5   0   -3.10    5.30
   5  -5   0   -9.00    7.90
   5  -5   0   -8.10   10.00
   5  -5   0    3.50    8.80
  -5  -5   0   -2.30    1.20
  -5  -5   0    4.60    7.00
   5  -5   0    1.90    2.20
  -5   5   0   -6.90    9.70
  -5   5   0    2.10    8.80
   5   5   0   -1.90    1.00
   5   5   0   -0.70    1.40
  -5   5   0   -1.60    1.70
  -5   5   0   -7.60    7.80
  -5   5   0    0.00    1.60
  -6  -5   0  283.27   10.10
   6  -5   0  279.87   23.30
  -6  -5   0  274.57   16.40
   6  -5   0  302.27   12.00
  -6  -5   0  300.67   17.90
  -6  -5   0  286.57   10.40
   6  -5   0  284.37   21.00
   6  -5   0  299.57   20.80
  -6  -5   0  288.47   15.60
  -6  -5   0  289.17    9.90
  -6   5   0  288.87   19.60
  -6   5   0  295.37   12.00
  -6   5   0  294.27   19.60
  -6   5   0  293.77   10.60
  -6   5   0  290.67   22.60
  -6   5   0  282.17   11.10
   6   5   0  316.37   12.20
   6   5   0  285.27   10.60
   6   5   0  298.87   10.20
  -7  -5   0   33.70   10.80
  -7  -5   0   41.40   11.10
   7  -5   0   43.90   13.50
   7  -5   0   44.20   14.20
   7  -5   0   31.10   18.50
  -7  -5   0   40.90    3.90
  -7  -5   0   44.90   11.70
  -7   5   0   49.50   13.50
  -7   5   0   39.60   12.70
  -7   5   0   30.40    3.90
   7   5   0   37.10    4.40
  -7   5   0   34.50   16.90
   7   5   0   33.70    3.20
  -8  -5   0   26.90   21.20
   8  -5   0   47.90   23.80
   8  -5   0   29.80   18.60
  -8  -5   0   35.50   16.10
   8  -5   0   20.00   16.90
  -8  -5   0   30.00   14.30
  -8  -5   0   26.50    4.10
  -8   5   0   39.10   17.60
  -8   5   0   28.70   22.40
  -8   5   0   36.80   17.40
   8   5   0   -4.40   19.10
   0  -6   0 3905.71  111.59
   0  -6   0 3635.84  111.89
   0  -6   0 3773.02  112.09
   0  -6   0 3551.94  114.19
   0  -6   0 3935.61  111.99
   0  -6   0 3945.81  112.69
   0  -6   0 3640.64  112.09
   0   6   0 3887.31  112.99
   0   6   0 4114.89  112.49
   0   6   0 4120.09  112.39
   1  -6   0   89.09    8.10
  -1  -6   0  101.99    7.80
   1  -6   0   99.09    4.00
   1  -6   0   87.79    6.80
   1  -6   0   99.29    4.00
   1  -6   0   95.49    4.40
  -1  -6   0   98.69    4.50
   1  -6   0  106.59    4.60
  -1  -6   0  109.19    7.30
   1  -6   0   96.39    8.60
   1   6   0   96.69    9.10
  -1   6   0   97.69    4.30
  -1   6   0   94.89    4.90
  -1   6   0   90.39    3.20
  -1   6   0   99.89    3.60
  -1   6   0   95.49    9.50
  -2  -6   0 1393.16   41.50
   2  -6   0 1433.86   41.90
   2  -6   0 1344.07   42.60
   2  -6   0 1363.76   42.90
  -2  -6   0 1349.36   42.00
   2  -6   0 1372.06   42.00
  -2  -6   0 1367.06   41.70
  -2  -6   0 1373.56   42.60
   2  -6   0 1342.87   41.80
  -2   6   0 1414.56   40.90
  -2   6   0 1364.06   42.80
  -2   6   0 1375.66   41.40
  -2   6   0 1433.66   42.00
  -2   6   0 1361.86   42.80
  -2   6   0 1409.56   40.80
  -2   6   0 1437.16   41.80
   3  -6   0  725.83   26.60
  -3  -6   0  753.92   24.30
  -3  -6   0  749.33   25.20
   3  -6   0  760.72   23.30
   3  -6   0  776.42   23.80
   3  -6   0  785.12   24.30
  -3  -6   0  653.83   24.70
   3  -6   0  739.93   25.70
   3  -6   0  780.22   24.30
   3  -6   0  730.83   25.00
  -3   6   0  737.83   24.50
  -3   6   0  754.52   26.70
  -3   6   0  742.53   23.90
  -3   6   0  743.53   24.10
  -3   6   0  740.73   25.90
  -3   6   0  767.32   22.80
  -3   6   0  787.32   23.80
  -4  -6   0   35.80    3.80
  -4  -6   0   35.40    2.00
  -4  -6   0   35.10    4.30
   4  -6   0   37.30    9.80
   4  -6   0   34.00    3.30
   4  -6   0   31.40    7.50
  -4  -6   0   50.19    7.40
  -4  -6   0   28.10    4.80
   4  -6   0   48.90    3.60
  -4  -6   0   45.10    3.10
   4  -6   0   42.20    8.00
  -4   6   0   34.50    3.00
  -4   6   0   29.60    3.80
  -4   6   0   39.00    3.40
  -4   6   0   43.30    8.10
  -4   6   0   46.00    7.30
  -4   6   0   44.80   10.10
  -4   6   0   46.80    2.80
   5  -6   0  460.55   17.50
   5  -6   0  454.15   15.40
  -5  -6   0  450.95   15.00
   5  -6   0  441.76   20.80
  -5  -6   0  439.26   19.60
  -5  -6   0  448.96   14.40
   5  -6   0  456.85   24.60
  -5  -6   0  432.56   16.50
  -5  -6   0  431.86   14.10
   5  -6   0  451.35   22.10
  -5  -6   0  423.56   16.30
  -5   6   0  459.05   21.90
   5   6   0  458.75   14.00
   5   6   0  448.86   14.00
  -5   6   0  454.55   24.40
  -5   6   0  455.75   14.80
  -5   6   0  492.65   15.50
  -5   6   0  450.85   20.60
  -6  -6   0   70.09   10.90
  -6  -6   0   70.69    8.60
  -6  -6   0   69.59    3.80
  -6  -6   0   70.89    3.90
   6  -6   0   63.99   12.00
  -6  -6   0   66.59    4.40
   6  -6   0   63.79   16.00
   6  -6   0   61.89   11.90
  -6  -6   0   70.49    8.40
  -6   6   0   69.89    4.00
   6   6   0   59.79    3.30
  -6   6   0   85.39   13.70
  -6   6   0   52.29   14.50
   6   6   0   72.49    4.30
  -6   6   0   62.89   12.60
   6   6   0   60.89    3.50
   7  -6   0  128.59   21.50
  -7  -6   0  122.69    6.20
  -7  -6   0  147.29    6.00
   7  -6   0  151.28   17.70
  -7  -6   0  126.29   17.90
   7  -6   0  118.09   16.20
  -7  -6   0  151.58   22.10
  -7  -6   0  135.09   19.10
   7   6   0  130.79    6.30
  -7   6   0  121.09   16.20
  -7   6   0  112.49   19.70
  -7   6   0  133.29   16.00
   0  -7   0   -2.60    5.10
   0  -7   0   -1.10    3.80
   0  -7   0    0.00    1.40
   0  -7   0    0.60    4.10
   0  -7   0   -6.00    3.50
   0   7   0   -1.80    1.00
   0   7   0    0.10    6.40
  -1  -7   0 1251.27   35.40
  -1  -7   0 1189.88   37.00
  -1  -7   0 1235.08   36.60
   1  -7   0 1217.88   35.70
   1  -7   0 1160.48   37.20
   1  -7   0 1232.28   36.60
   1  -7   0 1175.88   37.60
   1  -7   0 1176.08   36.40
  -1  -7   0 1229.08   35.00
   1  -7   0 1228.98   36.30
  -1  -7   0 1152.28   36.50
  -1   7   0 1193.68   36.20
  -1   7   0 1206.68   36.20
  -1   7   0 1206.58   36.40
   1   7   0 1160.48   37.70
  -1   7   0 1215.78   35.30
  -1   7   0 1149.19   37.90
   2  -7   0  681.13   24.70
   2  -7   0  739.43   22.50
  -2  -7   0  706.73   22.00
  -2  -7   0  692.43   24.80
   2  -7   0  714.83   21.70
   2  -7   0  693.73   24.50
   2  -7   0  688.53   23.20
   2  -7   0  717.43   22.40
  -2  -7   0  670.53   23.40
  -2  -7   0  717.83   23.30
  -2   7   0  689.03   24.90
  -2   7   0  684.23   22.20
  -2   7   0  692.43   24.60
  -2   7   0  684.23   21.30
  -2   7   0  714.83   22.30
  -2   7   0  705.63   21.10
  -2   7   0  681.83   22.30
  -3  -7   0  334.57   16.50
   3  -7   0  331.57   11.30
   3  -7   0  325.87   12.80
   3  -7   0  305.97   17.60
   3  -7   0  317.37   17.00
  -3  -7   0  330.57   14.20
   3  -7   0  331.57   12.20
  -3  -7   0  318.17   11.10
   3  -7   0  305.67   15.50
   3  -7   0  327.47   12.00
  -3  -7   0  324.47   15.80
  -3   7   0  333.97   11.70
  -3   7   0  339.77   10.60
  -3   7   0  332.37   17.20
  -3   7   0  333.47   12.50
  -3   7   0  319.47   14.40
  -3   7   0  300.77   17.40
  -3   7   0  317.57   11.00
  -4  -7   0  998.40   33.40
   4  -7   0 1010.30   30.90
  -4  -7   0 1007.50   30.70
  -4  -7   0  998.40   32.20
   4  -7   0  987.30   36.10
  -4  -7   0  837.22   29.70
   4  -7   0 1022.60   34.90
   4  -7   0 1023.60   31.60
   4  -7   0 1016.70   32.00
   4  -7   0 1003.80   33.80
  -4  -7   0  979.40   29.20
  -4   7   0 1028.90   30.30
  -4   7   0  998.80   34.60
  -4   7   0  989.50   32.80
  -4   7   0 1023.70   30.40
  -4   7   0  977.90   35.80
  -4   7   0 1019.10   31.30
  -5  -7   0   31.20    2.40
  -5  -7   0   33.30    4.10
  -5  -7   0   44.70    9.70
  -5  -7   0   29.50    6.20
   5  -7   0   29.80   10.90
   5  -7   0   39.10    3.90
  -5   7   0   33.50   13.00
  -5   7   0   40.40    3.00
  -5   7   0   40.90   10.00
  -5   7   0   25.40   12.50
  -5   7   0   32.10    3.20
   6  -7   0  205.88   28.40
   6  -7   0  212.98    9.40
   6  -7   0  211.78   25.30
  -6  -7   0  174.98   15.10
  -6  -7   0  191.78   20.40
  -6  -7   0  196.28    6.80
  -6  -7   0  180.08    7.80
  -6  -7   0  178.68    7.30
   6  -7   0  181.98   23.40
  -6  -7   0  175.48   12.60
  -6  -7   0  180.58   12.50
  -6   7   0  187.28    8.50
  -6   7   0  188.98   24.50
  -6   7   0  187.08   26.80
  -6   7   0  170.48   22.80
  -7  -7   0   39.10    5.40
   7  -7   0   20.30   17.40
   7  -7   0   32.80   23.00
   7  -7   0   20.40   17.10
  -7  -7   0   31.00   11.90
  -7  -7   0   30.70   14.60
  -7  -7   0   23.20    2.90
  -7  -7   0   28.80    9.80
   7   7   0   24.80    2.70
  -7   7   0   31.30   16.60
  -7   7   0   18.60    3.30
  -7   7   0   28.40   21.00
  -7   7   0   32.60   18.60
   0  -8   0 1556.34   45.80
   0  -8   0 1470.45   45.40
   0  -8   0 1532.35   44.40
   0  -8   0 1488.05   44.90
   0  -8   0 1518.95   46.60
   0  -8   0 1446.96   44.90
   0   8   0 1531.85   44.60
   0   8   0 1507.15   44.50
   0   8   0 1537.75   45.40
   0   8   0 1473.25   47.30
   1  -8   0   81.39    4.20
  -1  -8   0   75.49    2.90
  -1  -8   0   74.49    9.50
  -1  -8   0   87.09   10.80
   1  -8   0   76.39    6.70
  -1  -8   0   74.69    4.30
   1  -8   0   90.59    8.60
   1  -8   0   66.39   10.80
   1  -8   0   84.19    4.50
   1  -8   0   71.59    7.60
  -1   8   0   64.99    3.80
  -1   8   0   76.99    4.20
  -1   8   0   74.59    3.90
  -1   8   0   60.79    9.00
   1   8   0   98.49    9.60
  -2  -8   0  728.43   23.00
  -2  -8   0  740.83   27.00
  -2  -8   0  721.33   24.90
   2  -8   0  718.63   26.50
   2  -8   0  748.23   23.30
   2  -8   0  709.83   26.40
   2  -8   0  721.53   23.40
   2  -8   0  723.23   25.00
   2  -8   0  673.53   23.20
  -2  -8   0  733.63   24.90
  -2   8   0  710.73   26.20
  -2   8   0  725.83   21.40
  -2   8   0  716.93   22.80
  -2   8   0  738.33   24.00
  -2   8   0  714.83   23.10
  -2   8   0  726.03   27.10
  -2   8   0  736.13   21.70
   3  -8   0  449.36   21.90
  -3  -8   0  439.36   14.80
  -3  -8   0  430.86   19.40
  -3  -8   0  437.16   18.30
   3  -8   0  476.75   15.70
   3  -8   0  424.46   15.20
  -3  -8   0  470.15   21.20
   3  -8   0  438.26   19.50
   3  -8   0  450.15   21.30
   3  -8   0  435.96   16.00
  -3   8   0  439.86   15.40
  -3   8   0  429.06   13.90
  -3   8   0  425.46   21.80
  -3   8   0  431.96   21.50
  -3   8   0  427.36   14.20
  -3   8   0  425.46   17.50
  -4  -8   0  111.69   16.40
   4  -8   0  109.99    5.60
   4  -8   0   96.09   11.20
   4  -8   0  119.49   13.10
  -4  -8   0  103.69    4.30
   4  -8   0  116.59   19.60
  -4  -8   0  113.49    5.30
  -4  -8   0  102.99   11.20
  -4  -8   0  106.89   13.40
   4  -8   0  100.89    5.90
   4  -8   0  127.39    6.40
  -4   8   0  107.69   13.70
  -4   8   0  109.99    4.50
  -4   8   0   66.29   13.70
  -4   8   0  103.49    4.60
  -4   8   0  106.19   14.80
   5  -8   0  306.47   11.90
   5  -8   0  280.47   25.20
   5  -8   0  299.37   26.50
  -5  -8   0  274.07   17.50
  -5  -8   0  283.97   22.40
  -5  -8   0  276.77    9.00
   5  -8   0  286.57   22.60
  -5  -8   0  270.47   20.70
  -5  -8   0  279.77   11.10
  -5  -8   0  268.27   13.50
  -5   8   0  258.77   20.40
  -5   8   0  282.87   10.00
  -5   8   0  291.87    9.90
  -5   8   0  283.77   26.60
  -5   8   0  286.77   23.60
   6  -8   0   73.59   21.00
  -6  -8   0   63.99    3.50
  -6  -8   0   56.39   13.70
  -6  -8   0   58.59    9.60
  -6  -8   0   54.89    4.40
   6  -8   0   61.69    7.30
   6  -8   0   45.00   16.00
   6  -8   0   55.49   16.00
  -6  -8   0   52.69   11.30
  -6  -8   0   54.29   15.90
  -6  -8   0   53.39    5.10
  -6   8   0   57.79    5.80
  -6   8   0   46.50   13.70
  -6   8   0   56.69   16.10
  -6   8   0   61.49   20.20
   0  -9   0   -1.00    5.60
   0  -9   0    1.30    4.70
   0  -9   0   -5.80    5.60
   0  -9   0    1.30    1.10
   0  -9   0   -0.70    1.80
   0  -9   0   -0.60    7.60
   0   9   0    0.60    9.20
   1  -9   0  212.38    7.90
   1  -9   0  248.08   16.80
  -1  -9   0  212.28    8.90
  -1  -9   0  215.78    7.20
  -1  -9   0  219.98   10.20
   1  -9   0  220.98   13.40
   1  -9   0  224.48   14.40
   1  -9   0  219.58    8.30
   1  -9   0  241.88    9.00
  -1  -9   0  225.18   12.70
  -1  -9   0  225.38   15.30
   1   9   0  218.18   17.40
  -1   9   0  224.18    8.00
  -1   9   0  217.08   18.00
  -1   9   0  209.98    8.40
   2  -9   0  100.69    4.70
  -2  -9   0   79.89   11.20
  -2  -9   0  103.19   13.30
   2  -9   0   85.49   15.10
   2  -9   0  102.59    5.30
  -2  -9   0   97.19    9.40
  -2  -9   0   97.89    5.00
   2  -9   0   90.69   13.10
   2  -9   0  109.19    5.60
   2  -9   0   86.29   10.30
  -2   9   0   73.99    6.70
  -2   9   0   80.29   10.90
  -2   9   0   85.69   15.20
  -2   9   0   88.59    4.90
   3  -9   0  138.89   16.20
  -3  -9   0  152.48   19.10
   3  -9   0  150.18   18.40
  -3  -9   0  137.89   16.70
   3  -9   0  139.09    7.00
   3  -9   0  135.89    6.60
   3  -9   0  142.79   19.10
  -3  -9   0  147.89   14.90
   3  -9   0  137.09    6.10
  -3  -9   0  126.79    6.10
  -3   9   0  144.99   19.70
  -3   9   0  123.39    4.80
  -3   9   0  137.79    4.80
  -3   9   0  128.69   19.20
  -3   9   0  125.79   12.70
  -4  -9   0  278.47   21.70
  -4  -9   0  246.48    9.90
  -4  -9   0  273.57   17.60
   4  -9   0  299.17   24.50
   4  -9   0  285.27   11.30
   4  -9   0  265.87   22.90
   4  -9   0  269.97   25.00
  -4  -9   0  261.17   21.10
  -4   9   0  276.37   23.90
  -4   9   0  262.87   24.90
  -4   9   0  265.07    9.10
  -4   9   0  261.87    9.10
  -4   9   0  263.47   18.10
   5  -9   0   -1.40    4.60
  -5  -9   0    0.20   13.10
   5  -9   0    2.70   18.10
   5  -9   0   -1.30   14.30
  -5  -9   0    2.70    9.70
  -5  -9   0   -5.70    6.80
  -5  -9   0    4.30   13.90
   5  -9   0   -3.60   15.20
  -5  -9   0    1.60    1.20
  -5   9   0    5.50   11.70
  -5   9   0   -0.40    2.10
  -5   9   0   -1.80   16.90
  -5   9   0    8.60   15.90
  -6  -9   0   84.99   15.80
  -6  -9   0   86.89   18.70
  -6  -9   0  111.89    8.80
   6  -9   0  118.09   20.80
  -6   9   0   87.59   19.00
   0 -10   0  628.64   25.90
   0 -10   0  604.54   22.00
   0 -10   0  622.64   22.10
   0 -10   0  606.94   20.30
   0 -10   0  600.04   20.60
   0 -10   0  607.84   19.40
   0 -10   0  635.94   20.60
   0  10   0  651.93   18.70
   0  10   0  582.14   32.10
   0  10   0  612.84   18.90
   1 -10   0    6.70    1.90
   1 -10   0    9.90    2.50
  -1 -10   0   14.40    1.90
   1 -10   0    8.90    8.80
   1 -10   0    8.10   10.20
  -1 -10   0    8.50    8.20
   1 -10   0    4.10    1.80
  -1 -10   0    9.50    6.10
  -1 -10   0   14.60    2.40
  -1 -10   0   13.70    9.30
   1 -10   0    6.90    8.20
   1  10   0   13.90   12.10
  -1  10   0    9.10   11.40
  -1  10   0    9.00    1.90
  -1  10   0   13.50    2.00
   2 -10   0  188.98   21.70
  -2 -10   0  168.58    7.80
   2 -10   0  173.88    7.70
  -2 -10   0  185.38   22.30
   2 -10   0  183.78    7.40
   2 -10   0  162.48   18.80
   2 -10   0  181.18   17.10
  -2 -10   0  193.38   17.20
  -2 -10   0  180.18    5.70
  -2 -10   0  169.18   16.40
  -2  10   0  161.48   22.50
  -2  10   0  158.38   21.10
  -3 -10   0   92.79    5.60
  -3 -10   0   98.19   12.50
   3 -10   0  115.89   15.30
   3 -10   0  104.99   12.60
  -3 -10   0   90.29   10.70
   3 -10   0  100.49   14.30
   3 -10   0  108.09    6.40
   3 -10   0  105.29    5.40
  -3 -10   0  112.59   15.00
  -3  10   0   89.29   13.80
  -3  10   0   79.09   14.60
   4 -10   0   23.50   13.70
  -4 -10   0   14.30    3.00
  -4 -10   0   17.50   14.70
  -4 -10   0   18.50   13.90
   4 -10   0   27.30   16.10
   4 -10   0   16.00   16.60
   4 -10   0   24.80    3.90
  -4 -10   0   22.90   11.00
  -4  10   0   20.00   10.80
  -4  10   0   23.20   17.40
  -4  10   0    9.50   15.30
  -5 -10   0  105.79   13.00
   5 -10   0  117.29   21.90
   5 -10   0  119.79   18.00
  -5 -10   0  121.49    7.80
   5 -10   0   93.99   19.60
  -5 -10   0  122.49   16.80
  -5  10   0   99.49   21.30
  -5  10   0   93.49   18.40
  -5  10   0  108.09   14.90
   0 -11   0    1.30    7.50
   0 -11   0   -1.60    8.80
   0 -11   0   -0.30    6.30
   0 -11   0   -3.70    1.70
   0 -11   0    0.40    7.70
   0 -11   0   -1.40   11.80
   0  11   0   -2.10   14.00
   1 -11   0  141.19    6.20
  -1 -11   0  133.39    5.20
  -1 -11   0  134.69   13.40
  -1 -11   0  125.39   13.70
   1 -11   0  149.29    5.90
   1 -11   0  127.79   18.40
  -1 -11   0  147.49   20.20
   1 -11   0  144.59   17.40
   1 -11   0  146.39   17.90
  -1  11   0  123.99    5.80
  -1  11   0  140.29   16.20
   2 -11   0   36.00   14.20
   2 -11   0   36.40   12.90
  -2 -11   0   28.50   16.30
   2 -11   0   36.90   12.10
   2 -11   0   45.40    4.30
  -2 -11   0   50.09    2.60
  -2 -11   0   41.60    7.00
  -2 -11   0   49.10   11.10
  -2 -11   0   47.80   12.00
  -2  11   0   45.50   16.90
  -3 -11   0   41.60   13.70
  -3 -11   0   45.90   12.20
  -3 -11   0   44.10   16.90
   3 -11   0   37.10   15.80
   3 -11   0   39.40   18.30
   3 -11   0   46.50   17.10
  -3  11   0   30.90   15.70
  -3  11   0   36.40   18.60
   0 -12   0  127.59   12.70
   0 -12   0  127.89   16.60
   0  12   0  140.89   20.80
  -1 -12   0   10.70    9.20
  -1 -12   0   11.80   10.20
   1 -12   0    8.50   12.80
  -1 -12   0   11.10   18.60
   1 -12   0   12.50   15.60
   1 -12   0   14.70    3.00
  -1  12   0   17.60   19.60
  -8   0   1  242.48   22.60
   8   0  -1  220.98   28.60
  -8   0   1  242.08   13.10
  -8   0   1  212.58   26.40
  -8   0   1  216.88    9.00
  -8   0   1  224.58   24.70
   8   0  -1  235.08    9.10
   8   0  -1  233.38   20.30
   7   0  -1   14.50    2.00
  -7   0   1    3.70   11.00
  -7   0   1   14.60   10.00
   7   0  -1   12.80    2.20
  -7   0   1    5.90    9.70
  -7   0   1   12.00    2.10
  -7   0   1   12.40    2.70
   7   0  -1    9.00    8.30
   7   0  -1   10.30   12.90
   6   0  -1 1895.11   57.29
   6   0  -1 1805.02   57.19
  -6   0   1 1944.31   56.49
  -6   0   1 1785.82   58.69
  -6   0   1 1926.81   56.09
  -6   0   1 1854.01   57.99
   6   0  -1 1870.21   56.89
   6   0  -1 1962.90   56.09
  -6   0   1 1941.51   57.49
  -6   0   1 1885.61   57.59
   6   0  -1 1836.62   59.19
   6   0  -1 1853.11   56.59
  -5   0   1  264.77   13.50
  -5   0   1  275.87   14.60
  -5   0   1  270.37   13.20
   5   0  -1  277.47   12.30
   5   0  -1  294.07    9.70
   5   0  -1  298.97   10.20
  -5   0   1  282.17    9.90
   5   0  -1  294.37   11.20
  -5   0   1  298.87   10.80
   5   0  -1  272.67   12.80
   4   0  -1  196.88    6.80
   4   0  -1  186.58    8.90
  -4   0   1  176.68   10.40
   4   0  -1  188.08   10.60
  -4   0   1  185.78    9.10
  -4   0   1  189.68    7.60
   4   0  -1  185.18    8.70
  -4   0   1  190.98    6.80
   4   0  -1  202.58    7.10
  -4   0   1  192.48    9.90
  -4   0   1  191.38    6.70
  -3   0   1 4012.20  114.69
   3   0  -1 3850.31  114.69
   3   0  -1 4112.89  114.99
   3   0  -1 4041.60  114.69
  -3   0   1 3729.93  114.99
   3   0  -1 3926.91  115.39
   3   0  -1 3781.92  114.69
  -3   0   1 3917.91  115.39
  -3   0   1 3868.41  114.79
  -3   0   1 3963.30  114.69
   3   0  -1 4045.20  115.29
  -3   0   1 4116.89  115.39
   2   0  -1  150.78    4.80
  -2   0   1  148.69    5.40
   2   0  -1  147.49    5.30
  -2   0   1  154.28    6.00
   2   0  -1  136.79    5.60
  -2   0   1  139.29    4.90
   2   0  -1  143.99    5.30
  -2   0   1  143.29    6.30
  -2   0   1  134.99    5.70
  -2   0   1  155.78    4.90
   2   0  -1  148.99    4.90
   2   0  -1  148.39    5.10
   1   0  -1 2116.49   68.39
  -1   0   1 2363.46   68.59
   1   0  -1 2446.66   68.79
  -1   0   1 2430.56   68.89
  -1   0   1 2389.06   68.59
   1   0  -1 2445.26   68.79
  -1   0   1 2525.15   68.89
  -1   0   1 2198.98   68.49
   1   0  -1 2380.66   68.69
   1   0  -1 2361.86   68.59
  -1   0  -1 4095.19  123.59
   1   0   1 4624.74  123.69
  -1   0  -1 3739.03  123.19
   1   0   1 4889.61  123.79
  -1   0  -1 4411.76  123.39
   1   0   1 4284.77  123.29
   1   0   1 3832.52  123.39
  -2   0  -1 8569.34  267.87
   2   0   1 9102.89  268.27
   2   0   1 8257.77  267.77
  -2   0  -1 9903.31  268.07
   2   0   1 9947.21  267.97
  -2   0  -1 9999.00  268.47
   2   0   1 9131.39  267.87
  -3   0  -1  189.78    9.00
  -3   0  -1  176.78    7.90
  -3   0  -1  191.18    6.50
   3   0   1  193.28    6.50
   3   0   1  195.68    7.00
  -3   0  -1  188.68    6.60
   3   0   1  197.68    6.40
   3   0   1  179.98    8.80
   3   0   1  188.08    7.80
  -3   0  -1  183.88    7.80
  -4   0  -1 2027.60   61.89
  -4   0  -1 2047.50   61.89
   4   0   1 2093.49   62.49
  -4   0  -1 2059.29   62.79
  -4   0  -1 2149.58   62.49
   4   0   1 2081.79   61.79
  -4   0  -1 2116.79   61.59
  -4   0  -1 2128.39   61.69
   4   0   1 2152.88   61.69
   4   0   1 2033.90   62.79
   4   0   1 2093.59   61.39
  -5   0  -1  560.04   18.40
   5   0   1  533.95   19.10
   5   0   1  552.84   17.20
  -5   0  -1  536.75   19.30
   5   0   1  531.85   21.30
  -5   0  -1  525.75   21.10
  -5   0  -1  531.65   19.60
  -5   0  -1  565.74   17.60
   5   0   1  555.24   17.60
   5   0   1  544.45   18.30
  -5   0  -1  555.34   17.40
   6   0   1  196.38   13.60
  -6   0  -1  192.68   16.40
   6   0   1  187.58    8.60
   6   0   1  205.98    7.90
  -6   0  -1  201.58    8.80
   6   0   1  211.98    8.30
  -6   0  -1  197.18    8.90
   6   0   1  200.78   17.30
  -6   0  -1  208.28   14.80
  -6   0  -1  204.38   10.50
  -6   0  -1  196.08   14.30
   7   0   1  415.16   13.70
  -7   0  -1  408.46   14.30
  -7   0  -1  421.76   15.50
   7   0   1  401.86   20.00
  -7   0  -1  416.76   14.40
   7   0   1  396.46   14.30
   7   0   1  414.46   25.20
  -7   0  -1  422.06   21.80
  -7   0  -1  396.76   19.60
  -7   0  -1  423.76   21.90
  -7   0  -1  419.46   26.10
   8   0   1   13.80   17.20
  -8   0  -1   14.30   12.00
   8   0   1    4.50    2.60
   8   0   1   13.00   11.60
  -8   0  -1    9.50    4.00
  -8   0  -1    3.90   13.60
  -8   0  -1   11.90   16.70
   8  -1  -1    0.60   18.30
  -8  -1   1   16.00   13.60
  -8  -1   1    9.40    3.90
   8  -1  -1    4.70   18.60
  -8  -1   1    9.90   13.30
  -8  -1   1    9.80   14.40
  -8   1   1   -4.50   15.60
  -8   1   1    2.40    2.40
  -8   1   1    8.50   14.00
  -8   1   1    0.80   12.80
   8   1  -1    8.20   10.10
  -8   1   1   19.30   13.90
   8   1  -1    6.90   16.80
  -7  -1   1  522.35   22.60
  -7  -1   1  494.95   24.70
   7  -1  -1  441.26   17.30
  -7  -1   1  523.65   17.10
  -7  -1   1  515.65   16.80
   7  -1  -1  503.45   27.20
  -7  -1   1  533.45   18.20
  -7  -1   1  500.45   23.80
   7  -1  -1  516.45   22.20
   7  -1  -1  503.65   23.10
  -7   1   1  521.45   17.20
  -7   1   1  504.15   24.80
  -7   1   1  486.45   25.40
  -7   1   1  546.75   18.70
   7   1  -1  536.35   16.40
   7   1  -1  525.85   17.40
  -7   1   1  527.35   24.30
   7   1  -1  501.65   20.80
  -7   1   1  502.35   17.00
   7   1  -1  503.75   26.00
  -6  -1   1  359.36   17.00
   6  -1  -1  342.87   16.90
  -6  -1   1  370.16   17.70
  -6  -1   1  377.56   12.60
  -6  -1   1  378.76   13.40
   6  -1  -1  365.16   12.70
  -6  -1   1  343.17   18.20
   6  -1  -1  347.47   20.60
   6  -1  -1  368.26   13.60
  -6  -1   1  365.06   12.20
   6  -1  -1  358.36   12.30
   6  -1  -1  358.46   16.90
   6   1  -1  373.06   12.00
   6   1  -1  351.26   15.10
  -6   1   1  367.86   13.60
   6   1  -1  360.06   13.20
   6   1  -1  349.96   19.50
   6   1  -1  380.86   12.90
  -6   1   1  345.47   19.30
  -6   1   1  353.46   18.30
  -6   1   1  358.76   13.00
  -6   1   1  370.26   12.50
  -6   1   1  362.76   17.20
  -5  -1   1  484.75   18.50
   5  -1  -1  472.35   17.80
  -5  -1   1  505.55   15.70
   5  -1  -1  483.45   17.90
  -5  -1   1  480.15   17.60
   5  -1  -1  494.65   15.90
  -5  -1   1  460.05   19.10
   5  -1  -1  500.35   16.30
  -5  -1   1  497.45   16.70
   5  -1  -1  480.35   20.40
   5  -1  -1  463.25   17.80
  -5  -1   1  501.95   15.80
  -5   1   1  478.85   19.60
  -5   1   1  483.55   18.30
   5   1  -1  486.55   17.00
  -5   1   1  505.95   19.10
  -5   1   1  514.65   16.00
  -5   1   1  502.65   16.00
   5   1  -1  526.15   16.30
   5   1  -1  529.45   17.80
   5   1  -1  521.15   15.60
   4  -1  -1 2019.50   59.49
   4  -1  -1 2081.89   59.19
  -4  -1   1 1990.60   59.29
  -4  -1   1 2077.19   59.79
   4  -1  -1 1974.10   60.59
  -4  -1   1 1977.90   60.09
  -4  -1   1 2070.39   58.89
  -4  -1   1 1999.00   59.69
   4  -1  -1 1690.53   61.99
   4  -1  -1 1982.00   59.49
  -4  -1   1 2093.19   58.99
   4  -1  -1 1788.72   61.29
   4   1  -1 1959.10   58.99
   4   1  -1 2036.90   58.79
  -4   1   1 1982.70   59.59
   4   1  -1 2175.88   60.29
  -4   1   1 2022.30   59.89
  -4   1   1 2001.20   60.59
  -4   1   1 2101.59   60.19
  -4   1   1 2088.29   59.19
   4   1  -1 2007.90   60.09
  -3  -1   1  394.26   13.00
  -3  -1   1  383.26   12.40
  -3  -1   1  400.36   12.30
   3  -1  -1  361.56   14.30
  -3  -1   1  376.16   13.10
  -3  -1   1  378.86   13.90
   3  -1  -1  406.26   12.70
  -3  -1   1  402.26   13.60
   3  -1  -1  409.16   12.80
   3  -1  -1  387.96   13.30
   3  -1  -1  406.86   13.60
   3  -1  -1  374.06   13.40
  -3   1   1  409.26   13.80
  -3   1   1  383.46   14.40
  -3   1   1  431.76   12.70
   3   1  -1  441.16   13.10
  -3   1   1  414.36   13.40
  -3   1   1  390.46   13.50
   3   1  -1  431.66   12.40
  -3   1   1  417.56   12.70
   3   1  -1  420.66   13.00
   3   1  -1  377.96   13.10
   3   1  -1  399.96   12.90
   3   1  -1  428.46   13.10
   2  -1  -1 6261.47  175.58
  -2  -1   1 5406.46  175.18
  -2  -1   1 5879.31  175.58
   2  -1  -1 5953.40  175.48
   2  -1  -1 6239.88  175.98
  -2  -1   1 5397.76  175.58
   2  -1  -1 6611.64  175.48
   2  -1  -1 6524.05  175.98
   2  -1  -1 6130.59  175.48
  -2  -1   1 6631.04  175.68
  -2   1   1 6258.27  175.48
   2   1  -1 5255.57  175.18
  -2   1   1 6178.48  175.58
  -2   1   1 5880.11  175.48
  -2   1   1 6201.08  175.98
  -2   1   1 6214.18  175.98
  -2   1   1 6172.68  175.48
   2   1  -1 5972.90  175.58
  -2   1   1 5805.42  175.58
   2   1  -1 6281.87  175.68
  -1  -1   1   51.59    2.00
   1  -1  -1   58.99    2.30
  -1  -1   1   49.90    2.30
   1  -1  -1   50.29    2.30
  -1  -1   1   56.89    2.10
   1  -1  -1   50.49    2.20
  -1  -1   1   51.29    2.30
   1   1  -1   68.09    2.40
  -1   1   1   67.29    2.70
  -1   1   1   68.49    2.60
  -1   1   1   68.29    2.30
   1  -1   1 3182.48   85.89
  -1  -1  -1 2763.52   85.39
   1  -1   1 3160.98   85.79
  -1  -1  -1 2698.33   85.29
   1  -1   1 2979.20   85.39
  -1  -1  -1 2552.84   85.09
  -1  -1  -1 2744.33   85.19
  -1  -1  -1 3092.99   85.39
   1  -1   1 3106.39   85.39
   1   1   1 3030.00   85.39
   1   1   1 2550.94   85.09
  -1   1  -1 3172.88   85.49
  -1   1  -1 3173.38   85.39
   1   1   1 2554.14   85.09
  -1   1  -1 3346.07   85.79
   1   1   1 2893.21   85.39
   1   1   1 2717.63   85.09
  -1   1  -1 3311.67   85.79
   2  -1   1  126.69    6.70
  -2  -1  -1  116.99    4.70
   2  -1   1  130.09    5.10
   2  -1   1  132.69    4.80
  -2  -1  -1  133.39    4.90
  -2  -1  -1  126.99    5.90
  -2  -1  -1  142.09    4.50
   2  -1   1  123.99    5.60
  -2  -1  -1  145.49    4.50
  -2   1  -1  134.89    4.70
  -2   1  -1  137.89    5.50
  -2   1  -1  133.29    5.50
  -2   1  -1  122.69    5.80
   2   1   1  145.79    4.50
   2   1   1  135.19    4.40
  -2   1  -1  138.19    4.90
   2   1   1  134.89    4.80
  -2   1  -1  128.89    6.70
   2   1   1  138.69    4.80
   2   1   1  137.19    4.90
  -3  -1  -1 2876.61   86.39
  -3  -1  -1 2894.91   85.89
   3  -1   1 2828.82   86.19
   3  -1   1 3033.20   85.89
  -3  -1  -1 2952.60   86.29
  -3  -1  -1 3151.78   86.49
   3  -1   1 2984.30   86.99
   3  -1   1 3033.60   86.09
  -3  -1  -1 2947.91   85.79
   3  -1   1 2914.91   86.79
   3  -1   1 2796.32   85.99
  -3  -1  -1 2857.51   85.79
  -3   1  -1 2845.02   86.09
  -3   1  -1 3045.70   85.99
  -3   1  -1 2882.61   86.19
  -3   1  -1 2994.40   86.09
   3   1   1 3045.30   85.89
  -3   1  -1 2849.51   85.89
   3   1   1 2842.62   85.69
   3   1   1 2986.50   86.29
   3   1   1 2988.80   86.19
  -3   1  -1 2946.31   86.79
   3   1   1 3019.00   85.59
  -4  -1  -1  859.61   27.80
   4  -1   1  935.41   27.60
   4  -1   1  909.01   27.30
  -4  -1  -1  895.31   27.90
  -4  -1  -1  935.91   27.10
   4  -1   1  865.01   27.90
   4  -1   1  909.51   28.20
   4  -1   1  858.71   29.30
  -4  -1  -1  872.51   27.80
  -4  -1  -1  932.31   27.40
  -4  -1  -1  857.81   28.70
   4  -1   1  859.11   28.30
  -4   1  -1  888.01   29.30
  -4   1  -1  903.91   27.80
   4   1   1  880.81   28.20
  -4   1  -1  886.21   28.10
  -4   1  -1  917.71   28.30
   4   1   1  946.41   26.90
   4   1   1  878.01   27.40
   4   1   1  946.81   27.30
   4   1   1  895.51   28.80
  -4   1  -1  901.31   28.30
  -4   1  -1  908.11   27.40
   5  -1   1 1404.76   43.50
  -5  -1  -1 1461.75   42.90
  -5  -1  -1 1388.06   44.70
  -5  -1  -1 1415.76   43.40
   5  -1   1 1387.06   44.10
  -5  -1  -1 1459.05   42.70
   5  -1   1 1408.86   45.50
   5  -1   1 1458.05   43.90
  -5  -1  -1 1396.16   43.60
   5  -1   1 1478.55   43.10
   5  -1   1 1472.35   42.70
  -5  -1  -1 1422.76   43.60
  -5   1  -1 1395.56   43.80
   5   1   1 1443.36   42.90
  -5   1  -1 1459.05   42.90
   5   1   1 1465.35   42.30
  -5   1  -1 1433.96   43.00
   5   1   1 1424.66   43.50
  -5   1  -1 1406.36   44.10
   5   1   1 1412.66   44.80
  -5   1  -1 1414.16   43.50
   5   1   1 1375.76   42.90
  -5   1  -1 1373.26   45.10
   6  -1   1  639.14   22.00
   6  -1   1  660.23   21.00
  -6  -1  -1  630.74   23.90
   6  -1   1  655.63   20.60
  -6  -1  -1  651.83   20.60
   6  -1   1  634.34   23.40
  -6  -1  -1  648.04   23.80
  -6  -1  -1  650.43   20.80
  -6  -1  -1  666.13   21.60
   6  -1   1  637.64   27.00
   6  -1   1  625.84   24.20
  -6  -1  -1  638.04   25.40
  -6   1  -1  637.84   21.20
   6   1   1  692.53   20.30
   6   1   1  661.83   21.50
   6   1   1  641.44   25.90
  -6   1  -1  643.84   23.90
   6   1   1  643.94   22.50
  -6   1  -1  644.84   24.70
  -6   1  -1  637.04   23.50
   6   1   1  655.83   20.80
  -6   1  -1  591.84   21.50
  -6   1  -1  710.43   23.10
  -6   1  -1  620.74   26.00
  -7  -1  -1   11.50    9.90
  -7  -1  -1    7.10   10.10
   7  -1   1    7.10    2.00
  -7  -1  -1    5.80   12.50
   7  -1   1   15.00    1.90
  -7  -1  -1   12.60    2.40
   7  -1   1   10.90    9.50
  -7  -1  -1   10.40    2.50
  -7  -1  -1    8.90    2.20
   7  -1   1   17.00   14.30
  -7   1  -1   10.70    9.40
   7   1   1   10.00   12.90
   7   1   1    6.90    8.10
   7   1   1   14.90    1.80
  -7   1  -1    7.40   10.30
  -7   1  -1    8.20   16.70
   7   1   1    9.60    2.00
  -7   1  -1   14.80    3.00
  -7   1  -1    8.90    2.40
  -8  -1  -1   70.99   13.90
  -8  -1  -1   91.99   17.50
  -8  -1  -1   91.49    7.80
  -8  -1  -1  102.19   15.30
   8  -1   1   83.19   18.30
  -8  -1  -1   96.49    6.50
  -8   1  -1   80.99   14.80
   8   1   1   88.49   11.70
  -8   1  -1   83.89   13.20
   8   1   1   67.29    5.20
   8   1   1   85.09   17.30
  -8   1  -1   72.99    7.90
  -8   1  -1   90.29   18.70
  -8  -2   1  209.18    9.60
  -8  -2   1  191.38   23.80
   8  -2  -1  192.18   30.10
   8  -2  -1  204.58   23.70
  -8  -2   1  208.38   25.60
  -8  -2   1  228.68   23.50
  -8  -2   1  195.68    8.10
   8  -2  -1  178.38   21.80
   8   2  -1  189.98   27.70
  -8   2   1  194.88   28.70
  -8   2   1  209.58   10.10
   8   2  -1  194.08   17.40
   8   2  -1  202.38    7.30
  -8   2   1  186.88   23.50
  -8   2   1  202.18   23.50
  -8   2   1  208.48   26.50
  -7  -2   1   11.00   10.00
   7  -2  -1   16.00   10.20
   7  -2  -1   13.70    2.30
   7  -2  -1   18.80    3.30
   7  -2  -1    4.30   13.30
  -7  -2   1    3.50   10.40
   7  -2  -1   14.10    9.90
  -7  -2   1   17.70    2.40
  -7  -2   1   21.90   10.60
  -7  -2   1   13.00    2.80
  -7  -2   1   12.60    2.10
  -7   2   1   16.00    2.40
  -7   2   1   14.10    3.30
   7   2  -1   23.00    2.80
  -7   2   1   22.30   12.00
  -7   2   1   18.20   10.10
   7   2  -1   14.40    2.20
  -7   2   1   19.80   13.10
   7   2  -1   11.10    7.10
  -7   2   1   11.40   12.70
   7   2  -1   11.00   12.50
  -6  -2   1 1126.39   33.60
   6  -2  -1 1127.49   36.30
   6  -2  -1 1112.89   34.50
  -6  -2   1 1134.79   33.80
   6  -2  -1 1124.99   34.00
   6  -2  -1 1081.49   36.10
  -6  -2   1 1077.09   36.70
   6  -2  -1 1124.39   35.60
   6  -2  -1 1093.19   38.80
  -6  -2   1 1112.39   35.70
  -6  -2   1 1093.39   36.50
  -6  -2   1 1141.79   34.80
  -6   2   1 1029.40   38.00
   6   2  -1 1067.09   34.30
  -6   2   1 1137.29   35.50
  -6   2   1 1116.59   37.30
   6   2  -1 1131.59   34.70
   6   2  -1 1070.79   37.40
  -6   2   1 1116.09   36.40
  -6   2   1 1107.39   34.20
  -6   2   1 1059.09   36.30
  -6   2   1 1118.89   34.20
   6   2  -1 1151.08   34.50
   6   2  -1 1130.99   33.20
  -5  -2   1  630.24   20.20
   5  -2  -1  634.14   19.70
   5  -2  -1  650.83   20.80
  -5  -2   1  611.44   21.70
   5  -2  -1  616.84   21.70
   5  -2  -1  640.44   20.10
  -5  -2   1  627.64   19.30
  -5  -2   1  605.64   21.10
  -5  -2   1  600.94   22.20
  -5  -2   1  630.94   19.20
   5  -2  -1  608.94   21.60
   5  -2  -1  605.74   24.10
  -5   2   1  631.54   19.80
  -5   2   1  644.64   20.00
  -5   2   1  621.24   21.80
   5   2  -1  637.64   20.00
  -5   2   1  599.34   22.50
   5   2  -1  594.74   20.00
   5   2  -1  648.14   20.20
  -5   2   1  625.94   20.80
   5   2  -1  589.84   22.90
  -5   2   1  570.84   23.40
   5   2  -1  636.24   18.90
  -4  -2   1  869.81   25.50
  -4  -2   1  828.22   27.00
   4  -2  -1  875.51   26.10
   4  -2  -1  809.22   26.80
  -4  -2   1  865.11   26.30
   4  -2  -1  857.61   26.20
  -4  -2   1  831.72   26.20
   4  -2  -1  827.12   26.80
  -4  -2   1  844.52   25.70
  -4  -2   1  843.82   27.00
  -4   2   1  828.22   27.00
  -4   2   1  842.62   27.40
   4   2  -1  874.31   25.30
  -4   2   1  845.62   27.00
   4   2  -1  825.12   25.70
  -4   2   1  863.01   26.00
  -4   2   1  883.91   27.00
   4   2  -1  927.01   26.70
  -4   2   1  806.42   28.00
   3  -2  -1 4207.08  123.59
   3  -2  -1 4160.08  124.29
  -3  -2   1 4361.26  123.49
   3  -2  -1 4268.47  123.39
  -3  -2   1 4202.08  123.59
  -3  -2   1 4195.28  122.89
   3  -2  -1 4358.76  124.09
   3  -2  -1 4442.46  123.69
  -3  -2   1 4183.08  123.59
  -3  -2   1 4115.39  122.99
  -3  -2   1 4232.08  122.99
   3  -2  -1 4177.88  123.49
   3   2  -1 4102.29  122.89
  -3   2   1 4396.06  124.19
  -3   2   1 4481.15  123.49
   3   2  -1 4439.16  123.69
   3   2  -1 4431.16  123.49
  -3   2   1 4391.56  123.39
   3   2  -1 3601.84  122.89
  -3   2   1 4132.99  123.69
  -3   2   1 4144.09  124.19
   3   2  -1 4235.38  123.49
  -3   2   1 4130.89  123.49
  -3   2   1 4392.46  123.59
   2  -2  -1   38.30    2.30
  -2  -2   1   42.90    1.80
   2  -2  -1   42.00    4.20
  -2  -2   1   38.60    3.60
  -2  -2   1   41.50    1.80
   2  -2  -1   37.20    5.20
   2  -2  -1   43.70    2.40
   2  -2  -1   39.60    2.70
   2  -2  -1   29.30    4.20
  -2  -2   1   45.50    2.10
  -2  -2   1   50.79    4.50
  -2   2   1   33.60    2.20
  -2   2   1   30.10    4.40
  -2   2   1   40.10    4.50
  -2   2   1   44.50    4.70
   2   2  -1   43.50    1.50
   2   2  -1   50.19    2.40
   2   2  -1   41.40    2.10
  -2   2   1   32.70    5.10
   2   2  -1   43.50    2.10
  -2   2   1   42.00    2.20
   2   2  -1   44.30    1.60
  -2   2   1   47.70    2.40
  -2   2   1   38.30    2.70
   1  -2  -1 5567.44  160.48
  -1  -2   1 5293.27  161.08
   1  -2  -1 5546.15  160.68
   1  -2  -1 5803.82  160.78
   1  -2  -1 5283.47  160.28
   1   2  -1 5058.89  160.28
  -1   2   1 6253.37  160.78
  -1   2   1 5429.76  160.68
  -1   2   1 5417.26  160.38
  -1   2   1 6074.59  160.58
  -1   2   1 5008.80  160.28
  -1   2   1 5801.12  160.58
   0  -2   1 4246.18  115.99
   0  -2   1 3776.32  115.79
   0  -2   1 4131.89  115.89
   0  -2  -1 3826.32  115.89
   0  -2  -1 4041.00  115.69
   0   2  -1 4199.38  116.09
   0   2  -1 4159.98  115.89
   0   2   1 3860.11  115.89
   0   2  -1 4049.99  116.09
   0   2  -1 3763.72  115.69
   1  -2   1 7632.84  221.08
  -1  -2  -1 7086.49  221.58
   1  -2   1 7895.21  221.48
   1  -2   1 8199.18  221.18
   1  -2   1 7239.58  221.48
  -1  -2  -1 7892.71  220.98
   1  -2   1 8588.74  221.28
  -1  -2  -1 6392.26  220.78
  -1   2  -1 7827.62  220.98
  -1   2  -1 7741.83  221.18
  -2  -2  -1 6063.89  195.88
   2  -2   1 7203.78  196.48
   2  -2   1 6795.92  196.48
   2  -2   1 7632.54  197.08
   2  -2   1 7025.10  197.08
   2  -2   1 6891.11  196.38
  -2  -2  -1 5863.21  196.08
   2  -2   1 7147.78  196.38
  -2  -2  -1 5851.41  195.78
  -2   2  -1 7448.35  197.08
  -2   2  -1 7443.06  196.38
   2   2   1 6554.44  196.18
  -2   2  -1 7024.80  196.98
  -2   2  -1 7285.07  196.48
   2   2   1 5732.83  196.08
   2   2   1 5828.12  196.18
  -2   2  -1 7191.18  196.48
  -2   2  -1 7116.29  196.48
   3  -2   1   23.20    5.00
  -3  -2  -1   25.90    3.20
  -3  -2  -1   30.30    3.20
   3  -2   1   19.20    3.40
   3  -2   1   28.80    4.10
   3  -2   1   27.40    2.70
  -3  -2  -1   23.80    3.70
  -3  -2  -1   25.10    1.80
   3  -2   1   26.40    2.20
   3  -2   1   32.30    2.20
  -3  -2  -1   22.20    2.20
  -3   2  -1   25.90    2.20
   3   2   1   25.40    1.40
  -3   2  -1   35.70    4.20
   3   2   1   22.30    2.00
  -3   2  -1   23.20    2.10
   3   2   1   22.30    1.40
  -3   2  -1   22.00    5.00
   3   2   1   24.00    2.10
  -3   2  -1   22.50    3.90
  -4  -2  -1 1637.04   48.60
  -4  -2  -1 1657.93   48.90
   4  -2   1 1711.03   49.60
  -4  -2  -1 1696.13   48.40
  -4  -2  -1 1689.53   48.60
   4  -2   1 1619.74   50.39
  -4  -2  -1 1596.24   49.40
   4  -2   1 1753.12   48.90
   4  -2   1 1633.44   49.10
  -4  -2  -1 1617.54   48.80
   4  -2   1 1607.24   49.00
   4  -2   1 1559.14   49.20
  -4   2  -1 1630.84   49.20
   4   2   1 1695.23   48.70
  -4   2  -1 1661.23   49.80
  -4   2  -1 1645.64   48.80
   4   2   1 1605.74   47.80
  -4   2  -1 1671.23   48.60
  -4   2  -1 1616.24   50.29
   4   2   1 1553.54   48.10
  -4   2  -1 1604.04   49.00
   4   2   1 1543.75   49.60
   4   2   1 1568.54   49.70
  -5  -2  -1  988.50   32.50
   5  -2   1  974.70   34.10
   5  -2   1  952.80   32.30
  -5  -2  -1  970.40   31.50
   5  -2   1 1027.50   30.70
  -5  -2  -1  990.20   31.30
   5  -2   1 1025.40   30.50
  -5  -2  -1 1000.90   30.10
  -5  -2  -1 1020.40   30.40
   5  -2   1  982.40   31.50
   5  -2   1  952.00   31.60
  -5  -2  -1  978.90   30.80
   5   2   1  995.40   32.60
  -5   2  -1  985.10   30.60
  -5   2  -1 1022.30   30.50
  -5   2  -1  995.00   32.20
  -5   2  -1  972.20   33.70
  -5   2  -1  973.30   31.60
   5   2   1 1026.40   30.90
   5   2   1  976.70   30.40
   5   2   1 1022.10   29.60
  -5   2  -1  971.60   33.00
   6  -2   1  162.28   14.30
  -6  -2  -1  155.58    6.70
  -6  -2  -1  161.68   13.50
  -6  -2  -1  160.88   13.30
   6  -2   1  160.68   15.30
  -6  -2  -1  155.48    7.30
   6  -2   1  158.28    6.60
  -6  -2  -1  174.68   15.60
  -6  -2  -1  162.08    6.50
   6  -2   1  158.98    6.80
   6  -2   1  147.69    8.20
   6  -2   1  170.18   18.10
   6   2   1  157.78   10.90
   6   2   1  167.58    5.90
  -6   2  -1  162.98    8.00
  -6   2  -1  161.78   15.10
   6   2   1  168.88    6.70
  -6   2  -1  167.88   13.80
  -6   2  -1  164.38    7.00
   6   2   1  166.88    6.90
  -6   2  -1  145.59   16.70
  -6   2  -1  167.88    6.90
   6   2   1  160.48   15.50
   7  -2   1  435.86   23.60
  -7  -2  -1  440.96   24.60
   7  -2   1  453.25   21.80
  -7  -2  -1  456.75   22.40
  -7  -2  -1  450.95   16.20
  -7  -2  -1  451.55   15.20
  -7  -2  -1  463.95   15.10
   7  -2   1  393.36   14.90
   7  -2   1  467.95   28.40
  -7  -2  -1  454.35   22.20
  -7   2  -1  437.56   17.80
  -7   2  -1  444.86   15.50
   7   2   1  440.56   25.00
   7   2   1  457.15   15.30
  -7   2  -1  457.05   22.10
   7   2   1  451.15   18.70
  -8  -2  -1    3.10   15.40
  -8  -2  -1    4.80    3.50
  -8  -2  -1   -2.00   13.00
  -8  -2  -1    3.70   13.70
   8  -2   1    6.50   18.80
   8  -2   1    3.70   13.20
  -8  -2  -1   -2.60    2.40
   8   2   1    6.60   15.60
   8   2   1    3.10    2.00
  -8   2  -1    0.00   14.80
   8   2   1    6.10    9.80
  -8   2  -1    9.00   19.20
  -8   2  -1    2.10    4.00
  -8  -3   1    0.80   13.20
  -8  -3   1    2.90    2.20
   8  -3  -1    7.40   14.50
  -8  -3   1   12.80   18.90
   8  -3  -1   -7.90   19.80
   8  -3  -1    6.40   14.10
  -8  -3   1   -3.50   14.50
  -8   3   1    6.30   13.90
  -8   3   1   -0.80   14.00
   8   3  -1    4.30    8.00
  -8   3   1   -1.40   17.40
   8   3  -1    4.20   15.30
  -7  -3   1  263.37   19.90
   7  -3  -1  240.38   20.20
   7  -3  -1  272.87   12.80
  -7  -3   1  256.37   18.00
   7  -3  -1  253.47   30.60
  -7  -3   1  274.57    9.70
  -7  -3   1  267.17   10.60
  -7  -3   1  251.57   20.10
  -7  -3   1  270.47    9.40
   7  -3  -1  242.28   24.50
   7   3  -1  243.18   21.00
  -7   3   1  260.27   10.30
   7   3  -1  260.57   10.10
  -7   3   1  242.38   33.30
   7   3  -1  264.17    8.70
  -7   3   1  262.07   11.30
   7   3  -1  258.97   13.20
  -7   3   1  268.97   20.00
  -7   3   1  239.68   21.10
  -6  -3   1  304.97   10.40
   6  -3  -1  287.07   16.60
   6  -3  -1  293.57   20.90
  -6  -3   1  301.57   16.90
  -6  -3   1  307.97   11.20
  -6  -3   1  300.37   15.30
   6  -3  -1  315.27   12.10
  -6  -3   1  294.37   10.30
   6  -3  -1  307.07   11.20
   6  -3  -1  320.47   10.80
   6  -3  -1  295.97   17.10
  -6  -3   1  274.57   16.30
   6   3  -1  297.07   12.10
  -6   3   1  299.47   17.30
  -6   3   1  295.47   11.50
  -6   3   1  276.97   19.50
  -6   3   1  308.17   17.00
   6   3  -1  301.97   11.10
   6   3  -1  281.47   17.50
   6   3  -1  303.67    9.50
  -6   3   1  307.37   12.10
  -6   3   1  304.27   11.00
   6   3  -1  296.07   11.00
  -5  -3   1  506.85   19.40
   5  -3  -1  514.25   20.00
  -5  -3   1  490.25   16.70
  -5  -3   1  522.95   19.60
   5  -3  -1  500.35   18.10
  -5  -3   1  537.85   17.20
   5  -3  -1  502.85   22.50
  -5  -3   1  503.65   18.30
   5  -3  -1  515.65   19.70
  -5  -3   1  523.25   16.30
   5  -3  -1  529.85   18.10
   5  -3  -1  541.05   17.40
   5   3  -1  550.44   17.30
  -5   3   1  543.75   17.20
  -5   3   1  542.15   17.10
  -5   3   1  518.55   17.20
  -5   3   1  491.25   21.70
   5   3  -1  536.75   18.40
   5   3  -1  532.35   17.10
  -5   3   1  541.35   18.20
   5   3  -1  546.25   15.90
  -5   3   1  524.55   19.70
  -5   3   1  511.35   20.50
  -5   3   1  520.25   20.10
  -4  -3   1 1724.43   50.19
  -4  -3   1 1644.64   50.59
  -4  -3   1 1622.44   49.90
   4  -3  -1 1712.23   50.19
  -4  -3   1 1664.93   50.79
   4  -3  -1 1703.13   50.49
  -4  -3   1 1683.93   49.60
   4  -3  -1 1643.24   50.89
   4  -3  -1 1611.84   52.19
   4  -3  -1 1651.63   50.69
  -4  -3   1 1691.33   49.50
  -4   3   1 1728.63   50.39
  -4   3   1 1661.63   51.19
  -4   3   1 1662.63   50.69
   4   3  -1 1772.72   50.79
  -4   3   1 1758.42   51.29
  -4   3   1 1741.53   50.39
  -4   3   1 1744.73   50.19
  -4   3   1 1644.84   50.89
  -4   3   1 1649.13   51.99
  -3  -3   1  238.58    8.60
  -3  -3   1  248.98    7.80
   3  -3  -1  227.58   10.40
  -3  -3   1  257.17   10.40
  -3  -3   1  253.37    8.20
   3  -3  -1  247.98   10.60
   3  -3  -1  237.18    9.30
   3  -3  -1  245.28    8.40
  -3  -3   1  239.18    9.50
  -3  -3   1  265.77    7.80
   3  -3  -1  253.57    8.60
   3  -3  -1  243.38   11.60
   3   3  -1  227.88    8.20
  -3   3   1  247.98    8.30
   3   3  -1  248.98    8.10
  -3   3   1  227.98    9.00
  -3   3   1  247.38    8.30
   3   3  -1  260.17    8.60
  -3   3   1  217.88   11.70
  -3   3   1  260.27    8.60
  -3   3   1  248.28   10.40
  -3   3   1  228.28   10.00
   2  -3  -1 4893.71  139.59
  -2  -3   1 4247.38  138.49
  -2  -3   1 4192.88  138.19
   2  -3  -1 4769.32  138.89
   2  -3  -1 5070.09  139.49
  -2  -3   1 4277.67  138.19
  -2  -3   1 4891.81  139.19
  -2  -3   1 4555.04  138.59
   2  -3  -1 5107.39  139.19
   2  -3  -1 4797.92  139.19
   2  -3  -1 5032.00  138.89
  -2   3   1 4839.42  138.89
  -2   3   1 5071.69  138.79
  -2   3   1 4775.32  139.19
   2   3  -1 4361.66  138.49
  -2   3   1 4984.20  139.59
  -2   3   1 4925.61  139.09
  -2   3   1 5089.79  139.49
  -2   3   1 4990.70  138.89
   2   3  -1 4832.02  139.19
   1  -3  -1  921.61   28.40
   1  -3  -1  975.50   28.20
   1  -3  -1  933.61   28.10
  -1  -3   1  960.30   27.70
  -1  -3   1  958.90   28.70
  -1  -3   1  936.61   27.70
   1  -3  -1  943.51   28.60
  -1  -3   1  907.11   27.40
   1  -3  -1  954.30   27.90
   1  -3  -1  889.61   28.30
   1  -3  -1  954.40   28.30
  -1  -3   1  984.90   28.20
  -1   3   1  947.91   28.30
  -1   3   1  948.71   27.80
  -1   3   1  958.50   28.00
  -1   3   1  930.51   28.40
  -1   3   1  952.80   28.20
  -1   3   1  958.90   28.30
   1   3  -1  946.71   27.70
   0  -3   1 2445.16   75.39
   0  -3   1 2631.84   75.29
   0  -3  -1 2675.63   75.29
   0  -3  -1 2602.54   75.39
   0  -3  -1 2451.35   75.19
   0  -3   1 2560.04   74.99
   0  -3   1 2342.97   74.69
   0  -3   1 2709.73   75.49
   0  -3  -1 2491.65   74.79
   0  -3  -1 2530.95   74.79
   0  -3  -1 2523.05   75.09
   0  -3  -1 2531.35   75.29
   0  -3   1 2633.94   75.19
   0  -3   1 2662.83   74.89
   0   3  -1 2667.23   75.19
   0   3   1 2668.73   75.09
   0   3  -1 2577.14   74.79
   0   3  -1 2380.96   74.69
   0   3   1 2716.83   75.29
   0   3  -1 2666.73   75.29
   0   3   1 2722.83   75.39
   0   3   1 2592.64   75.39
   0   3  -1 2656.73   75.29
   0   3  -1 2613.04   75.49
   1  -3   1 6358.86  186.38
   1  -3   1 6188.88  186.38
  -1  -3  -1 6181.58  186.58
   1  -3   1 6464.75  186.58
  -1  -3  -1 6051.79  186.28
   1  -3   1 7071.39  186.78
   1  -3   1 6607.94  186.78
   1  -3   1 6255.57  186.88
  -1   3  -1 6531.85  186.78
  -1   3  -1 6124.39  186.18
  -1   3  -1 6769.62  186.58
  -1   3  -1 6266.87  186.28
  -1   3  -1 6641.94  186.68
   1   3   1 6675.73  186.38
   2  -3   1  370.56   11.60
  -2  -3  -1  368.56   11.20
   2  -3   1  343.17   12.30
   2  -3   1  372.96   12.10
   2  -3   1  373.46   11.50
  -2  -3  -1  367.96   10.70
   2  -3   1  355.16   13.30
  -2  -3  -1  406.06   10.80
   2  -3   1  356.46   12.50
  -2  -3  -1  354.66   11.40
  -2   3  -1  341.17   12.30
   2   3   1  360.06   10.90
   2   3   1  342.97   11.00
  -2   3  -1  350.86   12.50
  -2   3  -1  352.86   11.60
  -2   3  -1  340.07   13.10
  -2   3  -1  368.66   11.40
   2   3   1  372.66   11.20
   3  -3   1 3405.86   96.69
   3  -3   1 3187.68   96.79
   3  -3   1 3262.57   97.69
   3  -3   1 3240.08   96.99
   3  -3   1 3513.45   96.99
  -3  -3  -1 3358.76   95.99
  -3  -3  -1 3287.27   96.29
  -3  -3  -1 3110.29   96.19
  -3  -3  -1 3249.27   96.39
   3  -3   1 3451.85   97.39
  -3  -3  -1 3192.78   96.39
   3   3   1 3407.26   96.29
   3   3   1 3325.77   96.49
   3   3   1 3324.37   96.39
  -3   3  -1 3197.58   96.79
  -3   3  -1 3371.86   96.79
  -3   3  -1 3321.97   96.49
  -3   3  -1 3224.58   96.69
  -3   3  -1 3477.75   97.49
  -3   3  -1 3212.98   97.69
  -4  -3  -1  309.17   10.30
   4  -3   1  297.67   11.50
  -4  -3  -1  313.07   12.00
   4  -3   1  284.37   14.80
  -4  -3  -1  306.97    9.80
   4  -3   1  313.97   10.60
  -4  -3  -1  301.17   12.50
  -4  -3  -1  299.17   11.50
   4  -3   1  316.97   10.40
   4  -3   1  296.27   12.80
   4  -3   1  302.67   13.30
  -4   3  -1  291.37   12.80
  -4   3  -1  298.17   10.40
  -4   3  -1  297.37   11.30
  -4   3  -1  319.07   10.40
  -4   3  -1  287.17   14.70
   4   3   1  304.57   10.30
   4   3   1  308.47   10.20
  -4   3  -1  292.47   12.90
   4   3   1  281.27   10.70
  -5  -3  -1  562.04   19.80
  -5  -3  -1  565.24   18.50
   5  -3   1  583.84   19.70
  -5  -3  -1  566.54   20.10
   5  -3   1  538.75   23.20
  -5  -3  -1  592.04   18.20
   5  -3   1  576.84   18.40
   5  -3   1  576.74   19.30
  -5  -3  -1  570.54   17.90
   5  -3   1  570.44   21.00
  -5  -3  -1  564.84   21.00
   5  -3   1  563.54   21.30
  -5   3  -1  594.74   18.70
  -5   3  -1  583.64   18.40
  -5   3  -1  581.54   19.70
  -5   3  -1  553.54   20.90
   5   3   1  579.84   18.30
   5   3   1  569.44   17.00
  -5   3  -1  535.65   23.10
  -5   3  -1  566.24   21.10
   5   3   1  536.15   21.40
   6  -3   1  375.16   20.00
  -6  -3  -1  377.66   17.80
  -6  -3  -1  384.36   13.30
   6  -3   1  383.96   12.90
   6  -3   1  366.16   19.00
   6  -3   1  362.46   23.10
   6  -3   1  352.56   14.20
  -6  -3  -1  387.06   17.10
   6  -3   1  366.36   13.10
  -6  -3  -1  382.26   12.70
  -6  -3  -1  377.26   12.40
  -6  -3  -1  370.86   18.90
   6   3   1  362.36   13.80
   6   3   1  375.46   11.40
  -6   3  -1  370.36   13.10
  -6   3  -1  366.86   18.20
  -6   3  -1  352.36   22.20
   6   3   1  368.16   12.90
  -6   3  -1  329.57   15.30
   6   3   1  376.96   12.90
  -6   3  -1  376.96   19.00
   6   3   1  363.36   19.20
  -7  -3  -1    7.00    2.00
  -7  -3  -1    6.10    2.10
   7  -3   1   11.20   16.00
  -7  -3  -1    2.50   10.20
  -7  -3  -1    6.80    2.30
  -7  -3  -1    4.30    9.90
  -7  -3  -1    0.40   12.10
  -7   3  -1    3.00   18.70
  -7   3  -1    3.90   11.50
  -7   3  -1    6.90   10.60
  -7   3  -1    7.20    3.10
   7   3   1    5.90   11.90
   7   3   1    5.10    6.40
  -8  -3  -1  107.39   14.40
   8  -3   1  110.09   21.20
  -8  -3  -1  118.99   10.00
   8  -3   1  117.89   15.70
  -8  -3  -1   87.89   15.70
  -8  -3  -1  108.09   15.20
   8  -3   1  117.79   17.00
  -8  -3  -1   82.89    6.10
  -8   3  -1  120.89   21.30
  -8   3  -1  103.99   16.20
   8   3   1  110.39   13.50
   8   3   1  110.39   17.70
  -8   3  -1  104.39   14.90
   8  -4  -1  132.09   23.10
  -8  -4   1  156.18   16.80
  -8  -4   1  165.78   27.00
  -8  -4   1  124.39   16.00
   8  -4  -1  170.48   18.10
   8  -4  -1  130.39   17.10
  -8  -4   1  146.09    7.80
  -8  -4   1  118.79    8.10
  -8   4   1  141.09   17.10
  -8   4   1  134.19   20.80
  -8   4   1  145.79   17.00
   8   4  -1  164.98   26.70
  -7  -4   1   25.80   11.10
  -7  -4   1   29.50    3.20
   7  -4  -1   24.60   12.20
   7  -4  -1   24.70   13.10
   7  -4  -1   27.90   18.00
  -7  -4   1   32.40    3.60
  -7  -4   1   28.60   10.20
  -7  -4   1   35.90   11.00
  -7  -4   1   24.50    3.80
   7   4  -1   34.80   12.10
  -7   4   1   32.70    5.40
  -7   4   1   33.80   11.70
  -7   4   1   29.90   11.90
  -7   4   1   -7.80   24.60
   7   4  -1   23.50    2.60
   6  -4  -1  600.84   24.80
  -6  -4   1  607.44   18.50
   6  -4  -1  571.14   21.40
   6  -4  -1  561.24   27.80
  -6  -4   1  573.24   23.00
   6  -4  -1  602.44   24.50
  -6  -4   1  596.54   19.30
  -6  -4   1  608.94   23.90
   6  -4  -1  494.25   20.80
  -6  -4   1  592.34   21.90
  -6   4   1  587.34   24.00
  -6   4   1  611.14   19.20
   6   4  -1  587.94   19.40
  -6   4   1  597.94   20.60
   6   4  -1  592.84   19.40
  -6   4   1  591.24   24.30
  -6   4   1  574.34   20.10
  -6   4   1  610.04   19.50
  -6   4   1  541.05   26.60
   5  -4  -1  475.95   15.60
   5  -4  -1  453.35   22.50
  -5  -4   1  454.45   17.00
  -5  -4   1  477.55   15.50
   5  -4  -1  473.55   15.90
  -5  -4   1  469.15   15.60
  -5  -4   1  489.35   19.20
  -5  -4   1  442.76   17.80
   5  -4  -1  465.15   19.10
   5  -4  -1  461.85   19.70
   5  -4  -1  482.85   16.70
  -5  -4   1  483.85   14.80
  -5   4   1  465.35   16.70
  -5   4   1  436.96   21.50
  -5   4   1  462.95   18.90
   5   4  -1  487.35   15.90
   5   4  -1  474.25   15.30
  -5   4   1  474.25   15.60
  -5   4   1  463.55   19.40
   5   4  -1  469.65   15.30
  -5   4   1  488.05   15.60
  -5   4   1  480.45   15.80
   4  -4  -1  340.97   14.80
  -4  -4   1  345.47   11.00
   4  -4  -1  348.97   11.50
  -4  -4   1  341.77   14.30
   4  -4  -1  352.16   11.70
  -4  -4   1  323.67   12.00
  -4  -4   1  329.87   12.90
  -4  -4   1  337.37   10.80
  -4  -4   1  352.56   10.70
   4  -4  -1  315.57   14.20
   4  -4  -1  329.07   16.80
   4  -4  -1  332.87   12.40
  -4   4   1  335.67   14.80
  -4   4   1  317.77   13.90
  -4   4   1  299.97   16.10
  -4   4   1  331.77   12.40
   4   4  -1  345.87   11.80
  -4   4   1  345.07   11.40
  -4   4   1  348.47   11.70
  -4   4   1  327.47   11.70
  -3  -4   1 2682.83   80.49
  -3  -4   1 2653.83   79.19
  -3  -4   1 2683.53   79.69
   3  -4  -1 2711.93   80.29
   3  -4  -1 2872.51   80.89
   3  -4  -1 2814.12   80.49
   3  -4  -1 2652.93   80.69
   3  -4  -1 2720.73   80.69
  -3  -4   1 2419.66   79.29
  -3  -4   1 2723.33   79.59
   3   4  -1 2790.42   80.39
  -3   4   1 2821.32   79.99
  -3   4   1 2767.22   80.19
  -3   4   1 2753.72   81.29
  -3   4   1 2879.71   80.99
  -3   4   1 2833.92   80.39
   3   4  -1 2769.92   79.59
  -3   4   1 2660.03   80.59
  -3   4   1 2649.73   80.19
   2  -4  -1  217.98    7.50
  -2  -4   1  211.38    7.40
  -2  -4   1  219.08    6.70
  -2  -4   1  216.08    9.60
   2  -4  -1  208.38    9.40
   2  -4  -1  202.58    7.10
   2  -4  -1  205.68    7.40
   2  -4  -1  187.48    8.50
   2  -4  -1  209.18    7.70
   2  -4  -1  205.48    8.40
  -2  -4   1  212.48    6.20
  -2  -4   1  205.38    7.10
  -2   4   1  206.38    7.70
  -2   4   1  192.48    8.50
   2   4  -1  216.48    6.60
  -2   4   1  192.28    9.80
  -2   4   1  201.68    9.40
  -2   4   1  221.38    7.10
   2   4  -1  212.58    6.50
  -2   4   1  208.78    7.00
  -2   4   1  209.58    7.40
   1  -4  -1 3826.02  110.99
  -1  -4   1 3455.85  110.29
   1  -4  -1 3850.21  110.99
  -1  -4   1 3586.04  110.69
   1  -4  -1 3934.41  111.29
  -1  -4   1 3920.71  111.39
  -1  -4   1 3606.34  111.19
   1  -4  -1 3858.31  111.49
   1  -4  -1 3946.81  111.39
  -1  -4   1 3479.75  111.19
   1  -4  -1 3796.02  111.39
   1  -4  -1 3929.71  110.89
  -1   4   1 3833.72  111.49
  -1   4   1 3725.63  110.89
   1   4  -1 3617.84  110.79
  -1   4   1 3976.90  111.89
   1   4  -1 3974.70  110.69
  -1   4   1 4079.89  111.39
  -1   4   1 3999.40  111.09
  -1   4   1 4038.90  111.39
   0  -4  -1 1722.43   49.90
   0  -4   1 1735.23   49.99
   0  -4   1 1762.32   50.69
   0  -4   1 1721.33   50.29
   0  -4  -1 1646.24   50.49
   0  -4   1 1701.43   50.49
   0  -4  -1 1677.03   50.29
   0  -4  -1 1667.93   49.90
   0  -4  -1 1666.63   50.79
   0  -4  -1 1763.42   50.49
   0  -4   1 1678.83   50.49
   0  -4  -1 1699.23   50.19
   0  -4   1 1713.63   49.99
   0  -4   1 1702.03   49.90
   0   4  -1 1750.22   50.39
   0   4  -1 1784.82   50.39
   0   4   1 1702.33   50.69
   0   4  -1 1706.23   50.89
   0   4   1 1749.92   50.19
   0   4  -1 1700.63   50.29
   0   4   1 1761.52   50.39
   0   4   1 1768.22   50.59
   1  -4   1 1386.56   39.90
  -1  -4  -1 1322.67   39.90
  -1  -4  -1 1358.16   39.50
   1  -4   1 1295.27   40.20
   1  -4   1 1292.47   39.60
   1  -4   1 1330.47   39.40
   1  -4   1 1332.77   40.00
  -1  -4  -1 1318.67   39.90
   1  -4   1 1320.37   39.90
  -1   4  -1 1388.36   39.00
  -1   4  -1 1373.66   39.20
  -1   4  -1 1371.06   39.70
  -1   4  -1 1360.26   39.90
  -1   4  -1 1372.06   39.90
   1   4   1 1288.87   39.80
  -1   4  -1 1313.87   40.20
  -1   4  -1 1328.07   39.50
  -2  -4  -1 2936.41   87.49
  -2  -4  -1 3039.10   86.89
   2  -4   1 3068.69   87.09
   2  -4   1 3006.40   87.49
   2  -4   1 3004.40   88.09
  -2  -4  -1 2819.02   86.29
  -2  -4  -1 3091.09   87.09
   2  -4   1 3094.19   87.69
   2  -4   1 2949.80   87.19
   2  -4   1 3164.98   87.39
  -2  -4  -1 2880.51   86.19
  -2   4  -1 3001.40   86.59
  -2   4  -1 3005.50   86.89
  -2   4  -1 2838.22   87.49
  -2   4  -1 2888.31   87.89
  -2   4  -1 3101.39   87.39
  -2   4  -1 2799.62   87.09
  -3  -4  -1  188.18    5.80
   3  -4   1  186.28    7.00
   3  -4   1  184.08    6.80
  -3  -4  -1  185.38    6.30
   3  -4   1  170.98   11.30
  -3  -4  -1  162.08    6.40
   3  -4   1  174.28    9.80
  -3  -4  -1  185.48    8.50
   3  -4   1  179.28    7.60
  -3  -4  -1  179.48    7.60
  -3  -4  -1  187.48    5.80
   3  -4   1  159.78    8.10
   3  -4   1  171.38    9.90
  -3   4  -1  174.98    9.30
  -3   4  -1  171.98   11.30
  -3   4  -1  177.38   10.00
  -3   4  -1  188.78    6.60
   3   4   1  184.28    6.00
   3   4   1  187.48    6.40
  -3   4  -1  173.18    7.50
   3   4   1  190.48    6.00
  -3   4  -1  186.38    6.30
  -3   4  -1  181.98    6.90
  -4  -4  -1 1221.48   36.40
  -4  -4  -1 1175.08   36.40
   4  -4   1 1183.08   38.20
  -4  -4  -1 1217.28   37.10
   4  -4   1 1211.38   39.70
   4  -4   1 1243.88   37.90
  -4  -4  -1 1166.58   37.00
   4  -4   1 1192.48   37.70
  -4  -4  -1 1221.18   36.00
   4  -4   1 1254.57   36.90
   4  -4   1 1188.68   38.10
   4   4   1 1234.88   36.60
  -4   4  -1 1209.28   38.10
  -4   4  -1 1189.08   37.10
  -4   4  -1 1286.77   36.80
  -4   4  -1 1281.07   38.00
  -4   4  -1 1201.58   39.50
  -4   4  -1 1187.38   37.80
  -5  -4  -1  742.03   23.80
  -5  -4  -1  732.03   24.10
   5  -4   1  742.63   23.70
   5  -4   1  742.93   28.70
   5  -4   1  768.22   24.50
   5  -4   1  764.12   25.00
   5  -4   1  743.53   26.30
  -5  -4  -1  739.13   25.20
   5  -4   1  777.02   26.80
  -5  -4  -1  747.23   24.50
  -5  -4  -1  748.13   23.40
  -5  -4  -1  748.53   25.40
  -5   4  -1  746.53   26.20
  -5   4  -1  752.22   26.30
  -5   4  -1  776.62   23.70
  -5   4  -1  729.43   28.20
  -5   4  -1  736.93   23.90
   5   4   1  760.62   23.30
  -5   4  -1  760.42   25.20
   5   4   1  702.63   24.20
   5   4   1  767.92   23.50
  -6  -4  -1   79.29   14.00
   6  -4   1   82.89   10.30
   6  -4   1  105.99   11.40
   6  -4   1   91.29   14.80
  -6  -4  -1   82.49    4.30
  -6  -4  -1   88.79    4.90
  -6  -4  -1   85.39    4.50
   6  -4   1   82.69    5.00
   6  -4   1   72.79    4.50
  -6  -4  -1   82.69    9.00
  -6  -4  -1   86.59   12.80
  -6   4  -1   92.09    5.00
  -6   4  -1   93.59   13.60
  -6   4  -1   93.69    5.80
  -6   4  -1  103.09   10.70
   6   4   1   88.99    4.60
  -6   4  -1  100.19    5.10
  -6   4  -1   77.09   10.40
   6   4   1   88.79    4.60
   6   4   1   89.49    4.80
  -7  -4  -1  329.67   21.40
  -7  -4  -1  326.27   11.90
   7  -4   1  312.87   22.90
  -7  -4  -1  306.47   12.10
   7  -4   1  325.17   24.90
  -7  -4  -1  319.57   11.20
  -7  -4  -1  334.37   19.80
  -7  -4  -1  317.47   20.30
   7   4   1  319.37   22.70
  -7   4  -1  333.47   22.80
  -7   4  -1  310.97   25.40
  -7   4  -1  330.87   27.60
   7   4   1  295.27   11.40
   8  -4   1   10.20   17.80
  -8  -4  -1    4.70   14.80
   8  -4   1   -1.30   23.00
  -8  -4  -1    4.40   14.10
   8  -4   1   -2.40   15.80
  -8  -4  -1    6.10    6.40
  -8   4  -1   -4.60   21.40
  -8   4  -1    1.70   15.20
  -8   4  -1    4.10   16.40
   8   4   1   -5.30   16.30
   8   4   1   -6.90    3.50
  -8  -5   1   19.50    3.40
  -8  -5   1   11.40   14.50
   8  -5  -1    6.20   17.60
   8  -5  -1    4.30   17.00
  -8  -5   1   13.30   17.20
   8  -5  -1   20.20   25.20
  -8  -5   1   15.80   16.40
  -8   5   1   14.00   17.20
  -8   5   1   11.30   15.60
   8   5  -1   -6.40   15.90
  -8   5   1    2.50   21.40
  -7  -5   1  344.57   11.50
   7  -5  -1  329.77   24.90
  -7  -5   1  325.97   11.20
  -7  -5   1  338.37   23.60
  -7  -5   1  321.87   21.00
   7  -5  -1  305.97   30.90
  -7  -5   1  335.47   20.30
   7  -5  -1  337.37   23.50
  -7  -5   1  382.46   11.90
  -7   5   1  336.17   29.50
   7   5  -1  299.87   12.20
  -7   5   1  334.17   24.20
  -7   5   1  325.97   24.50
   7   5  -1  309.97   12.00
   6  -5  -1   87.99   11.50
  -6  -5   1  100.09   10.70
   6  -5  -1   92.69   11.70
  -6  -5   1   80.19    8.50
   6  -5  -1   90.79   15.20
  -6  -5   1   76.19   13.70
   6  -5  -1   92.99    6.20
  -6  -5   1   88.59    4.10
  -6   5   1   99.39   11.20
   6   5  -1   81.39    4.10
  -6   5   1   74.99    4.50
  -6   5   1   87.79   14.20
  -6   5   1   73.99    4.40
  -6   5   1   87.89   11.70
  -6   5   1   71.79    5.00
   6   5  -1   79.19    4.10
   6   5  -1   76.99    4.70
  -6   5   1   84.89    5.90
   5  -5  -1  431.06   22.60
  -5  -5   1  452.05   14.10
   5  -5  -1  436.16   19.30
  -5  -5   1  424.56   17.10
   5  -5  -1  426.66   15.30
   5  -5  -1  459.25   20.30
   5  -5  -1  450.55   15.00
  -5  -5   1  448.46   19.10
  -5  -5   1  441.96   14.50
  -5  -5   1  446.36   16.40
   5  -5  -1  460.25   16.20
  -5  -5   1  461.85   14.00
  -5   5   1  464.45   14.90
   5   5  -1  444.96   14.30
  -5   5   1  442.16   16.30
  -5   5   1  461.75   14.90
  -5   5   1  438.76   19.90
  -5   5   1  406.86   21.60
   5   5  -1  446.06   15.10
  -5   5   1  434.16   19.50
  -5   5   1  456.95   15.30
   4  -5  -1 1250.97   37.40
   4  -5  -1 1222.98   38.10
   4  -5  -1 1247.98   37.30
  -4  -5   1 1165.18   36.60
   4  -5  -1 1223.28   40.10
   4  -5  -1 1260.07   38.00
  -4  -5   1 1222.58   38.30
  -4  -5   1 1218.78   35.80
  -4  -5   1 1140.49   36.50
   4  -5  -1 1238.98   38.70
  -4  -5   1 1193.08   36.30
  -4   5   1 1269.07   38.20
   4   5  -1 1233.98   36.10
  -4   5   1 1184.88   39.70
   4   5  -1 1239.18   37.20
  -4   5   1 1131.09   38.70
   4   5  -1 1104.29   37.20
  -4   5   1 1285.07   36.70
  -4   5   1 1229.88   37.90
  -4   5   1 1256.37   37.60
  -4   5   1 1170.78   38.50
  -3  -5   1   53.29    2.00
  -3  -5   1   48.10    6.00
   3  -5  -1   54.99    3.30
   3  -5  -1   41.50    7.30
  -3  -5   1   51.79    4.80
  -3  -5   1   45.50    3.10
   3  -5  -1   34.10    5.70
  -3  -5   1   51.49    2.10
   3  -5  -1   37.90    3.90
  -3  -5   1   51.49    2.20
   3  -5  -1   46.90    5.80
   3   5  -1   50.79    2.20
  -3   5   1   42.40    3.60
  -3   5   1   47.40    7.50
  -3   5   1   48.00    5.90
  -3   5   1   40.10    5.40
  -3   5   1   40.10    2.80
  -3   5   1   51.99    3.10
   2  -5  -1 2071.39   61.79
   2  -5  -1 2079.89   60.59
   2  -5  -1 2084.19   63.39
  -2  -5   1 2000.20   60.29
   2  -5  -1 2005.80   60.79
   2  -5  -1 2169.78   62.29
  -2  -5   1 2010.40   59.59
  -2  -5   1 2119.99   60.89
   2  -5  -1 2122.09   60.49
  -2  -5   1 1959.00   59.69
   2  -5  -1 2109.09   61.19
   2  -5  -1 2024.50   61.39
  -2  -5   1 2080.69   61.59
  -2   5   1 1967.80   60.49
  -2   5   1 2059.89   61.49
  -2   5   1 2099.09   60.99
  -2   5   1 2040.40   61.59
  -2   5   1 2144.29   60.49
  -2   5   1 2084.69   60.29
  -2   5   1 2093.69   61.99
   2   5  -1 1908.71   59.59
   1  -5  -1  420.66   13.30
  -1  -5   1  446.96   12.70
   1  -5  -1  428.66   14.00
   1  -5  -1  441.56   13.80
   1  -5  -1  424.06   15.20
  -1  -5   1  434.46   13.60
   1  -5  -1  399.36   14.00
  -1  -5   1  434.66   14.10
   1  -5  -1  437.16   13.80
  -1  -5   1  399.96   14.20
  -1  -5   1  441.16   12.90
  -1  -5   1  445.36   13.90
  -1   5   1  425.96   13.70
  -1   5   1  398.76   15.10
  -1   5   1  419.16   13.70
   1   5  -1  448.06   13.00
  -1   5   1  428.16   12.90
   1   5  -1  423.06   15.30
   1   5  -1  433.26   12.90
  -1   5   1  452.05   13.90
  -1   5   1  426.46   12.90
  -1   5   1  437.56   13.40
   0  -5  -1 2024.80   58.29
   0  -5   1 1931.61   57.59
   0  -5  -1 1958.70   58.59
   0  -5  -1 1997.50   57.49
   0  -5   1 1963.60   57.39
   0  -5  -1 1928.31   57.39
   0  -5   1 1929.01   58.19
   0  -5   1 1954.20   57.89
   0  -5  -1 1882.81   58.19
   0  -5  -1 1972.50   57.79
   0  -5   1 1969.40   58.29
   0  -5   1 2084.79   58.49
   0  -5  -1 1895.21   57.89
   0   5  -1 2117.69   58.59
   0   5  -1 1983.50   57.99
   0   5   1 2073.29   58.29
   0   5  -1 1887.11   58.79
   0   5   1 1991.80   57.79
   0   5   1 1930.11   58.59
   0   5   1 2048.59   57.99
   1  -5   1 2413.16   71.59
   1  -5   1 2329.57   71.09
   1  -5   1 2577.74   71.69
   1  -5   1 2482.05   70.99
  -1  -5  -1 2450.05   71.59
  -1  -5  -1 2364.46   71.49
  -1  -5  -1 2437.46   71.29
   1  -5   1 2351.36   71.79
   1  -5   1 2499.45   71.49
  -1   5  -1 2472.65   71.59
  -1   5  -1 2347.57   70.89
  -1   5  -1 2502.55   70.89
   1   5   1 2345.77   71.49
  -1   5  -1 2402.36   71.89
  -1   5  -1 2487.85   71.39
   2  -5   1  147.39    6.10
  -2  -5  -1  157.08    8.30
   2  -5   1  141.49    9.90
   2  -5   1  136.89    9.20
   2  -5   1  156.28    6.20
  -2  -5  -1  141.39    8.70
  -2  -5  -1  148.19    5.60
   2  -5   1  130.39    8.20
  -2   5  -1  125.49    6.20
  -2   5  -1  131.29    9.90
  -2   5  -1  118.99    7.10
  -2   5  -1  146.79    5.20
  -2   5  -1  139.09    9.60
  -2   5  -1  131.69    7.80
  -2   5  -1  155.78    4.80
   3  -5   1 2262.07   64.69
   3  -5   1 2180.18   66.39
  -3  -5  -1 2135.39   63.39
  -3  -5  -1 2228.28   64.39
   3  -5   1 2318.37   65.19
  -3  -5  -1 2176.88   63.39
  -3  -5  -1 2083.19   63.59
  -3  -5  -1 2096.99   63.49
   3  -5   1 2172.68   65.49
   3  -5   1 2158.68   65.19
   3  -5   1 2323.07   65.09
  -3  -5  -1 2160.18   64.69
   3  -5   1 2308.67   65.69
   3   5   1 2095.29   63.59
  -3   5  -1 2156.88   65.49
   3   5   1 2108.49   63.39
  -3   5  -1 2248.88   64.99
  -3   5  -1 2188.48   66.29
  -3   5  -1 2118.69   64.89
  -3   5  -1 2241.38   65.59
  -3   5  -1 2183.48   64.09
   4  -5   1  333.57   11.70
   4  -5   1  308.37   15.40
   4  -5   1  309.07   11.80
   4  -5   1  294.47   16.90
  -4  -5  -1  324.57   10.10
  -4  -5  -1  296.47   11.70
   4  -5   1  295.77   14.90
  -4  -5  -1  298.67   13.10
  -4  -5  -1  321.47   10.30
  -4  -5  -1  292.27   10.30
   4  -5   1  310.67   11.10
  -4  -5  -1  303.57   11.40
  -4   5  -1  296.17   17.10
   4   5   1  302.37    9.80
  -4   5  -1  311.87   11.00
  -4   5  -1  301.77   14.40
  -4   5  -1  293.57   11.70
  -4   5  -1  292.27   15.40
  -4   5  -1  306.97   10.20
  -4   5  -1  315.57   10.60
   4   5   1  306.07    9.80
   5  -5   1  913.01   31.70
   5  -5   1  904.01   30.90
   5  -5   1  901.61   29.50
  -5  -5  -1  899.51   28.50
  -5  -5  -1  892.71   27.40
   5  -5   1  910.31   28.60
  -5  -5  -1  893.21   29.60
  -5  -5  -1  922.21   27.10
   5  -5   1  894.41   34.00
  -5  -5  -1  893.91   29.00
  -5   5  -1  905.11   29.50
  -5   5  -1  917.61   31.10
   5   5   1  914.21   27.30
  -5   5  -1  894.31   31.30
  -5   5  -1  912.71   27.80
  -5   5  -1  926.21   28.00
  -5   5  -1  890.41   33.70
  -5   5  -1  751.22   29.00
   5   5   1  908.81   27.90
  -6  -5  -1  187.38    7.20
  -6  -5  -1  189.78   14.90
  -6  -5  -1  196.68   14.50
  -6  -5  -1  184.68    6.80
   6  -5   1  162.18   18.50
  -6  -5  -1  195.78   15.60
   6  -5   1  203.18   23.90
   6  -5   1  162.78    8.80
  -6  -5  -1  190.98    7.40
   6  -5   1  190.88   24.80
  -6   5  -1  191.08    7.30
   6   5   1  181.78    7.10
  -6   5  -1  186.48   18.60
  -6   5  -1  178.98   19.00
  -6   5  -1  187.18   22.90
   6   5   1  173.88    7.30
  -6   5  -1  176.88    8.70
  -7  -5  -1   -1.50   10.80
   7  -5   1    3.40   18.30
  -7  -5  -1    4.30    2.10
  -7  -5  -1    2.40   11.40
   7  -5   1   -4.00   13.00
   7  -5   1    3.00   14.00
  -7  -5  -1    4.40   10.90
  -7  -5  -1    3.10    2.50
  -7   5  -1    8.00   17.50
  -7   5  -1   -6.90   12.90
  -7   5  -1    5.20   12.90
   7   5   1    4.10    2.40
   7   5   1   -0.10    1.80
  -7   5  -1    4.90    2.30
   8  -5   1  123.89   18.80
  -8  -5  -1   80.89    7.20
  -8  -5  -1   95.19   15.40
   8  -5   1  108.19   26.90
  -8  -5  -1  113.69   16.10
   8  -5   1   99.49   19.80
  -8   5  -1  114.79   24.50
  -8   5  -1  110.99   18.60
  -8   5  -1   97.79   18.90
   7  -6  -1    2.00   15.40
  -7  -6   1   -2.60    2.00
  -7  -6   1   -0.90   10.50
  -7  -6   1    3.50   13.00
   7  -6  -1   -0.50   14.70
  -7  -6   1   -0.50   10.60
   7  -6  -1   -8.60   19.60
  -7   6   1  -10.00   17.50
  -7   6   1    4.70   15.80
  -7   6   1    1.90   13.70
  -6  -6   1  390.36   17.70
   6  -6  -1  412.96   24.80
   6  -6  -1  403.96   22.40
  -6  -6   1  386.86   18.10
  -6  -6   1  373.26   13.10
  -6  -6   1  400.06   12.70
   6  -6  -1  393.36   15.20
  -6  -6   1  396.16   22.10
   6  -6  -1  372.06   27.60
  -6   6   1  405.46   21.30
  -6   6   1  380.76   13.40
   6   6  -1  379.26   14.00
  -6   6   1  397.06   23.30
  -6   6   1  368.26   26.70
   6   6  -1  379.16   12.70
  -5  -6   1  198.38   11.50
   5  -6  -1  222.38    8.50
  -5  -6   1  200.38    7.40
  -5  -6   1  221.98    7.90
  -5  -6   1  203.48    8.40
   5  -6  -1  227.98   18.10
   5  -6  -1  219.48   10.60
   5  -6  -1  216.38   16.40
  -5  -6   1  215.38   16.40
  -5  -6   1  204.78   11.40
   5  -6  -1  200.08   20.10
  -5  -6   1  215.88    7.20
  -5   6   1  223.38    8.10
  -5   6   1  210.78   17.30
  -5   6   1  199.48   19.60
  -5   6   1  214.78    8.60
   5   6  -1  209.08    7.40
   5   6  -1  199.38    7.20
  -5   6   1  204.08   15.10
   4  -6  -1  250.57    9.60
  -4  -6   1  256.87    9.10
  -4  -6   1  245.48   14.70
   4  -6  -1  245.38    9.90
   4  -6  -1  224.18   17.00
   4  -6  -1  234.98    9.00
   4  -6  -1  249.38   15.40
  -4  -6   1  232.28    9.40
  -4  -6   1  243.48    7.70
  -4  -6   1  231.78    8.00
  -4  -6   1  239.28    9.90
   4  -6  -1  217.28   14.80
  -4   6   1  246.68    8.70
   4   6  -1  248.78    7.90
  -4   6   1  249.97    9.90
  -4   6   1  247.48   15.40
  -4   6   1  222.38   13.50
  -4   6   1  242.38    9.20
  -4   6   1  219.18   16.50
   4   6  -1  248.28    7.60
   3  -6  -1 1614.74   50.89
  -3  -6   1 1593.94   47.40
  -3  -6   1 1664.73   49.10
   3  -6  -1 1667.43   49.50
   3  -6  -1 1670.13   49.20
  -3  -6   1 1614.74   50.09
   3  -6  -1 1663.43   48.60
   3  -6  -1 1606.84   49.50
  -3  -6   1 1615.84   47.40
  -3  -6   1 1621.64   48.50
   3  -6  -1 1612.44   50.19
  -3   6   1 1580.84   50.29
  -3   6   1 1662.63   48.40
  -3   6   1 1685.93   49.80
  -3   6   1 1678.63   48.40
  -3   6   1 1572.14   50.59
  -3   6   1 1568.04   49.00
   2  -6  -1   35.30    4.40
   2  -6  -1   20.90    2.90
   2  -6  -1   25.70    5.50
  -2  -6   1   30.00    6.10
   2  -6  -1   23.30    6.50
  -2  -6   1   33.10    4.30
   2  -6  -1   26.20    2.70
   2  -6  -1   20.20    5.00
  -2   6   1   33.20    6.30
  -2   6   1   29.70    2.00
  -2   6   1   22.00    2.60
  -2   6   1   29.40    2.60
  -2   6   1   15.60    5.60
  -2   6   1   19.90    4.10
  -1  -6   1 1559.24   48.00
  -1  -6   1 1646.84   48.10
   1  -6  -1 1623.94   49.60
  -1  -6   1 1651.23   49.10
  -1  -6   1 1693.13   49.60
   1  -6  -1 1686.63   48.50
   1  -6  -1 1602.04   48.80
   1  -6  -1 1686.43   49.40
   1  -6  -1 1665.23   48.80
  -1  -6   1 1645.54   47.90
   1  -6  -1 1665.43   49.90
  -1  -6   1 1611.84   48.70
   1  -6  -1 1713.03   49.10
  -1  -6   1 1566.64   48.40
  -1   6   1 1639.04   49.99
  -1   6   1 1668.33   48.60
  -1   6   1 1734.13   49.30
  -1   6   1 1621.94   49.00
   1   6  -1 1626.04   49.99
   1   6  -1 1648.34   48.10
   1   6  -1 1664.53   48.10
   0  -6   1  909.41   28.60
   0  -6  -1  908.81   27.40
   0  -6   1  940.31   27.00
   0  -6   1  934.71   27.30
   0  -6  -1  911.61   29.00
   0  -6   1  913.91   28.40
   0  -6   1  933.21   27.60
   0  -6   1  911.41   27.60
   0  -6  -1  885.31   28.30
   0  -6  -1  884.51   28.30
   0  -6   1  954.50   28.30
   0  -6  -1  940.71   28.10
   0  -6  -1  915.61   27.10
   0  -6  -1  861.31   27.90
   0   6   1  890.51   29.10
   0   6   1  947.31   27.90
   0   6   1  934.71   27.60
   0   6  -1  907.41   29.40
   0   6  -1  950.60   27.70
   0   6  -1  958.70   27.90
   1  -6   1  690.03   21.10
   1  -6   1  676.23   22.10
  -1  -6  -1  681.23   22.10
   1  -6   1  661.73   22.30
  -1  -6  -1  691.53   20.80
   1  -6   1  658.93   21.30
   1  -6   1  695.63   20.50
   1  -6   1  710.73   21.30
  -1  -6  -1  639.04   21.80
  -1   6  -1  633.74   21.50
  -1   6  -1  655.23   22.60
  -1   6  -1  671.33   21.00
  -1   6  -1  664.63   21.20
  -1   6  -1  687.73   19.90
   1   6   1  655.23   22.20
   2  -6   1 1684.33   49.10
   2  -6   1 1649.93   49.60
  -2  -6  -1 1637.04   49.30
   2  -6   1 1600.64   48.60
  -2  -6  -1 1654.73   48.50
   2  -6   1 1679.13   49.30
   2  -6   1 1592.74   49.00
  -2  -6  -1 1587.14   49.30
   2  -6   1 1584.84   50.09
  -2  -6  -1 1610.74   49.20
  -2   6  -1 1616.84   49.99
  -2   6  -1 1591.24   49.99
  -2   6  -1 1616.74   47.70
  -2   6  -1 1691.73   48.10
  -2   6  -1 1677.33   48.90
  -2   6  -1 1592.54   48.60
  -2   6  -1 1678.63   49.30
   3  -6   1    1.20    6.00
  -3  -6  -1    8.40    1.30
   3  -6   1    7.00    1.50
  -3  -6  -1    8.60    5.50
   3  -6   1    4.70    7.50
   3  -6   1    3.80    2.10
  -3  -6  -1    7.10    6.50
   3  -6   1    3.90    6.10
   3  -6   1    3.10    1.60
  -3   6  -1    3.00    5.60
  -3   6  -1    1.50    1.80
  -3   6  -1    5.30    7.20
  -3   6  -1    2.10    7.70
  -3   6  -1    5.90    1.00
  -3   6  -1    5.60    1.70
  -4  -6  -1 1021.90   32.60
   4  -6   1 1039.00   32.80
   4  -6   1 1009.30   34.20
   4  -6   1 1033.00   35.80
  -4  -6  -1 1013.40   34.10
   4  -6   1  994.80   33.30
  -4  -6  -1 1038.70   32.00
  -4  -6  -1  964.60   30.30
   4  -6   1 1045.10   31.50
   4  -6   1  998.30   31.90
  -4  -6  -1 1028.00   30.10
  -4  -6  -1  983.60   30.70
  -4   6  -1  995.20   33.20
  -4   6  -1 1036.70   32.80
  -4   6  -1 1008.70   31.80
  -4   6  -1 1080.49   31.20
  -4   6  -1 1037.10   35.90
  -4   6  -1 1030.70   30.80
  -4   6  -1 1010.20   34.20
   5  -6   1  309.87   22.40
   5  -6   1  288.47   18.70
  -5  -6  -1  290.47   10.00
   5  -6   1  293.27   10.70
  -5  -6  -1  289.17   10.10
  -5  -6  -1  300.27   15.90
   5  -6   1  286.47   12.20
  -5  -6  -1  291.57    9.40
  -5  -6  -1  285.37   13.30
   5  -6   1  307.77   19.50
  -5  -6  -1  280.17   13.00
   5   6   1  280.47    9.40
   5   6   1  281.97    9.30
  -5   6  -1  299.17   22.30
  -5   6  -1  298.07   19.40
  -5   6  -1  312.57   10.50
  -5   6  -1  289.47   18.20
  -5   6  -1  289.57   10.20
  -6  -6  -1   76.69   10.40
  -6  -6  -1   72.59    8.90
  -6  -6  -1   72.49    4.20
  -6  -6  -1   77.09    4.50
   6  -6   1   61.39   16.00
   6  -6   1   75.59   12.80
  -6  -6  -1   71.99    8.50
   6  -6   1   76.19   13.70
  -6  -6  -1   74.49    3.90
   6   6   1   70.39    4.10
   6   6   1   71.79    4.30
  -6   6  -1   74.49   16.30
   6   6   1   64.19    3.50
  -6   6  -1   88.19   14.40
  -6   6  -1   63.59    4.10
   7  -6   1  215.18   33.80
   7  -6   1  193.48   26.30
  -7  -6  -1  189.08    8.50
  -7  -6  -1  186.48   21.30
  -7  -6  -1  203.08   20.30
  -7  -6  -1  183.98    7.50
  -7  -6  -1  203.78    7.70
   7  -6   1  206.58   28.00
  -7  -6  -1  174.18   18.70
  -7  -6  -1  177.88    7.90
  -7   6  -1  205.38   27.50
  -7   6  -1  202.98   32.50
  -7   6  -1  203.48   26.90
   7   6   1  195.18    7.80
  -7   6  -1  173.08    8.50
  -7  -7   1   87.89   10.70
  -7  -7   1   90.99    5.80
   7  -7  -1   87.89   18.40
   7  -7  -1   66.99   23.40
  -7  -7   1   68.59    4.80
  -7  -7   1   98.39   12.50
  -7  -7   1   85.19    5.00
   7  -7  -1   79.69   17.60
  -7  -7   1   87.19    6.10
  -7   7   1   77.19   18.00
   7   7  -1   76.49    5.10
  -7   7   1   86.59   15.90
  -7   7   1   76.99   21.20
   6  -7  -1   84.79   17.70
   6  -7  -1  100.39    7.10
   6  -7  -1   76.49   14.70
  -6  -7   1   94.09    5.40
  -6  -7   1   78.49    4.20
  -6  -7   1   88.49   12.80
  -6  -7   1   89.89    9.30
   6  -7  -1   93.59   14.10
  -6  -7   1   79.59   11.40
  -6   7   1   92.19   14.90
   6   7  -1   78.19    5.10
  -6   7   1   77.09   16.30
  -6   7   1   81.09   16.10
  -6   7   1   97.79    4.90
  -5  -7   1  191.18   13.10
  -5  -7   1  193.98    6.60
  -5  -7   1  189.78   11.60
   5  -7  -1  200.48    9.20
  -5  -7   1  192.58    8.80
   5  -7  -1  191.78    9.70
   5  -7  -1  184.58   18.90
   5  -7  -1  190.98    8.20
  -5  -7   1  172.78    9.50
  -5  -7   1  206.28   18.30
  -5  -7   1  200.18    8.00
  -5   7   1  187.58    7.50
  -5   7   1  211.88    8.10
  -5   7   1  206.48   21.00
  -5   7   1  183.58   17.00
  -5   7   1  182.78   22.00
   4  -7  -1  444.36   23.00
   4  -7  -1  475.05   16.10
  -4  -7   1  485.25   15.70
   4  -7  -1  489.45   16.80
  -4  -7   1  494.05   21.10
   4  -7  -1  490.55   22.10
   4  -7  -1  473.05   15.60
   4  -7  -1  463.75   20.90
  -4  -7   1  474.65   17.40
  -4  -7   1  450.65   15.70
  -4  -7   1  472.55   14.20
  -4   7   1  412.96   16.20
  -4   7   1  476.45   22.00
  -4   7   1  485.65   15.10
  -4   7   1  449.86   19.40
  -4   7   1  426.46   22.60
  -3  -7   1   29.30    8.70
   3  -7  -1   16.30    2.40
   3  -7  -1   16.50    6.90
   3  -7  -1    7.50    8.30
   3  -7  -1   33.30    3.20
   3  -7  -1   22.00    3.00
   3  -7  -1   23.10    7.80
  -3  -7   1   25.70    2.70
   3  -7  -1   25.60    3.80
  -3  -7   1   25.10    5.30
  -3   7   1   22.50    7.60
  -3   7   1   28.70    2.30
  -3   7   1   21.80    6.10
  -3   7   1   16.20    8.80
  -3   7   1   27.40    2.70
  -3   7   1   20.70    3.10
  -3   7   1   19.40    2.10
  -2  -7   1 1151.58   36.40
   2  -7  -1 1175.28   38.00
   2  -7  -1 1131.69   37.70
   2  -7  -1 1195.18   35.50
   2  -7  -1 1231.58   36.40
  -2  -7   1 1201.08   38.30
   2  -7  -1 1220.58   36.40
   2  -7  -1 1152.78   35.90
   2  -7  -1 1187.98   36.70
  -2  -7   1 1228.08   36.20
  -2  -7   1 1174.18   36.10
  -2   7   1 1157.38   35.20
  -2   7   1 1186.28   36.20
  -2   7   1 1135.69   35.50
  -2   7   1 1193.68   35.40
  -2   7   1 1249.07   36.60
  -2   7   1 1147.79   37.60
  -2   7   1 1164.48   38.00
  -1  -7   1   52.29    2.20
   1  -7  -1   38.90    5.20
  -1  -7   1   55.99    5.70
   1  -7  -1   51.09    3.50
  -1  -7   1   51.39    2.20
   1  -7  -1   44.10    2.80
   1  -7  -1   42.80    3.20
   1  -7  -1   39.70    6.30
  -1  -7   1   47.80    6.90
   1  -7  -1   35.90    5.90
  -1  -7   1   49.90    3.30
   1  -7  -1   54.09    6.90
  -1  -7   1   50.59    5.60
  -1  -7   1   45.70    2.40
  -1   7   1   70.39    8.00
   1   7  -1   60.79    7.40
  -1   7   1   53.69    3.10
  -1   7   1   59.79    3.30
   1   7  -1   58.69    2.10
  -1   7   1   50.89    3.00
  -1   7   1   56.49    2.60
   0  -7  -1  463.05   15.00
   0  -7  -1  451.55   14.30
   0  -7   1  471.05   13.60
   0  -7  -1  443.56   15.40
   0  -7  -1  460.15   17.30
   0  -7   1  454.95   14.10
   0  -7   1  460.15   16.80
   0  -7  -1  453.85   13.80
   0  -7  -1  438.66   16.00
   0  -7   1  462.55   15.10
   0  -7  -1  447.46   15.00
   0  -7   1  446.86   16.10
   0  -7   1  450.75   14.30
   0  -7   1  447.36   15.10
   0   7  -1  425.96   18.00
   0   7   1  456.55   14.00
   0   7   1  466.15   14.00
   0   7   1  427.86   17.50
  -1  -7  -1  710.13   24.00
  -1  -7  -1  703.23   20.80
  -1  -7  -1  676.93   23.50
   1  -7   1  687.93   23.90
   1  -7   1  729.73   21.60
   1  -7   1  715.63   22.50
  -1  -7  -1  715.13   20.80
   1  -7   1  692.43   22.70
  -1  -7  -1  725.53   22.20
   1  -7   1  724.13   22.20
   1  -7   1  704.93   23.90
  -1   7  -1  708.93   22.10
   1   7   1  684.43   24.10
  -1   7  -1  665.03   24.70
  -1   7  -1  724.73   22.20
  -1   7  -1  731.73   22.20
   2  -7   1   48.20    6.30
  -2  -7  -1   48.00    6.80
   2  -7   1   39.70    3.60
  -2  -7  -1   57.09    3.20
   2  -7   1   53.99    3.30
  -2  -7  -1   53.09    6.30
   2  -7   1   43.50    6.90
   2  -7   1   51.59    7.90
   2  -7   1   52.69    4.60
  -2  -7  -1   50.39    7.00
  -2   7  -1   35.00    7.00
  -2   7  -1   49.80    2.40
  -2   7  -1   50.79    2.00
  -2   7  -1   49.50    5.50
  -2   7  -1   34.50    7.30
  -2   7  -1   42.20    4.20
  -2   7  -1   42.70    3.20
   3  -7   1  589.44   19.40
  -3  -7  -1  603.64   21.60
   3  -7   1  608.24   23.20
  -3  -7  -1  611.34   18.80
   3  -7   1  624.04   19.00
   3  -7   1  587.64   24.20
  -3  -7  -1  596.34   21.70
  -3  -7  -1  592.44   22.30
   3  -7   1  586.84   22.10
   3  -7   1  603.24   20.00
  -3   7  -1  602.64   23.40
  -3   7  -1  568.44   18.50
  -3   7  -1  584.64   19.20
  -3   7  -1  563.54   23.90
  -3   7  -1  586.24   20.90
  -3   7  -1  584.74   20.00
  -3   7  -1  550.74   20.00
   4  -7   1   64.69    9.90
  -4  -7  -1   73.99    3.80
  -4  -7  -1   78.09   10.10
   4  -7   1   75.69    4.40
   4  -7   1   76.79    4.40
  -4  -7  -1   74.39    8.40
  -4  -7  -1   67.99    2.70
  -4  -7  -1   63.89    3.40
   4  -7   1   59.89    9.30
   4  -7   1   72.09   12.20
  -4   7  -1   54.89   11.30
  -4   7  -1   72.79    8.90
  -4   7  -1   73.49   10.50
  -4   7  -1   71.89    3.30
  -4   7  -1   61.69    4.40
  -4   7  -1   65.79    3.80
  -5  -7  -1  215.78    8.00
  -5  -7  -1  219.68   16.00
   5  -7   1  207.58   23.60
  -5  -7  -1  228.68   19.90
   5  -7   1  188.88   28.90
  -5  -7  -1  208.78    7.30
   5  -7   1  224.98   10.10
   5  -7   1  233.58   10.40
  -5  -7  -1  198.38   12.00
   5  -7   1  193.08   28.30
  -5   7  -1  216.38    8.60
  -5   7  -1  205.08   18.00
  -5   7  -1  219.58    7.80
  -5   7  -1  211.78   22.60
  -5   7  -1  205.68   23.30
   6  -7   1  100.49   14.80
  -6  -7  -1  133.09    5.90
   6  -7   1  125.59   14.80
   6  -7   1  112.49   18.60
  -6  -7  -1  124.99   12.00
  -6  -7  -1  132.79    5.90
  -6  -7  -1  124.29   11.20
  -6  -7  -1  110.19   11.90
  -6  -7  -1  123.19    5.00
  -6  -7  -1  125.49   15.00
  -6  -7  -1  124.89   15.60
  -6   7  -1  136.09   16.60
  -6   7  -1  119.09   18.80
   6   7   1  100.49    4.80
  -6   7  -1  113.39   14.20
  -7  -7  -1   16.50    2.90
   7  -7   1   11.80   17.60
  -7  -7  -1   12.50    2.70
  -7  -7  -1   11.80    4.30
  -7  -7  -1   10.50   12.50
   7  -7   1    1.30   16.60
   7  -7   1    7.60   23.30
  -7  -7  -1   15.90   13.20
  -7  -7  -1    8.30   10.30
  -7   7  -1   19.20   17.60
  -7   7  -1   15.70   16.40
  -7   7  -1    2.80    5.00
  -7   7  -1    8.40   22.80
  -6  -8   1  160.18    6.10
  -6  -8   1  161.88   16.20
  -6  -8   1  160.08   23.70
   6  -8  -1  150.18   17.80
  -6  -8   1  155.38   15.70
  -6  -8   1  136.59    6.50
   6  -8  -1  143.09    9.50
  -6  -8   1  167.68    7.50
   6  -8  -1  175.18   17.60
   6  -8  -1  157.28   22.40
  -6   8   1  129.69   19.30
  -6   8   1  183.68    6.90
  -6   8   1  171.78   23.90
  -6   8   1  185.98   19.60
  -5  -8   1   29.60    2.40
  -5  -8   1   37.80    7.90
   5  -8  -1   28.70   12.30
   5  -8  -1   36.40   15.30
   5  -8  -1   35.40    4.50
  -5  -8   1   35.60    6.80
  -5  -8   1   32.20   11.80
  -5  -8   1   38.70    4.20
   5  -8  -1   35.30   13.50
  -5   8   1   31.70   15.40
  -5   8   1   29.70    3.30
  -5   8   1   38.00   10.80
  -5   8   1   37.10   12.70
  -5   8   1   40.00    3.30
   4  -8  -1  136.39    6.60
   4  -8  -1  144.69   21.40
   4  -8  -1  126.59   15.90
   4  -8  -1  134.99   20.10
  -4  -8   1  133.59   16.40
   4  -8  -1  145.19    7.40
  -4  -8   1  137.59   12.30
   4  -8  -1  143.49    6.70
  -4  -8   1  147.59   17.90
  -4  -8   1  140.19    4.70
  -4  -8   1  137.39    6.20
  -4  -8   1  136.29   13.00
  -4   8   1  132.89    5.80
  -4   8   1  135.79    6.40
  -4   8   1  131.49   19.50
  -4   8   1  131.99   14.30
  -4   8   1  125.39   15.50
   3  -8  -1  421.86   19.20
  -3  -8   1  444.66   22.00
   3  -8  -1  424.46   21.50
   3  -8  -1  443.96   15.60
  -3  -8   1  428.46   18.70
   3  -8  -1  434.06   15.00
   3  -8  -1  432.36   21.10
  -3  -8   1  429.26   17.10
   3  -8  -1  418.26   15.00
   3  -8  -1  436.86   14.50
  -3  -8   1  441.06   14.70
  -3   8   1  418.26   17.00
  -3   8   1  418.36   21.30
  -3   8   1  441.26   13.80
  -3   8   1  428.06   21.30
  -3   8   1  439.36   14.00
  -3   8   1  437.66   15.00
  -3   8   1  433.26   15.10
   2  -8  -1   27.50    3.20
   2  -8  -1   27.90    8.10
   2  -8  -1   19.30    6.80
  -2  -8   1   32.20    1.60
  -2  -8   1   36.80    6.70
   2  -8  -1   28.90    3.30
  -2  -8   1   23.20    3.40
   2  -8  -1   24.70    8.40
  -2  -8   1   27.90    8.80
  -2  -8   1   30.20    6.10
   2  -8  -1   22.70    3.20
  -2  -8   1   36.30    1.60
   2  -8  -1   33.40    5.60
  -2   8   1   32.60    2.20
  -2   8   1   26.70    8.90
  -2   8   1   18.50    7.80
  -1  -8   1  745.63   24.90
  -1  -8   1  761.12   23.90
  -1  -8   1  772.12   23.40
  -1  -8   1  795.72   25.00
   1  -8  -1  764.52   26.40
  -1  -8   1  771.32   24.20
  -1  -8   1  807.32   26.10
   1  -8  -1  771.22   25.00
   1  -8  -1  773.12   25.40
   1  -8  -1  799.42   24.40
   1  -8  -1  805.62   24.90
   1  -8  -1  799.02   27.60
  -1   8   1  779.72   27.90
   1   8  -1  748.43   23.30
  -1   8   1  821.22   24.90
   1   8  -1  776.02   28.00
   1   8  -1  748.13   23.40
  -1   8   1  811.62   24.40
  -1   8   1  816.22   24.50
  -1   8   1  820.82   23.90
   0  -8   1  822.42   27.50
   0  -8  -1  809.02   26.90
   0  -8  -1  879.71   26.80
   0  -8  -1  843.52   29.00
   0  -8   1  848.92   28.40
   0  -8   1  845.52   25.20
   0  -8   1  879.01   26.00
   0  -8  -1  849.12   25.60
   0  -8  -1  823.32   27.30
   0  -8   1  875.61   27.10
   0  -8  -1  865.61   26.30
   0  -8  -1  828.62   26.50
   0  -8   1  856.01   25.70
   0  -8   1  841.42   26.80
   0   8   1  865.01   25.80
   0   8   1  861.31   29.50
   0   8   1  864.51   25.70
   0   8  -1  894.71   26.60
   0   8  -1  883.31   30.20
   0   8  -1  875.51   26.00
   1  -8   1  650.53   20.10
   1  -8   1  629.94   23.20
  -1  -8  -1  634.24   19.30
   1  -8   1  633.34   21.90
   1  -8   1  643.14   20.60
   1  -8   1  652.73   21.10
   1  -8   1  630.84   23.40
  -1  -8  -1  654.13   19.20
  -1  -8  -1  615.14   22.60
  -1  -8  -1  660.53   20.60
  -1  -8  -1  648.24   23.40
   1   8   1  644.04   23.90
  -1   8  -1  654.43   20.50
  -1   8  -1  669.63   20.70
  -1   8  -1  635.34   24.50
  -1   8  -1  658.83   20.60
   2  -8   1  750.22   26.90
   2  -8   1  761.82   24.00
   2  -8   1  754.52   24.00
   2  -8   1  747.53   25.50
  -2  -8  -1  740.33   27.00
  -2  -8  -1  733.23   23.30
  -2  -8  -1  691.83   26.00
   2  -8   1  731.53   27.40
  -2  -8  -1  746.53   26.10
   2  -8   1  751.92   23.10
  -2   8  -1  718.33   27.40
  -2   8  -1  759.52   22.10
  -2   8  -1  730.93   23.80
  -2   8  -1  737.53   23.60
  -2   8  -1  764.72   23.80
  -2   8  -1  746.43   27.10
   3  -8   1   10.40    9.70
  -3  -8  -1   11.50    8.60
   3  -8   1   -0.80    2.30
  -3  -8  -1    8.00    7.10
   3  -8   1    0.20    8.20
  -3  -8  -1    4.80    1.60
   3  -8   1    0.30    2.10
  -3  -8  -1    6.90    8.60
   3  -8   1    3.90    9.80
  -3   8  -1    1.90    7.10
  -3   8  -1    7.00    9.90
  -3   8  -1    3.50    1.80
  -3   8  -1    4.30    2.00
  -3   8  -1    0.20    1.20
  -3   8  -1   -0.60    9.70
  -4  -8  -1  175.48   15.80
  -4  -8  -1  169.28   15.30
   4  -8   1  177.78   17.70
   4  -8   1  177.48   18.80
  -4  -8  -1  177.98    5.50
   4  -8   1  171.58   24.90
  -4  -8  -1  174.88   17.90
   4  -8   1  179.68    8.50
   4  -8   1  181.08    7.50
  -4  -8  -1  162.58    6.80
   4  -8   1  142.89    9.10
  -4   8  -1  172.08    6.10
  -4   8  -1  170.68   21.00
  -4   8  -1  165.88   20.70
  -4   8  -1  172.28   15.50
  -4   8  -1  176.58    6.60
  -5  -8  -1   92.99    4.70
  -5  -8  -1   88.49   11.10
  -5  -8  -1   84.99   10.80
  -5  -8  -1   78.59    3.50
  -5  -8  -1   81.09   13.20
  -5  -8  -1   81.89   11.00
   5  -8   1   80.89   13.20
   5  -8   1  101.09   15.20
   5  -8   1   74.99   16.10
  -5   8  -1   65.39   13.60
  -5   8  -1   76.39   16.10
  -5   8  -1   88.19    5.30
  -5   8  -1   89.79   11.80
   6  -8   1   18.50   19.90
  -6  -8  -1   26.20    9.90
  -6  -8  -1   31.80    3.20
   6  -8   1   12.90   15.70
  -6  -8  -1   32.60   12.70
   6  -8   1   26.60   15.60
  -6  -8  -1   24.50   16.20
  -6   8  -1   27.90   14.40
  -6   8  -1   29.20   18.00
  -6   8  -1   29.70   20.70
  -6  -9   1   48.00   10.80
   6  -9  -1   34.30   19.10
  -6  -9   1   45.50   17.90
  -6  -9   1   37.80   16.30
   6  -9  -1   25.90    5.60
   6  -9  -1   47.80   18.10
  -6   9   1   35.50   18.50
   5  -9  -1   40.50   18.20
   5  -9  -1   58.39   14.50
  -5  -9   1   41.00   14.10
   5  -9  -1   49.60   16.10
  -5  -9   1   48.80   14.40
   5  -9  -1   48.80    6.10
  -5  -9   1   50.09    9.40
  -5  -9   1   51.89    7.70
  -5  -9   1   48.70    2.70
  -5   9   1   47.80    3.80
  -5   9   1   44.80   12.40
  -5   9   1   35.40   17.10
  -5   9   1   54.79    3.90
  -5   9   1   31.00   15.40
   4  -9  -1  260.87   24.90
  -4  -9   1  278.57   20.50
   4  -9  -1  278.17   11.50
  -4  -9   1  286.27   23.10
   4  -9  -1  280.67   24.10
   4  -9  -1  281.77   20.10
  -4  -9   1  266.57   16.10
  -4  -9   1  248.88   10.20
  -4  -9   1  260.87    8.30
  -4   9   1  265.17   23.50
  -4   9   1  271.37    9.10
  -4   9   1  271.77   17.50
  -4   9   1  248.08   23.80
  -3  -9   1   76.19    5.90
   3  -9  -1   75.89    4.40
  -3  -9   1   70.99    9.70
   3  -9  -1   71.39    4.90
  -3  -9   1   80.29    8.20
   3  -9  -1   66.79   13.70
   3  -9  -1   70.39   12.30
   3  -9  -1   62.09    4.80
  -3  -9   1   67.59   12.20
   3  -9  -1   62.59   10.20
   3  -9  -1   57.39    5.10
  -3   9   1   63.29   11.40
  -3   9   1   64.49    3.00
  -3   9   1   63.99   11.70
  -3   9   1   70.39    7.70
  -3   9   1   73.19    3.40
  -2  -9   1  680.13   28.60
  -2  -9   1  678.93   24.50
  -2  -9   1  669.13   22.10
  -2  -9   1  638.54   24.00
   2  -9  -1  687.53   22.10
   2  -9  -1  689.13   25.00
   2  -9  -1  701.83   27.60
   2  -9  -1  677.73   21.60
   2  -9  -1  671.93   26.30
  -2  -9   1  656.23   20.30
   2  -9  -1  676.63   22.20
  -2   9   1  678.83   22.20
  -2   9   1  722.13   23.70
  -2   9   1  694.63   20.90
  -2   9   1  671.23   26.20
  -2   9   1  687.23   28.10
   1  -9  -1   23.40    2.70
   1  -9  -1   21.10    7.30
   1  -9  -1   31.90    9.50
   1  -9  -1   25.60    3.50
  -1  -9   1   30.90    5.30
   1  -9  -1   23.20    7.00
  -1  -9   1   27.30    7.50
  -1  -9   1   26.90    5.80
  -1  -9   1   29.60    2.00
   1  -9  -1   24.10    2.60
   1  -9  -1   27.90    5.90
  -1  -9   1   27.60    3.00
  -1   9   1   24.40    9.10
   0  -9  -1  182.68   11.40
   0  -9  -1  186.88    6.50
   0  -9  -1  184.38   10.90
   0  -9  -1  193.58    7.60
   0  -9  -1  193.18   15.80
   0  -9  -1  189.78    6.50
   0  -9   1  180.08   11.60
   0  -9   1  187.28    6.60
   0  -9  -1  177.88   10.90
   0  -9   1  187.38   12.60
   0  -9   1  180.88    7.70
   0  -9   1  195.18   14.70
   0   9  -1  185.48    6.60
   0   9  -1  178.38   17.30
   0   9   1  169.58   16.40
   0   9   1  182.88    6.30
   0   9  -1  181.98    6.60
   0   9   1  180.38    6.40
   0   9  -1  192.18    7.90
   1  -9   1  386.46   19.00
   1  -9   1  412.16   13.10
  -1  -9  -1  388.16   18.70
  -1  -9  -1  358.96   17.00
  -1  -9  -1  383.56   13.30
  -1  -9  -1  367.56   13.70
   1  -9   1  377.26   16.80
   1  -9   1  372.46   18.30
  -1  -9  -1  378.86   11.70
   1  -9   1  379.26   13.50
   1  -9   1  386.16   12.50
  -1   9  -1  377.66   13.10
  -1   9  -1  384.96   12.80
  -1   9  -1  382.66   20.90
  -1   9  -1  379.86   12.90
   1   9   1  381.46   19.90
  -2  -9  -1    7.00    1.90
  -2  -9  -1    9.40    8.70
  -2  -9  -1    7.60    9.70
  -2  -9  -1   11.70    8.30
   2  -9   1    3.70    8.10
   2  -9   1    2.70    9.30
   2  -9   1    4.40    3.10
   2  -9   1    7.20    9.20
  -2   9  -1    2.90    9.40
  -2   9  -1    4.70    2.80
  -2   9  -1    2.10   12.10
  -2   9  -1    3.20    1.80
   3  -9   1  311.97   11.50
   3  -9   1  297.57   21.40
  -3  -9  -1  297.37   18.30
  -3  -9  -1  315.37   20.50
  -3  -9  -1  292.17   10.60
   3  -9   1  290.87   22.00
  -3  -9  -1  303.17   20.10
   3  -9   1  292.07   18.80
   3  -9   1  286.27   11.30
  -3   9  -1  282.87   22.50
  -3   9  -1  294.77   15.80
  -3   9  -1  294.17   21.50
  -3   9  -1  294.37    9.50
  -4  -9  -1   55.79   11.10
  -4  -9  -1   51.19   12.70
  -4  -9  -1   39.30    4.60
   4  -9   1   53.69   14.30
  -4  -9  -1   44.90   10.00
   4  -9   1   51.49   15.10
  -4   9  -1   51.89   13.80
  -4   9  -1   43.40   13.90
  -4   9  -1   52.09   10.70
  -4   9  -1   48.10    3.30
  -4   9  -1   49.99    2.60
  -5  -9  -1  123.59   12.10
  -5  -9  -1  114.69    5.90
  -5  -9  -1  139.59   13.80
   5  -9   1  133.29   20.10
  -5  -9  -1  125.09    4.40
   5  -9   1  133.49   16.10
   5  -9   1  117.39   16.80
  -5  -9  -1  110.69   12.60
  -5   9  -1  105.39    5.60
  -5   9  -1  125.19   17.60
  -5   9  -1   98.49   18.20
  -5   9  -1  130.69   13.80
  -5 -10   1   19.80   16.10
  -5 -10   1   24.40    9.70
  -5 -10   1   17.30   10.80
   5 -10  -1   32.60   18.90
   5 -10  -1   30.40   19.70
  -5 -10   1   21.30   18.10
   5 -10  -1   19.70   16.70
  -5  10   1   10.30   13.50
  -5  10   1   24.10   20.90
  -5  10   1   19.80   18.90
   4 -10  -1   29.20    4.20
  -4 -10   1   32.50   15.40
  -4 -10   1   36.00   13.20
   4 -10  -1   30.60   15.70
   4 -10  -1   35.50   14.00
  -4 -10   1   31.70    9.70
   4 -10  -1   27.20   15.40
  -4  10   1   44.00   16.50
  -4  10   1   24.30   10.40
  -4  10   1   31.20   16.60
   3 -10  -1  273.57    9.90
  -3 -10   1  220.08    8.00
   3 -10  -1  259.37   23.20
  -3 -10   1  286.47   25.70
   3 -10  -1  262.37   20.90
  -3 -10   1  256.47   17.50
  -3 -10   1  230.18    9.90
  -3 -10   1  257.27   19.30
   3 -10  -1  256.67   11.30
   3 -10  -1  282.67   24.50
  -3  10   1  264.97   25.50
  -3  10   1  261.67   23.40
   2 -10  -1   13.80    9.60
  -2 -10   1   15.50    8.70
  -2 -10   1   13.70    1.80
  -2 -10   1   15.40   13.60
   2 -10  -1   17.90    2.70
   2 -10  -1   18.90   10.30
  -2 -10   1   19.10    2.90
  -2 -10   1   28.80    8.90
   2 -10  -1   22.60    2.60
  -2 -10   1   19.90    5.90
  -2  10   1   19.70    2.10
  -2  10   1   13.70   13.50
  -2  10   1   14.30    2.40
   1 -10  -1  356.36   13.00
   1 -10  -1  335.87   18.30
   1 -10  -1  356.16   12.00
  -1 -10   1  329.47   14.40
  -1 -10   1  336.77   12.90
   1 -10  -1  360.86   12.30
  -1 -10   1  349.17   11.20
   1 -10  -1  383.26   22.40
   1 -10  -1  349.77   15.50
  -1 -10   1  356.16   19.10
  -1 -10   1  355.16   19.70
   1 -10  -1  350.26   17.80
  -1  10   1  375.26   12.00
  -1  10   1  310.37   27.30
   0 -10  -1  176.08   13.00
   0 -10  -1  176.88   12.00
   0 -10  -1  194.88   18.60
   0 -10   1  186.68    6.90
   0 -10   1  181.88   17.20
   0 -10   1  172.68    6.60
   0 -10   1  185.48   13.60
   0 -10  -1  202.98    8.00
   0 -10  -1  174.98   12.50
   0 -10  -1  160.48    8.00
   0 -10   1  185.78   14.00
   0 -10   1  172.88    7.90
   0  10   1  178.18    6.20
   0  10   1  167.88    6.10
   0  10  -1  197.78    6.50
   0  10  -1  193.08   22.60
   0  10   1  182.48   20.20
   0  10  -1  181.68    6.50
   1 -10   1  142.39   16.40
  -1 -10  -1  142.29    5.00
  -1 -10  -1  122.79   14.30
  -1 -10  -1  140.79    7.20
   1 -10   1  145.29   18.10
  -1 -10  -1  147.09   18.00
   1 -10   1  142.89    6.10
   1 -10   1  135.79   14.70
   1 -10   1  146.59    6.20
  -1 -10  -1  126.49   10.60
  -1  10  -1  137.09    6.30
  -1  10  -1  139.19    6.30
  -1  10  -1  123.39   13.60
   1  10   1  158.58   19.50
  -2 -10  -1  364.16   21.10
   2 -10   1  414.96   23.90
  -2 -10  -1  381.36   24.30
   2 -10   1  387.96   13.40
   2 -10   1  426.96   14.00
  -2 -10  -1  399.26   21.20
  -2 -10  -1  385.56   11.90
  -2 -10  -1  376.36   13.80
   2 -10   1  386.56   22.90
   2 -10   1  402.06   20.90
  -2  10  -1  390.26   24.90
  -2  10  -1  407.36   23.30
  -3 -10  -1   -1.20    2.30
   3 -10   1    1.90   11.40
  -3 -10  -1    6.50   12.90
   3 -10   1    1.80   13.70
   3 -10   1   -1.20   13.30
  -3 -10  -1    0.70   11.90
  -3 -10  -1    8.90   10.80
  -3  10  -1   -4.10   13.30
  -3  10  -1   -2.30   12.80
  -3  10  -1   -5.90    6.90
  -4 -10  -1  118.99   16.20
  -4 -10  -1  114.19    6.00
  -4 -10  -1  118.69   13.10
   4 -10   1  107.19   16.80
  -4 -10  -1  128.39   14.30
   4 -10   1  113.69   15.20
   4 -10   1  111.19   18.40
  -4  10  -1  104.59   18.30
  -4  10  -1  104.29   12.40
  -4  10  -1  111.39   18.50
   3 -11  -1    2.60   14.50
  -3 -11   1  -10.00   12.00
  -3 -11   1    2.40   11.00
  -3 -11   1    2.00   17.50
   3 -11  -1    2.90   16.70
  -3 -11   1    4.00    7.30
  -3  11   1   -6.60   15.00
  -3  11   1   -4.00   17.10
  -2 -11   1  156.38   16.30
   2 -11  -1  168.28   17.20
  -2 -11   1  117.19   24.40
  -2 -11   1  170.38   19.60
   2 -11  -1  172.38    7.30
   2 -11  -1  156.38   20.90
   2 -11  -1  181.38    7.10
   2 -11  -1  155.58   21.40
  -2 -11   1  145.79   13.10
  -2 -11   1  153.68    5.60
  -2  11   1  118.69   16.40
   1 -11  -1   53.99    4.60
   1 -11  -1   53.99   14.50
  -1 -11   1   52.59   11.80
  -1 -11   1   51.19    8.60
   1 -11  -1   49.50    7.70
   1 -11  -1   48.60   10.70
   1 -11  -1   43.40   10.40
  -1 -11   1   52.69    4.00
   1 -11  -1   46.70    6.30
  -1 -11   1   41.80   19.70
  -1  11   1   57.69   16.30
   0 -11   1   42.40   12.10
   0 -11  -1   40.40    9.20
   0 -11  -1   41.90    8.20
   0 -11  -1   42.40    6.30
   0 -11  -1   34.50    3.10
   0 -11  -1   50.19   23.40
   0 -11   1   39.50    9.00
   0 -11  -1   41.30    7.00
   0 -11   1   46.80   10.80
   0  11   1   38.20   14.30
   0  11  -1   48.60   15.80
   0  11   1   29.20    1.90
  -1 -11  -1  121.69   13.90
  -1 -11  -1   93.09   13.00
   1 -11   1  108.59   18.70
  -1 -11  -1  100.59   15.70
   1 -11   1  108.59    6.00
   1 -11   1  112.89   11.60
   1 -11   1  110.79   15.70
  -1 -11  -1  110.19    4.30
   1 -11   1   88.29    5.10
   1  11   1  108.49   15.60
  -1  11  -1  131.49   18.30
  -2 -11  -1    1.20   12.20
  -2 -11  -1    0.40   14.70
   2 -11   1    3.80   12.10
   2 -11   1    2.00   14.60
   2 -11   1    2.90    2.50
  -2 -11  -1    4.50   11.70
  -2 -11  -1    4.60    1.20
  -2 -11  -1    0.30    3.30
  -2 -11  -1   -3.50    6.40
   2 -11   1    5.50   13.10
  -2  11  -1   14.90   17.10
  -3 -11  -1   91.19    7.50
  -3 -11  -1   88.69   15.50
   3 -11   1   86.59   15.20
  -3 -11  -1   94.29   13.60
   3 -11   1   83.89   17.10
   3 -11   1   91.39   16.90
  -3 -11  -1  104.69   17.10
  -3  11  -1   80.79   18.40
  -3  11  -1  100.29   18.00
   1 -12  -1   82.19    5.50
   1 -12  -1   57.59   16.90
  -1 -12   1   68.09   21.10
  -1 -12   1   71.19   15.00
  -1 -12   1   74.89   11.00
   1 -12  -1   73.89   13.30
   1 -12  -1   76.59   13.00
  -1  12   1   87.69   20.40
   0 -12  -1   40.80   11.60
   0 -12   1   45.40   15.50
   0 -12   1   42.80   11.80
   0 -12  -1   46.90    9.30
   0 -12   1   42.80    8.80
   0 -12   1   41.80    7.60
   0 -12  -1   40.10   16.00
   0  12   1   61.79   19.50
   0  12  -1   65.19   20.90
  -1 -12  -1   40.70   15.50
   1 -12   1   31.90   13.70
   1 -12   1   27.60    3.30
   1 -12   1   39.20   13.70
   1 -12   1   36.40   15.80
  -1 -12  -1   24.30   18.30
  -1 -12  -1   29.00   11.10
  -1 -12  -1   33.50   10.20
  -1  12  -1   19.20   19.10
  -8   0   2   67.39   15.00
  -8   0   2   62.99    6.40
  -8   0   2   49.90    4.50
  -8   0   2   32.80   14.80
   8   0  -2   58.89   18.00
  -8   0   2   75.19   14.40
   8   0  -2   59.59    4.60
   8   0  -2   54.59   11.60
   7   0  -2  221.68   16.20
   7   0  -2  204.48    7.90
  -7   0   2  181.38   19.20
  -7   0   2  199.38    8.30
  -7   0   2  222.28    8.20
   7   0  -2  204.18   21.90
  -7   0   2  217.28   19.30
  -7   0   2  213.98   17.70
   7   0  -2  204.48   16.00
  -7   0   2  204.68    9.50
  -6   0   2  561.74   21.60
   6   0  -2  554.74   21.20
   6   0  -2  572.24   19.50
  -6   0   2  573.54   18.50
   6   0  -2  592.64   19.00
  -6   0   2  585.84   18.20
  -6   0   2  563.74   22.80
  -6   0   2  577.84   19.60
   6   0  -2  582.74   18.20
  -6   0   2  548.95   23.50
   6   0  -2  550.24   21.00
  -5   0   2  447.76   14.30
  -5   0   2  431.96   18.50
  -5   0   2  442.06   14.10
   5   0  -2  444.66   14.70
   5   0  -2  455.15   14.20
   5   0  -2  443.86   15.50
  -5   0   2  422.86   16.70
  -5   0   2  436.86   15.20
   5   0  -2  424.76   16.40
   5   0  -2  423.56   15.90
   5   0  -2  433.26   18.60
  -5   0   2  438.86   17.70
   4   0  -2 3647.64  108.99
   4   0  -2 3715.13  109.09
  -4   0   2 3742.83  107.79
  -4   0   2 3670.13  108.59
  -4   0   2 3906.91  108.89
  -4   0   2 3682.83  109.09
   4   0  -2 3467.55  109.99
  -4   0   2 3626.34  108.19
   4   0  -2 3631.94  107.89
   4   0  -2 3940.41  107.99
   4   0  -2 3713.93  108.09
  -4   0   2 3653.83  109.29
   3   0  -2  400.76   13.20
   3   0  -2  389.26   13.50
  -3   0   2  421.66   13.50
  -3   0   2  393.96   13.60
   3   0  -2  403.06   14.50
   3   0  -2  408.46   12.80
   3   0  -2  417.26   13.70
   3   0  -2  419.16   13.50
  -3   0   2  391.26   14.50
  -3   0   2  422.76   12.80
  -3   0   2  416.56   14.20
  -3   0   2  422.16   12.60
  -2   0   2 2373.56   71.79
   2   0  -2 2263.57   72.39
   2   0  -2 2500.75   72.19
   2   0  -2 2511.85   71.89
  -2   0   2 2477.65   71.99
   2   0  -2 2447.56   71.69
   2   0  -2 2559.64   71.59
   2   0  -2 2395.66   71.69
  -2   0   2 2461.95   71.49
  -2   0   2 2517.75   71.89
  -2   0   2 2518.05   72.19
  -2   0   2 2511.55   71.69
  -1   0   2 8557.64  235.28
   1   0  -2 7504.95  235.18
  -1   0   2 8956.70  235.08
   1   0  -2 8421.26  234.98
   1   0  -2 7221.68  234.98
   0   0   2   14.20    1.00
   0   0   2   14.90    1.50
   0   0   2   14.10    1.20
   0   0  -2   15.30    1.10
   0   0   2   16.00    1.40
   0   0  -2   11.90    1.20
   0   0  -2   14.00    1.30
   0   0   2   13.00    1.20
   0   0  -2   16.10    1.60
   0   0  -2   12.80    1.50
   0   0   2   14.20    1.60
  -1   0  -2 7039.00  212.18
  -1   0  -2 7717.73  211.78
   1   0   2 7793.22  211.78
   1   0   2 7025.60  212.08
  -1   0  -2 7061.59  212.68
  -2   0  -2  242.48    9.00
  -2   0  -2  255.67    8.20
   2   0   2  258.07    8.20
   2   0   2  238.48   10.50
  -2   0  -2  257.27    9.70
  -2   0  -2  266.97    8.80
   2   0   2  244.48    8.80
  -2   0  -2  266.47    8.50
   2   0   2  255.57    8.70
   2   0   2  267.87    8.10
  -2   0  -2  254.57    7.80
  -3   0  -2 3762.62  108.09
   3   0   2 3674.83  108.39
   3   0   2 3609.24  108.59
  -3   0  -2 3790.62  108.49
  -3   0  -2 3759.52  107.89
   3   0   2 3869.61  107.79
  -3   0  -2 3607.34  107.89
  -3   0  -2 3591.04  107.49
   3   0   2 3821.32  107.79
   3   0   2 3651.73  107.89
  -3   0  -2 3595.84  108.59
   4   0   2 1566.74   45.50
  -4   0  -2 1551.04   46.20
  -4   0  -2 1452.75   46.20
  -4   0  -2 1523.35   45.70
  -4   0  -2 1523.15   47.30
   4   0   2 1519.95   47.30
   4   0   2 1620.74   45.80
   4   0   2 1582.94   46.50
  -4   0  -2 1529.25   46.30
  -4   0  -2 1546.65   46.10
   4   0   2 1486.15   46.00
   5   0   2    2.00    1.80
   5   0   2    2.10    5.20
   5   0   2    0.30    1.20
  -5   0  -2    2.30    1.90
  -5   0  -2    0.00    5.10
  -5   0  -2    2.40    1.60
   5   0   2    3.90    1.30
  -5   0  -2    1.20    7.00
  -5   0  -2   -2.90    5.80
   5   0   2    4.70    8.00
  -5   0  -2    3.60    5.80
  -5   0  -2    1.60    1.50
   6   0   2  614.04   24.00
  -6   0  -2  663.23   22.40
  -6   0  -2  672.03   25.00
   6   0   2  651.23   27.30
  -6   0  -2  666.73   26.90
  -6   0  -2  687.23   22.10
  -6   0  -2  658.43   21.50
   6   0   2  707.23   21.20
   6   0   2  660.43   23.80
  -6   0  -2  653.83   23.20
   6   0   2  663.93   21.30
  -7   0  -2  121.49   12.30
   7   0   2  115.89   15.80
  -7   0  -2  105.89    6.60
  -7   0  -2   73.09   16.80
  -7   0  -2  104.09    5.90
   7   0   2  108.69    5.50
  -7   0  -2  113.69    5.70
   7   0   2  117.39   15.80
   7   0   2  109.19    5.10
  -7   0  -2  109.19   15.00
   8   0   2   93.69   13.20
   8   0   2  106.79    5.60
  -8   0  -2  118.19   15.60
  -8   0  -2   94.29   17.40
  -8   0  -2  122.59    7.70
  -8   0  -2  109.89   13.30
   8   0   2  103.19   19.80
  -8  -1   2  142.89    8.80
   8  -1  -2  151.78   21.40
  -8  -1   2  137.79   15.30
  -8  -1   2  128.89    6.20
  -8  -1   2  134.59   17.00
  -8  -1   2  149.29   15.50
   8  -1  -2  143.39   20.10
  -8   1   2  124.99   15.40
  -8   1   2  153.58   17.70
  -8   1   2  120.49    8.10
  -8   1   2  134.19    6.50
   8   1  -2  117.39   17.60
   8   1  -2  135.39   17.90
  -8   1   2  103.19   16.60
   8   1  -2  126.99    6.40
   7  -1  -2  181.48   22.10
   7  -1  -2  195.58   17.10
  -7  -1   2  178.78   16.30
   7  -1  -2  187.48    7.60
   7  -1  -2  188.28   16.70
  -7  -1   2  152.48   18.60
  -7  -1   2  185.18    7.40
  -7  -1   2  179.48    7.60
  -7  -1   2  192.68    8.80
  -7  -1   2  190.38   18.30
   7   1  -2  179.48   14.40
  -7   1   2  164.88   19.90
  -7   1   2  197.68    9.00
   7   1  -2  170.78    7.80
  -7   1   2  174.88   19.70
  -7   1   2  188.78   18.70
  -7   1   2  189.88    7.80
  -7   1   2  188.28    7.50
   7   1  -2  178.28   21.20
   7   1  -2  198.08    7.10
  -6  -1   2   21.10    8.50
   6  -1  -2   17.40    2.90
  -6  -1   2   21.70    3.10
  -6  -1   2   21.20    2.30
  -6  -1   2   10.50    7.40
   6  -1  -2   17.70    2.20
  -6  -1   2   21.30    3.10
   6  -1  -2   24.30    7.00
  -6  -1   2    4.80    8.30
   6  -1  -2   24.80    2.90
   6  -1  -2   13.00    7.50
  -6   1   2   19.50    2.60
  -6   1   2   13.90    8.20
  -6   1   2   17.40    2.80
  -6   1   2   17.30    2.60
   6   1  -2   15.80    6.50
  -6   1   2   18.40    8.40
  -6   1   2   18.60    2.30
  -6   1   2    8.80    9.10
   6   1  -2   17.30    1.90
   6   1  -2   22.50    2.80
   5  -1  -2 2797.22   86.69
  -5  -1   2 2915.91   84.39
   5  -1  -2 2989.80   84.79
  -5  -1   2 2802.22   85.59
   5  -1  -2 2953.80   85.99
  -5  -1   2 2962.00   84.79
  -5  -1   2 2783.92   85.09
   5  -1  -2 2786.22   85.09
   5  -1  -2 2741.93   84.99
   5  -1  -2 2995.90   85.39
  -5  -1   2 2957.10   85.69
  -5  -1   2 2846.62   86.19
   5   1  -2 2909.71   85.69
  -5   1   2 2796.92   86.59
   5   1  -2 3025.00   85.29
   5   1  -2 2814.72   86.19
   5   1  -2 2794.62   84.69
  -5   1   2 2818.72   85.29
   5   1  -2 2968.30   84.39
  -5   1   2 2935.91   84.69
  -5   1   2 2785.02   85.69
  -5   1   2 2893.21   86.19
   5   1  -2 2766.12   84.69
  -5   1   2 3037.70   85.39
  -5   1   2 2977.30   84.99
  -4  -1   2  628.64   21.50
   4  -1  -2  616.84   20.80
   4  -1  -2  636.64   22.70
  -4  -1   2  658.23   19.90
   4  -1  -2  628.34   21.00
   4  -1  -2  632.04   20.60
  -4  -1   2  671.13   19.60
   4  -1  -2  683.93   20.40
   4  -1  -2  645.34   21.10
  -4  -1   2  659.03   20.70
  -4  -1   2  623.94   20.90
  -4  -1   2  648.84   22.00
   4   1  -2  654.63   20.60
   4   1  -2  654.63   19.70
  -4   1   2  623.04   21.60
   4   1  -2  629.34   22.00
  -4   1   2  709.83   21.00
  -4   1   2  645.24   20.10
  -4   1   2  646.04   21.10
   4   1  -2  630.34   20.50
  -4   1   2  639.74   22.70
  -4   1   2  625.44   21.20
  -4   1   2  679.73   20.70
   4   1  -2  634.14   20.40
  -3  -1   2 3083.79   94.49
  -3  -1   2 3361.76   94.49
  -3  -1   2 3095.09   93.89
   3  -1  -2 3361.06   94.79
   3  -1  -2 3082.89   94.79
   3  -1  -2 3155.98   93.99
  -3  -1   2 3316.87   93.89
   3  -1  -2 3344.07   94.39
   3  -1  -2 3284.37   93.99
   3  -1  -2 3139.49   94.09
  -3  -1   2 3237.08   93.49
  -3  -1   2 3204.88   94.39
  -3   1   2 3340.77   94.29
  -3   1   2 3200.08   93.99
   3   1  -2 3287.77   94.39
   3   1  -2 3093.39   94.59
  -3   1   2 3108.89   94.09
   3   1  -2 3115.79   93.79
  -3   1   2 3138.89   94.89
  -3   1   2 3311.57   94.29
   3   1  -2 3221.68   93.79
   3   1  -2 3324.67   94.29
  -3   1   2 3152.88   94.39
  -3   1   2 3406.36   95.19
   2  -1  -2 5524.65  159.68
  -2  -1   2 5287.57  159.58
   2  -1  -2 5470.75  159.88
  -2  -1   2 5512.35  159.98
  -2  -1   2 4803.32  159.08
   2  -1  -2 5277.27  159.58
   2  -1  -2 5572.64  160.28
  -2  -1   2 5268.27  159.58
  -2  -1   2 5740.63  159.98
   2  -1  -2 5485.85  159.68
   2  -1  -2 5827.92  160.18
   2  -1  -2 5648.83  159.78
  -2  -1   2 5561.94  159.98
  -2   1   2 5401.46  159.78
  -2   1   2 5873.31  160.28
  -2   1   2 5284.17  159.68
   2   1  -2 5651.83  159.48
  -2   1   2 5519.65  160.18
   2   1  -2 4946.51  159.38
   2   1  -2 5838.02  159.98
  -2   1   2 5693.33  159.68
  -2   1   2 5763.72  159.98
  -2   1   2 5786.82  159.88
   2   1  -2 5527.35  159.98
   1  -1  -2 3385.96   98.59
   1  -1  -2 3347.57   98.59
   1  -1  -2 3199.48   99.19
  -1  -1   2 3433.86   98.89
   1  -1  -2 3207.18   99.49
   1  -1  -2 3238.58   98.89
  -1  -1   2 3288.87   98.89
  -1  -1   2 3420.76   98.59
   1  -1  -2 3265.77   98.69
   1  -1  -2 3535.35   98.99
  -1  -1   2 3179.48   99.29
  -1  -1   2 3435.36   98.49
   1   1  -2 3473.55   98.59
  -1   1   2 3527.05   98.59
  -1   1   2 3497.95   98.99
   1   1  -2 3585.84   98.89
  -1   1   2 3546.95   98.99
   1   1  -2 3498.25   98.89
  -1   1   2 3466.35   98.59
  -1   1   2 3521.35   98.79
   1   1  -2 3346.47   98.59
   0  -1   2 4897.31  132.09
   0  -1   2 3858.81  131.89
   0  -1   2 4616.34  132.39
   0  -1  -2 4688.03  132.19
   0  -1  -2 4927.81  132.39
   0   1   2 4312.97  132.29
   0   1   2 4866.21  132.29
   0   1   2 4770.22  132.29
   0   1  -2 4225.28  131.99
   0   1  -2 4261.17  131.89
   0   1   2 4726.33  131.99
   0   1  -2 4553.04  132.39
   0   1  -2 4617.94  132.59
   1  -1   2 2630.74   77.59
  -1  -1  -2 2556.04   77.69
   1  -1   2 2563.04   78.19
  -1  -1  -2 2675.23   77.39
  -1  -1  -2 2865.21   78.19
   1  -1   2 2682.13   77.39
   1  -1   2 2666.23   77.49
   1  -1   2 2694.73   77.89
  -1  -1  -2 2571.44   77.79
  -1  -1  -2 2712.93   77.39
  -1   1  -2 2763.32   77.99
   1   1   2 2628.74   77.29
  -1   1  -2 2695.93   77.49
   1   1   2 2670.83   77.69
  -1   1  -2 2508.35   77.49
  -1   1  -2 2665.53   77.39
   1   1   2 2708.93   77.79
   1   1   2 2762.82   77.69
   1   1   2 2658.73   77.39
  -1   1  -2 2632.84   77.39
  -1   1  -2 2681.13   77.59
   2  -1   2 1671.33   49.40
  -2  -1  -2 1629.74   48.50
   2  -1   2 1663.43   48.30
   2  -1   2 1621.54   48.70
   2  -1   2 1712.93   49.10
  -2  -1  -2 1712.73   48.40
  -2  -1  -2 1712.13   48.20
   2  -1   2 1704.53   48.60
   2  -1   2 1594.04   48.80
  -2  -1  -2 1704.63   48.90
  -2  -1  -2 1640.54   49.00
   2   1   2 1684.13   48.20
   2   1   2 1589.94   48.50
   2   1   2 1660.43   48.80
   2   1   2 1662.23   48.80
  -2   1  -2 1629.24   48.70
  -2   1  -2 1579.24   48.70
  -2   1  -2 1572.94   48.40
  -2   1  -2 1671.23   48.60
  -2   1  -2 1629.84   49.40
   2   1   2 1645.54   48.20
  -2   1  -2 1684.63   49.20
  -3  -1  -2 2513.45   74.49
   3  -1   2 2428.46   75.09
  -3  -1  -2 2521.25   74.69
   3  -1   2 2648.44   74.79
  -3  -1  -2 2594.34   75.19
   3  -1   2 2614.04   74.79
   3  -1   2 2620.84   75.39
  -3  -1  -2 2648.83   74.59
  -3  -1  -2 2507.35   75.39
   3  -1   2 2531.75   75.79
   3  -1   2 2493.95   74.89
  -3  -1  -2 2749.92   75.69
   3   1   2 2530.55   74.99
   3   1   2 2599.74   74.49
   3   1   2 2330.37   76.19
  -3   1  -2 2487.15   74.89
   3   1   2 2497.15   74.49
   3   1   2 2555.94   74.39
  -3   1  -2 2624.94   74.79
  -3   1  -2 2455.45   74.59
  -3   1  -2 2613.94   74.99
  -3   1  -2 2641.74   75.49
  -3   1  -2 2499.35   75.79
   4  -1   2  238.88    8.20
   4  -1   2  208.08   11.10
   4  -1   2  230.68   10.60
  -4  -1  -2  227.28    8.00
   4  -1   2  231.98    8.80
   4  -1   2  225.88   13.00
  -4  -1  -2  219.18   11.80
  -4  -1  -2  225.68   10.00
  -4  -1  -2  212.48   10.20
   4   1   2  242.58    7.80
   4   1   2  230.78   11.90
  -4   1  -2  226.78   10.00
  -4   1  -2  235.38   12.80
   4   1   2  246.28    8.00
  -4   1  -2  237.18    8.20
  -4   1  -2  229.28   10.80
   4   1   2  230.18    8.80
   4   1   2  231.08    9.90
  -4   1  -2  228.78    8.40
   5  -1   2 1137.99   36.00
   5  -1   2 1174.28   34.90
  -5  -1  -2 1177.48   34.90
  -5  -1  -2 1187.88   35.20
   5  -1   2 1179.78   35.10
  -5  -1  -2 1143.79   35.90
  -5  -1  -2 1130.99   35.90
  -5  -1  -2 1137.59   37.30
  -5  -1  -2 1174.28   35.80
   5  -1   2 1143.59   36.00
   5  -1   2 1130.59   38.20
  -5   1  -2 1144.99   36.20
   5   1   2 1159.48   34.40
  -5   1  -2 1112.09   37.90
  -5   1  -2 1184.38   35.50
  -5   1  -2 1181.28   35.30
  -5   1  -2 1115.99   35.60
   5   1   2 1127.39   37.40
  -5   1  -2 1120.39   36.30
   5   1   2 1125.59   35.50
   5   1   2 1148.89   35.70
   6  -1   2   38.60    4.30
   6  -1   2   28.50    3.30
  -6  -1  -2   38.70    8.20
  -6  -1  -2   29.00    3.50
  -6  -1  -2   38.20    3.30
   6  -1   2   40.20    3.20
  -6  -1  -2   37.70    4.00
  -6  -1  -2   38.40    9.70
  -6  -1  -2   39.90    8.10
   6  -1   2   34.50   10.80
   6  -1   2   43.20    7.90
   6   1   2   48.50    3.10
  -6   1  -2   38.90    4.50
  -6   1  -2   48.60    3.60
  -6   1  -2   41.80   10.80
  -6   1  -2   50.99    7.70
   6   1   2   38.00   10.30
  -6   1  -2   40.40    3.70
  -6   1  -2   50.39    9.20
   6   1   2   30.20    3.50
   6   1   2   43.50    7.10
   6   1   2   37.80    2.70
   7  -1   2  289.57   19.20
  -7  -1  -2  303.57   12.00
  -7  -1  -2  301.67   19.70
   7  -1   2  302.47   11.00
   7  -1   2  326.87   12.40
  -7  -1  -2  290.27   17.10
  -7  -1  -2  278.07   11.00
   7  -1   2  300.37   25.50
  -7  -1  -2  300.07   20.20
  -7  -1  -2  301.77   11.00
   7   1   2  286.87   10.10
   7   1   2  312.17   17.60
  -7   1  -2  264.07   27.90
  -7   1  -2  287.47   12.30
  -7   1  -2  295.27   18.10
  -7   1  -2  280.37   11.20
   7   1   2  288.17   23.90
   7   1   2  295.67   10.80
   8  -1   2  115.79   21.20
  -8  -1  -2  109.69   12.80
   8  -1   2  110.29   14.80
  -8  -1  -2  126.69    9.80
  -8  -1  -2  101.39   15.40
  -8  -1  -2   95.79   17.80
   8   1   2  102.99   18.40
  -8   1  -2  108.79   13.50
   8   1   2  115.69    5.30
   8   1   2  114.09   12.70
  -8   1  -2   88.29   18.10
  -8   1  -2  136.99    8.10
  -8   1  -2  108.59   15.70
  -8  -2   2   46.80   13.90
  -8  -2   2   39.80   15.20
   8  -2  -2   51.19   13.70
  -8  -2   2   43.90    5.60
  -8  -2   2   42.60    4.70
  -8  -2   2   45.80   13.90
   8  -2  -2   32.60   18.10
   8  -2  -2   53.49   20.60
   8   2  -2   38.20    9.60
   8   2  -2   49.00    3.50
   8   2  -2   40.90   16.40
  -8   2   2   48.20   14.30
  -8   2   2   47.40   16.10
  -8   2   2   47.30    6.40
  -8   2   2   30.60   17.20
  -8   2   2   32.40   13.00
  -7  -2   2  282.97    9.40
   7  -2  -2  260.67   24.50
   7  -2  -2  270.97   18.50
  -7  -2   2  269.67   18.20
   7  -2  -2  259.27   19.00
  -7  -2   2  237.98   19.70
   7  -2  -2  228.38    9.60
  -7  -2   2  290.47   20.60
   7  -2  -2  268.67   11.90
  -7  -2   2  277.67    9.90
   7   2  -2  260.67   22.30
   7   2  -2  265.37   15.00
  -7   2   2  278.17   23.90
   7   2  -2  273.77    9.10
  -7   2   2  242.88   24.70
  -7   2   2  248.98   11.20
  -7   2   2  279.37   11.40
   7   2  -2  268.67   10.30
  -6  -2   2  819.42   29.50
  -6  -2   2  704.33   26.70
  -6  -2   2  839.92   25.80
   6  -2  -2  840.12   26.10
   6  -2  -2  828.02   26.60
  -6  -2   2  826.12   28.30
  -6  -2   2  798.92   29.60
   6  -2  -2  844.92   27.50
  -6  -2   2  847.72   26.90
   6  -2  -2  810.42   28.60
   6  -2  -2  808.82   28.80
  -6   2   2  852.01   26.60
  -6   2   2  884.81   27.60
   6   2  -2  872.31   26.60
   6   2  -2  856.41   25.30
  -6   2   2  845.92   30.10
  -6   2   2  834.02   26.10
  -6   2   2  850.61   29.20
  -6   2   2  835.82   26.40
  -6   2   2  818.42   30.90
   6   2  -2  843.22   26.70
   6   2  -2  825.32   26.80
  -5  -2   2  250.77   10.10
   5  -2  -2  240.08   12.80
   5  -2  -2  250.07   10.10
  -5  -2   2  242.98   12.10
   5  -2  -2  259.77    9.40
   5  -2  -2  254.87    9.30
  -5  -2   2  248.38   13.80
   5  -2  -2  253.27   15.70
   5  -2  -2  230.18   13.30
  -5  -2   2  251.37   13.50
  -5  -2   2  253.27    8.40
  -5  -2   2  258.17    9.60
  -5   2   2  267.77    9.40
  -5   2   2  229.38   14.90
   5   2  -2  255.77    8.40
   5   2  -2  253.37    9.30
  -5   2   2  257.77   10.20
   5   2  -2  252.47    9.60
  -5   2   2  246.88   13.70
  -5   2   2  241.98   10.40
   5   2  -2  246.38   14.00
   5   2  -2  248.08   10.80
  -5   2   2  263.47    9.20
  -5   2   2  241.58   14.00
  -4  -2   2 2359.26   68.79
  -4  -2   2 2341.57   69.89
   4  -2  -2 2423.56   70.79
  -4  -2   2 2317.67   69.89
   4  -2  -2 2441.96   69.19
   4  -2  -2 2354.36   70.79
  -4  -2   2 2248.48   69.09
   4  -2  -2 2357.96   69.59
   4  -2  -2 2423.06   69.49
  -4  -2   2 2410.16   69.59
   4  -2  -2 2323.77   69.49
  -4  -2   2 2353.06   68.49
   4   2  -2 2388.66   69.49
  -4   2   2 2285.37   69.89
   4   2  -2 2370.36   69.79
  -4   2   2 2354.16   70.79
   4   2  -2 2249.47   69.79
  -4   2   2 2473.75   69.29
  -4   2   2 2217.28   69.49
   4   2  -2 2246.78   68.69
  -4   2   2 2348.17   69.29
   4   2  -2 2346.37   68.59
  -4   2   2 2351.36   69.59
  -3  -2   2 1327.67   39.00
  -3  -2   2 1310.27   38.60
  -3  -2   2 1312.67   39.50
   3  -2  -2 1306.17   40.60
   3  -2  -2 1381.26   39.40
   3  -2  -2 1386.86   40.20
  -3  -2   2 1259.17   39.80
   3  -2  -2 1272.27   39.60
   3  -2  -2 1353.96   39.60
  -3  -2   2 1264.27   39.20
  -3  -2   2 1303.07   40.10
   3  -2  -2 1288.47   39.70
  -3   2   2 1352.46   39.50
  -3   2   2 1324.67   40.70
   3   2  -2 1412.86   39.80
   3   2  -2 1323.77   38.90
  -3   2   2 1336.87   39.30
  -3   2   2 1354.26   40.20
  -3   2   2 1247.18   39.70
   3   2  -2 1324.47   39.50
   3   2  -2 1367.66   39.60
  -3   2   2 1371.06   39.40
  -3   2   2 1298.07   40.10
   3   2  -2 1285.47   38.90
   2  -2  -2 1508.75   45.40
   2  -2  -2 1566.94   45.20
  -2  -2   2 1488.15   45.50
   2  -2  -2 1560.74   45.00
   2  -2  -2 1529.45   45.20
  -2  -2   2 1561.04   44.70
  -2  -2   2 1484.55   45.30
   2  -2  -2 1535.35   45.90
   2  -2  -2 1516.05   45.30
   2  -2  -2 1587.24   45.60
  -2  -2   2 1409.86   45.20
  -2  -2   2 1569.04   45.20
   2   2  -2 1479.65   44.70
  -2   2   2 1493.95   45.20
   2   2  -2 1586.24   45.40
  -2   2   2 1523.45   45.80
  -2   2   2 1590.84   45.60
  -2   2   2 1565.94   45.20
  -2   2   2 1483.35   45.40
  -2   2   2 1579.54   45.10
   2   2  -2 1535.95   45.20
   2   2  -2 1517.55   44.60
   2   2  -2 1530.85   45.10
  -1  -2   2 5924.61  187.48
  -1  -2   2 5908.11  187.48
  -1  -2   2 5979.90  187.08
   1  -2  -2 6233.38  187.68
   1  -2  -2 7445.06  187.68
   1  -2  -2 6143.79  187.28
  -1  -2   2 5931.51  187.18
   1  -2  -2 6490.95  187.38
   1  -2  -2 6380.86  187.38
  -1  -2   2 6885.91  187.78
   1   2  -2 7039.10  187.78
  -1   2   2 6824.62  187.48
   1   2  -2 5862.81  187.48
  -1   2   2 7065.79  187.88
  -1   2   2 6363.66  187.28
  -1   2   2 6270.07  187.78
  -1   2   2 6718.73  187.68
   1   2  -2 5998.10  187.48
  -1   2   2 7467.85  187.38
  -1   2   2 6610.24  187.58
   0  -2  -2  517.85   16.10
   0  -2   2  520.35   16.50
   0  -2   2  543.95   16.00
   0  -2  -2  542.45   16.50
   0  -2  -2  503.75   16.00
   0  -2   2  520.85   17.00
   0  -2   2  492.45   16.30
   0  -2   2  515.75   16.10
   0  -2  -2  535.55   16.70
   0  -2   2  563.24   16.30
   0  -2   2  549.35   16.70
   0  -2  -2  530.35   16.90
   0   2   2  560.04   16.50
   0   2   2  538.45   16.00
   0   2  -2  584.14   16.70
   0   2  -2  539.55   16.00
   0   2  -2  605.84   16.30
   0   2   2  583.44   16.10
   0   2   2  572.14   16.60
   0   2   2  555.74   16.50
   0   2  -2  545.85   16.70
   0   2  -2  551.14   16.20
   0   2   2  554.04   16.20
   0   2  -2  532.15   16.70
   0   2  -2  531.95   16.10
   1  -2   2 2222.58   67.09
  -1  -2  -2 2331.87   66.79
  -1  -2  -2 2323.17   66.69
   1  -2   2 2273.07   67.09
   1  -2   2 2339.17   67.19
  -1  -2  -2 2310.17   67.49
  -1  -2  -2 2156.98   66.49
   1  -2   2 2357.16   67.59
  -1  -2  -2 2382.76   67.19
  -1  -2  -2 2233.78   67.19
  -1  -2  -2 2272.67   66.59
   1  -2   2 2292.27   67.69
   1  -2   2 2332.77   67.09
   1   2   2 2412.36   67.19
   1   2   2 2231.28   66.59
  -1   2  -2 2220.38   67.19
   1   2   2 2306.17   66.59
  -1   2  -2 2294.37   67.19
  -1   2  -2 2301.37   66.79
  -1   2  -2 2339.17   67.09
  -1   2  -2 2365.86   67.59
   1   2   2 2184.08   66.49
   1   2   2 2308.87   67.19
   1   2   2 2345.37   67.29
  -1   2  -2 2398.56   67.09
   2  -2   2 1111.29   34.10
   2  -2   2 1071.89   33.30
  -2  -2  -2 1119.09   32.40
  -2  -2  -2 1139.49   32.70
   2  -2   2 1104.79   33.30
  -2  -2  -2 1097.29   33.60
   2  -2   2 1153.08   33.70
   2  -2   2 1142.49   33.00
   2  -2   2 1177.58   33.10
  -2  -2  -2 1146.59   33.10
  -2  -2  -2 1089.59   33.30
   2   2   2 1127.89   32.50
   2   2   2 1090.69   32.30
   2   2   2 1115.39   33.10
  -2   2  -2 1149.69   34.10
  -2   2  -2 1134.09   33.10
  -2   2  -2 1073.39   34.00
   2   2   2 1128.59   33.10
  -2   2  -2 1072.99   33.10
  -2   2  -2 1117.29   33.00
   2   2   2 1025.30   32.60
  -2   2  -2 1043.90   33.20
  -3  -2  -2 2865.71   83.19
   3  -2   2 2933.11   84.39
  -3  -2  -2 2914.41   83.69
   3  -2   2 2983.30   83.79
  -3  -2  -2 2764.32   83.89
   3  -2   2 2743.53   83.89
   3  -2   2 2791.62   83.69
  -3  -2  -2 2747.82   83.19
   3  -2   2 2942.41   83.59
  -3  -2  -2 2887.41   83.19
   3  -2   2 2833.52   84.69
  -3   2  -2 2899.31   83.79
   3   2   2 2860.81   83.69
  -3   2  -2 2819.82   83.79
   3   2   2 2857.11   82.89
  -3   2  -2 2770.22   83.59
   3   2   2 2723.53   83.79
  -3   2  -2 2841.02   84.69
  -3   2  -2 2925.11   83.59
   3   2   2 2811.02   83.59
   3   2   2 2910.01   83.19
  -3   2  -2 2990.70   84.49
  -4  -2  -2 1342.37   41.10
   4  -2   2 1424.16   41.20
   4  -2   2 1362.96   43.30
  -4  -2  -2 1353.86   42.20
   4  -2   2 1338.27   42.20
  -4  -2  -2 1341.57   41.30
   4  -2   2 1380.86   41.50
   4  -2   2 1391.16   42.10
   4  -2   2 1353.86   41.90
  -4  -2  -2 1440.46   40.90
  -4   2  -2 1404.06   41.20
  -4   2  -2 1328.87   41.50
   4   2   2 1407.96   41.40
  -4   2  -2 1391.36   41.40
  -4   2  -2 1380.46   42.00
  -4   2  -2 1326.07   43.00
   4   2   2 1331.47   42.50
   4   2   2 1352.76   40.80
   4   2   2 1421.86   40.90
   4   2   2 1381.76   40.40
  -5  -2  -2   11.90    2.70
   5  -2   2   14.30    6.90
  -5  -2  -2   14.00    5.70
  -5  -2  -2   12.70    5.80
   5  -2   2   11.50    8.80
   5  -2   2   11.00    2.70
  -5  -2  -2   14.10    6.90
   5  -2   2   17.80    7.20
  -5  -2  -2   13.50    1.90
   5  -2   2   18.40    2.20
  -5  -2  -2   19.10    2.30
   5  -2   2   10.40    1.70
  -5   2  -2   14.90    3.00
  -5   2  -2   17.90    6.00
  -5   2  -2   18.00    2.50
   5   2   2   16.10    7.60
   5   2   2   14.80    1.70
  -5   2  -2   18.70    8.90
   5   2   2   19.50    2.00
  -5   2  -2   14.00    6.90
   5   2   2    8.80    1.90
   5   2   2   16.60    4.70
  -5   2  -2   14.30    2.10
   6  -2   2  721.33   23.30
  -6  -2  -2  718.23   23.10
  -6  -2  -2  728.83   25.90
   6  -2   2  737.73   26.30
   6  -2   2  711.13   27.40
  -6  -2  -2  728.43   27.80
   6  -2   2  718.03   30.40
  -6  -2  -2  725.53   25.60
  -6  -2  -2  714.33   25.10
   6  -2   2  735.73   23.00
   6  -2   2  681.13   25.80
  -6  -2  -2  727.13   22.80
  -6   2  -2  723.93   23.40
  -6   2  -2  766.22   24.70
   6   2   2  712.03   24.20
   6   2   2  745.03   22.10
   6   2   2  723.93   28.00
   6   2   2  735.43   23.00
  -6   2  -2  745.23   26.80
  -6   2  -2  704.33   25.70
   6   2   2  695.53   23.50
  -6   2  -2  717.63   29.80
  -7  -2  -2   87.59    6.80
   7  -2   2   77.59   11.40
  -7  -2  -2   85.29    5.20
  -7  -2  -2   66.09    6.20
   7  -2   2   66.99   15.20
  -7  -2  -2   73.79   11.00
  -7  -2  -2   92.69   10.90
  -7   2  -2   98.69   11.10
  -7   2  -2   72.99    6.20
   7   2   2   92.99   14.40
   7   2   2   98.99    4.60
   7   2   2   82.09    8.60
  -7   2  -2   74.49   12.30
  -7   2  -2   65.69    6.30
  -7   2  -2   75.09   15.30
   8  -2   2   47.10   14.10
  -8  -2  -2   46.10   14.60
   8  -2   2   55.69   21.80
  -8  -2  -2   57.89   13.90
  -8  -2  -2   48.10    5.90
  -8  -2  -2   54.69   17.10
  -8  -2  -2   51.09   11.70
   8   2   2   35.10    4.90
  -8   2  -2   48.70   15.90
   8   2   2   51.29   10.60
  -8   2  -2   56.29    7.00
  -8   2  -2   41.00   13.20
   8   2   2   36.60   17.10
  -8   2  -2   43.70   19.30
  -8  -3   2  205.48   23.30
   8  -3  -2  193.08   31.50
  -8  -3   2  200.68   25.10
  -8  -3   2  224.28   25.60
   8  -3  -2  234.48   23.70
   8  -3  -2  232.28   25.00
  -8  -3   2  193.38   11.60
  -8  -3   2  223.18    8.50
   8   3  -2  181.68   27.30
  -8   3   2  236.08   25.70
   8   3  -2  209.98   15.40
  -8   3   2  196.18   29.60
  -8   3   2  213.18   24.80
   7  -3  -2  161.18   25.00
  -7  -3   2  181.88   19.30
   7  -3  -2  177.28   18.70
  -7  -3   2  163.98    7.10
  -7  -3   2  158.28    7.70
  -7  -3   2  147.89   18.20
  -7  -3   2  165.98   17.00
  -7  -3   2  171.98    6.90
   7  -3  -2  177.78   12.30
  -7   3   2  149.49   21.80
   7   3  -2  153.38    6.80
  -7   3   2  170.28   19.80
  -7   3   2  169.18    7.50
  -7   3   2  165.88    8.90
   7   3  -2  158.08   11.70
   7   3  -2  167.08   20.10
  -7   3   2  160.58   28.10
   6  -3  -2  268.67   11.60
  -6  -3   2  288.37   10.10
  -6  -3   2  293.27    9.70
  -6  -3   2  294.27   10.90
   6  -3  -2  281.57   17.50
  -6  -3   2  272.47   16.90
   6  -3  -2  307.17   10.80
  -6  -3   2  290.87   17.60
  -6  -3   2  274.07   15.40
   6  -3  -2  290.27   21.40
   6  -3  -2  293.77   17.20
  -6   3   2  287.37   11.70
   6   3  -2  271.47   11.90
  -6   3   2  300.47   10.70
   6   3  -2  304.07   10.90
  -6   3   2  280.17   17.60
  -6   3   2  296.27   19.00
  -6   3   2  289.47   10.80
  -6   3   2  266.67   20.10
  -6   3   2  283.97   17.70
   6   3  -2  309.87   12.00
   6   3  -2  285.97    9.50
  -6   3   2  276.47   12.80
  -5  -3   2 1725.53   50.79
  -5  -3   2 1687.23   52.49
  -5  -3   2 1719.33   52.69
  -5  -3   2 1677.03   51.49
   5  -3  -2 1684.43   52.39
  -5  -3   2 1719.03   50.39
   5  -3  -2 1772.72   51.49
  -5  -3   2 1714.13   51.49
   5  -3  -2 1735.53   51.69
   5  -3  -2 1668.83   52.29
   5  -3  -2 1759.92   52.59
  -5   3   2 1764.12   51.49
  -5   3   2 1789.92   51.99
   5   3  -2 1616.34   50.39
   5   3  -2 1645.04   52.49
  -5   3   2 1744.43   52.59
   5   3  -2 1781.52   51.79
  -5   3   2 1637.64   53.79
  -5   3   2 1645.04   52.59
  -5   3   2 1752.22   51.59
  -5   3   2 1673.03   52.29
   5   3  -2 1733.53   50.19
  -5   3   2 1683.33   53.19
   5   3  -2 1765.72   51.49
  -4  -3   2  138.89    5.30
  -4  -3   2  138.09    8.00
  -4  -3   2  141.49    9.50
   4  -3  -2  149.39    5.80
   4  -3  -2  156.78    6.10
  -4  -3   2  149.88    4.90
   4  -3  -2  142.49    9.90
   4  -3  -2  137.29   12.00
  -4  -3   2  163.38    5.80
   4  -3  -2  134.19    6.60
  -4  -3   2  147.39   10.20
   4  -3  -2  120.29    9.60
  -4   3   2  123.69    9.90
  -4   3   2  126.99   12.00
   4   3  -2  154.58    6.00
   4   3  -2  137.09    5.70
  -4   3   2  151.18   11.00
  -4   3   2  146.59    5.80
  -4   3   2  143.19   10.20
  -4   3   2  141.99    5.80
  -4   3   2  142.89    5.70
   4   3  -2  136.09    4.80
  -4   3   2  136.69    6.60
   4   3  -2  139.09    5.70
   3  -3  -2 1806.52   52.59
   3  -3  -2 1767.02   51.49
  -3  -3   2 1764.22   51.29
  -3  -3   2 1749.32   50.69
  -3  -3   2 1663.53   50.29
  -3  -3   2 1632.14   50.89
   3  -3  -2 1635.54   51.59
  -3  -3   2 1647.54   51.39
   3  -3  -2 1705.23   52.69
   3  -3  -2 1783.52   51.29
   3  -3  -2 1658.23   51.69
  -3  -3   2 1692.63   51.99
  -3   3   2 1794.82   51.19
   3   3  -2 1808.92   51.29
   3   3  -2 1691.63   50.19
  -3   3   2 1683.23   51.89
  -3   3   2 1712.03   51.99
  -3   3   2 1755.82   52.69
  -3   3   2 1702.93   51.59
  -3   3   2 1776.72   51.39
   3   3  -2 1731.63   51.19
  -3   3   2 1806.52   51.49
   3   3  -2 1842.62   51.79
   3   3  -2 1712.43   50.19
  -3   3   2 1801.72   52.09
  -2  -3   2 2525.55   71.19
  -2  -3   2 2090.79   70.89
   2  -3  -2 2557.34   71.39
   2  -3  -2 2464.15   71.59
   2  -3  -2 2541.15   71.19
   2  -3  -2 2430.96   71.29
  -2  -3   2 2443.46   71.79
   2  -3  -2 2430.06   71.49
   2  -3  -2 2407.36   71.99
  -2  -3   2 2368.36   71.19
  -2  -3   2 2515.25   70.69
   2  -3  -2 2532.95   71.79
  -2   3   2 2415.86   71.59
  -2   3   2 2393.86   71.29
   2   3  -2 2401.36   71.19
  -2   3   2 2360.86   71.59
  -2   3   2 2440.76   71.99
   2   3  -2 2551.74   71.69
  -2   3   2 2444.76   71.09
   2   3  -2 2249.68   71.29
  -2   3   2 2485.35   71.39
  -2   3   2 2473.85   71.39
  -2   3   2 2469.65   71.79
  -1  -3   2  314.07   11.90
   1  -3  -2  318.17   11.50
  -1  -3   2  329.07   11.10
   1  -3  -2  314.37   11.20
  -1  -3   2  335.87   10.10
   1  -3  -2  310.47   10.80
  -1  -3   2  333.47   10.70
   1  -3  -2  320.67   11.40
   1  -3  -2  340.27   10.30
  -1  -3   2  329.67   10.60
  -1  -3   2  335.07    9.90
  -1  -3   2  342.47   10.10
   1  -3  -2  323.77   10.40
   1  -3  -2  332.37   10.70
   1   3  -2  356.96   10.00
   1   3  -2  346.07   10.10
  -1   3   2  333.57   10.70
   1   3  -2  343.97   10.60
   1   3  -2  325.17   10.60
  -1   3   2  341.17   10.80
  -1   3   2  321.47   10.70
  -1   3   2  319.87   11.30
  -1   3   2  343.07   10.70
  -1   3   2  334.67   10.60
   1   3  -2  336.87    9.70
  -1   3   2  338.27   10.20
   0  -3  -2 3702.23  105.99
   0  -3   2 3702.03  106.09
   0  -3  -2 3781.32  105.79
   0  -3  -2 3606.94  105.99
   0  -3   2 3813.52  105.99
   0  -3   2 3775.02  105.59
   0  -3  -2 3728.13  105.39
   0  -3  -2 3517.95  105.79
   0  -3   2 3760.22  105.99
   0  -3  -2 3588.64  105.39
   0  -3  -2 3761.12  105.59
   0  -3   2 3480.15  106.29
   0   3  -2 3826.82  105.99
   0   3  -2 3518.35  105.99
   0   3  -2 3833.72  105.99
   0   3  -2 3530.05  105.59
   0   3   2 3617.14  105.69
   0   3   2 3417.46  105.79
   0   3   2 3803.72  105.99
   0   3   2 3188.28  105.09
   0   3  -2 3766.72  105.49
   0   3   2 3175.68  105.09
   0   3   2 3827.72  105.79
  -1  -3  -2  207.08    6.50
   1  -3   2  211.08    6.80
   1  -3   2  203.18    7.80
  -1  -3  -2  211.78    6.30
   1  -3   2  192.88    8.70
   1  -3   2  212.88    7.30
   1  -3   2  210.78    7.00
  -1  -3  -2  223.18    7.40
  -1  -3  -2  206.98    8.40
  -1  -3  -2  214.08    6.30
  -1  -3  -2  219.58    6.70
   1  -3   2  201.68    7.90
   1   3   2  205.18    6.60
  -1   3  -2  180.68    8.00
   1   3   2  204.68    7.30
  -1   3  -2  194.28    6.80
  -1   3  -2  197.68    7.70
   1   3   2  187.18    6.60
  -1   3  -2  203.58    7.30
  -1   3  -2  197.88    6.20
  -1   3  -2  197.78    6.70
  -2  -3  -2 2958.70   84.89
  -2  -3  -2 2982.80   84.89
  -2  -3  -2 2803.52   85.39
   2  -3   2 2995.10   86.19
  -2  -3  -2 2854.41   85.99
  -2  -3  -2 2821.52   84.99
   2  -3   2 2842.82   85.79
   2  -3   2 2876.11   86.49
   2  -3   2 2858.61   85.59
  -2  -3  -2 2966.60   85.29
   2  -3   2 3003.30   85.69
  -2  -3  -2 2864.61   84.99
   2  -3   2 3006.50   85.59
  -2   3  -2 2883.71   86.39
  -2   3  -2 2882.31   85.69
  -2   3  -2 2995.90   85.69
  -2   3  -2 3049.69   86.29
   2   3   2 2964.40   85.19
  -2   3  -2 3066.99   85.59
  -2   3  -2 2910.61   85.79
  -3  -3  -2 1219.38   36.50
   3  -3   2 1182.28   38.30
  -3  -3  -2 1191.98   36.30
   3  -3   2 1270.07   36.70
   3  -3   2 1200.98   37.20
   3  -3   2 1256.17   37.50
  -3  -3  -2 1258.07   36.10
  -3  -3  -2 1166.08   36.90
   3  -3   2 1162.98   37.30
  -3  -3  -2 1191.88   36.30
   3  -3   2 1210.08   37.00
  -3   3  -2 1193.28   38.30
   3   3   2 1238.68   36.40
   3   3   2 1322.47   38.10
  -3   3  -2 1262.87   36.70
  -3   3  -2 1219.78   38.60
  -3   3  -2 1217.38   37.20
  -3   3  -2 1195.48   37.20
   3   3   2 1262.97   36.40
   4  -3   2  504.55   17.00
  -4  -3  -2  487.25   16.60
  -4  -3  -2  495.65   16.00
  -4  -3  -2  472.35   16.60
  -4  -3  -2  482.45   17.60
   4  -3   2  476.65   18.30
   4  -3   2  465.55   18.20
  -4  -3  -2  513.35   15.60
   4  -3   2  500.65   16.00
   4  -3   2  498.05   20.40
   4  -3   2  493.55   16.70
   4   3   2  499.45   15.90
  -4   3  -2  486.95   16.20
   4   3   2  504.85   16.00
  -4   3  -2  501.35   17.80
  -4   3  -2  503.55   18.40
   4   3   2  508.25   15.60
  -4   3  -2  507.15   16.00
  -4   3  -2  492.25   20.10
  -5  -3  -2 1331.87   39.90
   5  -3   2 1305.27   44.00
  -5  -3  -2 1338.77   40.60
  -5  -3  -2 1381.76   40.50
  -5  -3  -2 1323.57   40.80
   5  -3   2 1311.57   42.00
  -5  -3  -2 1322.67   42.00
   5  -3   2 1386.56   41.80
  -5  -3  -2 1299.97   40.70
   5  -3   2 1303.57   42.50
   5  -3   2 1372.06   40.70
   5  -3   2 1340.87   40.40
   5   3   2 1338.97   38.90
  -5   3  -2 1352.76   40.80
   5   3   2 1231.48   43.50
  -5   3  -2 1293.47   42.10
  -5   3  -2 1292.57   43.70
  -5   3  -2 1329.77   41.70
  -5   3  -2 1367.86   41.90
   5   3   2 1330.97   40.10
   5   3   2 1365.66   40.60
  -5   3  -2 1378.16   40.50
  -6  -3  -2   15.60    2.30
  -6  -3  -2   17.30    9.10
   6  -3   2   16.40   12.40
  -6  -3  -2   11.60    7.90
  -6  -3  -2   17.50    2.50
   6  -3   2   22.20   10.10
  -6  -3  -2   11.80    2.10
  -6  -3  -2   20.00    7.60
   6  -3   2   14.30    9.30
   6  -3   2   12.30    2.70
  -6   3  -2   19.20    8.40
   6   3   2    9.50    5.10
   6   3   2   13.80    1.40
   6   3   2   18.00    2.40
   6   3   2    9.70    9.20
  -6   3  -2    9.60    9.30
  -6   3  -2   11.20    2.80
  -6   3  -2   18.80   12.30
  -6   3  -2   22.20    2.80
   6   3   2   15.10    2.30
  -7  -3  -2  175.18   17.90
  -7  -3  -2  199.38    8.30
   7  -3   2  185.28   25.80
  -7  -3  -2  176.38    7.40
  -7  -3  -2  128.99   23.00
   7  -3   2  196.68   19.30
  -7  -3  -2  182.88    7.70
  -7  -3  -2  186.48   18.90
   7  -3   2  170.28   21.60
   7   3   2  176.98   12.20
   7   3   2  165.18    6.20
   7   3   2  174.58    7.50
  -7   3  -2  184.68    9.40
  -7   3  -2  177.28   24.30
   7   3   2  171.18   21.40
  -7   3  -2  189.98   20.40
  -7   3  -2  185.78   18.90
   8  -3   2   60.29   21.60
   8  -3   2   57.09   15.60
  -8  -3  -2   44.80   17.40
  -8  -3  -2   47.20   14.50
  -8  -3  -2   60.79   14.20
  -8   3  -2   51.69   20.50
  -8   3  -2   50.19   15.00
  -8   3  -2   58.89   16.90
   8   3   2   30.50    3.10
   8   3   2   45.90    8.40
   8   3   2   49.90   17.00
  -8  -4   2   16.60   15.10
  -8  -4   2   36.50    3.60
  -8  -4   2   12.50   14.60
   8  -4  -2   11.80   20.90
   8  -4  -2   18.10   15.70
   8  -4  -2   14.00   14.50
  -8   4   2   26.10   17.40
   8   4  -2    9.30   16.10
  -8   4   2    8.00   19.70
  -8   4   2    8.50   15.80
  -7  -4   2  263.97   21.70
   7  -4  -2  264.47   22.20
  -7  -4   2  245.38   18.30
  -7  -4   2  247.08    8.70
  -7  -4   2  243.88    9.60
   7  -4  -2  195.98   23.80
  -7  -4   2  228.88   21.60
  -7   4   2  251.77   22.20
   7   4  -2  240.28   21.20
  -7   4   2  282.57   14.20
  -7   4   2  273.57   22.20
   6  -4  -2  540.85   23.70
   6  -4  -2  539.25   20.10
   6  -4  -2  535.85   22.90
   6  -4  -2  516.65   26.60
  -6  -4   2  514.55   22.00
  -6  -4   2  554.64   23.30
  -6  -4   2  559.64   17.80
  -6  -4   2  524.55   20.80
  -6  -4   2  543.55   17.20
  -6  -4   2  509.55   17.60
  -6   4   2  547.55   17.70
   6   4  -2  540.25   18.40
  -6   4   2  535.35   23.50
  -6   4   2  506.85   25.70
  -6   4   2  544.85   18.10
  -6   4   2  565.84   19.30
  -6   4   2  558.64   22.80
   6   4  -2  545.35   17.80
  -6   4   2  545.45   18.00
   6   4  -2  513.45   22.80
  -5  -4   2   24.80    2.80
   5  -4  -2   36.00    7.90
   5  -4  -2   22.10    7.60
   5  -4  -2   23.00    2.80
   5  -4  -2   20.30    3.40
  -5  -4   2   25.80    6.50
  -5  -4   2   28.90    2.00
   5  -4  -2   24.90    3.10
  -5  -4   2   29.00    2.40
  -5  -4   2   31.10    7.50
  -5  -4   2   25.20    5.70
  -5   4   2   22.10    9.70
  -5   4   2   24.50    2.90
  -5   4   2   28.30    2.80
  -5   4   2   19.20    2.80
  -5   4   2   25.30    7.50
  -5   4   2   20.70    3.70
   5   4  -2   24.70    3.10
  -5   4   2   26.40    7.50
   5   4  -2   23.40    2.90
   4  -4  -2 2412.86   67.99
  -4  -4   2 2304.47   67.49
  -4  -4   2 2217.38   67.19
   4  -4  -2 2264.67   68.49
   4  -4  -2 2356.16   68.79
   4  -4  -2 2317.27   68.09
  -4  -4   2 2238.08   68.49
  -4  -4   2 2236.58   66.59
   4  -4  -2 2251.47   68.29
  -4  -4   2 2233.88   67.89
   4  -4  -2 2252.67   69.69
  -4  -4   2 2324.47   66.89
  -4   4   2 2297.07   67.69
  -4   4   2 2343.07   67.89
   4   4  -2 2356.36   68.19
  -4   4   2 2321.37   68.69
   4   4  -2 2313.87   67.49
  -4   4   2 2352.86   67.59
   4   4  -2 2256.87   67.39
  -4   4   2 2245.48   68.19
  -4   4   2 2219.18   69.49
  -4   4   2 2195.48   68.59
   3  -4  -2  587.94   18.00
  -3  -4   2  549.05   17.70
  -3  -4   2  574.14   19.70
  -3  -4   2  579.34   17.00
  -3  -4   2  575.14   17.50
   3  -4  -2  578.34   17.70
  -3  -4   2  552.44   18.20
   3  -4  -2  566.84   19.40
   3  -4  -2  575.34   18.60
   3  -4  -2  559.34   20.60
   3  -4  -2  542.55   18.90
  -3   4   2  572.24   17.60
  -3   4   2  532.65   18.80
  -3   4   2  549.15   20.40
  -3   4   2  577.04   17.70
  -3   4   2  551.84   17.90
  -3   4   2  572.74   18.50
   3   4  -2  573.24   17.50
   3   4  -2  574.14   17.90
   3   4  -2  549.35   18.90
  -2  -4   2 3021.90   89.39
   2  -4  -2 3031.10   90.09
  -2  -4   2 3057.99   88.79
  -2  -4   2 3029.10   88.99
   2  -4  -2 3016.30   89.69
   2  -4  -2 3162.98   89.79
   2  -4  -2 3108.19   89.49
  -2  -4   2 2904.01   89.29
  -2  -4   2 3144.79   89.89
  -2  -4   2 3057.19   88.89
  -2  -4   2 3015.20   90.29
   2  -4  -2 3119.29   90.09
   2  -4  -2 3000.20   89.59
   2  -4  -2 3043.80   90.49
  -2   4   2 3193.58   89.89
  -2   4   2 3086.59   90.39
  -2   4   2 3111.99   89.59
  -2   4   2 3116.99   90.49
  -2   4   2 3161.98   89.39
  -2   4   2 2978.40   89.99
   2   4  -2 3034.00   89.39
  -2   4   2 3048.20   89.49
  -1  -4   2 4264.47  126.79
   1  -4  -2 4458.45  125.99
   1  -4  -2 4441.76  126.19
   1  -4  -2 4228.68  126.29
   1  -4  -2 4280.97  126.09
   1  -4  -2 4185.68  126.59
   1  -4  -2 4236.78  126.59
   1  -4  -2 4374.96  126.49
  -1  -4   2 4243.18  125.69
  -1  -4   2 4191.48  126.19
  -1  -4   2 4411.56  126.79
  -1  -4   2 4362.06  126.09
   1  -4  -2 4401.76  126.29
   1   4  -2 4423.76  125.79
  -1   4   2 4489.15  126.49
  -1   4   2 4256.97  126.49
  -1   4   2 4451.45  126.39
   1   4  -2 4285.47  126.09
  -1   4   2 4276.77  125.79
  -1   4   2 4461.75  126.49
  -1   4   2 4258.77  125.79
  -1   4   2 4558.74  126.49
   0  -4   2  251.47    9.10
   0  -4  -2  251.07    9.20
   0  -4  -2  250.47   10.10
   0  -4  -2  260.07    8.40
   0  -4   2  255.97    8.80
   0  -4  -2  260.57    8.00
   0  -4  -2  251.77    9.90
   0  -4  -2  265.57    8.10
   0  -4   2  257.47    8.20
   0  -4  -2  267.67    8.40
   0  -4   2  248.98    9.00
   0  -4   2  259.07    8.60
   0  -4   2  263.27   10.00
   0   4  -2  263.57    8.30
   0   4   2  267.47    8.50
   0   4  -2  247.48   10.20
   0   4  -2  262.77    7.90
   0   4  -2  261.47    7.90
   0   4  -2  258.07    8.70
   0   4   2  264.37    8.70
   0   4   2  255.87    9.50
   0   4   2  255.97    8.40
   0   4  -2  252.17    8.60
  -1  -4  -2 4126.89  115.29
   1  -4   2 4077.99  115.49
  -1  -4  -2 3808.12  114.79
   1  -4   2 3944.61  115.49
  -1  -4  -2 3512.65  114.99
  -1  -4  -2 3839.22  114.79
   1  -4   2 3966.00  116.19
  -1  -4  -2 3917.31  115.89
   1  -4   2 4056.89  115.99
   1  -4   2 3981.50  115.69
   1  -4   2 4154.28  115.89
  -1  -4  -2 3620.14  115.19
   1   4   2 4204.68  115.89
  -1   4  -2 4125.99  115.29
  -1   4  -2 4294.77  116.19
   1   4   2 4000.20  115.49
  -1   4  -2 3938.01  115.49
  -1   4  -2 4158.38  115.69
   1   4   2 3697.73  114.99
   1   4   2 4024.00  115.09
  -2  -4  -2  387.26   13.00
   2  -4   2  388.56   13.10
  -2  -4  -2  381.56   14.60
   2  -4   2  379.96   14.40
   2  -4   2  365.66   14.10
  -2  -4  -2  392.96   12.40
  -2  -4  -2  406.06   12.10
  -2  -4  -2  392.76   12.00
   2  -4   2  359.06   15.30
   2  -4   2  387.96   13.40
   2  -4   2  396.96   12.90
  -2   4  -2  405.26   15.50
  -2   4  -2  421.26   14.70
  -2   4  -2  436.56   13.10
  -2   4  -2  444.06   12.90
  -2   4  -2  415.76   14.20
   2   4   2  451.15   12.40
   2   4   2  428.06   12.30
  -2   4  -2  424.86   13.70
  -3  -4  -2 1319.67   38.50
  -3  -4  -2 1330.17   38.30
   3  -4   2 1273.67   41.10
  -3  -4  -2 1277.67   40.30
  -3  -4  -2 1274.37   39.10
   3  -4   2 1376.76   40.10
  -3  -4  -2 1299.87   38.80
   3  -4   2 1340.57   39.20
   3  -4   2 1302.27   40.10
  -3  -4  -2 1245.38   38.70
   3  -4   2 1283.57   39.80
  -3   4  -2 1293.37   41.10
  -3   4  -2 1260.97   39.70
  -3   4  -2 1369.56   40.20
  -3   4  -2 1281.27   39.70
   3   4   2 1349.27   38.70
  -3   4  -2 1296.97   40.00
  -3   4  -2 1311.97   39.40
  -4  -4  -2  964.80   29.50
   4  -4   2  951.50   31.60
   4  -4   2 1014.60   30.30
   4  -4   2 1021.10   30.00
   4  -4   2 1036.40   32.20
  -4  -4  -2  982.40   29.00
   4  -4   2  938.21   33.10
  -4  -4  -2  946.41   29.70
  -4  -4  -2  953.20   30.40
  -4  -4  -2  982.50   30.00
  -4  -4  -2  960.30   29.00
   4  -4   2  950.70   31.20
  -4   4  -2 1000.10   30.10
  -4   4  -2  968.60   31.40
  -4   4  -2  931.81   33.00
  -4   4  -2 1001.40   29.80
   4   4   2  958.60   29.30
   4   4   2  941.51   29.60
  -4   4  -2  973.70   31.00
   4   4   2  964.70   29.40
  -4   4  -2  957.60   31.30
  -5  -4  -2    7.80    5.80
   5  -4   2    8.60    3.00
  -5  -4  -2    4.60    1.60
  -5  -4  -2    5.60    1.60
   5  -4   2    8.00    7.20
  -5  -4  -2    6.60    1.40
   5  -4   2    7.10    1.80
  -5  -4  -2    6.40    5.80
   5  -4   2    5.40   10.60
   5  -4   2    2.30    7.50
   5  -4   2    6.00    1.70
  -5  -4  -2    8.60    6.60
  -5   4  -2    2.70    7.70
  -5   4  -2    6.50    3.00
   5   4   2    8.90    1.60
  -5   4  -2    8.30   10.10
  -5   4  -2    6.20    8.10
  -5   4  -2    6.40    2.60
   5   4   2    3.90    1.50
   5   4   2   10.70    1.40
  -6  -4  -2  701.93   25.20
   6  -4   2  701.93   32.20
  -6  -4  -2  701.23   25.60
  -6  -4  -2  738.03   22.30
   6  -4   2  717.73   29.20
  -6  -4  -2  726.93   22.70
   6  -4   2  724.13   27.50
   6  -4   2  674.53   22.90
  -6  -4  -2  705.03   22.80
  -6  -4  -2  714.33   26.90
   6  -4   2  682.23   24.20
  -6   4  -2  711.53   31.40
  -6   4  -2  721.33   27.50
  -6   4  -2  725.33   27.90
   6   4   2  707.63   23.60
  -6   4  -2  717.33   24.40
   6   4   2  653.83   22.60
  -7  -4  -2   70.69    5.00
   7  -4   2   77.69   23.80
  -7  -4  -2   88.59   11.00
   7  -4   2   77.29   14.30
  -7  -4  -2   59.89    4.70
  -7  -4  -2   73.79    4.50
   7  -4   2   87.69   13.90
  -7  -4  -2   73.29   11.50
  -7   4  -2   80.09   14.10
  -7   4  -2   74.59   13.10
  -7   4  -2   77.99   17.90
   7   4   2   55.19    4.60
   7   4   2   69.59   12.90
  -8  -4  -2   49.10   14.30
  -8  -4  -2   39.60   15.50
   8  -4   2   55.29   17.20
   8  -4   2   45.90   17.70
  -8  -4  -2   51.89   15.90
   8  -4   2   52.79   23.40
  -8   4  -2   59.19   16.60
  -8   4  -2   62.59   18.30
   8   4   2   45.80   17.10
  -8   4  -2   40.50   21.30
   8   4   2   29.30    4.00
   8  -5  -2   72.29   18.10
   8  -5  -2   43.80   23.50
   8  -5  -2   66.89   17.60
  -8  -5   2   53.89   16.40
  -8  -5   2   51.59   15.50
  -8   5   2   62.49   17.40
  -8   5   2   27.10   20.80
  -8   5   2   52.19   17.20
  -7  -5   2   54.29    5.00
  -7  -5   2   65.59   13.80
  -7  -5   2   65.99   11.30
  -7  -5   2   61.89    4.30
  -7  -5   2   78.49   14.10
   7  -5  -2   75.89   14.20
   7  -5  -2   70.99   18.80
   7  -5  -2   66.79   13.80
  -7   5   2   63.99   13.10
  -7   5   2   67.59   17.00
  -7   5   2   88.99   14.80
   6  -5  -2   54.99   11.60
  -6  -5   2   63.09   11.20
   6  -5  -2   43.30   14.30
  -6  -5   2   52.59    2.70
  -6  -5   2   46.40    8.00
   6  -5  -2   32.10    5.20
   6  -5  -2   57.79   13.50
  -6  -5   2   46.40    3.30
  -6  -5   2   47.20    8.70
  -6  -5   2   34.20    3.70
  -6   5   2   34.10    3.70
   6   5  -2   51.29    3.30
  -6   5   2   37.40    3.70
  -6   5   2   60.89    5.20
   6   5  -2   44.70    3.00
  -6   5   2   50.69   10.70
  -6   5   2   34.60   14.90
  -6   5   2   41.50   12.90
   6   5  -2   51.39    4.30
  -6   5   2   50.79    3.90
  -5  -5   2 1006.10   34.30
   5  -5  -2 1033.80   34.90
  -5  -5   2  988.30   32.00
   5  -5  -2 1075.69   33.10
   5  -5  -2 1008.80   36.80
  -5  -5   2 1017.50   30.30
   5  -5  -2 1038.30   31.70
   5  -5  -2 1001.10   34.40
  -5  -5   2 1018.60   31.30
  -5  -5   2  998.40   32.70
   5  -5  -2 1029.80   32.00
   5   5  -2 1027.20   32.10
  -5   5   2 1013.60   33.90
  -5   5   2 1044.20   32.00
  -5   5   2 1007.40   34.70
  -5   5   2 1052.99   31.70
  -5   5   2  967.70   36.10
  -5   5   2 1040.20   33.00
  -5   5   2 1019.40   31.50
   5   5  -2 1014.00   31.10
  -4  -5   2   50.29    7.90
  -4  -5   2   37.00    2.00
  -4  -5   2   38.50    2.20
  -4  -5   2   42.40    5.30
  -4  -5   2   43.80    4.90
   4  -5  -2   43.40    4.10
   4  -5  -2   32.20    4.40
  -4  -5   2   36.10    2.60
   4  -5  -2   31.80    7.00
   4  -5  -2   34.40    6.80
  -4   5   2   31.90    2.80
   4   5  -2   48.20    3.20
  -4   5   2   39.20    4.90
  -4   5   2   50.39    8.20
   4   5  -2   37.80    2.40
  -4   5   2   35.40    9.10
  -4   5   2   49.99    3.20
  -4   5   2   31.80    6.60
   3  -5  -2 1721.13   52.89
   3  -5  -2 1671.43   51.49
  -3  -5   2 1880.51   51.99
   3  -5  -2 1767.42   50.99
  -3  -5   2 1571.24   50.19
  -3  -5   2 1676.13   50.59
  -3  -5   2 1740.43   52.29
   3  -5  -2 1740.03   52.19
  -3  -5   2 1724.13   50.09
  -3  -5   2 1614.74   50.39
   3  -5  -2 1826.92   52.09
   3  -5  -2 1738.23   51.29
  -3  -5   2 1635.54   50.59
  -3   5   2 1682.93   52.69
  -3   5   2 1785.02   51.19
  -3   5   2 1756.02   51.89
   3   5  -2 1647.74   50.29
   3   5  -2 1730.73   50.49
  -3   5   2 1708.93   50.89
  -3   5   2 1678.33   52.09
  -3   5   2 1660.53   51.29
  -3   5   2 1753.92   51.39
   2  -5  -2 1091.69   34.70
  -2  -5   2 1101.89   34.80
   2  -5  -2 1103.19   33.70
  -2  -5   2 1080.79   34.30
  -2  -5   2 1118.59   32.40
  -2  -5   2 1028.00   33.10
   2  -5  -2 1136.89   33.10
   2  -5  -2 1119.29   33.80
  -2  -5   2 1066.39   33.00
   2  -5  -2 1063.49   34.40
   2  -5  -2 1084.89   33.70
  -2  -5   2 1097.89   32.40
   2  -5  -2 1099.59   33.60
  -2   5   2 1081.09   34.30
  -2   5   2 1115.49   34.70
  -2   5   2 1078.59   33.30
   2   5  -2 1129.79   32.80
  -2   5   2 1134.49   32.90
  -2   5   2 1136.79   33.80
  -2   5   2 1166.78   33.30
  -2   5   2 1164.98   33.60
   2   5  -2 1108.49   32.60
  -1  -5   2  480.95   15.50
   1  -5  -2  481.45   16.50
  -1  -5   2  412.46   15.00
   1  -5  -2  465.45   16.80
  -1  -5   2  474.35   15.90
   1  -5  -2  496.95   15.20
   1  -5  -2  478.25   16.10
  -1  -5   2  489.35   14.50
   1  -5  -2  504.05   15.30
  -1  -5   2  493.25   14.90
   1  -5  -2  490.35   15.30
   1  -5  -2  490.35   14.80
  -1  -5   2  485.15   15.30
   1  -5  -2  474.75   15.60
  -1   5   2  489.75   15.20
  -1   5   2  487.15   15.30
   1   5  -2  497.65   14.90
  -1   5   2  477.25   16.70
  -1   5   2  498.55   15.40
  -1   5   2  447.96   16.00
   1   5  -2  496.55   14.90
   0  -5   2 1202.58   36.20
   0  -5  -2 1169.58   36.30
   0  -5  -2 1163.38   36.80
   0  -5  -2 1235.88   36.20
   0  -5   2 1224.98   35.90
   0  -5   2 1201.68   36.30
   0  -5  -2 1227.68   36.00
   0  -5   2 1248.98   36.60
   0  -5  -2 1229.48   35.70
   0  -5  -2 1186.38   37.00
   0  -5   2 1173.48   36.00
   0  -5   2 1191.88   36.80
   0   5  -2 1241.78   36.30
   0   5  -2 1249.88   36.40
   0   5   2 1254.77   36.40
   0   5   2 1199.58   36.80
   0   5   2 1241.08   36.00
   0   5  -2 1195.18   37.20
   0   5  -2 1234.38   36.00
  -1  -5  -2  632.54   20.90
  -1  -5  -2  633.74   18.90
   1  -5   2  653.83   19.40
   1  -5   2  615.14   20.10
   1  -5   2  619.74   20.50
  -1  -5  -2  636.24   18.70
  -1  -5  -2  628.64   19.20
  -1  -5  -2  604.84   20.80
   1  -5   2  617.04   21.10
   1  -5   2  614.14   20.50
   1  -5   2  630.94   19.90
  -1  -5  -2  639.74   19.40
  -1  -5  -2  639.54   18.60
   1   5   2  643.94   20.30
  -1   5  -2  633.14   21.10
   1   5   2  649.74   18.90
  -1   5  -2  652.13   19.60
  -1   5  -2  611.84   21.00
  -1   5  -2  644.04   20.00
  -1   5  -2  658.43   19.10
   1   5   2  645.94   18.80
  -1   5  -2  651.63   20.00
   2  -5   2 2225.38   64.19
   2  -5   2 2147.69   64.79
  -2  -5  -2 2109.59   62.39
   2  -5   2 2272.67   64.59
   2  -5   2 2172.78   64.09
  -2  -5  -2 2156.78   63.09
   2  -5   2 2188.58   63.79
  -2  -5  -2 2150.98   64.19
  -2  -5  -2 1987.10   62.49
  -2  -5  -2 2151.98   63.29
  -2   5  -2 2166.98   64.79
  -2   5  -2 2142.59   64.39
   2   5   2 2134.19   62.29
  -2   5  -2 2103.19   64.39
  -2   5  -2 2249.77   64.29
  -2   5  -2 2184.08   63.69
  -2   5  -2 2239.28   63.99
  -2   5  -2 2187.38   62.49
   2   5   2 1932.11   62.39
  -3  -5  -2  821.32   24.20
   3  -5   2  823.42   26.20
   3  -5   2  801.82   28.30
   3  -5   2  809.42   27.20
  -3  -5  -2  810.32   25.40
  -3  -5  -2  823.02   24.30
   3  -5   2  845.32   25.60
  -3  -5  -2  826.52   24.70
  -3  -5  -2  812.92   27.40
   3  -5   2  804.02   26.80
   3  -5   2  834.12   25.40
  -3  -5  -2  808.02   24.30
  -3  -5  -2  775.22   25.00
  -3   5  -2  825.42   27.30
  -3   5  -2  817.52   25.50
   3   5   2  824.22   24.40
  -3   5  -2  830.12   24.60
  -3   5  -2  811.32   26.70
  -3   5  -2  855.91   25.10
  -3   5  -2  821.52   28.40
   3   5   2  840.42   24.30
  -4  -5  -2  198.28   14.20
  -4  -5  -2  194.88    6.70
  -4  -5  -2  187.38    9.30
  -4  -5  -2  204.08   10.30
   4  -5   2  204.78    7.60
  -4  -5  -2  194.08    6.50
   4  -5   2  180.18   13.30
   4  -5   2  197.48   16.20
   4  -5   2  191.48    7.90
   4  -5   2  196.58    7.70
  -4  -5  -2  183.68   10.10
   4  -5   2  197.08    8.50
   4  -5   2  190.28   13.40
  -4   5  -2  197.58   13.40
  -4   5  -2  200.68    7.30
  -4   5  -2  176.38   13.00
  -4   5  -2  192.28    7.70
   4   5   2  186.48    6.70
   4   5   2  188.58    6.60
  -4   5  -2  177.58   15.90
  -4   5  -2  177.58    8.40
   5  -5   2  305.37   11.80
  -5  -5  -2  293.67   14.60
   5  -5   2  287.47   21.00
  -5  -5  -2  312.17   14.30
   5  -5   2  276.97   12.00
  -5  -5  -2  288.17   13.60
  -5  -5  -2  292.97   10.30
   5  -5   2  296.87   17.00
  -5  -5  -2  299.17    9.90
   5  -5   2  293.37   18.40
  -5   5  -2  289.07   20.40
   5   5   2  308.27   10.10
  -5   5  -2  311.47   18.00
  -5   5  -2  322.57   12.50
  -5   5  -2  304.07   17.70
   5   5   2  316.37   10.30
  -5   5  -2  296.87   12.20
   6  -5   2   -0.20   12.40
  -6  -5  -2    0.20    2.10
   6  -5   2    3.70   14.40
  -6  -5  -2    5.60    8.30
   6  -5   2    5.30   12.10
  -6  -5  -2    6.20    8.40
  -6  -5  -2    2.10    8.40
  -6  -5  -2    5.30    1.80
  -6  -5  -2    7.40    1.70
  -6   5  -2    5.20   16.80
  -6   5  -2   -0.60   13.80
   6   5   2    6.60    1.60
  -6   5  -2   11.40   11.00
   6   5   2    9.60    1.80
   6   5   2    4.40    1.60
   7  -5   2  105.89   20.80
   7  -5   2   83.59   14.90
  -7  -5  -2  105.49   11.70
  -7  -5  -2  104.29    5.60
  -7  -5  -2  111.29    5.30
  -7  -5  -2  110.69    5.80
  -7  -5  -2  104.69   12.30
   7  -5   2  105.19   16.90
  -7   5  -2   99.29    5.50
  -7   5  -2   90.79   19.40
   7   5   2   88.39    4.80
   7   5   2   92.59    5.70
  -7   5  -2   95.49   15.00
  -7   5  -2  102.49   15.50
   7  -6  -2   73.99   15.30
  -7  -6   2   66.29   17.00
  -7  -6   2   94.09    4.90
   7  -6  -2   69.89   15.40
  -7  -6   2   82.89   13.30
  -7  -6   2   78.09   11.90
   7  -6  -2   84.99   20.90
  -7  -6   2   79.99    4.00
  -7  -6   2   61.79    4.80
  -7   6   2   73.79   19.00
  -7   6   2   86.29   16.50
  -7   6   2   86.39   14.80
  -6  -6   2  334.27   11.50
  -6  -6   2  332.17   16.90
   6  -6  -2  313.77   13.30
  -6  -6   2  330.67   10.40
  -6  -6   2  340.87   21.90
   6  -6  -2  349.67   22.90
  -6  -6   2  309.87   11.30
  -6  -6   2  310.47   17.00
   6  -6  -2  331.67   26.70
   6  -6  -2  334.27   23.80
   6   6  -2  318.67   12.10
   6   6  -2  323.27   11.10
  -6   6   2  331.97   21.40
  -6   6   2  305.87   25.20
  -6   6   2  333.67   12.80
  -6   6   2  325.77   22.20
  -5  -6   2   14.10    9.40
  -5  -6   2   13.20    6.20
  -5  -6   2    9.60    5.90
   5  -6  -2   16.20   10.40
  -5  -6   2   11.60    1.40
   5  -6  -2    8.80    2.50
   5  -6  -2    7.40    9.30
   5  -6  -2    9.90   12.40
   5  -6  -2   13.10    2.40
  -5  -6   2   12.60    1.90
  -5   6   2   15.20    2.00
  -5   6   2    3.00    8.40
  -5   6   2    9.50    1.80
   5   6  -2   11.00    1.50
  -5   6   2   -1.50   11.00
   5   6  -2   11.40    1.40
  -5   6   2   11.80    8.80
  -4  -6   2  730.63   21.80
  -4  -6   2  716.43   23.00
  -4  -6   2  712.73   22.20
   4  -6  -2  725.93   26.50
  -4  -6   2  739.43   23.40
  -4  -6   2  713.03   23.00
   4  -6  -2  720.03   28.10
  -4  -6   2  728.83   22.70
   4  -6  -2  698.23   23.30
  -4  -6   2  721.23   26.50
   4  -6  -2  719.13   23.30
   4  -6  -2  730.93   26.00
   4  -6  -2  760.22   24.20
  -4   6   2  705.23   26.40
  -4   6   2  747.83   22.80
  -4   6   2  707.63   25.00
  -4   6   2  756.32   22.80
  -4   6   2  731.73   23.30
   4   6  -2  736.63   22.10
  -4   6   2  730.93   24.00
  -4   6   2  699.63   27.70
  -3  -6   2  294.57   10.40
   3  -6  -2  299.37   10.40
  -3  -6   2  284.37   10.50
  -3  -6   2  293.97    9.00
   3  -6  -2  279.87   10.00
   3  -6  -2  266.67   13.80
  -3  -6   2  269.17   11.50
  -3  -6   2  301.67   15.40
  -3  -6   2  288.77    9.20
  -3  -6   2  291.67   10.70
   3  -6  -2  290.07   10.90
   3  -6  -2  286.07   14.80
  -3   6   2  272.77   11.70
  -3   6   2  296.47    9.90
   3   6  -2  299.47    9.10
  -3   6   2  274.57   12.90
  -3   6   2  260.37   15.50
  -3   6   2  301.67    9.90
  -3   6   2  290.57   14.70
   3   6  -2  288.77    9.10
   2  -6  -2  907.21   29.20
   2  -6  -2  919.51   30.20
  -2  -6   2  939.01   27.40
  -2  -6   2  930.51   28.80
  -2  -6   2  893.81   28.00
  -2  -6   2  904.61   27.60
   2  -6  -2  962.60   29.00
   2  -6  -2  964.50   28.70
  -2  -6   2  922.11   28.20
   2  -6  -2  909.11   29.20
   2  -6  -2  924.11   29.10
  -2  -6   2  930.31   30.90
  -2  -6   2  927.31   27.60
   2  -6  -2  957.60   29.70
   2   6  -2  943.11   27.60
  -2   6   2  950.50   27.80
  -2   6   2  960.40   28.40
   2   6  -2  924.11   27.50
  -2   6   2  910.81   30.20
  -2   6   2  957.50   28.90
  -2   6   2  910.61   30.30
  -2   6   2  899.11   28.50
  -2   6   2  969.70   29.20
  -1  -6   2 3032.20   85.39
   1  -6  -2 2972.70   85.29
  -1  -6   2 2822.82   84.59
   1  -6  -2 2842.12   84.99
   1  -6  -2 2921.51   84.69
  -1  -6   2 2829.72   84.79
   1  -6  -2 2905.11   85.69
  -1  -6   2 2441.56   84.79
   1  -6  -2 2979.10   84.99
  -1  -6   2 2849.31   84.39
   1  -6  -2 3036.50   84.59
  -1  -6   2 2849.81   84.19
  -1  -6   2 2831.02   84.09
   1  -6  -2 2896.91   85.39
  -1   6   2 2872.61   85.59
  -1   6   2 2969.60   85.19
  -1   6   2 2987.30   85.89
   1   6  -2 2680.83   84.49
   1   6  -2 2915.31   84.39
  -1   6   2 2927.31   84.89
   1   6  -2 3031.10   84.49
  -1   6   2 3079.59   85.39
   0  -6  -2   28.20    3.60
   0  -6  -2   33.20    5.60
   0  -6  -2   27.20    4.00
   0  -6  -2   28.10    2.40
   0  -6   2   33.00    4.50
   0  -6   2   32.50    4.00
   0  -6  -2   32.10    1.90
   0  -6   2   37.00    2.30
   0  -6  -2   27.00    2.10
   0  -6   2   33.10    2.70
   0  -6   2   36.30    5.00
   0  -6   2   28.40    2.00
   0  -6  -2   31.90    5.00
   0   6  -2   38.90    2.20
   0   6  -2   34.60    2.20
   0   6   2   33.90    2.40
   0   6   2   27.20    5.30
   0   6  -2   23.40    5.40
   1  -6   2 2430.26   70.09
  -1  -6  -2 2311.77   69.39
   1  -6   2 2469.45   70.89
   1  -6   2 2442.06   70.69
  -1  -6  -2 2432.86   70.29
  -1  -6  -2 2302.37   70.99
  -1  -6  -2 2319.47   69.19
  -1  -6  -2 2389.06   71.09
   1  -6   2 2340.87   70.39
   1  -6   2 2313.27   71.19
   1  -6   2 2403.36   70.79
   1   6   2 2367.86   69.39
  -1   6  -2 2426.26   69.49
   1   6   2 2331.77   69.29
  -1   6  -2 2515.55   70.59
  -1   6  -2 2303.37   69.89
  -1   6  -2 2474.05   70.69
  -1   6  -2 2435.76   71.39
  -1   6  -2 2407.16   71.39
   1   6   2 2375.46   70.69
   2  -6   2  402.16   13.90
   2  -6   2  402.06   13.30
  -2  -6  -2  393.96   15.90
   2  -6   2  387.96   15.10
   2  -6   2  403.26   12.80
   2  -6   2  370.66   16.70
  -2  -6  -2  380.36   12.50
  -2  -6  -2  390.36   15.90
  -2  -6  -2  393.66   14.60
   2  -6   2  392.46   15.70
  -2   6  -2  368.06   16.70
  -2   6  -2  363.86   16.40
  -2   6  -2  401.86   12.40
  -2   6  -2  383.96   14.70
  -2   6  -2  404.66   13.10
  -3  -6  -2  430.26   12.60
   3  -6   2  410.46   14.00
  -3  -6  -2  424.86   13.40
   3  -6   2  413.86   16.90
  -3  -6  -2  424.16   17.80
  -3  -6  -2  418.36   15.40
  -3  -6  -2  422.16   12.70
   3  -6   2  420.36   19.40
   3  -6   2  446.36   14.40
   3  -6   2  439.96   14.90
   3  -6   2  422.56   17.80
  -3   6  -2  413.86   19.20
  -3   6  -2  421.26   14.90
  -3   6  -2  401.46   18.30
  -3   6  -2  406.36   16.60
  -3   6  -2  419.56   14.20
  -3   6  -2  408.86   13.60
  -3   6  -2  433.06   13.00
   4  -6   2  400.96   13.80
  -4  -6  -2  398.16   15.60
   4  -6   2  394.86   21.20
  -4  -6  -2  401.06   12.90
  -4  -6  -2  378.26   14.10
  -4  -6  -2  388.56   14.20
  -4  -6  -2  404.36   19.70
   4  -6   2  406.46   14.90
   4  -6   2  411.46   14.00
  -4  -6  -2  398.86   12.50
   4  -6   2  396.26   18.60
   4  -6   2  408.96   19.10
   4  -6   2  416.46   14.30
  -4   6  -2  397.56   15.00
  -4   6  -2  411.26   19.00
  -4   6  -2  409.66   12.90
  -4   6  -2  413.66   13.50
  -4   6  -2  410.96   18.50
  -4   6  -2  420.36   14.00
  -4   6  -2  407.06   21.30
   4   6   2  414.66   12.20
   4   6   2  399.76   12.30
  -5  -6  -2   10.60    1.60
   5  -6   2   16.90    2.70
   5  -6   2    9.20   12.70
  -5  -6  -2    6.80    6.30
  -5  -6  -2   12.90    7.10
  -5  -6  -2    7.40    9.80
  -5  -6  -2   12.80    1.80
   5  -6   2    3.40    3.00
  -5  -6  -2   12.50    1.60
   5  -6   2   13.50    9.70
  -5  -6  -2   12.10    6.10
   5  -6   2   11.70    9.60
  -5   6  -2    7.30   12.80
  -5   6  -2    9.70    9.20
  -5   6  -2   15.00    2.90
  -5   6  -2    4.30    2.80
  -5   6  -2   13.00    1.60
  -5   6  -2   13.60    9.70
   5   6   2   12.60    1.30
   5   6   2   14.30    1.50
  -6  -6  -2  314.77   10.50
  -6  -6  -2  326.27   24.80
   6  -6   2  253.27   12.80
  -6  -6  -2  316.87   10.50
  -6  -6  -2  303.97   17.50
   6  -6   2  330.77   28.80
   6  -6   2  321.37   21.60
  -6  -6  -2  310.67   18.10
   6  -6   2  333.37   24.90
  -6  -6  -2  304.97   17.40
  -6  -6  -2  326.77   11.50
  -6   6  -2  321.47   21.50
  -6   6  -2  315.17   23.80
  -6   6  -2  306.37   10.90
   6   6   2  293.77   10.40
   6   6   2  307.27   10.30
  -6   6  -2  311.67   27.70
  -7  -6  -2   47.60    3.80
  -7  -6  -2   34.30    3.70
  -7  -6  -2   49.99   13.50
  -7  -6  -2   40.90   12.00
  -7  -6  -2   40.00   12.10
   7  -6   2   43.40   16.50
  -7  -6  -2   33.40    4.20
   7  -6   2   57.89   22.60
  -7  -6  -2   53.89   17.80
   7  -6   2   38.70   15.70
  -7  -6  -2   45.30    4.80
  -7   6  -2   46.10   21.50
   7   6   2   49.70    6.10
  -7   6  -2   36.80    3.70
  -7   6  -2   59.39   17.40
  -7   6  -2   53.69   15.90
  -7  -7   2   67.99   17.20
  -7  -7   2   49.10    4.90
  -7  -7   2   53.19   12.30
   7  -7  -2   42.40   17.80
  -7  -7   2   51.49   10.80
   7  -7  -2   63.59   17.30
   7  -7  -2   51.99   22.20
  -7  -7   2   56.19    4.50
  -7   7   2   54.29   15.50
  -7   7   2   49.30   17.20
  -7   7   2   37.00   20.00
   6  -7  -2   18.70   13.60
  -6  -7   2   15.50   12.20
  -6  -7   2   14.20    7.50
  -6  -7   2   13.80    1.70
   6  -7  -2    9.50   13.50
  -6  -7   2   17.10    8.90
  -6  -7   2    5.60    3.00
  -6  -7   2   18.50    2.10
   6  -7  -2    1.70   16.00
  -6  -7   2   14.20    1.80
  -6  -7   2   15.40    7.00
   6   7  -2    9.70    1.80
  -6   7   2   11.20   12.90
  -6   7   2   10.80   15.40
  -6   7   2    9.10   16.00
   5  -7  -2  478.75   23.10
   5  -7  -2  534.45   17.40
  -5  -7   2  494.05   24.40
  -5  -7   2  496.25   15.40
  -5  -7   2  490.05   17.60
   5  -7  -2  467.15   35.80
   5  -7  -2  494.35   18.10
  -5  -7   2  480.35   15.10
   5  -7  -2  534.55   18.00
  -5  -7   2  494.25   16.80
  -5  -7   2  479.85   18.60
  -5  -7   2  484.45   17.50
   5  -7  -2  394.16   34.90
  -5   7   2  494.35   22.10
  -5   7   2  496.75   16.20
   5   7  -2  490.85   15.30
  -5   7   2  486.75   24.90
  -5   7   2  515.15   16.90
  -5   7   2  466.15   26.20
   5   7  -2  482.35   15.00
   4  -7  -2   98.79    6.10
  -4  -7   2  102.99    5.50
  -4  -7   2  112.29    8.80
   4  -7  -2  104.59   15.60
   4  -7  -2   97.79   14.00
  -4  -7   2  105.09    7.00
  -4  -7   2  104.59    4.00
  -4  -7   2  120.69   16.20
  -4  -7   2  103.99    9.00
  -4  -7   2   98.49    6.30
   4  -7  -2  105.29    5.10
   4  -7  -2  102.69   12.60
  -4   7   2   95.39   12.40
  -4   7   2   98.09   11.90
  -4   7   2  102.69    4.70
  -4   7   2  114.69   16.70
  -3  -7   2  806.42   23.50
   3  -7  -2  780.62   27.10
  -3  -7   2  791.62   24.80
   3  -7  -2  772.72   25.60
   3  -7  -2  796.82   28.90
  -3  -7   2  740.83   24.70
   3  -7  -2  792.02   25.20
   3  -7  -2  797.12   28.50
  -3  -7   2  824.62   25.30
  -3  -7   2  803.12   29.20
   3  -7  -2  817.22   25.70
  -3   7   2  751.02   28.50
  -3   7   2  836.72   24.90
  -3   7   2  777.92   25.90
  -3   7   2  751.82   25.10
  -3   7   2  803.42   28.40
  -3   7   2  791.62   25.90
  -3   7   2  825.82   24.20
   2  -7  -2  678.03   24.90
   2  -7  -2  708.53   22.70
  -2  -7   2  677.13   21.20
   2  -7  -2  695.73   24.90
  -2  -7   2  701.23   25.90
  -2  -7   2  699.73   22.30
   2  -7  -2  673.83   23.30
   2  -7  -2  708.03   22.40
   2  -7  -2  700.13   23.00
  -2  -7   2  692.73   22.30
   2  -7  -2  705.93   21.60
   2  -7  -2  726.03   22.30
  -2   7   2  679.63   22.00
  -2   7   2  684.83   22.20
  -2   7   2  704.93   24.90
  -2   7   2  713.83   21.70
   2   7  -2  705.13   20.60
  -2   7   2  656.43   24.60
   2   7  -2  702.53   20.60
  -2   7   2  713.33   22.30
  -2   7   2  697.83   21.10
   1  -7  -2  319.67   14.50
   1  -7  -2  340.07   13.50
   1  -7  -2  345.37   11.10
   1  -7  -2  326.67   13.40
   1  -7  -2  345.27   15.60
  -1  -7   2  337.07   13.20
   1  -7  -2  341.37   11.60
  -1  -7   2  346.97   12.00
   1  -7  -2  343.07   11.80
  -1  -7   2  331.37   10.70
  -1  -7   2  330.27   12.20
  -1  -7   2  329.97   13.10
  -1   7   2  359.16   12.00
  -1   7   2  342.17   15.60
   1   7  -2  351.36   10.80
   1   7  -2  356.06   11.00
  -1   7   2  361.66   11.60
  -1   7   2  354.76   11.40
  -1   7   2  342.37   11.50
   0  -7   2 1079.59   31.80
   0  -7  -2 1032.50   32.20
   0  -7   2 1050.49   33.10
   0  -7  -2 1050.39   31.70
   0  -7  -2 1075.89   31.50
   0  -7  -2 1029.70   33.10
   0  -7   2 1078.09   31.40
   0  -7   2 1054.79   32.80
   0  -7  -2 1067.99   31.10
   0  -7  -2 1073.49   32.10
   0  -7  -2 1046.80   33.80
   0  -7   2 1114.29   32.60
   0  -7   2 1057.79   32.10
   0   7  -2 1039.20   34.20
   0   7   2 1027.50   33.60
   0   7   2 1115.09   31.90
   0   7  -2 1084.29   31.90
   0   7   2  986.60   32.00
   0   7  -2  960.60   32.70
   0   7   2 1009.20   31.30
  -1  -7  -2   69.69    4.30
   1  -7   2   80.79   10.10
   1  -7   2   75.49    4.40
  -1  -7  -2   88.09   10.70
  -1  -7  -2   82.39    2.90
  -1  -7  -2   77.89    2.90
  -1  -7  -2   79.69   10.50
   1  -7   2   88.59   10.60
   1  -7   2   80.49    8.80
  -1  -7  -2   76.89    4.40
   1  -7   2   77.59    4.10
  -1   7  -2   95.99    9.20
  -1   7  -2   81.29    2.90
  -1   7  -2   83.99    3.90
   1   7   2   75.89   10.10
  -1   7  -2   76.19    4.10
   2  -7   2  630.14   22.20
   2  -7   2  648.14   20.70
  -2  -7  -2  614.94   20.70
   2  -7   2  621.34   24.00
  -2  -7  -2  642.34   22.90
   2  -7   2  646.04   23.10
  -2  -7  -2  635.04   23.20
   2  -7   2  653.13   20.20
  -2  -7  -2  651.73   22.30
   2  -7   2  653.83   20.90
  -2   7  -2  656.83   21.20
  -2   7  -2  632.14   21.50
  -2   7  -2  627.94   23.90
  -2   7  -2  620.84   23.60
  -2   7  -2  654.53   19.50
  -2   7  -2  641.14   20.40
   3  -7   2  619.64   23.30
  -3  -7  -2  626.84   24.20
  -3  -7  -2  637.84   21.90
   3  -7   2  637.84   21.10
   3  -7   2  629.24   20.10
   3  -7   2  605.14   24.20
  -3  -7  -2  621.94   20.40
   3  -7   2  639.14   20.70
   3  -7   2  627.84   25.50
  -3  -7  -2  628.54   23.70
  -3   7  -2  630.84   18.80
  -3   7  -2  625.74   24.60
  -3   7  -2  632.04   22.60
  -3   7  -2  615.34   21.00
  -3   7  -2  668.03   19.80
  -3   7  -2  619.54   20.40
  -3   7  -2  630.94   25.50
  -4  -7  -2   43.70    2.30
   4  -7   2   41.10    3.80
   4  -7   2   34.60    4.10
   4  -7   2   50.39   10.00
  -4  -7  -2   52.59    7.50
   4  -7   2   45.20    3.90
  -4  -7  -2   51.19   10.30
  -4  -7  -2   48.10    5.10
   4  -7   2   45.50   11.60
   4  -7   2   37.70    9.30
  -4   7  -2   50.89    2.90
  -4   7  -2   50.69   10.50
  -4   7  -2   53.09    3.50
  -4   7  -2   52.69   12.10
  -4   7  -2   60.19    3.90
  -4   7  -2   49.60    8.60
   5  -7   2  316.77   14.30
  -5  -7  -2  364.96   17.70
  -5  -7  -2  342.87   16.20
  -5  -7  -2  373.86   12.00
  -5  -7  -2  376.56   23.50
  -5  -7  -2  360.96   11.40
   5  -7   2  358.16   23.60
   5  -7   2  308.67   31.80
   5  -7   2  356.06   25.80
  -5   7  -2  365.86   26.30
  -5   7  -2  371.76   21.30
  -5   7  -2  362.16   24.60
  -5   7  -2  376.46   12.60
  -6  -7  -2   -3.40    9.10
  -6  -7  -2    1.40    1.80
   6  -7   2   -5.50   13.30
   6  -7   2    4.10   17.40
  -6  -7  -2   -3.30    7.90
  -6  -7  -2    8.80   14.40
  -6  -7  -2    6.80   10.00
   6  -7   2   -8.80   15.10
  -6  -7  -2    2.20    1.80
   6   7   2    3.80    1.70
  -6   7  -2    3.90   13.00
  -6   7  -2   -3.70   13.80
   6   7   2   -1.00    1.30
  -6   7  -2   -6.80   17.90
  -7  -7  -2   51.19   18.90
   7  -7   2   48.80   23.40
  -7  -7  -2   53.29   13.10
  -7  -7  -2   47.40   11.00
  -7  -7  -2   63.29    5.30
   7  -7   2   60.39   20.10
  -7  -7  -2   42.20    5.10
   7  -7   2   55.09   18.00
  -7  -7  -2   56.59   13.60
   7   7   2   56.79    3.50
  -7   7  -2   52.39   17.30
  -7   7  -2   53.49    6.20
  -7   7  -2   55.49   18.80
  -7   7  -2   48.70   22.60
  -6  -8   2  137.99   19.20
  -6  -8   2  194.78   11.80
  -6  -8   2  158.58    6.00
   6  -8  -2  182.08   25.20
  -6  -8   2  173.58    7.00
   6  -8  -2  161.28   21.10
   6  -8  -2  186.48   19.20
   6  -8  -2  170.68    9.70
  -6  -8   2  173.98   13.70
  -6  -8   2  163.98   16.60
  -6   8   2  141.69   19.90
  -6   8   2  184.38   19.80
  -6   8   2  163.88   23.00
  -6   8   2  179.58    7.50
  -5  -8   2   25.00   12.60
   5  -8  -2   24.40   13.10
  -5  -8   2   26.10    7.20
  -5  -8   2   26.90    6.80
  -5  -8   2   24.90    2.80
   5  -8  -2    8.00   14.50
   5  -8  -2   16.80   12.30
  -5  -8   2   22.90    2.30
   5  -8  -2   17.70    3.60
  -5  -8   2   21.10    2.20
  -5   8   2   20.10    2.20
  -5   8   2   26.70   10.70
  -5   8   2   14.40   14.60
  -5   8   2   22.10   13.00
  -4  -8   2  273.47   12.80
  -4  -8   2  272.37   12.80
   4  -8  -2  316.77   11.70
   4  -8  -2  272.37   18.30
   4  -8  -2  281.27   11.40
   4  -8  -2  237.88   27.10
  -4  -8   2  292.67   21.40
  -4  -8   2  276.57   10.60
  -4  -8   2  291.27    9.00
   4  -8  -2  269.27   10.70
  -4   8   2  276.67   17.00
  -4   8   2  282.17   22.30
  -4   8   2  280.77   10.60
  -4   8   2  272.97   21.30
  -4   8   2  253.77   10.70
   3  -8  -2  114.69    6.40
  -3  -8   2  127.69    4.20
  -3  -8   2  123.29    8.90
   3  -8  -2  117.59    5.50
   3  -8  -2  109.49   16.60
   3  -8  -2  116.49   13.80
  -3  -8   2  131.29    5.80
  -3  -8   2  115.59    9.90
  -3  -8   2  120.79   12.70
  -3  -8   2  128.19   18.00
   3  -8  -2  114.69    6.90
   3  -8  -2  118.49   16.70
  -3   8   2  134.29   16.30
  -3   8   2  102.69   15.80
  -3   8   2  114.49    4.60
  -3   8   2  107.59   11.10
  -3   8   2  114.89    6.00
  -3   8   2  105.19    5.60
   2  -8  -2  206.38   12.90
  -2  -8   2  232.98   18.10
   2  -8  -2  226.98    8.10
   2  -8  -2  224.98    9.00
  -2  -8   2  222.78    8.80
  -2  -8   2  227.28   11.60
   2  -8  -2  229.28   12.30
   2  -8  -2  222.38    8.70
   2  -8  -2  221.28    8.60
  -2  -8   2  225.58    9.90
   2  -8  -2  204.08   15.30
  -2  -8   2  214.38   11.70
   2  -8  -2  235.48   16.30
  -2  -8   2  224.88    7.20
  -2   8   2  211.78   16.40
  -2   8   2  194.08   14.70
  -2   8   2  214.08    8.50
  -2   8   2  226.98    7.90
  -2   8   2  214.28    8.50
   1  -8  -2  935.51   28.40
   1  -8  -2  871.61   29.80
   1  -8  -2  878.91   29.00
  -1  -8   2  888.91   28.50
  -1  -8   2  896.51   28.10
   1  -8  -2  919.51   31.30
   1  -8  -2  903.51   28.90
  -1  -8   2  889.31   27.40
  -1  -8   2  934.11   28.80
   1  -8  -2  929.41   28.10
  -1  -8   2  901.71   29.10
  -1  -8   2  910.21   27.20
   1   8  -2  912.01   27.30
  -1   8   2  919.61   28.00
   1   8  -2  900.81   27.20
  -1   8   2  933.71   27.90
  -1   8   2  884.91   28.50
  -1   8   2  897.01   31.30
  -1   8   2  958.90   27.90
   0  -8  -2    5.10    6.20
   0  -8   2    6.20    6.10
   0  -8  -2    4.40    1.30
   0  -8  -2   10.10    7.50
   0  -8  -2   -5.20    4.70
   0  -8  -2    2.90    1.60
   0  -8  -2   -2.10    4.80
   0  -8   2   -0.80    2.10
   0  -8   2    7.00    5.10
   0  -8   2    7.60    1.20
   0  -8   2    6.90    6.30
   0   8   2    9.40    7.80
   0   8  -2    7.00    1.30
   0   8  -2    8.00    2.20
   0   8  -2    1.30    7.80
   0   8   2    2.80    1.00
   0   8  -2    4.30    1.20
  -1  -8  -2  919.91   27.50
   1  -8   2  934.91   29.00
   1  -8   2  954.20   28.40
  -1  -8  -2  950.80   31.60
  -1  -8  -2  859.51   28.70
  -1  -8  -2  895.41   31.10
   1  -8   2  928.11   31.00
  -1  -8  -2  952.60   28.80
   1  -8   2  930.71   30.00
   1  -8   2  921.41   31.40
   1  -8   2  934.01   29.40
  -1   8  -2  919.91   32.30
  -1   8  -2 1019.30   29.60
   1   8   2  905.51   31.20
  -1   8  -2  907.81   29.00
  -1   8  -2  952.80   29.00
   2  -8   2  210.88    7.50
  -2  -8  -2  191.78    7.40
   2  -8   2  183.48    8.10
  -2  -8  -2  187.88   15.20
  -2  -8  -2  198.18   14.30
   2  -8   2  192.58   13.70
   2  -8   2  195.68   15.20
   2  -8   2  193.48   15.80
  -2  -8  -2  195.58   14.20
  -2   8  -2  188.68    8.20
  -2   8  -2  196.18    6.50
  -2   8  -2  186.48   11.30
  -2   8  -2  186.08    7.50
  -2   8  -2  191.28   16.10
  -2   8  -2  202.28   16.10
   3  -8   2  510.45   24.80
  -3  -8  -2  532.05   23.40
   3  -8   2  518.35   18.20
  -3  -8  -2  535.75   16.90
   3  -8   2  520.25   23.20
   3  -8   2  524.55   17.30
  -3  -8  -2  513.55   22.00
   3  -8   2  513.15   22.20
  -3  -8  -2  525.05   20.90
  -3   8  -2  534.95   17.60
  -3   8  -2  539.35   24.10
  -3   8  -2  526.05   24.60
  -3   8  -2  554.04   16.70
  -3   8  -2  520.25   18.10
  -3   8  -2  527.15   20.90
  -4  -8  -2  273.77    9.70
   4  -8   2  291.67   22.80
  -4  -8  -2  281.07   21.00
   4  -8   2  251.47   26.90
  -4  -8  -2  274.87   16.00
   4  -8   2  241.48   11.40
  -4  -8  -2  276.47   19.40
  -4  -8  -2  271.87    8.60
   4  -8   2  266.57   10.30
   4  -8   2  295.57   18.90
  -4   8  -2  298.07    9.80
  -4   8  -2  275.17   18.40
  -4   8  -2  294.77   21.40
  -4   8  -2  275.47   23.50
  -4   8  -2  283.47    8.90
  -5  -8  -2    5.70   22.30
  -5  -8  -2    6.90    1.90
  -5  -8  -2    5.50    1.40
  -5  -8  -2    4.40    7.30
   5  -8   2    5.50   12.80
   5  -8   2    7.10   16.10
  -5  -8  -2   11.20    9.40
   5  -8   2    5.60   12.60
  -5   8  -2    9.90   16.40
  -5   8  -2    8.70   13.30
  -5   8  -2    1.70   11.20
  -5   8  -2    8.40    1.60
  -5   8  -2    9.00    2.40
   6  -8   2  146.89    9.60
  -6  -8  -2  143.89   20.00
  -6  -8  -2  140.59    6.10
   6  -8   2  134.89   21.80
  -6  -8  -2  134.99   17.30
   6  -8   2  135.09   18.70
  -6  -8  -2  141.79    6.10
   6  -8   2  116.59   16.70
  -6  -8  -2  120.69   17.60
  -6   8  -2  153.98   23.10
  -6   8  -2  124.29   15.80
  -6   8  -2  140.99   18.80
  -5  -9   2  238.88   15.30
   5  -9  -2  279.27   29.70
   5  -9  -2  236.08   13.80
   5  -9  -2  227.38   29.00
  -5  -9   2  248.48   14.70
   5  -9  -2  260.47   24.30
  -5  -9   2  256.77    8.60
  -5   9   2  275.37   27.70
  -5   9   2  238.78    9.10
  -5   9   2  255.07   21.50
  -5   9   2  244.18   29.20
  -5   9   2  283.47    9.80
  -4  -9   2   73.59   11.50
  -4  -9   2   61.29    3.00
  -4  -9   2   69.49    7.70
   4  -9  -2   75.89   14.70
  -4  -9   2   73.59    4.80
  -4  -9   2   67.29    7.20
  -4  -9   2   79.99   14.30
   4  -9  -2   70.39   15.10
   4  -9  -2   52.29    5.60
   4  -9  -2   68.39   13.80
  -4   9   2   70.19    9.90
  -4   9   2   58.89   14.10
  -4   9   2   79.79    4.20
  -4   9   2   74.59   14.60
  -4   9   2   58.89    3.50
   3  -9  -2  184.48   19.10
   3  -9  -2  159.48    7.70
   3  -9  -2  156.58   17.40
  -3  -9   2  167.98   12.30
   3  -9  -2  146.39   19.40
   3  -9  -2  156.68    6.80
  -3  -9   2  160.98    7.30
  -3  -9   2  152.38   15.00
   3  -9  -2  181.38    7.40
  -3  -9   2  154.98   10.70
  -3  -9   2  172.48   22.10
  -3   9   2  145.79   19.00
  -3   9   2  156.98    6.40
  -3   9   2  155.58   12.10
  -3   9   2  179.98   20.50
  -3   9   2  164.28    6.10
  -2  -9   2  364.16   11.70
   2  -9  -2  354.76   19.60
   2  -9  -2  358.96   16.40
  -2  -9   2  377.26   13.20
   2  -9  -2  369.56   12.40
   2  -9  -2  361.36   18.00
  -2  -9   2  349.77   15.90
  -2  -9   2  377.06   23.70
   2  -9  -2  381.36   13.10
   2  -9  -2  350.16   13.00
   2  -9  -2  385.76   21.90
   2  -9  -2  369.96   13.10
  -2  -9   2  362.36   14.30
  -2  -9   2  366.26   16.30
  -2   9   2  369.16   13.90
  -2   9   2  379.36   21.50
  -2   9   2  348.27   19.20
  -2   9   2  376.36   12.30
  -1  -9   2  104.99    5.60
  -1  -9   2  124.09    4.80
   1  -9  -2  125.79    5.40
  -1  -9   2  121.09    6.20
   1  -9  -2  118.39   11.70
  -1  -9   2  123.49   10.40
   1  -9  -2  131.49    5.70
  -1  -9   2  116.29   12.60
  -1  -9   2  125.99    9.90
   1  -9  -2  122.39    6.20
   1  -9  -2  108.29   12.70
   1  -9  -2  126.19   11.70
  -1  -9   2  130.99    4.40
   1  -9  -2  137.09   16.40
  -1   9   2  125.29   16.80
   1   9  -2  120.09    4.80
  -1   9   2  127.79    5.10
   1   9  -2  126.29    4.50
   0  -9   2  350.46   13.10
   0  -9  -2  360.36   19.40
   0  -9  -2  363.36   11.60
   0  -9  -2  344.47   14.50
   0  -9   2  350.26   12.00
   0  -9   2  358.66   17.30
   0  -9   2  355.36   17.00
   0  -9   2  362.46   15.60
   0  -9  -2  346.17   16.40
   0  -9  -2  364.86   12.70
   0  -9   2  357.26   11.80
   0  -9  -2  371.16   11.50
   0  -9  -2  351.66   14.70
   0   9   2  361.06   11.90
   0   9   2  353.46   11.40
   0   9  -2  375.06   12.30
   0   9  -2  364.26   20.70
   0   9   2  355.86   19.50
   0   9  -2  378.86   12.50
   1  -9   2   29.20    9.00
  -1  -9  -2   33.00    9.40
   1  -9   2   17.00    2.50
  -1  -9  -2   27.40    5.20
   1  -9   2   23.90    2.80
   1  -9   2   25.90    3.50
  -1  -9  -2   30.10    8.40
   1  -9   2   26.90    8.60
  -1  -9  -2   23.80    1.80
   1  -9   2   27.00    7.60
  -1   9  -2   20.50    2.60
  -1   9  -2   27.70    2.70
  -1   9  -2   26.50   10.50
   1   9   2   22.90    9.30
  -1   9  -2   25.90    2.70
  -2  -9  -2  142.39   16.80
   2  -9   2  141.49   15.30
   2  -9   2  152.68    6.30
   2  -9   2  151.48   17.30
  -2  -9  -2  153.18   16.70
   2  -9   2  154.48   17.40
   2  -9   2  132.39    6.80
  -2  -9  -2  149.79    4.80
  -2  -9  -2  149.88    4.90
  -2  -9  -2  146.49   16.50
  -2  -9  -2  150.68    6.80
  -2   9  -2  136.59   17.40
  -2   9  -2  148.49    6.60
  -2   9  -2  119.09   19.10
  -2   9  -2  138.19    6.20
  -3  -9  -2  155.78   19.00
   3  -9   2  124.39   21.10
   3  -9   2  182.78   18.00
  -3  -9  -2  179.78   17.30
  -3  -9  -2  173.58   16.90
   3  -9   2  164.58   20.00
   3  -9   2  166.38    7.20
  -3  -9  -2  172.28    7.00
  -3   9  -2  185.58   21.10
  -3   9  -2  162.18    6.10
  -3   9  -2  173.18   15.00
  -3   9  -2  160.48   20.10
   4  -9   2    4.70   12.10
   4  -9   2   10.00   13.90
  -4  -9  -2   10.00    9.80
  -4  -9  -2   12.50    2.10
  -4  -9  -2   12.10   13.20
  -4  -9  -2   16.20   10.70
   4  -9   2    9.80   14.30
  -4  -9  -2   12.30    1.40
  -4   9  -2   12.20    2.00
  -4   9  -2   13.50   15.40
  -4   9  -2   10.90   10.70
  -4   9  -2   13.00   13.60
   5  -9   2  168.98   19.10
  -5  -9  -2  140.89   14.30
  -5  -9  -2  140.69   18.70
  -5  -9  -2  134.79    5.20
   5  -9   2  132.69   16.30
   5  -9   2  146.69   21.20
  -5  -9  -2  149.19   17.50
  -5  -9  -2  149.59    6.50
   5  -9   2  141.19    8.90
  -5  -9  -2  130.09   13.40
  -5   9  -2  127.39   19.60
  -5   9  -2  154.88    7.10
  -5   9  -2  157.88   23.10
  -5   9  -2  152.18   18.90
   5 -10  -2    9.50   19.40
  -5 -10   2    5.30    9.10
  -5 -10   2    7.60   17.70
  -5 -10   2    8.50   16.10
  -5  10   2    4.70   19.00
   4 -10  -2  162.98    8.50
   4 -10  -2  168.08   24.20
  -4 -10   2  155.28   13.50
  -4 -10   2  153.58   18.20
   4 -10  -2  170.78   18.00
   4 -10  -2  167.58   27.30
  -4 -10   2  165.98   15.00
  -4 -10   2  165.48   21.30
  -4  10   2  164.88   17.40
  -4  10   2  138.39   17.00
  -4  10   2  136.69   17.70
   3 -10  -2   29.90    4.80
  -3 -10   2   27.20    7.30
  -3 -10   2   37.20   16.50
  -3 -10   2   35.10   10.60
   3 -10  -2   22.80   11.60
   3 -10  -2   16.60   13.00
  -3 -10   2   27.40    8.70
   3 -10  -2   29.90    3.40
  -3 -10   2   19.50    1.80
   3 -10  -2   18.60   12.70
  -3  10   2   19.00    2.90
  -3  10   2   16.20   13.00
  -3  10   2   27.50   15.20
  -2 -10   2   90.99   12.30
  -2 -10   2   84.89    3.90
  -2 -10   2   98.29   15.30
   2 -10  -2   77.59    5.50
   2 -10  -2   96.49   13.20
   2 -10  -2   98.49   10.90
   2 -10  -2   88.09   11.80
  -2 -10   2  101.79    8.10
   2 -10  -2   88.09   13.40
  -2 -10   2   93.29   11.30
   2 -10  -2  102.49    5.40
   2 -10  -2   92.99    5.10
  -2 -10   2  100.19    9.70
  -2  10   2   90.79   13.50
   1 -10  -2  229.08   16.10
  -1 -10   2  248.68   10.60
   1 -10  -2  277.27   21.30
  -1 -10   2  253.57   16.90
  -1 -10   2  242.88   14.20
   1 -10  -2  243.98    8.80
  -1 -10   2  237.38   11.00
   1 -10  -2  223.48   15.90
   1 -10  -2  256.77    9.60
   1 -10  -2  218.38    9.70
   1 -10  -2  239.88   14.80
  -1 -10   2  248.58   11.60
  -1  10   2  218.68    9.10
   1  10  -2  247.68    7.40
   1  10  -2  226.58    7.80
   0 -10   2    8.50    7.70
   0 -10  -2    6.30    8.10
   0 -10  -2    4.90   10.80
   0 -10  -2    5.70    6.40
   0 -10  -2    7.80    1.70
   0 -10   2    8.80    8.50
   0 -10  -2    3.30    7.30
   0 -10   2   10.20    1.80
   0 -10   2    7.30    9.20
   0 -10  -2    7.50    2.60
   0  10   2   11.70   11.30
   0  10  -2   13.40   11.80
   0  10  -2    8.10    1.40
   1 -10   2  355.06   12.40
   1 -10   2  356.36   12.90
  -1 -10  -2  327.47   19.60
   1 -10   2  357.76   18.90
  -1 -10  -2  352.16   12.60
   1 -10   2  356.36   21.90
  -1 -10  -2  354.96   11.10
   1 -10   2  358.66   20.70
  -1 -10  -2  338.27   14.90
  -1 -10  -2  352.36   21.60
   1  10   2  373.36   22.40
  -1  10  -2  357.56   12.10
  -1  10  -2  351.26   25.10
  -1  10  -2  367.36   12.40
  -1  10  -2  339.57   13.00
   2 -10   2   21.30   12.00
   2 -10   2   15.30    3.00
   2 -10   2   18.50    2.50
  -2 -10  -2   21.10   11.60
  -2 -10  -2   14.20    1.70
  -2 -10  -2   24.90    2.70
  -2 -10  -2   22.80   11.30
  -2 -10  -2   26.00   11.80
   2 -10   2   19.30   10.40
  -2  10  -2   30.10   13.90
  -2  10  -2   21.10   12.50
   3 -10   2  148.79    7.80
  -3 -10  -2  146.99   22.50
  -3 -10  -2  161.58   21.10
   3 -10   2  155.28   24.00
  -3 -10  -2  169.18   21.20
  -3 -10  -2  127.99    6.60
   3 -10   2  159.28   15.90
   3 -10   2  161.68   21.90
  -3  10  -2  149.88   14.90
  -3  10  -2  171.08   18.10
  -3  10  -2  158.88   24.70
   4 -10   2  107.09   17.90
  -4 -10  -2   94.69   13.20
  -4 -10  -2   88.39   13.30
  -4 -10  -2  100.79   16.60
   4 -10   2   88.79   18.20
   4 -10   2   96.89   15.20
  -4 -10  -2   86.99    5.50
  -4  10  -2   83.69   12.60
  -4  10  -2   74.79   16.40
  -4  10  -2   96.29   19.20
  -3 -11   2   97.79   11.30
  -3 -11   2  107.19   19.70
  -3 -11   2   99.69   13.00
   3 -11  -2  101.79   16.30
   3 -11  -2   88.49   20.40
   3 -11  -2  114.89   18.60
  -3 -11   2   95.09    9.90
  -3  11   2   94.79   16.50
  -3  11   2  116.09   20.30
  -2 -11   2   56.39    3.60
  -2 -11   2   53.49    8.90
   2 -11  -2   44.00   12.40
  -2 -11   2   56.69    8.80
   2 -11  -2   51.79    4.50
   2 -11  -2   64.29   16.30
  -2 -11   2   51.49   11.10
  -2 -11   2   40.50   17.40
   2 -11  -2   63.29    4.60
   2 -11  -2   56.09   12.70
  -2  11   2   53.69   16.20
   1 -11  -2   55.29   13.90
  -1 -11   2   59.89   11.30
   1 -11  -2   50.99    5.00
  -1 -11   2   72.79   17.60
   1 -11  -2   67.19   11.20
  -1 -11   2   66.39    9.70
   1 -11  -2   64.09    9.80
  -1 -11   2   66.09    3.70
   1 -11  -2   59.39   10.70
  -1  11   2   56.79   15.10
   0 -11  -2  197.58   24.20
   0 -11  -2  174.88   11.90
   0 -11  -2  194.38    6.80
   0 -11   2  176.98    6.60
   0 -11   2  175.38   17.00
   0 -11  -2  172.28   16.70
   0 -11   2  164.88   17.20
   0 -11  -2  154.58   15.80
   0 -11  -2  156.08   11.60
   0 -11   2  187.88   21.10
   0  11   2  182.28   24.40
   0  11  -2  191.38   26.90
   0  11  -2  186.38    6.40
  -1 -11  -2   18.40    2.50
   1 -11   2   24.40   11.20
  -1 -11  -2   22.50   11.40
   1 -11   2   19.30   13.00
  -1 -11  -2   20.50   21.40
   1 -11   2   22.90   12.70
  -1 -11  -2   13.10    7.80
  -1 -11  -2   15.20    3.40
   1  11   2   25.00   14.20
  -1  11  -2   13.30   15.30
  -2 -11  -2  127.39   15.70
  -2 -11  -2  111.39   24.40
  -2 -11  -2  140.19    6.40
  -2 -11  -2  103.89   14.10
   2 -11   2  110.19   13.80
   2 -11   2   97.69    6.10
   2 -11   2  121.39   15.90
  -2 -11  -2  108.39   11.40
   2 -11   2  110.39   15.20
  -2 -11  -2  118.09    4.40
  -2  11  -2  110.99   15.80
  -2  11  -2  115.89   18.60
  -3 -11  -2   52.49   26.10
   3 -11   2   54.29   17.20
  -3 -11  -2   60.49    6.80
   3 -11   2   56.99   15.00
  -3 -11  -2   71.29   15.70
   3 -11   2   42.60   16.40
  -3 -11  -2   51.89   16.50
  -3  11  -2   53.89   17.80
  -3  11  -2   53.89   18.80
   0 -12  -2   10.40   11.60
   0 -12   2   12.90   12.20
   0 -12  -2   15.30   11.20
   0 -12  -2   20.70   16.90
   0 -12   2   15.50   19.00
   0  12   2   12.10   17.90
   0  12  -2   15.20    2.00
  -8   0   3   28.80   14.30
   8   0  -3   28.20   18.50
  -8   0   3   31.50    3.90
  -8   0   3   22.00    3.90
  -8   0   3    5.60   14.80
   8   0  -3   24.50   12.00
  -8   0   3   35.40   15.40
   7   0  -3  836.52   30.20
   7   0  -3  848.82   30.30
   7   0  -3  873.41   26.70
  -7   0   3  808.32   27.90
  -7   0   3  831.52   32.70
  -7   0   3  837.42   27.00
  -7   0   3  860.11   40.50
  -7   0   3  862.21   31.30
  -7   0   3  944.61   30.20
   6   0  -3   44.90    3.60
   6   0  -3   53.39    4.30
  -6   0   3   62.09   10.20
  -6   0   3   42.00    4.50
  -6   0   3   50.29    3.60
  -6   0   3   48.80    4.00
   6   0  -3   44.60    3.40
   6   0  -3   57.69    7.00
   6   0  -3   49.30    7.70
  -6   0   3   51.59    3.20
   6   0  -3   52.69   10.80
  -6   0   3   59.39    8.60
  -6   0   3   43.80    9.90
  -5   0   3 1409.26   42.60
   5   0  -3 1346.17   42.20
   5   0  -3 1422.46   41.30
   5   0  -3 1412.46   42.50
  -5   0   3 1344.87   43.90
  -5   0   3 1365.16   42.50
  -5   0   3 1402.76   42.10
   5   0  -3 1311.87   41.70
  -5   0   3 1398.36   41.10
   5   0  -3 1372.66   41.90
  -5   0   3 1392.96   41.40
   5   0  -3 1365.26   44.10
  -5   0   3 1357.66   43.10
  -4   0   3  552.64   16.60
  -4   0   3  538.25   16.90
   4   0  -3  557.24   17.30
  -4   0   3  527.05   18.90
  -4   0   3  524.95   18.20
   4   0  -3  519.35   17.40
   4   0  -3  531.75   19.80
   4   0  -3  549.25   16.90
   4   0  -3  542.75   17.70
  -4   0   3  559.44   17.90
   4   0  -3  528.75   18.00
  -4   0   3  512.05   19.40
  -4   0   3  537.65   17.30
   3   0  -3 1388.16   42.50
  -3   0   3 1495.15   43.10
  -3   0   3 1386.36   43.50
   3   0  -3 1492.35   42.70
   3   0  -3 1472.45   42.30
   3   0  -3 1476.55   43.00
  -3   0   3 1504.95   42.70
  -3   0   3 1342.97   42.60
   3   0  -3 1367.76   42.20
  -3   0   3 1458.95   42.30
  -3   0   3 1405.76   43.10
  -3   0   3 1411.86   42.00
   3   0  -3 1371.86   43.40
  -2   0   3 1870.61   54.09
  -2   0   3 1809.92   54.19
  -2   0   3 1853.21   54.49
   2   0  -3 1872.51   54.59
  -2   0   3 1805.02   54.79
   2   0  -3 1924.91   54.29
  -2   0   3 1888.01   54.29
   2   0  -3 1820.72   54.19
  -2   0   3 1947.81   54.79
   2   0  -3 1848.81   54.89
   2   0  -3 1685.93   53.99
   2   0  -3 1833.72   54.09
   2   0  -3 1794.82   54.49
  -2   0   3 1872.51   53.79
   1   0  -3 2272.27   67.39
  -1   0   3 2250.97   67.19
   1   0  -3 2332.07   67.19
  -1   0   3 2279.07   67.79
  -1   0   3 2313.97   67.39
   1   0  -3 2369.46   67.69
  -1   0   3 2343.77   67.79
  -1   0   3 2309.67   67.39
   1   0  -3 2318.47   67.89
   1   0  -3 2355.26   67.49
  -1   0   3 2255.47   67.29
   1   0  -3 2268.27   67.29
   0   0  -3 5302.87  152.88
   0   0   3 5362.16  152.98
   0   0  -3 5075.79  152.88
   0   0   3 5132.99  154.08
   0   0  -3 5478.45  153.38
   0   0  -3 5188.78  153.38
   0   0   3 5467.95  152.88
   0   0   3 5458.45  153.38
   0   0   3 5062.69  152.88
   0   0  -3 5247.08  152.98
   1   0   3 6286.87  180.28
   1   0   3 6071.29  180.08
   1   0   3 6354.56  180.68
   1   0   3 6256.47  180.68
   1   0   3 6103.69  180.08
  -1   0  -3 6076.49  180.08
  -1   0  -3 6243.68  180.68
  -1   0  -3 6142.79  180.08
  -1   0  -3 6422.66  180.68
  -1   0  -3 6243.48  180.28
   2   0   3  525.05   16.40
  -2   0  -3  528.75   15.90
  -2   0  -3  499.65   16.70
  -2   0  -3  499.85   17.30
  -2   0  -3  525.05   15.20
   2   0   3  486.65   16.30
  -2   0  -3  539.85   16.50
  -2   0  -3  496.85   16.40
   2   0   3  517.45   15.80
   2   0   3  505.85   17.30
   2   0   3  519.75   15.20
  -3   0  -3 3683.83  102.89
  -3   0  -3 3453.75  103.49
  -3   0  -3 3322.97  101.89
  -3   0  -3 3595.04  102.49
  -3   0  -3 3425.76  102.59
   3   0   3 3555.94  103.19
  -3   0  -3 3651.73  103.39
   3   0   3 3426.66  103.49
   3   0   3 3593.04  102.39
   3   0   3 3350.26  102.49
   3   0   3 3582.14  102.29
   4   0   3    8.30    4.80
   4   0   3   13.30    2.20
  -4   0  -3    9.30    1.70
  -4   0  -3    9.20    3.70
  -4   0  -3    9.90    5.10
  -4   0  -3    6.70    1.90
   4   0   3   11.50    1.70
   4   0   3    9.00    6.40
  -4   0  -3    6.40    6.00
  -4   0  -3    8.90    1.60
  -5   0  -3  853.31   25.80
  -5   0  -3  817.82   29.50
  -5   0  -3  813.92   26.30
   5   0   3  805.62   27.30
   5   0   3  836.52   26.70
   5   0   3  847.72   25.70
  -5   0  -3  810.72   27.50
   5   0   3  839.52   25.50
  -5   0  -3  847.42   26.20
   5   0   3  820.92   29.80
  -6   0  -3  383.46   13.60
  -6   0  -3  370.86   16.20
   6   0   3  385.66   17.80
   6   0   3  395.76   12.90
  -6   0  -3  372.46   21.50
   6   0   3  404.56   13.10
  -6   0  -3  370.76   13.20
  -6   0  -3  372.36   19.30
   6   0   3  361.06   22.00
  -6   0  -3  386.26   14.50
  -7   0  -3   19.80    8.90
   7   0   3   26.20    9.90
  -7   0  -3   23.00    3.00
   7   0   3   17.60   15.10
  -7   0  -3   16.10   13.30
   7   0   3   23.20    3.20
   7   0   3   19.40    2.30
  -7   0  -3   14.50    3.50
  -8   0  -3   80.19    7.40
  -8   0  -3  104.59   19.80
  -8   0  -3   89.29   12.40
  -8   0  -3   85.29   16.00
   8   0   3   83.29   19.40
   8   0   3   93.69   13.70
   8   0   3   66.89    5.20
   8  -1  -3  273.77   30.60
  -8  -1   3  242.88   25.80
   8  -1  -3  285.37   22.50
   8  -1  -3  303.07   22.80
  -8  -1   3  245.78   11.30
  -8  -1   3  283.87   12.50
  -8  -1   3  301.37   25.20
  -8  -1   3  288.07   25.50
   8   1  -3  272.57   29.50
  -8   1   3  286.37   26.80
  -8   1   3  288.67   10.50
  -8   1   3  286.37   25.70
   8   1  -3  293.37   20.00
   8   1  -3  278.27    9.90
  -8   1   3  252.17   27.40
  -8   1   3  292.57   12.50
  -7  -1   3   16.10   11.30
  -7  -1   3    7.00   19.30
   7  -1  -3    7.90    2.10
  -7  -1   3   15.70    1.90
  -7  -1   3    8.90    9.70
   7  -1  -3   12.90    9.70
   7  -1  -3   16.40    8.90
  -7  -1   3   10.60    3.10
  -7  -1   3    8.80    2.20
  -7   1   3   12.80    2.00
  -7   1   3   12.90    3.00
  -7   1   3    8.40   12.50
  -7   1   3   -3.90   20.60
  -7   1   3   10.90    2.80
   7   1  -3   11.90    8.50
   7   1  -3   13.70    2.70
  -7   1   3    8.80   11.70
  -6  -1   3  742.13   25.90
   6  -1  -3  762.42   23.20
   6  -1  -3  733.63   25.60
  -6  -1   3  742.33   27.50
   6  -1  -3  734.53   29.20
  -6  -1   3  768.32   24.00
  -6  -1   3  757.52   23.70
  -6  -1   3  616.14   24.10
   6  -1  -3  759.42   24.60
   6  -1  -3  742.83   26.20
   6  -1  -3  741.13   23.70
  -6  -1   3  747.33   28.20
  -6   1   3  711.03   28.40
   6   1  -3  724.23   24.90
  -6   1   3  722.03   23.30
  -6   1   3  732.43   23.40
   6   1  -3  735.93   24.20
  -6   1   3  706.73   27.30
   6   1  -3  748.53   22.80
  -6   1   3  762.02   23.90
   6   1  -3  749.62   23.80
   6   1  -3  727.23   25.10
  -6   1   3  762.32   24.70
   6   1  -3  728.53   28.60
  -6   1   3  713.73   26.70
   5  -1  -3  853.51   28.40
  -5  -1   3  814.72   28.10
  -5  -1   3  856.31   29.70
  -5  -1   3  901.21   27.70
  -5  -1   3  896.11   27.30
   5  -1  -3  892.11   27.90
   5  -1  -3  849.81   30.30
   5  -1  -3  904.41   27.20
   5  -1  -3  836.12   27.80
  -5  -1   3  870.11   26.10
   5  -1  -3  904.41   26.70
  -5  -1   3  854.01   26.70
  -5  -1   3  866.81   29.20
  -5   1   3  897.41   28.00
  -5   1   3  898.41   27.30
   5   1  -3  828.02   27.50
   5   1  -3  829.82   29.80
  -5   1   3  873.61   30.50
  -5   1   3  846.92   29.20
  -5   1   3  865.11   26.80
  -5   1   3  844.32   26.70
   5   1  -3  898.91   27.60
  -5   1   3  842.42   28.40
   5   1  -3  837.72   27.20
   5   1  -3  875.11   27.20
   4  -1  -3 1264.07   38.10
  -4  -1   3 1215.28   39.20
  -4  -1   3 1313.97   38.50
  -4  -1   3 1280.57   37.20
   4  -1  -3 1231.28   39.70
  -4  -1   3 1306.17   38.20
   4  -1  -3 1313.17   37.80
   4  -1  -3 1232.08   38.10
   4  -1  -3 1195.98   38.30
  -4  -1   3 1248.38   39.00
   4  -1  -3 1279.37   38.70
  -4  -1   3 1191.68   38.20
   4   1  -3 1288.47   38.40
   4   1  -3 1281.87   37.50
   4   1  -3 1205.38   37.40
   4   1  -3 1214.18   39.20
  -4   1   3 1243.48   39.00
  -4   1   3 1308.47   38.20
  -4   1   3 1265.57   37.80
   4   1  -3 1227.18   37.90
  -4   1   3 1245.88   39.80
  -4   1   3 1291.57   38.80
  -4   1   3 1282.47   37.80
   4   1  -3 1327.97   38.30
  -4   1   3 1204.78   38.30
  -3  -1   3 6209.88  186.18
  -3  -1   3 6678.83  186.38
   3  -1  -3 6255.87  185.78
   3  -1  -3 6372.96  186.68
  -3  -1   3 5959.90  185.68
  -3  -1   3 6009.80  185.08
  -3  -1   3 6488.55  185.98
  -3  -1   3 6524.15  185.58
   3  -1  -3 6662.53  185.78
  -3  -1   3 6240.08  186.38
   3  -1  -3 6229.48  185.68
   3  -1  -3 6676.73  186.58
   3  -1  -3 6580.14  185.98
   3   1  -3 6622.04  186.18
  -3   1   3 6429.26  185.58
  -3   1   3 6159.08  185.78
  -3   1   3 6588.34  186.08
   3   1  -3 6485.45  185.58
  -3   1   3 6666.53  186.58
   3   1  -3 6709.43  186.38
  -3   1   3 6261.87  186.58
  -3   1   3 6588.24  185.78
   3   1  -3 6165.88  185.48
   3   1  -3 6200.58  186.38
  -3   1   3 6319.77  186.18
   2  -1  -3   78.49    3.40
   2  -1  -3   80.29    5.80
   2  -1  -3   78.09    5.20
  -2  -1   3   77.19    3.40
  -2  -1   3   78.99    5.30
  -2  -1   3   79.19    3.20
   2  -1  -3   81.49    3.40
   2  -1  -3   73.49    6.30
  -2  -1   3   77.29    3.80
   2  -1  -3   78.29    4.90
  -2  -1   3   84.69    6.00
   2  -1  -3   80.79    3.80
  -2  -1   3   77.59    6.00
   2   1  -3   77.49    4.90
   2   1  -3   79.59    2.70
  -2   1   3   84.69    5.60
  -2   1   3   85.49    3.80
   2   1  -3   82.79    3.70
  -2   1   3   85.49    6.40
  -2   1   3   77.39    5.10
  -2   1   3   82.69    3.60
   2   1  -3   86.69    3.30
  -2   1   3   77.69    3.20
   2   1  -3   74.39    6.10
  -2   1   3   84.19    3.40
  -1  -1   3 6809.72  211.08
  -1  -1   3 7140.39  211.28
  -1  -1   3 7543.85  211.18
   1  -1  -3 7616.04  211.08
  -1  -1   3 8295.17  211.68
   1  -1  -3 7424.66  211.08
  -1  -1   3 7959.70  211.08
   1  -1  -3 7293.07  211.58
   1  -1  -3 7217.48  211.38
   1  -1  -3 6546.54  210.88
  -1  -1   3 6938.01  211.58
   1  -1  -3 7744.43  211.18
  -1   1   3 6704.53  211.08
   1   1  -3 7976.70  211.38
   1   1  -3 7182.48  211.08
  -1   1   3 7416.76  211.28
   1   1  -3 6846.61  211.08
  -1   1   3 6989.10  211.48
   1   1  -3 6708.73  210.98
  -1   1   3 7451.95  211.58
  -1   1   3 7354.16  211.08
   1   1  -3 7349.86  211.58
   0  -1   3 2389.76   69.49
   0  -1   3 2315.17   69.59
   0  -1  -3 2366.56   69.09
   0  -1  -3 2363.06   69.79
   0  -1   3 2416.76   69.99
   0  -1  -3 2455.15   69.99
   0  -1   3 2394.66   69.39
   0  -1   3 2323.87   70.09
   0  -1  -3 2365.66   69.99
   0  -1  -3 2317.37   69.49
   0  -1  -3 2401.06   69.39
   0  -1   3 2274.27   69.59
   0   1   3 2505.55   69.99
   0   1   3 2505.85   69.09
   0   1   3 2456.75   69.79
   0   1  -3 2414.76   70.09
   0   1  -3 2198.38   70.79
   0   1   3 2463.95   69.39
   0   1   3 2469.35   69.89
   0   1  -3 2347.27   69.49
   0   1  -3 2447.96   69.49
   0   1  -3 2242.78   69.49
   0   1   3 2374.26   69.49
   1  -1   3 4106.09  121.49
  -1  -1  -3 4119.09  121.69
  -1  -1  -3 4350.06  122.19
  -1  -1  -3 4030.50  122.19
   1  -1   3 4348.06  122.29
  -1  -1  -3 4129.99  121.99
   1  -1   3 4124.69  121.79
   1  -1   3 4123.99  122.39
  -1  -1  -3 4192.88  121.69
   1  -1   3 4289.57  121.69
  -1   1  -3 4224.58  122.39
   1   1   3 4342.07  121.99
  -1   1  -3 4113.69  121.79
   1   1   3 4266.07  121.59
  -1   1  -3 4087.09  121.69
   1   1   3 4107.39  121.69
   1   1   3 4343.97  122.19
  -1   1  -3 3585.94  121.69
  -1   1  -3 4336.97  121.79
  -1   1  -3 4446.06  122.39
  -1   1  -3 4385.76  121.79
  -2  -1  -3 2963.20   89.99
   2  -1   3 2981.60   90.09
   2  -1   3 3070.79   90.99
  -2  -1  -3 3033.10   90.69
  -2  -1  -3 2988.20   90.39
   2  -1   3 3137.29   90.09
   2  -1   3 3128.09   90.69
  -2  -1  -3 3124.59   89.99
  -2  -1  -3 3217.78   90.59
   2  -1   3 3132.39   89.69
   2   1   3 3108.09   89.79
  -2   1  -3 3175.18   90.79
  -2   1  -3 3017.80   90.89
  -2   1  -3 3229.78   90.29
  -2   1  -3 3026.70   90.19
  -2   1  -3 3047.99   89.79
  -2   1  -3 3192.78   90.09
   2   1   3 3125.99   89.49
  -2   1  -3 2980.80   90.19
   2   1   3 3171.08   90.49
   2   1   3 2995.90   89.99
  -3  -1  -3  222.58    6.80
   3  -1   3  226.48    7.60
   3  -1   3  220.28    8.40
  -3  -1  -3  234.28    8.30
  -3  -1  -3  214.48   10.60
   3  -1   3  216.08    9.80
  -3  -1  -3  225.48    7.60
   3  -1   3  219.58   11.10
  -3  -1  -3  215.88    9.50
  -3   1  -3  218.38    8.90
  -3   1  -3  222.28    7.70
  -3   1  -3  212.38    8.60
   3   1   3  223.78    8.20
  -3   1  -3  220.18    8.00
   3   1   3  215.08    9.10
   3   1   3  224.28    7.20
  -3   1  -3  211.58   11.00
  -3   1  -3  211.88    9.90
   3   1   3  223.08    7.40
   3   1   3  211.28   10.70
  -4  -1  -3 1917.81   55.79
   4  -1   3 1884.71   56.99
   4  -1   3 1913.01   55.89
  -4  -1  -3 1835.32   56.19
   4  -1   3 1900.71   55.89
  -4  -1  -3 1978.60   56.39
   4  -1   3 1869.71   57.89
  -4  -1  -3 1807.82   55.29
  -4  -1  -3 1838.32   57.29
   4  -1   3 1887.61   56.49
  -4  -1  -3 1922.71   56.69
   4   1   3 1896.01   56.69
  -4   1  -3 1857.71   55.79
   4   1   3 1904.41   55.49
  -4   1  -3 1971.70   56.39
   4   1   3 1942.71   55.59
   4   1   3 1786.12   55.89
   4   1   3 1828.02   57.29
  -4   1  -3 1923.91   56.99
  -4   1  -3 1904.71   56.59
  -4   1  -3 1831.12   56.49
  -4   1  -3 1867.31   57.79
   5  -1   3  450.85   14.60
  -5  -1  -3  431.76   17.60
   5  -1   3  440.56   18.00
  -5  -1  -3  434.66   19.50
  -5  -1  -3  462.15   15.10
  -5  -1  -3  429.36   15.60
   5  -1   3  436.46   15.60
   5  -1   3  423.56   20.60
   5  -1   3  465.85   14.80
  -5  -1  -3  451.75   14.70
   5   1   3  467.45   14.50
  -5   1  -3  437.86   18.50
   5   1   3  441.66   19.90
   5   1   3  445.96   15.40
  -5   1  -3  442.16   20.60
  -5   1  -3  433.26   16.50
  -5   1  -3  458.35   15.10
   5   1   3  433.36   16.80
  -5   1  -3  460.95   15.50
   6  -1   3  232.08    8.80
   6  -1   3  250.37    8.90
  -6  -1  -3  223.88    8.90
   6  -1   3  228.58   20.60
   6  -1   3  242.38   16.00
  -6  -1  -3  237.98    9.30
  -6  -1  -3  240.78   15.50
  -6  -1  -3  233.28   12.70
  -6  -1  -3  234.18   18.40
   6   1   3  224.88    9.60
  -6   1  -3  246.38   10.30
  -6   1  -3  237.48   17.30
   6   1   3  231.58    8.70
   6   1   3  226.78   19.20
   6   1   3  239.78    8.30
  -6   1  -3  238.18    9.10
  -6   1  -3  227.78   13.90
  -6   1  -3  233.58   19.80
  -6   1  -3  261.27    9.60
   6   1   3  233.98   14.30
   7  -1   3  223.58   19.30
  -7  -1  -3  213.48    8.90
   7  -1   3  224.88    8.40
   7  -1   3  235.98   26.00
   7  -1   3  219.88    8.90
  -7  -1  -3  221.48   23.00
  -7  -1  -3  212.38    9.90
  -7  -1  -3  227.18   20.20
  -7  -1  -3  213.58    9.20
  -7  -1  -3  219.88   15.60
   7   1   3  212.98    7.90
  -7   1  -3  211.68   12.10
  -7   1  -3  212.88   24.00
   7   1   3  221.78    8.60
   7   1   3  213.98   17.40
  -7   1  -3  206.18   20.20
  -7   1  -3  204.38   16.80
   7   1   3  216.68   23.80
  -8  -1  -3    3.00   16.80
   8  -1   3    4.00   13.50
  -8  -1  -3    3.20   11.50
   8  -1   3   -6.60   20.10
  -8  -1  -3    2.60   15.20
  -8  -1  -3    2.10    3.70
  -8   1  -3    1.00   12.40
  -8   1  -3    9.00   19.00
   8   1   3   -0.60    2.90
   8   1   3   -1.80    2.40
   8   1   3    1.50   11.80
  -8   1  -3    1.10   15.60
   8   1   3   -1.50   19.00
  -8   1  -3    5.10    4.20
  -8  -2   3    6.20   14.00
  -8  -2   3   24.60   14.90
  -8  -2   3   17.00   13.30
   8  -2  -3   12.90   30.70
  -8  -2   3   19.40    2.90
   8  -2  -3   16.20   13.40
  -8   2   3   16.10    5.00
  -8   2   3   22.40   15.00
   8   2  -3   14.00   17.60
  -8   2   3   19.00   15.60
  -8   2   3   -0.80   16.00
   8   2  -3   12.90   10.00
  -8   2   3   15.10    3.60
  -7  -2   3  530.55   17.70
   7  -2  -3  533.45   24.00
   7  -2  -3  602.04   24.10
   7  -2  -3  541.15   24.10
  -7  -2   3  540.35   24.10
  -7  -2   3  519.05   17.30
  -7  -2   3  580.34   18.90
  -7  -2   3  539.85   25.90
  -7   2   3  523.35   17.70
  -7   2   3  535.95   19.40
   7   2  -3  500.55   20.70
  -7   2   3  503.55   28.60
   7   2  -3  543.65   17.00
  -7   2   3  476.65   32.50
  -6  -2   3    3.60    1.80
  -6  -2   3    7.70    8.50
   6  -2  -3    6.40    7.40
   6  -2  -3    5.90    8.20
  -6  -2   3    6.70    7.50
  -6  -2   3   11.70    9.30
   6  -2  -3    5.30    2.00
   6  -2  -3    2.90    2.50
   6  -2  -3   12.50   11.20
  -6  -2   3    8.50    1.40
  -6   2   3   14.20    2.50
  -6   2   3    2.40    8.50
   6   2  -3    8.10    1.80
   6   2  -3    8.10    9.50
  -6   2   3    5.90   10.20
   6   2  -3    7.70    6.20
  -6   2   3    8.60    1.70
  -6   2   3    4.30    2.50
  -6   2   3    4.00    8.60
  -5  -2   3  769.62   24.50
  -5  -2   3  750.52   25.40
  -5  -2   3  776.82   23.80
   5  -2  -3  773.42   24.90
  -5  -2   3  767.42   23.20
   5  -2  -3  742.83   25.60
   5  -2  -3  736.83   25.90
  -5  -2   3  792.02   27.10
   5  -2  -3  799.32   24.10
   5  -2  -3  726.93   25.60
   5  -2  -3  773.42   28.60
  -5  -2   3  749.82   26.80
  -5   2   3  770.02   24.50
   5   2  -3  747.43   24.50
  -5   2   3  785.42   28.50
  -5   2   3  788.82   24.20
   5   2  -3  747.53   26.90
   5   2  -3  803.92   24.80
  -5   2   3  756.72   27.00
  -5   2   3  752.22   26.00
   5   2  -3  798.72   23.50
   5   2  -3  787.82   24.70
  -5   2   3  772.72   24.10
  -5   2   3  783.02   25.20
  -4  -2   3 1169.18   35.10
   4  -2  -3 1169.78   35.30
  -4  -2   3 1132.69   34.10
   4  -2  -3 1100.69   37.10
   4  -2  -3 1199.58   35.00
   4  -2  -3 1166.18   36.00
  -4  -2   3 1109.29   35.30
  -4  -2   3 1131.19   36.40
  -4  -2   3 1207.08   35.50
  -4  -2   3 1100.19   36.20
   4  -2  -3 1124.09   35.70
   4  -2  -3 1097.39   35.70
  -4   2   3 1149.98   37.20
   4   2  -3 1140.39   36.30
  -4   2   3 1222.08   36.10
  -4   2   3 1163.68   35.80
  -4   2   3 1222.48   35.40
   4   2  -3 1180.58   34.50
   4   2  -3 1119.39   34.80
  -4   2   3 1119.89   35.80
   4   2  -3 1216.08   35.50
  -4   2   3 1215.48   35.00
   4   2  -3 1223.58   35.50
  -4   2   3 1124.09   36.30
  -3  -2   3 1757.32   54.69
  -3  -2   3 1893.21   54.19
  -3  -2   3 1831.92   53.99
  -3  -2   3 1802.12   54.79
  -3  -2   3 1919.71   54.49
   3  -2  -3 1805.72   55.29
   3  -2  -3 1884.31   53.99
   3  -2  -3 1807.52   54.29
   3  -2  -3 1879.21   54.19
  -3  -2   3 1772.42   53.09
   3  -2  -3 1807.12   54.29
  -3  -2   3 1756.52   53.99
   3  -2  -3 1892.51   54.79
  -3   2   3 1775.02   55.19
   3   2  -3 1860.71   53.69
   3   2  -3 1843.62   55.19
  -3   2   3 1774.32   54.29
  -3   2   3 1737.63   54.59
  -3   2   3 1871.61   53.99
  -3   2   3 1896.81   54.89
  -3   2   3 1938.21   54.29
   3   2  -3 1902.11   54.39
  -3   2   3 1901.61   54.29
   3   2  -3 1763.52   53.69
   3   2  -3 1649.04   55.49
   2  -2  -3 4493.55  128.49
  -2  -2   3 4557.14  127.99
  -2  -2   3 4256.27  128.29
   2  -2  -3 4529.65  127.89
  -2  -2   3 4532.45  128.29
   2  -2  -3 4262.47  127.99
  -2  -2   3 4507.55  127.69
   2  -2  -3 4577.14  127.99
   2  -2  -3 4285.87  128.69
  -2  -2   3 4469.05  128.49
   2  -2  -3 4376.46  128.29
  -2  -2   3 4270.97  127.79
   2  -2  -3 4268.17  127.99
  -2   2   3 4387.56  127.99
  -2   2   3 4363.06  128.69
   2   2  -3 4345.27  127.59
  -2   2   3 4177.08  127.89
  -2   2   3 4420.66  128.49
   2   2  -3 4453.05  128.29
  -2   2   3 4306.37  128.09
   2   2  -3 4662.43  128.39
   2   2  -3 4250.77  128.39
  -2   2   3 4466.15  127.89
  -2   2   3 4542.65  128.19
   2   2  -3 4280.67  128.09
   1  -2  -3  157.28    5.30
  -1  -2   3  158.98    5.80
   1  -2  -3  144.29    6.50
  -1  -2   3  149.19    7.40
  -1  -2   3  144.39    5.20
  -1  -2   3  148.59    5.20
  -1  -2   3  145.99    7.40
   1  -2  -3  154.28    7.00
   1  -2  -3  136.89    7.00
   1  -2  -3  158.88    5.20
   1  -2  -3  146.19    5.70
  -1  -2   3  145.79    6.40
   1   2  -3  165.68    5.20
  -1   2   3  162.58    5.90
  -1   2   3  151.78    6.10
   1   2  -3  159.58    5.80
   1   2  -3  150.98    6.00
  -1   2   3  143.99    8.10
   1   2  -3  145.79    6.10
  -1   2   3  155.98    5.20
  -1   2   3  154.68    6.30
   1   2  -3  156.88    5.80
  -1   2   3  157.48    5.70
   1   2  -3  161.38    4.70
   0  -2   3 7694.03  211.08
   0  -2  -3 7491.45  211.38
   0  -2   3 7577.54  211.58
   0  -2   3 7402.76  211.08
   0  -2  -3 7501.05  210.78
   0  -2  -3 7425.36  211.38
   0  -2   3 6091.59  210.68
   0  -2   3 7399.16  210.98
   0  -2  -3 7146.39  211.28
   0  -2   3 7645.74  211.68
   0   2   3 6682.23  210.78
   0   2   3 7444.56  211.28
   0   2  -3 7042.90  210.98
   0   2   3 7987.00  211.48
   0   2  -3 7511.35  211.58
   0   2  -3 6619.34  210.88
   1  -2   3 4562.84  128.29
   1  -2   3 4321.57  127.69
   1  -2   3 4255.67  127.69
  -1  -2  -3 4159.48  127.99
   1  -2   3 4319.47  127.69
   1  -2   3 4335.97  128.39
  -1  -2  -3 4279.37  127.39
   1  -2   3 4450.85  127.59
  -1  -2  -3 4523.75  127.99
  -1  -2  -3 4367.56  127.39
  -1  -2  -3 4207.78  127.99
   1   2   3 4515.85  127.89
  -1   2  -3 4315.57  127.69
   1   2   3 4517.85  127.29
  -1   2  -3 4515.05  128.49
   1   2   3 3928.61  127.39
   1   2   3 4656.43  128.09
  -1   2  -3 4305.87  127.59
  -1   2  -3 4570.44  127.69
  -1   2  -3 4587.64  128.39
  -1   2  -3 4621.44  127.69
   2  -2   3  469.15   14.50
   2  -2   3  430.36   15.40
   2  -2   3  474.85   15.20
  -2  -2  -3  467.95   14.20
  -2  -2  -3  486.25   14.80
   2  -2   3  440.06   15.20
  -2  -2  -3  442.96   15.50
   2  -2   3  476.45   14.30
  -2  -2  -3  445.56   14.60
  -2  -2  -3  451.15   15.70
   2  -2   3  442.76   16.40
  -2   2  -3  442.86   14.90
   2   2   3  439.06   15.40
  -2   2  -3  477.05   14.40
   2   2   3  468.35   14.60
   2   2   3  472.15   13.80
   2   2   3  479.35   13.60
  -2   2  -3  446.26   15.30
  -2   2  -3  451.15   14.80
   2   2   3  461.35   14.60
  -2   2  -3  462.65   14.60
  -2   2  -3  484.85   15.30
  -2   2  -3  445.46   16.40
  -3  -2  -3 1704.43   59.79
  -3  -2  -3 1978.40   60.59
   3  -2   3 1962.90   60.39
   3  -2   3 1975.10   60.09
   3  -2   3 2105.99   60.79
  -3  -2  -3 2102.69   60.19
  -3  -2  -3 2001.60   60.49
   3  -2   3 2031.70   61.39
  -3  -2  -3 2071.29   59.59
  -3  -2  -3 1954.10   59.69
   3  -2   3 2147.39   59.99
   3  -2   3 2077.39   59.59
   3   2   3 2007.00   59.49
  -3   2  -3 1976.10   60.19
   3   2   3 2093.89   60.29
   3   2   3 2060.49   59.19
  -3   2  -3 2116.99   60.89
  -3   2  -3 2062.49   61.39
  -3   2  -3 2021.00   59.79
   3   2   3 2068.19   60.09
   3   2   3 2060.59   59.59
   4  -2   3   86.99   10.00
  -4  -2  -3   87.29    5.30
  -4  -2  -3   91.79   10.10
   4  -2   3   97.59   12.40
   4  -2   3   90.49    4.40
  -4  -2  -3   96.59    4.90
   4  -2   3  100.89    5.20
   4  -2   3   91.39    4.50
  -4  -2  -3   94.79    7.40
   4  -2   3   90.99    9.50
  -4  -2  -3   93.09    8.40
  -4   2  -3   93.89   12.00
  -4   2  -3  100.29    4.50
   4   2   3   99.59    3.70
  -4   2  -3   99.59    8.40
   4   2   3  110.79    4.70
   4   2   3   95.79    7.50
   4   2   3   93.59    3.90
  -4   2  -3   98.19    5.30
  -4   2  -3   90.39    9.60
  -4   2  -3   91.49    4.80
   4   2   3   96.59   10.10
  -5  -2  -3  642.74   20.10
  -5  -2  -3  602.14   21.80
   5  -2   3  620.64   20.80
  -5  -2  -3  630.34   23.40
  -5  -2  -3  638.94   19.50
   5  -2   3  638.24   19.70
   5  -2   3  591.74   24.90
  -5  -2  -3  607.34   21.20
   5  -2   3  604.54   22.20
   5  -2   3  638.14   19.80
   5   2   3  612.34   19.30
   5   2   3  592.44   20.70
   5   2   3  604.24   20.30
  -5   2  -3  613.24   22.70
  -5   2  -3  623.34   20.20
  -5   2  -3  592.54   24.70
  -5   2  -3  596.04   21.50
  -5   2  -3  620.54   19.90
   5   2   3  639.04   18.90
   5   2   3  580.54   23.50
  -6  -2  -3  362.86   18.20
   6  -2   3  363.96   19.20
  -6  -2  -3  368.26   14.00
   6  -2   3  370.66   12.60
  -6  -2  -3  361.76   17.20
   6  -2   3  375.36   23.30
  -6  -2  -3  355.66   15.00
  -6  -2  -3  372.16   13.00
   6  -2   3  380.06   13.30
   6  -2   3  357.76   13.90
  -6  -2  -3  360.86   20.30
  -6  -2  -3  358.76   13.50
   6   2   3  349.57   12.80
   6   2   3  355.76   20.90
   6   2   3  354.36   16.00
  -6   2  -3  354.86   13.10
  -6   2  -3  361.86   17.60
   6   2   3  359.76   12.20
  -6   2  -3  366.76   22.60
  -6   2  -3  359.96   14.20
  -6   2  -3  367.16   19.50
   6   2   3  330.47   13.00
   7  -2   3   37.10    4.20
   7  -2   3   36.30   16.70
  -7  -2  -3   31.00   13.30
  -7  -2  -3   28.80    8.40
  -7  -2  -3   21.40    2.90
   7  -2   3   32.70   13.00
  -7  -2  -3   28.20    3.90
  -7  -2  -3   32.70   11.10
  -7  -2  -3   26.60    4.70
  -7   2  -3   37.00   16.10
  -7   2  -3   25.20    4.00
   7   2   3   27.80   13.00
   7   2   3   21.00    2.70
  -7   2  -3   35.10   12.60
   7   2   3   31.00    8.80
  -7   2  -3   28.30   10.40
   7   2   3   36.20    4.00
  -8  -2  -3  142.59   16.80
  -8  -2  -3  150.48   18.80
   8  -2   3  181.08   26.10
  -8  -2  -3  167.98   28.80
   8  -2   3  114.49   37.90
  -8  -2  -3  160.88   10.50
   8   2   3  154.88   19.20
  -8   2  -3  144.79   21.30
   8   2   3  126.79    6.70
  -8   2  -3  154.08   18.40
   8   2   3  125.49   18.90
  -8   2  -3  159.28   23.30
  -8  -3   3  154.38    6.30
   8  -3  -3  153.08   22.60
   8  -3  -3  171.88   25.40
  -8  -3   3  157.78   17.70
  -8  -3   3  163.78   22.60
  -8  -3   3  136.49   16.70
   8  -3  -3  139.79   15.40
  -8   3   3  176.88   24.80
  -8   3   3  123.09   19.20
  -8   3   3  165.28   19.00
   8   3  -3  149.29   14.70
   8   3  -3  141.79   18.40
  -8   3   3  147.59   17.00
  -7  -3   3   25.70    9.90
   7  -3  -3   25.40   12.10
  -7  -3   3   26.80    2.80
  -7  -3   3   29.50   12.40
   7  -3  -3   31.30   11.30
  -7   3   3   34.40   13.00
  -7   3   3   32.90    5.50
  -7   3   3   26.10   13.10
   7   3  -3   24.40    6.90
  -7   3   3   25.00    3.70
  -7   3   3   22.90   12.00
   7   3  -3   31.00    2.50
   6  -3  -3  329.97   17.90
  -6  -3   3  345.37   19.50
  -6  -3   3  334.27   11.50
   6  -3  -3  355.36   12.30
  -6  -3   3  352.36   18.50
   6  -3  -3  332.07   21.40
  -6  -3   3  378.66   12.40
   6  -3  -3  339.07   13.30
  -6  -3   3  331.97   11.40
   6  -3  -3  343.27   18.10
  -6  -3   3  329.77   16.40
   6   3  -3  338.77   10.80
   6   3  -3  352.16   12.30
  -6   3   3  328.07   13.10
  -6   3   3  338.27   12.20
  -6   3   3  319.47   14.00
  -6   3   3  293.97   13.70
   6   3  -3  321.17   19.30
   6   3  -3  311.47   13.40
  -6   3   3  316.17   20.90
  -6   3   3  338.87   19.60
  -6   3   3  312.07   18.90
   6   3  -3  347.57   13.20
   5  -3  -3  520.85   20.20
  -5  -3   3  552.64   17.70
  -5  -3   3  512.15   16.00
  -5  -3   3  538.95   21.10
  -5  -3   3  533.45   17.00
   5  -3  -3  522.75   18.40
  -5  -3   3  510.95   19.00
   5  -3  -3  532.45   17.60
  -5  -3   3  531.45   20.80
   5  -3  -3  543.05   20.40
   5  -3  -3  517.05   22.90
   5  -3  -3  532.15   17.30
  -5   3   3  514.55   20.30
  -5   3   3  504.25   17.10
   5   3  -3  521.15   17.40
  -5   3   3  545.15   17.50
   5   3  -3  536.25   17.50
   5   3  -3  527.35   16.40
  -5   3   3  541.95   17.30
  -5   3   3  528.65   22.80
  -5   3   3  517.05   21.50
   5   3  -3  560.14   18.40
   5   3  -3  515.45   20.80
  -5   3   3  522.05   18.30
  -4  -3   3 1074.69   34.80
  -4  -3   3 1103.99   32.50
   4  -3  -3 1087.89   36.30
   4  -3  -3 1054.89   34.60
  -4  -3   3 1135.89   33.30
   4  -3  -3 1096.29   34.80
   4  -3  -3 1156.08   33.80
   4  -3  -3 1163.88   34.10
  -4  -3   3 1096.99   35.30
  -4  -3   3 1180.48   34.50
  -4  -3   3 1093.09   34.00
   4  -3  -3 1141.89   34.80
   4   3  -3 1124.69   34.00
  -4   3   3 1094.09   36.30
  -4   3   3 1073.79   35.40
   4   3  -3 1128.59   34.20
   4   3  -3 1120.99   32.90
   4   3  -3 1073.49   33.10
  -4   3   3 1122.09   33.70
  -4   3   3 1140.99   34.00
  -4   3   3 1095.19   33.70
  -4   3   3 1125.19   34.70
  -4   3   3 1073.29   34.60
   3  -3  -3 3057.09   92.09
   3  -3  -3 3105.89   91.39
   3  -3  -3 3079.69   91.29
  -3  -3   3 2969.00   90.59
   3  -3  -3 2977.90   91.69
  -3  -3   3 3075.79   91.19
   3  -3  -3 3096.49   91.29
  -3  -3   3 3169.38   90.39
  -3  -3   3 3088.29   91.59
   3  -3  -3 3181.08   92.09
  -3  -3   3 3233.68   91.29
   3  -3  -3 3044.70   91.09
  -3   3   3 3050.69   91.99
  -3   3   3 3252.77   91.19
   3   3  -3 3100.29   90.19
   3   3  -3 3161.28   90.99
  -3   3   3 3108.49   93.49
  -3   3   3 3159.98   91.09
   3   3  -3 3013.50   90.29
   3   3  -3 3166.68   91.19
  -3   3   3 3047.50   90.99
  -3   3   3 3201.48   90.79
  -3   3   3 3039.90   91.39
  -2  -3   3  138.79    5.20
   2  -3  -3  149.59    5.40
   2  -3  -3  132.59    7.60
  -2  -3   3  150.48    5.60
  -2  -3   3  140.09    8.70
  -2  -3   3  145.99    5.00
   2  -3  -3  146.89    6.00
   2  -3  -3  134.89    7.70
   2  -3  -3  132.59    8.70
   2  -3  -3  142.09    7.80
  -2  -3   3  140.29    7.50
  -2  -3   3  144.19    7.00
   2  -3  -3  139.99    5.40
  -2   3   3  151.38    5.60
  -2   3   3  141.29    7.40
  -2   3   3  144.39    5.80
  -2   3   3  126.89    8.50
   2   3  -3  154.18    5.00
   2   3  -3  154.48    5.60
   2   3  -3  154.38    5.80
  -2   3   3  140.59    5.20
   2   3  -3  145.59    5.50
  -2   3   3  150.88    7.90
  -2   3   3  149.49    5.50
   1  -3  -3 3245.28   95.19
  -1  -3   3 3241.48   95.79
  -1  -3   3 3209.98   95.09
  -1  -3   3 3368.16   94.89
  -1  -3   3 3354.76   95.49
   1  -3  -3 3387.66   94.99
   1  -3  -3 3180.78   95.69
   1  -3  -3 3205.48   95.49
  -1  -3   3 3270.77   95.59
   1  -3  -3 3377.86   95.59
   1  -3  -3 3373.46   95.09
   1  -3  -3 3230.28   95.59
  -1  -3   3 3191.48   95.69
  -1   3   3 2960.80   96.09
  -1   3   3 3166.48   95.29
  -1   3   3 3398.66   95.59
   1   3  -3 3295.77   95.59
  -1   3   3 3416.36   95.49
  -1   3   3 3211.88   94.99
  -1   3   3 3202.48   95.09
   1   3  -3 3188.18   94.49
  -1   3   3 3376.06   94.99
   1   3  -3 3318.87   95.49
   1   3  -3 3229.98   94.69
   0  -3  -3 1707.13   48.90
   0  -3  -3 1653.93   49.70
   0  -3   3 1743.53   49.70
   0  -3  -3 1600.74   49.90
   0  -3   3 1707.43   49.30
   0  -3   3 1661.53   50.19
   0  -3   3 1738.13   49.90
   0  -3  -3 1732.83   49.10
   0  -3   3 1569.64   49.30
   0  -3  -3 1710.23   49.60
   0  -3   3 1655.23   49.40
   0  -3   3 1657.53   48.80
   0  -3  -3 1662.03   49.90
   0   3  -3 1743.03   49.90
   0   3  -3 1709.33   49.90
   0   3   3 1615.54   49.20
   0   3   3 1704.03   49.50
   0   3   3 1639.74   48.90
   0   3  -3 1689.53   49.10
   0   3   3 1696.23   49.60
   0   3   3 1703.73   49.70
   0   3   3 1665.93   48.90
   0   3  -3 1679.23   49.00
   0   3  -3 1642.04   48.80
   1  -3   3  216.88    6.90
  -1  -3  -3  220.48    6.30
   1  -3   3  214.68    9.50
  -1  -3  -3  201.38    9.00
   1  -3   3  201.88    8.10
  -1  -3  -3  207.88    6.10
  -1  -3  -3  197.08    9.40
   1  -3   3  223.98    7.40
  -1  -3  -3  221.68    6.90
   1  -3   3  201.28    7.90
   1  -3   3  219.08    6.80
  -1   3  -3  174.58    9.30
   1   3   3  179.48    6.90
   1   3   3  168.58    5.80
   1   3   3  188.58    7.10
  -1   3  -3  171.58    8.30
   1   3   3  178.68    6.60
  -1   3  -3  178.08    6.00
  -1   3  -3  173.18    6.50
  -1   3  -3  172.78    7.10
   1   3   3  172.78    5.90
  -1   3  -3  162.28    8.30
   1   3   3  184.58    6.00
  -1   3  -3  165.78    6.50
   2  -3   3 4977.00  139.79
  -2  -3  -3 4499.25  138.69
   2  -3   3 5063.49  139.79
   2  -3   3 4679.63  139.89
  -2  -3  -3 4788.32  138.99
   2  -3   3 4687.43  139.79
   2  -3   3 4674.43  140.69
  -2  -3  -3 4607.54  139.79
  -2  -3  -3 4732.83  139.19
  -2  -3  -3 4981.50  139.79
  -2  -3  -3 4831.72  139.29
  -2  -3  -3 4637.44  140.19
   2  -3   3 4879.41  140.49
  -2   3  -3 5031.60  140.59
  -2   3  -3 4774.62  140.69
  -2   3  -3 4843.92  139.79
  -2   3  -3 4733.33  139.29
  -2   3  -3 4697.83  139.79
  -2   3  -3 4681.33  139.79
  -2   3  -3 4909.71  139.59
   2   3   3 4942.71  139.69
   2   3   3 5017.50  139.99
  -3  -3  -3  114.19    7.20
  -3  -3  -3  114.79    4.50
  -3  -3  -3  114.09    8.40
   3  -3   3  113.49    4.90
  -3  -3  -3  122.29    4.00
  -3  -3  -3  114.89    4.90
   3  -3   3  107.09    9.30
   3  -3   3  129.89    5.80
  -3  -3  -3  115.69    9.50
   3  -3   3  125.79    4.80
   3  -3   3  111.39    8.60
  -3  -3  -3  116.19    3.80
   3  -3   3  115.19   10.20
  -3   3  -3  117.39    5.60
  -3   3  -3  111.59    9.20
   3   3   3  119.59    3.80
  -3   3  -3  106.99   10.40
  -3   3  -3  115.59    4.80
   3   3   3  111.49    4.10
   3   3   3  113.99    4.80
   3   3   3  118.99    4.90
  -3   3  -3  112.49    8.50
  -3   3  -3  118.29    5.20
   4  -3   3 1252.77   40.50
  -4  -3  -3 1275.37   39.10
  -4  -3  -3 1281.37   40.20
  -4  -3  -3 1349.77   38.60
  -4  -3  -3 1293.97   40.90
  -4  -3  -3 1272.37   38.60
   4  -3   3 1341.37   39.30
   4  -3   3 1339.47   39.20
   4  -3   3 1263.27   40.10
  -4  -3  -3 1296.77   39.20
   4  -3   3 1322.77   40.80
   4  -3   3 1253.67   41.80
  -4   3  -3 1276.77   40.10
  -4   3  -3 1308.27   39.30
  -4   3  -3 1351.66   40.30
   4   3   3 1308.07   39.00
   4   3   3 1294.97   37.70
   4   3   3 1244.08   38.30
   4   3   3 1311.67   39.20
  -4   3  -3 1245.88   41.70
  -4   3  -3 1261.57   39.70
  -4   3  -3 1269.07   39.50
   5  -3   3  162.48   14.40
   5  -3   3  162.68    6.90
   5  -3   3  157.68   14.70
  -5  -3  -3  153.68   13.40
   5  -3   3  166.28    7.70
   5  -3   3  169.48    7.70
  -5  -3  -3  159.28    7.00
  -5  -3  -3  166.68    7.30
  -5  -3  -3  162.78   12.00
  -5  -3  -3  161.68   10.50
  -5  -3  -3  172.58    6.50
   5  -3   3  158.48   17.10
   5   3   3  169.48    7.00
  -5   3  -3  158.48    7.10
  -5   3  -3  171.28    6.90
   5   3   3  168.88    5.50
  -5   3  -3  173.28   12.70
  -5   3  -3  164.58   16.80
  -5   3  -3  157.78   13.90
   5   3   3  160.18   13.80
   5   3   3  161.18    6.20
   5   3   3  162.28    9.00
  -6  -3  -3   19.00    2.30
   6  -3   3   23.70   13.40
  -6  -3  -3   20.60    8.40
   6  -3   3   13.80    9.70
  -6  -3  -3   18.90    2.80
   6  -3   3   20.30    3.40
  -6  -3  -3   26.30    7.60
   6  -3   3   14.80    2.20
  -6  -3  -3   20.30    9.70
   6  -3   3   19.30    9.50
  -6   3  -3   10.50    2.20
  -6   3  -3   19.30    9.10
  -6   3  -3   15.10   12.70
   6   3   3   16.30    5.90
   6   3   3   15.60    1.70
  -6   3  -3   16.70    3.30
   6   3   3   13.20    1.70
   6   3   3   16.30    2.40
  -6   3  -3   14.70    9.90
   6   3   3   11.90    9.70
  -7  -3  -3  128.49    6.70
  -7  -3  -3  138.79    6.90
  -7  -3  -3  152.48    6.50
  -7  -3  -3  147.29   21.60
   7  -3   3  159.78   19.90
  -7  -3  -3  156.28   18.90
   7  -3   3  129.79   13.80
  -7  -3  -3  143.69   17.80
   7   3   3  112.09    5.90
  -7   3  -3  141.09   18.40
   7   3   3  143.49   22.10
   7   3   3  138.79    4.90
  -7   3  -3  131.19   14.60
  -7   3  -3  156.28   19.30
   7   3   3  143.19   12.40
  -7   3  -3  130.39    8.10
   8  -3   3    2.50   16.20
   8  -3   3    1.90   21.90
  -8  -3  -3    4.80   15.00
  -8  -3  -3   -0.70   11.00
  -8  -3  -3    9.50   17.50
   8   3   3    3.20   17.90
  -8   3  -3    3.40   21.10
  -8   3  -3   -1.20   17.20
  -8   3  -3   -1.60   20.20
   8   3   3   -1.50    8.20
  -8  -4   3   14.00   14.40
  -8  -4   3   -3.50   14.30
  -8  -4   3   23.90   16.30
   8  -4  -3   18.30   15.50
  -8  -4   3    7.00    5.60
   8  -4  -3    9.40   22.60
   8  -4  -3   12.60   16.50
   8   4  -3    9.90   16.50
  -8   4   3   -2.90   20.20
  -8   4   3   17.30   17.40
  -8   4   3   10.40   16.50
   7  -4  -3  350.36   24.00
  -7  -4   3  333.47   12.60
  -7  -4   3  336.67   11.60
   7  -4  -3  272.87   33.80
  -7  -4   3  330.87   10.70
  -7  -4   3  343.17   20.50
  -7  -4   3  286.67   26.90
  -7   4   3  351.56   23.90
  -7   4   3  300.27   27.40
  -7   4   3  359.46   23.40
   7   4  -3  311.97   23.70
  -6  -4   3   37.90    9.20
  -6  -4   3   34.90    8.00
  -6  -4   3   32.40    2.20
   6  -4  -3   48.90   10.40
  -6  -4   3   52.89   10.70
   6  -4  -3   33.40    9.90
   6  -4  -3   31.10    4.00
  -6  -4   3   36.30    3.50
  -6  -4   3   24.30    3.80
  -6   4   3   30.80    3.80
   6   4  -3   33.10    9.60
   6   4  -3   32.40    4.10
   6   4  -3   29.50    3.70
  -6   4   3   32.20    3.30
  -6   4   3   49.30   11.20
  -6   4   3   40.20   11.90
  -6   4   3   24.00    2.70
  -6   4   3   35.60    4.50
  -6   4   3   39.40   10.00
  -6   4   3   26.40   11.90
  -5  -4   3  674.83   20.70
   5  -4  -3  683.13   22.10
  -5  -4   3  697.73   22.40
   5  -4  -3  692.73   28.20
  -5  -4   3  678.23   21.60
   5  -4  -3  682.43   25.50
  -5  -4   3  700.93   24.90
   5  -4  -3  701.23   24.40
   5  -4  -3  682.03   25.50
  -5  -4   3  676.73   23.30
   5  -4  -3  701.23   22.60
  -5  -4   3  680.93   25.60
   5   4  -3  714.03   22.20
  -5   4   3  700.93   23.40
  -5   4   3  707.13   25.80
  -5   4   3  689.33   27.80
  -5   4   3  715.73   22.30
  -5   4   3  727.23   22.50
  -5   4   3  696.73   26.20
   5   4  -3  706.33   22.80
  -5   4   3  683.93   25.20
  -5   4   3  705.63   22.30
   4  -4  -3  930.51   31.10
   4  -4  -3  883.31   30.90
  -4  -4   3  915.71   30.40
  -4  -4   3  962.80   28.80
  -4  -4   3  934.31   31.50
   4  -4  -3  948.91   32.90
   4  -4  -3  973.50   29.40
  -4  -4   3  939.11   29.70
  -4  -4   3  961.10   29.50
   4  -4  -3  978.60   29.70
   4  -4  -3  965.10   30.50
  -4   4   3  965.20   29.60
   4   4  -3  988.40   29.40
  -4   4   3  959.90   30.40
  -4   4   3  996.10   29.30
  -4   4   3  959.20   30.80
   4   4  -3  989.50   30.00
  -4   4   3  966.30   33.00
  -4   4   3  992.40   29.60
  -4   4   3  932.01   31.50
   4   4  -3  969.10   29.30
  -4   4   3  940.31   31.50
   3  -4  -3   76.69    8.30
   3  -4  -3   92.99    4.20
  -3  -4   3   86.79    7.60
   3  -4  -3   94.89    4.10
   3  -4  -3   89.99    8.70
  -3  -4   3   90.69    4.10
  -3  -4   3   84.69    7.10
   3  -4  -3   88.09    4.80
  -3  -4   3   96.79    9.90
   3  -4  -3   86.69   10.40
   3  -4  -3   82.99    8.90
  -3  -4   3   88.09    3.50
  -3   4   3   73.09    4.50
  -3   4   3   76.59    9.10
  -3   4   3   67.89    7.80
  -3   4   3   83.39    4.10
   3   4  -3   88.59    4.00
  -3   4   3   81.29    4.00
  -3   4   3   83.89    9.10
   3   4  -3   78.39    3.70
   3   4  -3   86.69    4.30
  -3   4   3   82.19   10.50
   2  -4  -3 3852.41  108.09
   2  -4  -3 3790.42  108.59
  -2  -4   3 3616.74  108.09
  -2  -4   3 3600.64  107.69
   2  -4  -3 3860.11  107.89
   2  -4  -3 3613.64  108.29
   2  -4  -3 3590.54  108.39
  -2  -4   3 3666.73  108.79
   2  -4  -3 3667.73  108.09
  -2  -4   3 3717.53  108.09
  -2  -4   3 3755.02  107.69
  -2  -4   3 3754.82  107.39
   2  -4  -3 3613.14  108.89
  -2   4   3 3728.43  107.69
  -2   4   3 3583.54  108.39
  -2   4   3 3615.24  108.79
   2   4  -3 3780.92  108.09
  -2   4   3 3809.02  108.19
   2   4  -3 3780.12  107.99
  -2   4   3 3601.74  107.89
  -1  -4   3  607.94   18.70
  -1  -4   3  602.04   17.80
   1  -4  -3  600.54   18.10
  -1  -4   3  587.54   20.20
   1  -4  -3  565.84   19.60
   1  -4  -3  595.04   18.70
  -1  -4   3  585.54   19.50
  -1  -4   3  585.14   18.50
  -1  -4   3  629.14   17.70
   1  -4  -3  592.14   18.20
   1  -4  -3  574.84   19.50
  -1  -4   3  592.54   18.70
   1  -4  -3  579.44   18.80
   1  -4  -3  584.14   19.50
  -1   4   3  570.34   19.20
  -1   4   3  580.84   18.40
   1   4  -3  605.24   18.60
   1   4  -3  600.14   17.60
  -1   4   3  591.24   18.70
  -1   4   3  600.44   18.70
  -1   4   3  617.24   18.70
   1   4  -3  603.94   18.60
  -1   4   3  619.84   18.70
   1   4  -3  601.74   17.60
   1   4  -3  611.84   17.70
   0  -4   3 6119.99  173.48
   0  -4  -3 5804.22  172.58
   0  -4  -3 5895.41  172.78
   0  -4  -3 5822.22  173.18
   0  -4  -3 5937.21  173.48
   0  -4  -3 6176.08  172.68
   0  -4   3 5791.52  172.88
   0  -4   3 6173.18  173.38
   0  -4   3 5749.92  172.78
   0  -4   3 5985.70  172.98
   0  -4   3 5826.82  173.68
   0  -4  -3 6145.48  173.18
   0  -4  -3 5829.82  173.58
   0   4   3 6211.98  173.18
   0   4  -3 6255.37  173.58
   0   4   3 5925.41  172.98
   0   4   3 5394.76  172.28
   0   4  -3 6088.39  172.78
   0   4  -3 6096.29  172.58
   0   4   3 5871.01  173.08
   0   4   3 6297.37  173.58
   0   4  -3 5678.93  172.68
   0   4  -3 5871.31  173.48
   0   4  -3 6231.08  173.58
  -1  -4  -3 2399.36   72.89
  -1  -4  -3 2451.75   71.79
   1  -4   3 2452.75   72.39
  -1  -4  -3 2472.55   72.19
  -1  -4  -3 2462.75   72.29
   1  -4   3 2584.14   72.59
   1  -4   3 2521.05   72.89
   1  -4   3 2471.85   72.39
  -1  -4  -3 2456.95   71.69
   1  -4   3 2463.65   73.29
   1  -4   3 2582.34   72.29
  -1   4  -3 2341.57   72.29
   1   4   3 2439.76   72.09
   1   4   3 2587.84   72.69
   1   4   3 2326.67   71.89
  -1   4  -3 2405.86   72.79
  -1   4  -3 2448.66   73.29
  -1   4  -3 2535.85   73.69
  -1   4  -3 2457.85   72.19
  -1   4  -3 2448.35   71.99
   2  -4   3  150.98    6.90
  -2  -4  -3  128.89    6.90
  -2  -4  -3  147.49    4.70
   2  -4   3  139.39    8.70
  -2  -4  -3  140.39    5.00
   2  -4   3  136.19   10.50
  -2  -4  -3  136.49    9.50
  -2  -4  -3  139.29    5.40
   2  -4   3  131.39    8.70
   2  -4   3  138.29    6.30
  -2  -4  -3  130.99    7.70
  -2  -4  -3  133.29    4.90
  -2   4  -3  160.38    5.60
  -2   4  -3  155.38    6.40
  -2   4  -3  151.88   10.50
  -2   4  -3  154.68    5.00
  -2   4  -3  164.28    5.80
   2   4   3  162.58    5.40
  -2   4  -3  159.48    8.80
  -2   4  -3  154.38    8.90
  -3  -4  -3 1550.94   48.40
  -3  -4  -3 1582.74   47.60
   3  -4   3 1643.94   49.00
   3  -4   3 1627.54   49.00
  -3  -4  -3 1607.84   47.00
   3  -4   3 1643.44   48.70
  -3  -4  -3 1626.94   47.80
  -3  -4  -3 1643.24   47.40
   3  -4   3 1557.74   48.90
  -3  -4  -3 1578.04   47.20
  -3  -4  -3 1587.74   49.40
   3  -4   3 1578.34   49.00
   3  -4   3 1601.74   50.19
  -3   4  -3 1598.34   50.19
   3   4   3 1619.04   48.00
  -3   4  -3 1617.54   49.50
   3   4   3 1640.04   47.70
  -3   4  -3 1676.93   48.00
  -3   4  -3 1598.74   48.90
  -3   4  -3 1659.03   48.30
  -3   4  -3 1589.64   48.80
  -4  -4  -3  157.78    9.60
  -4  -4  -3  156.48   13.40
  -4  -4  -3  157.58    8.60
   4  -4   3  186.48    7.50
   4  -4   3  143.49   12.90
   4  -4   3  164.18    6.40
   4  -4   3  143.69   15.30
  -4  -4  -3  154.28    5.40
   4  -4   3  153.88    6.60
  -4  -4  -3  155.98    5.80
   4  -4   3  148.79   12.30
  -4  -4  -3  153.28   11.00
  -4   4  -3  174.78    7.70
  -4   4  -3  153.88   12.00
  -4   4  -3  160.28   11.90
   4   4   3  154.68    5.80
  -4   4  -3  141.59    6.60
   4   4   3  161.98    6.30
  -4   4  -3  152.38   15.30
  -4   4  -3  161.58    6.40
   4   4   3  165.28    6.10
  -5  -4  -3  180.68    6.70
   5  -4   3  203.78    8.10
   5  -4   3  196.98    8.90
  -5  -4  -3  202.98    7.30
  -5  -4  -3  190.58   12.50
   5  -4   3  214.18   15.10
  -5  -4  -3  197.08   14.10
   5  -4   3  204.58    8.20
   5  -4   3  197.68   16.30
  -5  -4  -3  192.98   16.90
  -5  -4  -3  200.98    7.90
   5  -4   3  199.28   18.90
  -5  -4  -3  198.38   11.20
  -5   4  -3  217.28   15.90
   5   4   3  199.18    7.70
  -5   4  -3  216.88    8.00
  -5   4  -3  210.48   14.70
  -5   4  -3  210.98   18.60
   5   4   3  204.38    7.50
  -5   4  -3  201.38    9.10
   5   4   3  196.48    7.70
   6  -4   3  369.06   14.90
  -6  -4  -3  383.06   13.50
   6  -4   3  316.37   13.70
   6  -4   3  393.76   25.90
   6  -4   3  380.16   22.80
  -6  -4  -3  399.46   20.50
  -6  -4  -3  393.86   19.10
  -6  -4  -3  374.86   13.90
  -6  -4  -3  395.16   12.80
  -6  -4  -3  380.56   17.30
   6  -4   3  391.96   29.10
  -6   4  -3  399.46   20.80
   6   4   3  386.26   20.80
   6   4   3  359.06   12.80
  -6   4  -3  409.06   24.70
   6   4   3  359.56   13.60
  -6   4  -3  396.46   25.40
  -6   4  -3  392.96   15.20
  -7  -4  -3   29.20    4.00
   7  -4   3   21.00   13.40
  -7  -4  -3   25.10   10.40
  -7  -4  -3   20.30   12.40
  -7  -4  -3   25.30    2.90
  -7  -4  -3   22.00   11.60
  -7  -4  -3   23.40    3.00
   7  -4   3   29.50   18.60
   7  -4   3   16.10   13.80
  -7   4  -3   25.40   13.10
  -7   4  -3   34.20   14.40
   7   4   3   16.20    2.40
   7   4   3   23.30   13.20
  -7   4  -3   30.90   17.80
  -8  -4  -3  127.99   18.20
   8  -4   3  120.19   18.90
  -8  -4  -3  120.59   15.30
  -8   4  -3  115.19   23.50
  -8   4  -3  136.59   18.60
  -8  -5   3  158.68   16.80
   8  -5  -3  193.48   20.00
   8  -5  -3  180.28   19.90
  -8  -5   3  179.58   19.80
  -8  -5   3  133.49   16.50
   8  -5  -3  123.79   23.90
  -8   5   3  128.89   22.10
  -8   5   3  141.59   18.20
  -8   5   3  167.88   19.20
  -7  -5   3    0.50    2.10
   7  -5  -3    7.00   13.40
  -7  -5   3    4.70   14.10
  -7  -5   3    0.80    2.30
  -7  -5   3   -2.90    2.50
  -7  -5   3   -1.60   11.40
   7  -5  -3    2.90   17.60
   7  -5  -3   -0.50   13.70
  -7  -5   3    2.30   10.50
  -7   5   3   -5.50   12.70
   7   5  -3    1.40   13.00
  -7   5   3  -12.90   15.50
  -7   5   3    3.10   14.10
   6  -5  -3  323.27   13.90
  -6  -5   3  340.67   12.30
  -6  -5   3  352.16   21.90
  -6  -5   3  335.97   10.50
  -6  -5   3  327.67   18.40
  -6  -5   3  357.56   11.80
   6  -5  -3  355.86   21.50
  -6  -5   3  331.47   17.30
   6   5  -3  326.17   11.90
  -6   5   3  353.26   12.40
  -6   5   3  323.77   22.50
  -6   5   3  329.07   24.40
   6   5  -3  347.97   12.70
  -6   5   3  334.97   13.40
  -6   5   3  345.07   12.40
  -6   5   3  343.37   20.50
   5  -5  -3  227.18   16.70
   5  -5  -3  226.48   18.80
  -5  -5   3  244.68   14.20
  -5  -5   3  234.88    8.90
   5  -5  -3  229.48    9.30
  -5  -5   3  235.38    8.20
   5  -5  -3  220.58   16.90
   5  -5  -3  240.88   10.20
  -5  -5   3  245.18   16.90
  -5  -5   3  224.78   12.80
   5  -5  -3  227.88   10.00
  -5  -5   3  230.28    7.20
  -5   5   3  229.08    8.70
  -5   5   3  229.98    9.00
  -5   5   3  222.48   15.50
  -5   5   3  224.18   11.00
  -5   5   3  238.78   16.80
   5   5  -3  234.48    8.50
  -5   5   3  240.98    8.90
   5   5  -3  241.58    8.60
  -5   5   3  221.28   19.00
   5   5  -3  245.78    9.50
  -4  -5   3  478.45   15.60
   4  -5  -3  460.45   18.80
   4  -5  -3  473.35   21.20
  -4  -5   3  463.95   17.50
   4  -5  -3  483.85   15.80
   4  -5  -3  469.25   19.60
  -4  -5   3  482.45   20.20
   4  -5  -3  459.35   16.70
  -4  -5   3  492.95   15.00
  -4  -5   3  471.65   16.90
   4  -5  -3  489.75   16.00
  -4   5   3  499.05   15.90
   4   5  -3  491.75   15.50
  -4   5   3  478.95   21.30
   4   5  -3  482.85   16.30
  -4   5   3  470.45   19.90
  -4   5   3  493.85   16.10
  -4   5   3  481.05   18.30
  -4   5   3  486.05   15.60
  -4   5   3  479.45   16.70
  -3  -5   3 1441.16   45.70
   3  -5  -3 1427.76   45.30
  -3  -5   3 1422.96   44.20
   3  -5  -3 1518.75   44.30
  -3  -5   3 1506.75   43.30
   3  -5  -3 1459.45   46.20
   3  -5  -3 1517.55   44.00
  -3  -5   3 1455.75   43.90
   3  -5  -3 1437.56   44.90
  -3  -5   3 1402.06   43.80
   3  -5  -3 1446.96   44.80
   3  -5  -3 1518.05   44.90
  -3   5   3 1437.16   45.40
   3   5  -3 1503.65   44.00
  -3   5   3 1552.14   44.80
  -3   5   3 1478.35   46.30
  -3   5   3 1396.96   45.00
  -3   5   3 1454.25   44.40
  -3   5   3 1499.95   44.90
  -2  -5   3   17.10    5.70
  -2  -5   3   22.50    1.60
  -2  -5   3   20.90    1.20
   2  -5  -3   23.20    2.70
   2  -5  -3   21.70    2.20
  -2  -5   3   21.20    2.00
   2  -5  -3   19.60    6.00
   2  -5  -3   16.00    5.00
   2  -5  -3   17.70    4.60
   2  -5  -3   19.00    2.80
  -2  -5   3   20.30    2.30
  -2  -5   3   18.10    3.60
  -2  -5   3   25.50    4.40
   2  -5  -3   16.90    4.70
  -2   5   3   25.60    2.10
  -2   5   3   16.10    1.70
  -2   5   3   24.90    5.70
   2   5  -3   16.80    1.70
   2   5  -3   20.30    1.80
  -2   5   3   22.80    2.40
  -2   5   3   18.30    4.00
  -2   5   3   18.70    5.70
  -2   5   3   17.70    2.20
   1  -5  -3 1566.94   47.60
   1  -5  -3 1655.43   48.20
  -1  -5   3 1555.44   46.40
   1  -5  -3 1586.54   47.90
  -1  -5   3 1640.64   47.00
  -1  -5   3 1411.76   47.60
  -1  -5   3 1594.34   46.20
   1  -5  -3 1577.64   47.00
  -1  -5   3 1558.64   46.70
  -1  -5   3 1543.35   47.50
  -1  -5   3 1608.64   46.50
   1  -5  -3 1627.84   46.80
   1  -5  -3 1660.33   46.60
   1  -5  -3 1584.44   47.70
  -1  -5   3 1597.14   48.40
  -1   5   3 1489.35   47.80
  -1   5   3 1530.65   47.50
  -1   5   3 1614.04   47.20
  -1   5   3 1630.64   47.20
  -1   5   3 1517.55   46.40
   1   5  -3 1596.34   47.20
  -1   5   3 1565.64   46.20
   1   5  -3 1629.54   47.00
   1   5  -3 1576.24   46.30
   0  -5  -3  923.71   30.20
   0  -5   3  985.30   29.50
   0  -5  -3 1000.60   28.70
   0  -5  -3  952.60   29.00
   0  -5  -3  949.90   29.50
   0  -5  -3  948.61   30.30
   0  -5  -3  988.50   29.10
   0  -5   3  944.01   29.20
   0  -5   3  944.21   30.30
   0  -5   3  979.30   28.90
   0  -5  -3  994.40   28.90
   0  -5  -3  990.00   28.50
   0  -5   3  949.51   29.20
   0   5  -3  980.90   29.40
   0   5  -3  899.41   29.60
   0   5  -3  958.00   28.30
   0   5   3 1024.50   29.50
   0   5  -3  904.21   30.30
   0   5   3  914.51   29.50
   0   5  -3  970.90   29.30
   0   5   3  984.70   29.00
   0   5  -3  964.80   28.70
   1  -5   3  480.15   18.10
   1  -5   3  486.55   16.80
   1  -5   3  476.45   16.00
  -1  -5  -3  482.15   17.90
  -1  -5  -3  488.55   15.10
  -1  -5  -3  488.95   15.20
   1  -5   3  508.35   15.50
   1  -5   3  480.75   16.70
  -1  -5  -3  504.45   14.80
  -1  -5  -3  478.05   17.70
   1  -5   3  495.45   16.10
  -1  -5  -3  487.15   15.90
  -1   5  -3  495.15   18.10
  -1   5  -3  476.55   16.40
  -1   5  -3  456.35   17.60
   1   5   3  475.45   16.20
  -1   5  -3  503.35   15.50
   1   5   3  521.45   15.90
  -1   5  -3  501.95   16.10
   1   5   3  493.55   15.30
  -1   5  -3  503.85   15.10
  -2  -5  -3 1143.29   36.30
  -2  -5  -3 1159.48   34.10
  -2  -5  -3 1142.79   34.60
  -2  -5  -3 1037.00   34.60
   2  -5   3 1188.08   35.60
   2  -5   3 1140.99   35.50
   2  -5   3 1132.09   35.70
   2  -5   3 1112.29   36.80
   2  -5   3 1182.08   34.80
   2  -5   3 1192.18   35.10
  -2  -5  -3 1131.39   33.80
   2   5   3 1164.38   34.10
  -2   5  -3 1161.98   34.90
  -2   5  -3 1154.38   36.90
  -2   5  -3 1196.48   34.50
   2   5   3 1174.28   34.10
  -2   5  -3 1123.89   35.90
  -2   5  -3 1179.68   35.60
  -2   5  -3 1136.09   35.40
  -2   5  -3 1189.78   33.90
   3  -5   3   33.50    7.90
  -3  -5  -3   44.70    7.40
  -3  -5  -3   34.30    2.10
  -3  -5  -3   33.60    6.60
   3  -5   3   34.40    3.00
   3  -5   3   48.00    3.80
  -3  -5  -3   35.50    4.20
   3  -5   3   42.60    6.70
   3  -5   3   32.70    6.60
  -3  -5  -3   39.10    5.70
   3  -5   3   42.60    3.20
  -3  -5  -3   38.20    2.20
  -3  -5  -3   35.50    2.60
  -3   5  -3   40.70    7.20
  -3   5  -3   39.20    2.70
   3   5   3   41.60    2.10
  -3   5  -3   47.10    3.00
  -3   5  -3   33.90    8.00
  -3   5  -3   39.80    6.20
   3   5   3   34.30    2.20
  -3   5  -3   41.70    3.70
  -4  -5  -3 1197.38   39.10
  -4  -5  -3 1240.58   38.10
   4  -5   3 1278.17   39.00
  -4  -5  -3 1247.88   37.40
  -4  -5  -3 1226.98   38.30
   4  -5   3 1276.77   38.70
   4  -5   3 1244.38   40.60
   4  -5   3 1248.98   42.50
   4  -5   3 1273.57   39.70
  -4  -5  -3 1260.57   41.10
   4  -5   3 1247.38   40.20
   4  -5   3 1325.87   38.80
  -4  -5  -3 1301.17   37.70
  -4   5  -3 1332.27   38.50
  -4   5  -3 1271.67   42.60
  -4   5  -3 1271.77   40.10
  -4   5  -3 1262.77   39.20
   4   5   3 1276.47   38.10
  -4   5  -3 1258.37   40.50
  -5  -5  -3  184.38    6.60
   5  -5   3  186.08    7.50
  -5  -5  -3  163.68    6.80
  -5  -5  -3  177.78   11.60
   5  -5   3  177.48   20.20
  -5  -5  -3  179.58   17.50
   5  -5   3  183.38   16.90
  -5  -5  -3  179.58   12.50
   5  -5   3  186.48   17.50
  -5  -5  -3  183.58    6.10
   5  -5   3  181.08    8.50
  -5  -5  -3  158.88   13.20
  -5   5  -3  174.88    8.50
  -5   5  -3  164.18   19.70
   5   5   3  172.18    6.90
  -5   5  -3  173.28   16.10
   5   5   3  149.88    6.60
  -5   5  -3  174.98   15.80
  -5   5  -3  180.28    7.20
  -6  -5  -3  107.59   14.70
  -6  -5  -3  102.49    5.00
  -6  -5  -3   91.19    6.00
  -6  -5  -3  113.09   15.00
  -6  -5  -3  109.49   16.30
   6  -5   3  105.49   13.80
  -6  -5  -3  103.49    5.10
  -6  -5  -3  105.09    4.30
   6  -5   3   95.19   12.80
   6  -5   3   96.79   31.20
  -6  -5  -3  106.69   13.40
   6   5   3  122.59    5.00
   6   5   3  111.29    5.40
  -6   5  -3  102.29   12.50
  -6   5  -3  102.99   13.00
  -6   5  -3  104.39   16.20
   6   5   3  107.29    5.10
   7  -5   3   73.79   17.20
   7  -5   3   52.59   15.50
   7  -5   3   54.29   21.30
  -7  -5  -3   47.10    4.40
  -7  -5  -3   42.40   16.10
  -7  -5  -3   44.70    4.60
  -7  -5  -3   60.19   12.80
  -7  -5  -3   56.49    3.20
  -7  -5  -3   53.99   12.80
  -7  -5  -3   47.70   10.70
  -7  -5  -3   34.80    5.00
  -7   5  -3   52.99   20.00
   7   5   3   53.19    3.90
  -7   5  -3   58.29   15.10
  -7   5  -3   43.40   15.60
   7   5   3   37.50    3.90
  -7  -6   3  312.97   27.20
   7  -6  -3  297.67   28.50
  -7  -6   3  246.18   10.10
  -7  -6   3  265.37   10.00
   7  -6  -3  285.67   27.60
  -7  -6   3  264.57   21.00
   7  -6  -3  254.77   32.80
  -7  -6   3  230.28   20.60
  -7  -6   3  268.87    8.40
  -7   6   3  255.47   26.60
  -7   6   3  261.17   25.00
  -7   6   3  245.58   31.30
  -6  -6   3    9.40    1.90
   6  -6  -3   12.10   12.20
  -6  -6   3    5.80    8.70
   6  -6  -3    3.00   15.50
  -6  -6   3    9.90   11.80
   6  -6  -3    9.60   12.10
  -6  -6   3   13.60    1.40
  -6  -6   3    9.60    8.50
  -6  -6   3   10.60    3.00
   6  -6  -3    3.80    3.40
   6   6  -3    9.50    1.90
  -6   6   3   11.40    2.20
  -6   6   3   12.90   12.10
  -6   6   3   -8.80   13.90
  -5  -6   3  601.24   18.10
  -5  -6   3  584.04   21.40
   5  -6  -3  596.34   21.20
  -5  -6   3  556.14   18.50
   5  -6  -3  580.64   25.00
   5  -6  -3  580.84   19.00
  -5  -6   3  579.24   20.90
  -5  -6   3  563.64   25.50
   5  -6  -3  556.74   19.20
   5  -6  -3  574.74   25.10
  -5   6   3  596.94   18.80
  -5   6   3  586.34   18.90
  -5   6   3  567.64   27.20
  -5   6   3  570.24   24.80
  -5   6   3  554.64   23.50
   5   6  -3  581.24   19.60
  -5   6   3  555.34   19.10
  -4  -6   3  669.23   25.60
  -4  -6   3  647.34   21.90
   4  -6  -3  659.63   24.70
   4  -6  -3  663.73   26.70
  -4  -6   3  673.43   22.10
   4  -6  -3  670.53   21.60
  -4  -6   3  681.23   20.20
   4  -6  -3  671.53   22.30
  -4  -6   3  653.63   22.20
   4  -6  -3  650.53   21.50
  -4  -6   3  651.03   20.70
   4  -6  -3  634.04   25.10
  -4   6   3  650.93   26.60
  -4   6   3  644.64   25.20
   4   6  -3  675.33   20.70
  -4   6   3  687.13   21.20
  -4   6   3  665.13   21.60
  -4   6   3  669.73   22.40
  -4   6   3  642.74   23.50
  -4   6   3  661.63   20.90
  -3  -6   3  122.79    8.90
  -3  -6   3  132.49    4.60
  -3  -6   3  132.19    4.50
   3  -6  -3  122.19    6.10
   3  -6  -3  118.29   13.20
  -3  -6   3  123.79    5.00
  -3  -6   3  137.39   14.10
   3  -6  -3  135.79    5.70
   3  -6  -3  123.39   12.30
   3  -6  -3  126.99    5.60
   3  -6  -3  122.59   11.00
  -3  -6   3  128.19    8.50
   3  -6  -3  113.99   11.20
  -3  -6   3  126.69    5.90
   3   6  -3  120.39    4.60
  -3   6   3  134.89    5.50
  -3   6   3  123.79   13.60
  -3   6   3  121.89    5.70
  -3   6   3  127.49   12.40
  -3   6   3  117.79    9.80
   3   6  -3  128.19    5.00
  -3   6   3  120.29    6.10
  -2  -6   3 1257.97   40.20
   2  -6  -3 1211.68   38.70
  -2  -6   3 1230.98   37.70
   2  -6  -3 1304.07   37.70
  -2  -6   3 1304.37   38.50
   2  -6  -3 1242.78   39.70
  -2  -6   3 1251.77   37.10
  -2  -6   3 1251.77   38.10
   2  -6  -3 1291.67   38.40
   2  -6  -3 1264.17   37.90
   2  -6  -3 1228.98   39.60
  -2  -6   3 1247.88   37.50
   2  -6  -3 1230.58   38.50
  -2   6   3 1210.38   37.80
  -2   6   3 1241.48   39.40
  -2   6   3 1295.57   38.30
  -2   6   3 1273.77   38.40
  -2   6   3 1319.07   40.40
   2   6  -3 1152.28   38.00
  -2   6   3 1291.47   38.10
  -2   6   3 1266.57   37.20
   1  -6  -3  151.48    6.10
   1  -6  -3  153.38    5.80
  -1  -6   3  151.38    5.80
   1  -6  -3  143.19    8.80
  -1  -6   3  148.19    5.60
  -1  -6   3  148.29    9.90
  -1  -6   3  146.89    7.80
  -1  -6   3  149.09    5.00
   1  -6  -3  160.88   11.10
  -1  -6   3  177.88    6.50
   1  -6  -3  149.79    5.60
  -1  -6   3  156.18    7.90
   1  -6  -3  141.39    9.80
   1  -6  -3  140.79   10.00
  -1   6   3  146.29    6.10
  -1   6   3  153.78    6.10
   1   6  -3  153.78    6.00
  -1   6   3  154.08    5.00
  -1   6   3  145.19    4.90
   1   6  -3  157.08    5.30
  -1   6   3  154.18   10.40
  -1   6   3  153.38    6.10
   0  -6   3 2331.17   68.99
   0  -6  -3 2326.27   68.69
   0  -6  -3 2264.57   68.69
   0  -6  -3 2280.97   69.79
   0  -6   3 2380.36   68.79
   0  -6   3 2371.46   68.99
   0  -6  -3 2361.66   68.89
   0  -6   3 2490.05   69.69
   0  -6  -3 2333.27   69.99
   0  -6   3 2352.06   69.19
   0  -6   3 2252.67   69.89
   0  -6  -3 2259.47   69.09
   0  -6  -3 2397.56   68.99
   0   6  -3 2371.56   68.79
   0   6  -3 2385.86   69.39
   0   6  -3 2288.37   70.09
   0   6   3 2314.17   69.49
   0   6  -3 2378.66   69.29
   0   6   3 2276.77   68.89
   0   6   3 2336.87   68.89
   0   6   3 2447.96   69.39
  -1  -6  -3 1243.18   38.50
  -1  -6  -3 1239.78   36.00
   1  -6   3 1202.58   37.70
  -1  -6  -3 1289.47   37.20
  -1  -6  -3 1165.98   38.40
  -1  -6  -3 1243.38   36.70
   1  -6   3 1267.07   37.50
  -1  -6  -3 1193.58   36.70
   1  -6   3 1242.78   37.50
   1  -6   3 1238.38   37.60
   1  -6   3 1221.58   38.80
   1   6   3 1230.98   36.40
  -1   6  -3 1276.67   37.30
  -1   6  -3 1225.58   38.80
  -1   6  -3 1250.37   37.50
  -1   6  -3 1229.38   36.20
  -1   6  -3 1203.48   37.10
  -1   6  -3 1168.38   38.50
   1   6   3 1205.48   37.50
   1   6   3 1211.48   36.20
   2  -6   3  388.06   17.50
  -2  -6  -3  394.96   12.00
  -2  -6  -3  404.86   14.00
   2  -6   3  394.26   16.10
  -2  -6  -3  382.76   12.80
   2  -6   3  389.06   15.90
   2  -6   3  392.76   13.00
  -2  -6  -3  396.76   12.50
   2  -6   3  417.96   13.80
  -2  -6  -3  392.36   11.90
   2  -6   3  395.56   13.40
  -2  -6  -3  378.66   16.80
  -2  -6  -3  344.57   12.60
  -2   6  -3  412.26   12.60
  -2   6  -3  392.46   15.60
   2   6   3  399.36   11.90
  -2   6  -3  391.06   16.80
   2   6   3  395.06   11.90
  -2   6  -3  405.46   13.80
  -2   6  -3  385.46   17.70
  -2   6  -3  403.96   13.20
  -3  -6  -3 1215.08   39.50
  -3  -6  -3 1200.88   36.10
   3  -6   3 1264.17   37.50
  -3  -6  -3 1176.48   36.30
   3  -6   3 1187.58   40.30
   3  -6   3 1276.37   37.60
  -3  -6  -3 1192.28   36.30
   3  -6   3 1211.88   38.80
   3  -6   3 1150.68   39.10
  -3  -6  -3 1232.08   35.90
  -3  -6  -3 1189.48   36.60
   3  -6   3 1178.38   38.30
  -3   6  -3 1176.08   36.80
  -3   6  -3 1237.08   38.40
   3   6   3 1204.58   35.70
   3   6   3 1215.08   35.60
  -3   6  -3 1278.77   36.70
  -3   6  -3 1229.88   38.10
  -3   6  -3 1202.48   39.10
  -3   6  -3 1227.58   40.50
  -3   6  -3 1251.27   35.80
  -3   6  -3 1249.57   37.30
  -4  -6  -3   20.10    2.30
   4  -6   3   13.80    2.70
   4  -6   3   21.30   11.30
  -4  -6  -3   18.90    8.60
   4  -6   3   14.20    2.20
   4  -6   3   30.10    8.70
  -4  -6  -3   16.80    1.70
  -4  -6  -3   18.30    5.70
  -4  -6  -3   21.00    5.20
   4  -6   3   25.50    3.40
   4  -6   3   20.60    8.60
  -4  -6  -3   17.20    1.90
  -4  -6  -3   20.40    5.30
  -4   6  -3   19.30    1.70
  -4   6  -3   11.70    1.80
  -4   6  -3   14.30   10.90
  -4   6  -3   15.10    8.70
  -4   6  -3   21.60    2.70
  -4   6  -3   15.20    8.00
   4   6   3   11.50    1.80
  -5  -6  -3  296.27   10.20
  -5  -6  -3  288.07   14.20
  -5  -6  -3  293.47   21.30
  -5  -6  -3  292.37   15.50
   5  -6   3  298.77   23.10
  -5  -6  -3  293.27   14.90
  -5  -6  -3  284.57    9.90
   5  -6   3  306.67   21.10
   5  -6   3  303.77   21.40
   5  -6   3  288.47   12.20
  -5  -6  -3  288.17    9.50
  -5   6  -3  292.77   20.50
  -5   6  -3  294.97   24.10
   5   6   3  295.77    9.90
   5   6   3  285.27    9.80
  -5   6  -3  290.57   12.20
  -5   6  -3  303.37   10.50
  -5   6  -3  297.67   19.60
  -5   6  -3  279.97   10.00
  -6  -6  -3  164.38    5.90
  -6  -6  -3  162.88   16.70
   6  -6   3  178.08   27.70
   6  -6   3  130.99    8.90
   6  -6   3  182.98   22.90
   6  -6   3  172.98   23.30
  -6  -6  -3  155.08    6.40
  -6  -6  -3  150.28   16.30
  -6  -6  -3  159.88    6.50
  -6  -6  -3  193.18   24.90
  -6  -6  -3  161.48   14.70
  -6   6  -3  175.88   21.20
  -6   6  -3  167.38   27.20
  -6   6  -3  165.78    6.70
   6   6   3  166.98    6.20
  -6   6  -3  157.58   22.40
  -7  -6  -3   16.80   12.70
  -7  -6  -3   20.70   11.50
  -7  -6  -3   12.90   17.10
   7  -6   3   12.10   22.30
  -7  -6  -3   12.70   12.10
   7  -6   3   11.70   16.50
   7  -6   3   15.90   18.30
  -7  -6  -3   17.90    5.20
  -7   6  -3   11.00   16.60
  -7   6  -3   11.70   21.90
  -7   6  -3   11.10   16.30
  -7   6  -3   20.00    2.80
   7  -7  -3   -8.70   22.00
  -7  -7   3   -2.90   17.20
   7  -7  -3    2.40   17.40
  -7  -7   3   -0.30   14.10
  -7  -7   3    2.00   12.10
   7  -7  -3  -10.70   17.90
  -7  -7   3    3.00    2.60
  -7   7   3   -0.50   19.30
  -7   7   3    0.00   17.60
  -7   7   3   -3.80   15.10
  -6  -7   3  125.89   17.30
  -6  -7   3  131.99   14.30
  -6  -7   3  124.69    7.60
  -6  -7   3  152.88    6.30
   6  -7  -3  148.49   20.30
   6  -7  -3  138.19   15.60
  -6  -7   3  139.29   16.00
   6  -7  -3  163.78   17.20
  -6  -7   3  139.99    6.60
   6  -7  -3  138.19    8.50
   6   7  -3  140.99    6.10
  -6   7   3  129.89   18.20
  -6   7   3  132.39   19.50
  -6   7   3  141.09    6.50
  -6   7   3  137.99   16.00
  -5  -7   3  256.17   14.30
  -5  -7   3  239.28    8.70
  -5  -7   3  235.18   13.40
   5  -7  -3  235.18   23.50
   5  -7  -3  257.47   22.20
  -5  -7   3  251.07    8.60
   5  -7  -3  253.67   11.30
   5  -7  -3  250.87   10.80
  -5  -7   3  238.58   21.20
  -5  -7   3  243.58   10.00
  -5   7   3  250.47    9.20
  -5   7   3  233.38   17.60
   5   7  -3  245.28    8.70
  -5   7   3  232.38   21.30
  -5   7   3  269.87    9.40
  -5   7   3  216.08   22.70
   4  -7  -3  241.68    9.00
  -4  -7   3  251.57   11.60
   4  -7  -3  239.78   18.30
  -4  -7   3  223.98    8.00
  -4  -7   3  231.98    9.50
  -4  -7   3  243.78   19.20
   4  -7  -3  219.08   16.80
   4  -7  -3  260.37   11.30
   4  -7  -3  241.98    9.20
  -4  -7   3  226.58   12.40
  -4  -7   3  238.58    8.50
   4   7  -3  234.08    7.70
  -4   7   3  242.18    8.90
  -4   7   3  213.38   19.30
  -4   7   3  226.08   18.20
  -4   7   3  217.18   14.80
  -4   7   3  235.08    8.50
   4   7  -3  228.18    8.00
  -3  -7   3 1117.69   35.20
  -3  -7   3 1126.59   33.80
   3  -7  -3 1123.99   34.90
   3  -7  -3 1175.98   35.50
   3  -7  -3 1111.89   36.30
  -3  -7   3 1139.99   33.50
   3  -7  -3 1169.58   34.60
  -3  -7   3 1167.58   38.80
  -3  -7   3 1118.19   34.40
   3  -7  -3 1114.59   36.20
   3  -7  -3 1141.09   38.00
  -3  -7   3 1094.79   34.70
   3  -7  -3 1127.49   37.50
  -3   7   3 1132.89   37.70
   3   7  -3 1121.99   33.50
  -3   7   3 1134.89   35.00
  -3   7   3 1145.09   35.40
  -3   7   3 1099.79   37.90
  -3   7   3 1123.79   35.90
  -3   7   3 1120.29   35.30
  -3   7   3 1110.69   35.20
   3   7  -3 1140.09   33.60
   2  -7  -3   10.70    2.00
   2  -7  -3    5.30    5.90
   2  -7  -3    7.20    7.10
   2  -7  -3    5.90    7.10
  -2  -7   3   11.20    8.60
  -2  -7   3   10.90    4.80
  -2  -7   3   11.60    4.60
  -2  -7   3   10.10    4.10
   2  -7  -3    8.90    6.10
   2  -7  -3    9.90    1.70
   2  -7  -3    8.40    1.60
  -2   7   3   10.90    1.80
   2   7  -3   11.10    1.30
  -2   7   3   10.50    2.10
   2   7  -3    8.30    1.20
  -2   7   3    5.80    4.40
  -2   7   3    3.50    7.50
  -2   7   3    8.60    7.40
  -1  -7   3 1214.98   36.10
   1  -7  -3 1249.77   37.30
  -1  -7   3 1208.58   37.00
   1  -7  -3 1236.68   38.70
   1  -7  -3 1249.77   37.50
  -1  -7   3 1221.78   36.20
   1  -7  -3 1235.48   37.30
  -1  -7   3 1265.97   38.40
  -1  -7   3 1200.28   38.30
  -1  -7   3 1228.78   36.80
   1  -7  -3 1227.08   37.80
   1  -7  -3 1204.28   38.50
  -1  -7   3 1214.28   37.40
   1  -7  -3 1275.07   37.50
   1  -7  -3 1212.98   39.30
  -1  -7   3 1211.78   37.30
  -1   7   3 1242.28   38.30
  -1   7   3 1223.58   39.20
   1   7  -3 1240.18   37.00
  -1   7   3 1279.37   37.50
  -1   7   3 1266.57   37.50
   1   7  -3 1278.67   37.30
   0  -7  -3  202.18   12.70
   0  -7  -3  215.98   10.70
   0  -7  -3  222.88   13.90
   0  -7   3  215.18   11.20
   0  -7  -3  237.68    8.00
   0  -7  -3  216.28    7.20
   0  -7  -3  207.58    7.60
   0  -7   3  215.48   10.90
   0  -7   3  214.78    7.60
   0  -7   3  215.78   12.60
   0  -7   3  213.88    8.50
   0  -7  -3  212.68   10.00
   0  -7   3  218.18    8.00
   0   7  -3  221.18    7.90
   0   7  -3  222.38    8.30
   0   7   3  212.38    7.60
   0   7  -3  219.88    7.60
   0   7  -3  221.98   14.30
   0   7   3  218.68   12.70
   1  -7   3  252.87    8.80
  -1  -7  -3  246.38   14.20
   1  -7   3  258.57   12.90
   1  -7   3  253.87    9.60
   1  -7   3  253.67   14.50
   1  -7   3  260.67    9.30
  -1  -7  -3  250.97    8.60
  -1  -7  -3  254.57   10.00
  -1  -7  -3  251.97   10.30
  -1  -7  -3  250.37    8.00
  -1  -7  -3  241.68    9.40
   1  -7   3  242.78   12.90
  -1  -7  -3  235.98   14.40
   1   7   3  252.77    8.00
  -1   7  -3  256.47    9.40
  -1   7  -3  252.37   15.30
  -1   7  -3  258.77    8.00
   1   7   3  243.98   13.00
  -1   7  -3  255.17    8.90
   1   7   3  260.17    8.10
  -1   7  -3  266.27   14.80
  -2  -7  -3  649.93   21.00
  -2  -7  -3  654.93   24.60
  -2  -7  -3  670.43   19.80
   2  -7   3  680.83   21.70
  -2  -7  -3  661.53   22.30
   2  -7   3  657.53   25.60
   2  -7   3  658.93   24.00
   2  -7   3  677.03   21.10
   2  -7   3  690.33   21.80
   2  -7   3  657.23   23.30
  -2  -7  -3  654.03   24.60
  -2   7  -3  660.43   24.90
  -2   7  -3  660.93   25.40
  -2   7  -3  671.43   22.90
  -2   7  -3  680.73   22.20
  -2   7  -3  651.63   20.70
  -2   7  -3  686.63   21.30
   3  -7   3   12.10    7.80
   3  -7   3   14.00    8.30
  -3  -7  -3   19.70    1.70
   3  -7   3   15.30    9.50
  -3  -7  -3   19.50    8.90
  -3  -7  -3   18.80    4.70
  -3  -7  -3   20.00    5.50
  -3  -7  -3   18.50    2.10
   3  -7   3   22.30    3.10
   3  -7   3   22.00    3.10
  -3   7  -3   15.90    2.20
  -3   7  -3   19.50    8.40
  -3   7  -3   26.10   10.80
  -3   7  -3   18.90    7.60
   4  -7   3  466.75   22.20
   4  -7   3  451.65   25.00
   4  -7   3  382.76   15.10
  -4  -7  -3  454.75   14.20
   4  -7   3  456.05   16.30
  -4  -7  -3  460.95   13.90
  -4  -7  -3  453.65   23.10
  -4  -7  -3  449.26   16.40
   4  -7   3  452.55   15.30
  -4  -7  -3  433.16   17.00
   4  -7   3  439.16   21.70
  -4   7  -3  450.35   14.70
  -4   7  -3  457.85   20.80
  -4   7  -3  458.85   25.20
  -4   7  -3  442.56   23.10
  -4   7  -3  429.06   15.30
  -4   7  -3  452.05   13.90
   5  -7   3  106.29   16.90
   5  -7   3   73.79    6.80
   5  -7   3   93.89   12.90
  -5  -7  -3  125.99   18.10
  -5  -7  -3   98.59   12.70
  -5  -7  -3   94.69    8.70
  -5  -7  -3   99.69   10.10
   5  -7   3  115.69   13.20
  -5  -7  -3  108.09   12.70
  -5  -7  -3   96.89    4.20
   5   7   3  100.49    3.40
  -5   7  -3   97.49   12.00
  -5   7  -3   94.09   13.10
  -5   7  -3   90.39    5.60
  -5   7  -3   90.09   15.80
  -5   7  -3  101.79    4.30
  -6  -7  -3   24.20    9.70
  -6  -7  -3   24.60   12.00
  -6  -7  -3   14.20   14.70
   6  -7   3   26.80   15.20
   6  -7   3   19.80   18.90
   6  -7   3   20.50   14.80
  -6  -7  -3   18.40   10.20
  -6  -7  -3   23.20    9.20
  -6  -7  -3   21.30    2.40
  -6  -7  -3   26.40    3.50
  -6   7  -3   25.00   15.60
   6   7   3   26.80    2.30
  -6   7  -3   28.70   23.70
  -6   7  -3   19.70   13.70
   6  -8  -3    6.30   16.90
   6  -8  -3   -2.80   16.00
  -6  -8   3    4.60   10.20
  -6  -8   3   -1.20    7.20
   6  -8  -3    4.10   19.80
  -6  -8   3    1.30    8.80
   6  -8  -3   10.30    4.30
  -6  -8   3    0.40    2.20
  -6  -8   3   -3.00   16.00
  -6   8   3   -0.90   13.00
  -6   8   3    0.40   16.60
  -6   8   3   -2.20   17.60
   6   8  -3   -2.60    1.30
  -5  -8   3  211.08   15.00
  -5  -8   3  191.88   10.60
   5  -8  -3  201.88   25.90
  -5  -8   3  192.18    8.90
  -5  -8   3  196.58   11.60
   5  -8  -3  192.18   21.20
   5  -8  -3  219.38    9.80
  -5  -8   3  220.88   30.50
   5  -8  -3  226.58   24.40
  -5  -8   3  226.68    7.40
  -5   8   3  221.88   25.00
  -5   8   3  189.98   24.90
  -5   8   3  210.28   18.80
  -5   8   3  211.08    8.30
  -5   8   3  213.08    8.10
   4  -8  -3  184.78   29.40
  -4  -8   3  217.78    9.50
  -4  -8   3  240.18   22.00
  -4  -8   3  219.98   13.30
   4  -8  -3  252.07   11.20
   4  -8  -3  237.08    9.80
   4  -8  -3  234.68   18.80
  -4  -8   3  214.88    9.50
  -4  -8   3  232.08    9.50
  -4  -8   3  223.08    7.80
   4  -8  -3  235.08    9.30
   4  -8  -3  236.88   20.50
  -4   8   3  261.07    8.80
  -4   8   3  208.88   15.70
  -4   8   3  202.08   21.00
  -4   8   3  219.28    8.30
  -4   8   3  231.28   21.20
   3  -8  -3  147.09    6.70
  -3  -8   3  139.59    8.00
   3  -8  -3  141.49   16.90
   3  -8  -3  154.38    6.90
   3  -8  -3  144.59    6.20
  -3  -8   3  141.89   11.20
  -3  -8   3  157.48    6.80
   3  -8  -3  141.69   13.80
   3  -8  -3  163.18   18.00
  -3  -8   3  141.89    5.20
  -3  -8   3  144.79   19.10
   3  -8  -3  135.69   14.70
  -3  -8   3  135.19    7.90
  -3  -8   3  139.49    8.90
  -3   8   3  151.68    6.20
   3   8  -3  150.28    4.80
  -3   8   3  153.48   17.40
  -3   8   3  145.39   11.80
  -3   8   3  122.79   17.10
  -3   8   3  141.39    5.30
  -3   8   3  141.49    6.80
  -2  -8   3  488.15   15.20
  -2  -8   3  480.05   17.40
  -2  -8   3  506.55   17.00
  -2  -8   3  494.35   17.80
   2  -8  -3  489.75   16.30
   2  -8  -3  483.25   19.60
   2  -8  -3  514.95   22.30
  -2  -8   3  487.35   16.00
   2  -8  -3  495.65   15.90
   2  -8  -3  497.35   16.60
  -2  -8   3  480.85   17.10
  -2  -8   3  502.45   23.90
   2  -8  -3  482.65   19.40
  -2  -8   3  486.15   17.20
  -2   8   3  493.35   16.10
  -2   8   3  466.45   21.00
  -2   8   3  472.35   21.70
  -2   8   3  523.55   16.40
  -2   8   3  475.15   15.00
   2   8  -3  506.35   15.20
   2   8  -3  483.95   15.00
  -2   8   3  510.15   16.80
   1  -8  -3  100.39   10.00
  -1  -8   3   92.99    3.80
   1  -8  -3   71.59   10.30
   1  -8  -3   79.49    3.90
   1  -8  -3   74.49    4.20
  -1  -8   3   88.99    3.80
  -1  -8   3   81.79    9.80
  -1  -8   3   72.99    5.80
   1  -8  -3   74.39   11.20
  -1  -8   3   83.99   11.00
   1  -8  -3   85.09    4.60
   1  -8  -3   78.19    4.30
  -1  -8   3   91.19    9.40
  -1   8   3   83.49    9.20
  -1   8   3   89.79    4.10
  -1   8   3   75.09    4.20
  -1   8   3   80.89    4.30
   1   8  -3   89.49    3.70
   0  -8   3  660.93   23.20
   0  -8  -3  638.34   24.20
   0  -8  -3  657.53   22.00
   0  -8   3  665.43   21.00
   0  -8  -3  670.23   20.70
   0  -8  -3  678.03   25.50
   0  -8  -3  686.03   21.20
   0  -8   3  657.53   24.30
   0  -8   3  676.63   21.90
   0  -8  -3  695.53   20.40
   0  -8   3  668.73   22.70
   0  -8   3  661.83   20.80
   0   8  -3  680.63   21.30
   0   8  -3  644.84   25.70
   0   8   3  690.53   21.30
   0   8   3  660.93   20.60
   0   8  -3  675.63   21.10
   0   8   3  640.14   24.40
   0   8  -3  664.63   20.90
   0   8   3  683.83   20.80
  -1  -8  -3  565.44   17.80
   1  -8   3  564.64   20.90
   1  -8   3  578.04   18.30
  -1  -8  -3  547.85   22.40
   1  -8   3  560.24   17.70
  -1  -8  -3  564.64   16.80
   1  -8   3  548.65   22.40
  -1  -8  -3  520.95   17.50
  -1  -8  -3  577.04   22.60
   1  -8   3  556.54   21.20
  -1  -8  -3  515.95   19.40
  -1  -8  -3  538.15   18.40
  -1   8  -3  568.64   17.80
   1   8   3  563.04   16.60
   1   8   3  540.45   21.40
   1   8   3  560.24   16.50
  -1   8  -3  551.54   23.40
  -1   8  -3  551.24   22.60
   2  -8   3   96.79    4.70
   2  -8   3   76.79    9.20
  -2  -8  -3   83.59    3.30
  -2  -8  -3   74.89    9.30
  -2  -8  -3   78.09   10.20
  -2  -8  -3   89.19   12.20
  -2  -8  -3   89.89    4.20
   2  -8   3   94.29    5.20
   2  -8   3   81.69    8.70
   2  -8   3   90.09   11.10
  -2   8  -3   87.99    4.90
  -2   8  -3   74.09   10.40
  -2   8  -3   89.09    3.50
  -2   8  -3   79.59   11.30
  -2   8  -3  105.99   11.70
  -3  -8  -3  450.55   18.00
  -3  -8  -3  454.05   14.60
  -3  -8  -3  462.95   21.90
   3  -8   3  440.66   24.30
  -3  -8  -3  448.76   22.80
   3  -8   3  466.55   22.00
   3  -8   3  447.46   21.00
   3  -8   3  452.85   15.20
  -3  -8  -3  404.46   17.90
  -3  -8  -3  451.95   13.70
  -3   8  -3  472.25   15.80
  -3   8  -3  435.36   15.80
  -3   8  -3  430.46   22.80
  -3   8  -3  456.15   19.90
  -3   8  -3  464.55   24.60
  -4  -8  -3    4.60    1.20
  -4  -8  -3    7.80    6.00
  -4  -8  -3   -0.10   10.80
   4  -8   3    3.90   12.90
  -4  -8  -3    7.70   12.00
  -4  -8  -3    5.80    1.80
  -4  -8  -3    7.60    7.20
   4  -8   3    1.60   13.20
  -4   8  -3   -1.00   11.90
  -4   8  -3    6.10    0.90
  -4   8  -3    3.10   10.20
  -4   8  -3    8.70   14.40
  -4   8  -3    6.00    1.90
   5  -8   3  128.09   15.10
  -5  -8  -3  123.19   13.90
   5  -8   3  114.59    7.80
   5  -8   3  112.09   14.90
  -5  -8  -3  118.89    5.60
   5  -8   3  136.19   19.50
  -5  -8  -3  124.19    5.60
  -5  -8  -3  127.09   14.80
  -5  -8  -3  129.39   16.30
  -5   8  -3  110.59   15.50
  -5   8  -3  114.29   14.10
  -5   8  -3  132.39   18.80
   6  -8   3   57.89   19.10
   6  -8   3   53.59   17.20
   6  -8   3   46.10   21.50
  -6  -8  -3   50.39   17.70
  -6  -8  -3   47.60   11.40
  -6  -8  -3   56.09    6.00
  -6  -8  -3   44.30   10.80
  -6   8  -3   38.20   26.40
  -6   8  -3   46.70   16.10
  -6   8  -3   69.99   19.70
  -5  -9   3  125.09   15.60
  -5  -9   3   85.59   16.80
   5  -9  -3  116.99    8.60
   5  -9  -3   85.69   18.80
   5  -9  -3  118.29   17.50
  -5  -9   3   92.69    4.50
   5  -9  -3   93.89   15.70
  -5   9   3   83.89    6.40
  -5   9   3  103.89   17.10
  -5   9   3   90.09   17.50
  -5   9   3  104.59   13.30
   4  -9  -3  111.49   14.90
  -4  -9   3  101.59    4.20
  -4  -9   3  101.89   13.10
   4  -9  -3  103.99   15.70
  -4  -9   3   99.49    9.60
  -4   9   3   99.29    5.40
  -4   9   3   94.89    7.70
  -4   9   3  106.89   10.60
  -4   9   3   99.79   15.40
  -4   9   3  101.69   14.70
   3  -9  -3  490.35   21.90
  -3  -9   3  489.25   17.30
  -3  -9   3  492.25   18.00
   3  -9  -3  540.55   17.60
  -3  -9   3  493.25   15.50
  -3  -9   3  493.95   20.10
  -3  -9   3  520.95   28.70
   3  -9  -3  505.45   16.60
   3  -9  -3  513.35   26.20
  -3  -9   3  487.05   20.90
   3  -9  -3  505.85   17.10
   3  -9  -3  515.35   23.10
  -3   9   3  509.25   26.10
  -3   9   3  490.45   18.80
  -3   9   3  483.75   16.40
  -3   9   3  465.75   24.70
   2  -9  -3   11.30    8.00
   2  -9  -3    3.60    9.30
  -2  -9   3   14.50    6.40
  -2  -9   3   14.30    6.50
   2  -9  -3   11.90    8.40
  -2  -9   3   12.90    4.60
  -2  -9   3   11.90    1.40
   2  -9  -3   12.30    9.80
  -2  -9   3   14.70    2.10
  -2  -9   3   12.90    6.50
   2  -9  -3   14.80    2.10
   2  -9  -3   17.80    3.00
  -2  -9   3   20.50   12.80
   2  -9  -3   14.00    2.60
  -2  -9   3   15.20    4.90
  -2  -9   3    6.50    2.60
  -2   9   3   12.90   10.40
  -2   9   3   13.20    1.90
  -2   9   3    5.00    9.10
  -1  -9   3  495.85   15.90
  -1  -9   3  481.75   19.70
   1  -9  -3  488.35   20.40
   1  -9  -3  502.55   15.80
  -1  -9   3  505.75   17.50
  -1  -9   3  495.65   26.10
   1  -9  -3  488.05   19.50
   1  -9  -3  507.75   16.70
  -1  -9   3  474.55   19.50
   1  -9  -3  495.25   16.50
   1  -9  -3  500.05   16.40
   1  -9  -3  477.75   20.50
  -1  -9   3  494.05   18.90
   1  -9  -3  507.55   23.40
  -1   9   3  480.75   16.20
  -1   9   3  520.55   17.80
  -1   9   3  486.45   23.20
   1   9  -3  488.55   15.70
  -1   9   3  532.55   17.20
   0  -9   3  126.09    6.30
   0  -9  -3  111.69   14.00
   0  -9   3  119.99   13.70
   0  -9  -3  119.19   17.10
   0  -9   3  125.89    5.30
   0  -9   3  126.09    5.20
   0  -9  -3  115.39    4.90
   0  -9   3  117.69   14.60
   0  -9  -3  125.79    5.70
   0  -9  -3  105.89   10.80
   0  -9  -3  118.19   11.20
   0  -9   3  125.59   12.40
   0   9  -3  131.69   17.50
   0   9  -3  126.29    5.20
   0   9   3  118.79    4.60
   0   9   3  117.09   11.20
   0   9   3  113.99    4.70
   1  -9   3  209.48    8.20
  -1  -9  -3  201.68   17.90
   1  -9   3  206.78   15.30
   1  -9   3  193.78   17.40
   1  -9   3  212.48   16.10
   1  -9   3  211.48    7.80
  -1  -9  -3  200.78    8.20
  -1  -9  -3  208.28    6.90
  -1  -9  -3  187.58   16.90
  -1  -9  -3  198.78   11.50
  -1   9  -3  200.18    7.90
  -1   9  -3  178.58   24.00
   1   9   3  203.28   16.80
  -1   9  -3  230.28   10.30
   2  -9   3  345.57   21.90
   2  -9   3  327.37   13.00
  -2  -9  -3  330.37   10.50
   2  -9   3  339.47   12.60
  -2  -9  -3  325.97   13.70
   2  -9   3  340.67   20.40
   2  -9   3  353.66   19.20
  -2  -9  -3  345.07   18.60
  -2  -9  -3  360.96   11.70
  -2  -9  -3  334.07   21.50
  -2  -9  -3  343.17   20.60
  -2   9  -3  346.17   22.50
  -2   9  -3  345.17   22.30
  -2   9  -3  327.17   12.30
  -2   9  -3  338.37   10.40
   3  -9   3    3.60   13.00
   3  -9   3    3.20   11.30
  -3  -9  -3    6.30    2.00
  -3  -9  -3    2.20   12.00
   3  -9   3    3.40    2.30
   3  -9   3    2.60   10.70
  -3  -9  -3    8.30    7.00
  -3  -9  -3    9.30    8.50
  -3  -9  -3    6.60   10.50
  -3   9  -3    9.60   13.00
  -3   9  -3    7.20    9.20
  -3   9  -3    6.90   13.30
  -3   9  -3    9.50    1.60
   4  -9   3  164.08   16.40
   4  -9   3  155.68   20.90
  -4  -9  -3  168.08   24.90
  -4  -9  -3  149.69   15.70
  -4  -9  -3  135.79    6.10
  -4  -9  -3  144.59   11.90
  -4  -9  -3  152.28   21.80
   4  -9   3  148.89   26.10
   4  -9   3  147.69    8.50
  -4  -9  -3  158.78    6.20
  -4   9  -3  171.58    7.30
  -4   9  -3  160.58   19.80
  -4   9  -3  139.09   15.80
  -4   9  -3  170.28   27.20
   5  -9   3   38.70   16.40
  -5  -9  -3   31.00   17.20
  -5  -9  -3   35.20   10.50
  -5  -9  -3   38.40   18.10
  -5  -9  -3   29.30    9.10
  -5  -9  -3   33.60    3.50
   5  -9   3   33.70   19.90
   5  -9   3   36.20   16.20
  -5   9  -3   19.70   16.90
  -5   9  -3   37.20   16.10
  -5   9  -3   32.80   19.70
  -5   9  -3   15.40    7.50
  -4 -10   3   47.00    9.70
  -4 -10   3   65.69   18.80
   4 -10  -3   40.80   15.00
   4 -10  -3   45.00   17.40
  -4 -10   3   54.89   12.90
   4 -10  -3   48.40   15.10
  -4 -10   3   46.50    7.30
  -4  10   3   47.80    4.40
  -4  10   3   43.70   10.40
  -4  10   3   38.60   15.90
  -4  10   3   55.69   17.90
   3 -10  -3   28.70    4.10
  -3 -10   3   28.70    7.70
   3 -10  -3   17.20   13.50
  -3 -10   3   19.30    2.00
  -3 -10   3   22.70   16.50
   3 -10  -3   19.60   13.90
   3 -10  -3   26.90   12.00
  -3 -10   3   19.00    8.80
  -3 -10   3   24.60   10.20
  -3  10   3   17.70   13.30
  -3  10   3   20.20   14.20
   2 -10  -3  195.28    8.30
  -2 -10   3  190.98   27.40
   2 -10  -3  215.48   23.40
   2 -10  -3  200.58    7.90
   2 -10  -3  204.58    8.40
  -2 -10   3  203.48   15.10
   2 -10  -3  215.28   16.80
  -2 -10   3  180.18   12.30
  -2 -10   3  196.28    6.70
  -2 -10   3  207.88   14.40
   2 -10  -3  182.68   17.80
   2 -10  -3  179.58   19.70
  -2  10   3  212.18   23.10
  -2  10   3  217.98    7.70
  -1 -10   3   50.59    3.40
   1 -10  -3   63.79    4.60
   1 -10  -3   45.40    3.60
  -1 -10   3   60.29    8.10
   1 -10  -3   45.00    4.30
  -1 -10   3   46.40    3.10
   1 -10  -3   63.09    3.90
  -1 -10   3   64.49    9.40
  -1 -10   3   58.69   18.50
  -1 -10   3   63.29    8.70
   1 -10  -3   52.19    9.60
   1 -10  -3   51.59    9.30
   1 -10  -3   63.99   13.40
   1 -10  -3   53.69    9.20
  -1  10   3   57.59    3.60
  -1  10   3   64.69   16.40
   1  10  -3   57.69    3.00
  -1  10   3   43.80    3.50
   1  10  -3   52.19    2.80
   0 -10   3  229.88   16.30
   0 -10  -3  219.08   14.50
   0 -10   3  203.08   17.90
   0 -10  -3  232.38    8.80
   0 -10   3  198.08    8.00
   0 -10   3  211.28    8.20
   0 -10  -3  205.68   17.30
   0 -10  -3  208.88   13.00
   0 -10  -3  233.58   24.20
   0 -10  -3  228.28    7.70
   0 -10  -3  209.68    8.80
   0 -10   3  227.28   17.70
   0  10   3  213.38    7.60
   0  10   3  206.68    7.20
   0  10  -3  211.78    8.00
   0  10   3  222.08   20.50
   0  10  -3  225.78    8.10
  -1 -10  -3  127.99    4.90
   1 -10   3  114.99    6.20
  -1 -10  -3  140.59    6.30
   1 -10   3  135.79   17.20
   1 -10   3  125.99   18.50
   1 -10   3  135.09    7.30
   1 -10   3  139.29   19.10
  -1 -10  -3  148.19   20.80
  -1 -10  -3  137.29   12.10
  -1 -10  -3  128.79   18.40
  -1  10  -3  125.09    5.80
   1  10   3  135.69   19.40
  -1  10  -3  129.69    6.00
  -1  10  -3  114.89   14.40
   2 -10   3   43.60    4.20
  -2 -10  -3   36.60    6.70
   2 -10   3   39.00   12.20
   2 -10   3   34.70   11.30
  -2 -10  -3   38.40   12.60
  -2 -10  -3   36.50   11.50
   2 -10   3   31.40    3.60
  -2 -10  -3   28.10    2.90
  -2 -10  -3   38.00   12.20
  -2 -10  -3   32.60    2.30
   2 -10   3   27.50   12.90
  -2  10  -3   37.20   13.20
  -2  10  -3   39.40   14.20
  -3 -10  -3  140.19   18.50
   3 -10   3  132.49   15.50
  -3 -10  -3  138.99    6.90
   3 -10   3  154.88   26.10
  -3 -10  -3  148.19    4.90
   3 -10   3  123.59   16.90
  -3 -10  -3  139.69   16.20
  -3 -10  -3  146.99   22.00
  -3  10  -3  158.68   18.40
  -3  10  -3  152.88   16.60
  -3  10  -3  118.39   16.00
  -4 -10  -3   -0.20   17.10
   4 -10   3   -4.50   18.40
   4 -10   3    6.20   16.60
  -4 -10  -3   -3.40   16.70
  -4 -10  -3   -1.40   11.10
  -4 -10  -3    7.20    7.90
   4 -10   3    6.00   15.10
  -4  10  -3    4.10   12.50
  -4  10  -3    4.70   18.90
  -4  10  -3    1.80   18.80
  -3 -11   3  104.09   12.20
  -3 -11   3  109.99   11.00
   3 -11  -3   97.19   17.90
   3 -11  -3  117.19   17.20
  -3 -11   3  109.09   11.70
   3 -11  -3  111.39   15.70
  -3 -11   3  105.19   20.50
  -3  11   3  102.59   17.10
  -3  11   3  119.79   19.60
   2 -11  -3   18.10   11.20
  -2 -11   3   12.60   10.60
  -2 -11   3   16.80    9.90
   2 -11  -3   13.40   12.60
   2 -11  -3   15.50    2.70
   2 -11  -3   10.00    3.00
  -2 -11   3   14.80    2.20
   2 -11  -3   13.10   15.40
  -2 -11   3   12.60   18.40
   2 -11  -3    8.70   12.50
  -2  11   3   15.40   17.10
   1 -11  -3   74.99    5.50
  -1 -11   3   81.19   17.70
   1 -11  -3   75.09    6.10
  -1 -11   3   95.19   11.90
  -1 -11   3   81.39    4.60
   1 -11  -3  113.69   16.50
  -1 -11   3  100.79   12.60
  -1 -11   3   78.89   11.60
  -1 -11   3   98.39   10.80
   1 -11  -3   94.09   11.20
   1 -11  -3   90.39   11.30
   1 -11  -3   87.09   11.40
  -1  11   3   81.69   15.50
   1  11  -3   88.19    3.50
   0 -11   3   59.59   12.10
   0 -11  -3   50.49    3.70
   0 -11  -3   49.50   14.00
   0 -11  -3   42.70    4.70
   0 -11  -3   45.30   11.40
   0 -11  -3   53.59   10.10
   0 -11   3   49.99    4.70
   0 -11   3   54.39   11.20
   0 -11  -3   50.89    8.00
   0 -11   3   53.39   11.50
   0 -11  -3   54.89    7.60
   0  11  -3   42.30    4.10
   0  11   3   56.99    2.60
   0  11   3   45.10   14.70
   0  11  -3   60.19    3.50
   1 -11   3   21.60    3.30
  -1 -11  -3   37.00   13.00
  -1 -11  -3   40.90    9.00
   1 -11   3   43.30   12.40
   1 -11   3   40.70   13.10
  -1 -11  -3   36.90   13.80
  -1 -11  -3   29.70    4.20
   1 -11   3   35.10   13.30
  -1  11  -3   27.50   16.00
  -2 -11  -3   97.89   15.50
   2 -11   3  109.09   18.30
  -2 -11  -3  119.99   16.40
  -2 -11  -3  105.29   13.20
  -2 -11  -3  116.79   14.90
   2 -11   3   94.99   16.30
  -2 -11  -3   92.79    5.90
   2 -11   3  108.89   15.50
  -2  11  -3   86.49   16.70
  -2  11  -3  116.39   20.00
   3 -11   3    0.80   16.80
  -3 -11  -3    6.00   17.80
  -3 -11  -3    7.90   13.80
   3 -11   3    6.30   15.60
   3 -11   3   10.00   17.50
  -3 -11  -3    4.10   15.00
  -3  11  -3   -6.20   20.80
  -3  11  -3    5.80   18.40
  -8   0   4  113.29   16.60
  -8   0   4  114.79   15.60
   8   0  -4   98.49   15.60
  -8   0   4  117.79    5.70
   8   0  -4  100.79   12.60
  -8   0   4  104.69   18.00
  -7   0   4  358.56   12.90
  -7   0   4  326.17   26.40
   7   0  -4  297.87   25.00
  -7   0   4  312.77   12.80
   7   0  -4  309.07   11.10
  -7   0   4  300.17   10.80
  -7   0   4  278.07   29.50
   7   0  -4  295.47   17.80
   7   0  -4  302.97   18.90
  -7   0   4  293.17   23.50
  -6   0   4  463.95   15.10
  -6   0   4  457.45   20.00
   6   0  -4  479.75   15.40
   6   0  -4  447.46   18.20
  -6   0   4  499.15   16.70
   6   0  -4  465.45   19.50
  -6   0   4  472.65   23.20
   6   0  -4  469.25   16.10
  -6   0   4  467.25   15.60
   6   0  -4  461.25   23.70
  -6   0   4  451.95   21.50
  -5   0   4  877.91   27.50
   5   0  -4  881.01   29.00
  -5   0   4  875.11   26.40
  -5   0   4  922.71   28.10
   5   0  -4  920.51   26.90
   5   0  -4  843.52   27.50
   5   0  -4  869.81   27.40
  -5   0   4  838.92   30.30
   5   0  -4  837.92   30.40
  -5   0   4  883.61   29.70
  -5   0   4  845.72   28.60
   5   0  -4  849.22   28.40
  -5   0   4  874.71   28.50
   4   0  -4   14.50    1.90
   4   0  -4   16.30    4.70
  -4   0   4   22.70    2.40
   4   0  -4   16.50    6.50
  -4   0   4   12.80    6.10
  -4   0   4   18.20    1.60
   4   0  -4   17.10    3.90
   4   0  -4   12.50    1.80
   4   0  -4   19.20    2.50
  -4   0   4   16.00    5.00
  -4   0   4   16.50    2.10
  -4   0   4   11.60    5.30
   3   0  -4 1881.11   57.39
   3   0  -4 1914.91   57.89
  -3   0   4 1937.01   57.19
   3   0  -4 1980.50   57.59
  -3   0   4 1950.01   58.49
  -3   0   4 2031.60   57.99
   3   0  -4 2000.20   58.39
  -3   0   4 2032.20   58.59
  -3   0   4 1974.20   57.59
   3   0  -4 1898.01   58.89
  -3   0   4 1844.42   57.89
  -3   0   4 1900.01   58.79
   3   0  -4 2062.89   57.99
   2   0  -4  100.29    7.70
  -2   0   4  119.49    5.00
  -2   0   4  107.69    7.80
   2   0  -4  110.09    5.10
   2   0  -4  121.29    4.60
   2   0  -4  107.29    6.50
   2   0  -4  115.69    4.50
  -2   0   4  116.99    4.50
   2   0  -4  108.39    7.10
  -2   0   4  122.59    6.90
  -2   0   4  108.39    7.10
   2   0  -4  118.39    5.60
  -2   0   4  110.19    5.20
   1   0  -4 1824.82   52.49
   1   0  -4 1803.62   52.39
   1   0  -4 1807.52   53.09
   1   0  -4 1783.12   53.39
  -1   0   4 1747.33   52.59
  -1   0   4 1816.12   52.69
  -1   0   4 1797.72   52.39
   1   0  -4 1741.13   52.59
  -1   0   4 1759.42   53.39
  -1   0   4 1721.93   52.59
  -1   0   4 1819.02   53.09
   0   0   4 2256.97   64.99
   0   0   4 2189.88   65.89
   0   0  -4 2146.19   65.09
   0   0   4 2266.67   65.19
   0   0  -4 2293.37   65.69
   0   0  -4 2269.67   65.09
   0   0  -4 2169.68   65.29
   0   0  -4 2170.48   65.89
   0   0   4 2179.78   65.19
   0   0   4 2189.88   64.99
   0   0   4 2289.27   65.69
   1   0   4   34.90    5.10
  -1   0  -4   40.50    3.00
  -1   0  -4   38.00    5.40
  -1   0  -4   35.60    2.30
   1   0   4   38.10    1.70
  -1   0  -4   26.30    4.40
   1   0   4   33.30    2.70
   1   0   4   48.40    6.70
  -1   0  -4   34.20    5.30
   1   0   4   39.60    2.20
   1   0   4   36.50    2.40
   2   0   4 2811.62   82.69
   2   0   4 2713.03   83.59
   2   0   4 2815.52   84.49
   2   0   4 2907.41   83.39
  -2   0  -4 2825.72   84.49
  -2   0  -4 2747.43   83.59
   2   0   4 2948.00   84.29
  -2   0  -4 2755.32   83.89
  -2   0  -4 2992.70   83.59
  -2   0  -4 3027.10   84.39
   3   0   4 1274.67   37.30
   3   0   4 1274.27   38.50
  -3   0  -4 1319.67   38.70
  -3   0  -4 1211.58   38.60
   3   0   4 1200.78   38.00
  -3   0  -4 1278.37   38.20
   3   0   4 1306.97   37.60
  -3   0  -4 1223.18   38.40
  -3   0  -4 1240.58   39.50
   3   0   4 1245.48   39.60
  -4   0  -4  240.08    9.60
  -4   0  -4  257.37    9.60
  -4   0  -4  217.98    9.40
   4   0   4  229.58   11.70
   4   0   4  239.08    8.20
  -4   0  -4  241.28    8.60
   4   0   4  252.47   10.40
  -4   0  -4  232.58   14.00
  -4   0  -4  226.68   11.90
  -4   0  -4  229.38   12.80
   4   0   4  229.68   14.50
   4   0   4  237.48    8.40
   5   0   4  797.22   26.00
   5   0   4  794.42   27.00
  -5   0  -4  821.92   25.20
  -5   0  -4  799.32   27.50
  -5   0  -4  770.22   25.30
   5   0   4  756.62   25.60
  -5   0  -4  829.72   25.70
   5   0   4  786.92   29.80
  -5   0  -4  789.32   29.70
  -5   0  -4  816.82   26.40
   5   0   4  844.52   24.90
   6   0   4    8.40    1.70
  -6   0  -4    0.00    2.20
  -6   0  -4    3.80   11.20
   6   0   4   -1.60   12.10
  -6   0  -4    1.30    6.60
   6   0   4    4.50    8.40
  -6   0  -4    2.90    9.30
  -6   0  -4    3.00    1.90
   7   0   4  128.09    6.10
  -7   0  -4  144.99   15.10
  -7   0  -4  153.98   24.70
  -7   0  -4  127.49   14.30
  -7   0  -4  156.38    8.40
   7   0   4  146.89   25.60
   7   0   4  143.49    6.10
   7   0   4  141.49   18.80
  -8   0  -4   41.50   12.00
   8   0   4   29.90   21.30
  -8   0  -4   44.70   16.70
  -8   0  -4   51.39   19.90
   8   0   4   43.10   21.20
  -8   0  -4   64.79    7.80
   8  -1  -4   25.90   12.20
  -8  -1   4   23.90   16.30
  -8  -1   4   26.70   15.80
  -8  -1   4   22.60   14.30
   8  -1  -4   19.00   13.50
  -8  -1   4   27.90    4.20
  -8   1   4   18.40    2.60
   8   1  -4   18.20   11.70
  -8   1   4   10.70   14.80
  -8   1   4   31.50   15.50
   8   1  -4   25.90    2.60
  -8   1   4   18.40   16.10
   7  -1  -4  218.18   18.50
  -7  -1   4  214.78    8.00
  -7  -1   4  204.18    8.70
  -7  -1   4  236.38   21.90
  -7  -1   4  217.98   18.00
   7  -1  -4  226.68   17.00
   7  -1  -4  232.18    8.60
   7  -1  -4  230.88   24.10
  -7   1   4  220.08    8.60
   7   1  -4  216.38   16.20
  -7   1   4  226.18   21.30
   7   1  -4  225.48   23.70
  -7   1   4  212.48   10.20
  -7   1   4  218.78   23.30
  -7   1   4  197.08   23.20
   7   1  -4  231.98    8.30
  -6  -1   4  745.93   23.80
  -6  -1   4  697.13   27.50
   6  -1  -4  714.03   24.40
  -6  -1   4  727.23   23.60
   6  -1  -4  682.13   25.10
  -6  -1   4  704.43   22.10
   6  -1  -4  702.33   26.20
  -6  -1   4  726.13   28.60
  -6  -1   4  692.83   25.80
   6  -1  -4  717.63   29.90
   6  -1  -4  724.83   22.80
  -6  -1   4  695.83   22.70
  -6   1   4  715.83   27.60
  -6   1   4  726.83   29.70
  -6   1   4  727.83   22.60
   6   1  -4  734.73   22.50
   6   1  -4  707.13   24.40
  -6   1   4  734.73   23.00
   6   1  -4  730.83   28.90
  -6   1   4  719.23   24.20
   6   1  -4  741.03   23.50
  -6   1   4  705.73   26.80
   6   1  -4  721.03   25.10
  -6   1   4  746.63   23.70
  -5  -1   4   27.50    8.20
  -5  -1   4   29.20    2.50
  -5  -1   4   27.20    6.50
   5  -1  -4   22.80    2.40
  -5  -1   4   30.60    8.00
   5  -1  -4   21.40    3.10
   5  -1  -4   27.60    6.80
   5  -1  -4   26.40    5.60
  -5  -1   4   27.40    1.90
   5  -1  -4   24.00    8.60
   5  -1  -4   25.70    3.50
  -5  -1   4   25.90    3.00
   5   1  -4   23.30    6.00
   5   1  -4   17.60    7.80
  -5   1   4   20.10    2.90
   5   1  -4   18.30    2.80
  -5   1   4   23.70    2.50
  -5   1   4   26.50    8.90
  -5   1   4   24.10    7.90
  -5   1   4   20.20    6.50
   5   1  -4   26.50    4.70
   5   1  -4   26.20    2.30
   5   1  -4   18.00    2.90
  -5   1   4   19.10    2.20
  -4  -1   4 2324.57   70.29
   4  -1  -4 2431.06   70.19
   4  -1  -4 2430.06   69.19
  -4  -1   4 2264.77   69.49
  -4  -1   4 2446.26   69.69
   4  -1  -4 2280.87   69.49
  -4  -1   4 2417.96   70.29
  -4  -1   4 2255.77   70.49
  -4  -1   4 2372.36   69.09
   4  -1  -4 2428.96   69.59
  -4  -1   4 2294.17   68.39
   4  -1  -4 2280.47   69.19
   4  -1  -4 2265.47   70.89
  -4   1   4 2292.67   70.89
  -4   1   4 2294.97   69.69
   4   1  -4 2272.07   70.49
   4   1  -4 2379.66   68.99
   4   1  -4 2200.08   68.59
  -4   1   4 2461.85   69.69
   4   1  -4 2463.15   70.09
   4   1  -4 2504.15   69.79
  -4   1   4 2326.87   70.19
  -4   1   4 2349.26   69.19
  -4   1   4 2330.87   68.89
   4   1  -4 2259.97   69.19
   3  -1  -4 1187.08   38.40
   3  -1  -4 1274.67   37.70
  -3  -1   4 1182.78   38.00
  -3  -1   4 1228.78   36.10
  -3  -1   4 1251.57   36.70
   3  -1  -4 1274.07   37.10
   3  -1  -4 1186.58   37.30
  -3  -1   4 1229.78   37.90
   3  -1  -4 1262.47   36.90
   3  -1  -4 1182.48   37.80
  -3  -1   4 1285.87   37.60
   3  -1  -4 1202.28   36.90
  -3  -1   4 1283.37   37.10
  -3  -1   4 1226.48   37.30
  -3   1   4 1203.68   37.40
  -3   1   4 1191.08   37.80
  -3   1   4 1188.88   37.30
   3   1  -4 1217.58   37.00
   3   1  -4 1243.88   36.70
  -3   1   4 1211.98   38.40
   3   1  -4 1207.58   38.20
  -3   1   4 1240.58   36.60
   3   1  -4 1226.58   38.00
  -3   1   4 1236.78   37.70
   3   1  -4 1261.47   38.40
  -3   1   4 1287.57   37.70
  -2  -1   4 4857.61  135.99
   2  -1  -4 4720.13  135.79
   2  -1  -4 4791.52  135.79
   2  -1  -4 4464.05  136.09
   2  -1  -4 4832.72  136.49
   2  -1  -4 4465.95  135.79
  -2  -1   4 4836.42  136.49
  -2  -1   4 4814.22  135.69
  -2  -1   4 4516.15  136.19
  -2  -1   4 4540.55  136.49
   2  -1  -4 4607.44  136.59
   2  -1  -4 4539.25  135.69
  -2  -1   4 4584.84  135.89
  -2   1   4 4858.21  135.89
  -2   1   4 4850.61  136.59
   2   1  -4 4808.72  136.39
  -2   1   4 4690.03  135.99
   2   1  -4 4543.75  136.49
  -2   1   4 4745.73  136.09
  -2   1   4 4551.94  135.89
   2   1  -4 4778.52  136.79
   2   1  -4 4470.75  135.99
   2   1  -4 4524.85  135.69
  -2   1   4 4524.75  136.59
   2   1  -4 4847.71  135.79
   1  -1  -4 3494.35  103.89
   1  -1  -4 3569.04  104.69
   1  -1  -4 3595.04  103.79
  -1  -1   4 3438.26  104.59
  -1  -1   4 3612.74  104.69
  -1  -1   4 3357.96  104.09
   1  -1  -4 3519.35  103.89
  -1  -1   4 3424.46  103.99
   1  -1  -4 3610.94  104.49
   1  -1  -4 3485.45  104.19
   1  -1  -4 3602.34  103.79
  -1  -1   4 3636.44  103.89
   1   1  -4 3594.94  104.69
  -1   1   4 3667.53  104.09
  -1   1   4 3568.84  104.59
   1   1  -4 3617.84  103.89
  -1   1   4 3560.44  103.79
  -1   1   4 3603.24  104.49
   1   1  -4 3544.65  103.99
  -1   1   4 3557.54  103.89
   1   1  -4 3766.82  104.59
   1   1  -4 3518.35  103.89
   1   1  -4 3683.73  103.99
   0  -1   4  405.06   14.80
   0  -1  -4  398.36   13.60
   0  -1   4  419.96   12.90
   0  -1  -4  386.56   14.00
   0  -1   4  410.76   13.50
   0  -1  -4  395.66   14.40
   0  -1  -4  432.56   12.40
   0  -1   4  375.76   13.60
   0  -1  -4  417.06   13.00
   0  -1  -4  433.66   13.50
   0  -1   4  417.06   12.80
   0  -1   4  411.66   13.50
   0   1   4  423.26   13.40
   0   1  -4  405.66   12.90
   0   1  -4  398.56   14.60
   0   1   4  408.16   12.80
   0   1  -4  408.16   13.60
   0   1   4  422.36   13.20
   0   1  -4  389.76   13.40
   0   1   4  397.86   14.40
   0   1   4  420.46   12.40
   0   1   4  400.76   13.40
   0   1  -4  390.66   13.60
   1  -1   4 4481.45  129.19
   1  -1   4 4675.83  130.39
  -1  -1  -4 4617.94  130.29
  -1  -1  -4 4362.06  129.59
  -1  -1  -4 4209.18  130.19
   1  -1   4 4524.95  129.59
   1  -1   4 4590.24  129.59
   1  -1   4 4315.37  129.59
  -1  -1  -4 4498.45  129.59
  -1  -1  -4 4347.77  129.89
   1  -1   4 4338.57  130.39
   1   1   4 4517.65  129.39
  -1   1  -4 4341.07  129.69
   1   1   4 4307.17  130.29
   1   1   4 4356.76  129.49
   1   1   4 4665.93  130.19
  -1   1  -4 4674.83  129.69
  -1   1  -4 4356.06  129.59
  -1   1  -4 4306.37  130.39
  -1   1  -4 4711.83  130.49
   1   1   4 4169.58  128.79
   1   1   4 4676.03  129.99
   2  -1   4  715.33   23.90
  -2  -1  -4  737.43   23.80
  -2  -1  -4  752.12   24.80
   2  -1   4  785.82   24.20
   2  -1   4  778.32   22.90
   2  -1   4  778.62   23.40
   2  -1   4  739.33   25.20
  -2  -1  -4  796.52   24.10
  -2  -1  -4  790.82   23.40
   2   1   4  784.92   22.60
   2   1   4  798.02   24.00
  -2   1  -4  802.22   24.40
  -2   1  -4  771.02   23.40
   2   1   4  752.02   23.90
  -2   1  -4  742.13   23.20
   2   1   4  753.12   24.90
  -2   1  -4  762.72   25.30
  -2   1  -4  756.82   24.10
   2   1   4  782.42   23.10
  -2   1  -4  737.33   24.00
  -2   1  -4  800.42   23.70
  -3  -1  -4 1277.67   40.20
   3  -1   4 1091.89   39.90
   3  -1   4 1330.67   38.40
  -3  -1  -4 1327.37   39.40
   3  -1   4 1301.87   38.00
   3  -1   4 1312.47   39.60
   3  -1   4 1242.78   39.10
  -3  -1  -4 1260.87   37.40
   3  -1   4 1279.87   40.60
  -3  -1  -4 1333.47   38.60
  -3  -1  -4 1240.88   39.70
  -3  -1  -4 1284.67   39.10
  -3   1  -4 1273.27   39.40
   3   1   4 1311.17   39.20
   3   1   4 1263.77   38.80
  -3   1  -4 1262.87   38.30
  -3   1  -4 1240.58   39.30
  -3   1  -4 1274.17   40.60
  -3   1  -4 1329.87   38.70
  -3   1  -4 1386.26   39.90
  -3   1  -4 1380.96   39.10
   3   1   4 1306.57   37.90
   3   1   4 1265.07   40.20
   3   1   4 1315.77   38.30
  -4  -1  -4 1564.54   46.30
   4  -1   4 1504.65   47.10
  -4  -1  -4 1498.75   47.00
   4  -1   4 1637.34   47.80
   4  -1   4 1500.85   48.80
  -4  -1  -4 1547.75   47.10
  -4  -1  -4 1495.45   47.80
  -4  -1  -4 1498.95   48.20
   4  -1   4 1585.74   46.30
  -4  -1  -4 1635.84   46.90
   4  -1   4 1627.34   46.30
  -4   1  -4 1608.84   46.70
  -4   1  -4 1514.65   46.10
  -4   1  -4 1627.34   46.90
   4   1   4 1593.14   47.70
   4   1   4 1497.45   46.60
  -4   1  -4 1512.95   48.70
   4   1   4 1585.34   45.80
   4   1   4 1583.54   45.90
  -4   1  -4 1506.15   47.10
   4   1   4 1514.35   48.30
  -4   1  -4 1378.56   48.60
   5  -1   4    6.80    1.70
  -5  -1  -4    7.60    4.60
   5  -1   4    5.20    7.00
   5  -1   4    5.60    9.40
  -5  -1  -4    6.30    7.10
  -5  -1  -4   12.40    2.90
  -5  -1  -4   13.00    2.50
  -5  -1  -4    8.00    8.30
  -5  -1  -4    8.60    2.10
  -5   1  -4   12.40    9.60
   5   1   4    6.80    1.40
  -5   1  -4   11.70    2.30
  -5   1  -4    8.00    2.40
   5   1   4   11.20    9.10
  -5   1  -4    8.40    7.10
  -5   1  -4   14.60    2.10
   5   1   4   10.30    1.40
  -5   1  -4   11.60    5.70
   5   1   4    7.70    6.20
   6  -1   4  309.87   12.00
  -6  -1  -4  310.77   11.20
  -6  -1  -4  300.27   11.70
   6  -1   4  299.67   22.70
  -6  -1  -4  307.87   18.70
   6  -1   4  310.87   11.00
   6  -1   4  313.97   18.30
  -6  -1  -4  298.67   13.80
  -6  -1  -4  311.37   21.10
   6   1   4  304.87   11.40
   6   1   4  324.07   16.60
  -6   1  -4  312.17   22.20
   6   1   4  312.97   10.70
  -6   1  -4  319.57   19.00
  -6   1  -4  316.87   11.50
  -6   1  -4  314.27   15.70
  -6   1  -4  316.47   12.00
   6   1   4  313.07   21.90
  -7  -1  -4   69.29    6.20
  -7  -1  -4   63.49   17.60
   7  -1   4   62.59   15.90
  -7  -1  -4   67.29    8.80
   7  -1   4   71.69   12.40
   7  -1   4   81.19    4.60
   7  -1   4   62.09    5.20
  -7  -1  -4   68.79   14.90
  -7   1  -4   75.29   13.80
   7   1   4   72.89   10.70
  -7   1  -4   64.09    6.80
   7   1   4   73.49    4.10
   7   1   4   88.99    4.30
  -7   1  -4   74.09   16.30
  -7   1  -4   76.79   10.70
   7   1   4   75.39   16.40
  -8  -1  -4   35.60   11.20
  -8  -1  -4   46.90   16.50
   8  -1   4   41.20   15.20
  -8  -1  -4   39.50   19.80
  -8  -1  -4   55.29    7.40
   8  -1   4   45.50   20.70
  -8   1  -4   52.89   21.40
   8   1   4   51.29   13.20
  -8   1  -4   37.70   13.60
   8   1   4   49.90    4.30
   8   1   4   31.50    4.30
  -8   1  -4   35.70   17.50
   8   1   4   32.10   20.10
   8  -2  -4  141.09   16.20
  -8  -2   4  137.39   17.10
  -8  -2   4  128.59   15.40
  -8  -2   4  144.99    6.20
   8  -2  -4  153.88   17.30
  -8  -2   4  121.79   16.80
  -8   2   4  134.09   19.30
  -8   2   4  142.19   17.00
  -8   2   4  154.08    7.20
   8   2  -4  166.68    6.30
   8   2  -4  139.79   17.60
  -8   2   4  163.18   19.70
   7  -2  -4  286.47   25.30
  -7  -2   4  222.98   26.10
   7  -2  -4  298.87   19.50
  -7  -2   4  274.77   10.50
  -7  -2   4  265.17   10.40
   7  -2  -4  280.97   30.90
  -7  -2   4  289.17   19.10
  -7  -2   4  299.77   22.00
  -7   2   4  285.77   20.90
   7   2  -4  293.27   24.30
  -7   2   4  264.27   24.30
   7   2  -4  303.97    9.90
  -7   2   4  288.07   12.30
  -7   2   4  305.67   23.50
   7   2  -4  284.27   16.30
  -7   2   4  289.47   10.60
  -6  -2   4  363.56   20.00
   6  -2  -4  343.57   17.80
   6  -2  -4  366.46   19.30
  -6  -2   4  383.36   13.60
  -6  -2   4  366.76   17.90
  -6  -2   4  387.26   20.70
   6  -2  -4  374.06   12.90
  -6  -2   4  348.37   12.60
   6  -2  -4  339.57   22.70
  -6  -2   4  391.76   14.10
  -6  -2   4  371.36   12.00
   6  -2  -4  369.06   14.10
  -6   2   4  370.06   21.00
   6   2  -4  380.56   21.10
   6   2  -4  380.16   13.70
  -6   2   4  371.66   12.80
  -6   2   4  380.26   22.00
   6   2  -4  368.36   16.10
   6   2  -4  378.96   13.60
   6   2  -4  387.86   12.30
  -6   2   4  364.06   13.80
  -6   2   4  378.06   18.80
  -6   2   4  384.66   15.60
   5  -2  -4 1659.93   50.19
   5  -2  -4 1650.63   49.40
   5  -2  -4 1668.13   49.10
   5  -2  -4 1593.14   49.80
   5  -2  -4 1607.44   52.09
  -5  -2   4 1590.14   49.70
  -5  -2   4 1572.14   50.89
   5  -2  -4 1604.94   50.29
  -5  -2   4 1628.34   51.09
  -5  -2   4 1609.14   47.90
  -5  -2   4 1726.13   49.99
  -5  -2   4 1657.73   48.80
  -5  -2   4 1661.43   49.50
  -5   2   4 1517.65   49.20
   5   2  -4 1561.24   49.00
  -5   2   4 1668.93   52.29
   5   2  -4 1665.83   49.60
  -5   2   4 1645.54   49.00
  -5   2   4 1692.13   50.39
   5   2  -4 1683.33   48.60
  -5   2   4 1617.04   50.99
   5   2  -4 1643.44   49.70
  -5   2   4 1664.03   49.50
  -5   2   4 1602.54   50.19
   5   2  -4 1599.74   51.09
  -4  -2   4   26.40    1.40
  -4  -2   4   20.20    5.00
  -4  -2   4   22.70    2.50
   4  -2  -4   30.90    2.40
   4  -2  -4   22.50    4.90
  -4  -2   4   23.60    3.10
  -4  -2   4   17.40    2.00
   4  -2  -4   25.20    3.10
   4  -2  -4   26.40    7.50
   4  -2  -4   24.70    3.10
   4  -2  -4   30.10    5.80
  -4  -2   4   21.30    6.00
  -4  -2   4   21.10    6.10
   4   2  -4   24.70    2.10
   4   2  -4   22.40    6.20
   4   2  -4   22.60    1.50
  -4   2   4   21.70    2.30
   4   2  -4   23.90    4.50
   4   2  -4   17.40    2.60
  -4   2   4   20.40    6.20
  -4   2   4   20.00    5.40
  -4   2   4   25.30    2.70
  -4   2   4   22.20    3.20
  -4   2   4   22.00    7.50
   4   2  -4   23.90    2.50
  -3  -2   4 1410.56   43.40
   3  -2  -4 1418.66   44.10
   3  -2  -4 1379.76   43.70
  -3  -2   4 1455.95   44.30
  -3  -2   4 1476.95   43.00
  -3  -2   4 1481.85   43.80
   3  -2  -4 1440.86   43.50
   3  -2  -4 1410.86   43.20
   3  -2  -4 1420.36   43.60
   3  -2  -4 1505.85   44.10
  -3  -2   4 1492.25   43.40
   3  -2  -4 1392.26   44.70
  -3  -2   4 1383.96   44.20
   3   2  -4 1444.06   44.30
   3   2  -4 1437.56   44.70
   3   2  -4 1508.85   43.00
  -3   2   4 1449.15   43.70
   3   2  -4 1441.16   43.10
   3   2  -4 1520.95   43.90
  -3   2   4 1486.05   44.10
  -3   2   4 1517.55   43.20
  -3   2   4 1429.66   44.80
  -3   2   4 1453.75   44.30
  -3   2   4 1437.76   45.00
  -3   2   4 1428.56   45.40
   3   2  -4 1424.96   42.00
   2  -2  -4 1610.84   49.40
  -2  -2   4 1548.45   49.30
   2  -2  -4 1583.94   49.40
   2  -2  -4 1634.64   49.80
  -2  -2   4 1673.53   49.10
   2  -2  -4 1709.73   49.10
   2  -2  -4 1679.23   49.10
  -2  -2   4 1684.93   49.70
  -2  -2   4 1596.54   49.99
  -2  -2   4 1694.33   48.90
   2  -2  -4 1593.04   50.19
   2  -2  -4 1713.33   49.90
  -2  -2   4 1620.44   49.90
   2   2  -4 1605.74   49.00
  -2   2   4 1691.43   49.10
  -2   2   4 1782.22   49.99
   2   2  -4 1721.73   49.70
  -2   2   4 1657.43   49.10
  -2   2   4 1593.94   50.09
  -2   2   4 1596.74   49.30
  -2   2   4 1745.93   49.50
  -2   2   4 1664.83   49.50
   2   2  -4 1713.13   49.00
   2   2  -4 1741.03   49.60
   2   2  -4 1657.03   50.09
   1  -2  -4  593.74   18.00
  -1  -2   4  557.14   19.20
   1  -2  -4  568.64   18.90
  -1  -2   4  555.44   18.80
  -1  -2   4  598.64   18.80
   1  -2  -4  577.24   19.20
   1  -2  -4  564.54   18.70
   1  -2  -4  604.54   18.70
  -1  -2   4  571.24   19.70
   1  -2  -4  606.44   17.90
   1  -2  -4  563.74   19.40
  -1  -2   4  604.34   18.00
  -1   2   4  626.84   18.80
   1   2  -4  603.44   19.80
   1   2  -4  623.84   18.10
   1   2  -4  587.64   18.50
  -1   2   4  578.54   19.50
   1   2  -4  617.24   18.90
  -1   2   4  579.44   18.60
   1   2  -4  588.84   18.50
  -1   2   4  623.04   18.60
  -1   2   4  590.84   18.40
   0  -2   4 4889.01  146.09
   0  -2  -4 5004.30  146.69
   0  -2  -4 5098.59  145.89
   0  -2  -4 5286.77  146.69
   0  -2   4 5109.39  146.09
   0  -2   4 5006.90  145.89
   0  -2   4 4812.42  146.89
   0  -2   4 5096.59  146.79
   0  -2  -4 4818.82  146.49
   0  -2   4 5149.48  146.09
   0  -2  -4 4759.42  145.39
   0   2  -4 4911.61  146.89
   0   2   4 4911.91  145.89
   0   2  -4 4853.31  145.89
   0   2  -4 5147.58  145.99
   0   2   4 5131.79  146.49
   0   2   4 5153.78  145.89
   0   2  -4 5206.48  146.89
   0   2   4 5242.78  146.59
   0   2  -4 5272.27  146.09
   0   2   4 4765.82  147.49
   1  -2   4  149.99    5.30
  -1  -2  -4  143.59    7.30
  -1  -2  -4  141.29    8.30
  -1  -2  -4  157.28    6.00
   1  -2   4  142.99    7.40
   1  -2   4  152.28    7.10
   1  -2   4  155.68    5.60
   1  -2   4  154.18    5.30
   1  -2   4  142.99    9.20
  -1  -2  -4  162.08    5.80
  -1  -2  -4  138.79    8.20
   1   2   4  148.09    5.80
   1   2   4  140.99    6.00
   1   2   4  146.09    5.10
   1   2   4  143.39    4.60
  -1   2  -4  139.59    9.20
   1   2   4  153.98    6.90
  -1   2  -4  136.69    7.00
  -1   2  -4  143.99    5.70
  -1   2  -4  141.99    5.40
   1   2   4  148.89    5.90
  -1   2  -4  148.49    7.00
  -2  -2  -4 4023.00  121.09
   2  -2   4 4292.47  122.19
   2  -2   4 4234.38  121.09
  -2  -2  -4 4081.89  121.89
  -2  -2  -4 4044.90  121.89
   2  -2   4 4116.99  122.49
  -2  -2  -4 4151.08  121.19
   2  -2   4 4256.07  121.39
  -2  -2  -4 4277.87  121.79
   2  -2   4 3984.90  121.39
   2   2   4 3983.70  120.99
   2   2   4 4207.48  120.79
  -2   2  -4 4248.27  122.19
  -2   2  -4 4078.99  121.19
  -2   2  -4 4234.58  121.49
   2   2   4 4344.67  121.79
  -2   2  -4 4148.19  122.49
  -2   2  -4 4092.49  121.09
  -2   2  -4 4069.09  121.49
  -2   2  -4 4376.76  122.39
  -3  -2  -4  887.31   29.90
   3  -2   4  899.71   30.80
   3  -2   4  952.00   28.10
   3  -2   4  954.00   28.50
  -3  -2  -4  920.91   29.90
   3  -2   4  931.51   30.40
   3  -2   4  925.51   29.30
  -3  -2  -4  963.00   28.20
  -3  -2  -4  963.30   28.90
  -3  -2  -4  926.01   28.90
  -3   2  -4  896.01   30.80
  -3   2  -4  968.50   28.60
  -3   2  -4  909.31   28.70
  -3   2  -4  888.91   29.00
   3   2   4  936.81   28.80
   3   2   4  967.70   27.80
  -3   2  -4  926.11   29.40
  -3   2  -4  983.50   28.80
   3   2   4  930.81   27.60
   3   2   4  892.91   28.60
   3   2   4  904.81   30.00
   4  -2   4  382.76   13.00
   4  -2   4  373.06   18.40
   4  -2   4  390.36   15.90
  -4  -2  -4  377.26   17.10
   4  -2   4  409.86   14.10
  -4  -2  -4  404.16   12.90
   4  -2   4  402.56   13.10
  -4  -2  -4  386.66   15.40
  -4  -2  -4  382.06   16.90
  -4  -2  -4  376.46   13.50
  -4  -2  -4  378.76   11.60
  -4   2  -4  379.46   14.90
   4   2   4  368.06   17.40
   4   2   4  396.86   12.30
   4   2   4  370.16   12.20
   4   2   4  406.86   13.50
  -4   2  -4  404.26   13.50
  -4   2  -4  405.36   14.30
  -4   2  -4  400.76   13.30
   4   2   4  377.66   14.60
  -4   2  -4  387.46   18.50
  -4   2  -4  382.46   16.20
   5  -2   4  684.63   21.80
  -5  -2  -4  682.43   21.50
   5  -2   4  699.83   23.40
  -5  -2  -4  683.03   22.20
  -5  -2  -4  675.13   26.10
   5  -2   4  682.83   24.70
  -5  -2  -4  668.53   24.30
  -5  -2  -4  684.83   22.50
   5  -2   4  669.83   27.70
  -5  -2  -4  643.34   21.20
  -5  -2  -4  658.03   25.80
   5  -2   4  686.03   21.80
  -5   2  -4  663.33   23.40
   5   2   4  701.73   21.30
  -5   2  -4  698.23   23.00
  -5   2  -4  705.23   22.30
  -5   2  -4  683.83   27.70
   5   2   4  707.33   22.40
   5   2   4  670.83   21.10
  -5   2  -4  710.43   23.20
   5   2   4  680.23   23.10
   5   2   4  672.03   26.30
  -5   2  -4  686.13   25.00
   6  -2   4   29.10   12.90
  -6  -2  -4   31.60   11.30
  -6  -2  -4   34.10    5.90
  -6  -2  -4   23.70    3.40
  -6  -2  -4   29.00    4.10
   6  -2   4   30.50    9.60
  -6  -2  -4   34.00    9.50
   6  -2   4   35.80    3.40
  -6  -2  -4   30.00    4.00
  -6   2  -4   41.40    8.50
   6   2   4   28.30    3.50
  -6   2  -4   34.40   10.30
   6   2   4   37.30    2.70
  -6   2  -4   30.90   12.60
   6   2   4   27.00   11.00
   6   2   4   32.30    7.80
  -6   2  -4   31.90    4.40
  -7  -2  -4  196.18   24.30
   7  -2   4  189.28   21.80
  -7  -2  -4  202.08   26.20
  -7  -2  -4  185.08   13.70
  -7  -2  -4  191.08    9.20
   7  -2   4  197.78   28.30
   7   2   4  190.08   24.60
  -7   2  -4  197.78   10.20
   7   2   4  193.28   17.20
  -7   2  -4  217.68   22.20
   7   2   4  192.58    7.60
   7   2   4  213.48    7.20
  -7   2  -4  195.88   27.10
  -7   2  -4  204.78   18.70
  -8  -2  -4   50.09   18.70
   8  -2   4   73.19   16.60
  -8  -2  -4   65.59   11.10
   8  -2   4   56.89   21.80
  -8  -2  -4   53.09   16.80
  -8  -2  -4   60.39    9.80
  -8   2  -4   54.09   21.70
   8   2   4   55.99   12.40
   8   2   4   62.99    7.80
  -8   2  -4   80.29   14.80
  -8   2  -4   70.99   18.30
   8   2   4   67.39   20.90
  -8  -3   4   33.00   17.00
   8  -3  -4   19.40   20.80
  -8  -3   4   22.10   14.40
  -8  -3   4   28.30   15.30
   8  -3  -4   32.90   15.50
  -8  -3   4   36.20    5.30
  -8  -3   4   25.20    3.20
   8  -3  -4   32.90   14.40
  -8   3   4   38.50   18.40
  -8   3   4   19.90   18.40
   8   3  -4   30.30    9.30
  -8   3   4   33.80   16.50
  -8   3   4   41.40   17.90
   7  -3  -4  310.07   27.20
  -7  -3   4  282.27   10.50
   7  -3  -4  302.67   22.50
  -7  -3   4  289.67   19.80
  -7  -3   4  291.87    9.50
  -7  -3   4  300.57   22.50
   7  -3  -4  306.97   21.30
  -7  -3   4  270.67   13.10
  -7  -3   4  300.27   23.50
   7   3  -4  297.87   24.50
  -7   3   4  304.37   24.10
  -7   3   4  295.47   25.50
   7   3  -4  283.27   15.00
  -7   3   4  290.37   22.10
  -7   3   4  282.57   12.50
  -7   3   4  282.17   10.80
   6  -3  -4  891.11   29.30
   6  -3  -4  904.51   32.10
  -6  -3   4  882.21   26.70
  -6  -3   4  913.81   32.70
  -6  -3   4  904.61   28.90
   6  -3  -4  893.61   31.30
  -6  -3   4  921.51   32.60
   6  -3  -4  871.91   34.80
  -6  -3   4  912.91   28.60
   6  -3  -4  920.01   28.10
  -6  -3   4  901.91   27.70
  -6  -3   4  880.11   30.60
  -6   3   4  889.41   33.40
   6   3  -4  898.11   27.10
  -6   3   4  851.01   31.50
  -6   3   4  892.01   34.60
  -6   3   4  875.21   28.00
   6   3  -4  873.51   32.80
   6   3  -4  856.71   28.50
  -6   3   4  904.41   28.50
   6   3  -4  896.41   28.60
   6   3  -4  882.71   28.60
  -6   3   4  901.51   31.70
   5  -3  -4   12.80    7.70
  -5  -3   4   15.70    1.20
  -5  -3   4   18.20    6.50
   5  -3  -4   16.20    9.90
  -5  -3   4   12.50    1.70
   5  -3  -4   18.50    2.30
  -5  -3   4   11.40    2.30
   5  -3  -4   17.10    7.30
  -5  -3   4   19.10    8.70
  -5  -3   4   20.90    2.90
   5  -3  -4   12.60    3.20
  -5  -3   4   15.30    7.70
   5  -3  -4   14.70    2.20
   5   3  -4   14.20    4.80
   5   3  -4   19.00    2.00
   5   3  -4   12.40    7.80
  -5   3   4    8.40    1.60
  -5   3   4    9.00    7.90
  -5   3   4    7.10    7.30
  -5   3   4   21.40    9.80
  -5   3   4   13.00    2.70
  -5   3   4   21.90    2.80
   5   3  -4   13.40    1.90
  -5   3   4   11.60    1.70
   5   3  -4   11.20    1.90
   4  -3  -4 2102.19   59.49
   4  -3  -4 1924.51   61.49
  -4  -3   4 2029.90   59.49
  -4  -3   4 2030.00   58.99
   4  -3  -4 1951.40   59.99
   4  -3  -4 2032.30   60.39
   4  -3  -4 2106.39   59.69
  -4  -3   4 1918.21   59.49
  -4  -3   4 2026.80   59.89
  -4  -3   4 1953.20   60.39
   4  -3  -4 1976.30   59.99
  -4  -3   4 1953.50   60.79
  -4   3   4 1914.11   59.89
  -4   3   4 2033.60   60.39
   4   3  -4 2011.10   58.69
   4   3  -4 1887.91   60.29
  -4   3   4 2020.90   59.39
  -4   3   4 1941.51   61.39
   4   3  -4 2044.90   59.79
  -4   3   4 2078.19   59.39
  -4   3   4 1968.10   60.59
   4   3  -4 1882.41   58.69
   4   3  -4 2069.09   59.99
  -4   3   4 2046.10   59.69
   3  -3  -4  531.55   18.00
   3  -3  -4  519.55   18.80
  -3  -3   4  560.64   16.90
   3  -3  -4  530.45   20.00
   3  -3  -4  565.24   17.30
  -3  -3   4  564.34   17.40
  -3  -3   4  514.05   19.00
   3  -3  -4  562.84   18.10
  -3  -3   4  533.35   18.20
  -3  -3   4  539.05   19.70
  -3  -3   4  549.85   17.70
   3  -3  -4  530.95   18.70
   3  -3  -4  535.25   19.30
   3   3  -4  556.74   16.70
   3   3  -4  522.15   17.20
  -3   3   4  565.64   17.50
  -3   3   4  519.95   18.60
   3   3  -4  565.44   17.80
  -3   3   4  525.35   18.00
  -3   3   4  571.14   18.00
  -3   3   4  559.24   17.20
  -3   3   4  552.24   19.20
  -3   3   4  527.45   20.10
   3   3  -4  536.05   19.10
   3   3  -4  563.74   17.60
  -2  -3   4 2064.19   60.09
  -2  -3   4 2058.99   60.69
  -2  -3   4 1953.90   60.29
   2  -3  -4 2115.09   60.99
   2  -3  -4 1990.40   60.69
   2  -3  -4 1996.30   60.89
  -2  -3   4 1990.90   61.09
  -2  -3   4 2071.79   59.89
  -2  -3   4 2012.50   60.99
   2  -3  -4 1981.20   61.29
   2  -3  -4 2101.09   60.39
   2  -3  -4 1975.80   60.49
   2  -3  -4 2091.39   60.19
   2   3  -4 2129.29   60.79
   2   3  -4 2016.30   61.09
  -2   3   4 2136.39   60.09
  -2   3   4 2072.49   60.59
  -2   3   4 2028.00   61.39
  -2   3   4 1972.60   60.29
   2   3  -4 1990.20   59.79
  -2   3   4 2017.40   60.59
  -2   3   4 2082.19   61.19
   2   3  -4 2098.19   59.79
  -2   3   4 2073.99   60.39
  -1  -3   4 2278.37   65.79
  -1  -3   4 2192.98   64.79
  -1  -3   4 2144.19   65.19
   1  -3  -4 2198.88   65.19
   1  -3  -4 2172.68   65.89
   1  -3  -4 2265.87   64.99
   1  -3  -4 2278.57   64.79
  -1  -3   4 2162.18   65.99
   1  -3  -4 2134.29   65.69
   1  -3  -4 2305.37   65.69
  -1  -3   4 2211.18   65.89
  -1  -3   4 2213.88   64.89
   1  -3  -4 2167.68   65.59
   1   3  -4 2210.48   64.29
  -1   3   4 2303.07   65.69
   1   3  -4 2257.67   65.79
   1   3  -4 2315.07   66.89
   1   3  -4 2281.27   64.79
   1   3  -4 2112.79   64.89
  -1   3   4 2142.49   64.99
  -1   3   4 2187.08   64.99
  -1   3   4 2327.17   65.59
   1   3  -4 2164.18   64.89
  -1   3   4 2169.98   65.79
   0  -3   4  104.69    3.80
   0  -3  -4  101.19    7.60
   0  -3  -4  109.89    6.40
   0  -3   4  106.39    4.90
   0  -3  -4  108.59    4.70
   0  -3   4  108.99    4.20
   0  -3   4  102.99    4.30
   0  -3   4  101.59    8.30
   0  -3  -4  105.39    3.50
   0  -3  -4   93.29    7.80
   0  -3   4  102.09    6.30
   0  -3  -4  104.29    4.00
   0   3  -4   91.39    8.10
   0   3   4   97.39    4.50
   0   3  -4  104.79    4.00
   0   3  -4   97.79    4.80
   0   3   4   99.59    3.80
   0   3   4  103.79    4.50
   0   3   4   92.99    5.40
   0   3   4   96.79    5.60
   0   3   4  100.19    4.40
   0   3  -4  105.59    3.90
   1  -3   4 3779.82  107.49
   1  -3   4 3607.74  108.39
   1  -3   4 3746.73  108.19
  -1  -3  -4 3557.44  107.19
  -1  -3  -4 3711.23  106.99
  -1  -3  -4 3717.33  107.69
   1  -3   4 3748.72  107.39
   1  -3   4 3523.85  107.39
  -1  -3  -4 3539.25  107.99
  -1  -3  -4 3517.25  107.79
  -1   3  -4 3581.74  107.49
   1   3   4 3721.93  106.69
  -1   3  -4 3627.64  108.39
  -1   3  -4 3636.84  107.49
  -1   3  -4 3826.82  107.29
   1   3   4 3589.74  106.89
   1   3   4 3626.64  106.59
  -1   3  -4 3783.22  107.29
   1   3   4 3851.71  107.89
  -1   3  -4 3816.62  108.29
   1   3   4 3757.12  107.69
   1   3   4 3707.93  107.69
  -2  -3  -4   93.59    8.40
  -2  -3  -4  103.49    9.00
   2  -3   4   94.89    8.20
   2  -3   4  103.89    5.40
  -2  -3  -4  109.49    4.80
   2  -3   4   88.99    8.10
   2  -3   4   96.49    9.80
  -2  -3  -4   99.49    6.90
   2  -3   4  100.89    4.30
   2  -3   4  102.99    5.00
  -2  -3  -4   97.49    4.20
  -2   3  -4  105.09   10.40
   2   3   4  109.59    4.60
  -2   3  -4  103.99    4.60
  -2   3  -4  102.79    8.20
   2   3   4  105.09    3.60
   2   3   4  108.49    4.70
  -2   3  -4  117.59    4.90
  -2   3  -4  104.49    7.80
  -2   3  -4  101.79    6.50
   3  -3   4  877.41   26.50
  -3  -3  -4  865.51   26.10
   3  -3   4  901.31   26.30
  -3  -3  -4  854.41   26.80
  -3  -3  -4  830.72   28.30
   3  -3   4  820.62   27.80
   3  -3   4  887.21   27.50
  -3  -3  -4  884.81   26.70
   3  -3   4  846.82   27.80
   3  -3   4  815.22   29.20
  -3  -3  -4  815.12   27.80
   3   3   4  860.41   25.30
  -3   3  -4  835.92   29.10
  -3   3  -4  843.42   26.90
   3   3   4  872.91   25.20
  -3   3  -4  831.12   27.20
  -3   3  -4  897.01   27.70
   3   3   4  837.12   26.70
  -3   3  -4  846.82   27.60
  -3   3  -4  891.61   26.40
   3   3   4  865.11   26.70
   3   3   4  882.11   26.60
  -3   3  -4  881.31   26.70
   4  -3   4 1517.55   44.80
   4  -3   4 1440.46   46.00
   4  -3   4 1515.75   45.70
  -4  -3  -4 1495.05   44.80
  -4  -3  -4 1479.35   46.60
   4  -3   4 1476.85   47.80
   4  -3   4 1470.15   45.60
  -4  -3  -4 1510.85   44.10
  -4  -3  -4 1456.35   46.00
  -4  -3  -4 1465.55   44.90
   4  -3   4 1528.05   44.70
  -4   3  -4 1465.35   45.20
   4   3   4 1425.46   46.10
   4   3   4 1487.45   43.30
  -4   3  -4 1503.85   44.90
  -4   3  -4 1417.76   45.60
  -4   3  -4 1482.95   47.70
   4   3   4 1518.15   44.70
  -4   3  -4 1475.45   45.80
   4   3   4 1439.46   43.50
  -4   3  -4 1532.25   45.90
   4   3   4 1392.36   43.90
   5  -3   4  132.89   14.70
   5  -3   4  125.59    6.00
  -5  -3  -4  142.29    6.60
  -5  -3  -4  131.99    5.70
   5  -3   4  143.19   18.60
  -5  -3  -4  136.59   14.70
  -5  -3  -4  136.79   12.50
  -5  -3  -4  137.39    6.40
   5  -3   4  131.99    6.00
   5  -3   4  151.78    7.00
  -5  -3  -4  134.09   16.00
   5   3   4  119.79   11.00
   5   3   4  130.09    4.70
  -5   3  -4  133.59    6.30
   5   3   4  151.38    6.00
  -5   3  -4  134.69   15.20
  -5   3  -4  148.19    7.40
  -5   3  -4  125.99    7.80
   5   3   4  125.19    5.00
  -5   3  -4  137.09   12.80
   5   3   4  127.29   15.00
  -5   3  -4  126.29   17.90
  -6  -3  -4  478.15   16.60
   6  -3   4  460.75   17.10
   6  -3   4  488.95   23.90
   6  -3   4  489.05   16.10
  -6  -3  -4  487.55   37.90
  -6  -3  -4  469.65   15.60
  -6  -3  -4  465.85   16.30
   6  -3   4  485.25   28.30
  -6  -3  -4  485.05   23.60
  -6  -3  -4  474.55   21.60
  -6  -3  -4  447.66   16.60
  -6   3  -4  502.75   37.00
  -6   3  -4  469.25   21.30
   6   3   4  465.95   24.40
   6   3   4  453.85   17.90
   6   3   4  428.16   16.10
   6   3   4  466.85   14.50
  -6   3  -4  475.55   27.60
  -7  -3  -4   20.30    3.20
  -7  -3  -4   30.20   14.20
  -7  -3  -4   32.40   15.00
  -7  -3  -4   27.60    3.70
  -7  -3  -4   22.60   12.50
  -7  -3  -4   29.90    7.70
   7  -3   4   25.10   13.50
  -7   3  -4   18.80   17.70
   7   3   4   22.70    8.20
  -7   3  -4   15.90   12.30
  -7   3  -4   34.40   14.30
   7   3   4   30.40   15.00
   7   3   4   16.00    2.10
  -7   3  -4   27.70    6.30
  -8  -3  -4   16.50   18.70
  -8  -3  -4   14.30   10.30
  -8  -3  -4   16.30   20.60
  -8   3  -4   22.40   27.40
  -8   3  -4   20.70   24.10
  -8  -4   4  142.69   16.20
  -8  -4   4  145.39   17.80
   8  -4  -4  148.99   25.00
   8  -4  -4  149.09   18.60
   8  -4  -4  147.39   17.60
  -8  -4   4  127.49   18.20
   8   4  -4  148.29   20.30
  -8   4   4  157.88   21.20
  -8   4   4  130.49   17.90
  -8   4   4  133.89   17.80
  -8   4   4  132.89   23.00
  -7  -4   4  101.69    4.10
  -7  -4   4  117.09   13.90
   7  -4  -4  105.09   20.50
  -7  -4   4  107.39    5.40
  -7  -4   4   99.39   11.90
  -7  -4   4  130.29   15.70
  -7  -4   4   95.29    6.40
   7  -4  -4  117.29   14.60
  -7   4   4   95.69   14.20
  -7   4   4   78.79   16.50
  -7   4   4  117.99   14.30
  -7   4   4  115.69   16.20
   7   4  -4  119.59   15.00
  -6  -4   4  381.26   20.20
  -6  -4   4  350.06   11.90
   6  -4  -4  360.36   13.70
  -6  -4   4  350.46   21.50
  -6  -4   4  351.76   12.70
  -6  -4   4  339.17   10.60
   6  -4  -4  355.36   24.70
  -6  -4   4  343.47   13.40
   6  -4  -4  353.36   20.70
   6  -4  -4  351.46   20.10
  -6  -4   4  352.86   17.90
   6  -4  -4  336.97   12.80
   6   4  -4  346.07   20.70
  -6   4   4  340.17   13.70
  -6   4   4  354.36   19.80
   6   4  -4  338.27   13.90
  -6   4   4  358.26   22.50
  -6   4   4  315.17   35.10
   6   4  -4  338.07   13.40
   6   4  -4  334.17   10.70
  -6   4   4  362.06   23.80
  -6   4   4  342.57   12.40
  -6   4   4  336.37   13.50
  -5  -4   4  849.22   26.70
   5  -4  -4  856.41   29.60
   5  -4  -4  849.91   26.90
   5  -4  -4  854.91   27.70
   5  -4  -4  847.12   29.40
  -5  -4   4  882.61   27.00
  -5  -4   4  863.81   30.60
   5  -4  -4  870.61   33.70
  -5  -4   4  831.82   29.20
  -5  -4   4  820.82   26.60
   5  -4  -4  794.12   27.30
  -5  -4   4  834.22   28.00
  -5   4   4  850.51   26.90
   5   4  -4  835.62   27.30
  -5   4   4  796.92   27.40
  -5   4   4  863.01   27.90
  -5   4   4  869.31   26.50
  -5   4   4  836.02   31.00
   5   4  -4  821.02   29.30
   5   4  -4  858.81   27.00
  -5   4   4  856.21   32.00
  -5   4   4  847.52   30.70
   5   4  -4  861.11   27.20
  -5   4   4  810.12   29.90
   5   4  -4  835.12   25.00
   4  -4  -4   21.30    3.20
  -4  -4   4   16.70    6.30
  -4  -4   4   15.70    5.60
   4  -4  -4   14.90    2.30
  -4  -4   4   14.20    2.20
   4  -4  -4   12.70    6.00
  -4  -4   4   15.60    2.30
  -4  -4   4   16.40    2.20
   4  -4  -4   20.60    2.20
   4  -4  -4   13.90    8.30
   4  -4  -4    9.50    6.40
  -4  -4   4   13.00    6.80
   4   4  -4   13.10    2.20
  -4   4   4   17.80    7.40
   4   4  -4   15.00    1.60
   4   4  -4   18.80    2.40
  -4   4   4   17.60    2.80
  -4   4   4   16.90    8.90
  -4   4   4   15.10    2.20
  -4   4   4   19.40    7.60
  -4   4   4   23.90    2.50
  -4   4   4   15.10    6.50
  -3  -4   4 2162.58   68.29
  -3  -4   4 2363.26   67.69
   3  -4  -4 2382.86   68.69
  -3  -4   4 2190.68   68.99
   3  -4  -4 2250.87   68.49
   3  -4  -4 2388.26   67.79
   3  -4  -4 2266.07   68.19
   3  -4  -4 2250.07   69.49
  -3  -4   4 2197.38   67.69
  -3  -4   4 2344.27   67.29
   3  -4  -4 2388.06   67.99
   3  -4  -4 2256.77   68.59
  -3  -4   4 2309.47   68.09
  -3   4   4 2397.86   67.79
   3   4  -4 2369.86   68.49
  -3   4   4 2285.27   68.69
   3   4  -4 2380.26   68.09
   3   4  -4 2057.69   67.29
  -3   4   4 2358.86   67.99
  -3   4   4 2229.78   67.99
  -3   4   4 2371.86   68.09
  -3   4   4 2219.98   69.29
  -3   4   4 2370.96   68.69
   3   4  -4 2302.87   67.89
  -3   4   4 2237.58   68.59
   2  -4  -4 1151.58   34.90
   2  -4  -4 1114.59   35.40
  -2  -4   4 1160.28   33.90
   2  -4  -4 1128.99   35.80
   2  -4  -4 1096.59   34.80
  -2  -4   4 1173.78   34.70
  -2  -4   4 1119.49   35.30
   2  -4  -4 1091.59   35.20
  -2  -4   4 1151.48   35.90
   2  -4  -4 1166.48   34.10
  -2  -4   4 1098.09   34.50
  -2  -4   4 1161.58   33.80
   2   4  -4 1151.08   33.30
  -2   4   4 1180.18   33.90
   2   4  -4  974.30   36.30
  -2   4   4 1196.18   34.50
  -2   4   4 1131.29   35.10
  -2   4   4 1138.99   35.00
  -2   4   4 1101.79   34.40
   2   4  -4 1113.49   33.60
   2   4  -4 1198.58   34.90
  -2   4   4 1176.28   34.90
  -2   4   4 1132.89   35.20
  -2   4   4 1112.29   35.70
   1  -4  -4  771.52   25.70
   1  -4  -4  831.82   24.10
  -1  -4   4  817.02   25.00
  -1  -4   4  792.02   24.80
  -1  -4   4  798.72   24.10
  -1  -4   4  778.12   26.20
   1  -4  -4  822.02   24.20
  -1  -4   4  779.52   25.90
  -1  -4   4  768.42   24.70
  -1  -4   4  802.12   23.80
   1  -4  -4  760.02   25.60
   1  -4  -4  757.62   25.50
   1  -4  -4  782.42   24.90
   1  -4  -4  823.42   24.90
  -1   4   4  784.82   24.40
   1   4  -4  804.42   24.10
   1   4  -4  833.02   25.00
   1   4  -4  800.52   25.10
   1   4  -4  812.22   23.50
  -1   4   4  782.92   25.40
  -1   4   4  802.32   25.10
  -1   4   4  818.32   24.00
  -1   4   4  829.52   24.90
  -1   4   4  783.42   25.80
   1   4  -4  804.32   24.20
   0  -4  -4 3713.63  109.79
   0  -4   4 3902.81  109.59
   0  -4  -4 3619.74  109.89
   0  -4   4 3729.13  109.29
   0  -4  -4 3803.52  108.89
   0  -4   4 3707.33  108.89
   0  -4   4 3665.73  108.49
   0  -4  -4 3667.83  109.09
   0  -4  -4 3906.51  109.59
   0  -4   4 3841.82  109.19
   0  -4   4 3862.91  110.19
   0  -4  -4 3825.72  108.59
   0  -4   4 3644.94  110.19
   0  -4  -4 3483.55  109.49
   0   4   4 3728.13  109.89
   0   4  -4 3798.52  110.09
   0   4  -4 3639.74  109.09
   0   4   4 3830.32  109.89
   0   4  -4 3805.12  108.79
   0   4   4 3822.72  108.59
   0   4   4 3635.64  108.99
   0   4   4 3810.42  109.39
   0   4  -4 3855.51  108.89
   0   4   4 3612.94  108.59
   0   4  -4 3681.93  110.19
  -1  -4  -4  570.04   16.90
   1  -4   4  588.54   18.80
   1  -4   4  565.24   20.60
  -1  -4  -4  543.05   20.10
  -1  -4  -4  574.84   17.50
   1  -4   4  596.44   18.30
   1  -4   4  589.24   18.10
   1  -4   4  554.24   18.90
  -1  -4  -4  616.94   19.40
   1  -4   4  559.34   19.00
  -1  -4  -4  556.64   18.50
  -1  -4  -4  584.24   18.30
  -1   4  -4  563.44   19.40
  -1   4  -4  608.44   19.00
  -1   4  -4  592.14   17.80
   1   4   4  598.84   18.20
   1   4   4  571.24   17.90
  -1   4  -4  572.14   19.20
   1   4   4  593.84   18.20
  -1   4  -4  554.74   20.50
   1   4   4  562.74   19.30
  -1   4  -4  576.64   17.20
  -1   4  -4  582.34   17.90
  -2  -4  -4 3360.46  105.19
  -2  -4  -4 3530.95  105.89
   2  -4   4 3536.55  106.39
   2  -4   4 3523.35  105.19
  -2  -4  -4 3623.44  104.39
  -2  -4  -4 3673.63  104.99
   2  -4   4 3769.82  105.99
   2  -4   4 3545.75  105.29
  -2  -4  -4 3415.36  104.49
   2  -4   4 3745.43  105.39
   2  -4   4 3669.13  104.99
  -2   4  -4 3560.54  105.19
   2   4   4 3592.34  104.99
  -2   4  -4 3590.24  105.29
   2   4   4 3665.63  104.89
  -2   4  -4 3353.26  104.29
  -2   4  -4 3609.74  106.39
  -2   4  -4 3798.92  106.09
   3  -4   4  301.97   10.20
  -3  -4  -4  285.17   13.20
   3  -4   4  290.67   16.30
  -3  -4  -4  281.97   14.80
  -3  -4  -4  291.47   11.90
   3  -4   4  289.17   13.50
   3  -4   4  272.37   14.10
  -3  -4  -4  294.47    9.70
   3  -4   4  294.27   11.20
   3  -4   4  296.67   10.30
  -3  -4  -4  298.17   10.20
   3   4   4  299.97   10.00
  -3   4  -4  287.27   11.70
  -3   4  -4  294.17   13.90
  -3   4  -4  291.67   10.10
   3   4   4  302.57   10.20
  -3   4  -4  295.07   11.20
  -3   4  -4  290.77   16.00
  -3   4  -4  291.97   10.40
  -3   4  -4  280.97   13.40
  -4  -4  -4  300.07   10.70
   4  -4   4  291.77   16.60
   4  -4   4  305.17   15.30
  -4  -4  -4  291.67   13.30
   4  -4   4  320.87   11.10
   4  -4   4  303.47   11.20
  -4  -4  -4  288.77   17.00
   4  -4   4  301.17   18.70
   4  -4   4  308.47   10.80
  -4  -4  -4  292.57   14.90
   4  -4   4  320.97   11.90
  -4   4  -4  318.87   12.10
   4   4   4  303.07   10.80
  -4   4  -4  310.67   11.00
  -4   4  -4  304.07   15.40
  -4   4  -4  307.27   19.00
  -4   4  -4  307.97   15.40
   4   4   4  312.27   10.70
   5  -4   4  589.34   20.60
   5  -4   4  595.34   24.80
  -5  -4  -4  568.54   23.50
  -5  -4  -4  605.64   22.20
   5  -4   4  596.34   28.00
  -5  -4  -4  630.84   25.70
  -5  -4  -4  591.14   18.80
   5  -4   4  585.04   19.50
   5  -4   4  595.74   23.70
   5  -4   4  624.74   20.70
  -5   4  -4  583.84   27.90
  -5   4  -4  575.04   23.40
  -5   4  -4  581.64   20.70
  -5   4  -4  588.44   24.80
  -5   4  -4  598.14   19.50
   5   4   4  573.34   18.20
  -6  -4  -4   -2.00   12.20
   6  -4   4    0.70   15.10
  -6  -4  -4   -0.60    2.10
   6  -4   4    0.10   11.30
   6  -4   4   -1.10    3.20
  -6  -4  -4    5.60    9.30
  -6  -4  -4   -2.40    1.90
  -6  -4  -4   -4.30    3.00
   6  -4   4   -6.00    2.40
  -6  -4  -4    0.70    1.00
  -6  -4  -4    3.00   10.40
  -6   4  -4   -1.80    3.20
   6   4   4   -1.40    1.40
  -6   4  -4    0.90   10.40
  -6   4  -4   -3.60   11.50
   6   4   4    0.00   11.10
  -6   4  -4   -5.10   14.60
   7  -4   4  149.99   16.30
  -7  -4  -4  126.19   12.50
   7  -4   4  127.99   21.00
  -7  -4  -4  136.59   14.10
  -7  -4  -4  118.99   16.40
  -7  -4  -4  144.19    7.00
  -7  -4  -4  158.38   23.40
  -7  -4  -4  123.39    4.90
  -7  -4  -4  132.79    6.60
  -7   4  -4  129.59   20.40
   7   4   4  124.89   16.50
  -7   4  -4  124.59   16.50
  -7   4  -4  136.89   15.40
   7   4   4  125.99    6.60
  -7  -5   4  112.49   12.70
  -7  -5   4  131.99    5.90
  -7  -5   4  114.49   13.90
   7  -5  -4  115.79   15.80
  -7  -5   4  104.39    6.50
   7  -5  -4  108.29   15.00
  -7  -5   4  140.79   17.30
  -7   5   4  109.79   16.00
  -7   5   4   93.19   18.20
  -7   5   4  107.49   14.60
  -6  -5   4  534.55   26.60
  -6  -5   4  529.85   22.20
   6  -5  -4  580.64   26.60
  -6  -5   4  545.45   18.50
   6  -5  -4  541.55   25.90
  -6  -5   4  561.84   18.50
  -6  -5   4  558.44   24.30
  -6  -5   4  569.54   17.60
   6  -5  -4  570.04   19.60
   6   5  -4  520.05   17.90
  -6   5   4  503.15   18.00
  -6   5   4  518.45   26.20
  -6   5   4  520.65   27.90
  -6   5   4  515.75   18.10
   6   5  -4  536.75   24.70
  -6   5   4  538.15   28.90
   5  -5  -4    7.40   11.30
   5  -5  -4    3.10    2.30
  -5  -5   4    1.80    1.80
   5  -5  -4    3.40    2.20
  -5  -5   4    4.00    1.60
  -5  -5   4    7.80    9.30
   5  -5  -4    3.30    9.00
   5  -5  -4    7.10    8.40
  -5  -5   4    6.40    6.70
  -5  -5   4    3.00    7.60
  -5  -5   4    4.90    1.70
  -5   5   4    1.40    1.60
  -5   5   4    4.30    1.70
  -5   5   4    2.20    8.60
  -5   5   4    4.50    2.70
  -5   5   4    7.00   11.00
  -5   5   4    3.50    8.50
   5   5  -4    2.40    1.50
  -5   5   4   11.50    3.50
   5   5  -4    7.50    2.30
   5   5  -4    5.20    1.30
   4  -5  -4 1289.57   39.70
  -4  -5   4 1216.88   38.40
   4  -5  -4 1321.07   38.80
   4  -5  -4 1215.38   40.20
   4  -5  -4 1264.07   42.30
  -4  -5   4 1238.88   39.80
   4  -5  -4 1274.47   38.90
   4  -5  -4 1251.37   40.70
  -4  -5   4 1276.97   38.80
  -4  -5   4 1253.97   41.50
  -4  -5   4 1243.68   39.10
  -4  -5   4 1292.97   38.60
  -4   5   4 1297.37   42.40
   4   5  -4 1326.17   38.80
  -4   5   4 1244.88   39.60
  -4   5   4 1351.36   39.40
  -4   5   4 1254.87   39.90
  -4   5   4 1289.37   39.80
   4   5  -4 1262.67   38.50
   4   5  -4 1287.07   39.50
  -4   5   4 1221.28   38.80
  -4   5   4 1250.57   40.90
   3  -5  -4  199.78   13.90
   3  -5  -4  212.88    8.60
   3  -5  -4  213.18    8.00
  -3  -5   4  208.38    7.30
   3  -5  -4  206.08   12.60
  -3  -5   4  214.28    7.60
   3  -5  -4  205.78   12.10
   3  -5  -4  196.78   12.80
  -3  -5   4  204.88   10.90
  -3  -5   4  201.08   11.40
  -3  -5   4  213.48    8.10
  -3  -5   4  212.18   14.30
   3  -5  -4  216.78    7.90
  -3   5   4  211.48   12.90
  -3   5   4  212.18   14.60
   3   5  -4  212.28    7.70
  -3   5   4  199.68   11.50
  -3   5   4  212.68    7.70
  -3   5   4  242.28    8.60
  -3   5   4  211.28    8.10
   3   5  -4  217.08    8.00
  -3   5   4  209.48    8.40
  -2  -5   4 1990.80   57.69
  -2  -5   4 2009.90   58.09
  -2  -5   4 1916.61   58.79
  -2  -5   4 1886.51   58.09
  -2  -5   4 2022.70   58.69
  -2  -5   4 1942.41   58.29
   2  -5  -4 2034.30   58.09
   2  -5  -4 1916.31   59.09
   2  -5  -4 1924.01   58.49
   2  -5  -4 1926.21   58.99
  -2  -5   4 1927.71   59.69
   2  -5  -4 1911.01   59.39
   2  -5  -4 1980.00   59.09
   2  -5  -4 1952.50   58.19
   2   5  -4 2014.30   58.49
  -2   5   4 1923.31   58.89
  -2   5   4 2011.20   58.69
   2   5  -4 1983.10   58.19
  -2   5   4 1899.51   57.99
  -2   5   4 1974.50   58.39
  -2   5   4 1976.60   57.59
  -2   5   4 2023.40   58.49
  -2   5   4 1883.61   59.29
  -1  -5   4 1296.57   39.00
  -1  -5   4 1251.67   37.80
   1  -5  -4 1325.97   38.30
  -1  -5   4 1245.98   39.90
   1  -5  -4 1348.86   38.30
  -1  -5   4 1212.78   38.20
  -1  -5   4 1238.78   38.70
   1  -5  -4 1262.67   38.90
   1  -5  -4 1267.97   39.70
  -1  -5   4 1333.87   39.20
   1  -5  -4 1304.17   39.00
  -1  -5   4 1278.67   40.50
   1  -5  -4 1267.47   39.90
  -1  -5   4 1273.07   38.30
   1  -5  -4 1279.57   39.80
  -1   5   4 1257.57   39.90
  -1   5   4 1290.37   38.00
   1   5  -4 1323.77   39.00
  -1   5   4 1346.87   39.10
  -1   5   4 1255.17   38.20
   1   5  -4 1354.66   39.10
   1   5  -4 1294.37   37.80
   1   5  -4 1317.67   37.60
  -1   5   4 1247.58   39.20
   0  -5   4   28.80    4.70
   0  -5  -4   33.70    2.10
   0  -5   4   29.10    2.70
   0  -5  -4   29.40    5.40
   0  -5  -4   30.20    1.80
   0  -5  -4   27.40    4.40
   0  -5   4   30.80    6.20
   0  -5  -4   32.50    5.90
   0  -5  -4   25.60    4.80
   0  -5  -4   28.10    2.50
   0  -5   4   28.20    2.70
   0  -5   4   27.30    3.90
   0  -5   4   26.50    2.30
   0   5  -4   20.10    1.80
   0   5   4   29.50    4.60
   0   5  -4   19.70    5.60
   0   5   4   24.80    2.20
   0   5  -4   26.60    4.20
   0   5  -4   26.50    2.50
   0   5  -4   28.80    1.70
   1  -5   4 1336.77   40.90
   1  -5   4 1372.96   40.40
   1  -5   4 1406.56   40.80
  -1  -5  -4 1302.47   40.70
  -1  -5  -4 1327.57   40.30
   1  -5   4 1328.87   42.20
   1  -5   4 1313.57   40.70
  -1  -5  -4 1352.06   39.30
  -1  -5  -4 1317.07   41.90
  -1  -5  -4 1377.86   40.40
   1  -5   4 1375.16   41.10
  -1  -5  -4 1343.87   39.60
  -1   5  -4 1316.97   40.70
   1   5   4 1296.67   40.10
  -1   5  -4 1388.96   39.90
   1   5   4 1409.26   40.90
  -1   5  -4 1370.06   40.20
  -1   5  -4 1312.07   42.20
   1   5   4 1367.16   40.30
   1   5   4 1292.97   40.20
  -1   5  -4 1392.56   41.20
  -1   5  -4 1288.67   41.50
  -2  -5  -4  957.90   28.50
   2  -5   4  962.70   32.50
  -2  -5  -4  962.50   30.20
  -2  -5  -4  960.60   28.90
   2  -5   4  993.00   29.60
   2  -5   4  953.00   30.70
  -2  -5  -4  915.41   31.60
  -2  -5  -4  985.00   29.20
   2  -5   4  981.00   30.40
  -2  -5  -4  954.60   29.50
   2  -5   4  942.61   30.70
   2  -5   4 1000.70   29.80
  -2   5  -4  965.50   28.40
  -2   5  -4  968.20   30.70
  -2   5  -4  900.61   29.80
  -2   5  -4  951.40   31.20
  -2   5  -4  950.20   32.40
  -2   5  -4  998.70   29.60
  -2   5  -4 1004.60   30.60
  -3  -5  -4  448.06   16.00
  -3  -5  -4  448.66   13.70
  -3  -5  -4  465.55   14.60
  -3  -5  -4  471.75   14.30
   3  -5   4  454.25   16.10
   3  -5   4  474.15   15.20
   3  -5   4  460.05   18.40
  -3  -5  -4  445.26   17.20
  -3  -5  -4  460.55   19.70
   3  -5   4  453.15   18.50
   3  -5   4  475.35   16.00
   3  -5   4  449.36   20.60
  -3   5  -4  468.75   14.80
  -3   5  -4  417.96   15.40
  -3   5  -4  434.46   16.40
  -3   5  -4  460.85   15.20
  -3   5  -4  428.46   18.30
  -3   5  -4  441.76   20.80
   3   5   4  454.95   14.40
  -3   5  -4  451.15   18.30
  -4  -5  -4  746.03   28.50
   4  -5   4  794.52   24.40
  -4  -5  -4  755.42   23.80
  -4  -5  -4  760.82   23.70
   4  -5   4  763.42   30.40
   4  -5   4  761.82   28.20
   4  -5   4  774.32   25.30
  -4  -5  -4  729.23   26.20
  -4  -5  -4  750.42   22.50
   4  -5   4  777.42   24.30
  -4  -5  -4  756.32   25.10
   4  -5   4  748.43   27.00
  -4   5  -4  772.12   24.50
  -4   5  -4  740.13   25.10
   4   5   4  742.93   24.00
  -4   5  -4  773.52   25.60
  -4   5  -4  758.02   27.00
  -4   5  -4  788.82   24.10
   4   5   4  784.42   23.80
  -4   5  -4  766.52   27.40
  -4   5  -4  774.82   30.20
  -5  -5  -4   51.19    6.00
   5  -5   4   38.20    4.10
  -5  -5  -4   60.29   12.00
   5  -5   4   47.60   13.50
   5  -5   4   58.39    5.00
  -5  -5  -4   46.60    8.50
  -5  -5  -4   45.40    2.10
   5  -5   4   47.60   10.10
  -5  -5  -4   53.89    3.50
  -5  -5  -4   40.50    3.30
  -5  -5  -4   49.40    8.00
   5  -5   4   52.29   11.90
   5   5   4   42.00    3.20
  -5   5  -4   54.49   10.40
  -5   5  -4   49.30    3.70
   5   5   4   42.40    3.20
  -5   5  -4   45.10   10.00
  -5   5  -4   49.00   13.30
  -6  -5  -4  192.78    6.20
   6  -5   4  175.58    9.50
   6  -5   4  191.98   20.80
  -6  -5  -4  195.08   17.90
   6  -5   4  194.28   27.10
  -6  -5  -4  187.18    8.20
  -6  -5  -4  198.88    8.00
   6  -5   4  214.68   23.00
  -6  -5  -4  188.48    9.60
  -6  -5  -4  191.98   18.60
  -6  -5  -4  189.28   13.90
  -6  -5  -4  205.08   23.90
  -6   5  -4  198.98   21.40
  -6   5  -4  210.28   33.20
  -6   5  -4  205.98   22.60
   6   5   4  181.68    7.40
   6   5   4  180.58    6.60
  -7  -5  -4   30.40   13.80
   7  -5   4   37.60   22.00
  -7  -5  -4   52.99    5.40
  -7  -5  -4   38.00    4.80
  -7  -5  -4   45.90    2.80
  -7  -5  -4   34.10   13.60
   7  -5   4   39.70   15.90
  -7  -5  -4   29.70   18.30
   7   5   4    9.80   26.30
  -7   5  -4   43.50   16.60
  -7   5  -4   46.30   16.20
  -7   5  -4   35.70   21.50
   7  -6  -4   75.19   16.70
  -7  -6   4   76.59   17.80
   7  -6  -4   54.39   21.30
  -7  -6   4   61.59   12.90
  -7  -6   4   76.19   13.10
  -7  -6   4   65.39    5.70
  -7  -6   4   74.59    5.00
   7  -6  -4   87.89   17.50
  -7   6   4   65.19   15.70
  -7   6   4   46.90   20.30
  -7   6   4   61.39   15.70
  -6  -6   4  133.19   14.80
  -6  -6   4  164.78   17.10
   6  -6  -4  161.18   22.70
   6  -6  -4  164.08    8.00
  -6  -6   4  146.69    6.80
  -6  -6   4  149.19    6.70
  -6  -6   4  159.78   16.60
  -6  -6   4  125.79    7.00
   6  -6  -4  146.29   20.70
  -6   6   4  163.58   18.40
   6   6  -4  152.98    6.20
  -6   6   4  169.38   22.00
   6   6  -4  142.29    6.50
  -6   6   4  146.49   20.00
   5  -6  -4  356.86   12.70
  -5  -6   4  357.46   16.80
   5  -6  -4  358.76   13.90
  -5  -6   4  367.96   12.50
   5  -6  -4  344.57   13.30
  -5  -6   4  342.67   12.60
  -5  -6   4  343.17   22.40
   5  -6  -4  363.66   23.40
   5  -6  -4  350.66   21.00
  -5  -6   4  375.96   11.90
   5  -6  -4  347.67   20.90
  -5  -6   4  366.56   17.90
   5   6  -4  351.76   12.40
  -5   6   4  357.46   19.40
   5   6  -4  356.96   12.60
  -5   6   4  339.97   12.80
  -5   6   4  345.87   24.00
  -5   6   4  370.06   13.00
  -5   6   4  373.56   12.80
   4  -6  -4    1.00    1.60
   4  -6  -4    0.70    9.90
   4  -6  -4    3.20    8.20
   4  -6  -4    2.20    8.50
  -4  -6   4    0.70    1.30
  -4  -6   4    3.60    8.50
   4  -6  -4   -2.30    1.70
  -4  -6   4    2.10    6.40
  -4  -6   4    1.20    1.40
  -4  -6   4   -2.40    2.10
  -4  -6   4    3.90    6.30
  -4   6   4   -2.10    7.30
  -4   6   4   -2.10    1.30
  -4   6   4    4.00   10.10
  -4   6   4    3.50    1.50
  -4   6   4    1.30    8.20
   4   6  -4    1.80    1.30
  -4   6   4    0.20    1.70
   4   6  -4    2.90    1.40
   3  -6  -4 1142.39   33.60
   3  -6  -4 1079.69   35.70
  -3  -6   4 1108.59   32.80
   3  -6  -4 1090.89   35.20
   3  -6  -4 1056.49   34.80
   3  -6  -4 1116.89   34.20
  -3  -6   4 1071.89   36.50
  -3  -6   4 1076.19   32.70
   3  -6  -4 1079.59   36.60
  -3  -6   4 1065.59   33.80
  -3  -6   4 1058.19   34.00
  -3  -6   4 1087.39   33.80
   3  -6  -4 1101.49   33.30
  -3  -6   4 1048.20   33.10
  -3   6   4 1117.29   33.90
  -3   6   4 1080.19   33.60
  -3   6   4 1049.79   35.40
  -3   6   4 1096.19   32.70
  -3   6   4 1097.59   36.70
   3   6  -4 1081.29   33.10
   3   6  -4 1019.60   33.20
  -3   6   4 1048.60   34.00
  -3   6   4 1126.19   33.50
  -2  -6   4  758.82   22.00
  -2  -6   4  730.53   24.00
   2  -6  -4  764.52   24.00
   2  -6  -4  756.02   25.70
   2  -6  -4  747.33   23.20
  -2  -6   4  746.83   22.60
  -2  -6   4  773.72   24.00
   2  -6  -4  726.13   26.10
   2  -6  -4  755.42   23.20
   2  -6  -4  730.93   26.00
  -2  -6   4  754.12   24.90
   2  -6  -4  730.83   24.80
  -2  -6   4  757.22   23.40
  -2  -6   4  741.33   27.40
  -2   6   4  718.73   25.70
  -2   6   4  756.32   23.70
  -2   6   4  759.22   24.10
  -2   6   4  735.43   26.20
  -2   6   4  755.62   24.40
  -2   6   4  712.63   23.70
   2   6  -4  768.52   23.40
   2   6  -4  753.22   23.50
   1  -6  -4  373.86   11.90
   1  -6  -4  364.36   13.10
  -1  -6   4  363.86   15.80
  -1  -6   4  365.46   11.30
   1  -6  -4  359.96   15.60
   1  -6  -4  367.56   14.10
  -1  -6   4  369.46   13.90
  -1  -6   4  362.96   17.40
   1  -6  -4  368.36   16.30
  -1  -6   4  378.36   12.50
   1  -6  -4  385.36   12.60
  -1  -6   4  360.06   12.70
  -1  -6   4  359.46   12.70
  -1  -6   4  374.86   11.90
   1  -6  -4  366.46   15.20
   1   6  -4  367.36   11.40
  -1   6   4  359.66   15.30
  -1   6   4  368.46   12.50
  -1   6   4  374.36   12.30
   1   6  -4  368.16   12.40
  -1   6   4  370.56   11.30
  -1   6   4  328.37   15.80
   1   6  -4  377.36   12.50
  -1   6   4  353.56   12.50
   0  -6   4 1827.72   54.89
   0  -6  -4 1789.42   54.99
   0  -6   4 1746.03   55.89
   0  -6  -4 1851.21   54.49
   0  -6  -4 1914.51   53.89
   0  -6   4 1787.72   54.69
   0  -6  -4 1831.32   53.99
   0  -6   4 1794.92   54.39
   0  -6  -4 1823.12   54.49
   0  -6  -4 1823.62   55.89
   0  -6  -4 1780.52   55.79
   0  -6   4 1859.41   55.09
   0   6  -4 1770.32   54.19
   0   6   4 1888.71   54.49
   0   6  -4 1856.91   53.49
   0   6  -4 1925.71   54.99
   0   6   4 1794.42   54.89
   0   6   4 1931.91   55.09
   0   6  -4 1771.32   57.49
   0   6   4 1863.91   54.39
   0   6  -4 1841.52   53.99
   1  -6   4   13.20    2.80
   1  -6   4   17.10    7.10
   1  -6   4   13.30    5.20
  -1  -6  -4   13.00    2.00
  -1  -6  -4   11.60    1.20
  -1  -6  -4   12.90    6.70
  -1  -6  -4   16.60    6.90
  -1  -6  -4   11.80    1.60
  -1  -6  -4   16.30    1.60
   1  -6   4   13.40    2.10
   1  -6   4   15.60    5.40
  -1  -6  -4   18.00    4.70
   1  -6   4   17.50    2.60
   1   6   4   13.70    2.10
  -1   6  -4   14.00    2.40
  -1   6  -4    9.20    6.30
   1   6   4   15.70    2.10
   1   6   4   10.00    5.00
  -1   6  -4   19.50    5.40
  -1   6  -4   14.60    7.30
  -2  -6  -4 1073.69   34.20
  -2  -6  -4 1135.49   33.50
  -2  -6  -4 1095.39   36.70
   2  -6   4 1149.29   35.10
   2  -6   4 1109.19   37.40
  -2  -6  -4 1086.69   34.00
   2  -6   4 1148.19   34.60
   2  -6   4 1116.49   35.60
   2  -6   4 1152.68   34.20
  -2  -6  -4 1127.39   33.20
   2  -6   4 1111.79   35.60
  -2  -6  -4 1143.69   33.10
   2   6   4 1118.09   33.40
  -2   6  -4 1082.19   36.40
  -2   6  -4 1106.09   37.40
  -2   6  -4 1146.19   35.10
  -2   6  -4 1098.09   34.60
  -2   6  -4 1123.99   35.50
  -2   6  -4 1157.08   34.30
   3  -6   4  448.46   15.10
  -3  -6  -4  446.96   13.90
  -3  -6  -4  448.86   20.60
  -3  -6  -4  437.26   13.50
   3  -6   4  439.16   21.70
   3  -6   4  446.56   15.40
  -3  -6  -4  452.55   14.20
  -3  -6  -4  440.06   16.50
   3  -6   4  443.56   19.20
   3  -6   4  463.95   15.70
  -3  -6  -4  454.55   13.30
   3  -6   4  450.45   18.90
  -3  -6  -4  441.96   15.90
  -3   6  -4  438.96   15.80
  -3   6  -4  421.46   19.60
  -3   6  -4  424.46   21.70
  -3   6  -4  456.25   14.80
  -3   6  -4  428.06   16.10
   3   6   4  447.16   13.90
   3   6   4  432.26   13.90
  -3   6  -4  449.86   18.90
  -3   6  -4  363.96   15.70
   4  -6   4   66.69   10.00
  -4  -6  -4   64.49   10.40
   4  -6   4   78.79    4.30
  -4  -6  -4   66.79    7.70
  -4  -6  -4   72.49    7.00
  -4  -6  -4   72.59    3.40
   4  -6   4   67.99    9.80
   4  -6   4   78.49    4.60
   4  -6   4   73.49   13.00
  -4  -6  -4   66.39    2.90
  -4   6  -4   71.49    9.70
  -4   6  -4   64.29    9.40
  -4   6  -4   70.59   12.50
   4   6   4   65.09    3.40
  -4   6  -4   67.39    4.20
  -4   6  -4   77.59   10.70
   4   6   4   72.09    3.30
  -4   6  -4   63.89    4.10
   5  -6   4  222.18   26.90
  -5  -6  -4  256.07   16.50
   5  -6   4  262.27   11.10
   5  -6   4  280.07   21.20
   5  -6   4  240.58   26.80
  -5  -6  -4  255.97    8.20
  -5  -6  -4  267.87    9.00
  -5  -6  -4  244.78    9.00
  -5  -6  -4  268.07   15.50
  -5  -6  -4  252.37   12.30
  -5   6  -4  276.87   20.60
  -5   6  -4  280.87   20.40
   5   6   4  228.68    9.00
  -5   6  -4  264.67   15.60
  -5   6  -4  278.87   25.10
   5   6   4  238.88    8.80
  -6  -6  -4    3.40   10.50
  -6  -6  -4    1.60    1.20
  -6  -6  -4    2.70    7.80
  -6  -6  -4    1.20   10.70
   6  -6   4    3.90   17.50
   6  -6   4    3.30   15.40
  -6  -6  -4   -4.00    2.10
   6  -6   4    6.50   13.80
  -6  -6  -4    1.00   13.70
  -6   6  -4    1.60   14.40
  -6   6  -4    2.20   13.10
  -6   6  -4   10.70   31.30
  -7  -6  -4   59.89    6.30
  -7  -6  -4   63.49   14.50
   7  -6   4   57.49   22.90
  -7  -6  -4   43.90   18.20
   7  -6   4   60.89   18.90
   7  -6   4   57.59   18.50
  -7  -6  -4   53.49   13.60
  -7   6  -4   62.49   18.60
  -7   6  -4   67.29   18.40
  -7   6  -4   59.39   23.30
   7  -7  -4   67.99   19.00
  -7  -7   4   68.79   19.60
  -7   7   4   48.00   17.90
   6  -7  -4  181.18   25.80
   6  -7  -4  196.68    9.20
  -6  -7   4  165.18   18.00
  -6  -7   4  185.48    7.10
  -6  -7   4  164.18   16.80
  -6  -7   4  179.58   26.00
  -6  -7   4  166.38    7.30
  -6  -7   4  161.78    8.40
   6  -7  -4  182.38   23.50
   6  -7  -4  187.38   28.50
  -6   7   4  167.48   21.60
  -6   7   4  174.38   24.90
  -6   7   4  177.38   20.60
   6   7  -4  150.28    8.50
   5  -7  -4   -2.60   12.30
  -5  -7   4    2.70    1.70
   5  -7  -4    5.20    2.90
  -5  -7   4    8.40    8.00
  -5  -7   4   -3.50    1.60
   5  -7  -4   -0.70   11.50
  -5  -7   4   -0.30    8.50
  -5  -7   4    3.80   14.30
  -5   7   4    3.00   13.00
  -5   7   4  -11.60   12.90
  -5   7   4   -4.00    9.50
  -5   7   4    0.60    2.30
  -5   7   4   -2.70    2.80
   5   7  -4    0.80    1.80
   5   7  -4    0.70    1.40
  -4  -7   4  420.96   14.60
   4  -7  -4  461.65   16.30
  -4  -7   4  434.36   15.50
   4  -7  -4  436.86   24.00
   4  -7  -4  438.36   20.50
  -4  -7   4  437.96   14.70
  -4  -7   4  461.95   23.70
  -4  -7   4  427.16   18.20
  -4  -7   4  445.96   14.20
   4  -7  -4  442.76   14.90
   4  -7  -4  442.96   15.30
   4  -7  -4  449.36   22.70
  -4  -7   4  426.96   17.70
  -4   7   4  477.75   15.30
  -4   7   4  444.66   14.50
   4   7  -4  446.66   14.50
  -4   7   4  434.76   19.20
  -4   7   4  434.16   22.60
  -4   7   4  449.56   24.00
  -3  -7   4  138.79   11.60
  -3  -7   4  150.78    6.90
   3  -7  -4  156.18    7.10
   3  -7  -4  152.48    6.50
   3  -7  -4  137.09   16.30
  -3  -7   4  153.38    6.00
  -3  -7   4  171.88   18.40
   3  -7  -4  145.49    7.50
   3  -7  -4  145.39   15.30
   3  -7  -4  149.39   13.20
  -3  -7   4  151.18    5.60
  -3  -7   4  147.39    5.80
  -3  -7   4  145.39   11.00
   3  -7  -4  151.58   14.00
   3   7  -4  145.89    5.90
  -3   7   4  142.99   11.60
  -3   7   4  162.88   16.80
  -3   7   4  148.09   15.70
  -3   7   4  162.08    6.50
  -3   7   4  132.49    6.50
   2  -7  -4  715.93   26.10
  -2  -7   4  708.43   24.30
  -2  -7   4  699.63   22.10
   2  -7  -4  695.13   26.10
   2  -7  -4  709.73   25.30
  -2  -7   4  718.83   21.70
   2  -7  -4  706.43   24.60
  -2  -7   4  713.23   27.70
  -2  -7   4  698.73   21.50
   2  -7  -4  710.93   22.30
   2  -7  -4  728.43   23.00
  -2  -7   4  687.33   23.50
  -2  -7   4  704.53   23.10
   2  -7  -4  731.83   22.10
  -2  -7   4  684.83   22.10
  -2   7   4  709.03   22.80
   2   7  -4  715.53   22.10
  -2   7   4  689.83   22.70
  -2   7   4  713.73   22.90
  -2   7   4  728.83   26.40
  -2   7   4  704.43   25.90
  -2   7   4  717.13   22.90
   1  -7  -4  763.32   27.20
  -1  -7   4  758.12   24.70
  -1  -7   4  754.22   22.40
   1  -7  -4  757.42   26.10
  -1  -7   4  766.52   23.80
   1  -7  -4  824.62   23.80
   1  -7  -4  740.73   26.30
   1  -7  -4  775.62   24.10
  -1  -7   4  750.42   26.40
  -1  -7   4  756.42   24.40
   1  -7  -4  725.43   24.10
   1  -7  -4  743.93   25.10
  -1  -7   4  748.63   23.60
  -1  -7   4  755.62   28.60
  -1  -7   4  755.02   24.00
  -1   7   4  751.52   26.30
   1   7  -4  763.52   23.90
   1   7  -4  779.82   23.10
  -1   7   4  767.62   24.20
  -1   7   4  765.72   24.10
  -1   7   4  777.72   24.00
   1   7  -4  767.92   23.80
   0  -7   4   24.80    2.90
   0  -7   4   24.20    2.70
   0  -7   4   13.80    7.20
   0  -7  -4   22.90    5.70
   0  -7  -4   20.80    2.30
   0  -7  -4   22.20    5.30
   0  -7   4   23.70    5.80
   0  -7  -4   27.50    8.10
   0  -7   4   25.00    5.40
   0  -7  -4   18.10    2.00
   0  -7  -4   13.40    7.20
   0  -7  -4   18.80    2.30
   0  -7   4   15.10    1.90
   0   7  -4   20.20    1.80
   0   7  -4   16.80    2.20
   0   7   4   17.10    6.60
   0   7   4   16.10    2.20
   0   7   4   25.10    2.20
   0   7   4   16.50    2.10
  -1  -7  -4  880.21   31.30
   1  -7   4  915.81   29.80
  -1  -7  -4  894.01   28.60
  -1  -7  -4  915.31   27.40
   1  -7   4  908.81   31.80
   1  -7   4  922.91   28.10
  -1  -7  -4  940.41   27.40
   1  -7   4  908.91   29.80
   1  -7   4  913.61   28.90
  -1  -7  -4  933.61   28.00
  -1  -7  -4  920.71   28.70
   1  -7   4  896.71   28.80
  -1  -7  -4  935.91   31.40
  -1   7  -4  920.41   27.30
   1   7   4  914.41   27.70
  -1   7  -4  903.11   31.50
  -1   7  -4  909.31   31.60
   1   7   4  913.31   27.50
  -1   7  -4  896.31   28.80
  -1   7  -4  943.21   28.20
   1   7   4  941.41   28.70
   1   7   4  902.61   29.60
  -2  -7  -4   59.99    6.00
  -2  -7  -4   57.09    2.70
  -2  -7  -4   53.69    7.20
  -2  -7  -4   60.59    8.20
   2  -7   4   63.79    8.00
   2  -7   4   52.69    3.80
   2  -7   4   67.19    4.20
  -2  -7  -4   58.69    3.10
  -2  -7  -4   69.99    9.80
   2  -7   4   39.90    4.70
  -2  -7  -4   58.09    2.70
   2  -7   4   61.29   10.10
  -2  -7  -4   67.99    9.70
   2  -7   4   59.69    8.30
  -2   7  -4   69.29    4.10
  -2   7  -4   57.39    7.50
   2   7   4   50.79    2.40
  -2   7  -4   62.79   10.10
  -2   7  -4   54.59   10.10
  -2   7  -4   43.10    3.50
  -3  -7  -4  127.89    8.30
   3  -7   4  150.58   18.30
  -3  -7  -4  144.39    8.60
  -3  -7  -4  147.89    5.80
   3  -7   4  148.39    6.60
   3  -7   4  162.28   14.70
   3  -7   4  175.58    7.50
   3  -7   4  146.09    6.60
  -3  -7  -4  153.38    5.80
   3  -7   4  137.79   15.50
  -3  -7  -4  148.39   10.50
  -3  -7  -4  147.59   17.30
  -3   7  -4  144.69    6.60
   3   7   4  147.59    4.90
  -3   7  -4  168.68    6.00
  -3   7  -4  147.29   18.50
  -3   7  -4  149.88   14.60
  -3   7  -4  151.38   16.60
  -4  -7  -4  258.47   12.30
  -4  -7  -4  263.57   21.50
   4  -7   4  266.67   19.00
  -4  -7  -4  222.48   13.10
  -4  -7  -4  272.57    8.70
   4  -7   4  257.07   20.40
  -4  -7  -4  251.27    8.70
   4  -7   4  282.07   11.60
  -4  -7  -4  260.67   13.80
  -4  -7  -4  260.77   11.40
   4  -7   4  249.28    9.90
  -4   7  -4  266.57    9.30
  -4   7  -4  265.47   20.10
   4   7   4  250.97    8.20
  -4   7  -4  264.07   18.80
  -4   7  -4  267.47   23.50
  -4   7  -4  246.08   12.10
  -4   7  -4  256.57    8.30
   4   7   4  245.88    8.40
  -5  -7  -4    9.70    1.40
   5  -7   4    9.20    3.70
  -5  -7  -4   14.80    2.00
  -5  -7  -4   14.00    6.30
  -5  -7  -4   11.50    8.50
   5  -7   4   11.90   12.50
  -5  -7  -4   12.40   13.80
   5  -7   4   17.00   15.70
  -5  -7  -4   16.30    7.80
   5  -7   4   19.10   12.60
   5   7   4   10.60    1.40
  -5   7  -4   16.50   19.60
  -5   7  -4   13.20    8.00
  -5   7  -4   12.30    1.60
  -5   7  -4   13.50   13.20
  -5   7  -4   19.80   16.50
  -6  -7  -4   94.19    5.40
   6  -7   4   98.39   21.30
  -6  -7  -4  104.59    6.30
   6  -7   4  104.69   18.60
  -6  -7  -4  107.19   18.20
  -6  -7  -4  106.99   14.00
   6  -7   4  103.89   16.50
  -6  -7  -4  114.49   17.80
  -6  -7  -4  112.19   12.10
  -6  -7  -4  111.89    4.30
   6   7   4  105.29    4.60
  -6   7  -4  116.79   22.30
  -6   7  -4   94.69   16.40
  -6   7  -4  112.69   12.20
  -6   7  -4  100.79   17.00
  -6  -8   4   60.39   18.00
   6  -8  -4   51.19   17.00
  -6  -8   4   47.80    9.50
  -6  -8   4   63.79   12.10
   6  -8  -4   47.70   17.10
  -6  -8   4   45.70    4.40
   6  -8  -4   60.09   21.00
  -6   8   4   59.79   14.30
   6   8  -4   41.10    4.30
  -6   8   4   53.09   19.80
  -6   8   4   45.90   17.80
   5  -8  -4  268.97   11.50
  -5  -8   4  221.38    8.20
   5  -8  -4  216.38   26.60
   5  -8  -4  234.48   25.00
  -5  -8   4  234.88   14.60
  -5  -8   4  221.88    9.00
  -5  -8   4  248.18   25.90
  -5  -8   4  227.38   18.50
   5  -8  -4  243.28   24.00
  -5   8   4  198.88    9.30
  -5   8   4  197.18   26.50
  -5   8   4  233.18   20.10
  -5   8   4  222.28   24.90
  -5   8   4  226.88   10.10
  -4  -8   4    2.60    8.00
  -4  -8   4    3.00    2.70
  -4  -8   4    3.60    1.30
  -4  -8   4    3.90   12.80
  -4  -8   4   -1.40    2.90
   4  -8  -4    7.70    2.40
   4  -8  -4   -1.40   10.40
  -4  -8   4    1.70    1.70
   4  -8  -4    4.20   11.20
  -4  -8   4    1.30    6.50
   4  -8  -4    8.20    2.90
  -4   8   4    3.60    1.60
  -4   8   4   10.70   13.50
  -4   8   4   -7.60   12.60
   4   8  -4    2.80    1.20
  -4   8   4    7.00    2.10
  -4   8   4    3.30    8.60
   3  -8  -4  320.37   18.30
  -3  -8   4  314.37   14.40
   3  -8  -4  330.67   21.30
  -3  -8   4  330.37   23.90
  -3  -8   4  319.47   11.90
   3  -8  -4  323.17   18.30
  -3  -8   4  317.47   10.90
   3  -8  -4  324.27   11.20
   3  -8  -4  317.07   20.50
   3  -8  -4  327.77   12.00
  -3  -8   4  304.67   15.80
   3  -8  -4  309.07   11.40
  -3  -8   4  302.37   10.40
  -3   8   4  314.97   20.80
   3   8  -4  313.57   10.30
  -3   8   4  301.47   15.00
  -3   8   4  296.27   20.70
  -3   8   4  312.97   11.40
   3   8  -4  311.57   10.20
  -2  -8   4  152.58    5.50
  -2  -8   4  149.69    9.20
   2  -8  -4  136.19    7.80
   2  -8  -4  157.08   14.40
   2  -8  -4  149.69    6.30
   2  -8  -4  154.28   13.70
   2  -8  -4  157.78    7.00
  -2  -8   4  160.78   11.90
  -2  -8   4  156.48    7.00
   2  -8  -4  163.98   15.30
  -2  -8   4  158.98   12.40
   2  -8  -4  147.99   17.10
  -2  -8   4  152.68   20.00
  -2  -8   4  157.48    5.90
  -2   8   4  131.89    6.80
  -2   8   4  151.38    9.10
  -2   8   4  150.78   15.80
   2   8  -4  157.48    5.90
  -2   8   4  171.48    6.60
  -2   8   4  162.58   16.10
  -2   8   4  156.58    5.10
  -1  -8   4   61.29   11.00
   1  -8  -4   74.09    3.90
  -1  -8   4   72.39    9.60
   1  -8  -4   67.19    3.70
   1  -8  -4   66.89    9.40
  -1  -8   4   73.49    3.80
  -1  -8   4   78.69   10.60
  -1  -8   4   74.19    3.80
   1  -8  -4   73.19   12.50
   1  -8  -4   71.09    4.10
  -1  -8   4   79.69    8.90
  -1  -8   4   69.69    4.60
   1  -8  -4   78.19    8.90
   1  -8  -4   76.39   11.20
  -1   8   4   63.89    4.10
  -1   8   4   68.49    9.50
  -1   8   4   57.79    3.70
   1   8  -4   78.99    3.70
   1   8  -4   69.79    3.20
  -1   8   4   67.09    3.90
   0  -8  -4  501.35   19.10
   0  -8  -4  514.25   22.40
   0  -8   4  483.75   16.70
   0  -8  -4  473.95   21.60
   0  -8   4  508.15   19.30
   0  -8   4  506.35   19.40
   0  -8  -4  506.65   16.30
   0  -8   4  508.15   16.30
   0  -8  -4  506.95   18.70
   0  -8  -4  510.85   16.40
   0  -8   4  480.15   21.60
   0   8  -4  522.75   16.20
   0   8   4  526.55   16.20
   0   8  -4  497.75   16.80
   0   8   4  543.15   17.00
   0   8  -4  506.35   16.60
   0   8   4  500.85   20.80
   1  -8   4    9.50    1.80
  -1  -8  -4   14.00    5.20
  -1  -8  -4   14.70    9.00
  -1  -8  -4    9.20    1.40
  -1  -8  -4   10.20    8.30
  -1  -8  -4   14.70    1.80
  -1  -8  -4   11.50    5.90
   1  -8   4    9.30    7.20
   1  -8   4   13.20    9.40
  -1  -8  -4    9.60    1.40
   1  -8   4   19.30    7.50
  -1   8  -4   10.40    1.20
  -1   8  -4   11.10    9.80
   1   8   4    7.60    1.10
   1   8   4   13.70    1.70
   1   8   4   15.10    7.80
  -1   8  -4   13.30    4.70
  -1   8  -4   10.00   10.00
  -2  -8  -4  517.45   15.80
  -2  -8  -4  502.15   24.10
  -2  -8  -4  526.55   23.50
   2  -8   4  512.45   24.20
   2  -8   4  521.65   22.00
  -2  -8  -4  471.05   16.90
   2  -8   4  526.15   17.00
   2  -8   4  531.25   21.80
   2  -8   4  543.55   17.80
  -2  -8  -4  512.55   19.00
  -2   8  -4  510.25   24.30
  -2   8  -4  525.85   25.20
  -2   8  -4  512.85   17.00
  -2   8  -4  530.15   16.00
  -2   8  -4  505.05   20.50
  -2   8  -4  499.85   17.60
   3  -8   4   94.49   11.10
  -3  -8  -4   87.49    9.80
   3  -8   4   96.29    7.00
  -3  -8  -4   97.99    4.00
   3  -8   4   88.79   10.80
  -3  -8  -4   85.19    4.00
  -3  -8  -4  102.69   12.90
   3  -8   4  105.09    6.00
  -3  -8  -4   87.89   10.60
  -3  -8  -4   90.79   11.80
  -3   8  -4   72.99   15.70
  -3   8  -4   86.09    5.00
  -3   8  -4   98.19   14.60
  -3   8  -4   88.59    5.00
  -3   8  -4   97.49   10.40
   4  -8   4  100.89   13.00
  -4  -8  -4   95.69   15.90
  -4  -8  -4   87.69   12.60
   4  -8   4   95.09   13.40
  -4  -8  -4   96.19    4.10
  -4  -8  -4   91.39    4.20
  -4  -8  -4   94.79   10.40
   4  -8   4  102.39   16.50
   4  -8   4  106.59    6.70
  -4   8  -4  107.89    4.80
  -4   8  -4   83.09   15.60
  -4   8  -4  109.69   15.20
  -4   8  -4  106.79   12.30
   5  -8   4   95.29   19.80
  -5  -8  -4   92.09    3.90
  -5  -8  -4   85.29   12.20
  -5  -8  -4   77.49    4.30
   5  -8   4   92.99   15.80
  -5  -8  -4   91.29   10.20
   5  -8   4   87.89   15.60
  -5  -8  -4   78.99   17.00
  -5   8  -4   87.49    8.60
  -5   8  -4   80.29   18.90
  -5   8  -4   89.79   16.60
  -5   8  -4   91.39   15.40
   5  -9  -4   -5.70   17.60
   5  -9  -4   -2.40   15.70
  -5  -9   4    9.00    2.40
  -5  -9   4    2.40    2.80
   5  -9  -4    5.30    4.20
  -5  -9   4    7.30   17.20
  -5  -9   4    2.30   10.60
   5  -9  -4    3.00   17.10
  -5   9   4    5.10   18.50
  -5   9   4    2.50    3.00
  -5   9   4   -4.00   12.10
  -5   9   4    7.30    2.40
  -5   9   4  -10.70   17.70
  -4  -9   4  260.27   28.50
  -4  -9   4  224.78   17.10
   4  -9  -4  232.18   25.80
  -4  -9   4  224.18   11.10
   4  -9  -4  240.38   22.60
  -4  -9   4  252.97   12.30
   4  -9  -4  249.97   25.30
  -4  -9   4  241.28    9.00
   4  -9  -4  250.67   10.70
  -4   9   4  268.07   26.20
  -4   9   4  260.67    9.60
  -4   9   4  254.87   18.40
  -4   9   4  204.88   24.90
  -4   9   4  247.28    8.50
  -3  -9   4  162.48    6.60
  -3  -9   4  176.18   21.20
   3  -9  -4  180.78    7.40
  -3  -9   4  154.08   10.80
  -3  -9   4  170.78   15.20
  -3  -9   4  186.88    6.60
   3  -9  -4  183.68    7.60
   3  -9  -4  175.48   17.90
   3  -9  -4  186.88    8.20
  -3  -9   4  178.28   11.40
   3  -9  -4  189.48   18.20
   3  -9  -4  185.88   23.10
  -3   9   4  162.58   20.60
  -3   9   4  194.58   22.70
  -3   9   4  167.68   12.80
   3   9  -4  185.68    5.80
   3   9  -4  161.58    6.20
  -3   9   4  173.08    7.20
   2  -9  -4  239.18    9.40
   2  -9  -4  233.08   16.70
   2  -9  -4  224.08   17.20
   2  -9  -4  233.68    8.90
   2  -9  -4  231.28    8.60
  -2  -9   4  237.08    8.00
  -2  -9   4  231.98    8.40
  -2  -9   4  226.38   13.80
  -2  -9   4  227.18   14.70
   2  -9  -4  236.68   22.60
  -2  -9   4  231.68   14.00
  -2  -9   4  215.68   11.80
  -2  -9   4  224.18    7.50
  -2  -9   4  232.38   27.00
  -2  -9   4  236.38    9.80
  -2   9   4  228.38   20.20
  -2   9   4  241.98    9.00
  -2   9   4  210.28   18.40
   2   9  -4  217.68    7.90
   2   9  -4  239.88    8.00
  -1  -9   4  425.66   15.20
   1  -9  -4  422.76   23.00
  -1  -9   4  417.26   20.00
   1  -9  -4  426.16   14.50
  -1  -9   4  413.56   17.80
  -1  -9   4  435.76   25.60
   1  -9  -4  425.86   20.50
   1  -9  -4  432.76   14.30
   1  -9  -4  425.76   18.90
  -1  -9   4  425.66   18.40
   1  -9  -4  436.66   13.90
  -1  -9   4  438.36   14.00
  -1  -9   4  423.06   14.00
  -1   9   4  468.45   14.80
  -1   9   4  405.16   14.30
   1   9  -4  411.96   13.80
  -1   9   4  420.76   14.10
  -1   9   4  426.96   22.30
   0  -9  -4   24.70    7.50
   0  -9  -4   17.50    2.50
   0  -9  -4   20.80    3.30
   0  -9   4   21.30    2.40
   0  -9   4   20.60    7.90
   0  -9   4   25.80    8.10
   0  -9  -4   29.20    3.40
   0  -9  -4   19.50    2.70
   0  -9  -4   15.50    9.40
   0  -9   4   20.30    9.80
   0  -9  -4   25.00   11.20
   0   9   4   17.60    9.60
   0   9  -4   29.50    2.70
   0   9   4   29.30    2.50
   0   9   4   30.80    2.00
   0   9  -4   22.50    2.80
   0   9  -4   26.60    2.60
   0   9   4   24.10    3.10
  -1  -9  -4  300.07   21.00
  -1  -9  -4  272.67   12.50
   1  -9   4  279.87   20.20
  -1  -9  -4  258.57   19.50
  -1  -9  -4  283.37   14.10
   1  -9   4  287.67   17.70
  -1  -9  -4  284.97   10.10
   1  -9   4  298.27   10.60
   1  -9   4  288.87   17.60
  -1  -9  -4  282.37    9.30
   1  -9   4  283.27   10.20
  -1  -9  -4  265.67   12.00
  -1   9  -4  277.77   20.90
  -1   9  -4  275.17   22.10
   1   9   4  281.87   18.10
  -1   9  -4  289.67   10.10
   1   9   4  284.17    8.90
  -1   9  -4  281.17   10.50
   1   9   4  288.77    8.80
  -2  -9  -4   26.20    7.00
   2  -9   4   27.30   10.10
  -2  -9  -4   25.70   10.80
  -2  -9  -4   29.00    8.30
   2  -9   4   18.00    2.60
   2  -9   4   33.20    4.00
  -2  -9  -4   22.90    3.00
  -2  -9  -4   27.00    2.20
  -2  -9  -4   23.20   11.80
   2  -9   4   22.10   10.50
  -2   9  -4   21.30    2.40
  -2   9  -4   23.90   13.20
  -2   9  -4   28.50    2.40
  -2   9  -4   26.00   12.80
  -3  -9  -4  131.89   15.40
  -3  -9  -4  117.09    4.50
  -3  -9  -4  111.59   12.70
  -3  -9  -4  108.59   13.40
  -3  -9  -4  114.79   13.80
   3  -9   4  104.59   15.00
   3  -9   4  132.79   20.90
   3  -9   4  111.49   16.00
  -3  -9  -4  104.39    5.00
  -3   9  -4  118.29   11.50
  -3   9  -4  120.19   15.90
  -3   9  -4   93.19   15.30
  -3   9  -4  109.49    4.80
  -4  -9  -4  141.99   13.40
  -4  -9  -4  155.18    5.70
  -4  -9  -4  122.59    5.40
   4  -9   4  139.49   19.40
   4  -9   4  128.29   15.30
  -4  -9  -4  121.49   18.20
  -4  -9  -4  121.59   16.90
   4  -9   4  151.58   15.70
  -4  -9  -4  135.09   14.50
  -4   9  -4  133.09   19.30
  -4   9  -4  119.09   16.30
  -4   9  -4  146.79   21.50
  -4   9  -4  140.59    5.80
   5  -9   4   -7.10   21.60
  -5  -9  -4    3.20   16.60
  -5  -9  -4   11.00   18.90
   5  -9   4   -6.40   17.10
  -5  -9  -4    2.00    8.60
   5  -9   4    4.50   16.60
  -5  -9  -4    1.10   10.40
  -5   9  -4   -4.80   18.20
  -5   9  -4    1.30   15.60
  -5   9  -4    3.50   20.50
   4 -10  -4   -2.30   15.00
  -4 -10   4   -3.00    2.50
   4 -10  -4   -5.20   15.80
  -4 -10   4   -0.20   10.80
  -4 -10   4    2.80   12.40
   4 -10  -4   -2.00   17.20
   4 -10  -4    8.40    5.00
  -4 -10   4   -0.50   19.50
  -4  10   4    0.00    2.90
  -4  10   4    7.00   18.80
  -4  10   4    2.30   10.30
  -4  10   4  -10.60   16.30
   3 -10  -4  142.39   16.40
  -3 -10   4  157.28   19.10
  -3 -10   4  152.88    6.40
   3 -10  -4  155.38    7.70
  -3 -10   4  158.98   17.50
   3 -10  -4  166.68   23.60
  -3 -10   4  151.78   16.10
   3 -10  -4  150.98   22.50
   3 -10  -4  159.88   19.80
  -3 -10   4  162.78   11.70
  -3 -10   4  164.08    6.00
  -3  10   4  160.88   16.90
  -3  10   4  136.19   23.60
   2 -10  -4   57.89    4.90
   2 -10  -4   74.69   11.40
  -2 -10   4   61.89    9.70
  -2 -10   4   65.89    8.40
   2 -10  -4   71.09   11.60
  -2 -10   4   68.49   12.00
   2 -10  -4   60.29   13.70
  -2 -10   4   64.29   16.40
   2 -10  -4   59.99    4.90
   2 -10  -4   65.29    4.50
   2 -10  -4   53.09   12.60
  -2 -10   4   76.99    4.00
  -2 -10   4   62.89    7.90
  -2  10   4   78.09    4.50
  -2  10   4   69.79   14.90
  -2  10   4   48.00   12.30
   1 -10  -4   47.70   12.80
   1 -10  -4   51.09    4.00
  -1 -10   4   54.49    9.10
   1 -10  -4   54.99   10.20
   1 -10  -4   62.89   11.00
  -1 -10   4   61.69    9.60
  -1 -10   4   62.59    4.10
   1 -10  -4   58.69   10.10
  -1 -10   4   56.79    9.70
   1 -10  -4   59.19    4.00
   1 -10  -4   70.09    4.40
  -1 -10   4   50.09   16.80
  -1  10   4   58.89    4.80
  -1  10   4   65.39   16.90
  -1  10   4   49.40    3.70
  -1  10   4   64.99    4.00
   0 -10   4  255.67    9.30
   0 -10  -4  238.68    8.70
   0 -10  -4  255.97   23.00
   0 -10   4  238.48   20.30
   0 -10  -4  249.88   20.20
   0 -10  -4  246.18   16.10
   0 -10  -4  245.88    9.40
   0 -10   4  230.98    9.10
   0 -10  -4  225.48   14.80
   0 -10   4  245.78   18.00
   0 -10  -4  254.37    9.10
   0 -10  -4  254.07    8.70
   0 -10   4  248.48   18.10
   0  10   4  266.87   21.60
   0  10  -4  247.78    9.40
   0  10  -4  254.97    9.00
   0  10   4  258.87    8.60
   1 -10   4    4.10    2.30
   1 -10   4    8.60   10.50
  -1 -10  -4   -1.00    1.70
  -1 -10  -4    6.20   12.40
   1 -10   4    7.60   10.60
  -1 -10  -4    0.90   11.70
  -1 -10  -4    9.70    8.00
  -1 -10  -4   -3.50    2.40
  -1 -10  -4    4.50    1.60
   1  10   4    3.40   11.60
  -1  10  -4   14.60   15.50
  -1  10  -4    1.30    1.90
  -1  10  -4    4.90   12.90
   2 -10   4  150.08   23.80
  -2 -10  -4  152.98    5.70
  -2 -10  -4  160.28   15.50
   2 -10   4  154.38   21.30
  -2 -10  -4  156.98   17.90
   2 -10   4  157.28   20.40
  -2 -10  -4  152.98   13.80
  -2 -10  -4  150.68    6.70
  -2 -10  -4  153.38   23.30
   2 -10   4  158.88    7.70
   2 -10   4  173.38   10.30
  -2  10  -4  178.18   18.70
  -2  10  -4  150.38   24.70
  -3 -10  -4   48.60    3.10
  -3 -10  -4   31.60   13.70
   3 -10   4   48.00   14.50
   3 -10   4   37.70   16.40
   3 -10   4   39.70   14.30
  -3 -10  -4   37.60    4.00
   3 -10   4   31.50    4.40
  -3 -10  -4   42.10    9.90
  -3  10  -4   43.30   18.50
  -3  10  -4   56.99   18.10
   4 -10   4   35.20   17.90
   4 -10   4   25.90   16.60
  -4 -10  -4   30.70    9.70
   4 -10   4   34.30   20.30
  -4 -10  -4   26.80   10.80
  -4 -10  -4   26.50   18.80
  -4 -10  -4   33.40   16.20
  -4  10  -4   31.00   21.00
  -4  10  -4   27.60   19.00
  -4  10  -4   32.80   14.90
   2 -11  -4  156.08    7.30
   2 -11  -4  129.29   22.40
  -2 -11   4  135.69   21.50
   2 -11  -4  149.09   21.20
  -2 -11   4  134.29   16.80
   2 -11  -4  147.09   14.90
  -2 -11   4  125.49    7.10
  -2 -11   4  148.09   19.00
   2 -11  -4  150.28   19.60
  -2  11   4  144.89   18.40
  -2  11   4  144.79    6.70
   1 -11  -4   71.59    4.90
   1 -11  -4   91.69    5.20
   1 -11  -4   69.79   16.20
   1 -11  -4   80.79   13.00
  -1 -11   4   91.39   11.50
  -1 -11   4   86.29    5.00
   1 -11  -4   78.79   14.00
   1 -11  -4   79.49   12.40
  -1 -11   4   91.09   11.10
   1 -11  -4   62.29    7.10
  -1 -11   4   85.69   11.90
  -1 -11   4   84.79   21.10
   1  11  -4   81.79    3.80
  -1  11   4   88.59   17.10
   0 -11  -4    3.20    2.60
   0 -11  -4    4.30    7.90
   0 -11  -4    3.60   14.40
   0 -11  -4    0.60   12.70
   0 -11   4    2.70   11.60
   0 -11  -4    5.90    2.30
   0 -11  -4    5.10   10.50
   0 -11   4    3.50   11.80
   0 -11  -4    4.80    9.30
   0  11   4    6.00   15.00
  -1 -11  -4  128.19   16.70
   1 -11   4  116.89    6.20
  -1 -11  -4  115.49    5.40
   1 -11   4  121.29   14.20
   1 -11   4   87.99    9.70
  -1 -11  -4   98.59    6.20
  -1 -11  -4  117.89   15.50
   1 -11   4  107.59   15.70
  -1 -11  -4  113.39   14.90
   1 -11   4  111.09   14.20
  -1 -11  -4  111.89    5.70
  -1 -11  -4  104.39   16.20
   1  11   4  118.99   16.50
  -1  11  -4  103.29   18.10
   2 -11   4   24.40   17.20
  -2 -11  -4   15.70   15.70
   2 -11   4   21.10   15.00
  -2 -11  -4   26.60   13.10
  -2 -11  -4   39.70    4.80
  -2 -11  -4   26.60    9.80
  -2 -11  -4   23.70   17.00
   2 -11   4   35.00   15.20
  -2  11  -4   17.50   18.20
  -2  11  -4   32.80   20.70
   8   0  -5  148.09   21.50
  -8   0   5  147.19   19.90
  -8   0   5  155.98    6.50
  -8   0   5  152.68   18.10
  -8   0   5  119.29   16.40
   8   0  -5  153.48   20.00
   8   0  -5  150.38   15.00
   7   0  -5   -3.80   15.60
   7   0  -5    1.20   10.30
  -7   0   5   -1.40   12.00
  -7   0   5   -3.00    3.00
   7   0  -5   -1.00    8.40
   7   0  -5   -3.20    2.00
  -7   0   5    2.20   11.20
  -7   0   5   -1.40   13.50
  -6   0   5 1225.68   37.60
  -6   0   5 1270.67   43.50
  -6   0   5 1267.47   42.20
   6   0  -5 1257.57   38.70
  -6   0   5 1226.98   38.30
   6   0  -5 1241.78   40.20
   6   0  -5 1232.38   43.50
  -6   0   5 1311.47   39.80
  -6   0   5 1253.87   40.70
   6   0  -5 1217.08   39.10
  -5   0   5  807.92   28.70
  -5   0   5  819.52   25.30
  -5   0   5  803.72   24.60
   5   0  -5  769.52   25.80
  -5   0   5  784.42   29.40
   5   0  -5  812.52   26.30
   5   0  -5  787.62   29.50
   5   0  -5  830.22   25.20
   5   0  -5  783.42   26.90
  -5   0   5  825.72   25.80
  -5   0   5  839.72   26.60
   5   0  -5  814.52   25.80
  -5   0   5  794.02   27.30
   4   0  -5 2211.38   63.19
  -4   0   5 2109.49   63.79
   4   0  -5 2142.59   62.39
  -4   0   5 2031.10   63.09
  -4   0   5 2077.69   61.89
   4   0  -5 2039.50   62.19
   4   0  -5 2041.50   62.89
  -4   0   5 2079.39   64.49
   4   0  -5 2060.99   64.49
  -4   0   5 2162.38   62.49
   4   0  -5 2180.78   64.79
  -4   0   5 2161.68   63.39
  -3   0   5 2186.68   61.89
   3   0  -5 1951.40   60.39
   3   0  -5 2169.28   61.09
   3   0  -5 2122.79   61.69
  -3   0   5 2083.59   61.69
   3   0  -5 1917.81   61.19
  -3   0   5 2097.69   60.79
   3   0  -5 2026.40   61.09
  -3   0   5 2007.90   61.19
  -3   0   5 2007.70   62.29
   3   0  -5 1998.20   61.59
  -3   0   5 2142.99   61.09
   3   0  -5 2008.00   62.19
   2   0  -5  154.18    9.90
  -2   0   5  179.98    6.40
   2   0  -5  154.08    7.20
   2   0  -5  158.28    6.10
   2   0  -5  162.68    6.70
  -2   0   5  162.08    6.00
  -2   0   5  162.78    9.10
   2   0  -5  155.88    8.40
   2   0  -5  159.48    6.00
  -2   0   5  155.38    8.60
  -2   0   5  155.18    9.90
  -2   0   5  169.08    6.80
   2   0  -5  162.38    9.00
  -1   0   5 3253.37   96.19
  -1   0   5 3089.29   95.29
   1   0  -5 3221.98   95.29
  -1   0   5 3360.86   95.39
   1   0  -5 3342.47   95.09
   1   0  -5 3099.69   95.49
  -1   0   5 3362.36   95.99
   1   0  -5 3257.57   96.29
  -1   0   5 3202.28   95.29
   1   0  -5 3283.07   95.19
  -1   0   5 3345.67   95.09
   0   0   5 1710.83   52.89
   0   0   5 1840.22   52.59
   0   0   5 1840.52   52.89
   0   0  -5 1833.52   53.49
   0   0   5 1718.43   52.49
   0   0  -5 1732.23   53.89
   0   0  -5 1719.13   53.09
   0   0  -5 1838.12   52.79
   0   0   5 1736.73   53.99
   0   0   5 1835.52   53.49
   1   0   5 1430.56   44.20
   1   0   5 1549.84   44.80
  -1   0  -5 1544.65   44.90
   1   0   5 1413.46   43.60
  -1   0  -5 1428.76   45.30
   1   0   5 1460.35   43.20
  -1   0  -5 1431.16   44.50
   1   0   5 1503.65   44.10
  -1   0  -5 1464.05   44.30
   1   0   5 1512.05   43.90
  -1   0  -5 1499.25   43.90
   1   0   5 1463.25   45.50
   2   0   5 2743.43   80.39
   2   0   5 2684.73   81.49
   2   0   5 2657.03   80.39
  -2   0  -5 2699.23   81.49
  -2   0  -5 2701.83   80.49
  -2   0  -5 2903.01   81.39
   2   0   5 2771.02   79.29
  -2   0  -5 2693.33   80.79
  -3   0  -5  209.88   11.60
  -3   0  -5  220.58    8.90
   3   0   5  223.78    7.40
   3   0   5  204.18   13.50
   3   0   5  209.58   10.80
  -3   0  -5  220.28   11.20
  -3   0  -5  217.68   13.40
   3   0   5  217.78    7.90
  -3   0  -5  224.08    8.40
  -3   0  -5  225.58    8.00
   3   0   5  219.18    8.70
  -4   0  -5 1306.77   45.10
   4   0   5 1298.87   42.80
   4   0   5 1375.16   39.50
  -4   0  -5 1283.67   41.40
   4   0   5 1343.87   41.50
   4   0   5 1258.37   40.60
   4   0   5 1327.87   39.10
  -4   0  -5 1238.28   38.90
  -4   0  -5 1338.77   40.30
  -4   0  -5 1293.27   42.80
  -4   0  -5 1346.97   39.70
  -4   0  -5 1308.27   40.90
   5   0   5  209.98    7.50
   5   0   5  181.98    7.80
  -5   0  -5  198.48    7.90
  -5   0  -5  188.28   16.00
  -5   0  -5  199.18   14.70
  -5   0  -5  200.68    8.70
   5   0   5  172.18    9.50
  -5   0  -5  204.38    8.50
   5   0   5  200.18   18.70
  -5   0  -5  188.88   10.40
  -5   0  -5  196.08   17.80
   5   0   5  191.68   13.80
   6   0   5  168.68   22.50
   6   0   5  161.68   16.00
  -6   0  -5  147.39   26.30
   6   0   5  153.88    6.50
  -6   0  -5  152.28   12.00
  -6   0  -5  155.88    6.90
  -6   0  -5  166.58    8.40
  -6   0  -5  157.28   17.20
   6   0   5  151.68    6.40
  -6   0  -5  159.48   19.10
  -6   0  -5  158.28    7.50
   7   0   5  304.07   29.70
  -7   0  -5  274.37   17.20
  -7   0  -5  264.07   14.20
  -7   0  -5  296.27   28.50
  -7   0  -5  308.87   25.20
   7   0   5  275.77   10.30
   7   0   5  307.57   21.40
   7   0   5  294.07   11.50
  -7   0  -5  300.87   25.90
   8   0   5   -3.50    4.90
  -8   0  -5   -1.20   12.70
  -8   0  -5   -1.60   18.60
  -8  -1   5  125.49   18.50
  -8  -1   5  103.09   15.70
   8  -1  -5  125.59   15.50
  -8  -1   5  107.09    8.60
  -8  -1   5  102.99   17.40
   8  -1  -5  115.69   13.70
  -8  -1   5  116.09    5.40
   8  -1  -5  127.49   24.60
  -8   1   5  109.39   16.40
   8   1  -5  137.89    6.60
  -8   1   5  106.19   17.70
   8   1  -5  131.79   21.10
  -8   1   5  111.09    5.70
  -8   1   5  108.79   18.60
   8   1  -5  117.39   13.60
  -7  -1   5  371.56   14.90
   7  -1  -5  382.56   28.60
  -7  -1   5  356.66   12.80
   7  -1  -5  381.66   21.00
  -7  -1   5  405.26   26.40
   7  -1  -5  381.16   20.20
  -7  -1   5  367.86   24.70
   7   1  -5  373.36   20.30
  -7   1   5  360.56   12.80
  -7   1   5  397.06   27.10
   7   1  -5  380.36   18.60
   7   1  -5  389.36   27.50
  -7   1   5  351.16   22.30
  -7   1   5  373.96   24.50
   7   1  -5  392.96   12.80
   6  -1  -5   43.00   12.20
  -6  -1   5   56.59   10.70
   6  -1  -5   54.49    4.60
  -6  -1   5   54.39    9.20
  -6  -1   5   50.59    2.80
  -6  -1   5   40.30    3.70
  -6  -1   5   39.10    4.80
   6  -1  -5   57.49    9.40
   6  -1  -5   63.79    3.80
  -6  -1   5   49.40    4.50
   6  -1  -5   60.39    7.90
  -6  -1   5   56.79   11.60
   6   1  -5   63.29    4.00
  -6   1   5   61.29   12.50
   6   1  -5   45.60    8.30
  -6   1   5   45.30    9.50
  -6   1   5   40.50    9.90
   6   1  -5   51.89    6.60
   6   1  -5   49.40   11.80
  -6   1   5   53.59    3.30
  -5  -1   5 1353.66   44.20
   5  -1  -5 1388.16   41.90
  -5  -1   5 1403.96   41.50
   5  -1  -5 1406.06   41.30
   5  -1  -5 1354.76   42.00
  -5  -1   5 1314.67   44.10
  -5  -1   5 1419.06   42.00
  -5  -1   5 1375.26   40.40
  -5  -1   5 1376.66   43.90
  -5  -1   5 1339.07   42.60
   5  -1  -5 1398.76   42.70
   5  -1  -5 1358.96   45.10
   5  -1  -5 1335.47   42.50
  -5   1   5 1411.96   42.60
   5   1  -5 1308.67   42.10
  -5   1   5 1345.87   43.90
  -5   1   5 1353.96   42.80
   5   1  -5 1322.87   44.50
  -5   1   5 1320.17   44.80
   5   1  -5 1380.86   42.40
   5   1  -5 1378.26   41.10
  -5   1   5 1367.76   41.90
  -5   1   5 1342.87   40.90
   5   1  -5 1313.57   41.00
  -5   1   5 1395.36   41.50
   5   1  -5 1411.86   42.00
  -4  -1   5 1700.63   49.30
   4  -1  -5 1633.14   52.49
   4  -1  -5 1726.13   50.49
  -4  -1   5 1712.63   50.09
  -4  -1   5 1728.53   50.59
  -4  -1   5 1627.34   50.89
  -4  -1   5 1783.42   51.39
   4  -1  -5 1622.84   50.29
   4  -1  -5 1742.43   50.19
  -4  -1   5 1643.24   52.09
  -4  -1   5 1676.83   51.79
   4  -1  -5 1759.42   51.39
   4  -1  -5 1614.04   50.79
   4   1  -5 1719.23   50.69
   4   1  -5 1607.64   50.49
   4   1  -5 1542.35   49.90
  -4   1   5 1726.63   50.49
   4   1  -5 1660.53   49.90
   4   1  -5 1665.13   51.69
  -4   1   5 1638.94   50.99
  -4   1   5 1619.84   52.29
  -4   1   5 1669.73   51.59
  -4   1   5 1777.92   51.49
  -4   1   5 1745.43   50.99
   4   1  -5 1632.54   52.19
  -4   1   5 1685.33   49.80
  -3  -1   5  361.36   12.20
   3  -1  -5  348.87   11.80
  -3  -1   5  349.67   11.60
  -3  -1   5  333.37   14.80
   3  -1  -5  331.57   13.30
  -3  -1   5  331.87   13.30
  -3  -1   5  334.97   14.40
   3  -1  -5  340.47   11.40
   3  -1  -5  351.76   12.40
   3  -1  -5  338.27   12.60
   3  -1  -5  331.77   15.40
  -3  -1   5  344.37   11.20
   3  -1  -5  339.17   14.10
   3   1  -5  336.37   11.20
  -3   1   5  339.07   11.60
   3   1  -5  341.87   12.00
  -3   1   5  349.07   11.50
  -3   1   5  318.07   15.20
   3   1  -5  337.97   11.60
   3   1  -5  342.67   14.70
  -3   1   5  315.97   13.20
  -3   1   5  326.67   13.40
   3   1  -5  319.77   12.90
  -3   1   5  350.16   14.00
   3   1  -5  334.67   11.30
  -3   1   5  342.07   11.00
  -2  -1   5 5912.21  166.58
  -2  -1   5 5979.50  167.48
   2  -1  -5 5832.32  166.58
  -2  -1   5 5433.96  166.68
   2  -1  -5 5993.40  167.48
  -2  -1   5 5687.83  167.08
   2  -1  -5 5668.13  167.08
  -2  -1   5 5551.94  167.48
   2  -1  -5 6011.90  166.68
  -2  -1   5 5827.92  166.78
   2  -1  -5 5552.44  166.48
   2  -1  -5 5354.06  167.48
   2  -1  -5 5648.23  166.68
   2   1  -5 5952.30  166.88
  -2   1   5 5504.55  167.58
   2   1  -5 5688.83  166.58
  -2   1   5 5567.94  166.68
  -2   1   5 6086.89  167.58
   2   1  -5 5564.14  166.78
  -2   1   5 5835.42  166.68
  -2   1   5 5659.03  166.88
   2   1  -5 5378.66  166.28
  -2   1   5 5788.22  166.88
   2   1  -5 5927.91  167.38
   2   1  -5 5718.73  167.58
   2   1  -5 5912.91  166.58
   1  -1  -5  341.57   10.80
   1  -1  -5  334.17   12.40
   1  -1  -5  309.97   12.50
   1  -1  -5  336.97   11.50
   1  -1  -5  338.07   10.50
  -1  -1   5  328.57   12.30
   1  -1  -5  340.67   13.80
  -1  -1   5  326.07   10.80
  -1  -1   5  323.57   13.60
  -1  -1   5  324.07   10.70
  -1  -1   5  309.97   12.50
  -1  -1   5  342.17   11.60
  -1   1   5  322.17   12.10
  -1   1   5  335.47   11.50
  -1   1   5  319.47   11.80
  -1   1   5  328.67   11.00
   1   1  -5  318.77   13.80
  -1   1   5  313.87   13.60
   1   1  -5  331.47   10.80
   1   1  -5  311.37   12.10
   1   1  -5  320.67   12.10
   1   1  -5  321.57   10.80
   1   1  -5  332.17   11.50
  -1   1   5  336.57   10.70
   0  -1  -5 2940.41   85.99
   0  -1   5 2910.81   87.79
   0  -1   5 2836.82   86.69
   0  -1  -5 2883.01   87.09
   0  -1  -5 2845.72   87.49
   0  -1   5 2882.31   86.59
   0  -1   5 3024.20   86.49
   0  -1   5 3008.30   86.59
   0  -1  -5 3026.40   87.29
   0  -1   5 3040.20   87.39
   0  -1  -5 2993.80   86.49
   0   1  -5 3047.30   86.59
   0   1   5 3031.30   86.89
   0   1   5 3068.59   87.29
   0   1  -5 2913.21   87.69
   0   1  -5 3073.59   87.49
   0   1  -5 2858.01   86.69
   0   1   5 3040.40   86.39
   0   1   5 2859.21   86.59
   0   1   5 2895.11   86.19
   0   1   5 2889.31   87.49
   1  -1   5 1606.34   51.19
  -1  -1  -5 1734.73   50.69
   1  -1   5 1557.44   50.09
  -1  -1  -5 1664.43   50.19
   1  -1   5 1774.02   50.89
   1  -1   5 1707.93   49.90
   1  -1   5 1736.23   49.40
  -1  -1  -5 1625.74   50.59
  -1  -1  -5 1729.63   49.90
  -1  -1  -5 1615.74   51.09
   1  -1   5 1748.13   49.90
   1   1   5 1616.64   51.09
   1   1   5 1698.43   50.59
  -1   1  -5 1612.64   50.19
   1   1   5 1625.94   50.09
  -1   1  -5 1606.14   51.09
  -1   1  -5 1637.74   50.29
   1   1   5 1673.93   49.10
   1   1   5 1713.43   50.19
  -1   1  -5 1800.22   50.99
   1   1   5 1714.33   49.70
  -1   1  -5 1776.82   49.99
   2  -1   5  706.13   23.20
  -2  -1  -5  710.43   23.20
  -2  -1  -5  716.13   24.50
  -2  -1  -5  743.93   23.10
   2  -1   5  741.33   25.00
  -2  -1  -5  710.23   23.90
   2  -1   5  746.33   22.00
  -2  -1  -5  734.03   22.30
  -2   1  -5  697.33   23.20
  -2   1  -5  691.83   23.40
  -2   1  -5  729.03   22.50
   2   1   5  705.23   23.00
  -2   1  -5  702.73   23.30
   2   1   5  600.64   24.40
   2   1   5  714.53   24.50
   2   1   5  731.53   23.20
   2   1   5  765.32   22.00
  -2   1  -5  781.92   23.50
  -2   1  -5  722.93   24.90
   3  -1   5 1585.04   49.90
   3  -1   5 1618.74   51.39
   3  -1   5 1767.92   49.70
   3  -1   5 1667.33   48.60
  -3  -1  -5 1634.34   50.49
  -3  -1  -5 1754.82   49.40
   3  -1   5 1703.63   50.59
  -3  -1  -5 1622.54   50.99
  -3  -1  -5 1619.44   49.80
  -3  -1  -5 1752.52   50.39
  -3   1  -5 1598.74   49.99
  -3   1  -5 1508.05   53.69
  -3   1  -5 1620.84   49.99
   3   1   5 1684.53   49.00
  -3   1  -5 1569.84   48.80
   3   1   5 1590.74   51.09
  -3   1  -5 1709.93   49.40
   3   1   5 1577.94   49.60
  -3   1  -5 1607.74   51.39
   3   1   5 1695.33   50.09
  -3   1  -5 1786.02   50.69
   3   1   5 1649.44   48.40
   4  -1   5   50.29    4.30
  -4  -1  -5   53.99    3.50
  -4  -1  -5   52.59    4.10
   4  -1   5   50.39    9.80
   4  -1   5   46.60    7.10
  -4  -1  -5   61.79    9.30
  -4  -1  -5   55.09    7.20
  -4  -1  -5   51.79    3.90
   4  -1   5   51.09    3.00
   4  -1   5   59.39    3.40
  -4  -1  -5   45.20    2.00
  -4  -1  -5   45.50    7.50
  -4   1  -5   52.99    3.50
  -4   1  -5   55.69    5.30
  -4   1  -5   53.19    9.30
  -4   1  -5   57.59    7.40
  -4   1  -5   54.79    3.90
   4   1   5   52.59    3.10
   4   1   5   56.19    2.70
   4   1   5   49.60    8.50
   4   1   5   48.60    6.30
  -4   1  -5   52.59    6.90
   4   1   5   57.89    4.00
  -4   1  -5   53.69    4.50
   5  -1   5  660.93   24.50
   5  -1   5  633.84   22.00
   5  -1   5  661.53   20.80
  -5  -1  -5  640.84   26.80
  -5  -1  -5  654.33   21.10
  -5  -1  -5  672.63   21.70
  -5  -1  -5  622.14   20.50
   5  -1   5  653.93   20.70
  -5  -1  -5  651.83   26.00
   5  -1   5  659.83   28.20
  -5  -1  -5  647.54   24.40
   5   1   5  647.04   21.70
   5   1   5  638.44   26.90
   5   1   5  638.74   23.50
  -5   1  -5  681.83   21.70
  -5   1  -5  658.13   22.30
  -5   1  -5  645.54   25.30
  -5   1  -5  654.33   25.20
   5   1   5  675.33   20.50
   5   1   5  650.43   20.20
  -5   1  -5  662.73   21.10
  -5   1  -5  627.54   22.10
  -5   1  -5  636.64   27.40
  -6  -1  -5  246.08   10.30
   6  -1   5  234.98    8.70
   6  -1   5  244.48   18.30
  -6  -1  -5  246.38   20.60
  -6  -1  -5  226.38    9.10
   6  -1   5  224.18    8.80
  -6  -1  -5  225.68   18.70
  -6  -1  -5  215.98   11.90
   6  -1   5  231.68   23.60
  -6  -1  -5  239.08    9.50
  -6  -1  -5  240.28   30.80
  -6   1  -5  242.08   20.70
  -6   1  -5  231.48   10.50
  -6   1  -5  222.38   14.60
  -6   1  -5  243.48   10.70
   6   1   5  234.38    8.60
   6   1   5  244.28   23.20
  -6   1  -5  223.28   19.30
   6   1   5  220.48   16.60
  -6   1  -5  192.48   26.40
   6   1   5  210.08    8.20
  -6   1  -5  211.88    9.20
  -7  -1  -5   18.00   15.50
  -7  -1  -5   20.20    8.20
  -7  -1  -5    9.80   13.20
   7  -1   5   18.10   18.30
  -7  -1  -5   21.20    4.10
  -7  -1  -5   21.20   15.60
   7  -1   5   11.80    3.40
   7   1   5   28.00   17.60
   7   1   5   18.40   11.20
   7   1   5   21.70    2.50
   7   1   5   23.00    4.30
  -7   1  -5   19.00   13.40
  -7   1  -5   18.70   10.60
  -7   1  -5   16.00   13.80
  -7   1  -5   17.80   17.50
   8  -2  -5  190.28   33.10
  -8  -2   5  169.48   27.40
  -8  -2   5  138.59   17.50
  -8  -2   5  158.68    6.30
   8  -2  -5  162.58   17.40
  -8  -2   5  178.98   23.70
   8  -2  -5  192.48   23.70
  -8  -2   5  131.99    9.80
  -8   2   5  148.99    7.20
  -8   2   5  182.98   18.40
  -8   2   5  177.88   20.30
  -8   2   5  175.48   30.10
   8   2  -5  161.28   20.20
   8   2  -5  177.58   31.40
   7  -2  -5   13.60   16.90
  -7  -2   5   16.10   14.30
  -7  -2   5   18.20   13.80
   7  -2  -5   15.10   10.10
  -7  -2   5   13.30   13.60
  -7  -2   5   11.30    1.50
   7  -2  -5   13.20   11.80
   7   2  -5   10.00    2.10
  -7   2   5   21.50   16.10
  -7   2   5   10.90   12.10
  -7   2   5   11.50    2.00
  -7   2   5   17.50   13.20
   7   2  -5   10.90   14.00
   7   2  -5   12.80    9.20
  -6  -2   5  747.13   24.50
   6  -2  -5  768.12   25.30
  -6  -2   5  749.82   23.90
  -6  -2   5  759.32   22.70
   6  -2  -5  759.42   32.40
  -6  -2   5  741.53   27.30
   6  -2  -5  755.62   28.50
  -6  -2   5  753.82   29.90
  -6  -2   5  771.62   30.00
  -6  -2   5  781.72   25.30
   6  -2  -5  768.62   23.90
   6  -2  -5  755.22   27.30
  -6   2   5  656.53   24.20
  -6   2   5  750.22   24.00
  -6   2   5  729.43   28.10
   6   2  -5  742.13   26.00
  -6   2   5  739.33   29.70
   6   2  -5  740.83   30.00
   6   2  -5  717.63   23.90
  -6   2   5  771.42   32.10
  -6   2   5  781.82   25.10
   5  -2  -5   88.59   15.30
  -5  -2   5   86.69    4.90
  -5  -2   5   81.59    5.40
  -5  -2   5   85.49   13.50
   5  -2  -5   90.79    5.40
  -5  -2   5   85.79    4.80
   5  -2  -5   88.89    4.80
  -5  -2   5   76.09    9.40
  -5  -2   5   88.59   11.20
   5  -2  -5   80.99   11.00
   5  -2  -5   80.59   11.90
   5  -2  -5   97.89    5.20
  -5  -2   5   88.59    3.30
  -5   2   5   80.89   10.80
  -5   2   5   72.19    8.40
   5   2  -5   75.89    4.70
  -5   2   5   85.99    4.40
  -5   2   5  102.89   10.60
  -5   2   5   86.99    4.90
   5   2  -5   82.59    7.40
   5   2  -5   87.69    4.00
   5   2  -5   83.59   10.30
   5   2  -5   73.99    4.90
  -5   2   5   90.89    4.20
   5   2  -5   78.69   10.30
   4  -2  -5 1094.89   32.30
   4  -2  -5  995.50   33.60
  -4  -2   5 1007.70   34.50
   4  -2  -5 1029.50   35.40
   4  -2  -5 1022.30   33.20
  -4  -2   5 1034.00   34.50
   4  -2  -5 1100.59   33.60
  -4  -2   5 1068.69   33.20
   4  -2  -5 1081.39   32.60
  -4  -2   5 1091.39   32.30
  -4  -2   5 1006.30   33.30
  -4  -2   5 1099.79   32.60
   4   2  -5 1083.19   33.10
  -4   2   5 1098.89   32.30
   4   2  -5 1051.69   31.00
   4   2  -5 1005.40   32.60
  -4   2   5 1057.49   32.10
   4   2  -5 1093.69   32.10
  -4   2   5 1063.89   34.40
  -4   2   5 1014.20   33.60
   4   2  -5 1008.50   34.60
   4   2  -5 1129.39   33.40
  -4   2   5 1069.09   32.70
  -4   2   5 1033.30   35.20
  -4   2   5 1066.89   33.60
   3  -2  -5 1906.31   60.69
  -3  -2   5 1958.60   58.89
   3  -2  -5 2013.90   58.59
  -3  -2   5 2029.90   58.39
   3  -2  -5 1959.10   58.99
   3  -2  -5 2062.39   58.59
  -3  -2   5 2046.30   59.29
   3  -2  -5 1991.60   59.59
   3  -2  -5 1939.71   60.19
  -3  -2   5 1925.41   59.39
  -3  -2   5 1954.40   59.59
  -3  -2   5 1965.50   59.79
   3  -2  -5 1910.11   58.79
  -3   2   5 2079.59   59.69
  -3   2   5 1976.10   59.29
  -3   2   5 2029.50   58.89
   3   2  -5 2022.80   59.19
   3   2  -5 2034.00   58.29
  -3   2   5 1925.61   58.89
  -3   2   5 1931.51   60.19
   3   2  -5 1883.51   59.69
   3   2  -5 1813.52   57.19
  -3   2   5 2015.80   58.49
   3   2  -5 2043.00   58.99
   3   2  -5 1898.11   58.39
  -3   2   5 1986.40   58.39
   2  -2  -5  117.09    4.80
  -2  -2   5  107.39    8.50
   2  -2  -5  119.09    9.90
  -2  -2   5  115.79    9.20
  -2  -2   5  123.39    4.90
   2  -2  -5  114.99    8.00
  -2  -2   5  118.69    5.50
   2  -2  -5  115.49    5.60
  -2  -2   5  118.89    4.80
   2  -2  -5  120.29    9.10
   2  -2  -5  118.79    8.10
  -2  -2   5  117.09    9.70
  -2   2   5  115.69    4.80
   2   2  -5  124.89   10.10
  -2   2   5  114.09    9.90
   2   2  -5  123.39    3.90
   2   2  -5  118.19    7.30
   2   2  -5  115.19    7.90
  -2   2   5  118.39    7.90
   2   2  -5  127.49    4.80
  -2   2   5  116.59    8.20
  -1  -2   5 3714.63  106.59
   1  -2  -5 3715.23  106.29
   1  -2  -5 3686.23  106.49
   1  -2  -5 3571.64  106.89
  -1  -2   5 3523.05  106.79
  -1  -2   5 3596.74  107.09
  -1  -2   5 3672.13  106.49
  -1  -2   5 3682.73  107.49
   1  -2  -5 3484.65  107.19
   1  -2  -5 3648.54  107.69
   1  -2  -5 3602.84  106.79
   1  -2  -5 3749.43  107.39
  -1  -2   5 3587.94  107.69
  -1   2   5 3593.14  107.59
  -1   2   5 3577.14  106.59
   1   2  -5 3806.52  107.59
  -1   2   5 3704.73  106.49
  -1   2   5 3577.54  106.39
   1   2  -5 3614.54  107.69
   1   2  -5 3737.53  106.59
  -1   2   5 3799.12  107.39
   1   2  -5 3612.74  106.69
  -1   2   5 3830.22  107.09
   1   2  -5 3563.84  106.59
   0  -2  -5  657.13   22.90
   0  -2  -5  704.13   20.80
   0  -2   5  673.13   23.60
   0  -2  -5  713.73   21.40
   0  -2   5  704.83   22.30
   0  -2   5  646.34   22.30
   0  -2   5  729.63   21.50
   0  -2   5  703.23   21.40
   0  -2   5  667.13   22.50
   0  -2   5  726.03   21.40
   0  -2  -5  716.43   22.20
   0  -2  -5  689.63   23.30
   0   2   5  711.53   22.10
   0   2  -5  719.33   21.50
   0   2   5  681.83   22.00
   0   2  -5  717.53   22.50
   0   2   5  690.93   20.80
   0   2   5  730.03   21.30
   0   2   5  714.43   21.90
   0   2  -5  671.93   21.80
   0   2  -5  720.93   21.20
   0   2   5  702.23   23.40
   0   2  -5  644.24   23.40
   1  -2   5 1212.58   39.60
   1  -2   5 1307.97   38.00
   1  -2   5 1223.78   38.30
  -1  -2  -5 1294.97   38.50
   1  -2   5 1261.77   37.60
   1  -2   5 1259.27   37.50
  -1  -2  -5 1190.98   38.90
   1  -2   5 1299.77   38.80
  -1  -2  -5 1219.58   38.00
  -1  -2  -5 1219.78   39.10
  -1  -2  -5 1316.17   37.70
  -1   2  -5 1203.28   38.00
   1   2   5 1281.37   37.40
  -1   2  -5 1222.68   39.50
  -1   2  -5 1313.27   37.80
   1   2   5 1303.97   38.60
  -1   2  -5 1305.67   38.90
   1   2   5 1210.98   37.90
  -1   2  -5 1217.98   38.30
  -1   2  -5 1313.37   37.80
   1   2   5 1314.07   38.30
   1   2   5 1236.48   39.20
   2  -2   5 1213.28   37.90
   2  -2   5 1240.38   39.50
   2  -2   5 1251.87   36.90
  -2  -2  -5 1299.97   37.20
   2  -2   5 1201.88   39.40
  -2  -2  -5 1219.58   38.80
  -2  -2  -5 1239.08   37.70
  -2  -2  -5 1330.37   38.20
  -2  -2  -5 1199.38   38.60
   2  -2   5 1245.58   37.30
  -2   2  -5 1215.48   39.30
   2   2   5 1197.08   37.50
   2   2   5 1313.47   38.40
   2   2   5 1259.77   36.80
  -2   2  -5 1214.28   37.30
  -2   2  -5 1207.78   38.10
  -2   2  -5 1184.88   37.70
   2   2   5 1269.27   37.80
  -2   2  -5 1273.47   37.40
   2   2   5 1214.08   39.00
  -3  -2  -5  132.69    5.40
   3  -2   5  142.19    6.70
  -3  -2  -5  128.99   11.20
  -3  -2  -5  139.29    6.30
   3  -2   5  131.89   10.00
   3  -2   5  126.69   12.70
   3  -2   5  136.59    5.70
  -3  -2  -5  121.89   11.10
  -3  -2  -5  140.69    9.60
   3  -2   5  133.89    5.10
   3   2   5  132.59    5.90
   3   2   5  134.79    9.30
   3   2   5  130.09    4.40
  -3   2  -5  127.09   12.70
  -3   2  -5  131.59   10.50
  -3   2  -5  140.89    5.70
  -3   2  -5  136.19    6.00
  -3   2  -5  124.49    8.70
  -3   2  -5  137.99    6.80
  -3   2  -5  132.99    9.50
   3   2   5  129.09   11.80
   3   2   5  138.39    5.00
   4  -2   5  801.72   24.70
  -4  -2  -5  810.72   25.60
  -4  -2  -5  799.12   26.60
   4  -2   5  801.02   26.00
   4  -2   5  779.32   29.70
  -4  -2  -5  777.12   27.80
  -4  -2  -5  849.52   26.10
  -4  -2  -5  768.92   28.10
   4  -2   5  782.82   27.10
  -4   2  -5  801.52   24.90
  -4   2  -5  790.02   29.70
  -4   2  -5  763.52   26.70
  -4   2  -5  757.72   25.40
  -4   2  -5  795.72   27.10
   4   2   5  764.12   28.10
   4   2   5  832.02   24.00
   4   2   5  759.32   25.70
  -4   2  -5  774.62   26.70
   4   2   5  779.62   25.90
   4   2   5  751.42   23.60
  -4   2  -5  824.72   25.30
  -5  -2  -5  148.29    6.40
   5  -2   5  150.68    6.40
   5  -2   5  161.68    7.40
  -5  -2  -5  146.39   16.40
  -5  -2  -5  162.88    7.20
  -5  -2  -5  152.78   14.20
   5  -2   5  152.58   15.50
   5  -2   5  153.18   18.90
  -5  -2  -5  148.49   16.70
  -5  -2  -5  138.79    7.10
   5  -2   5  168.08    8.20
  -5   2  -5  148.99   12.50
   5   2   5  148.69   17.30
  -5   2  -5  154.48   16.00
  -5   2  -5  145.79    7.60
   5   2   5  139.49   12.20
   5   2   5  152.28    6.70
  -5   2  -5  140.99   14.90
   5   2   5  135.29    5.40
  -5   2  -5  142.29   18.20
  -6  -2  -5  233.98   10.00
   6  -2   5  265.67   19.80
   6  -2   5  242.18    9.40
   6  -2   5  250.37   24.80
  -6  -2  -5  263.27   18.90
  -6  -2  -5  278.87   32.00
  -6  -2  -5  262.77    9.60
  -6   2  -5  250.07   19.80
  -6   2  -5  263.07   16.80
  -6   2  -5  200.08   27.80
   6   2   5  247.78   16.10
   6   2   5  241.58   22.30
  -6   2  -5  266.17   11.50
   6   2   5  259.87    8.60
   7  -2   5   60.79   19.40
  -7  -2  -5   70.79   16.70
  -7  -2  -5   69.59   13.90
  -7  -2  -5   59.19   15.00
  -7  -2  -5   64.89    6.40
   7  -2   5   75.79   14.00
  -7  -2  -5   69.79    7.60
   7   2   5   74.49    4.10
  -7   2  -5   60.49   19.10
   7   2   5   65.09   10.70
  -7   2  -5   71.19   15.20
   7   2   5   70.09   17.40
  -7   2  -5   63.59    7.20
  -7   2  -5   61.69   14.20
  -7   2  -5   77.99   12.10
   7   2   5   56.69    3.70
  -8  -3   5   35.00   15.20
   8  -3  -5   31.90   16.50
  -8  -3   5   30.10   16.20
  -8  -3   5   44.10   19.00
  -8  -3   5   31.10    5.90
   8  -3  -5   29.70   14.80
  -8   3   5   21.00   17.00
   8   3  -5   40.40   19.50
   8   3  -5   31.00   10.30
  -8   3   5   35.40   20.40
  -8   3   5   36.40   19.40
  -7  -3   5  271.17   24.60
   7  -3  -5  254.07   21.60
  -7  -3   5  275.47   24.90
   7  -3  -5  260.47   23.00
  -7  -3   5  268.37   20.70
   7  -3  -5  257.17   34.10
  -7  -3   5  262.17   11.20
  -7  -3   5  254.07    8.40
  -7   3   5  242.88    9.80
  -7   3   5  261.07   26.70
   7   3  -5  262.77    9.30
  -7   3   5  266.87   26.70
   7   3  -5  254.07   15.90
   7   3  -5  249.68   24.80
  -7   3   5  252.87   23.30
   6  -3  -5   61.19    5.20
   6  -3  -5   50.99    9.60
   6  -3  -5   55.89   14.60
   6  -3  -5   56.59    4.30
  -6  -3   5   51.29    2.30
  -6  -3   5   47.10   11.00
  -6  -3   5   44.80   11.20
  -6  -3   5   47.50    4.30
  -6  -3   5   44.10    3.70
  -6  -3   5   46.10    9.40
   6  -3  -5   50.89   10.80
   6   3  -5   51.39    7.20
  -6   3   5   66.69   14.60
  -6   3   5   50.49    3.80
   6   3  -5   54.99   11.90
  -6   3   5   36.60    4.30
  -6   3   5   58.19   12.90
  -6   3   5   45.90   10.00
  -5  -3   5 1160.28   35.80
  -5  -3   5 1124.19   37.90
   5  -3  -5 1175.68   35.30
   5  -3  -5 1118.09   37.20
  -5  -3   5 1188.08   36.10
  -5  -3   5 1152.78   34.90
   5  -3  -5 1131.79   40.00
   5  -3  -5 1157.38   36.50
   5  -3  -5 1163.78   35.50
  -5  -3   5 1102.99   38.50
  -5  -3   5 1099.79   36.70
   5  -3  -5 1131.89   37.10
  -5   3   5 1148.79   35.10
   5   3  -5 1115.79   35.30
   5   3  -5 1182.48   34.50
  -5   3   5 1166.98   38.60
   5   3  -5 1164.98   35.90
   5   3  -5 1110.19   38.20
  -5   3   5 1142.59   40.10
  -5   3   5 1147.89   35.60
   5   3  -5 1125.89   35.80
  -5   3   5 1161.68   36.30
  -5   3   5 1137.49   37.30
  -5   3   5 1157.38   35.10
   4  -3  -5 1145.59   38.10
  -4  -3   5 1178.98   38.80
  -4  -3   5 1185.38   39.20
   4  -3  -5 1149.39   38.70
   4  -3  -5 1244.78   36.90
   4  -3  -5 1184.68   38.00
  -4  -3   5 1166.78   37.60
   4  -3  -5 1210.28   40.10
   4  -3  -5 1235.78   37.90
   4  -3  -5 1226.08   37.00
  -4  -3   5 1248.28   36.90
  -4  -3   5 1228.08   37.40
  -4  -3   5 1231.48   36.40
   4   3  -5 1230.98   37.40
   4   3  -5 1146.49   38.80
   4   3  -5 1218.08   37.30
  -4   3   5 1170.18   39.90
  -4   3   5 1245.88   37.80
   4   3  -5 1144.29   36.60
  -4   3   5 1188.88   38.00
  -4   3   5 1276.97   37.30
  -4   3   5 1185.98   36.60
  -4   3   5 1208.08   38.70
   4   3  -5 1253.97   36.20
  -4   3   5 1244.38   36.70
   3  -3  -5  503.75   18.40
   3  -3  -5  497.35   18.60
  -3  -3   5  483.25   19.10
   3  -3  -5  510.95   16.40
  -3  -3   5  507.45   18.10
   3  -3  -5  508.65   20.30
   3  -3  -5  532.95   16.50
   3  -3  -5  500.65   19.00
  -3  -3   5  494.75   19.40
  -3  -3   5  517.05   16.20
  -3  -3   5  517.35   17.10
   3   3  -5  517.45   16.00
   3   3  -5  481.35   18.90
   3   3  -5  528.05   17.00
  -3   3   5  496.05   18.80
  -3   3   5  496.25   18.00
  -3   3   5  499.05   20.20
   3   3  -5  530.05   17.00
   3   3  -5  491.15   17.00
  -3   3   5  532.55   16.40
  -3   3   5  521.65   16.80
  -3   3   5  513.25   16.50
  -3   3   5  534.55   17.50
   2  -3  -5 3129.39   94.59
   2  -3  -5 3067.29   93.59
   2  -3  -5 3150.08   94.19
  -2  -3   5 3073.49   93.59
  -2  -3   5 3162.28   94.49
  -2  -3   5 3236.18   93.19
   2  -3  -5 3106.69   93.79
   2  -3  -5 3310.87   94.29
  -2  -3   5 3249.57   94.19
  -2  -3   5 3294.37   93.29
  -2  -3   5 3153.78   94.29
   2  -3  -5 3327.77   93.39
   2  -3  -5 3275.57   93.99
  -2   3   5 3120.29   94.49
   2   3  -5 3115.19   93.09
  -2   3   5 3272.57   93.29
   2   3  -5 3163.18   94.39
  -2   3   5 3284.47   93.89
  -2   3   5 3301.07   94.29
  -2   3   5 3080.29   93.49
   2   3  -5 3141.89   93.19
   2   3  -5 3175.98   95.19
  -2   3   5 3096.19   93.39
   1  -3  -5    6.10    1.00
   1  -3  -5   14.50    4.60
   1  -3  -5    0.80    5.00
  -1  -3   5    5.80    4.20
  -1  -3   5    9.70    5.60
  -1  -3   5    5.60    1.10
  -1  -3   5    6.00    5.30
   1  -3  -5    7.30    5.10
   1  -3  -5    6.20    1.30
   1  -3  -5    5.60    4.40
  -1  -3   5    5.60    1.20
   1  -3  -5    8.50    1.70
  -1  -3   5    8.50    1.60
  -1   3   5   11.00    3.70
   1   3  -5    8.10    5.60
  -1   3   5    7.90    1.20
  -1   3   5    6.80    3.80
   1   3  -5    7.80    3.50
   1   3  -5   10.10    4.00
   1   3  -5   10.10    1.50
  -1   3   5    5.90    5.10
  -1   3   5    5.60    2.50
   0  -3   5 1406.26   41.10
   0  -3  -5 1380.56   40.80
   0  -3   5 1321.57   42.70
   0  -3  -5 1355.16   42.30
   0  -3  -5 1287.37   42.20
   0  -3  -5 1326.67   41.30
   0  -3   5 1394.26   40.70
   0  -3  -5 1359.76   40.20
   0  -3   5 1440.96   42.10
   0  -3   5 1336.77   41.50
   0  -3   5 1394.26   41.20
   0  -3  -5 1415.06   41.80
   0   3  -5 1347.87   40.90
   0   3   5 1429.96   40.70
   0   3   5 1340.47   40.80
   0   3   5 1305.17   42.50
   0   3   5 1409.66   42.40
   0   3   5 1356.16   41.00
   0   3  -5 1433.56   41.00
   0   3  -5 1368.46   42.80
   0   3   5 1387.76   40.30
   0   3  -5 1445.76   40.70
   1  -3   5 1872.81   58.39
  -1  -3  -5 1843.02   57.79
   1  -3   5 1852.11   57.09
   1  -3   5 1924.51   56.99
   1  -3   5 1980.30   57.79
   1  -3   5 1959.50   56.69
  -1  -3  -5 1847.52   57.89
  -1  -3  -5 1848.72   56.89
  -1  -3  -5 1949.51   56.79
  -1  -3  -5 1960.60   57.39
   1  -3   5 1920.91   56.29
   1   3   5 1963.90   56.19
  -1   3  -5 2042.80   56.79
   1   3   5 1877.61   56.39
  -1   3  -5 1881.31   58.39
  -1   3  -5 1875.31   57.19
   1   3   5 1898.31   55.79
  -1   3  -5 2035.70   56.69
  -1   3  -5 1829.72   56.59
   1   3   5 1863.01   57.89
   1   3   5 1963.70   57.29
  -1   3  -5 1980.40   57.89
  -2  -3  -5   48.20    3.40
  -2  -3  -5   44.30    6.20
  -2  -3  -5   45.50    6.40
   2  -3   5   47.50    3.10
   2  -3   5   39.70    7.40
  -2  -3  -5   46.30    2.80
  -2  -3  -5   50.59    5.10
   2  -3   5   50.79    3.90
   2  -3   5   45.90    5.60
   2  -3   5   50.69    2.80
  -2   3  -5   38.60    7.80
   2   3   5   35.30    2.90
   2   3   5   41.20    6.80
   2   3   5   41.90    4.30
  -2   3  -5   43.40    2.90
  -2   3  -5   35.20    3.40
   2   3   5   45.10    3.30
  -2   3  -5   40.90    5.30
  -2   3  -5   37.10    5.90
  -2   3  -5   36.10    4.70
   2   3   5   39.60    2.10
  -3  -3  -5 1563.14   52.29
   3  -3   5 1674.73   51.69
  -3  -3  -5 1746.63   51.29
   3  -3   5 1659.63   53.39
  -3  -3  -5 1678.83   52.49
   3  -3   5 1727.53   50.89
   3  -3   5 1725.73   50.49
   3  -3   5 1716.53   51.99
  -3  -3  -5 1623.94   52.19
  -3  -3  -5 1655.23   50.99
  -3   3  -5 1687.33   51.89
   3   3   5 1578.84   50.29
   3   3   5 1746.83   51.19
  -3   3  -5 1686.33   53.39
  -3   3  -5 1832.62   51.19
  -3   3  -5 1794.92   52.29
   3   3   5 1727.43   49.80
  -3   3  -5 1826.62   50.99
   3   3   5 1639.64   52.19
  -3   3  -5 1667.33   51.09
  -3   3  -5 1685.73   51.09
   4  -3   5   96.89    4.90
   4  -3   5   85.79    4.70
   4  -3   5   95.49    4.90
  -4  -3  -5   86.79    4.40
  -4  -3  -5   96.79    5.10
   4  -3   5   79.09    5.60
  -4  -3  -5   90.49   12.90
  -4  -3  -5   68.09    8.50
   4  -3   5   94.39   16.00
   4  -3   5   85.79   12.20
  -4  -3  -5   89.89   11.10
  -4   3  -5   94.59   13.00
   4   3   5  100.69    4.80
  -4   3  -5  100.09    5.90
  -4   3  -5   91.29    5.10
   4   3   5   85.29    3.30
   4   3   5   86.19   13.60
  -4   3  -5   92.59   10.50
   4   3   5   84.99    9.10
  -4   3  -5   90.69   15.60
  -4   3  -5   97.29    4.90
  -4   3  -5   89.99   10.80
   4   3   5   95.09    3.80
  -5  -3  -5  318.67   11.80
   5  -3   5  331.37   11.30
   5  -3   5  331.67   12.40
   5  -3   5  307.77   22.90
  -5  -3  -5  300.87   10.90
   5  -3   5  307.27   18.10
   5  -3   5  307.47   11.20
  -5  -3  -5  305.27   19.60
  -5  -3  -5  309.07   16.70
  -5  -3  -5  296.07   19.00
  -5   3  -5  300.97   12.60
   5   3   5  301.97   14.20
   5   3   5  316.27    9.90
   5   3   5  289.67   19.60
  -5   3  -5  300.07   17.30
  -5   3  -5  305.77   16.50
  -5   3  -5  310.57   18.90
   5   3   5  292.17   10.00
  -5   3  -5  306.97   22.50
   5   3   5  333.07   11.90
  -6  -3  -5  112.09    5.50
   6  -3   5   86.09   14.80
  -6  -3  -5   98.49    6.40
  -6  -3  -5  122.99   15.00
  -6  -3  -5  108.69   11.40
   6  -3   5   97.69   16.70
   6  -3   5  105.29    5.60
   6   3   5  100.09   12.40
   6   3   5  110.09   14.30
  -6   3  -5  108.09   13.10
   6   3   5  100.99    4.60
  -6   3  -5   85.49   20.00
   6   3   5  101.19    4.30
  -6   3  -5  118.99   16.80
  -6   3  -5  110.99   11.90
   7  -3   5   16.30   18.90
  -7  -3  -5   19.10   14.70
  -7  -3  -5   25.00   15.80
  -7  -3  -5   30.60   17.60
   7  -3   5   14.80   14.40
   7   3   5   19.20    8.80
   7   3   5   23.10   16.10
  -7   3  -5   29.40   18.90
  -7   3  -5   22.00   15.50
  -7   3  -5   23.30   13.00
  -8  -4   5  131.99   20.50
   8  -4  -5  108.49   17.20
  -8   4   5  115.99   21.80
  -8   4   5  119.99   19.30
  -7  -4   5   12.60   13.60
  -7  -4   5    1.80    3.20
   7  -4  -5   12.30   17.50
  -7  -4   5    3.50   14.00
   7  -4  -5    6.10   14.10
   7  -4  -5   14.40   13.60
  -7  -4   5    9.20   11.90
  -7   4   5    4.70   13.20
   7   4  -5   13.00    6.50
  -7   4   5   12.10   15.70
   7   4  -5   12.70   15.10
  -7   4   5   14.50   16.30
  -7   4   5    6.20   13.70
  -6  -4   5  360.26   29.20
  -6  -4   5  358.16   15.50
  -6  -4   5  416.66   22.60
   6  -4  -5  436.96   16.00
   6  -4  -5  479.25   17.90
  -6  -4   5  411.06   15.20
   6  -4  -5  434.06   22.60
   6  -4  -5  374.46   25.90
   6  -4  -5  434.86   27.10
  -6  -4   5  423.56   20.40
  -6  -4   5  429.16   14.20
  -6   4   5  442.56   26.60
  -6   4   5  414.06   23.90
   6   4  -5  400.46   13.10
   6   4  -5  418.76   15.80
  -6   4   5  422.96   14.50
   6   4  -5  415.56   23.20
  -5  -4   5   24.30    9.90
  -5  -4   5   26.10    3.70
  -5  -4   5   22.10    2.90
   5  -4  -5   19.40    8.80
  -5  -4   5   26.40    2.70
   5  -4  -5   23.50    3.90
  -5  -4   5   20.30    7.50
  -5  -4   5   25.80    9.00
   5  -4  -5   18.00    8.40
   5  -4  -5   19.40    2.70
   5  -4  -5   22.60   11.40
  -5   4   5   25.60    8.50
  -5   4   5   19.00    2.70
  -5   4   5   21.40    2.90
  -5   4   5   32.60   12.00
   5   4  -5   23.40    4.10
  -5   4   5   22.80    9.80
   5   4  -5   28.60    3.00
   5   4  -5   21.00    9.00
   5   4  -5   25.10    4.90
  -4  -4   5  644.54   20.10
   4  -4  -5  638.24   25.60
   4  -4  -5  621.74   23.20
   4  -4  -5  630.54   24.20
  -4  -4   5  626.34   22.60
  -4  -4   5  636.64   23.70
  -4  -4   5  635.44   24.90
  -4  -4   5  671.93   20.70
   4  -4  -5  660.93   20.60
   4  -4  -5  679.23   21.80
  -4  -4   5  646.14   21.10
   4  -4  -5  676.03   20.90
   4  -4  -5  626.84   23.50
  -4   4   5  638.04   20.90
   4   4  -5  639.14   23.70
   4   4  -5  663.23   21.30
   4   4  -5  597.64   20.30
  -4   4   5  638.54   24.40
   4   4  -5  619.04   20.40
   4   4  -5  639.54   20.90
  -4   4   5  617.84   22.90
  -4   4   5  631.24   25.30
  -4   4   5  674.23   20.60
  -4   4   5  650.63   20.70
  -4   4   5  667.23   21.50
   3  -4  -5 1055.49   30.70
   3  -4  -5  934.21   33.50
   3  -4  -5  996.00   32.70
  -3  -4   5  998.10   30.60
   3  -4  -5 1003.70   32.40
   3  -4  -5 1014.20   32.00
   3  -4  -5 1029.20   30.90
  -3  -4   5  996.40   32.50
  -3  -4   5 1047.00   31.40
  -3  -4   5 1009.20   33.30
  -3  -4   5  977.80   31.70
   3  -4  -5  990.70   33.50
  -3   4   5 1033.60   30.50
   3   4  -5  945.71   30.20
   3   4  -5  927.71   32.20
  -3   4   5 1035.90   31.10
  -3   4   5 1033.10   31.70
  -3   4   5  986.50   30.80
  -3   4   5  959.40   33.40
   3   4  -5 1037.60   29.90
  -3   4   5 1004.80   32.40
  -3   4   5  987.10   31.60
   3   4  -5 1008.80   31.30
   3   4  -5 1014.40   31.20
   2  -4  -5    4.80    1.20
  -2  -4   5    2.70    1.50
  -2  -4   5    2.80    5.00
   2  -4  -5    0.50    6.40
   2  -4  -5   -1.30    1.30
   2  -4  -5    1.40    4.90
  -2  -4   5    4.80    6.10
   2  -4  -5   -0.40    6.00
  -2  -4   5    1.70    1.10
  -2  -4   5    3.30    6.30
  -2  -4   5    1.10    1.10
   2  -4  -5   -0.90    1.50
   2  -4  -5    0.60    5.20
   2   4  -5    4.60    5.90
   2   4  -5    5.50    3.50
  -2   4   5    4.40    5.10
  -2   4   5    2.10    5.30
  -2   4   5    6.30    1.40
  -2   4   5    1.70    6.20
  -2   4   5    2.30    4.50
   2   4  -5    4.30    0.90
  -2   4   5   -0.60    1.10
  -1  -4   5 2960.80   89.59
   1  -4  -5 3167.48   88.99
   1  -4  -5 2842.52   89.99
  -1  -4   5 2889.21   90.69
  -1  -4   5 3055.19   88.99
   1  -4  -5 3028.50   89.59
   1  -4  -5 2953.00   90.29
   1  -4  -5 3013.30   90.49
  -1  -4   5 3070.69   90.79
   1  -4  -5 3066.89   90.19
  -1  -4   5 3066.89   90.49
  -1  -4   5 3117.29   90.29
   1  -4  -5 3208.18   90.19
  -1   4   5 3146.19   90.09
   1   4  -5 2978.80   89.19
   1   4  -5 3050.19   90.69
  -1   4   5 3100.69   89.09
   1   4  -5 3096.59   88.99
   1   4  -5 3045.20   88.49
  -1   4   5 2976.30   89.59
   1   4  -5 3162.58   90.39
  -1   4   5 2942.51   89.19
  -1   4   5 3251.87   90.09
  -1   4   5 3011.40   90.39
   0  -4  -5  940.51   28.80
   0  -4  -5  929.31   27.40
   0  -4  -5  898.01   29.00
   0  -4  -5  910.91   29.80
   0  -4   5  928.81   27.60
   0  -4  -5  926.71   30.00
   0  -4   5  931.41   29.20
   0  -4  -5  958.60   28.00
   0  -4  -5  900.61   30.10
   0  -4   5  897.31   29.10
   0  -4   5  894.11   30.60
   0  -4   5  919.11   29.60
   0   4  -5 1007.10   28.60
   0   4  -5  957.50   29.30
   0   4  -5  912.91   28.90
   0   4   5  909.11   28.10
   0   4  -5  889.41   30.50
   0   4   5  948.51   28.90
   0   4   5  923.81   29.80
   0   4   5  889.11   28.30
   0   4  -5  909.61   28.00
   0   4   5  966.90   28.80
   0   4  -5  964.20   27.80
   0   4   5  962.00   27.70
  -1  -4  -5 1057.09   31.40
   1  -4   5  997.60   34.10
  -1  -4  -5 1076.79   32.30
  -1  -4  -5 1011.70   32.20
   1  -4   5 1074.19   31.90
  -1  -4  -5  981.80   33.70
   1  -4   5 1061.09   32.80
   1  -4   5 1020.20   32.70
  -1  -4  -5 1027.70   33.30
  -1   4  -5 1073.89   31.70
  -1   4  -5 1108.69   33.00
   1   4   5 1073.79   32.20
   1   4   5 1021.40   31.30
   1   4   5 1091.99   32.50
  -1   4  -5 1011.70   32.60
   1   4   5 1086.69   32.20
  -1   4  -5  999.40   31.50
  -1   4  -5 1046.00   34.30
  -1   4  -5 1083.19   31.70
   1   4   5 1032.80   31.20
   1   4   5 1066.79   30.90
   2  -4   5 1023.10   30.40
   2  -4   5  968.80   33.40
   2  -4   5  961.20   30.40
   2  -4   5  985.30   31.60
   2  -4   5  973.50   31.70
  -2  -4  -5 1027.90   30.60
  -2  -4  -5  958.20   32.40
  -2  -4  -5  970.10   30.70
  -2  -4  -5 1021.90   29.90
  -2  -4  -5  960.60   31.80
  -2   4  -5  982.30   31.80
  -2   4  -5  985.00   30.60
   2   4   5  995.20   30.50
  -2   4  -5 1025.40   31.50
   2   4   5 1004.60   28.90
  -2   4  -5 1024.20   30.20
   2   4   5  990.30   28.90
  -2   4  -5  959.40   30.30
   2   4   5 1001.90   30.40
  -2   4  -5  979.50   33.60
  -2   4  -5  957.10   31.40
   3  -4   5  246.28    8.80
   3  -4   5  245.38   14.20
   3  -4   5  212.48   10.00
  -3  -4  -5  248.38    9.10
  -3  -4  -5  246.88   12.10
   3  -4   5  247.28   17.20
   3  -4   5  257.97   10.10
  -3  -4  -5  228.98   13.80
  -3  -4  -5  241.88   15.10
  -3   4  -5  239.58   14.20
  -3   4  -5  241.08   11.30
   3   4   5  249.78    8.90
  -3   4  -5  254.27   17.20
   3   4   5  247.38    9.10
  -3   4  -5  250.97   13.30
  -3   4  -5  253.57    9.00
  -3   4  -5  237.28    9.10
  -3   4  -5  236.08   11.40
  -4  -4  -5  434.16   19.80
  -4  -4  -5  463.05   15.60
   4  -4   5  496.55   17.40
  -4  -4  -5  454.65   18.30
   4  -4   5  467.05   23.90
  -4  -4  -5  458.15   21.30
   4  -4   5  459.75   19.80
   4  -4   5  456.05   15.10
   4  -4   5  448.96   15.60
  -4  -4  -5  470.25   15.00
   4   4   5  470.25   15.40
  -4   4  -5  471.65   15.40
  -4   4  -5  479.05   23.70
  -4   4  -5  439.16   18.00
  -4   4  -5  450.85   19.90
  -4   4  -5  436.56   18.90
  -4   4  -5  447.16   15.70
  -4   4  -5  464.75   17.10
   5  -4   5  105.29    7.30
   5  -4   5  129.79    6.70
   5  -4   5  113.79   16.50
  -5  -4  -5   95.29   11.90
  -5  -4  -5  108.29   16.00
  -5  -4  -5  113.79    5.80
  -5  -4  -5  117.69   14.60
   5  -4   5   96.99   14.60
  -5  -4  -5  110.59    5.70
   5   4   5  122.89   17.00
   5   4   5  130.59    6.30
  -5   4  -5  109.29   14.70
  -5   4  -5  122.59   16.50
   5   4   5  106.19    4.00
  -5   4  -5  108.49   14.20
  -5   4  -5  114.39   15.30
  -5   4  -5  115.79    6.90
  -6  -4  -5   62.79    4.50
  -6  -4  -5   70.19   11.10
  -6  -4  -5   77.79   15.30
   6  -4   5   73.79   13.00
   6  -4   5   60.39   28.60
  -6   4  -5   73.19   12.80
  -6   4  -5   72.69   11.40
  -6   4  -5   81.29   12.30
  -6   4  -5   63.19   16.50
   6   4   5   50.19    3.70
   6   4   5   66.89   13.10
  -7  -4  -5   81.29   19.50
  -7  -4  -5   62.79   15.70
   7  -4   5   72.59   21.60
  -7  -4  -5   67.19    6.70
   7  -4   5   73.29   16.30
  -7   4  -5   65.89   20.90
   7   4   5   60.69   17.20
  -7   4  -5   79.79   17.00
  -7   4  -5   71.79   15.20
  -7   4  -5   89.59   15.60
   7  -5  -5  182.18   24.70
  -7  -5   5  212.68   28.90
   7  -5  -5  200.48   31.90
  -7  -5   5  211.68   23.30
  -7  -5   5  191.48   21.50
  -7  -5   5  203.78   10.10
  -7  -5   5  189.78    9.10
   7  -5  -5  218.08   26.30
  -7   5   5  191.08   30.30
  -7   5   5  195.38   26.90
  -7   5   5  203.78   24.60
   7   5  -5  204.48   26.20
   6  -5  -5   54.39   12.50
  -6  -5   5   49.99   12.70
  -6  -5   5   30.90    4.10
  -6  -5   5   53.39   11.60
   6  -5  -5   62.59   22.00
  -6  -5   5   36.80    4.10
   6  -5  -5   54.59   17.00
  -6  -5   5   45.90   10.30
  -6  -5   5   36.80    3.80
   6  -5  -5   48.40    5.70
  -6   5   5   38.90   12.00
  -6   5   5   37.50   12.70
  -6   5   5   54.19   16.30
  -6   5   5   59.89   12.60
   6   5  -5   52.19   12.00
  -5  -5   5  695.33   22.60
   5  -5  -5  710.33   22.80
   5  -5  -5  692.43   27.30
  -5  -5   5  691.93   25.40
   5  -5  -5  712.73   23.80
   5  -5  -5  725.23   31.00
  -5  -5   5  709.03   29.20
  -5  -5   5  694.83   26.40
  -5  -5   5  727.03   22.10
  -5  -5   5  682.23   22.80
   5  -5  -5  694.63   27.00
   5   5  -5  673.53   26.60
  -5   5   5  737.23   31.40
  -5   5   5  701.73   28.50
  -5   5   5  707.23   28.30
   5   5  -5  622.14   22.90
  -5   5   5  659.83   23.70
   5   5  -5  671.03   23.20
  -5   5   5  722.93   23.30
  -5   5   5  695.33   22.60
  -5   5   5  737.83   23.60
  -5   5   5  698.03   26.50
  -4  -5   5 1078.49   37.70
   4  -5  -5 1089.09   37.10
  -4  -5   5 1152.18   34.70
   4  -5  -5 1147.39   35.60
  -4  -5   5 1124.49   33.70
  -4  -5   5 1091.09   35.30
   4  -5  -5 1109.89   36.70
   4  -5  -5 1102.39   38.50
   4  -5  -5 1138.39   34.70
   4  -5  -5 1122.49   34.40
  -4  -5   5 1105.69   36.30
  -4  -5   5 1125.69   34.40
   4  -5  -5 1122.79   37.00
  -4   5   5 1059.99   34.80
  -4   5   5 1141.19   38.90
  -4   5   5 1095.49   34.50
  -4   5   5 1111.49   36.00
  -4   5   5 1095.79   37.30
  -4   5   5 1113.59   37.30
  -4   5   5 1149.78   34.00
   4   5  -5 1022.20   39.20
  -4   5   5 1130.99   35.20
   4   5  -5 1141.69   34.60
  -3  -5   5  144.49   14.20
  -3  -5   5  141.69    5.40
  -3  -5   5  134.09   11.10
  -3  -5   5  133.99    6.20
   3  -5  -5  133.99    7.50
  -3  -5   5  131.39   11.80
   3  -5  -5  142.69   14.10
   3  -5  -5  137.09   11.50
   3  -5  -5  127.99   12.60
   3  -5  -5  146.29    5.90
   3  -5  -5  142.49    5.90
   3  -5  -5  138.09   12.80
  -3   5   5  140.79    6.70
  -3   5   5  137.89   11.00
  -3   5   5  158.58    6.40
  -3   5   5  133.89   13.90
  -3   5   5  132.89   12.60
   3   5  -5  142.39    4.50
   3   5  -5  144.59    6.20
  -3   5   5  140.79    5.60
  -3   5   5  138.19    6.10
   2  -5  -5 1766.92   51.99
  -2  -5   5 1719.63   50.59
  -2  -5   5 1697.43   52.59
  -2  -5   5 1650.83   51.49
   2  -5  -5 1757.42   50.99
   2  -5  -5 1706.33   51.79
   2  -5  -5 1666.63   52.49
   2  -5  -5 1681.03   52.89
  -2  -5   5 1833.42   52.29
   2  -5  -5 1723.33   52.49
  -2  -5   5 1737.63   51.69
  -2  -5   5 1708.53   53.19
   2  -5  -5 1624.04   51.59
  -2   5   5 1650.13   52.79
   2   5  -5 1711.83   49.99
   2   5  -5 1753.12   51.69
  -2   5   5 1678.33   52.19
  -2   5   5 1774.42   51.99
  -2   5   5 1781.62   51.69
   2   5  -5 1641.44   50.19
  -2   5   5 1668.93   51.19
  -1  -5   5    6.40    1.60
   1  -5  -5    7.80    5.90
   1  -5  -5   10.80    2.00
  -1  -5   5    9.40    7.00
   1  -5  -5   12.10    5.10
   1  -5  -5   11.30    6.10
   1  -5  -5   11.00    1.40
  -1  -5   5   15.00    1.50
   1  -5  -5    7.90    5.90
  -1  -5   5    9.00    5.10
  -1  -5   5   15.00    6.90
   1  -5  -5   12.80    1.70
  -1  -5   5   10.70    2.10
  -1   5   5    8.10    4.20
  -1   5   5   14.20    6.40
   1   5  -5   11.80    4.00
  -1   5   5    8.20    1.50
   1   5  -5   12.10    1.20
   1   5  -5   12.80    6.70
  -1   5   5   10.40    5.10
  -1   5   5   10.90    1.20
   1   5  -5    8.50    1.90
   1   5  -5   10.50    1.30
   0  -5  -5 1003.60   29.00
   0  -5   5  958.50   28.80
   0  -5  -5  959.00   32.00
   0  -5   5 1005.50   29.80
   0  -5   5 1004.00   30.20
   0  -5  -5 1007.30   29.40
   0  -5   5  957.30   32.40
   0  -5  -5 1023.00   30.30
   0  -5   5  950.70   30.70
   0  -5  -5  935.81   31.20
   0  -5   5 1007.20   30.70
   0  -5  -5  953.10   30.40
   0  -5  -5  980.60   31.80
   0   5   5  990.30   30.50
   0   5   5  943.11   29.20
   0   5  -5  940.31   30.20
   0   5  -5  942.51   32.30
   0   5  -5 1009.10   30.70
   0   5   5 1002.00   28.80
   0   5   5  984.90   30.20
   0   5  -5  983.00   29.30
   0   5   5  954.30   30.20
   0   5  -5  997.30   29.30
   0   5   5  947.11   30.20
   1  -5   5  826.12   29.60
   1  -5   5  846.32   26.80
   1  -5   5  898.71   27.50
  -1  -5  -5  858.61   26.80
  -1  -5  -5  858.11   26.00
  -1  -5  -5  820.42   27.30
   1  -5   5  850.81   27.80
   1  -5   5  837.12   27.50
   1  -5   5  881.21   27.50
  -1  -5  -5  816.62   29.20
  -1  -5  -5  865.01   28.20
   1   5   5  876.11   26.60
  -1   5  -5  847.32   29.70
  -1   5  -5  849.22   25.40
   1   5   5  870.21   26.70
  -1   5  -5  858.11   27.80
   1   5   5  910.01   27.30
  -1   5  -5  899.81   27.60
   1   5   5  843.62   26.50
  -1   5  -5  893.71   26.40
  -1   5  -5  889.01   26.30
  -1   5  -5  836.72   28.50
   2  -5   5  149.79   12.20
  -2  -5  -5  163.68    6.70
   2  -5   5  161.78    6.80
  -2  -5  -5  163.78   11.60
   2  -5   5  166.38   14.30
   2  -5   5  151.58   11.90
   2  -5   5  163.48    7.70
   2  -5   5  160.48    6.90
  -2  -5  -5  165.08   10.30
  -2  -5  -5  150.18   13.40
  -2  -5  -5  169.38    6.10
  -2   5  -5  161.58   12.60
  -2   5  -5  172.68    6.40
  -2   5  -5  170.08   12.40
  -2   5  -5  168.28    6.70
   2   5   5  167.08    6.60
  -2   5  -5  165.48    8.80
  -2   5  -5  171.58   15.30
   2   5   5  175.98    6.60
  -2   5  -5  173.38    8.20
   3  -5   5  648.74   24.30
  -3  -5  -5  616.14   23.50
  -3  -5  -5  649.24   20.70
   3  -5   5  678.53   22.10
   3  -5   5  643.64   21.00
   3  -5   5  641.44   26.90
  -3  -5  -5  653.03   25.70
   3  -5   5  659.53   23.90
   3  -5   5  652.93   20.90
  -3  -5  -5  628.04   21.10
  -3  -5  -5  637.64   22.10
  -3   5  -5  661.73   22.10
  -3   5  -5  659.03   24.20
  -3   5  -5  667.53   21.20
  -3   5  -5  659.93   27.00
   3   5   5  668.63   20.80
  -3   5  -5  686.23   20.80
  -3   5  -5  637.54   23.90
   3   5   5  652.93   20.50
  -3   5  -5  606.54   21.30
  -4  -5  -5   72.89   10.50
  -4  -5  -5   70.99    5.00
   4  -5   5   86.79   10.20
   4  -5   5   78.59    4.30
  -4  -5  -5   74.09    7.70
  -4  -5  -5   79.39    4.00
  -4  -5  -5   70.49    9.00
   4  -5   5   93.99    5.40
   4  -5   5   76.49   13.00
   4  -5   5   85.99   10.40
  -4   5  -5   65.09   12.50
   4   5   5   76.89    4.00
  -4   5  -5   66.49    9.20
  -4   5  -5   67.59    4.30
  -4   5  -5   81.69    5.60
  -4   5  -5   75.19   10.00
  -4   5  -5   76.39   10.40
  -4   5  -5   79.99    4.40
   4   5   5   81.29    4.20
   5  -5   5  325.97   11.80
  -5  -5  -5  274.17    9.90
   5  -5   5  290.77   26.90
   5  -5   5  248.28   24.40
  -5  -5  -5  278.17   10.50
  -5  -5  -5  268.97   18.90
  -5  -5  -5  281.37   17.40
  -5   5  -5  284.37   12.00
  -5   5  -5  274.07   19.30
   5   5   5  294.97   10.20
  -5   5  -5  272.97   16.40
   5   5   5  275.67   10.20
  -5   5  -5  275.97   25.40
  -5   5  -5  284.87   20.00
  -6  -5  -5   84.99    5.50
   6  -5   5   91.89   19.90
  -6  -5  -5  106.59    5.50
  -6  -5  -5   69.19   14.20
   6  -5   5   93.19   14.60
  -6  -5  -5   87.09   12.10
  -6   5  -5   84.69   14.50
  -6   5  -5  102.29   19.70
  -6   5  -5   97.69   12.00
  -6   5  -5   91.79   13.90
  -7  -5  -5   24.20   15.10
  -7  -5  -5   49.80   22.70
  -7  -5  -5   29.90   19.20
   7  -5   5   23.50   22.70
   7  -5   5   36.90   17.70
  -7   5  -5   29.20   22.30
  -7   5  -5   34.10   17.80
  -7   5  -5   36.80   17.00
   7   5   5   12.40   17.00
  -7   5  -5   36.00   15.10
   7  -6  -5    1.10   16.80
  -7  -6   5    3.00   13.40
  -7  -6   5   -1.30   13.50
  -7  -6   5    4.20   18.30
   7  -6  -5    4.70   16.80
  -7   6   5  -14.50   20.10
   7   6  -5   -4.60   15.50
  -7   6   5    9.20   16.00
  -7   6   5   -0.70   14.90
   6  -6  -5  327.87   29.60
  -6  -6   5  343.17   11.60
   6  -6  -5  325.17   25.30
   6  -6  -5  339.77   13.70
  -6  -6   5  312.57   20.70
   6  -6  -5  342.47   24.40
  -6  -6   5  316.27   26.60
  -6  -6   5  305.27   12.00
  -6  -6   5  305.77   12.10
  -6   6   5  342.17   26.20
  -6   6   5  323.87   29.20
  -6   6   5  344.87   23.80
  -5  -6   5   64.49    9.30
   5  -6  -5   58.39    5.30
  -5  -6   5   56.39    4.20
  -5  -6   5   60.69   13.10
  -5  -6   5   45.40    4.10
   5  -6  -5   60.89   16.00
  -5  -6   5   54.29    9.60
   5  -6  -5   51.99    4.60
  -5  -6   5   58.09    3.60
   5  -6  -5   48.30   12.00
   5   6  -5   57.89    3.50
  -5   6   5   66.29    4.20
   5   6  -5   61.09    4.00
  -5   6   5   80.79   13.50
  -5   6   5   68.29   10.70
  -5   6   5   47.60    4.30
  -5   6   5   71.39   14.50
  -5   6   5   48.70    3.70
  -4  -6   5  384.26   22.10
   4  -6  -5  415.36   15.00
   4  -6  -5  395.76   20.40
  -4  -6   5  417.06   14.30
   4  -6  -5  414.16   13.90
   4  -6  -5  409.86   20.90
   4  -6  -5  404.66   22.60
  -4  -6   5  397.06   13.70
   4  -6  -5  397.66   14.10
   4  -6  -5  394.06   19.40
  -4  -6   5  402.66   18.50
  -4  -6   5  388.16   18.00
  -4  -6   5  420.46   13.30
   4   6  -5  412.26   13.70
  -4   6   5  415.76   13.60
  -4   6   5  401.36   14.20
  -4   6   5  409.36   18.70
   4   6  -5  396.46   15.20
  -4   6   5  444.16   23.60
  -4   6   5  414.06   14.40
  -4   6   5  415.56   20.90
  -3  -6   5  497.35   16.70
   3  -6  -5  506.75   16.50
   3  -6  -5  500.05   20.40
   3  -6  -5  481.45   16.70
   3  -6  -5  513.95   17.70
   3  -6  -5  500.65   21.00
  -3  -6   5  495.15   19.80
  -3  -6   5  486.95   19.40
  -3  -6   5  496.85   17.30
   3  -6  -5  489.35   22.10
  -3  -6   5  495.35   15.90
   3  -6  -5  489.35   21.40
  -3  -6   5  489.75   22.90
  -3   6   5  525.95   16.90
  -3   6   5  486.55   19.10
   3   6  -5  511.65   16.30
   3   6  -5  512.75   16.80
  -3   6   5  497.35   17.40
  -3   6   5  486.75   21.10
  -3   6   5  506.65   16.90
  -3   6   5  503.85   22.60
  -3   6   5  509.25   16.10
  -2  -6   5   27.20    7.40
   2  -6  -5   38.70    8.30
  -2  -6   5   29.10    3.30
  -2  -6   5   34.80    2.40
   2  -6  -5   28.20    3.30
  -2  -6   5   38.50    9.80
   2  -6  -5   37.80    2.80
   2  -6  -5   23.40    7.20
   2  -6  -5   25.50    2.50
   2  -6  -5   32.70    6.80
  -2  -6   5   29.00    2.20
  -2  -6   5   29.70    6.30
  -2  -6   5   31.30    3.10
   2  -6  -5   34.10    7.90
  -2   6   5   25.80    6.90
   2   6  -5   26.50    2.80
  -2   6   5   20.90    3.10
  -2   6   5   20.30    7.60
   2   6  -5   27.80    2.70
  -2   6   5   34.60    5.60
  -2   6   5   39.10    3.30
   1  -6  -5 1114.59   32.90
  -1  -6   5 1069.79   32.10
  -1  -6   5 1113.79   33.80
   1  -6  -5 1041.80   35.40
  -1  -6   5 1056.89   35.70
  -1  -6   5 1084.19   32.90
   1  -6  -5 1055.19   35.10
   1  -6  -5 1064.59   35.70
   1  -6  -5 1140.29   33.80
   1  -6  -5 1117.89   32.70
  -1  -6   5 1061.49   36.50
  -1  -6   5 1088.19   33.70
   1  -6  -5 1082.49   34.20
  -1  -6   5 1068.39   34.10
   1   6  -5 1080.89   35.90
   1   6  -5 1077.29   32.40
  -1   6   5 1143.59   33.80
  -1   6   5 1009.80   33.10
   1   6  -5 1109.79   32.40
  -1   6   5 1111.19   33.70
  -1   6   5 1096.69   32.90
   1   6  -5 1111.69   32.00
  -1   6   5 1071.19   35.00
   1   6  -5 1137.99   33.80
  -1   6   5 1079.99   34.60
   0  -6   5  327.97   14.50
   0  -6   5  330.57   12.40
   0  -6  -5  324.67   14.70
   0  -6  -5  337.37   10.90
   0  -6  -5  335.47   16.30
   0  -6   5  320.27   17.00
   0  -6   5  342.17   11.90
   0  -6  -5  327.57   11.60
   0  -6  -5  297.77   11.80
   0  -6   5  333.87   13.40
   0  -6  -5  308.77   16.60
   0  -6   5  329.37   11.30
   0  -6  -5  324.37   14.10
   0   6   5  344.07   12.00
   0   6  -5  345.77   10.80
   0   6   5  340.07   11.50
   0   6  -5  325.97   13.00
   0   6   5  334.57   11.40
   0   6   5  325.17   13.90
   0   6  -5  338.97   10.60
   0   6  -5  352.56   12.20
   0   6  -5  318.07   16.50
  -1  -6  -5  553.44   17.00
   1  -6   5  560.24   18.40
   1  -6   5  540.45   20.30
   1  -6   5  521.35   22.30
  -1  -6  -5  550.24   16.40
   1  -6   5  538.05   18.50
  -1  -6  -5  543.05   22.20
  -1  -6  -5  520.75   22.10
   1  -6   5  531.45   19.70
  -1  -6  -5  557.74   17.80
  -1  -6  -5  527.35   19.60
   1  -6   5  551.84   17.70
  -1   6  -5  566.64   18.60
  -1   6  -5  551.34   22.70
  -1   6  -5  558.64   17.40
  -1   6  -5  558.34   17.10
   1   6   5  546.95   17.60
   1   6   5  523.55   18.60
   1   6   5  588.34   18.60
   1   6   5  573.64   18.40
  -1   6  -5  531.35   21.40
   2  -6   5  667.43   21.70
   2  -6   5  639.34   26.50
  -2  -6  -5  670.33   20.60
  -2  -6  -5  663.83   21.10
  -2  -6  -5  643.94   26.10
   2  -6   5  662.43   24.30
  -2  -6  -5  651.73   22.60
   2  -6   5  666.53   21.50
   2  -6   5  643.64   24.20
   2  -6   5  687.13   23.10
  -2  -6  -5  673.83   23.30
  -2   6  -5  677.53   24.30
  -2   6  -5  677.63   27.00
  -2   6  -5  682.73   22.50
  -2   6  -5  669.03   24.90
   2   6   5  693.33   21.00
  -2   6  -5  693.23   21.40
  -2   6  -5  695.63   22.10
   3  -6   5  329.37   11.50
   3  -6   5  329.77   11.60
   3  -6   5  316.97   18.30
  -3  -6  -5  313.27   10.90
  -3  -6  -5  319.67   14.80
  -3  -6  -5  306.67   11.00
   3  -6   5  339.27   12.50
  -3  -6  -5  315.77   15.70
   3  -6   5  323.67   21.00
   3  -6   5  334.07   17.20
  -3  -6  -5  311.87   19.50
  -3   6  -5  312.57   11.00
  -3   6  -5  322.67   21.40
  -3   6  -5  314.77   17.70
   3   6   5  321.17   10.70
  -3   6  -5  329.27   11.60
  -3   6  -5  337.77   18.20
  -3   6  -5  304.27   12.70
  -4  -6  -5  331.97   11.60
  -4  -6  -5  354.66   22.40
  -4  -6  -5  343.57   16.50
   4  -6   5  350.86   12.80
  -4  -6  -5  330.17   18.00
   4  -6   5  344.87   21.90
  -4  -6  -5  339.67   11.60
   4  -6   5  350.56   24.70
   4  -6   5  363.26   14.00
   4  -6   5  354.06   20.60
   4  -6   5  343.47   12.40
  -4   6  -5  337.77   19.90
  -4   6  -5  320.47   15.00
  -4   6  -5  339.57   12.40
  -4   6  -5  346.27   25.00
  -4   6  -5  351.46   19.60
   4   6   5  348.27   11.40
  -5  -6  -5   42.40   10.20
  -5  -6  -5   42.40   13.30
   5  -6   5   32.60   12.60
   5  -6   5   54.29    5.90
   5  -6   5   40.30   12.20
   5  -6   5   43.50    4.00
  -5  -6  -5   33.10    3.50
  -5  -6  -5   33.60    9.60
   5  -6   5   30.40   15.80
  -5   6  -5   34.80    8.50
  -5   6  -5   33.70   16.00
   5   6   5   41.40    3.10
  -5   6  -5   21.40   15.00
  -5   6  -5   29.70   12.10
  -6  -6  -5   43.70   21.20
   6  -6   5   38.40   17.20
   6  -6   5   35.10   19.80
  -6  -6  -5   41.70   12.50
  -6  -6  -5   45.80    4.60
   6  -6   5   39.70   15.40
  -6  -6  -5   53.59   18.10
  -6  -6  -5   49.30    4.10
  -6   6  -5   46.10   15.40
  -6   6  -5   44.80   15.50
  -6   6  -5   48.60   11.50
  -6   6  -5   48.50   19.80
   6  -7  -5   15.20    4.20
  -6  -7   5   28.40   11.60
   6  -7  -5   23.30   15.60
  -6  -7   5   23.30   16.60
   6  -7  -5   23.20   15.60
  -6  -7   5   17.90    2.60
  -6   7   5   18.00   19.00
  -6   7   5   15.20   13.30
  -6   7   5   25.40   15.50
   5  -7  -5  355.86   24.00
   5  -7  -5  347.87   27.10
   5  -7  -5  340.87   24.10
  -5  -7   5  343.47   26.60
  -5  -7   5  335.57   12.20
  -5  -7   5  342.67   19.20
   5  -7  -5  347.67   14.60
  -5  -7   5  316.57   12.10
  -5  -7   5  326.37   18.80
  -5  -7   5  349.96   11.60
  -5   7   5  343.57   27.20
  -5   7   5  340.27   11.70
   5   7  -5  330.97   11.90
  -5   7   5  327.17   12.20
  -5   7   5  328.47   24.20
  -5   7   5  335.87   21.20
   4  -7  -5  495.45   23.70
  -4  -7   5  488.45   16.10
  -4  -7   5  498.75   15.80
   4  -7  -5  509.85   16.50
   4  -7  -5  501.75   23.10
  -4  -7   5  502.85   26.00
   4  -7  -5  518.55   33.00
   4  -7  -5  489.65   17.50
  -4  -7   5  473.35   16.40
  -4  -7   5  497.45   20.70
  -4  -7   5  463.35   17.10
  -4  -7   5  467.05   20.80
   4  -7  -5  490.95   16.60
  -4   7   5  521.25   16.60
  -4   7   5  521.95   16.80
  -4   7   5  446.06   27.00
   4   7  -5  463.65   16.30
  -4   7   5  477.55   21.00
  -4   7   5  524.85   26.90
  -4   7   5  468.05   17.40
   3  -7  -5   24.70   10.60
   3  -7  -5   22.70    3.00
  -3  -7   5   22.10   10.80
   3  -7  -5   30.50    8.70
  -3  -7   5   24.30    7.70
   3  -7  -5   32.80    3.20
  -3  -7   5   16.80    2.90
   3  -7  -5   24.60    8.60
  -3  -7   5   26.20    7.60
   3  -7  -5   21.60    3.40
   3  -7  -5   22.00    9.60
  -3   7   5   34.60   10.80
  -3   7   5   19.20    2.80
  -3   7   5   33.60   10.30
  -3   7   5   32.10    2.40
   3   7  -5   25.40    2.90
  -3   7   5   27.30    2.70
  -3   7   5   24.40    7.00
  -2  -7   5 1215.08   37.90
  -2  -7   5 1229.58   38.60
  -2  -7   5 1239.08   42.40
   2  -7  -5 1210.78   40.80
  -2  -7   5 1229.58   39.90
   2  -7  -5 1247.28   38.60
   2  -7  -5 1209.78   40.70
  -2  -7   5 1193.78   38.90
   2  -7  -5 1247.68   37.60
  -2  -7   5 1237.38   37.30
  -2  -7   5 1234.58   36.80
   2  -7  -5 1213.78   40.30
   2  -7  -5 1300.37   37.60
   2  -7  -5 1216.28   39.50
  -2   7   5 1255.87   40.90
  -2   7   5 1240.48   37.10
   2   7  -5 1255.57   38.00
  -2   7   5 1253.47   40.40
  -2   7   5 1296.47   38.40
  -2   7   5 1215.28   37.80
   2   7  -5 1255.77   37.90
  -2   7   5 1261.47   38.50
  -1  -7   5   17.80    2.50
  -1  -7   5   22.60    2.90
   1  -7  -5   19.00    8.30
   1  -7  -5   27.20    7.60
  -1  -7   5   22.50    1.40
  -1  -7   5   19.00    8.30
   1  -7  -5   24.90    6.80
  -1  -7   5   21.70    6.40
  -1  -7   5   23.90    5.10
  -1  -7   5   22.60    9.30
   1  -7  -5   20.20    2.00
   1  -7  -5   25.60    9.20
  -1  -7   5   16.50    2.70
   1  -7  -5   16.40    2.80
  -1   7   5   17.90    2.80
   1   7  -5   16.20    2.70
   1   7  -5   19.30    2.80
  -1   7   5   26.30    8.00
   1   7  -5   17.50    1.60
  -1   7   5   20.00    2.40
  -1   7   5   19.30    7.60
   0  -7   5  844.52   28.50
   0  -7  -5  875.91   26.30
   0  -7  -5  849.61   28.80
   0  -7  -5  872.81   27.10
   0  -7  -5  846.92   30.50
   0  -7  -5  869.61   26.10
   0  -7   5  851.01   27.90
   0  -7   5  874.71   27.50
   0  -7   5  835.32   30.80
   0  -7   5  881.61   26.80
   0  -7  -5  852.71   28.20
   0  -7  -5  841.92   30.50
   0  -7   5  871.11   27.60
   0   7  -5  885.41   26.40
   0   7   5  912.81   27.60
   0   7  -5  825.32   30.50
   0   7   5  838.72   28.80
   0   7  -5  899.21   27.60
   0   7  -5  876.21   25.70
   0   7  -5  861.61   26.60
   0   7   5  861.41   26.80
   0   7   5  888.61   27.00
   1  -7   5  510.15   17.50
   1  -7   5  520.45   20.40
  -1  -7  -5  502.05   22.20
  -1  -7  -5  519.25   16.00
   1  -7   5  501.85   17.30
  -1  -7  -5  499.05   18.90
  -1  -7  -5  501.05   18.90
   1  -7   5  493.45   22.50
  -1  -7  -5  500.15   16.50
  -1  -7  -5  498.75   15.50
   1  -7   5  512.25   16.70
   1  -7   5  507.85   19.60
  -1  -7  -5  513.95   22.20
  -1   7  -5  499.55   23.00
   1   7   5  536.05   17.40
   1   7   5  498.35   18.90
  -1   7  -5  512.65   16.50
   1   7   5  528.65   16.50
  -1   7  -5  530.15   15.90
  -1   7  -5  519.15   22.00
  -1   7  -5  511.05   17.40
   2  -7   5   53.89    4.00
   2  -7   5   63.19    8.90
   2  -7   5   49.99    5.50
  -2  -7  -5   50.29   10.20
   2  -7   5   57.59    3.90
   2  -7   5   60.89   11.70
  -2  -7  -5   51.09   10.10
  -2  -7  -5   64.29    9.90
  -2  -7  -5   60.09    3.10
   2  -7   5   56.39    8.50
  -2  -7  -5   62.19    7.40
  -2   7  -5   52.49    3.60
  -2   7  -5   54.69    3.20
  -2   7  -5   45.60   10.80
  -2   7  -5   63.59    4.20
  -2   7  -5   55.09   10.30
   2   7   5   58.99    2.80
   2   7   5   54.39    3.00
  -2   7  -5   63.29    8.60
   3  -7   5  571.44   24.30
   3  -7   5  541.95   18.70
  -3  -7  -5  537.95   20.80
   3  -7   5  573.74   23.70
  -3  -7  -5  544.05   17.60
   3  -7   5  558.14   19.60
   3  -7   5  572.54   27.50
   3  -7   5  579.24   19.60
  -3  -7  -5  541.55   26.20
  -3  -7  -5  587.94   18.70
  -3  -7  -5  552.84   20.50
  -3   7  -5  587.04   28.10
  -3   7  -5  564.94   25.30
   3   7   5  554.54   17.40
  -3   7  -5  590.84   18.20
   3   7   5  551.14   17.40
  -3   7  -5  574.04   20.40
  -3   7  -5  566.64   24.20
  -4  -7  -5   21.90    3.70
   4  -7   5   39.90   15.70
   4  -7   5   26.60   13.20
   4  -7   5   29.80   11.80
  -4  -7  -5   30.60    8.30
  -4  -7  -5   37.50    8.00
   4   7   5   21.70    2.30
  -4   7  -5   31.20    3.50
  -4   7  -5   39.40   11.20
  -4   7  -5   18.20   17.10
  -4   7  -5   27.80    2.30
  -4   7  -5   39.20   15.50
  -4   7  -5   28.20    6.30
  -5  -7  -5  132.59    5.50
   5  -7   5  123.79   15.10
  -5  -7  -5  149.49   17.00
   5  -7   5  123.19   19.40
   5  -7   5  133.99   16.50
  -5  -7  -5  145.49   16.60
  -5  -7  -5  141.49   17.00
  -5  -7  -5  134.79    6.20
  -5   7  -5  158.18   23.00
  -5   7  -5  134.09   14.50
  -5   7  -5  122.69   15.50
  -5   7  -5  150.48   20.50
  -6  -7  -5   58.29   13.20
  -6  -7  -5   66.49    5.30
   6  -7   5   63.49   17.40
   6  -7   5   71.19   19.00
  -6  -7  -5   59.29   20.30
  -6  -7  -5   60.19   13.00
   6  -7   5   53.89   22.40
  -6   7  -5   63.49   17.40
  -6   7  -5   56.59   12.30
  -6   7  -5   49.80   22.20
  -6   7  -5   52.79   17.60
  -6  -8   5  136.09   20.30
   6  -8  -5  160.38   10.30
   6  -8  -5  137.39   19.60
   6  -8  -5  161.98   20.70
  -6  -8   5  150.78   21.90
  -6  -8   5  137.79    7.50
  -6   8   5  130.69   22.90
  -6   8   5  145.79   19.90
  -6   8   5  139.79   16.50
  -5  -8   5   41.10   15.60
  -5  -8   5   40.20    3.80
   5  -8  -5   39.00   14.70
  -5  -8   5   44.50   11.30
  -5  -8   5   49.00    9.90
   5  -8  -5   50.59    6.10
   5  -8  -5   36.10   13.80
  -5   8   5   46.00   12.10
   5   8  -5   29.20    3.70
  -5   8   5   37.10   17.30
  -5   8   5   40.00    4.50
  -5   8   5   56.49   16.80
  -4  -8   5  186.48    7.00
   4  -8  -5  196.38   20.50
  -4  -8   5  199.38   15.20
  -4  -8   5  168.68    7.20
  -4  -8   5  187.68   16.60
   4  -8  -5  171.68    7.80
   4  -8  -5  192.58   23.50
  -4  -8   5  176.78    7.70
   4  -8  -5  195.28   23.70
  -4  -8   5  188.78   24.90
   4  -8  -5  201.58    8.80
  -4   8   5  191.58   22.50
   4   8  -5  172.68    7.10
  -4   8   5  181.78    8.30
  -4   8   5  175.48   16.60
  -4   8   5  196.68   23.80
   4   8  -5  182.58    6.60
  -4   8   5  177.18    6.90
  -3  -8   5  324.47   17.60
   3  -8  -5  346.27   31.80
  -3  -8   5  353.66   36.90
  -3  -8   5  329.87   11.50
   3  -8  -5  326.47   12.70
   3  -8  -5  329.37   19.20
   3  -8  -5  315.87   23.00
   3  -8  -5  315.97   11.70
  -3  -8   5  320.17   16.90
   3  -8  -5  345.67   11.60
  -3  -8   5  320.07   12.60
  -3  -8   5  321.87   11.30
  -3  -8   5  322.07   11.10
   3  -8  -5  330.97   20.10
  -3   8   5  318.87   16.20
   3   8  -5  330.37   11.30
  -3   8   5  341.87   22.50
  -3   8   5  337.87   12.10
  -3   8   5  326.57   22.00
  -2  -8   5   21.00    1.80
  -2  -8   5   17.40   13.00
  -2  -8   5   21.90    2.70
   2  -8  -5   23.20    8.80
  -2  -8   5   21.00    2.60
  -2  -8   5   20.70    7.60
   2  -8  -5   10.60    9.20
  -2  -8   5   22.60    8.50
  -2  -8   5   18.20    2.70
   2  -8  -5   25.00    3.00
   2  -8  -5   16.20    9.80
   2  -8  -5   13.80    9.50
   2  -8  -5   15.80    2.90
   2  -8  -5   25.40    3.00
  -2   8   5   16.00    2.70
  -2   8   5   22.10    5.30
   2   8  -5   21.30    2.60
  -2   8   5   22.50   10.20
  -2   8   5   21.90   10.20
  -2   8   5   16.90    1.70
   1  -8  -5  699.73   20.90
   1  -8  -5  623.54   21.40
   1  -8  -5  675.23   21.60
  -1  -8   5  662.03   23.90
  -1  -8   5  648.74   22.10
  -1  -8   5  665.43   21.40
  -1  -8   5  674.23   20.90
  -1  -8   5  661.73   29.40
   1  -8  -5  662.83   24.20
   1  -8  -5  666.03   25.30
   1  -8  -5  657.23   26.10
   1  -8  -5  693.83   27.60
  -1  -8   5  663.73   26.10
   1   8  -5  666.43   20.80
  -1   8   5  668.53   21.70
   1   8  -5  672.63   21.40
   1   8  -5  647.64   21.40
  -1   8   5  660.23   25.90
  -1   8   5  658.53   21.40
  -1   8   5  607.64   22.30
   0  -8  -5  140.39    6.10
   0  -8   5  137.99   16.40
   0  -8   5  153.28   13.50
   0  -8  -5  152.28   17.90
   0  -8  -5  134.89    5.40
   0  -8  -5  143.69   12.50
   0  -8  -5  143.39   12.70
   0  -8   5  149.59    6.50
   0  -8  -5  129.69    6.00
   0  -8   5  138.69   12.10
   0  -8   5  143.69    6.20
   0  -8  -5  137.59   16.70
   0   8  -5  131.09    6.30
   0   8   5  138.09    6.40
   0   8   5  137.49   14.30
   0   8   5  146.39    5.90
   0   8  -5  133.39   16.30
   0   8  -5  141.19    5.40
  -1  -8  -5  190.78   13.10
  -1  -8  -5  191.18   12.20
  -1  -8  -5  187.28    6.50
   1  -8   5  187.68   14.70
   1  -8   5  206.88   15.40
   1  -8   5  187.88    8.20
  -1  -8  -5  185.58   18.20
   1  -8   5  186.68   18.70
  -1  -8  -5  164.98   18.20
   1  -8   5  190.88    7.70
  -1  -8  -5  167.48    8.00
  -1   8  -5  186.48   11.60
   1   8   5  193.08    6.70
  -1   8  -5  197.58    8.10
   1   8   5  201.18    7.00
  -1   8  -5  197.58    6.40
  -1   8  -5  196.28   19.00
   1   8   5  190.68   14.40
  -1   8  -5  189.08   18.70
  -1   8  -5  199.08    7.30
  -2  -8  -5  338.67   11.70
  -2  -8  -5  331.47   12.10
  -2  -8  -5  371.96   22.30
   2  -8   5  348.17   14.60
   2  -8   5  368.96   23.30
  -2  -8  -5  343.97   22.60
   2  -8   5  375.96   20.10
  -2  -8  -5  341.67   14.40
   2  -8   5  364.46   19.70
  -2  -8  -5  369.76   11.80
  -2  -8  -5  346.27   14.60
   2  -8   5  357.36   12.60
  -2   8  -5  328.67   34.10
  -2   8  -5  384.36   11.70
  -2   8  -5  365.36   18.60
  -2   8  -5  357.76   23.50
   2   8   5  380.26   12.30
  -2   8  -5  370.46   12.60
   2   8   5  359.26   11.20
  -3  -8  -5    1.20    1.30
   3  -8   5   -1.80   13.90
  -3  -8  -5    6.20   12.50
   3  -8   5   -0.20   11.30
   3  -8   5    3.70    4.20
  -3  -8  -5   -0.80    5.10
  -3  -8  -5    4.40    8.10
  -3  -8  -5    0.80    5.30
  -3  -8  -5   -0.80   12.00
   3  -8   5    5.80   10.40
   3   8   5    0.90    0.90
  -3   8  -5    1.50   10.30
  -3   8  -5    7.20   13.60
  -3   8  -5    3.70   12.20
  -3   8  -5    1.30    2.20
   4  -8   5  217.28   12.20
   4  -8   5  228.68   28.50
  -4  -8  -5  210.98    7.10
  -4  -8  -5  214.98    7.70
   4  -8   5  234.18   22.30
  -4  -8  -5  212.28   16.50
  -4  -8  -5  205.08   10.40
  -4  -8  -5  203.28   26.00
  -4  -8  -5  188.58   10.00
   4  -8   5  234.88   24.10
  -4   8  -5  221.78   24.80
  -4   8  -5  233.78   22.30
  -4   8  -5  211.38   28.20
   5  -8   5   39.60   17.40
   5  -8   5   47.40   21.30
  -5  -8  -5   39.50   18.20
  -5  -8  -5   34.20    6.40
  -5  -8  -5   33.60    4.00
   5  -8   5   33.00   15.90
  -5  -8  -5   34.10   11.30
  -5  -8  -5   32.80    7.50
  -5   8  -5   26.70   16.80
  -5   8  -5   30.70   15.70
  -5   8  -5   23.80    8.20
  -5   8  -5   31.60   20.30
  -5  -9   5   82.29    5.50
  -5  -9   5   90.89   11.10
  -5  -9   5   84.29   18.90
  -5  -9   5   92.79   13.00
   5  -9  -5   85.79   17.80
  -5  -9   5  110.79   15.20
   5  -9  -5   90.69   17.50
  -5   9   5   88.59   14.10
  -5   9   5  115.19   21.10
  -5   9   5   89.59   21.00
   4  -9  -5   82.99   14.60
   4  -9  -5   90.09    6.50
  -4  -9   5   77.79    4.70
   4  -9  -5  101.89   17.40
  -4  -9   5   90.59   11.70
  -4  -9   5   77.39   17.40
  -4  -9   5   82.99    9.30
  -4   9   5   81.19   16.90
  -4   9   5   87.49    5.80
  -4   9   5   76.59   10.90
   4   9  -5   83.39    3.90
  -4   9   5   94.09   17.10
  -3  -9   5   54.59    8.80
   3  -9  -5   45.00   11.90
  -3  -9   5   49.50    3.20
  -3  -9   5   53.89   10.60
   3  -9  -5   54.89    4.90
   3  -9  -5   57.49    4.50
   3  -9  -5   55.09   13.90
  -3  -9   5   51.19   15.90
   3  -9  -5   66.69   12.10
   3  -9  -5   53.99    4.60
  -3  -9   5   46.40    3.30
   3  -9  -5   52.59   13.00
  -3   9   5   49.30   13.50
  -3   9   5   47.60    2.80
  -3   9   5   50.79   13.80
  -3   9   5   55.99    8.20
  -3   9   5   43.10    4.50
   3   9  -5   54.79    3.20
  -2  -9   5  362.56   12.80
   2  -9  -5  375.96   13.80
  -2  -9   5  396.56   28.40
  -2  -9   5  392.36   13.10
  -2  -9   5  389.46   19.60
   2  -9  -5  395.16   24.80
   2  -9  -5  387.76   21.60
   2  -9  -5  396.76   21.00
  -2  -9   5  368.26   15.00
   2  -9  -5  394.86   13.90
   2  -9  -5  411.86   24.80
   2  -9  -5  408.16   13.40
  -2  -9   5  384.06   19.40
  -2  -9   5  379.06   11.80
  -2   9   5  372.96   13.50
   2   9  -5  360.16   12.70
  -2   9   5  390.96   23.60
  -2   9   5  376.56   22.80
   1  -9  -5    4.00    2.40
   1  -9  -5    5.10   11.00
  -1  -9   5    4.60    9.90
   1  -9  -5    2.50    1.90
   1  -9  -5    2.80   10.30
   1  -9  -5    6.10    1.80
  -1  -9   5    4.30   14.80
   1  -9  -5    7.50    9.40
  -1  -9   5    4.00    6.80
   1  -9  -5    8.70    8.90
  -1  -9   5    6.10    8.80
  -1  -9   5    3.30    2.00
  -1   9   5    7.80    2.00
   1   9  -5    6.20    1.60
   1   9  -5    8.20    1.90
  -1   9   5    5.90   10.50
   0  -9  -5  328.27   10.80
   0  -9  -5  312.97   16.90
   0  -9   5  316.27   11.70
   0  -9  -5  310.97   16.90
   0  -9   5  324.17   18.40
   0  -9  -5  289.07   20.80
   0  -9  -5  267.17   34.90
   0  -9   5  301.27   21.50
   0  -9   5  306.07   16.90
   0  -9   5  317.17   11.40
   0  -9  -5  323.67   10.80
   0  -9  -5  299.77   10.80
   0   9   5  306.97   10.70
   0   9  -5  293.57   11.00
   0   9  -5  301.77   10.50
   0   9  -5  285.17   21.80
   0   9   5  306.17   19.40
   0   9   5  317.67   11.60
   1  -9   5  230.48   17.60
   1  -9   5  237.88   24.40
   1  -9   5  242.88    9.20
   1  -9   5  227.38    8.90
   1  -9   5  237.28   18.20
  -1  -9  -5  227.38    7.80
  -1  -9  -5  219.28   21.10
  -1  -9  -5  214.48    8.00
  -1  -9  -5  227.28   15.10
  -1  -9  -5  224.28   13.50
  -1  -9  -5  248.48    8.80
  -1   9  -5  232.38   22.00
   1   9   5  228.08    8.50
  -1   9  -5  230.58    8.70
   1   9   5  219.08   17.30
   1   9   5  203.18    7.60
  -2  -9  -5   61.29   13.50
   2  -9   5   47.40    4.60
  -2  -9  -5   47.50    2.70
   2  -9   5   47.30   14.00
   2  -9   5   56.29   11.10
  -2  -9  -5   64.59    7.80
  -2  -9  -5   59.99    4.10
  -2  -9  -5   51.89    8.70
   2  -9   5   52.89   11.70
  -2  -9  -5   57.89   14.60
  -2   9  -5   43.40    4.10
  -2   9  -5   66.69   14.80
  -2   9  -5   57.59   14.70
  -2   9  -5   56.69    3.00
  -3  -9  -5  118.59   20.80
  -3  -9  -5  135.99    6.40
   3  -9   5  127.39   14.40
  -3  -9  -5  123.89   14.90
   3  -9   5  107.09   23.90
   3  -9   5  155.48    7.90
   3  -9   5  146.89   18.40
  -3  -9  -5  131.19   16.40
  -3   9  -5  139.99    5.80
  -3   9  -5  162.58   18.60
  -3   9  -5  111.99   17.30
  -3   9  -5  144.39   20.10
  -4  -9  -5   13.70   10.80
   4  -9   5    4.80   15.20
  -4  -9  -5    1.40    2.00
   4  -9   5   13.90   19.10
  -4  -9  -5    3.30   16.70
  -4  -9  -5    1.10   15.40
   4  -9   5    4.50   14.70
  -4   9  -5    2.90   19.30
  -4   9  -5    5.00   16.70
  -4   9  -5    7.90   13.80
   4 -10  -5   31.50   17.90
  -4 -10   5   48.90    7.00
  -4 -10   5   74.09   10.40
  -4 -10   5   60.19   21.80
  -4 -10   5   53.19   13.20
   4 -10  -5   52.39   16.70
   4 -10  -5   36.60   17.90
  -4  10   5   25.60   18.60
  -4  10   5   61.99   20.10
  -4  10   5   48.60   11.30
  -3 -10   5   61.09    4.70
   3 -10  -5   80.19   14.20
   3 -10  -5   76.09   16.60
  -3 -10   5   68.99   19.50
   3 -10  -5   66.59    7.10
  -3 -10   5   73.69   12.60
  -3 -10   5   86.79   13.80
  -3 -10   5   71.79    9.00
  -3 -10   5   77.39    3.90
  -3 -10   5   77.09   10.10
   3 -10  -5   79.39   14.20
  -3  10   5   67.09   16.80
  -3  10   5   58.59   16.00
  -2 -10   5    7.10    9.60
  -2 -10   5    6.70    7.10
   2 -10  -5    7.30   12.00
  -2 -10   5    8.00   10.60
  -2 -10   5   17.70    5.00
   2 -10  -5    0.90   13.90
   2 -10  -5    8.50    2.60
  -2 -10   5    6.60   18.80
   2 -10  -5    3.70   11.50
   2  10  -5   10.00    2.30
  -2  10   5    1.30   12.90
  -2  10   5    1.90    2.60
  -2  10   5    7.50   15.10
  -1 -10   5  202.68   29.60
   1 -10  -5  195.98    7.70
   1 -10  -5  205.58   25.00
   1 -10  -5  181.88   21.30
  -1 -10   5  198.08    7.50
  -1 -10   5  203.68   18.20
   1 -10  -5  212.28    7.90
  -1 -10   5  184.38    9.70
   1 -10  -5  206.38   18.80
  -1 -10   5  196.98   19.90
   1 -10  -5  193.58    8.00
  -1 -10   5  196.08   15.50
  -1  10   5  192.18    8.20
  -1  10   5  173.28    7.40
  -1  10   5  230.48   20.80
   0 -10  -5   40.00   14.70
   0 -10  -5   27.40    3.30
   0 -10   5   37.60   11.00
   0 -10  -5   29.20    3.70
   0 -10   5   38.10    5.40
   0 -10  -5   38.00    3.80
   0 -10  -5   40.20   12.90
   0 -10  -5   38.90   10.40
   0 -10   5   33.40   10.00
   0  10   5   30.20    3.30
   0  10  -5   32.50    3.40
   0  10   5   38.10   12.80
   0  10  -5   32.50    3.50
   0  10   5   40.60    3.20
  -1 -10  -5  102.09    5.00
   1 -10   5  108.19    8.00
  -1 -10  -5  124.99   16.00
   1 -10   5  114.39   13.00
  -1 -10  -5  110.19   16.00
  -1 -10  -5  106.59   11.80
   1 -10   5  123.39   12.50
   1 -10   5  118.89   15.80
  -1 -10  -5  126.29    4.80
  -1 -10  -5   88.09   14.40
  -1 -10  -5   92.19   10.80
   1  10   5  117.49   13.40
  -1  10  -5   99.69   15.30
  -1  10  -5  100.89    5.20
   1  10   5   88.39    4.60
  -2 -10  -5  118.69    4.90
   2 -10   5  113.29    7.20
  -2 -10  -5  120.09   16.10
  -2 -10  -5  106.59    4.50
  -2 -10  -5  105.59   22.70
  -2 -10  -5  111.59   16.30
   2 -10   5  115.29   14.20
  -2 -10  -5  123.69   16.80
   2 -10   5  114.29   15.20
   2 -10   5  111.99   17.70
  -2  10  -5  103.29   18.10
  -2  10  -5   98.19   17.40
   3 -10   5    0.60   15.20
   3 -10   5    3.80    4.40
  -3 -10  -5    2.40    7.60
  -3 -10  -5    5.70   17.40
  -3 -10  -5    4.10   15.30
   3 -10   5   11.00   14.90
   3 -10   5   -2.60   18.80
  -3  10  -5    8.00   18.50
  -3  10  -5    4.00   19.60
   2 -11  -5  127.09    8.40
  -2 -11   5  117.19   15.20
   2 -11  -5  124.69   15.90
  -2 -11   5  104.39    8.70
  -2 -11   5  124.89   14.50
   2 -11  -5  104.69   18.20
  -2 -11   5  107.39   22.20
  -2  11   5  138.19    6.80
  -2  11   5  112.49   18.70
   1 -11  -5    1.60    2.70
   1 -11  -5    1.50    2.80
  -1 -11   5    5.10   12.30
   1 -11  -5    0.30   12.60
   1 -11  -5   -1.20   12.00
  -1 -11   5  -10.10   19.60
  -1 -11   5    0.20    2.90
   1 -11  -5   -2.00   18.00
   1 -11  -5    5.10   14.20
  -1 -11   5   -1.70   10.60
  -1  11   5    3.30    3.50
  -1  11   5    0.20   16.10
   0 -11   5   61.69   12.70
   0 -11  -5   59.39   15.40
   0 -11  -5   59.99    9.90
   0 -11  -5   71.39   18.50
   0 -11   5   68.89   15.30
   0 -11  -5   66.29   12.20
   0 -11  -5   59.69    4.90
   0 -11  -5   74.79    5.60
   0 -11   5   66.09   13.80
   0 -11   5   50.79    5.40
   0  11  -5   73.19    4.40
   0  11   5   81.49   16.70
  -1 -11  -5   34.40   19.20
   1 -11   5   42.10   16.70
   1 -11   5   46.50   13.90
  -1 -11  -5   39.10   11.90
  -1 -11  -5   49.70   13.90
  -1 -11  -5   50.89   18.60
  -1  11  -5    2.70   17.70
   1  11   5   62.19   15.60
  -8   0   6   87.09   20.70
  -8   0   6   90.49    5.00
  -8   0   6   74.39   16.90
  -8   0   6   54.59   16.70
   8   0  -6   64.79   15.10
   8   0  -6   70.79   12.80
   8   0  -6   62.29   21.60
  -7   0   6  305.87   25.30
   7   0  -6  300.57   28.50
  -7   0   6  292.17   21.90
  -7   0   6  315.27   27.00
  -7   0   6  303.27   10.10
   7   0  -6  276.07   17.60
  -7   0   6  256.77   12.80
   7   0  -6  279.57   20.90
   6   0  -6  217.98   13.70
   6   0  -6  218.88   22.00
   6   0  -6  221.48   16.70
  -6   0   6  213.18    8.70
  -6   0   6  223.58   12.10
  -6   0   6  216.38    7.80
  -6   0   6  246.48   19.90
   6   0  -6  220.88    8.90
  -6   0   6  207.18   20.20
  -6   0   6  223.38   17.90
  -5   0   6  240.28   15.60
   5   0  -6  238.38   14.00
   5   0  -6  249.18    9.00
  -5   0   6  235.18   10.30
  -5   0   6  256.17    9.80
  -5   0   6  226.18   17.40
  -5   0   6  243.58   16.70
   5   0  -6  240.78   12.20
   5   0  -6  250.17    9.60
  -5   0   6  247.98    8.40
   5   0  -6  238.58   10.20
   5   0  -6  238.48   18.70
  -5   0   6  240.28    9.20
  -4   0   6 1549.94   49.80
  -4   0   6 1667.13   50.09
  -4   0   6 1627.94   50.59
   4   0  -6 1634.64   48.70
   4   0  -6 1652.33   49.20
   4   0  -6 1613.24   49.60
   4   0  -6 1687.93   50.29
  -4   0   6 1630.74   48.70
  -4   0   6 1569.04   51.29
  -4   0   6 1699.53   49.40
   4   0  -6 1591.34   48.60
   4   0  -6 1569.14   51.49
  -3   0   6    0.80    5.80
   3   0  -6    1.50    5.10
   3   0  -6    3.40    1.20
   3   0  -6    3.10    1.80
   3   0  -6    2.70    1.10
   3   0  -6   -1.20    6.60
   3   0  -6    1.10    6.10
  -3   0   6    4.70    1.80
  -3   0   6    1.70    6.80
  -3   0   6    0.50    1.90
  -3   0   6   -1.70    1.00
   3   0  -6    3.80    3.80
  -3   0   6    0.90    5.30
  -2   0   6 2692.93   82.99
  -2   0   6 2674.63   81.99
   2   0  -6 2835.12   82.59
   2   0  -6 2950.30   81.99
   2   0  -6 2642.74   81.29
   2   0  -6 2838.32   81.59
   2   0  -6 2674.43   82.19
   2   0  -6 2764.82   83.19
  -2   0   6 2898.81   82.69
   2   0  -6 2702.73   81.79
  -2   0   6 2817.02   81.49
  -2   0   6 2786.02   81.79
   1   0  -6 1477.05   43.30
  -1   0   6 1464.25   42.50
   1   0  -6 1414.26   44.30
  -1   0   6 1475.05   43.30
   1   0  -6 1324.37   43.00
  -1   0   6 1367.86   42.60
  -1   0   6 1393.46   44.20
   1   0  -6 1472.95   44.30
  -1   0   6 1320.27   42.80
   1   0  -6 1378.56   42.90
   1   0  -6 1424.36   42.10
   0   0  -6  922.31   28.10
   0   0   6  872.11   27.30
   0   0   6  871.71   27.70
   0   0  -6  874.11   29.50
   0   0  -6  850.21   28.20
   0   0   6  859.01   29.60
   0   0   6  899.71   28.10
   0   0   6  916.41   27.30
   0   0   6  878.81   28.00
  -1   0  -6 2639.84   75.39
   1   0   6 2539.35   74.59
   1   0   6 2638.34   75.69
  -1   0  -6 2735.13   76.69
  -1   0  -6 2486.05   75.89
   1   0   6 2496.05   75.69
   1   0   6 2681.03   76.59
   1   0   6 2468.85   74.89
  -1   0  -6 2463.85   75.59
  -1   0  -6 2500.75   76.89
   1   0   6 2478.35   76.99
  -2   0  -6  197.98    7.70
  -2   0  -6  192.68   11.50
  -2   0  -6  215.48    8.70
  -2   0  -6  200.68   13.60
   2   0   6  205.78    7.90
  -2   0  -6  195.18   11.40
   2   0   6  211.88    8.50
   2   0   6  201.88   13.40
   2   0   6  205.68    6.60
   2   0   6  210.68    7.50
   2   0   6  190.68   11.10
   3   0   6  485.95   14.80
   3   0   6  482.55   16.60
  -3   0  -6  486.75   16.00
  -3   0  -6  450.55   20.20
  -3   0  -6  467.75   18.30
   3   0   6  487.05   15.40
   3   0   6  462.65   17.70
  -3   0  -6  468.85   15.60
   3   0   6  466.25   20.80
  -3   0  -6  467.85   18.70
  -4   0  -6  413.16   15.90
  -4   0  -6  422.86   14.70
  -4   0  -6  410.56   18.80
   4   0   6  417.16   16.00
  -4   0  -6  422.66   14.70
   4   0   6  420.66   13.40
   4   0   6  402.06   21.30
  -4   0  -6  410.66   18.20
  -4   0  -6  414.06   21.00
   4   0   6  409.46   17.70
   4   0   6  439.06   14.00
  -5   0  -6   46.20    5.60
  -5   0  -6   53.39   10.60
  -5   0  -6   41.30    9.40
   5   0   6   35.20    3.40
   5   0   6   40.40   12.80
  -5   0  -6   48.80   12.30
   5   0   6   46.10    3.60
  -5   0  -6   44.70    4.00
   5   0   6   49.30    8.90
  -5   0  -6   59.69    5.00
  -6   0  -6  198.38   12.50
   6   0   6  235.08   10.10
   6   0   6  205.58    8.00
  -6   0  -6  204.08   26.90
   6   0   6  216.28   18.60
  -6   0  -6  237.08   24.80
   6   0   6  221.28   25.60
  -6   0  -6  217.48   10.20
  -7   0  -6    9.20   14.90
  -7   0  -6    6.50   18.40
  -7   0  -6   12.70   14.60
   7   0   6   23.20   20.00
   7   0   6    4.30    2.60
  -7   0  -6    8.50    9.00
   7   0   6   10.60   13.20
   7   0   6    3.50    2.40
  -8  -1   6  260.17    9.40
   8  -1  -6  239.18   23.20
   8  -1  -6  266.57   26.80
  -8  -1   6  214.78   12.60
  -8  -1   6  285.97   32.00
  -8  -1   6  247.28   31.90
  -8  -1   6  248.78   28.10
   8  -1  -6  252.87   36.10
  -8   1   6  255.37   31.90
  -8   1   6  267.77    9.80
  -8   1   6  272.37   33.80
   8   1  -6  266.37   35.10
  -8   1   6  253.27   29.20
  -7  -1   6   73.79    3.80
  -7  -1   6   72.39   14.00
   7  -1  -6   81.89   10.90
  -7  -1   6  103.59   17.00
  -7  -1   6   78.39   12.80
   7  -1  -6   88.39   18.70
   7  -1  -6   69.59   13.20
   7   1  -6   72.79   11.40
  -7   1   6   78.79   13.40
  -7   1   6   70.19   14.30
  -7   1   6   93.79   17.40
   7   1  -6   83.69    9.30
  -7   1   6   82.99    4.50
  -7   1   6   61.69    7.20
   7   1  -6   80.69   16.90
  -6  -1   6  215.58   19.90
  -6  -1   6  226.58    7.90
  -6  -1   6  228.48   10.40
  -6  -1   6  245.18   18.30
  -6  -1   6  225.58   19.60
   6  -1  -6  238.38   18.00
   6  -1  -6  233.38    9.70
   6  -1  -6  240.28   21.80
  -6  -1   6  230.78    8.90
   6  -1  -6  234.38   15.10
   6  -1  -6  238.58   10.20
  -6  -1   6  222.68    9.50
   6   1  -6  234.08   21.80
  -6   1   6  219.48   10.50
   6   1  -6  237.78    8.60
  -6   1   6  237.78    8.50
   6   1  -6  227.38   16.50
  -6   1   6  232.08   20.40
  -6   1   6  227.18   17.50
   6   1  -6  235.28   12.90
  -6   1   6  211.98   21.70
  -5  -1   6  729.13   26.70
   5  -1  -6  760.32   24.90
  -5  -1   6  714.33   28.50
  -5  -1   6  745.83   24.20
   5  -1  -6  733.23   29.70
  -5  -1   6  767.22   24.90
   5  -1  -6  744.63   23.60
   5  -1  -6  738.83   24.20
  -5  -1   6  722.63   23.50
   5  -1  -6  732.63   25.20
   5  -1  -6  713.93   26.60
  -5  -1   6  726.73   28.20
  -5   1   6  735.13   29.00
   5   1  -6  738.03   24.10
  -5   1   6  795.52   25.30
  -5   1   6  765.42   23.10
  -5   1   6  753.32   24.50
  -5   1   6  734.83   27.00
   5   1  -6  772.02   23.40
   5   1  -6  736.63   23.80
   5   1  -6  739.53   28.80
  -5   1   6  760.82   28.30
  -5   1   6  762.62   23.90
   5   1  -6  728.73   25.70
   5   1  -6  717.83   24.90
   4  -1  -6   53.29    3.20
   4  -1  -6   40.60    3.30
   4  -1  -6   48.40    4.20
  -4  -1   6   47.30    4.90
  -4  -1   6   52.19    8.80
   4  -1  -6   47.00    5.90
   4  -1  -6   39.90    9.00
  -4  -1   6   42.70    6.80
   4  -1  -6   48.20    7.30
  -4  -1   6   53.29    3.60
  -4  -1   6   47.10    3.20
  -4  -1   6   40.70    8.40
  -4   1   6   37.20    4.10
  -4   1   6   50.29    9.20
   4   1  -6   39.10    8.70
  -4   1   6   39.30    6.90
   4   1  -6   48.90    6.60
   4   1  -6   46.30    3.60
   4   1  -6   42.20    3.10
  -4   1   6   37.90    3.10
  -4   1   6   55.89    8.40
  -4   1   6   51.39    4.20
   4   1  -6   43.00    6.30
   4   1  -6   41.90    4.00
   3  -1  -6 2605.54   78.69
  -3  -1   6 2601.54   79.19
  -3  -1   6 2541.05   79.69
   3  -1  -6 2729.73   78.39
  -3  -1   6 2562.54   78.69
  -3  -1   6 2738.23   79.29
   3  -1  -6 2611.84   79.19
   3  -1  -6 2675.03   78.19
   3  -1  -6 2592.14   78.19
  -3  -1   6 2686.33   78.69
   3  -1  -6 2773.82   79.39
   3  -1  -6 2608.34   80.09
  -3  -1   6 2743.53   78.49
   3   1  -6 2746.03   78.59
   3   1  -6 2731.33   78.19
   3   1  -6 2561.94   78.99
  -3   1   6 2745.03   78.19
  -3   1   6 2705.93   79.09
  -3   1   6 2723.13   78.69
  -3   1   6 2786.82   79.49
  -3   1   6 2574.54   79.99
   3   1  -6 2521.05   79.69
   3   1  -6 2732.23   79.19
   3   1  -6 2518.75   77.39
   3   1  -6 2587.24   78.39
  -3   1   6 2551.34   78.69
   2  -1  -6  824.22   27.10
  -2  -1   6  801.52   26.60
  -2  -1   6  832.52   25.40
   2  -1  -6  806.72   26.50
  -2  -1   6  825.62   27.00
  -2  -1   6  829.32   28.20
   2  -1  -6  810.02   26.00
   2  -1  -6  828.72   25.60
   2  -1  -6  776.32   27.90
   2  -1  -6  850.51   25.40
  -2  -1   6  845.42   26.40
   2   1  -6  802.02   26.40
  -2   1   6  815.42   28.20
  -2   1   6  849.12   26.60
   2   1  -6  829.02   28.30
  -2   1   6  866.31   25.90
  -2   1   6  838.42   26.70
   2   1  -6  828.82   26.80
   2   1  -6  844.82   26.40
   2   1  -6  823.02   26.50
  -2   1   6  818.22   26.60
  -2   1   6  846.62   25.40
   2   1  -6  832.72   25.30
   2   1  -6  801.42   26.10
  -1  -1   6 1932.51   54.49
   1  -1  -6 1766.92   55.09
  -1  -1   6 1838.12   56.09
   1  -1  -6 1872.21   54.89
  -1  -1   6 1825.52   54.79
  -1  -1   6 1880.41   54.39
  -1  -1   6 1811.82   54.89
   1  -1  -6 1844.22   54.39
   1  -1  -6 1862.41   56.09
   1  -1  -6 1886.41   54.09
  -1  -1   6 1921.91   55.39
   1  -1  -6 1974.40   55.39
   1   1  -6 1904.01   54.39
   1   1  -6 1807.32   54.69
  -1   1   6 1763.92   54.39
  -1   1   6 1828.92   56.09
  -1   1   6 1541.55   55.59
  -1   1   6 1775.22   54.69
  -1   1   6 1775.92   55.49
   1   1  -6 1776.12   54.79
   1   1  -6 1810.02   56.09
   0  -1   6 3464.25  103.59
   0  -1  -6 3696.33  103.19
   0  -1  -6 3445.96  102.79
   0  -1   6 3561.74  102.19
   0  -1  -6 3434.06  103.49
   0  -1   6 3432.06  102.19
   0  -1   6 3653.53  103.19
   0  -1   6 3446.66  102.39
   0  -1   6 3203.88  102.69
   0   1   6 3467.85  103.49
   0   1  -6 3463.45  103.59
   0   1  -6 3683.63  103.49
   0   1   6 3396.76  102.29
   0   1   6 3688.33  102.39
   0   1  -6 3350.06  102.29
   0   1   6 3410.66  101.69
  -1  -1  -6   18.90    5.30
   1  -1   6   24.90    1.90
  -1  -1  -6   23.80    6.50
   1  -1   6   23.80    5.10
   1  -1   6   27.00    2.30
   1  -1   6   26.10    4.50
  -1  -1  -6   21.90    2.30
  -1  -1  -6   27.90    5.20
   1  -1   6   21.30    4.40
   1  -1   6   30.00    2.50
  -1  -1  -6   26.10    3.20
   1  -1   6   24.70    7.00
   1   1   6   27.20    5.40
   1   1   6   33.20    7.40
   1   1   6   28.30    4.30
  -1   1  -6   28.10    3.60
   1   1   6   20.50    2.50
  -1   1  -6   28.30    2.40
  -1   1  -6   24.20    6.70
   1   1   6   31.20    2.40
  -1   1  -6   24.50    5.60
  -1   1  -6   28.50    5.50
   1   1   6   26.70    3.00
  -2  -1  -6 1701.93   53.19
   2  -1   6 1751.42   51.89
  -2  -1  -6 1653.73   54.39
   2  -1   6 1747.23   54.99
   2  -1   6 1822.42   53.89
  -2  -1  -6 1804.42   52.69
  -2  -1  -6 1860.21   53.89
   2  -1   6 1702.03   53.19
   2  -1   6 1779.42   52.69
  -2  -1  -6 1664.43   53.79
  -2   1  -6 1849.71   53.09
  -2   1  -6 1829.82   54.49
   2   1   6 1752.22   53.19
  -2   1  -6 1765.02   54.89
   2   1   6 1724.23   54.59
   2   1   6 1846.82   53.19
   2   1   6 1776.42   53.19
  -2   1  -6 1761.02   53.59
   2   1   6 1840.82   53.69
  -2   1  -6 1710.63   53.39
   3  -1   6  512.15   19.30
   3  -1   6  530.05   18.20
  -3  -1  -6  535.35   17.10
  -3  -1  -6  543.15   18.20
   3  -1   6  537.65   17.00
  -3  -1  -6  510.75   19.30
  -3  -1  -6  490.65   21.10
   3  -1   6  525.35   16.10
   3  -1   6  506.95   22.30
  -3  -1  -6  510.45   20.50
   3   1   6  498.65   21.60
   3   1   6  514.55   17.10
  -3   1  -6  509.35   22.10
   3   1   6  532.95   16.00
   3   1   6  548.25   18.00
  -3   1  -6  562.54   19.40
  -3   1  -6  538.45   17.10
  -3   1  -6  508.55   19.70
  -3   1  -6  514.45   19.80
  -3   1  -6  547.85   17.50
   3   1   6  502.75   19.00
  -4  -1  -6  272.47   15.50
   4  -1   6  270.37   14.80
   4  -1   6  286.07   19.50
   4  -1   6  269.57   11.30
  -4  -1  -6  282.97   17.10
   4  -1   6  291.37   10.20
  -4  -1  -6  264.27   17.60
  -4  -1  -6  286.27   10.70
  -4  -1  -6  276.47   12.30
  -4  -1  -6  279.97   10.20
  -4   1  -6  271.57   15.60
  -4   1  -6  269.17   11.90
   4   1   6  269.47   14.60
  -4   1  -6  276.87   15.60
   4   1   6  280.07   11.00
  -4   1  -6  288.77   10.70
   4   1   6  276.87   10.70
   4   1   6  287.37   18.40
   4   1   6  286.97    9.20
  -4   1  -6  285.07   11.50
  -4   1  -6  290.07   10.40
  -4   1  -6  286.17   19.20
   5  -1   6  322.37   11.20
   5  -1   6  302.17   10.70
   5  -1   6  280.87   11.90
  -5  -1  -6  296.17   11.20
  -5  -1  -6  298.87   11.80
   5  -1   6  315.57   23.30
  -5  -1  -6  331.17   13.80
  -5  -1  -6  309.97   18.30
  -5  -1  -6  306.67   21.40
  -5  -1  -6  295.57   19.70
   5  -1   6  309.77   17.90
   5   1   6  298.47   16.60
  -5   1  -6  304.07   18.70
  -5   1  -6  339.77   13.10
   5   1   6  318.47   10.70
  -5   1  -6  311.87   22.50
  -5   1  -6  299.27   18.30
   5   1   6  310.07   10.30
  -5   1  -6  312.97   11.50
   5   1   6  305.97   22.00
  -5   1  -6  296.27   14.00
  -6  -1  -6   15.50    3.70
  -6  -1  -6    7.60   11.50
  -6  -1  -6   15.00   14.70
   6  -1   6   23.40   16.00
   6  -1   6   13.50   10.60
   6  -1   6   17.60    2.50
  -6  -1  -6   14.70   13.70
   6   1   6    8.80    1.90
   6   1   6   11.90    9.90
  -6   1  -6    9.40    8.10
   6   1   6    9.50    1.60
  -6   1  -6   12.00   11.10
  -6   1  -6   10.70   11.90
  -6   1  -6   14.90    3.70
   6   1   6    9.90   14.10
  -6   1  -6   16.10   15.50
   7  -1   6   93.79   14.80
  -7  -1  -6   79.89   11.20
   7  -1   6   69.59    5.70
  -7  -1  -6   80.79   16.50
  -7  -1  -6   76.69   15.60
  -7  -1  -6   94.59   19.60
   7  -1   6   90.19   20.40
  -7   1  -6   98.99   20.70
  -7   1  -6   93.99   16.10
   7   1   6   85.99    6.00
   7   1   6   76.59   19.10
   7   1   6   92.39    4.50
  -7   1  -6   89.59   16.60
   7   1   6   78.59   12.90
  -7   1  -6   92.69   11.00
   8  -2  -6   20.90   17.40
  -8  -2   6   17.30   16.00
   8  -2  -6   16.20   16.70
  -8  -2   6   29.20   19.50
  -8  -2   6   28.80   18.80
   8  -2  -6   21.30   23.40
   8   2  -6   33.20    5.00
   8   2  -6   23.20   21.90
  -8   2   6   13.00   17.00
   8   2  -6   15.10   12.70
  -8   2   6   21.30   21.00
  -8   2   6   23.70   21.50
   7  -2  -6  257.17   31.80
   7  -2  -6  258.17   23.10
  -7  -2   6  237.18    8.50
  -7  -2   6  241.88   12.30
  -7  -2   6  294.27   26.50
  -7  -2   6  256.77   26.10
  -7  -2   6  248.98   22.40
   7  -2  -6  252.07   20.10
   7   2  -6  248.48   10.40
  -7   2   6  291.97   28.80
  -7   2   6  282.47   11.90
  -7   2   6  254.77   22.50
  -7   2   6  256.87    9.70
   7   2  -6  258.17   18.70
  -7   2   6  259.57   26.70
   7   2  -6  264.97   26.90
  -6  -2   6  416.46   27.30
  -6  -2   6  445.66   15.60
   6  -2  -6  405.26   15.30
   6  -2  -6  446.16   20.60
  -6  -2   6  436.36   21.00
   6  -2  -6  448.86   26.80
   6  -2  -6  433.66   16.20
  -6  -2   6  469.35   16.50
  -6  -2   6  383.56   23.90
  -6  -2   6  424.66   14.90
   6  -2  -6  431.76   22.50
  -6   2   6  432.76   14.70
  -6   2   6  453.75   23.40
   6   2  -6  467.45   15.40
   6   2  -6  437.16   25.20
  -6   2   6  456.65   26.90
   6   2  -6  427.06   19.50
  -6   2   6  452.35   16.60
  -6   2   6  446.46   29.30
   5  -2  -6  122.29    5.70
  -5  -2   6  106.29   13.10
   5  -2  -6  112.69   12.40
   5  -2  -6  111.79   13.40
  -5  -2   6  115.79    5.70
   5  -2  -6  109.09    6.40
  -5  -2   6  111.79    6.50
   5  -2  -6  128.29    5.40
  -5  -2   6  124.39   15.50
  -5  -2   6  100.09    6.40
  -5  -2   6  123.09   15.70
   5  -2  -6  121.49   17.80
  -5   2   6  101.89    5.50
   5   2  -6  100.49    6.00
  -5   2   6  112.79    5.00
  -5   2   6  103.79   13.60
  -5   2   6  105.79   17.10
   5   2  -6  106.09   16.20
   5   2  -6  119.19    5.90
   5   2  -6  110.69    7.60
   5   2  -6   96.89   11.50
  -5   2   6  106.29   15.80
  -5   2   6  110.79    5.70
  -5   2   6   89.39    6.40
  -4  -2   6 1931.91   55.09
  -4  -2   6 1903.71   55.79
  -4  -2   6 1867.61   54.49
   4  -2  -6 1804.42   55.19
   4  -2  -6 1881.01   55.99
  -4  -2   6 1787.42   56.89
  -4  -2   6 1777.82   55.59
  -4  -2   6 1784.32   56.49
   4  -2  -6 1764.52   57.39
   4  -2  -6 1868.91   54.89
   4  -2  -6 1816.22   55.69
   4  -2  -6 1787.42   56.49
   4  -2  -6 1846.72   54.69
  -4   2   6 1859.21   54.69
   4   2  -6 1804.72   56.99
  -4   2   6 1850.31   55.09
  -4   2   6 1843.32   56.49
   4   2  -6 1662.93   53.29
  -4   2   6 1770.92   57.29
   4   2  -6 1836.12   55.59
   4   2  -6 1888.21   54.39
  -4   2   6 1819.72   54.39
   4   2  -6 1802.02   55.19
   4   2  -6 1777.72   54.89
  -4   2   6 1804.62   55.79
  -4   2   6 1918.61   56.19
   3  -2  -6   30.90    5.50
   3  -2  -6   43.80    3.40
  -3  -2   6   43.10    7.90
   3  -2  -6   35.70    2.80
  -3  -2   6   44.60    7.60
   3  -2  -6   29.20    3.90
  -3  -2   6   31.30    3.50
   3  -2  -6   28.90    7.80
  -3  -2   6   30.70    6.20
   3  -2  -6   31.80    5.90
   3  -2  -6   42.70    7.30
  -3  -2   6   33.50    2.80
  -3  -2   6   39.30    3.00
   3   2  -6   37.70    1.60
   3   2  -6   22.20    7.00
  -3   2   6   33.10    3.60
  -3   2   6   43.60    6.70
   3   2  -6   43.40    3.40
  -3   2   6   35.90    3.00
  -3   2   6   42.50    2.80
   3   2  -6   41.50    3.20
   3   2  -6   35.70    5.60
  -3   2   6   36.20    7.80
  -3   2   6   33.90    6.10
   3   2  -6   37.70    3.20
   2  -2  -6 1248.68   39.20
  -2  -2   6 1295.47   40.80
   2  -2  -6 1338.67   38.40
   2  -2  -6 1246.48   39.90
  -2  -2   6 1355.86   38.80
  -2  -2   6 1299.57   39.60
  -2  -2   6 1246.98   39.40
   2  -2  -6 1274.67   39.40
  -2  -2   6 1270.77   39.90
   2  -2  -6 1208.98   40.40
  -2  -2   6 1312.77   38.50
   2  -2  -6 1344.07   39.70
   2  -2  -6 1316.47   38.50
   2   2  -6 1265.37   39.10
  -2   2   6 1335.87   39.60
  -2   2   6 1224.88   39.30
  -2   2   6 1233.18   40.50
   2   2  -6 1321.07   38.90
   2   2  -6 1305.17   39.50
   2   2  -6 1153.28   39.10
   2   2  -6 1267.67   39.00
   2   2  -6 1252.17   40.70
  -2   2   6 1312.57   38.50
   2   2  -6 1250.87   39.30
  -2   2   6 1279.07   39.20
  -2   2   6 1294.97   39.00
  -1  -2   6 2305.27   68.89
  -1  -2   6 2303.57   68.69
   1  -2  -6 2345.57   67.99
   1  -2  -6 2324.57   69.49
   1  -2  -6 2300.37   68.59
   1  -2  -6 2190.58   68.99
  -1  -2   6 2381.96   68.39
  -1  -2   6 2350.36   68.09
   1  -2  -6 2318.87   69.79
   1  -2  -6 2258.87   68.59
  -1  -2   6 2274.17   69.79
   1  -2  -6 2328.87   67.69
  -1  -2   6 2467.35   69.79
  -1   2   6 2310.97   68.99
   1   2  -6 2247.08   68.39
  -1   2   6 2406.96   68.69
   1   2  -6 2383.96   69.19
   1   2  -6 2228.78   69.69
   1   2  -6 2385.56   68.29
  -1   2   6 2226.18   68.39
   1   2  -6 2211.98   68.29
  -1   2   6 2214.58   67.99
  -1   2   6 2369.96   68.19
  -1   2   6 2243.78   69.59
   0  -2  -6  593.14   18.00
   0  -2   6  624.14   18.80
   0  -2  -6  583.84   21.10
   0  -2  -6  594.74   20.10
   0  -2  -6  554.04   19.40
   0  -2  -6  593.14   21.70
   0  -2   6  569.84   20.20
   0  -2   6  616.34   18.80
   0  -2   6  592.94   22.00
   0  -2   6  590.54   20.30
   0  -2   6  641.74   20.10
   0  -2  -6  605.94   19.80
   0  -2   6  614.84   18.90
   0   2  -6  619.04   20.00
   0   2   6  593.64   19.60
   0   2   6  617.84   19.40
   0   2   6  625.94   18.60
   0   2  -6  573.54   19.80
   0   2  -6  576.24   22.00
   0   2   6  589.34   21.80
   0   2   6  579.04   20.00
   0   2   6  587.74   18.70
   1  -2   6 3174.08   90.89
  -1  -2  -6 3033.70   92.09
  -1  -2  -6 3033.80   92.49
   1  -2   6 3065.29   93.69
   1  -2   6 3028.50   92.79
   1  -2   6 3006.80   91.49
  -1  -2  -6 3012.20   91.19
   1  -2   6 3221.88   91.29
  -1  -2  -6 2993.70   91.29
  -1  -2  -6 3199.58   92.09
   1  -2   6 3159.68   90.99
  -1   2  -6 2986.30   91.49
   1   2   6 2962.00   91.09
  -1   2  -6 3283.47   91.29
   1   2   6 3184.38   90.79
   1   2   6 2991.70   89.89
   1   2   6 3209.98   91.69
   1   2   6 3077.09   92.59
  -1   2  -6 3258.47   91.19
  -1   2  -6 3266.67   92.49
  -1   2  -6 3001.10   91.29
  -1   2  -6 3038.50   92.69
   1   2   6 3200.88   91.99
  -2  -2  -6  222.58   13.80
  -2  -2  -6  217.28   13.00
  -2  -2  -6  229.08    9.40
   2  -2   6  248.18    8.60
   2  -2   6  222.18   14.00
  -2  -2  -6  236.48    8.50
   2  -2   6  238.78    8.00
   2  -2   6  241.48    9.60
   2  -2   6  223.78   12.40
  -2  -2  -6  232.88   11.70
  -2   2  -6  237.38    8.70
   2   2   6  233.98    9.00
  -2   2  -6  226.78   14.30
  -2   2  -6  223.28   11.70
   2   2   6  226.48   14.30
   2   2   6  232.88    8.10
  -2   2  -6  236.48   12.60
   2   2   6  217.58   11.60
  -2   2  -6  244.18    9.80
   2   2   6  245.98    9.40
  -2   2  -6  238.88    8.60
   3  -2   6 1088.49   32.70
   3  -2   6 1035.10   34.70
  -3  -2  -6 1111.79   33.30
  -3  -2  -6 1078.69   35.80
  -3  -2  -6 1069.69   34.60
  -3  -2  -6 1103.49   34.30
   3  -2   6 1102.89   34.70
   3  -2   6 1100.09   33.40
   3  -2   6 1065.29   37.30
  -3  -2  -6 1061.29   36.10
  -3   2  -6 1046.40   33.60
   3   2   6 1100.09   34.30
  -3   2  -6 1054.69   34.60
   3   2   6 1046.70   36.30
   3   2   6 1118.29   34.20
   3   2   6 1123.79   32.80
  -3   2  -6 1139.19   34.10
  -3   2  -6 1136.99   34.90
  -3   2  -6 1143.59   33.50
  -3   2  -6 1090.39   37.30
   3   2   6 1070.59   31.80
  -3   2  -6 1052.59   35.00
   4  -2   6  257.37   15.70
  -4  -2  -6  259.77   10.60
  -4  -2  -6  254.97   10.00
   4  -2   6  275.27   10.90
   4  -2   6  253.47    8.90
  -4  -2  -6  263.07   17.60
   4  -2   6  260.27    9.40
  -4  -2  -6  258.17   15.10
   4  -2   6  276.97    9.70
   4  -2   6  261.87   19.00
  -4  -2  -6  261.77   17.40
  -4   2  -6  271.87   11.40
   4   2   6  265.37   10.40
   4   2   6  257.17   17.80
  -4   2  -6  251.57   12.80
  -4   2  -6  263.37    9.80
  -4   2  -6  258.27   16.30
  -4   2  -6  258.87   15.20
  -4   2  -6  262.97   20.20
   4   2   6  252.57    8.30
  -4   2  -6  273.27   10.20
   4   2   6  252.87   14.10
  -5  -2  -6   24.00   11.40
  -5  -2  -6   21.60    3.20
  -5  -2  -6   28.00   10.80
  -5  -2  -6   27.00    9.20
   5  -2   6   28.60    2.90
  -5  -2  -6   19.30    2.70
   5  -2   6   21.40    9.70
   5  -2   6   28.10    2.80
  -5  -2  -6   28.10    3.80
   5  -2   6   23.80   12.80
   5   2   6   20.20   11.00
   5   2   6   18.60    2.10
  -5   2  -6   30.50    9.90
   5   2   6   23.20    2.80
   5   2   6   26.00    8.00
  -5   2  -6   28.60   12.70
  -5   2  -6   29.30    7.60
  -5   2  -6   24.30    9.50
  -6  -2  -6  237.88   10.00
   6  -2   6  248.58   28.50
  -6  -2  -6  231.88   24.00
   6  -2   6  231.18    8.90
  -6  -2  -6  242.98   21.00
  -6  -2  -6  210.38   23.60
   6  -2   6  166.68   19.60
  -6  -2  -6  233.88   10.40
   6   2   6  235.28   17.60
   6   2   6  236.28    8.10
  -6   2  -6  248.78   11.20
  -6   2  -6  241.78   21.50
   6   2   6  228.78   25.20
   6   2   6  250.57    8.30
  -6   2  -6  230.78   26.60
  -6   2  -6  238.08   21.40
  -6   2  -6  217.48   16.50
  -7  -2  -6   19.60   15.50
   7  -2   6   34.90   15.40
  -7  -2  -6   29.30   17.90
  -7  -2  -6   32.10   15.30
   7  -2   6   31.90   23.30
  -7   2  -6   30.80   11.90
  -7   2  -6   24.60   15.80
   7   2   6   25.00   18.60
   7   2   6   30.00   11.50
  -7   2  -6   35.70   21.60
  -7   2  -6   43.00   15.30
  -8  -3   6  164.38   20.40
  -8   3   6  173.88   23.50
   7  -3  -6  126.09   21.00
  -7  -3   6  104.89   13.50
  -7  -3   6   91.39    7.20
   7  -3  -6  114.49   13.60
   7  -3  -6   94.59   15.20
  -7  -3   6  112.79   16.70
  -7  -3   6   95.29   15.80
  -7   3   6  125.39   20.50
   7   3  -6   95.49   17.00
   7   3  -6  104.59    4.90
  -7   3   6  103.59   16.90
  -7   3   6   98.59   14.70
  -7   3   6   90.99    5.70
   7   3  -6  104.89   10.60
  -6  -3   6   75.29   14.60
   6  -3  -6   98.29    7.40
   6  -3  -6   83.49    6.10
   6  -3  -6  101.29   16.00
  -6  -3   6   93.19   11.20
   6  -3  -6  100.99   17.00
   6  -3  -6  100.49   10.90
  -6  -3   6   84.99    6.00
  -6  -3   6   78.89    4.80
   6   3  -6  109.19   14.20
   6   3  -6  100.49    4.50
  -6   3   6   96.29    5.20
  -6   3   6  100.49    7.00
  -6   3   6   85.89   14.70
   6   3  -6   93.99   12.90
  -6   3   6  114.29   16.10
  -5  -3   6 1145.49   35.20
  -5  -3   6 1116.59   38.90
   5  -3  -6 1126.49   37.80
  -5  -3   6 1124.49   36.80
   5  -3  -6 1092.59   37.00
   5  -3  -6 1032.80   35.50
   5  -3  -6 1130.69   35.10
  -5  -3   6 1163.08   35.90
  -5  -3   6 1140.49   38.60
   5  -3  -6 1121.59   36.20
   5  -3  -6 1117.19   40.50
  -5  -3   6 1122.89   35.00
   5   3  -6 1193.68   34.40
   5   3  -6 1094.29   35.50
  -5   3   6 1096.19   40.10
  -5   3   6 1134.79   39.00
   5   3  -6 1173.28   36.00
  -5   3   6 1142.79   37.40
  -5   3   6 1123.59   35.40
  -5   3   6 1152.68   36.40
  -5   3   6 1134.89   34.70
   5   3  -6 1086.29   38.70
  -5   3   6 1173.78   35.60
   4  -3  -6   29.00    7.60
   4  -3  -6   36.60    9.60
  -4  -3   6   37.30    8.90
  -4  -3   6   33.90    3.70
   4  -3  -6   40.40    3.10
   4  -3  -6   32.70    3.60
  -4  -3   6   41.40    3.50
   4  -3  -6   36.50    4.40
   4  -3  -6   41.40    7.30
  -4  -3   6   40.00    9.40
  -4  -3   6   39.80    7.40
  -4  -3   6   36.90    2.90
   4  -3  -6   39.70    7.80
  -4   3   6   33.90    3.10
  -4   3   6   36.70    8.00
  -4   3   6   40.20    3.00
  -4   3   6   41.90    7.80
   4   3  -6   40.20    3.60
   4   3  -6   42.00    6.00
  -4   3   6   45.30    3.50
  -4   3   6   34.20    4.10
   4   3  -6   39.80    9.00
   4   3  -6   41.80    3.60
  -4   3   6   31.00    9.60
  -3  -3   6 2823.32   87.29
  -3  -3   6 2995.40   87.79
  -3  -3   6 3032.30   86.99
   3  -3  -6 2848.71   87.39
   3  -3  -6 2847.02   88.69
  -3  -3   6 2951.80   86.69
   3  -3  -6 3086.59   88.19
   3  -3  -6 2896.41   87.49
  -3  -3   6 2844.12   88.39
  -3  -3   6 2886.61   88.19
   3  -3  -6 3054.79   86.89
   3  -3  -6 2937.71   88.09
   3  -3  -6 3054.79   88.39
   3   3  -6 3012.10   87.49
  -3   3   6 2886.91   87.29
  -3   3   6 3087.19   88.29
   3   3  -6 2837.02   86.59
  -3   3   6 2874.21   88.79
  -3   3   6 3013.70   86.79
   3   3  -6 3035.20   86.59
  -3   3   6 2894.21   87.59
   3   3  -6 3054.39   87.89
   3   3  -6 2758.12   88.09
  -3   3   6 3042.50   87.39
  -2  -3   6 1104.99   33.10
  -2  -3   6 1079.19   35.10
  -2  -3   6 1093.29   35.70
   2  -3  -6 1028.90   34.90
   2  -3  -6 1112.89   32.90
   2  -3  -6 1050.19   34.20
  -2  -3   6 1098.49   34.10
   2  -3  -6 1054.39   35.60
   2  -3  -6 1049.30   34.40
   2  -3  -6 1100.99   34.10
  -2  -3   6 1037.40   34.30
   2  -3  -6 1132.09   33.40
   2   3  -6 1057.49   33.90
  -2   3   6 1067.59   34.00
  -2   3   6 1041.10   35.50
   2   3  -6 1095.59   33.60
   2   3  -6 1114.29   35.80
  -2   3   6 1149.98   33.80
  -2   3   6 1148.69   34.20
  -2   3   6 1077.59   34.00
   2   3  -6 1115.19   33.00
   2   3  -6 1129.59   31.90
   2   3  -6 1127.49   34.10
   1  -3  -6 1191.98   37.30
   1  -3  -6 1199.48   36.10
  -1  -3   6 1171.58   38.60
   1  -3  -6 1237.18   35.70
   1  -3  -6 1220.68   37.10
  -1  -3   6 1203.58   36.00
  -1  -3   6 1211.18   36.20
   1  -3  -6 1177.28   37.90
  -1  -3   6 1214.58   37.30
  -1  -3   6 1154.88   37.10
   1  -3  -6 1171.88   37.50
   1  -3  -6 1162.58   38.20
  -1  -3   6 1169.18   37.70
  -1   3   6 1189.18   38.30
  -1   3   6 1170.78   36.30
  -1   3   6 1250.67   36.90
   1   3  -6 1160.28   38.60
   1   3  -6 1172.48   36.80
   1   3  -6 1248.78   37.40
  -1   3   6 1265.97   37.20
  -1   3   6 1202.78   36.70
  -1   3   6 1203.58   36.00
   1   3  -6 1246.58   36.20
   1   3  -6 1168.88   36.60
   1   3  -6 1223.38   35.50
   0  -3   6 1482.95   43.70
   0  -3  -6 1402.26   43.90
   0  -3  -6 1497.85   44.30
   0  -3  -6 1455.45   43.30
   0  -3   6 1476.95   43.40
   0  -3  -6 1407.76   44.90
   0  -3   6 1525.05   44.60
   0  -3   6 1472.45   43.10
   0  -3   6 1401.46   44.50
   0  -3   6 1444.96   45.80
   0  -3   6 1404.76   44.10
   0  -3  -6 1428.66   42.40
   0  -3  -6 1425.16   45.20
   0   3  -6 1506.45   44.60
   0   3  -6 1383.36   45.50
   0   3  -6 1365.26   43.40
   0   3   6 1419.76   45.20
   0   3   6 1489.45   44.20
   0   3  -6 1472.75   43.00
   0   3  -6 1408.26   44.10
   0   3   6 1512.35   44.00
   0   3   6 1423.46   43.50
   0   3   6 1471.05   43.10
   1  -3   6    3.70    7.20
   1  -3   6   -1.70    1.30
  -1  -3  -6    2.80    1.50
   1  -3   6    3.10    1.10
   1  -3   6    4.00    1.20
   1  -3   6   -0.50    5.10
  -1  -3  -6    2.90    1.20
  -1  -3  -6   -1.20    6.00
   1  -3   6    1.50    1.70
  -1  -3  -6    1.20    6.50
  -1  -3  -6    4.10    5.20
   1   3   6    4.60    1.40
  -1   3  -6   -0.40    2.20
   1   3   6    4.50    1.50
  -1   3  -6    6.80    7.10
   1   3   6    3.90    4.50
   1   3   6    4.10    6.60
   1   3   6    1.10    0.80
  -1   3  -6    2.20    1.20
   1   3   6    1.60    0.90
  -1   3  -6    2.80    1.10
  -1   3  -6   -0.20    5.80
  -1   3  -6    1.90    4.50
  -2  -3  -6 1165.48   35.10
  -2  -3  -6 1082.79   35.00
   2  -3   6 1081.79   37.50
  -2  -3  -6 1086.49   36.40
   2  -3   6 1149.08   35.50
   2  -3   6 1076.19   35.50
   2  -3   6 1123.69   34.30
  -2  -3  -6 1136.99   34.00
  -2  -3  -6 1067.69   36.30
   2  -3   6 1151.48   34.00
   2   3   6 1043.30   37.90
  -2   3  -6 1113.79   37.60
   2   3   6 1157.98   35.00
  -2   3  -6 1111.39   35.60
  -2   3  -6 1161.28   34.30
   2   3   6 1148.69   33.50
   2   3   6 1086.39   34.40
  -2   3  -6 1184.38   35.70
  -2   3  -6 1092.49   34.80
   2   3   6 1149.39   34.90
  -2   3  -6 1178.78   34.50
   3  -3   6  676.93   27.00
  -3  -3  -6  653.83   25.40
  -3  -3  -6  699.73   21.70
   3  -3   6  679.13   24.40
  -3  -3  -6  728.53   22.80
   3  -3   6  693.83   22.00
  -3  -3  -6  693.03   23.80
   3  -3   6  702.23   23.20
   3  -3   6  689.83   21.60
  -3  -3  -6  681.03   25.80
   3   3   6  654.03   25.80
  -3   3  -6  723.03   22.00
  -3   3  -6  667.53   24.50
   3   3   6  713.33   21.00
  -3   3  -6  694.43   23.30
  -3   3  -6  642.34   23.50
  -3   3  -6  682.63   27.10
  -3   3  -6  664.63   23.30
  -3   3  -6  721.03   22.70
   3   3   6  696.73   22.50
   3   3   6  662.73   22.70
  -4  -3  -6  233.58   17.30
   4  -3   6  249.08    9.20
   4  -3   6  234.88   11.70
  -4  -3  -6  234.98   14.90
   4  -3   6  234.68   15.80
  -4  -3  -6  246.28   17.70
  -4  -3  -6  237.08    9.70
   4  -3   6  231.88   19.80
  -4  -3  -6  246.78    9.00
   4  -3   6  242.68    8.50
   4   3   6  233.88   20.10
  -4   3  -6  230.28    9.50
   4   3   6  250.17    8.30
   4   3   6  219.78   12.70
   4   3   6  240.68    9.40
  -4   3  -6  233.98    9.10
  -4   3  -6  243.38   16.00
  -4   3  -6  229.88   14.00
  -4   3  -6  241.28   10.50
  -4   3  -6  251.77   20.00
  -4   3  -6  229.68   14.80
  -5  -3  -6  523.05   22.50
  -5  -3  -6  527.85   17.80
  -5  -3  -6  521.75   17.00
   5  -3   6  515.45   18.60
  -5  -3  -6  490.15   25.40
  -5  -3  -6  496.35   24.80
   5  -3   6  520.75   17.10
   5  -3   6  514.75   28.10
   5  -3   6  533.05   23.60
   5   3   6  493.05   19.70
  -5   3  -6  513.55   22.80
  -5   3  -6  535.65   27.70
   5   3   6  489.25   15.40
   5   3   6  530.25   15.80
  -5   3  -6  523.75   23.90
  -5   3  -6  538.85   18.70
   5   3   6  433.06   17.10
   5   3   6  493.25   25.30
  -5   3  -6  496.95   21.00
   6  -3   6    7.80   12.70
   6  -3   6   -0.40    2.50
  -6  -3  -6    4.10    2.80
  -6  -3  -6   -0.30   13.00
   6  -3   6    7.50   20.00
  -6  -3  -6    1.10   11.50
  -6  -3  -6   11.10    2.60
  -6  -3  -6    8.00   14.70
  -6   3  -6    7.80   18.00
   6   3   6    2.40    8.20
   6   3   6   -0.40    1.40
  -6   3  -6   -0.80    3.70
  -6   3  -6    7.90   12.50
  -6   3  -6   -3.60   10.50
   6   3   6    9.20   14.30
  -6   3  -6    5.10   11.40
  -7  -3  -6  102.59    9.10
  -7  -3  -6   81.39   17.90
  -7  -3  -6   88.79   15.90
   7  -3   6   89.09   22.70
   7  -3   6  107.19   17.40
  -7  -3  -6   73.09   17.50
   7   3   6   90.29   10.70
  -7   3  -6   96.69   22.10
  -7   3  -6   91.09   17.00
  -7   3  -6  108.29   14.30
   7   3   6   95.79   19.80
  -7   3  -6   83.49   15.90
  -7  -4   6  218.58   28.50
   7  -4  -6  216.68   24.50
   7  -4  -6  221.08   33.20
  -7  -4   6  256.97   26.50
  -7  -4   6  182.38   10.40
   7  -4  -6  220.58   26.50
  -7  -4   6  213.18   22.90
   7   4  -6  218.48   27.70
  -7   4   6  260.97   32.20
  -7   4   6  219.08   26.30
  -7   4   6  229.28   29.50
   7   4  -6  203.88   14.50
  -7   4   6  204.48   27.10
  -6  -4   6  292.57   10.70
   6  -4  -6  321.77   13.90
  -6  -4   6  313.27   24.20
   6  -4  -6  306.87   21.30
  -6  -4   6  304.47   19.70
  -6  -4   6  283.17   22.00
  -6  -4   6  271.97   11.30
   6  -4  -6  273.17   21.30
  -6  -4   6  289.27   11.80
   6  -4  -6  277.37   31.10
   6   4  -6  288.67   23.30
  -6   4   6  305.47   21.10
  -6   4   6  342.07   26.70
  -6   4   6  303.97   24.70
  -6   4   6  273.27   10.80
   6   4  -6  293.27   14.70
   6   4  -6  291.87    9.80
  -5  -4   6   86.59   15.40
  -5  -4   6   79.49    9.30
   5  -4  -6   74.39    5.30
  -5  -4   6   59.19    4.50
  -5  -4   6   63.69   11.30
   5  -4  -6   76.59    9.70
   5  -4  -6   80.69    4.60
  -5  -4   6   65.09    4.10
  -5  -4   6   67.89    4.90
   5  -4  -6   83.99   10.70
   5  -4  -6   74.69   12.70
  -5   4   6   73.89    4.30
   5   4  -6   65.99    9.80
  -5   4   6   67.19    5.40
   5   4  -6   73.29    4.70
  -5   4   6   71.69   13.20
  -5   4   6   78.49    4.40
  -5   4   6   83.99   10.60
   5   4  -6   67.29   10.80
  -5   4   6   86.39    4.90
  -5   4   6   77.69   11.80
  -4  -4   6  560.74   17.30
   4  -4  -6  547.45   18.80
  -4  -4   6  514.45   23.40
   4  -4  -6  540.65   22.90
   4  -4  -6  550.14   17.70
   4  -4  -6  541.85   21.70
  -4  -4   6  541.45   20.90
  -4  -4   6  525.75   22.50
  -4  -4   6  526.35   18.20
  -4  -4   6  553.84   17.70
   4  -4  -6  532.35   24.40
   4  -4  -6  532.65   21.60
   4  -4  -6  555.24   17.70
  -4   4   6  508.65   23.80
  -4   4   6  547.35   17.80
  -4   4   6  528.75   17.60
   4   4  -6  510.05   18.50
  -4   4   6  531.55   17.90
  -4   4   6  526.35   21.40
  -4   4   6  536.75   22.60
   4   4  -6  547.45   18.40
   4   4  -6  528.85   16.70
   4   4  -6  528.55   18.10
   4   4  -6  525.75   22.50
  -4   4   6  533.85   18.90
  -3  -4   6   26.50    2.50
   3  -4  -6   28.20    6.90
   3  -4  -6   29.90    9.00
  -3  -4   6   29.30    7.90
   3  -4  -6   33.50    2.70
   3  -4  -6   37.80    8.40
   3  -4  -6   34.30    3.50
   3  -4  -6   35.10    7.30
  -3  -4   6   31.30    7.90
  -3  -4   6   28.20    7.10
  -3  -4   6   30.10    2.70
   3  -4  -6   26.00    2.90
  -3   4   6   21.00    3.40
   3   4  -6   24.50    2.10
  -3   4   6   22.10    2.50
   3   4  -6   23.80    4.30
  -3   4   6   33.10    7.50
   3   4  -6   21.40    7.70
  -3   4   6   34.50    9.20
  -3   4   6   28.10    6.70
   3   4  -6   33.00    5.20
   2  -4  -6  530.95   16.20
   2  -4  -6  495.05   20.60
   2  -4  -6  500.55   19.70
  -2  -4   6  500.55   19.10
   2  -4  -6  494.05   20.00
  -2  -4   6  516.45   20.70
  -2  -4   6  511.25   20.50
  -2  -4   6  517.75   17.50
  -2  -4   6  518.65   16.20
   2  -4  -6  503.55   19.10
   2  -4  -6  528.95   16.50
   2  -4  -6  523.55   17.50
  -2   4   6  520.15   17.20
  -2   4   6  489.95   18.70
   2   4  -6  524.65   17.40
  -2   4   6  519.75   17.50
   2   4  -6  496.35   17.50
  -2   4   6  493.15   18.20
  -2   4   6  497.05   20.80
   2   4  -6  535.55   16.10
   2   4  -6  485.65   20.70
   1  -4  -6 1451.05   43.90
   1  -4  -6 1462.65   43.00
   1  -4  -6 1379.16   44.80
  -1  -4   6 1420.16   45.40
  -1  -4   6 1418.36   42.60
   1  -4  -6 1407.46   43.90
  -1  -4   6 1389.26   44.00
   1  -4  -6 1381.76   44.50
  -1  -4   6 1459.25   44.10
  -1  -4   6 1416.76   45.00
   1  -4  -6 1373.16   44.90
   1  -4  -6 1432.26   42.50
  -1  -4   6 1466.55   43.10
  -1  -4   6 1488.65   43.60
  -1   4   6 1521.05   43.90
  -1   4   6 1386.86   43.60
   1   4  -6 1486.55   42.80
  -1   4   6 1592.04   45.30
   1   4  -6 1441.46   42.20
   1   4  -6 1429.96   43.50
   1   4  -6 1451.45   45.40
  -1   4   6 1410.46   43.20
   1   4  -6 1392.96   43.10
  -1   4   6 1486.55   42.80
  -1   4   6 1411.06   43.30
  -1   4   6 1380.26   45.00
   1   4  -6 1404.26   45.40
   0  -4  -6  235.58   12.40
   0  -4   6  233.18   14.90
   0  -4  -6  252.87    9.50
   0  -4   6  234.78   12.10
   0  -4  -6  238.38    7.80
   0  -4   6  247.58    9.90
   0  -4   6  246.48    8.30
   0  -4   6  261.57    9.10
   0  -4  -6  249.18   14.00
   0  -4  -6  234.98   14.00
   0  -4   6  251.97    9.00
   0  -4  -6  250.07    8.60
   0  -4   6  235.88   13.60
   0   4   6  244.68   13.60
   0   4   6  253.07   10.70
   0   4  -6  256.77   10.00
   0   4   6  250.37    9.50
   0   4  -6  253.07    8.30
   0   4   6  244.58   10.50
   0   4   6  257.97    9.50
   0   4   6  262.27    8.30
   0   4  -6  233.78   14.80
   0   4  -6  242.38   10.30
   0   4  -6  237.28   12.20
   1  -4   6 1944.41   58.19
   1  -4   6 2095.49   60.29
  -1  -4  -6 1939.41   60.59
  -1  -4  -6 1919.51   58.69
   1  -4   6 1911.61   61.29
  -1  -4  -6 2027.50   59.59
  -1  -4  -6 1961.50   59.29
   1  -4   6 1907.31   59.49
   1  -4   6 2035.70   59.09
  -1  -4  -6 1934.01   60.39
   1  -4   6 2009.60   59.09
  -1   4  -6 2066.69   60.29
   1   4   6 1928.61   58.39
   1   4   6 1955.70   57.99
   1   4   6 1877.61   57.99
  -1   4  -6 1957.10   61.39
   1   4   6 1966.00   60.49
   1   4   6 2075.89   59.79
   1   4   6 2047.80   59.49
  -1   4  -6 1868.41   58.59
  -1   4  -6 2073.49   58.89
  -1   4  -6 1978.00   59.69
  -1   4  -6 2061.99   58.79
  -2  -4  -6  105.99   10.40
  -2  -4  -6   95.29    5.40
   2  -4   6  104.69    5.90
   2  -4   6  106.19   11.90
   2  -4   6  102.69   14.60
   2  -4   6  104.79    4.90
   2  -4   6  108.19    5.10
  -2  -4  -6  103.59   12.30
  -2  -4  -6  115.49    4.90
  -2  -4  -6   99.19   13.20
   2   4   6  103.69    7.30
  -2   4  -6  106.29    5.00
  -2   4  -6  107.59   11.00
  -2   4  -6  113.39    4.90
   2   4   6   99.59    5.60
   2   4   6  110.69    3.90
   2   4   6  109.29    5.20
   2   4   6  105.79   12.90
  -2   4  -6  102.29   14.90
  -2   4  -6   99.99   11.70
  -2   4  -6  106.99    9.10
  -2   4  -6  101.09    5.90
  -3  -4  -6  652.63   23.20
  -3  -4  -6  668.63   20.60
  -3  -4  -6  664.03   21.40
  -3  -4  -6  632.34   24.80
   3  -4   6  655.13   24.40
  -3  -4  -6  630.24   25.40
   3  -4   6  640.64   27.40
   3  -4   6  661.43   20.80
   3  -4   6  685.33   22.50
   3  -4   6  665.63   22.30
   3   4   6  636.24   20.60
  -3   4  -6  629.94   23.50
   3   4   6  646.54   25.30
  -3   4  -6  658.53   24.00
   3   4   6  674.73   21.50
  -3   4  -6  649.83   27.70
   3   4   6  677.63   19.50
  -3   4  -6  607.94   22.40
  -3   4  -6  636.04   24.20
  -3   4  -6  644.44   21.30
  -3   4  -6  670.53   20.90
   4  -4   6   90.79    4.50
   4  -4   6   90.99   13.50
  -4  -4  -6   97.99   12.10
   4  -4   6   87.19    6.00
  -4  -4  -6   92.09   10.60
  -4  -4  -6   93.79   13.40
  -4  -4  -6   80.39    5.10
   4  -4   6   79.89   10.00
  -4  -4  -6   93.49    4.80
  -4   4  -6   87.19    4.70
  -4   4  -6   83.89    9.50
   4   4   6   83.89   10.90
  -4   4  -6   96.29   14.00
  -4   4  -6   81.39   12.40
   4   4   6   80.79    4.80
  -4   4  -6   91.69    5.80
  -4   4  -6   76.49   10.30
  -5  -4  -6   54.79    4.30
  -5  -4  -6   41.00    3.80
   5  -4   6   50.19   15.60
  -5  -4  -6   49.00   11.70
   5  -4   6   38.80    4.00
  -5  -4  -6   52.59   10.00
   5  -4   6   55.99   12.90
  -5  -4  -6   50.89   13.90
  -5   4  -6   53.39   15.10
  -5   4  -6   45.70    9.40
  -5   4  -6   42.70   10.20
  -5   4  -6   41.70    5.60
   5   4   6   30.50    3.60
  -5   4  -6   29.20   21.30
   5   4   6   46.00   12.20
   6  -4   6  127.49   15.20
  -6  -4  -6  116.89   16.70
  -6  -4  -6  106.29   14.40
  -6  -4  -6  119.29   13.50
  -6  -4  -6  121.09    7.30
   6  -4   6  122.49   20.70
  -6  -4  -6  123.09    6.50
  -6   4  -6  126.89   20.20
  -6   4  -6  117.89   13.40
  -6   4  -6  107.79   13.10
   6   4   6  136.79   23.70
  -6   4  -6  116.89   15.30
  -7  -4  -6    9.60   17.50
   7  -4   6   28.70   23.70
  -7  -4  -6   13.80   17.20
   7  -4   6   19.40   17.90
  -7  -4  -6   16.10   15.80
  -7   4  -6   16.30   17.50
   7   4   6   21.80   18.70
  -7   4  -6   12.60   15.40
  -7   4  -6   14.70   23.40
  -7   4  -6   16.60   15.40
   7  -5  -6   65.89   17.70
  -7  -5   6   59.69   18.00
  -7  -5   6   86.29   16.80
  -7  -5   6   69.39   14.50
   7  -5  -6   72.59   22.40
   7  -5  -6   58.39   15.90
  -7  -5   6   57.39    8.50
  -7   5   6   77.39   19.90
  -7   5   6   68.49   19.90
  -7   5   6   71.99   20.80
   7   5  -6   64.59   17.30
  -7   5   6   76.59   16.80
  -6  -5   6   57.09   13.80
   6  -5  -6   72.19   18.30
   6  -5  -6   72.39    6.40
   6  -5  -6   70.79   13.80
  -6  -5   6   71.29   11.80
  -6  -5   6   72.29    5.50
   6  -5  -6   89.29   14.40
  -6  -5   6   71.29   12.80
  -6  -5   6   62.79    5.50
  -6   5   6   83.19   15.40
  -6   5   6   66.79   14.50
  -6   5   6   82.49   18.10
   6   5  -6   65.99   13.60
  -6   5   6   70.79   13.50
   5  -5  -6  694.03   38.00
   5  -5  -6  750.12   26.60
  -5  -5   6  736.63   23.10
   5  -5  -6  640.54   39.90
  -5  -5   6  712.63   36.10
  -5  -5   6  772.42   24.30
   5  -5  -6  755.72   29.30
  -5  -5   6  712.43   23.50
  -5  -5   6  742.03   27.50
  -5  -5   6  726.63   28.80
   5  -5  -6  721.13   23.70
  -5   5   6  708.43   27.70
  -5   5   6  697.63   23.80
   5   5  -6  748.53   21.60
  -5   5   6  750.82   30.80
  -5   5   6  734.13   23.30
   5   5  -6  697.03   28.90
  -5   5   6  780.62   33.40
  -5   5   6  733.43   25.30
  -4  -5   6    9.80    9.30
   4  -5  -6   10.50   11.30
   4  -5  -6   12.00    8.80
   4  -5  -6    7.50    2.10
  -4  -5   6   10.80    8.00
   4  -5  -6    5.40    2.40
   4  -5  -6    8.50    9.00
  -4  -5   6    6.60    1.80
   4  -5  -6   10.40    1.90
   4  -5  -6    5.90    9.10
  -4  -5   6    1.90    8.50
  -4  -5   6   12.20    2.10
  -4   5   6    4.60    8.10
  -4   5   6    2.00   10.80
   4   5  -6    9.10    4.30
   4   5  -6    9.30    1.90
  -4   5   6    6.20    8.90
   4   5  -6   10.90    8.80
  -4   5   6    6.60    1.70
  -4   5   6    8.30    9.80
   4   5  -6   10.50    1.00
   3  -5  -6 1886.11   55.39
  -3  -5   6 1728.43   54.99
  -3  -5   6 1848.92   53.79
   3  -5  -6 1876.81   54.09
  -3  -5   6 1866.01   54.99
  -3  -5   6 1840.02   53.69
  -3  -5   6 1808.62   56.79
   3  -5  -6 1797.02   54.99
   3  -5  -6 1777.42   55.29
   3  -5  -6 1777.42   55.99
   3  -5  -6 1752.62   56.19
  -3  -5   6 1772.02   55.99
   3  -5  -6 1755.32   56.99
  -3   5   6 1861.71   55.29
  -3   5   6 1780.02   55.89
  -3   5   6 1842.72   54.29
   3   5  -6 1722.03   53.19
  -3   5   6 1793.82   55.69
   3   5  -6 1774.52   55.99
  -3   5   6 1821.22   54.59
  -3   5   6 1772.12   54.89
  -3   5   6 1767.02   56.99
   3   5  -6 1818.22   52.89
   3   5  -6 1822.12   54.79
  -2  -5   6  881.21   27.40
  -2  -5   6  873.11   28.10
  -2  -5   6  838.12   29.10
   2  -5  -6  862.71   30.50
   2  -5  -6  878.11   30.90
   2  -5  -6  918.41   28.50
   2  -5  -6  872.61   30.20
  -2  -5   6  879.41   31.30
   2  -5  -6  877.81   29.20
   2  -5  -6  841.92   27.60
  -2  -5   6  893.91   28.30
   2  -5  -6  916.61   27.40
  -2  -5   6  884.61   30.70
  -2  -5   6  897.21   27.00
   2   5  -6  858.31   30.70
   2   5  -6  913.51   28.50
   2   5  -6  918.81   26.60
  -2   5   6  879.41   28.60
  -2   5   6  879.81   31.00
  -2   5   6  927.31   28.20
  -2   5   6  874.41   29.60
  -2   5   6  905.91   28.40
   2   5  -6  880.31   27.50
  -2   5   6  904.11   27.10
  -1  -5   6  809.22   24.30
   1  -5  -6  785.52   26.70
   1  -5  -6  807.22   24.30
   1  -5  -6  775.22   27.90
  -1  -5   6  768.72   26.70
  -1  -5   6  772.22   28.60
   1  -5  -6  754.92   27.70
  -1  -5   6  821.62   25.50
  -1  -5   6  809.22   24.90
   1  -5  -6  779.32   28.00
   1  -5  -6  837.92   24.80
  -1  -5   6  799.92   26.00
  -1  -5   6  779.52   28.50
   1  -5  -6  796.52   25.70
   1   5  -6  796.12   25.60
   1   5  -6  845.22   24.40
  -1   5   6  834.12   25.70
  -1   5   6  835.02   24.50
   1   5  -6  818.62   24.00
  -1   5   6  801.62   25.60
  -1   5   6  827.32   25.80
   1   5  -6  842.02   26.10
   1   5  -6  770.72   28.60
  -1   5   6  792.62   26.40
  -1   5   6  785.32   28.00
   0  -5  -6 1206.18   40.40
   0  -5  -6 1296.07   41.20
   0  -5  -6 1306.47   38.50
   0  -5  -6 1265.27   37.80
   0  -5  -6 1217.68   39.70
   0  -5   6 1329.07   39.00
   0  -5   6 1242.08   41.90
   0  -5  -6 1263.87   41.30
   0  -5   6 1313.17   40.00
   0  -5  -6 1317.17   39.60
   0  -5   6 1279.37   38.00
   0  -5   6 1282.07   40.00
   0  -5   6 1296.67   39.30
   0   5  -6 1354.26   38.60
   0   5  -6 1375.76   40.70
   0   5  -6 1323.07   38.30
   0   5   6 1302.37   39.50
   0   5  -6 1249.88   41.80
   0   5  -6 1246.98   39.60
   0   5   6 1332.67   39.70
   0   5   6 1308.17   38.00
   0   5  -6 1240.08   38.30
   0   5   6 1251.07   39.10
   0   5   6 1260.07   38.50
   0   5   6 1241.98   40.70
   1  -5   6   11.40    6.50
   1  -5   6   11.80    8.80
  -1  -5  -6   13.50    7.10
   1  -5   6    8.30    1.80
   1  -5   6    7.80    1.70
  -1  -5  -6   13.40    1.70
  -1  -5  -6    9.30    1.80
   1  -5   6   11.20    2.30
  -1  -5  -6    7.80    7.10
   1   5   6   13.80    1.10
   1   5   6    9.40    2.30
  -1   5  -6   10.30    6.70
   1   5   6   13.40    1.90
  -1   5  -6   15.70    2.20
  -1   5  -6   14.90    2.50
  -1   5  -6   13.80    1.70
   1   5   6   12.60    4.40
  -1   5  -6   10.30    4.00
  -1   5  -6    9.60    8.40
   2  -5   6  783.52   24.80
  -2  -5  -6  755.92   27.20
   2  -5   6  776.72   27.10
  -2  -5  -6  745.83   25.80
  -2  -5  -6  806.92   24.20
  -2  -5  -6  754.52   28.40
   2  -5   6  776.42   25.80
   2  -5   6  743.83   29.30
  -2  -5  -6  766.82   24.60
   2  -5   6  743.23   25.00
  -2   5  -6  762.12   27.10
  -2   5  -6  748.63   29.30
   2   5   6  769.62   24.40
  -2   5  -6  801.62   26.20
  -2   5  -6  751.62   26.90
  -2   5  -6  785.82   24.00
   2   5   6  779.42   24.50
  -2   5  -6  798.42   24.30
  -2   5  -6  727.33   24.30
   3  -5   6  675.73   29.20
  -3  -5  -6  674.53   27.60
  -3  -5  -6  707.63   22.80
   3  -5   6  724.83   22.80
  -3  -5  -6  712.63   22.10
   3  -5   6  718.23   22.50
   3  -5   6  698.63   26.10
   3  -5   6  710.83   23.90
  -3  -5  -6  704.33   24.70
  -3  -5  -6  680.73   26.30
  -3   5  -6  733.03   24.20
  -3   5  -6  710.63   26.80
   3   5   6  702.43   22.60
  -3   5  -6  675.93   23.70
   3   5   6  710.33   22.70
  -3   5  -6  728.63   30.20
  -3   5  -6  694.53   26.10
  -3   5  -6  715.13   22.80
  -3   5  -6  715.03   22.40
  -4  -5  -6  136.69    6.50
  -4  -5  -6  141.99   19.60
  -4  -5  -6  144.79   14.60
   4  -5   6  169.28    7.80
   4  -5   6  145.79    6.30
   4  -5   6  149.59   17.10
  -4  -5  -6  144.29   16.90
   4  -5   6  147.79   21.90
  -4  -5  -6  137.99    6.00
  -4   5  -6  157.78    7.70
  -4   5  -6  137.29   13.10
  -4   5  -6  155.58   18.20
  -4   5  -6  155.88   22.60
  -4   5  -6  137.59    6.70
  -4   5  -6  131.89   16.50
   4   5   6  146.79    6.30
  -4   5  -6  129.99    6.40
   4   5   6  137.59    6.50
  -5  -5  -6  260.17   21.20
   5  -5   6  277.17   10.40
  -5  -5  -6  283.47   19.40
   5  -5   6  284.17   28.00
  -5  -5  -6  283.57   10.80
  -5  -5  -6  289.97   25.50
   5  -5   6  286.57   22.20
   5  -5   6  335.37   12.30
  -5  -5  -6  274.97   10.50
   5   5   6  256.17   33.80
  -5   5  -6  275.07   20.50
  -5   5  -6  310.67   27.50
  -5   5  -6  283.77   22.20
  -5   5  -6  276.07   18.40
   6  -5   6    4.50   21.60
   6  -5   6    0.20   14.80
  -6  -5  -6   -1.70   13.60
  -6  -5  -6    5.30   12.70
  -6  -5  -6   20.50   17.50
  -6   5  -6   -5.00   13.70
  -6   5  -6    3.20   11.70
  -6   5  -6    5.10   20.90
  -6   5  -6    7.80   15.20
   6   5   6    8.60   14.60
  -6  -6   6  135.29   13.40
  -6  -6   6  110.09   13.90
   6  -6  -6  120.39    8.40
  -6  -6   6  146.99   18.50
  -6  -6   6  132.19    6.70
   6  -6  -6  129.49   15.50
  -6  -6   6  117.19    6.20
   6  -6  -6  125.09   16.30
   6  -6  -6  148.69   21.40
   6   6  -6  127.79   22.00
  -6   6   6  136.49   17.10
  -6   6   6  141.89   15.10
  -6   6   6  163.88   23.20
  -5  -6   6   45.30   10.70
   5  -6  -6   40.10   11.70
   5  -6  -6   44.30   15.30
  -5  -6   6   32.90    4.00
   5  -6  -6   46.80   12.00
  -5  -6   6   45.60    3.70
  -5  -6   6   44.60   10.40
   5  -6  -6   32.90    4.20
  -5  -6   6   34.20   12.40
  -5  -6   6   41.40    4.10
   5  -6  -6   35.50    3.60
   5   6  -6   45.30   11.20
  -5   6   6   55.89   15.50
  -5   6   6   54.59   11.50
  -5   6   6   36.10    4.20
  -5   6   6   50.99   13.10
  -4  -6   6  406.26   14.40
   4  -6  -6  389.16   13.80
   4  -6  -6  376.86   21.00
   4  -6  -6  408.36   23.70
  -4  -6   6  386.66   19.40
  -4  -6   6  403.96   13.70
   4  -6  -6  420.36   15.20
  -4  -6   6  406.06   13.50
   4  -6  -6  411.76   22.20
   4  -6  -6  392.76   13.90
   4  -6  -6  397.76   22.20
  -4  -6   6  395.96   23.50
  -4  -6   6  388.26   20.30
  -4   6   6  382.56   22.10
  -4   6   6  410.76   13.40
  -4   6   6  416.16   14.80
  -4   6   6  418.96   24.80
  -4   6   6  377.86   13.90
   4   6  -6  383.76   20.30
   4   6  -6  405.56   15.70
  -4   6   6  395.66   19.40
   3  -6  -6    1.90    1.80
  -3  -6   6    3.30    1.90
  -3  -6   6    1.90   10.20
  -3  -6   6    7.20    8.40
   3  -6  -6    2.40    8.50
   3  -6  -6    1.70    1.50
   3  -6  -6    0.40    9.80
  -3  -6   6    2.60    1.30
   3  -6  -6    1.50    8.20
  -3  -6   6    2.70    7.70
   3  -6  -6   -1.20    2.00
   3  -6  -6    5.50    8.80
  -3   6   6   -0.80    1.30
   3   6  -6   -3.70    8.60
  -3   6   6    4.90    2.00
  -3   6   6   -3.20    9.90
  -3   6   6    6.20    9.10
   3   6  -6    3.00    1.90
  -3   6   6    0.00    7.30
  -2  -6   6  492.45   19.90
  -2  -6   6  516.45   23.30
   2  -6  -6  508.25   22.20
  -2  -6   6  489.35   16.60
  -2  -6   6  498.35   17.40
   2  -6  -6  499.25   20.30
   2  -6  -6  535.35   17.00
   2  -6  -6  505.85   22.00
   2  -6  -6  499.35   21.60
  -2  -6   6  508.55   22.00
   2  -6  -6  524.45   16.30
   2  -6  -6  520.65   17.60
  -2  -6   6  511.95   16.00
  -2  -6   6  501.85   17.50
  -2   6   6  500.85   18.60
   2   6  -6  498.35   15.20
   2   6  -6  498.55   21.90
  -2   6   6  511.35   17.50
  -2   6   6  485.85   22.10
  -2   6   6  532.55   17.40
   2   6  -6  491.85   16.50
  -2   6   6  504.85   20.70
   2   6  -6  507.25   17.40
  -1  -6   6  813.12   30.30
   1  -6  -6  814.22   29.30
  -1  -6   6  836.12   26.60
  -1  -6   6  835.72   25.60
  -1  -6   6  790.12   27.60
   1  -6  -6  800.72   29.30
  -1  -6   6  821.82   24.70
   1  -6  -6  851.41   25.50
  -1  -6   6  835.12   26.40
  -1  -6   6  806.92   30.00
   1  -6  -6  817.72   29.00
   1  -6  -6  815.72   27.70
   1  -6  -6  866.71   25.10
   1  -6  -6  841.62   26.40
   1   6  -6  819.02   26.60
  -1   6   6  813.82   26.00
   1   6  -6  813.12   29.90
   1   6  -6  829.12   24.70
  -1   6   6  815.02   29.10
  -1   6   6  823.12   24.80
  -1   6   6  821.42   26.30
  -1   6   6  798.22   27.60
   1   6  -6  825.12   24.60
   1   6  -6  822.52   26.00
  -1   6   6  842.42   26.40
   0  -6   6  209.88   16.60
   0  -6  -6  199.88    8.40
   0  -6  -6  216.38   14.10
   0  -6  -6  206.38   15.40
   0  -6   6  215.28    8.90
   0  -6   6  218.68    8.30
   0  -6   6  207.38    8.30
   0  -6  -6  220.18    7.70
   0  -6  -6  197.38   15.80
   0  -6  -6  214.78   13.40
   0  -6   6  203.68   12.70
   0  -6  -6  208.88    6.90
   0  -6   6  208.08    6.70
   0   6   6  214.68    8.30
   0   6  -6  194.88    8.70
   0   6   6  206.48   14.00
   0   6   6  210.88   12.00
   0   6   6  216.08    9.00
   0   6  -6  208.18   16.30
   0   6  -6  215.38    8.10
   0   6   6  214.58    6.60
   0   6  -6  208.98   12.10
   0   6  -6  205.28    8.00
  -1  -6  -6  940.41   32.80
   1  -6   6 1001.60   31.20
   1  -6   6 1041.50   32.20
   1  -6   6 1006.80   33.30
   1  -6   6 1016.10   31.40
   1  -6   6 1000.10   35.50
  -1  -6  -6  962.50   34.80
  -1  -6  -6 1005.90   30.50
  -1  -6  -6 1029.50   35.40
  -1  -6  -6 1018.20   31.40
  -1   6  -6 1009.00   30.90
  -1   6  -6 1018.70   32.20
   1   6   6  979.30   31.20
  -1   6  -6 1001.60   35.70
   1   6   6 1031.60   31.30
   1   6   6 1018.90   31.80
  -1   6  -6 1100.99   31.20
   1   6   6  916.61   31.60
   2  -6   6  111.49    5.60
  -2  -6  -6  115.69    5.70
   2  -6   6  111.69    5.70
  -2  -6  -6  110.69   16.70
   2  -6   6  112.29    6.50
   2  -6   6  125.19   17.50
  -2  -6  -6  111.59   12.70
   2  -6   6  117.89   14.50
  -2  -6  -6  121.39   13.50
  -2  -6  -6  122.39    5.00
   2   6   6  117.09    5.20
   2   6   6  105.69    5.00
  -2   6  -6  112.79   18.00
  -2   6  -6  112.89   15.20
  -2   6  -6  117.09    5.30
  -2   6  -6  114.59   14.70
  -2   6  -6  121.69    5.50
   3  -6   6  212.18   21.50
  -3  -6  -6  213.38   16.00
   3  -6   6  222.28   17.20
  -3  -6  -6  220.28    7.90
  -3  -6  -6  218.98   20.10
  -3  -6  -6  218.38   14.70
  -3  -6  -6  208.78    8.20
   3  -6   6  183.98    9.60
   3  -6   6  214.98    8.70
   3  -6   6  224.48   10.40
   3   6   6  209.68    8.60
  -3   6  -6  222.78   17.60
  -3   6  -6  212.38   11.50
  -3   6  -6  215.08   17.70
   3   6   6  210.78    7.90
  -3   6  -6  220.48   21.50
  -3   6  -6  212.08    8.10
  -3   6  -6  208.28    9.30
   4  -6   6  133.59   23.40
   4  -6   6  109.89   12.90
  -4  -6  -6  121.89    5.60
  -4  -6  -6  135.19   15.60
  -4  -6  -6  108.59   16.50
   4  -6   6  142.79    7.50
   4  -6   6  125.09    6.00
  -4  -6  -6  123.99    5.80
  -4  -6  -6  137.79   17.10
  -4   6  -6  129.29   13.10
   4   6   6  122.69    7.20
  -4   6  -6  138.39   19.50
  -4   6  -6  141.69   24.30
   4   6   6  127.19    6.00
  -4   6  -6  112.29   12.60
  -4   6  -6  123.79    5.80
  -5  -6  -6   33.70   10.90
  -5  -6  -6   38.80   15.00
   5  -6   6   37.80   18.30
  -5  -6  -6   38.80   12.00
   5  -6   6   29.40   13.50
  -5  -6  -6   31.30    3.40
  -5   6  -6   42.00   10.20
  -5   6  -6   40.20   13.90
  -5   6  -6   42.20   19.00
  -5   6  -6   39.00   15.20
   5   6   6   28.10    3.90
  -6  -6  -6   79.19   20.90
   6  -6   6   80.19   23.10
  -6  -6  -6   73.19   15.10
   6  -6   6   57.49   17.00
  -6  -6  -6   77.39    5.90
  -6  -6  -6   71.79   14.20
  -6   6  -6   73.49   17.60
  -6   6  -6   68.69   22.60
  -6   6  -6   68.99   16.70
  -6   6  -6   82.99   13.20
   6  -7  -6   64.59   17.00
  -6  -7   6   63.69   18.60
  -6  -7   6   50.19    5.10
  -6  -7   6   64.89   13.50
  -6  -7   6   57.89   13.80
   6  -7  -6   67.59   17.20
   6  -7  -6   60.39   21.30
  -6   7   6   52.99   14.70
  -6   7   6   42.70   16.70
   5  -7  -6  260.87   28.00
   5  -7  -6  226.78   10.60
  -5  -7   6  238.38   27.30
   5  -7  -6  228.58   24.20
  -5  -7   6  208.28   11.50
  -5  -7   6  242.98   19.90
   5  -7  -6  231.48   22.30
  -5  -7   6  231.38    8.70
  -5  -7   6  231.68    9.90
  -5  -7   6  231.68   21.80
  -5   7   6  273.17   28.90
  -5   7   6  246.18   24.80
  -5   7   6  212.38    8.60
  -5   7   6  240.58   21.40
   5   7  -6  238.08    8.70
   4  -7  -6    3.40   11.00
  -4  -7   6    8.50    2.60
  -4  -7   6   13.40    9.50
   4  -7  -6    3.20   11.20
   4  -7  -6    7.50   13.20
  -4  -7   6   14.30    1.90
  -4  -7   6   11.90    9.60
   4  -7  -6    6.50    2.80
  -4  -7   6    7.10   12.20
   4  -7  -6   10.40   18.10
  -4   7   6   24.80   14.10
  -4   7   6   13.50    9.70
  -4   7   6    4.00   11.70
  -4   7   6    7.30    2.20
   4   7  -6   11.80    1.70
   4   7  -6   13.60    2.40
  -3  -7   6  665.73   22.90
   3  -7  -6  714.83   22.60
  -3  -7   6  712.83   31.00
   3  -7  -6  698.63   26.90
  -3  -7   6  695.23   22.00
   3  -7  -6  697.03   28.90
  -3  -7   6  709.83   26.70
   3  -7  -6  684.13   22.70
  -3  -7   6  721.83   22.60
   3  -7  -6  705.03   29.50
   3  -7  -6  715.33   28.60
   3  -7  -6  724.63   23.80
  -3  -7   6  706.03   27.10
   3   7  -6  732.43   22.70
  -3   7   6  704.13   25.30
  -3   7   6  696.63   29.90
  -3   7   6  712.23   23.80
   3   7  -6  695.63   23.00
  -3   7   6  670.53   27.80
   2  -7  -6  213.68    8.90
  -2  -7   6  210.68    7.10
  -2  -7   6  216.98   17.00
  -2  -7   6  216.78   20.60
  -2  -7   6  203.88    8.50
   2  -7  -6  207.68   15.80
   2  -7  -6  209.08    7.80
  -2  -7   6  203.88    7.80
  -2  -7   6  204.58   15.00
   2  -7  -6  205.58   18.30
   2  -7  -6  213.88   17.30
   2  -7  -6  212.08   17.00
   2  -7  -6  202.48    7.90
  -2   7   6  192.28    8.50
  -2   7   6  181.78   17.50
   2   7  -6  197.18    8.30
  -2   7   6  199.48   16.20
  -2   7   6  198.68   12.40
   2   7  -6  204.68   17.00
  -2   7   6  199.48    7.10
  -2   7   6  211.18    8.50
  -1  -7   6  257.87   15.30
  -1  -7   6  259.37   18.10
  -1  -7   6  249.68    8.00
   1  -7  -6  258.27   18.60
   1  -7  -6  257.97    9.90
  -1  -7   6  258.97   10.00
   1  -7  -6  255.27   17.70
  -1  -7   6  252.07    9.30
   1  -7  -6  245.28    9.70
   1  -7  -6  268.97    9.10
   1  -7  -6  248.28   16.50
  -1  -7   6  253.87   19.80
   1  -7  -6  257.97   15.50
  -1   7   6  272.77   10.70
  -1   7   6  233.28   16.50
   1   7  -6  251.67    7.80
  -1   7   6  244.18   10.50
  -1   7   6  265.07   15.80
  -1   7   6  246.98    9.70
   1   7  -6  246.28    9.90
   1   7  -6  250.67    8.20
  -1   7   6  249.18    8.00
   1   7  -6  251.17   18.20
   1   7  -6  245.18   11.20
   0  -7   6  513.65   16.40
   0  -7   6  509.15   17.30
   0  -7  -6  493.25   20.00
   0  -7  -6  505.75   22.90
   0  -7   6  481.95   20.20
   0  -7   6  474.15   23.50
   0  -7  -6  488.75   23.00
   0  -7   6  519.35   17.00
   0  -7  -6  501.75   15.30
   0  -7  -6  503.35   15.80
   0  -7  -6  491.15   20.60
   0  -7  -6  496.35   16.70
   0   7  -6  492.85   15.30
   0   7   6  497.25   16.40
   0   7  -6  481.55   18.00
   0   7   6  486.95   16.80
   0   7  -6  498.35   17.10
   0   7  -6  509.65   15.90
   0   7  -6  476.35   23.20
   0   7   6  466.05   18.40
   0   7   6  479.45   19.50
   1  -7   6    9.50    2.40
   1  -7   6    9.80    7.30
   1  -7   6    5.30    2.00
   1  -7   6   11.60    8.20
  -1  -7  -6    9.60    9.20
  -1  -7  -6    7.20    1.80
   1  -7   6    3.80    2.00
   1  -7   6    7.80   10.70
  -1  -7  -6    6.90    9.30
  -1  -7  -6   14.70    7.40
  -1  -7  -6   16.60    2.30
  -1  -7  -6    7.40    7.30
  -1  -7  -6    8.50    1.30
  -1   7  -6    5.10    2.20
   1   7   6   13.80    2.20
  -1   7  -6   14.00    7.40
  -1   7  -6   10.60    1.60
   1   7   6   11.20    1.60
  -1   7  -6   10.90    1.50
   1   7   6    8.30    6.70
  -1   7  -6    7.80   10.70
   2  -7   6  512.95   18.60
   2  -7   6  470.05   25.60
   2  -7   6  502.05   21.80
  -2  -7  -6  497.55   25.50
  -2  -7  -6  461.35   20.20
  -2  -7  -6  480.25   25.20
  -2  -7  -6  520.65   17.20
   2  -7   6  495.15   22.10
  -2  -7  -6  426.16   19.50
  -2  -7  -6  477.05   16.10
   2  -7   6  496.25   16.50
   2  -7   6  484.65   16.80
  -2   7  -6  500.45   16.30
  -2   7  -6  475.05   26.00
  -2   7  -6  489.15   21.80
   2   7   6  488.95   15.90
  -2   7  -6  488.05   23.70
  -2   7  -6  508.35   15.80
   3  -7   6   74.09   15.10
   3  -7   6   69.29   12.10
  -3  -7  -6   98.59   14.20
  -3  -7  -6   71.49    4.00
   3  -7   6   76.39    6.80
  -3  -7  -6   83.39    9.50
  -3  -7  -6   96.99   14.50
   3  -7   6   69.79   11.10
  -3  -7  -6   70.29    4.10
  -3   7  -6   83.49    4.50
  -3   7  -6   83.69   13.10
  -3   7  -6   72.99   15.10
  -3   7  -6   93.29    4.30
  -3   7  -6   84.39   11.30
   3   7   6   77.99    3.80
  -4  -7  -6   62.19   10.40
  -4  -7  -6   67.99   15.80
  -4  -7  -6   61.19    4.90
   4  -7   6   50.19   13.00
   4  -7   6   65.79   17.40
  -4  -7  -6   51.89    3.90
   4  -7   6   61.49   13.80
  -4  -7  -6   62.69   10.20
  -4   7  -6   58.89   17.00
  -4   7  -6   75.39   15.00
  -4   7  -6   61.39   13.30
  -4   7  -6   69.39    7.60
  -5  -7  -6   91.09   12.80
   5  -7   6   93.49   15.90
  -5  -7  -6   81.79   12.40
  -5  -7  -6   80.69    4.90
  -5  -7  -6   84.09   18.20
   5  -7   6   83.09   20.00
  -5   7  -6   73.69   10.10
  -5   7  -6   75.09   15.80
   5   7   6   62.49    4.20
  -5   7  -6  102.29   17.20
  -5  -8   6    5.60    4.70
  -5  -8   6    4.10    3.90
  -5  -8   6    9.10   12.20
  -5  -8   6   20.10   16.80
   5  -8  -6    3.60   15.00
   5  -8  -6    4.40   18.40
   5  -8  -6   -1.00    3.90
  -5  -8   6   10.20    2.60
   5  -8  -6    8.80   15.80
  -5   8   6   10.50   12.70
  -5   8   6   22.70   19.10
  -5   8   6    5.00    2.70
  -5   8   6    5.70   15.30
   4  -8  -6  317.27   12.20
  -4  -8   6  309.27   12.10
   4  -8  -6  362.06   26.30
  -4  -8   6  342.07   20.50
  -4  -8   6  335.67   21.00
   4  -8  -6  331.57   23.00
   4  -8  -6  346.97   25.00
  -4  -8   6  324.27   12.10
  -4  -8   6  355.36   28.30
   4  -8  -6  326.07   14.00
   4  -8  -6  331.97   27.90
  -4   8   6  338.37   25.70
  -4   8   6  335.67   20.40
  -4   8   6  384.96   28.90
   3  -8  -6   19.00    2.60
   3  -8  -6   25.20    2.60
  -3  -8   6   24.30    9.90
  -3  -8   6   27.60   14.90
  -3  -8   6   20.50    3.20
  -3  -8   6   17.20   10.10
   3  -8  -6   24.70   10.90
  -3  -8   6   29.00    3.40
   3  -8  -6   27.30   11.80
   3  -8  -6   21.40    3.60
   3  -8  -6   17.80   12.80
   3  -8  -6   22.90   13.10
  -3   8   6   28.30   16.70
  -3   8   6   44.80   14.20
  -3   8   6   18.60    8.20
  -3   8   6   20.60    2.60
  -3   8   6   31.60    4.20
   3   8  -6   22.30    3.30
  -2  -8   6  208.98    8.90
   2  -8  -6  215.68    8.40
   2  -8  -6  228.68   19.90
   2  -8  -6  217.18   19.40
   2  -8  -6  219.78    8.20
  -2  -8   6  231.98    7.40
  -2  -8   6  222.58    8.30
  -2  -8   6  220.18   18.60
   2  -8  -6  209.48   20.60
  -2  -8   6  213.88   28.20
   2  -8  -6  226.28   17.70
  -2  -8   6  215.08   17.20
   2  -8  -6  218.98    9.40
  -2   8   6  223.48   19.40
   2   8  -6  211.88    8.60
  -2   8   6  208.48    7.30
   2   8  -6  209.78    8.40
  -2   8   6  208.28   12.00
  -2   8   6  236.08   20.30
  -2   8   6  233.58    9.00
  -1  -8   6  165.78    6.70
  -1  -8   6  131.69   25.50
  -1  -8   6  160.38   18.60
   1  -8  -6  149.49   15.00
   1  -8  -6  149.69    6.10
   1  -8  -6  153.48   18.50
   1  -8  -6  149.09    6.50
  -1  -8   6  156.38    7.10
  -1  -8   6  148.49   15.40
   1  -8  -6  148.29   16.50
   1  -8  -6  144.89    7.00
  -1   8   6  143.99   16.60
   1   8  -6  167.78   18.50
  -1   8   6  154.98    6.90
  -1   8   6  161.18    7.20
  -1   8   6  173.38   16.70
   1   8  -6  158.78    5.50
   1   8  -6  163.58    7.00
   0  -8   6   68.99   12.00
   0  -8  -6   75.49   11.80
   0  -8  -6   65.69    3.40
   0  -8   6   68.29    4.70
   0  -8  -6   83.59    9.30
   0  -8   6   84.69    8.50
   0  -8  -6   75.19    4.50
   0  -8  -6   80.99    9.50
   0  -8   6   73.39    5.30
   0  -8  -6   86.89   12.30
   0  -8   6   73.39    9.80
   0  -8  -6   80.29    4.10
   0   8   6   95.19    5.00
   0   8  -6   67.69    5.20
   0   8   6   80.39    4.30
   0   8   6   81.79    9.90
   0   8  -6   81.89    2.90
   0   8   6   81.09    3.90
   0   8  -6   71.89    3.70
   0   8  -6   57.99   11.50
   0   8  -6   73.49    8.20
  -1  -8  -6  273.07   24.80
  -1  -8  -6  277.47   16.70
  -1  -8  -6  292.67    9.80
  -1  -8  -6  276.97   10.30
  -1  -8  -6  276.07   16.10
  -1  -8  -6  276.67   21.60
   1  -8   6  287.87   10.80
   1  -8   6  296.27   18.70
   1  -8   6  294.77   17.70
  -1  -8  -6  278.47    9.00
   1  -8   6  283.17   11.30
   1  -8   6  291.47   21.40
  -1   8  -6  291.77    9.70
  -1   8  -6  284.17   15.40
   1   8   6  276.27   16.20
   1   8   6  288.37   10.10
  -1   8  -6  272.87   22.30
  -1   8  -6  296.37   10.10
   1   8   6  291.87   10.90
   2  -8   6    6.30   10.20
  -2  -8  -6    8.00   20.30
   2  -8   6    9.40   10.50
   2  -8   6    5.60    2.30
  -2  -8  -6   10.20    1.90
  -2  -8  -6   11.80   12.50
   2  -8   6    5.10   12.80
  -2  -8  -6    8.20    7.60
  -2  -8  -6    7.10    2.10
  -2   8  -6   10.00   14.20
  -2   8  -6   10.90   11.90
  -2   8  -6    4.90    1.50
   2   8   6    3.40    1.80
   2   8   6    3.00    1.20
   3  -8   6  193.48   26.10
  -3  -8  -6  166.38    6.80
  -3  -8  -6  197.18    7.30
   3  -8   6  204.28   22.50
  -3  -8  -6  168.48   24.80
  -3  -8  -6  180.88   17.70
  -3  -8  -6  193.18   25.70
  -3  -8  -6  184.48   14.30
   3  -8   6  188.68   21.80
  -3   8  -6  191.58   26.90
   3   8   6  182.18    6.90
  -3   8  -6  180.58   23.40
  -3   8  -6  179.18    7.10
  -3   8  -6  185.58   20.80
   4  -8   6   45.60   14.70
  -4  -8  -6   26.10    3.70
  -4  -8  -6   46.50   10.90
  -4  -8  -6   41.70   17.00
   4  -8   6   39.10   18.00
   4  -8   6   37.90   15.00
  -4  -8  -6   21.60    8.50
  -4   8  -6   41.40   15.80
  -4   8  -6   47.50   15.80
  -4   8  -6   33.60   19.10
  -5  -8  -6   11.50   13.20
  -5  -8  -6    8.70   12.20
  -5  -8  -6   10.10    4.20
   5  -8   6    2.60   17.50
  -5  -8  -6   18.10   10.80
   5  -8   6    7.90   22.00
  -5  -8  -6   -8.30   20.00
   5  -8   6   12.00   18.50
  -5   8  -6    5.90   18.50
  -5   8  -6    6.10   16.90
  -5   8  -6   15.80   25.70
  -5   8  -6    3.80   11.00
   4  -9  -6   15.30   16.60
   4  -9  -6   11.00   14.50
  -4  -9   6   18.70   12.30
  -4  -9   6   10.90   19.20
  -4  -9   6   11.30    2.70
   4  -9  -6    6.00   15.60
  -4  -9   6   16.30   10.60
   4  -9  -6    9.90   21.30
   4  -9  -6   17.70    4.00
  -4  -9   6    9.90    2.70
  -4   9   6   11.50   17.00
  -4   9   6   15.50   18.20
  -4   9   6   16.50   11.40
  -3  -9   6  222.18   30.60
  -3  -9   6  206.78    8.30
   3  -9  -6  214.08   23.20
   3  -9  -6  210.98   25.50
   3  -9  -6  169.88   12.00
   3  -9  -6  199.48    8.20
   3  -9  -6  210.38   24.90
  -3  -9   6  198.28   18.60
  -3  -9   6  189.78    7.90
  -3  -9   6  199.28   20.60
  -3  -9   6  217.58    7.30
  -3   9   6  192.68   15.30
  -3   9   6  211.18   25.60
  -3   9   6  225.18   25.70
  -2  -9   6  123.69   18.10
  -2  -9   6  137.59    6.10
  -2  -9   6  134.59   18.10
   2  -9  -6  118.59    6.60
   2  -9  -6  112.29    6.00
   2  -9  -6  117.19    6.40
  -2  -9   6  118.49    5.90
   2  -9  -6  137.79   18.70
   2  -9  -6  102.29   13.90
   2  -9  -6  132.09   21.10
   2  -9  -6  137.29   14.10
  -2  -9   6  137.59   19.10
  -2   9   6  113.79    6.20
  -2   9   6  142.89   15.30
  -2   9   6  150.68   22.10
  -1  -9   6   99.79   11.30
   1  -9  -6   84.59    4.60
  -1  -9   6   95.19   12.80
  -1  -9   6   86.59    5.70
  -1  -9   6   99.09    5.50
   1  -9  -6  114.19   14.00
   1  -9  -6   89.69    5.10
   1  -9  -6  106.39   14.60
   1  -9  -6   96.39   11.50
  -1  -9   6  109.79   17.60
   1  -9  -6   96.39   11.90
   1  -9  -6   87.69    5.50
  -1   9   6   88.49   12.60
  -1   9   6   96.99    5.50
   1   9  -6  101.39    4.00
   0  -9   6  167.48   27.10
   0  -9   6  216.48   16.50
   0  -9   6  210.68   18.30
   0  -9  -6  209.18   22.10
   0  -9  -6  228.38   23.70
   0  -9   6  190.98    8.40
   0  -9  -6  208.78   17.00
   0  -9  -6  224.98    7.90
   0  -9   6  215.68    8.80
   0  -9  -6  204.78    8.30
   0  -9  -6  215.98   17.80
   0   9   6  214.48   18.80
   0   9   6  205.88    8.80
   0   9  -6  203.38    7.60
   0   9  -6  199.58   21.80
   0   9   6  215.88    8.10
  -1  -9  -6    5.50   12.00
   1  -9   6    2.20   13.40
  -1  -9  -6    7.50    1.80
  -1  -9  -6    4.40    7.70
  -1  -9  -6    7.20    9.60
   1  -9   6    5.80   10.20
  -1  -9  -6    5.60    8.30
   1  -9   6    8.30   11.10
  -1  -9  -6    2.50   12.70
   1  -9   6    6.10    2.50
  -1  -9  -6    4.20    1.30
  -1   9  -6    2.50   13.40
   1   9   6   11.10   10.00
   1   9   6    8.30    1.70
  -1   9  -6    6.90    6.60
  -1   9  -6    8.70    1.80
  -2  -9  -6  146.79   22.70
  -2  -9  -6  136.49   19.90
  -2  -9  -6  162.38   13.40
   2  -9   6  181.68   21.20
  -2  -9  -6  180.48    6.70
   2  -9   6  149.49   16.60
  -2  -9  -6  185.48   26.00
  -2  -9  -6  166.68   17.30
   2  -9   6  181.58   26.30
  -2   9  -6  180.68   26.80
  -2   9  -6  157.08    6.80
  -2   9  -6  175.58   25.60
   2   9   6  168.08    7.10
  -2   9  -6  168.78   17.30
  -2   9  -6  183.28    7.60
  -3  -9  -6   77.59    4.70
   3  -9   6   63.89   15.00
   3  -9   6   60.79   14.90
  -3  -9  -6   61.69    9.30
   3  -9   6   70.79   19.10
  -3  -9  -6   67.69   18.00
  -3  -9  -6   76.39   17.40
  -3   9  -6   73.89   13.70
  -3   9  -6   80.29    4.60
  -3   9  -6   66.79   17.70
  -3   9  -6   59.49   18.60
   4  -9   6   62.19   22.80
  -4  -9  -6   60.19   13.40
  -4  -9  -6   69.09   20.90
   4  -9   6   72.99   18.50
   4  -9   6   51.29   17.40
  -4  -9  -6   44.10   18.50
   4  -9   6   66.29    8.20
  -4   9  -6   44.50   27.00
  -4   9  -6   56.29   22.10
  -4   9  -6   67.69   20.70
   3 -10  -6   20.50   15.00
  -3 -10   6   19.90    9.90
  -3 -10   6   17.00   13.50
  -3 -10   6   17.50   11.60
   3 -10  -6   33.10   17.90
  -3 -10   6   19.20   20.60
  -3 -10   6   12.50    3.30
  -3  10   6   40.50   18.70
  -3  10   6   11.80   16.60
  -2 -10   6   94.89    6.50
  -2 -10   6   64.09   13.30
  -2 -10   6   89.99    5.00
   2 -10  -6   74.79   16.50
   2 -10  -6   68.79   14.50
   2 -10  -6   85.59   15.00
   2 -10  -6   83.09    6.90
  -2 -10   6   75.89   19.80
   2 -10  -6   78.49   14.60
  -2  10   6   66.99   15.50
  -2  10   6   62.49   16.30
   1 -10  -6  104.29   16.30
  -1 -10   6  108.89   14.50
   1 -10  -6  118.39    6.30
   1 -10  -6  100.59   15.40
   1 -10  -6  103.39    5.40
  -1 -10   6  101.29   18.40
  -1 -10   6  108.19    6.10
  -1 -10   6  118.99   15.40
   1 -10  -6  126.09   13.40
   1 -10  -6  130.49   20.40
  -1 -10   6  130.09   13.90
  -1 -10   6  110.39    6.00
   1 -10  -6  108.99    5.80
   0 -10   6   20.40    3.10
   0 -10  -6   22.50    2.20
   0 -10  -6   20.50   14.70
   0 -10  -6   25.70   11.70
   0 -10   6   16.80   18.50
   0 -10   6   22.60   12.40
   0 -10   6   27.20   10.80
   0 -10  -6   20.80   16.80
   0 -10   6   21.40   14.50
   0 -10  -6   20.60   10.20
   0 -10  -6   19.90    3.00
   0  10  -6   27.60    3.20
   0  10  -6   20.80   14.30
   0  10   6   21.80   13.00
   1 -10   6  168.08   21.30
  -1 -10  -6  158.58    5.90
  -1 -10  -6  156.98   18.90
  -1 -10  -6  154.58   15.30
  -1 -10  -6  182.18   19.40
  -1 -10  -6  155.08   18.30
  -1 -10  -6  170.88   17.00
  -1 -10  -6  154.78    6.60
   1 -10   6  156.28   27.40
  -1  10  -6  155.68   26.90
   1  10   6  145.19   20.70
  -1  10  -6  156.88    6.60
  -2 -10  -6   -2.90   16.30
   2 -10   6   12.30   17.70
  -2 -10  -6   -2.40   15.40
   2 -10   6    5.60   14.40
   2 -10   6    6.20   22.00
  -2 -10  -6    5.60   11.70
  -2  10  -6    2.60   18.90
  -2  10  -6    3.00    9.20
  -8   0   7   42.90   19.90
  -7   0   7  363.76   28.50
   7   0  -7  373.46   31.50
  -7   0   7  377.56   26.30
   7   0  -7  367.36   23.90
   7   0  -7  366.36   20.10
  -7   0   7  349.67   15.30
  -7   0   7  382.36   12.50
  -7   0   7  406.86   30.30
  -6   0   7   38.70   14.20
   6   0  -7   25.50   13.70
  -6   0   7   25.90    4.10
   6   0  -7   33.00   10.30
  -6   0   7   34.30   14.90
  -6   0   7   32.90   15.70
   6   0  -7   35.00    7.70
   5   0  -7  858.61   28.20
  -5   0   7  838.12   30.10
  -5   0   7  878.41   28.40
  -5   0   7  869.61   27.40
   5   0  -7  832.42   27.60
  -5   0   7  784.62   26.60
   5   0  -7  816.42   33.00
   5   0  -7  869.51   27.30
   5   0  -7  854.41   26.60
   5   0  -7  839.52   29.80
  -5   0   7  878.61   31.80
  -5   0   7  837.92   32.70
   4   0  -7  937.81   31.30
  -4   0   7  922.41   31.60
  -4   0   7  927.11   29.30
   4   0  -7  980.40   30.90
   4   0  -7  906.61   33.80
  -4   0   7  917.81   33.70
   4   0  -7  955.80   29.60
  -4   0   7  989.00   30.90
  -4   0   7  969.90   30.10
  -4   0   7  940.71   32.70
   4   0  -7  978.70   29.80
   4   0  -7  917.91   29.70
   3   0  -7  549.54   19.00
   3   0  -7  558.64   21.70
  -3   0   7  547.85   21.50
  -3   0   7  541.75   20.80
   3   0  -7  534.45   23.00
  -3   0   7  572.74   18.50
  -3   0   7  577.74   18.60
   3   0  -7  550.94   20.80
   3   0  -7  585.44   19.30
   3   0  -7  563.64   18.30
   3   0  -7  583.94   18.50
  -3   0   7  579.34   19.50
  -3   0   7  547.75   22.90
  -2   0   7 1860.81   55.59
   2   0  -7 1798.82   56.49
   2   0  -7 1941.01   56.59
   2   0  -7 1827.42   55.29
  -2   0   7 1832.32   56.19
  -2   0   7 1816.02   56.19
  -2   0   7 1900.31   56.49
   2   0  -7 1843.12   57.79
   2   0  -7 1903.61   55.29
   2   0  -7 1841.02   55.99
  -2   0   7 1792.22   57.59
   2   0  -7 1891.91   55.39
  -1   0   7   55.09    6.70
   1   0  -7   52.09    3.30
  -1   0   7   63.79    9.20
   1   0  -7   54.29    4.00
  -1   0   7   60.79    3.40
   1   0  -7   39.40    6.10
   1   0  -7   55.39    6.70
  -1   0   7   54.89    4.00
  -1   0   7   55.99    6.10
   1   0  -7   55.29    3.00
  -1   0   7   46.60    3.40
   1   0  -7   68.09    9.30
   0   0  -7 1741.73   54.19
   0   0   7 1834.72   54.69
   0   0  -7 1888.51   53.69
   0   0   7 1752.02   55.79
   0   0   7 1763.52   53.59
   0   0  -7 1849.02   54.89
   0   0  -7 1733.83   54.49
   0   0   7 1716.53   54.19
   0   0  -7 1761.22   55.79
   0   0   7 1817.82   53.49
   0   0   7 1866.61   53.89
  -1   0  -7  361.26   16.10
  -1   0  -7  353.46   17.60
  -1   0  -7  365.06   13.90
  -1   0  -7  377.36   12.50
   1   0   7  364.86   12.80
   1   0   7  378.06   12.50
  -1   0  -7  359.06   15.60
   1   0   7  371.26   11.60
   1   0   7  385.36   14.30
   1   0   7  362.46   13.60
   1   0   7  366.36   18.20
   1   0   7  365.96   15.90
   2   0   7  683.53   22.70
   2   0   7  725.33   21.30
  -2   0  -7  743.53   22.60
   2   0   7  695.53   27.10
   2   0   7  720.03   23.60
  -2   0  -7  705.63   26.80
  -2   0  -7  667.83   25.10
  -2   0  -7  727.23   23.80
   2   0   7  737.03   22.40
   2   0   7  695.13   24.30
   2   0   7  715.73   22.80
  -2   0  -7  705.53   25.10
   3   0   7 1306.07   40.10
  -3   0  -7 1219.98   40.80
   3   0   7 1309.17   38.60
  -3   0  -7 1219.68   42.50
   3   0   7 1217.48   40.00
  -3   0  -7 1301.87   38.90
   3   0   7 1221.38   42.50
  -3   0  -7 1323.27   39.40
  -3   0  -7 1355.06   40.40
  -3   0  -7 1239.28   40.40
   3   0   7 1250.27   37.30
  -4   0  -7    6.60    9.40
  -4   0  -7    1.50   10.60
  -4   0  -7    3.90    2.40
   4   0   7    1.10    8.00
   4   0   7    3.70    1.60
  -4   0  -7    1.80    8.60
   4   0   7    8.70   11.50
  -4   0  -7    2.80    1.90
  -5   0  -7  235.78   37.90
   5   0   7  265.37   24.00
  -5   0  -7  264.47   10.30
  -5   0  -7  278.07   19.40
   5   0   7  250.57    9.30
  -5   0  -7  258.77   11.60
   5   0   7  259.87    9.60
   5   0   7  263.17   18.40
  -5   0  -7  268.27   20.70
  -6   0  -7  158.78   23.50
  -6   0  -7  166.48   27.10
  -6   0  -7  177.38   23.10
   6   0   7  178.18   20.10
   6   0   7  150.38    6.60
   6   0   7  168.78   28.90
  -6   0  -7  172.58    9.10
   6   0   7  170.18    7.00
   7   0   7    8.30   14.50
  -7   0  -7   14.60   16.50
  -7   0  -7   13.20   21.40
  -7   0  -7    2.20   16.60
   7   0   7   14.40   22.30
  -7  -1   7   23.20   14.60
  -7  -1   7   25.20   13.50
   7  -1  -7   28.90   13.50
   7  -1  -7   27.80   18.20
  -7  -1   7   20.30   15.80
  -7  -1   7   20.60    4.50
   7  -1  -7   26.20   10.60
   7   1  -7   19.90    2.90
   7   1  -7   29.50   17.50
   7   1  -7   22.00   12.20
  -7   1   7   26.20    3.60
   7   1  -7   28.00    8.70
  -7   1   7   26.00   14.10
  -7   1   7   45.40   17.70
  -7   1   7   22.60   15.00
  -6  -1   7  689.43   40.30
   6  -1  -7  740.93   29.10
  -6  -1   7  743.23   25.30
   6  -1  -7  736.73   26.90
  -6  -1   7  704.63   31.70
  -6  -1   7  715.53   31.10
   6  -1  -7  739.63   34.10
  -6   1   7  723.23   29.00
   6   1  -7  710.23   27.90
   6   1  -7  728.23   24.70
  -6   1   7  743.33   22.90
   6   1  -7  730.13   32.80
  -6   1   7  733.13   25.40
   6   1  -7  760.72   24.00
  -6   1   7  689.63   34.00
  -5  -1   7  275.27   11.20
  -5  -1   7  269.77   16.80
   5  -1  -7  242.98   20.10
  -5  -1   7  253.57   19.60
   5  -1  -7  270.27    9.70
   5  -1  -7  273.57   11.10
   5  -1  -7  253.47   17.50
  -5  -1   7  275.57   10.40
   5  -1  -7  273.47   10.20
  -5  -1   7  248.88    9.80
   5  -1  -7  243.38   14.30
  -5  -1   7  268.67   19.50
   5   1  -7  258.07   10.40
  -5   1   7  247.88   19.90
  -5   1   7  279.37   19.00
   5   1  -7  250.27   20.70
   5   1  -7  249.58   15.90
  -5   1   7  258.57   12.70
  -5   1   7  254.87   16.80
   5   1  -7  261.57   10.00
   5   1  -7  246.58   12.10
   4  -1  -7  403.26   15.20
   4  -1  -7  404.86   18.40
  -4  -1   7  393.36   19.80
  -4  -1   7  404.36   15.00
   4  -1  -7  390.46   19.30
   4  -1  -7  402.06   16.30
  -4  -1   7  387.36   20.40
   4  -1  -7  417.36   13.90
   4  -1  -7  387.06   21.40
  -4  -1   7  430.16   14.40
   4  -1  -7  419.76   14.10
  -4  -1   7  396.66   17.90
  -4  -1   7  421.66   14.40
   4   1  -7  399.76   15.40
  -4   1   7  413.66   14.30
   4   1  -7  398.86   17.60
   4   1  -7  402.46   14.60
  -4   1   7  398.26   13.70
  -4   1   7  410.66   19.40
   4   1  -7  418.46   15.00
   4   1  -7  419.06   13.90
  -4   1   7  408.96   15.10
   4   1  -7  397.06   20.60
  -4   1   7  401.86   21.30
  -4   1   7  407.46   17.90
  -3  -1   7 1509.75   46.10
  -3  -1   7 1447.56   47.60
   3  -1  -7 1461.75   45.20
  -3  -1   7 1443.66   46.60
   3  -1  -7 1459.35   45.90
  -3  -1   7 1543.75   45.10
  -3  -1   7 1445.26   46.20
   3  -1  -7 1586.24   45.50
   3  -1  -7 1517.05   46.00
   3  -1  -7 1559.74   44.90
   3  -1  -7 1477.55   47.90
  -3  -1   7 1491.35   44.80
   3  -1  -7 1436.76   46.70
   3   1  -7 1529.25   44.80
  -3   1   7 1510.15   44.80
  -3   1   7 1440.06   45.90
   3   1  -7 1514.05   45.10
  -3   1   7 1548.25   46.10
   3   1  -7 1449.85   45.70
  -3   1   7 1457.35   47.80
   3   1  -7 1454.25   44.30
  -3   1   7 1503.55   45.20
   3   1  -7 1369.06   47.20
  -3   1   7 1470.55   46.30
   3   1  -7 1505.25   45.90
   3   1  -7 1455.55   46.40
   2  -1  -7  187.18    7.30
  -2  -1   7  192.38    7.50
  -2  -1   7  187.58   12.50
   2  -1  -7  177.68   12.90
   2  -1  -7  186.58   11.70
  -2  -1   7  172.08   11.90
  -2  -1   7  188.88   14.70
   2  -1  -7  182.48   14.40
   2  -1  -7  192.38    8.30
   2  -1  -7  185.58   10.80
  -2  -1   7  199.38    8.40
   2   1  -7  198.38    7.40
  -2   1   7  186.48   11.70
   2   1  -7  200.88   11.80
   2   1  -7  210.18    7.50
   2   1  -7  203.58   12.00
  -2   1   7  195.18   14.50
  -2   1   7  188.98    8.40
   2   1  -7  190.88   15.00
  -2   1   7  191.78   11.70
   2   1  -7  187.78    9.70
  -2   1   7  199.38    7.80
   2   1  -7  191.58    8.40
   1  -1  -7 1853.31   58.89
  -1  -1   7 1942.61   57.79
  -1  -1   7 1871.81   59.99
  -1  -1   7 1975.30   57.99
   1  -1  -7 1873.71   58.49
  -1  -1   7 2001.50   59.09
  -1  -1   7 1872.11   58.49
  -1  -1   7 1906.71   58.49
   1  -1  -7 1939.61   59.29
   1  -1  -7 1908.41   60.09
   1  -1  -7 2014.00   57.89
   1  -1  -7 1938.91   57.39
   1   1  -7 2058.09   57.99
  -1   1   7 2118.49   58.89
  -1   1   7 2053.19   59.09
   1   1  -7 2014.70   59.09
  -1   1   7 1873.31   58.39
  -1   1   7 1845.42   57.99
   1   1  -7 1900.51   58.59
   1   1  -7 1943.81   60.09
   1   1  -7 1874.91   58.59
  -1   1   7 1948.80   60.09
  -1   1   7 1958.70   57.69
   0  -1   7  200.58   10.90
   0  -1   7  218.18    7.70
   0  -1   7  209.08    8.90
   0  -1  -7  207.58   11.70
   0  -1  -7  202.18   14.20
   0  -1  -7  212.68    7.80
   0  -1  -7  208.78    8.60
   0  -1   7  204.58   14.30
   0  -1   7  191.98    8.30
   0  -1  -7  183.78   12.50
   0  -1   7  198.78   11.90
   0   1   7  192.78    9.70
   0   1  -7  187.98   11.40
   0   1   7  198.18   14.20
   0   1  -7  209.38    8.70
   0   1  -7  195.68   14.00
   0   1   7  204.18    8.00
   0   1   7  189.58   11.90
   0   1   7  202.88    7.40
   0   1  -7  195.88   11.70
   0   1  -7  196.18    8.20
   1  -1   7 1001.70   33.10
   1  -1   7 1061.29   31.20
  -1  -1  -7 1085.29   32.00
  -1  -1  -7  995.50   33.80
   1  -1   7 1062.69   33.10
   1  -1   7 1072.09   31.90
   1  -1   7  996.90   35.00
   1  -1   7 1020.80   32.40
  -1  -1  -7 1025.40   34.90
  -1  -1  -7 1014.90   33.30
   1  -1   7 1041.40   31.90
  -1  -1  -7 1070.69   33.10
   1   1   7 1030.50   32.30
  -1   1  -7 1074.29   33.30
  -1   1  -7 1040.80   33.30
  -1   1  -7 1018.80   33.20
  -1   1  -7 1053.99   31.90
   1   1   7 1061.89   32.90
  -1   1  -7  995.50   34.90
   1   1   7 1062.59   31.80
   1   1   7 1031.10   35.10
   1   1   7 1021.60   33.10
   1   1   7 1028.30   31.50
  -2  -1  -7 1283.47   39.50
   2  -1   7 1256.17   38.40
  -2  -1  -7 1219.88   40.10
   2  -1   7 1204.18   39.30
  -2  -1  -7 1244.48   39.60
  -2  -1  -7 1308.47   38.20
   2  -1   7 1261.07   37.20
   2  -1   7 1273.57   39.40
   2  -1   7 1285.77   40.10
  -2  -1  -7 1210.88   41.10
   2  -1   7 1230.48   41.60
   2   1   7 1241.78   39.20
   2   1   7 1239.08   37.80
  -2   1  -7 1217.98   41.50
   2   1   7 1240.98   36.50
   2   1   7 1202.28   37.30
  -2   1  -7 1286.37   38.40
  -2   1  -7 1373.46   40.60
  -2   1  -7 1176.58   39.60
  -2   1  -7 1225.28   39.60
   2   1   7 1233.28   41.40
   2   1   7 1242.58   38.70
   2   1   7 1259.27   39.30
  -2   1  -7 1318.87   39.70
  -3  -1  -7    5.00    7.10
   3  -1   7    6.00    7.00
   3  -1   7    5.30    9.40
  -3  -1  -7    2.20    8.30
   3  -1   7    9.50    1.20
  -3  -1  -7    6.40    8.60
  -3  -1  -7    3.00    2.60
   3  -1   7    2.40    2.30
   3   1   7    4.10    1.40
   3   1   7    5.40    0.90
  -3   1  -7   11.60    2.60
  -3   1  -7    5.40    7.30
  -3   1  -7    7.10    1.90
   3   1   7    7.00    1.90
  -3   1  -7    7.30    7.50
  -3   1  -7    3.00    1.70
   3   1   7    7.80    9.30
  -3   1  -7    4.10    9.30
   3   1   7    0.80    6.80
   4  -1   7  823.92   25.50
   4  -1   7  856.01   26.10
  -4  -1  -7  800.22   31.70
   4  -1   7  819.62   29.10
   4  -1   7  823.52   29.50
  -4  -1  -7  830.92   31.00
  -4  -1  -7  825.32   29.30
   4  -1   7  820.42   33.10
  -4  -1  -7  837.72   27.60
  -4  -1  -7  836.22   26.20
   4   1   7  873.21   25.70
  -4   1  -7  835.32   26.70
  -4   1  -7  820.62   29.70
  -4   1  -7  785.12   30.00
   4   1   7  823.02   24.90
  -4   1  -7  816.02   27.10
   4   1   7  795.42   32.20
   4   1   7  801.22   28.80
  -4   1  -7  846.72   27.90
  -4   1  -7  808.02   32.30
   5  -1   7   49.90   14.50
   5  -1   7   49.70    4.10
  -5  -1  -7   59.09    4.40
  -5  -1  -7   49.40   11.50
  -5  -1  -7   46.20    5.20
   5  -1   7   42.80    6.10
   5  -1   7   50.29   10.40
   5  -1   7   55.79    3.90
  -5  -1  -7   46.00   10.90
   5   1   7   48.00    2.90
  -5   1  -7   61.59    7.30
  -5   1  -7   53.29    5.70
  -5   1  -7   53.49   13.40
  -5   1  -7   54.79   24.10
   5   1   7   44.00    4.20
  -5   1  -7   63.49   12.00
   5   1   7   50.69    9.70
   5   1   7   47.50   13.30
  -5   1  -7   42.60    5.60
   6  -1   7   73.89   15.90
  -6  -1  -7   90.59    6.80
  -6  -1  -7   67.89   15.90
   6  -1   7   84.39   18.20
   6  -1   7   88.19    4.70
  -6  -1  -7   90.69   14.00
  -6  -1  -7   76.69   14.90
  -6   1  -7   97.59    7.50
  -6   1  -7   82.69   18.20
  -6   1  -7   88.29    9.30
   6   1   7   89.19    4.70
   6   1   7   79.69   12.00
  -6   1  -7   84.49   14.70
   6   1   7   71.29    4.20
   6   1   7   89.29   18.40
  -6   1  -7   86.69   16.60
   7  -1   7   65.79   37.80
   7  -1   7   87.29   16.60
  -7  -1  -7   81.89   17.70
  -7  -1  -7  104.39   21.70
   7  -1   7   67.69    7.40
  -7  -1  -7   84.99   17.70
  -7   1  -7   65.39   16.80
   7   1   7   79.89   14.40
   7   1   7   73.29    7.10
  -7   1  -7   93.49   11.50
  -7   1  -7   99.09   23.20
   7   1   7   70.09   23.00
  -7   1  -7   81.69   17.90
   7  -2  -7  376.46   23.30
  -7  -2   7  374.46   30.00
  -7  -2   7  373.66   25.00
   7  -2  -7  393.06   27.10
   7  -2  -7  393.56   33.90
  -7  -2   7  355.66   29.20
  -7  -2   7  318.87   18.60
   7   2  -7  390.76   12.80
  -7   2   7  377.56   29.60
  -7   2   7  352.96   13.00
  -7   2   7  415.16   33.60
   7   2  -7  353.96   22.20
   7   2  -7  367.46   30.80
  -7   2   7  364.66   26.20
  -6  -2   7    9.50   12.50
   6  -2  -7    6.20    9.20
  -6  -2   7   -4.60   12.80
  -6  -2   7   -5.60    2.90
  -6  -2   7   -4.40   12.70
   6  -2  -7   -3.50   11.00
   6  -2  -7    2.80   14.50
   6   2  -7    0.70    5.90
  -6   2   7   -8.60    4.80
  -6   2   7    2.50   11.00
  -6   2   7    2.00    1.90
   6   2  -7    2.60    9.20
  -6   2   7   -1.70   12.60
   6   2  -7   -5.60   13.00
  -6   2   7   -2.40   23.20
  -5  -2   7  655.63   21.40
  -5  -2   7  681.43   22.80
   5  -2  -7  668.53   23.00
   5  -2  -7  664.73   21.50
  -5  -2   7  647.94   28.10
  -5  -2   7  657.43   25.60
  -5  -2   7  678.53   22.00
  -5  -2   7  659.93   28.30
   5  -2  -7  668.53   21.80
   5  -2  -7  654.03   24.70
   5  -2  -7  639.94   29.50
   5  -2  -7  655.13   25.90
  -5   2   7  681.63   28.00
  -5   2   7  645.64   28.90
   5   2  -7  670.63   21.10
   5   2  -7  732.23   23.20
   5   2  -7  644.44   24.20
  -5   2   7  663.23   25.90
   5   2  -7  647.04   28.70
  -5   2   7  667.93   24.40
  -4  -2   7  294.67   16.20
  -4  -2   7  318.97   11.50
   4  -2  -7  296.47   16.70
  -4  -2   7  286.47   13.10
   4  -2  -7  320.47   11.10
  -4  -2   7  295.87   18.00
  -4  -2   7  312.37   12.00
   4  -2  -7  308.47   20.00
   4  -2  -7  294.47   17.60
   4  -2  -7  307.87   10.80
  -4  -2   7  288.37   18.40
   4  -2  -7  290.77   15.10
   4  -2  -7  307.67   12.40
  -4   2   7  304.57   19.80
  -4   2   7  299.27   16.70
   4   2  -7  294.37   11.30
   4   2  -7  291.77   11.60
   4   2  -7  302.67   19.20
   4   2  -7  292.57   15.40
  -4   2   7  294.37   17.30
  -4   2   7  303.67   11.30
  -4   2   7  305.87   10.70
  -4   2   7  294.47   12.10
   3  -2  -7  343.67   12.50
  -3  -2   7  328.67   11.40
  -3  -2   7  316.37   15.40
  -3  -2   7  321.37   11.20
  -3  -2   7  306.47   16.80
   3  -2  -7  319.77   11.20
   3  -2  -7  331.67   16.80
   3  -2  -7  317.87   17.70
   3  -2  -7  318.27   14.90
  -3  -2   7  314.27   17.50
   3  -2  -7  319.57   15.80
   3  -2  -7  317.77   11.20
  -3   2   7  334.67   12.50
   3   2  -7  326.37   11.60
  -3   2   7  307.57   15.20
   3   2  -7  342.97   11.30
  -3   2   7  307.47   17.60
   3   2  -7  298.47   17.70
   3   2  -7  315.67   14.60
  -3   2   7  311.17   15.80
   3   2  -7  313.27   11.40
  -3   2   7  323.57   11.80
   3   2  -7  321.77   12.30
  -3   2   7  334.27   11.80
   2  -2  -7 1333.67   41.10
  -2  -2   7 1304.17   42.80
   2  -2  -7 1245.88   42.40
  -2  -2   7 1308.27   41.60
   2  -2  -7 1304.47   40.90
   2  -2  -7 1275.17   41.80
  -2  -2   7 1329.07   39.90
  -2  -2   7 1289.97   42.30
   2  -2  -7 1358.96   39.90
  -2  -2   7 1301.17   41.20
   2  -2  -7 1303.27   41.10
  -2  -2   7 1357.36   40.00
   2  -2  -7 1276.97   40.40
   2   2  -7 1292.27   41.00
  -2   2   7 1353.36   40.50
  -2   2   7 1319.27   41.00
  -2   2   7 1283.27   42.70
   2   2  -7 1378.86   40.30
   2   2  -7 1339.17   41.10
   2   2  -7 1408.46   40.00
   2   2  -7 1322.07   42.90
  -2   2   7 1315.07   40.80
  -2   2   7 1338.67   41.10
   2   2  -7 1306.07   40.80
  -1  -2   7   16.80    5.80
   1  -2  -7   21.30    6.50
   1  -2  -7   22.10    3.10
   1  -2  -7   24.10    8.00
  -1  -2   7   21.60    2.40
  -1  -2   7   18.70    6.30
   1  -2  -7   18.00    2.40
  -1  -2   7   20.60    4.00
   1  -2  -7   20.40    7.00
   1  -2  -7   19.00    2.00
  -1  -2   7   16.40    7.80
   1   2  -7   20.30    8.20
  -1   2   7   21.70    2.20
   1   2  -7   19.10    2.10
  -1   2   7   23.10    8.50
  -1   2   7   15.50    5.80
  -1   2   7   20.50    2.90
   1   2  -7   24.40    3.20
  -1   2   7   19.80    5.10
  -1   2   7   21.20    2.90
   1   2  -7   21.50    5.70
   1   2  -7   17.10    6.30
   0  -2  -7 1560.94   50.59
   0  -2   7 1541.65   49.90
   0  -2   7 1672.93   49.00
   0  -2   7 1650.83   50.29
   0  -2   7 1674.03   49.10
   0  -2   7 1590.94   51.59
   0  -2   7 1624.84   49.90
   0  -2  -7 1664.93   49.10
   0  -2  -7 1622.44   51.49
   0  -2  -7 1667.43   50.19
   0  -2   7 1690.53   48.90
   0  -2  -7 1572.34   49.90
   0   2   7 1621.34   51.39
   0   2   7 1682.23   50.09
   0   2   7 1586.64   49.60
   0   2   7 1715.53   48.90
   0   2   7 1705.13   49.60
   0   2   7 1556.54   48.50
   0   2  -7 1589.74   49.60
   0   2  -7 1627.54   49.90
   0   2  -7 1702.13   50.49
   0   2  -7 1703.53   49.20
   0   2  -7 1610.64   51.49
  -1  -2  -7  424.06   19.30
   1  -2   7  463.35   16.10
   1  -2   7  440.76   14.70
   1  -2   7  428.66   20.00
  -1  -2  -7  457.65   14.80
   1  -2   7  422.16   17.40
   1  -2   7  441.56   14.80
   1  -2   7  433.96   17.00
   1  -2   7  450.05   14.30
  -1  -2  -7  433.56   17.80
  -1  -2  -7  426.96   18.50
  -1  -2  -7  469.95   15.90
  -1   2  -7  448.06   20.10
   1   2   7  421.56   13.40
  -1   2  -7  454.05   14.80
   1   2   7  457.65   15.40
   1   2   7  438.56   19.80
  -1   2  -7  461.85   14.80
  -1   2  -7  436.96   17.90
  -1   2  -7  457.85   16.10
   1   2   7  430.26   14.50
   1   2   7  460.75   15.60
   1   2   7  425.46   17.20
  -1   2  -7  438.26   17.10
   2  -2   7  628.54   20.60
  -2  -2  -7  588.04   22.10
   2  -2   7  557.24   21.90
  -2  -2  -7  582.24   23.70
   2  -2   7  579.14   24.50
   2  -2   7  602.94   19.40
  -2  -2  -7  594.14   19.10
  -2  -2  -7  567.44   23.00
   2  -2   7  608.44   18.50
  -2  -2  -7  620.54   20.40
  -2   2  -7  609.84   20.70
  -2   2  -7  581.94   20.20
   2   2   7  595.44   18.80
  -2   2  -7  593.64   22.20
   2   2   7  599.04   20.10
   2   2   7  593.64   21.10
  -2   2  -7  607.64   19.30
  -2   2  -7  581.14   24.50
  -2   2  -7  567.74   21.50
   2   2   7  587.54   24.10
   2   2   7  595.44   20.00
  -3  -2  -7  650.73   22.40
   3  -2   7  674.03   21.60
   3  -2   7  660.73   22.90
   3  -2   7  657.73   20.10
   3  -2   7  626.34   23.90
  -3  -2  -7  616.04   25.40
   3  -2   7  635.34   26.80
  -3  -2  -7  628.94   26.00
  -3  -2  -7  637.34   23.60
  -3  -2  -7  674.83   22.10
  -3   2  -7  630.14   23.90
   3   2   7  643.54   21.70
  -3   2  -7  670.23   22.40
  -3   2  -7  633.24   24.40
  -3   2  -7  629.94   26.70
   3   2   7  676.13   23.40
   3   2   7  622.04   26.50
   3   2   7  655.63   20.30
  -3   2  -7  665.23   21.00
  -3   2  -7  668.83   21.30
  -4  -2  -7    9.60   10.50
   4  -2   7    2.10    2.70
   4  -2   7    7.60    2.10
   4  -2   7   10.60   12.60
  -4  -2  -7    9.60    8.80
   4  -2   7    6.20    1.20
  -4  -2  -7   13.70   10.90
   4  -2   7    8.00    8.80
  -4  -2  -7    4.60    1.80
   4   2   7   12.60    8.00
  -4   2  -7    7.30    9.40
  -4   2  -7    8.30   12.20
   4   2   7    9.50    1.10
   4   2   7    8.00    1.50
  -4   2  -7   10.20    8.70
   4   2   7   12.60   11.30
  -4   2  -7    5.90    4.40
   5  -2   7  197.38   25.40
   5  -2   7  191.68    7.40
  -5  -2  -7  187.88    8.20
  -5  -2  -7  211.28   10.90
  -5  -2  -7  195.48   17.90
   5  -2   7  196.38   18.10
   5  -2   7  195.58   13.60
   5   2   7  181.28   16.80
  -5   2  -7  193.08   14.30
  -5   2  -7  171.48    9.80
  -5   2  -7  181.58   21.20
   5   2   7  188.48   22.30
   5   2   7  193.28    7.20
   5   2   7  175.68    6.30
  -5   2  -7  185.78   19.20
  -6  -2  -7   25.90   13.20
   6  -2   7   26.80   13.00
  -6  -2  -7   22.10   14.20
  -6  -2  -7   27.70    4.00
  -6  -2  -7   22.10   14.70
   6  -2   7   23.40    2.50
   6  -2   7   31.40   19.00
  -6   2  -7   28.70   10.50
  -6   2  -7   23.10   19.00
  -6   2  -7   15.40    4.60
   6   2   7   25.90   11.10
  -6   2  -7   24.40   14.10
  -6   2  -7   27.30   13.70
   6   2   7   22.20   17.00
   6   2   7   36.80    3.50
  -7  -2  -7    8.50   19.70
  -7  -2  -7   19.90   17.20
  -7  -2  -7    8.90   19.40
   7  -2   7   17.40   24.30
   7  -2   7   13.50   16.90
   7   2   7   15.60   13.50
  -7   2  -7   21.50   13.00
  -7   2  -7   11.30   17.70
   7   2   7    9.90   19.70
  -7   2  -7   16.60   24.40
  -7   2  -7   13.90   17.10
  -7  -3   7   21.90   16.80
  -7  -3   7   11.00    4.20
  -7  -3   7   24.20   14.10
   7  -3  -7   33.00   15.60
   7  -3  -7   18.40   20.90
  -7  -3   7   22.00   17.60
   7  -3  -7   31.40   13.50
  -7   3   7   22.90   18.30
  -7   3   7   16.90    2.70
  -7   3   7   47.70   20.60
   7   3  -7   25.40   10.70
   7   3  -7   17.60   16.80
  -7   3   7   18.30   14.80
  -6  -3   7  503.25   26.00
   6  -3  -7  509.85   26.60
  -6  -3   7  602.74   21.10
  -6  -3   7  514.55   28.40
   6  -3  -7  522.45   24.80
  -6  -3   7  530.65   19.00
  -6  -3   7  498.05   27.50
   6   3  -7  511.45   28.70
  -6   3   7  542.55   29.50
  -6   3   7  536.75   25.60
  -6   3   7  516.25   17.40
  -6   3   7  403.86   46.30
   6   3  -7  493.95   22.10
   5  -3  -7  115.49   16.40
  -5  -3   7  109.99    5.60
   5  -3  -7  113.19   15.10
  -5  -3   7  102.59    6.50
   5  -3  -7  118.39    7.40
   5  -3  -7  122.69    5.90
  -5  -3   7  111.99   12.50
  -5  -3   7  118.89   15.00
  -5  -3   7  130.79    6.30
   5  -3  -7  115.49   20.20
  -5  -3   7  123.29   18.40
  -5   3   7  112.09    7.30
  -5   3   7  134.19   18.20
   5   3  -7  112.59   13.10
   5   3  -7  107.29   18.90
  -5   3   7  115.59    5.50
   5   3  -7  122.09    5.30
  -5   3   7  114.19   15.90
  -5   3   7  111.59   14.10
   4  -3  -7  830.42   29.30
   4  -3  -7  824.92   32.50
  -4  -3   7  843.12   26.50
  -4  -3   7  805.72   31.10
  -4  -3   7  831.02   29.00
   4  -3  -7  831.82   29.70
  -4  -3   7  826.12   29.70
   4  -3  -7  843.12   26.80
  -4  -3   7  860.51   26.80
   4  -3  -7  866.81   28.10
   4  -3  -7  841.72   30.90
  -4  -3   7  808.02   31.00
  -4   3   7  870.41   27.20
  -4   3   7  841.02   32.20
  -4   3   7  846.12   30.50
   4   3  -7  838.22   27.90
   4   3  -7  846.92   27.30
  -4   3   7  855.61   29.40
   4   3  -7  874.31   31.90
  -4   3   7  851.81   28.10
   4   3  -7  900.51   26.40
   4   3  -7  862.41   27.70
  -4   3   7  871.61   26.60
  -3  -3   7 1211.48   37.70
   3  -3  -7 1141.79   40.10
   3  -3  -7 1154.18   38.40
   3  -3  -7 1156.48   39.20
  -3  -3   7 1194.68   36.40
  -3  -3   7 1161.08   39.20
  -3  -3   7 1149.29   38.40
  -3  -3   7 1167.18   39.70
   3  -3  -7 1183.18   38.10
   3  -3  -7 1206.18   36.40
   3  -3  -7 1235.08   36.40
   3  -3  -7 1232.28   37.80
  -3  -3   7 1197.18   36.30
   3   3  -7 1166.88   39.70
   3   3  -7 1208.88   37.50
   3   3  -7 1197.58   37.00
  -3   3   7 1233.68   36.50
   3   3  -7 1205.08   37.30
  -3   3   7 1157.48   39.90
  -3   3   7 1174.78   37.90
   3   3  -7 1235.18   36.20
  -3   3   7 1175.98   38.40
  -3   3   7 1233.48   37.80
  -3   3   7 1196.08   37.00
  -2  -3   7  452.45   20.50
  -2  -3   7  427.86   18.60
   2  -3  -7  439.66   18.20
   2  -3  -7  419.96   16.10
   2  -3  -7  433.66   20.10
   2  -3  -7  455.95   18.20
  -2  -3   7  447.46   14.90
  -2  -3   7  458.85   14.90
  -2  -3   7  473.15   16.20
   2  -3  -7  461.85   16.10
  -2  -3   7  453.45   19.10
   2  -3  -7  449.26   19.30
   2  -3  -7  434.36   15.30
  -2   3   7  441.16   17.80
   2   3  -7  450.95   17.50
   2   3  -7  473.15   13.90
   2   3  -7  454.05   20.80
   2   3  -7  461.75   17.50
  -2   3   7  463.95   16.10
  -2   3   7  474.65   14.90
   2   3  -7  475.05   16.20
   2   3  -7  470.35   14.90
  -2   3   7  472.35   15.70
  -2   3   7  449.16   20.20
  -2   3   7  456.55   17.80
  -1  -3   7 2734.83   78.39
   1  -3  -7 2556.24   77.69
  -1  -3   7 2563.84   77.69
   1  -3  -7 2513.65   78.29
  -1  -3   7 2544.85   79.09
  -1  -3   7 2627.24   76.79
  -1  -3   7 2548.95   78.09
   1  -3  -7 2599.54   76.79
  -1  -3   7 2628.94   76.99
   1  -3  -7 2637.04   76.29
   1  -3  -7 2555.44   77.89
   1  -3  -7 2535.65   78.89
   1  -3  -7 2698.33   78.09
  -1   3   7 2526.25   76.79
   1   3  -7 2574.94   76.19
   1   3  -7 2650.23   76.89
   1   3  -7 2586.14   79.19
   1   3  -7 2555.34   77.39
  -1   3   7 2730.83   77.69
  -1   3   7 2695.33   76.79
   1   3  -7 2522.95   77.19
  -1   3   7 2571.04   77.29
  -1   3   7 2543.05   78.89
   1   3  -7 2698.03   78.39
  -1   3   7 2700.33   78.19
   0  -3   7  253.67   13.50
   0  -3   7  258.47   16.60
   0  -3  -7  258.17    9.40
   0  -3  -7  267.27   14.10
   0  -3   7  268.27    9.20
   0  -3  -7  261.17   15.70
   0  -3   7  255.37   13.30
   0  -3  -7  256.27    8.40
   0  -3  -7  273.87   10.40
   0  -3  -7  237.58   14.80
   0  -3   7  257.67    9.40
   0  -3   7  249.68   14.10
   0  -3   7  263.97    9.60
   0   3  -7  252.77   12.20
   0   3   7  264.37   15.90
   0   3  -7  277.37    9.50
   0   3  -7  261.47   14.00
   0   3  -7  277.37    9.10
   0   3   7  263.87   12.50
   0   3   7  277.17   10.10
   0   3  -7  272.57   10.70
   0   3   7  265.27   10.20
   0   3   7  257.37   10.30
   0   3  -7  252.07   16.10
   1  -3   7 1260.87   42.90
  -1  -3  -7 1332.27   40.60
  -1  -3  -7 1279.17   40.70
   1  -3   7 1267.67   40.80
   1  -3   7 1349.96   41.10
   1  -3   7 1345.57   40.30
   1  -3   7 1304.97   39.70
   1  -3   7 1283.57   39.20
  -1  -3  -7 1323.87   39.50
  -1  -3  -7 1245.28   41.70
  -1  -3  -7 1259.27   42.20
   1   3   7 1229.58   38.70
  -1   3  -7 1252.37   40.10
  -1   3  -7 1359.26   41.90
   1   3   7 1287.07   42.30
   1   3   7 1312.17   40.40
  -1   3  -7 1377.76   39.70
  -1   3  -7 1373.56   39.90
   1   3   7 1345.87   39.00
   1   3   7 1328.57   40.50
   1   3   7 1267.07   40.00
  -1   3  -7 1286.77   43.00
  -1   3  -7 1289.17   41.10
   2  -3   7  670.33   22.50
  -2  -3  -7  629.94   25.00
  -2  -3  -7  632.24   24.90
   2  -3   7  636.94   26.70
  -2  -3  -7  650.93   21.80
  -2  -3  -7  633.14   23.40
   2  -3   7  636.44   23.80
   2  -3   7  650.93   21.00
  -2  -3  -7  663.63   20.90
  -2   3  -7  637.84   24.30
  -2   3  -7  689.23   21.00
   2   3   7  667.93   20.00
  -2   3  -7  647.44   22.20
  -2   3  -7  632.84   26.70
   2   3   7  651.73   21.40
   2   3   7  629.24   22.30
  -2   3  -7  643.54   22.80
  -2   3  -7  660.63   21.40
   2   3   7  648.94   21.50
   2   3   7  625.94   25.70
  -3  -3  -7   13.10    7.80
   3  -3   7   21.70    3.00
  -3  -3  -7   13.10    8.80
   3  -3   7   21.20   11.60
  -3  -3  -7   17.90    2.60
  -3  -3  -7   17.30    2.20
   3  -3   7   14.10    1.80
  -3  -3  -7   17.60    9.70
   3  -3   7   15.50    2.70
   3  -3   7   17.00    8.10
  -3   3  -7   17.30    3.20
  -3   3  -7   20.20    8.60
   3   3   7   20.00    6.80
   3   3   7   23.30    2.10
  -3   3  -7   18.10    2.30
   3   3   7   19.10    3.10
  -3   3  -7   12.10    2.20
  -3   3  -7   16.10   11.20
  -3   3  -7   19.20    7.40
   3   3   7   19.80    9.40
   4  -3   7  618.54   25.30
  -4  -3  -7  599.64   19.40
  -4  -3  -7  595.24   24.10
   4  -3   7  584.64   29.50
   4  -3   7  597.64   18.80
   4  -3   7  590.24   20.90
   4  -3   7  572.54   19.50
  -4  -3  -7  585.14   26.40
  -4  -3  -7  609.04   20.90
  -4  -3  -7  575.94   26.60
  -4   3  -7  592.04   22.50
   4   3   7  584.84   27.00
   4   3   7  581.34   22.10
   4   3   7  583.94   20.10
  -4   3  -7  598.04   24.00
  -4   3  -7  615.84   25.00
   4   3   7  645.94   18.60
  -4   3  -7  508.25   19.70
  -4   3  -7  614.14   29.40
  -4   3  -7  613.74   20.10
  -4   3  -7  612.34   21.50
  -5  -3  -7   52.59    5.20
  -5  -3  -7   40.70   15.80
  -5  -3  -7   50.09   11.20
  -5  -3  -7   55.19    4.40
   5  -3   7   54.69   12.10
   5  -3   7   61.79   17.40
  -5  -3  -7   54.19   13.10
   5  -3   7   45.80    4.60
  -5   3  -7   67.09   11.30
   5   3   7   64.19    4.00
   5   3   7   48.40   13.50
  -5   3  -7   40.80   12.50
   5   3   7   50.89    8.80
  -5   3  -7   57.39    9.90
  -6  -3  -7   86.19    6.50
   6  -3   7   66.09   15.30
  -6  -3  -7   84.79   17.60
   6  -3   7   76.49   20.60
  -6  -3  -7   59.69   15.10
  -6  -3  -7   76.69   14.30
   6   3   7   78.29   17.80
   6   3   7   81.09   10.50
  -6   3  -7   79.69   12.40
  -6   3  -7   72.99   15.60
  -6   3  -7   81.89   20.90
  -6   3  -7   72.69   13.90
  -7  -4   7  249.48   29.30
   7  -4  -7  284.67   27.80
  -7  -4   7  280.47   32.80
   7  -4  -7  273.87   27.60
  -7  -4   7  252.47   13.10
  -7  -4   7  275.17   26.30
   7  -4  -7  272.47   36.90
   7   4  -7  252.97   17.70
  -7   4   7  261.17   33.50
   7   4  -7  271.97   30.60
  -7   4   7  262.67   28.80
  -7   4   7  279.17   36.80
  -6  -4   7    2.50   12.60
   6  -4  -7    8.40   16.90
  -6  -4   7    1.70   13.20
   6  -4  -7   -3.10   12.80
  -6  -4   7    2.00    2.70
   6  -4  -7    4.80   11.50
  -6  -4   7    5.40   14.20
  -6   4   7   -4.80   12.40
  -6   4   7    6.10    2.50
   6   4  -7    6.40    2.70
  -6   4   7   19.70   20.10
   6   4  -7    4.90    8.20
  -6   4   7   10.10   15.00
   6   4  -7    4.40   13.60
  -5  -4   7  581.14   26.70
  -5  -4   7  592.64   24.90
   5  -4  -7  570.04   20.00
  -5  -4   7  597.34   18.80
  -5  -4   7  586.44   19.30
   5  -4  -7  575.94   25.10
   5  -4  -7  586.14   29.90
  -5  -4   7  588.94   20.10
   5  -4  -7  568.44   21.40
  -5   4   7  578.64   27.60
  -5   4   7  554.44   19.00
   5   4  -7  557.94   27.20
  -5   4   7  547.15   28.60
  -5   4   7  568.34   24.90
   5   4  -7  558.34   21.10
  -5   4   7  556.94   20.60
  -4  -4   7  292.07   10.60
   4  -4  -7  301.27   17.70
  -4  -4   7  303.57   10.90
   4  -4  -7  321.57   12.20
  -4  -4   7  292.87   17.20
   4  -4  -7  284.07   17.60
  -4  -4   7  297.17   19.10
  -4  -4   7  283.77   19.90
   4  -4  -7  315.67   19.60
  -4  -4   7  295.27   11.70
   4  -4  -7  279.37   12.80
   4  -4  -7  302.77   20.80
  -4   4   7  295.77   19.30
  -4   4   7  311.37   10.70
  -4   4   7  289.97   21.10
  -4   4   7  293.97   17.60
   4   4  -7  292.27   14.20
   4   4  -7  292.97   11.60
  -4   4   7  282.27   12.00
   4   4  -7  295.77   19.80
  -4   4   7  303.47   11.30
  -3  -4   7  313.87   16.90
   3  -4  -7  333.37   11.90
  -3  -4   7  311.67   18.10
   3  -4  -7  333.67   16.80
   3  -4  -7  308.07   19.00
  -3  -4   7  329.37   11.40
   3  -4  -7  331.77   11.20
   3  -4  -7  321.17   18.60
   3  -4  -7  319.37   17.30
  -3  -4   7  302.67   12.40
   3  -4  -7  335.17   13.10
  -3  -4   7  318.27   18.20
  -3  -4   7  324.77   12.30
  -3   4   7  348.17   12.30
   3   4  -7  304.57   18.80
   3   4  -7  318.97   12.10
  -3   4   7  314.77   11.10
  -3   4   7  312.47   12.40
   3   4  -7  302.67   14.20
  -3   4   7  303.97   17.30
  -3   4   7  302.27   16.10
  -3   4   7  315.97   19.40
   2  -4  -7  657.63   23.90
  -2  -4   7  641.14   25.50
  -2  -4   7  645.54   24.70
  -2  -4   7  651.93   23.70
  -2  -4   7  624.04   20.90
  -2  -4   7  665.83   20.60
   2  -4  -7  672.03   20.60
  -2  -4   7  672.53   21.80
   2  -4  -7  653.53   25.20
   2  -4  -7  658.03   22.80
   2  -4  -7  645.94   23.40
   2  -4  -7  639.84   24.70
   2  -4  -7  546.75   21.50
   2   4  -7  653.53   21.70
  -2   4   7  620.44   25.50
   2   4  -7  657.63   20.70
  -2   4   7  632.54   22.80
  -2   4   7  653.43   20.30
  -2   4   7  633.64   21.80
   2   4  -7  661.93   19.10
   2   4  -7  632.34   22.10
  -2   4   7  636.74   22.90
   2   4  -7  642.84   25.70
  -2   4   7  662.33   21.30
   1  -4  -7   23.20    7.40
   1  -4  -7   41.70    7.40
  -1  -4   7   42.50    8.20
   1  -4  -7   35.30    3.80
   1  -4  -7   39.20    3.00
   1  -4  -7   34.20    2.30
  -1  -4   7   38.30    3.10
  -1  -4   7   33.40    3.10
   1  -4  -7   18.80    7.50
  -1  -4   7   33.20    8.80
  -1  -4   7   36.90    2.70
  -1  -4   7   43.50    7.30
  -1  -4   7   48.40    3.90
   1  -4  -7   44.40    8.20
  -1   4   7   39.20    5.80
   1   4  -7   47.00    9.80
   1   4  -7   34.50    3.90
  -1   4   7   44.10    6.50
  -1   4   7   36.00    2.60
  -1   4   7   35.70    3.50
   1   4  -7   41.60    2.20
  -1   4   7   29.90    3.70
   1   4  -7   32.20    2.70
  -1   4   7   43.20    6.20
   1   4  -7   41.70    5.90
   1   4  -7   44.10    6.70
  -1   4   7   43.70    9.00
   0  -4   7 1269.77   41.20
   0  -4  -7 1332.27   42.60
   0  -4   7 1300.87   42.00
   0  -4   7 1299.17   43.40
   0  -4   7 1322.97   39.90
   0  -4  -7 1286.87   38.50
   0  -4  -7 1285.17   41.00
   0  -4   7 1379.16   39.90
   0  -4   7 1321.47   39.20
   0  -4  -7 1321.57   40.70
   0  -4   7 1307.47   43.30
   0  -4  -7 1291.77   42.30
   0  -4  -7 1350.66   39.60
   0   4   7 1278.47   42.40
   0   4   7 1329.77   39.20
   0   4  -7 1266.07   40.00
   0   4  -7 1300.17   43.30
   0   4  -7 1326.97   39.60
   0   4   7 1302.87   40.60
   0   4  -7 1339.47   41.20
   0   4   7 1330.17   40.60
   0   4  -7 1347.57   39.20
   0   4   7 1246.58   39.70
   0   4  -7 1283.27   41.00
   0   4   7 1312.57   40.10
   1  -4   7  579.44   19.80
   1  -4   7  545.95   24.10
   1  -4   7  566.34   18.40
   1  -4   7  577.54   18.70
   1  -4   7  566.34   17.90
  -1  -4  -7  576.54   23.30
   1  -4   7  541.45   21.30
  -1  -4  -7  574.54   18.30
  -1  -4  -7  591.94   19.40
  -1  -4  -7  557.54   21.30
  -1   4  -7  541.75   19.70
   1   4   7  580.14   19.20
  -1   4  -7  556.84   19.70
   1   4   7  552.74   18.10
  -1   4  -7  558.84   24.10
  -1   4  -7  573.54   21.90
  -1   4  -7  606.84   18.50
   1   4   7  570.64   19.60
   1   4   7  566.34   20.50
   1   4   7  582.04   17.70
  -1   4  -7  591.04   18.30
   1   4   7  572.14   23.30
   2  -4   7  523.95   18.40
  -2  -4  -7  501.95   22.90
   2  -4   7  505.75   17.10
  -2  -4  -7  515.55   17.80
   2  -4   7  506.55   20.70
  -2  -4  -7  520.65   22.40
  -2  -4  -7  506.45   20.60
   2  -4   7  511.25   24.30
  -2  -4  -7  516.55   16.70
   2  -4   7  514.55   16.80
  -2   4  -7  481.95   19.00
  -2   4  -7  516.75   17.10
   2   4   7  514.95   15.90
   2   4   7  516.85   17.60
  -2   4  -7  519.25   18.80
   2   4   7  499.65   18.10
   2   4   7  506.75   22.60
  -2   4  -7  548.95   17.30
   2   4   7  521.65   17.70
  -2   4  -7  516.15   21.70
  -2   4  -7  507.15   24.40
   3  -4   7  638.24   25.50
   3  -4   7  633.54   28.70
  -3  -4  -7  659.13   21.60
   3  -4   7  644.14   22.50
  -3  -4  -7  628.64   27.00
   3  -4   7  640.34   21.40
  -3  -4  -7  652.83   20.60
  -3  -4  -7  649.64   24.30
  -3  -4  -7  636.34   26.30
   3   4   7  613.44   21.50
  -3   4  -7  671.93   22.70
  -3   4  -7  613.64   23.50
   3   4   7  620.24   19.90
  -3   4  -7  650.63   26.00
  -3   4  -7  633.94   24.00
   3   4   7  702.53   24.10
  -3   4  -7  654.73   21.20
  -3   4  -7  592.84   28.30
  -3   4  -7  681.73   21.00
   3   4   7  632.54   27.00
   4  -4   7   -0.60    1.70
  -4  -4  -7    1.20    9.10
   4  -4   7    2.00   10.80
  -4  -4  -7   -5.10   10.50
   4  -4   7    5.90   14.30
  -4  -4  -7   -2.40   10.60
  -4   4  -7   -1.70    9.00
   4   4   7    0.60    5.70
  -4   4  -7   -2.50    8.20
  -4   4  -7    0.10    3.00
   4   4   7    0.60   11.40
  -4   4  -7   -0.20   13.70
  -4   4  -7   -3.40    2.00
  -4   4  -7    2.70   10.10
  -5  -4  -7  151.18    7.30
  -5  -4  -7  143.59   21.30
  -5  -4  -7  148.79    6.90
  -5  -4  -7  165.58   19.00
   5  -4   7  162.08   22.50
   5  -4   7  128.99    6.70
  -5  -4  -7  172.78   24.30
   5  -4   7  149.69   26.40
  -5   4  -7  158.98   22.90
  -5   4  -7  162.78   19.10
  -5   4  -7  164.48   18.30
  -5   4  -7  115.19   21.50
   5   4   7  140.69   13.90
   5   4   7  144.69   23.50
   5   4   7  150.88    4.90
  -6  -4  -7   13.00   17.60
   6  -4   7   -0.90   20.90
  -6  -4  -7    6.40   15.50
  -6  -4  -7   14.30    3.80
   6  -4   7   12.80   15.90
  -6  -4  -7   15.50   16.90
   6   4   7   15.10   16.60
  -6   4  -7   13.70   13.60
  -6   4  -7    9.70   16.00
  -6   4  -7   12.60   13.40
  -6   4  -7   13.50   21.00
  -7  -5   7   25.50   20.40
   7  -5  -7   32.40   19.50
  -7  -5   7   26.70   17.10
   7  -5  -7   27.20   24.40
   7  -5  -7   28.60   16.90
  -7   5   7   44.40   23.70
  -7   5   7   25.00   20.00
  -7   5   7   13.80   18.60
  -7   5   7   27.90   17.70
   7   5  -7   31.50   19.10
  -6  -5   7  293.27   26.40
  -6  -5   7  254.37   24.40
   6  -5  -7  268.17   24.60
  -6  -5   7  263.57   27.10
  -6  -5   7  261.87   11.00
   6  -5  -7  271.67   24.50
   6  -5  -7  260.57   31.80
   6   5  -7  262.27   25.70
  -6   5   7  269.67   25.00
   6   5  -7  255.47   13.10
  -6   5   7  298.37   28.50
  -6   5   7  294.17   35.30
  -6   5   7  285.47   27.60
  -5  -5   7  116.49    6.50
   5  -5  -7  110.89   13.20
  -5  -5   7  125.49    6.80
   5  -5  -7  132.59   19.50
  -5  -5   7  129.69    5.90
  -5  -5   7  121.69   14.40
   5  -5  -7  131.99    6.10
   5  -5  -7  131.09   23.10
  -5  -5   7  129.79   18.20
  -5  -5   7   91.19   22.00
   5  -5  -7  119.49    7.30
   5   5  -7  119.79   20.20
  -5   5   7  114.99    6.00
  -5   5   7  111.39   15.90
  -5   5   7  146.79   15.70
  -5   5   7  117.69   14.10
   5   5  -7  111.69    5.30
   5   5  -7  116.59   10.70
  -5   5   7  131.69   14.70
   4  -5  -7  376.96   15.00
  -4  -5   7  361.16   13.30
   4  -5  -7  345.47   20.30
   4  -5  -7  376.06   12.50
   4  -5  -7  352.16   19.90
  -4  -5   7  340.67   12.20
  -4  -5   7  364.06   22.50
  -4  -5   7  350.56   19.20
  -4  -5   7  340.97   20.60
   4  -5  -7  363.56   12.60
  -4  -5   7  358.36   13.30
   4  -5  -7  350.76   22.10
   4  -5  -7  349.27   22.80
   4   5  -7  361.96   11.40
  -4   5   7  336.37   21.10
  -4   5   7  371.86   21.80
   4   5  -7  331.37   14.40
  -4   5   7  352.56   12.90
  -4   5   7  334.07   12.80
  -4   5   7  338.97   18.90
   4   5  -7  356.26   21.10
   4   5  -7  342.07   13.00
  -4   5   7  322.67   22.60
   3  -5  -7 1280.27   39.10
   3  -5  -7 1232.38   40.10
  -3  -5   7 1225.58   41.90
   3  -5  -7 1182.48   42.20
  -3  -5   7 1203.28   41.30
   3  -5  -7 1237.68   41.40
  -3  -5   7 1219.88   37.40
   3  -5  -7 1256.07   37.50
  -3  -5   7 1192.18   39.90
  -3  -5   7 1258.37   39.60
   3  -5  -7 1217.88   40.70
   3  -5  -7 1254.97   37.70
  -3   5   7 1227.08   38.30
   3   5  -7 1268.37   36.80
  -3   5   7 1231.88   40.60
  -3   5   7 1198.18   40.50
   3   5  -7 1256.37   38.70
  -3   5   7 1220.98   39.50
   3   5  -7 1209.28   37.80
   3   5  -7 1225.58   41.50
  -3   5   7 1209.78   42.30
  -2  -5   7  381.56   14.10
  -2  -5   7  395.76   20.70
  -2  -5   7  400.76   20.70
   2  -5  -7  348.77   17.10
  -2  -5   7  425.56   13.40
   2  -5  -7  379.56   20.40
  -2  -5   7  398.26   13.40
  -2  -5   7  393.46   18.50
   2  -5  -7  410.76   13.70
  -2  -5   7  399.76   14.60
   2  -5  -7  399.36   21.90
   2  -5  -7  401.06   18.60
   2  -5  -7  415.16   13.20
   2  -5  -7  382.56   19.80
  -2   5   7  412.66   14.30
  -2   5   7  395.16   16.80
  -2   5   7  387.56   18.10
   2   5  -7  399.16   15.80
   2   5  -7  415.76   13.00
  -2   5   7  413.46   13.20
   2   5  -7  401.26   14.60
  -2   5   7  385.46   17.40
  -2   5   7  399.96   14.60
   2   5  -7  403.46   21.20
  -2   5   7  416.16   20.80
  -1  -5   7 1232.28   36.50
   1  -5  -7 1234.58   40.00
  -1  -5   7 1232.98   37.10
  -1  -5   7 1235.78   40.40
   1  -5  -7 1261.17   38.20
   1  -5  -7 1241.28   36.30
  -1  -5   7 1189.38   38.80
  -1  -5   7 1244.68   38.50
   1  -5  -7 1195.08   40.40
  -1  -5   7 1196.08   41.00
   1  -5  -7 1230.88   39.00
  -1  -5   7 1254.47   37.90
   1  -5  -7 1277.97   37.10
   1  -5  -7 1211.18   40.40
  -1   5   7 1134.89   39.00
  -1   5   7 1192.58   38.30
   1   5  -7 1252.17   38.60
  -1   5   7 1204.58   37.70
  -1   5   7 1207.58   39.00
   1   5  -7 1243.58   38.00
   1   5  -7 1208.38   41.00
  -1   5   7 1188.08   40.30
   1   5  -7 1250.57   36.10
   1   5  -7 1082.09   38.10
   0  -5  -7   65.49    9.30
   0  -5   7   66.49    4.20
   0  -5  -7   62.59    4.40
   0  -5   7   62.19    9.30
   0  -5  -7   60.49    9.20
   0  -5  -7   59.59    8.00
   0  -5   7   64.79    8.00
   0  -5  -7   54.69    2.60
   0  -5  -7   70.89    3.80
   0  -5   7   62.89   10.70
   0  -5   7   56.99    3.10
   0  -5   7   55.69    4.60
   0  -5  -7   47.60    8.80
   0  -5   7   73.79    4.20
   0   5   7   63.69    6.30
   0   5   7   52.49    8.70
   0   5  -7   63.49    3.90
   0   5   7   59.49    8.70
   0   5   7   65.39    3.20
   0   5  -7   64.79    8.20
   0   5  -7   61.39   10.40
   0   5  -7   57.39    4.60
   0   5  -7   74.29    3.90
   0   5  -7   71.59    7.80
   0   5   7   57.29    4.50
   0   5   7   67.49    4.20
   1  -5   7  438.06   15.00
   1  -5   7  436.96   15.00
  -1  -5  -7  448.66   15.60
   1  -5   7  451.15   16.10
  -1  -5  -7  441.66   20.80
   1  -5   7  439.96   19.60
  -1  -5  -7  461.45   14.60
  -1  -5  -7  421.66   21.40
   1  -5   7  428.96   22.10
  -1   5  -7  458.95   16.30
  -1   5  -7  463.75   14.70
  -1   5  -7  415.66   15.90
   1   5   7  425.06   15.20
  -1   5  -7  435.46   22.70
   1   5   7  440.06   15.60
   1   5   7  431.56   20.80
   1   5   7  458.65   15.40
   1   5   7  443.56   13.60
  -1   5  -7  447.06   14.60
   1   5   7  438.76   15.60
   2  -5   7  234.58   19.70
   2  -5   7  247.38   10.30
  -2  -5  -7  230.58   19.00
   2  -5   7  249.08   10.30
  -2  -5  -7  246.58   17.30
  -2  -5  -7  242.08    9.70
   2  -5   7  221.28    8.90
  -2  -5  -7  252.07    8.90
   2  -5   7  250.27   16.00
  -2  -5  -7  237.78   15.10
   2   5   7  242.58    9.80
  -2   5  -7  250.07    9.10
   2   5   7  232.08    9.30
  -2   5  -7  239.98   19.90
  -2   5  -7  242.38   16.90
  -2   5  -7  247.08    9.00
  -2   5  -7  227.18   12.30
   2   5   7  238.98   17.80
   2   5   7  212.88    7.70
  -3  -5  -7   29.70    3.60
  -3  -5  -7   34.30   10.20
   3  -5   7   32.80    3.20
  -3  -5  -7   27.90   11.30
  -3  -5  -7   30.30    3.70
   3  -5   7   32.90   10.00
  -3  -5  -7   26.60    8.80
   3  -5   7   31.90   13.70
   3  -5   7   34.10    4.80
  -3   5  -7   23.30    3.80
  -3   5  -7   35.40   10.40
  -3   5  -7   37.50    4.90
  -3   5  -7   37.30    7.50
  -3   5  -7   27.40    3.70
   3   5   7   39.80    4.00
  -3   5  -7   34.90    9.50
  -3   5  -7   33.00   13.50
   3   5   7   32.40   10.60
  -4  -5  -7  374.26   25.20
  -4  -5  -7  390.16   14.10
   4  -5   7  413.96   23.00
   4  -5   7  393.16   13.50
  -4  -5  -7  377.26   23.00
   4  -5   7  392.86   16.10
  -4  -5  -7  379.16   13.30
   4  -5   7  332.27   34.00
  -4  -5  -7  397.56   20.80
  -4   5  -7  382.86   21.30
  -4   5  -7  397.96   28.90
   4   5   7  391.36   24.10
  -4   5  -7  426.66   32.70
  -4   5  -7  390.26   19.10
   5  -5   7   56.29    4.90
  -5  -5  -7   44.90   13.50
  -5  -5  -7   65.69    4.80
  -5  -5  -7   44.20   15.30
  -5  -5  -7   48.00    4.70
   5  -5   7   49.60   14.40
   5  -5   7   48.40   18.30
  -5  -5  -7   50.69   12.30
  -5   5  -7   44.40   18.80
   5   5   7   48.10   14.90
  -5   5  -7   52.09   13.10
  -5   5  -7   49.90   11.30
  -5   5  -7   48.90   14.60
  -6  -5  -7   71.49   16.80
   6  -5   7   60.49   23.00
  -6  -5  -7   93.39   21.60
   6  -5   7   74.79   18.20
  -6   5  -7   70.09   16.40
  -6   5  -7   74.59   23.90
  -6   5  -7   66.19   18.60
  -6   5  -7   86.09   14.70
   6   5   7   67.29   18.70
  -6  -6   7   -0.90   16.90
  -6  -6   7   -2.10   13.90
   6  -6  -7   12.30   21.10
   6  -6  -7    5.00   15.70
   6  -6  -7   -5.90   15.90
   6   6  -7    1.30   15.10
  -6   6   7    5.30   21.40
  -6   6   7    3.50   18.00
  -6   6   7    4.60   14.60
   5  -6  -7  303.57   12.70
   5  -6  -7  309.17   23.40
   5  -6  -7  299.57   28.40
  -5  -6   7  284.27   10.90
  -5  -6   7  295.57   12.00
  -5  -6   7  290.07   11.30
  -5  -6   7  290.87   21.60
  -5  -6   7  302.67   26.90
   5  -6  -7  325.67   24.60
  -5  -6   7  308.87   22.90
  -5   6   7  364.56   30.00
  -5   6   7  288.67   25.40
   5   6  -7  282.97   23.20
   4  -6  -7  247.88    9.50
   4  -6  -7  244.98   34.40
   4  -6  -7  250.37   11.00
  -4  -6   7  263.67   10.60
  -4  -6   7  251.37   18.60
  -4  -6   7  252.77   22.60
   4  -6  -7  246.68   23.50
  -4  -6   7  249.38    9.30
  -4  -6   7  235.38   19.60
   4  -6  -7  254.67   22.30
  -4  -6   7  259.07    9.40
  -4   6   7  246.68   31.80
  -4   6   7  238.18   23.10
  -4   6   7  238.58   18.20
   4   6  -7  254.67   20.80
  -4   6   7  256.07    9.60
  -3  -6   7   49.90   11.60
   3  -6  -7   44.90    5.00
  -3  -6   7   68.49   11.10
   3  -6  -7   57.39   10.60
  -3  -6   7   66.19    3.80
   3  -6  -7   61.09   10.30
   3  -6  -7   72.69   12.10
  -3  -6   7   53.09    4.90
  -3  -6   7   65.29    9.60
   3  -6  -7   61.49    4.10
   3  -6  -7   59.59    3.80
   3  -6  -7   48.20   11.50
  -3  -6   7   58.39    3.90
  -3   6   7   68.79    9.00
  -3   6   7   61.29   10.40
   3   6  -7   54.59    7.80
   3   6  -7   78.29   11.70
   3   6  -7   67.09    2.60
  -3   6   7   63.79   12.80
   3   6  -7   63.99    4.70
  -3   6   7   50.89    5.30
  -2  -6   7  334.17   20.30
  -2  -6   7  316.37   21.60
   2  -6  -7  323.47   20.00
   2  -6  -7  316.37   13.30
   2  -6  -7  325.97   11.40
  -2  -6   7  325.87   10.80
   2  -6  -7  314.27   11.00
   2  -6  -7  324.77   19.80
  -2  -6   7  321.27   12.50
  -2  -6   7  316.27   11.30
   2  -6  -7  320.27   19.90
  -2  -6   7  301.17   17.50
   2  -6  -7  326.17   18.00
  -2   6   7  330.67   20.20
  -2   6   7  353.46   12.40
  -2   6   7  310.47   17.90
  -2   6   7  318.87   12.30
   2   6  -7  319.07   20.40
  -2   6   7  333.47   10.80
   2   6  -7  326.17   10.30
  -2   6   7  320.37   15.90
   2   6  -7  318.47   12.30
   2   6  -7  323.37   13.60
   1  -6  -7   43.10    2.60
  -1  -6   7   38.10    3.50
  -1  -6   7   38.90   10.70
  -1  -6   7   34.60   10.20
  -1  -6   7   41.50    4.30
   1  -6  -7   42.40    3.40
   1  -6  -7   34.70    8.80
  -1  -6   7   47.90    2.70
   1  -6  -7   46.90   10.20
  -1  -6   7   34.20    8.50
   1  -6  -7   43.90    9.70
   1  -6  -7   41.90    8.50
   1  -6  -7   44.70    5.30
  -1  -6   7   46.40    3.70
  -1   6   7   40.90    6.50
  -1   6   7   49.90    7.90
   1   6  -7   48.20   11.20
   1   6  -7   44.80    6.60
   1   6  -7   47.20    2.40
   1   6  -7   42.70    2.70
  -1   6   7   47.90   10.00
  -1   6   7   50.69    3.70
  -1   6   7   51.59    2.70
   0  -6  -7  390.86   12.20
   0  -6   7  397.16   14.70
   0  -6   7  382.36   12.30
   0  -6   7  371.06   22.10
   0  -6   7  399.26   13.70
   0  -6   7  387.76   18.10
   0  -6   7  404.06   13.90
   0  -6  -7  378.96   20.80
   0  -6  -7  398.76   14.20
   0  -6   7  386.56   21.20
   0  -6  -7  412.16   13.30
   0  -6  -7  406.66   19.70
   0  -6  -7  388.46   21.20
   0  -6  -7  372.66   18.60
   0   6  -7  390.06   14.60
   0   6   7  412.26   12.40
   0   6  -7  401.36   17.50
   0   6   7  393.76   16.30
   0   6   7  394.06   19.70
   0   6  -7  408.46   12.80
   0   6  -7  387.86   21.80
   0   6  -7  407.76   13.00
   0   6   7  407.96   14.60
   0   6   7  398.26   14.00
   0   6   7  391.36   14.40
   1  -6   7  215.48   19.70
  -1  -6  -7  210.08    9.10
  -1  -6  -7  219.98   15.00
  -1  -6  -7  238.88    8.40
   1  -6   7  229.48    9.90
  -1  -6  -7  220.78   16.30
  -1  -6  -7  209.08   18.50
   1  -6   7  227.68   15.70
  -1  -6  -7  229.58   19.50
   1  -6   7  216.88    8.90
   1  -6   7  218.88    8.80
   1   6   7  223.78   11.50
   1   6   7  228.38   16.50
   1   6   7  225.58    9.10
  -1   6  -7  224.48   10.20
  -1   6  -7  213.28   20.10
  -1   6  -7  251.67    8.40
  -1   6  -7  227.88    8.40
   1   6   7  234.78    9.50
   2  -6   7  209.58    8.70
   2  -6   7  210.58    8.70
  -2  -6  -7  221.88   15.90
   2  -6   7  214.38   21.00
  -2  -6  -7  222.38   21.00
  -2  -6  -7  226.98   17.60
  -2  -6  -7  206.88    8.90
   2  -6   7  223.58   18.10
  -2  -6  -7  230.88    8.20
   2  -6   7  219.98    9.80
  -2   6  -7  202.08   10.90
   2   6   7  204.58    8.90
  -2   6  -7  224.38   17.70
  -2   6  -7  221.58   21.70
   2   6   7  217.98    8.60
  -2   6  -7  235.38    8.30
  -2   6  -7  209.38    8.40
  -3  -6  -7  305.07   10.40
   3  -6   7  265.77   29.80
  -3  -6  -7  283.47   10.90
   3  -6   7  293.97   10.70
  -3  -6  -7  283.37   20.00
  -3  -6  -7  291.57   18.40
   3  -6   7  313.67   12.30
  -3   6  -7  295.07   25.30
   3   6   7  271.07   10.50
  -3   6  -7  302.57   20.60
  -3   6  -7  281.97   10.70
  -3   6  -7  266.37   14.20
  -3   6  -7  282.97   20.90
   3   6   7  281.97   10.50
  -3   6  -7  299.27   10.50
   4  -6   7    8.90   12.30
  -4  -6  -7   -2.20    2.50
  -4  -6  -7   -2.90    2.10
  -4  -6  -7   -1.30   13.40
  -4  -6  -7   -0.90   10.40
   4  -6   7   -2.90    2.40
  -4  -6  -7    6.30   11.50
   4  -6   7   -0.30   16.70
  -4   6  -7   -4.30   12.70
  -4   6  -7   -3.80   16.30
   4   6   7   -0.20    2.00
  -4   6  -7   -2.00    8.90
  -4   6  -7   -0.50   12.00
  -5  -6  -7   45.60   14.10
  -5  -6  -7   58.99   13.20
   5  -6   7   59.59   15.50
   5  -6   7   61.19   20.10
  -5  -6  -7   49.20   16.80
  -5  -6  -7   62.79    4.80
  -5  -6  -7   40.30    4.80
  -5   6  -7   61.89   15.80
  -5   6  -7   45.30   19.70
  -5   6  -7   60.99   21.50
  -5   6  -7   59.19   11.60
  -6  -7   7  146.99   21.10
  -5  -7   7   43.50    5.00
  -5  -7   7   46.70   13.20
  -5  -7   7   44.10   16.50
   5  -7  -7   39.70   14.90
   5  -7  -7   45.60    5.10
  -5  -7   7   41.50    4.60
   5  -7  -7   50.49   17.90
  -5  -7   7   58.59   13.60
   5  -7  -7   45.70   15.10
  -5  -7   7   36.70    3.70
  -5   7   7   61.49   19.50
  -5   7   7   35.90   15.00
  -5   7   7   40.10   16.60
   5   7  -7   43.90   14.10
   4  -7  -7  201.18   23.10
  -4  -7   7  181.38   19.80
   4  -7  -7  182.98   20.70
   4  -7  -7  185.98    9.40
  -4  -7   7  192.98    7.60
   4  -7  -7  174.78    7.80
  -4  -7   7  185.08   25.00
  -4  -7   7  186.58    8.80
   4  -7  -7  190.28   25.00
  -4   7   7  208.88   26.60
   4   7  -7  198.78   21.00
  -4   7   7  186.98   19.10
  -4   7   7  193.58   22.70
  -3  -7   7  429.46   15.10
   3  -7  -7  444.36   15.60
   3  -7  -7  439.36   24.90
  -3  -7   7  419.26   14.40
   3  -7  -7  426.56   21.90
  -3  -7   7  422.76   23.20
   3  -7  -7  439.96   24.80
   3  -7  -7  442.86   17.10
   3  -7  -7  425.36   25.70
  -3  -7   7  408.36   15.40
  -3  -7   7  424.56   21.90
   3  -7  -7  404.36   14.60
  -3  -7   7  450.35   27.00
  -3   7   7  439.76   20.30
  -3   7   7  429.86   14.00
  -3   7   7  416.86   25.40
   3   7  -7  431.76   23.40
  -3   7   7  412.36   23.00
   2  -7  -7   32.00    4.00
  -2  -7   7   27.40    2.80
   2  -7  -7   24.10    2.80
   2  -7  -7   25.90    3.30
  -2  -7   7   18.40    3.00
   2  -7  -7   20.10    9.80
   2  -7  -7   39.30   15.20
   2  -7  -7   25.20   11.50
  -2  -7   7   25.00    9.70
   2  -7  -7   26.50   11.70
  -2  -7   7   32.10   11.20
  -2   7   7   24.80    9.70
   2   7  -7   26.70    1.40
   2   7  -7   30.20   11.10
   2   7  -7   17.10    2.80
  -2   7   7   32.90    7.70
  -2   7   7   19.40   10.80
  -1  -7   7  662.83   28.70
   1  -7  -7  677.63   20.70
   1  -7  -7  669.13   28.60
  -1  -7   7  661.73   22.50
   1  -7  -7  655.03   27.20
  -1  -7   7  659.03   21.50
  -1  -7   7  666.63   29.80
   1  -7  -7  693.43   21.30
   1  -7  -7  665.13   25.80
  -1  -7   7  649.24   25.80
   1  -7  -7  693.33   28.50
   1  -7  -7  685.33   22.40
  -1  -7   7  648.94   20.20
  -1   7   7  666.93   22.30
   1   7  -7  670.33   22.30
   1   7  -7  655.33   22.50
  -1   7   7  669.43   27.50
  -1   7   7  696.23   20.50
  -1   7   7  660.23   25.60
   1   7  -7  678.73   20.60
   1   7  -7  678.03   29.00
   1   7  -7  644.54   20.50
  -1   7   7  661.33   22.10
  -1   7   7  709.53   23.00
   0  -7   7  122.19    6.80
   0  -7  -7  128.19   19.00
   0  -7   7  136.29   15.60
   0  -7  -7  136.89    4.80
   0  -7  -7  140.69   15.20
   0  -7  -7  140.29    6.60
   0  -7  -7  147.69    6.40
   0  -7  -7  144.79   18.60
   0  -7   7  133.69   19.30
   0  -7   7  137.29    6.30
   0  -7  -7  133.89   16.20
   0  -7   7  139.59   14.00
   0   7  -7  135.69   12.70
   0   7   7  130.39   13.50
   0   7  -7  132.19   19.30
   0   7  -7  116.09    6.00
   0   7   7  126.59    7.30
   0   7   7  145.59   16.60
   0   7   7  140.89    6.60
  -1  -7  -7  211.88    9.40
   1  -7   7  234.18   17.20
  -1  -7  -7  239.48   17.40
  -1  -7  -7  230.38    9.20
  -1  -7  -7  240.28   16.50
   1  -7   7  226.88   21.20
  -1  -7  -7  208.18   20.70
  -1  -7  -7  240.78   22.00
   1  -7   7  234.48   10.00
   1  -7   7  225.28    9.30
  -1   7  -7  219.68   22.20
  -1   7  -7  237.38    8.50
  -1   7  -7  239.78   16.10
   1   7   7  226.58   13.20
   1   7   7  238.78    9.20
   1   7   7  228.08    9.90
   1   7   7  240.98    8.80
  -1   7  -7  243.88    8.60
  -2  -7  -7  203.88   22.40
   2  -7   7  208.58    8.80
   2  -7   7  215.28    9.60
  -2  -7  -7  215.38    8.00
  -2  -7  -7  167.28   16.70
   2  -7   7  217.08   18.50
   2  -7   7  214.68   22.90
  -2  -7  -7  191.18    8.30
  -2   7  -7  211.18    8.10
  -2   7  -7  204.18   18.70
   2   7   7  199.18    8.20
  -2   7  -7  219.88    7.80
  -2   7  -7  204.08   24.00
   2   7   7  195.48    8.90
  -3  -7  -7   27.20   10.70
  -3  -7  -7   17.00    2.40
   3  -7   7   26.50   15.90
  -3  -7  -7   20.40   10.40
  -3  -7  -7   13.80   14.10
   3  -7   7   20.60   12.20
   3  -7   7   23.60    4.80
  -3  -7  -7   17.50    2.50
  -3   7  -7   21.80   18.30
  -3   7  -7   16.00   12.20
  -3   7  -7   16.50   16.40
  -3   7  -7   10.80    2.20
   3   7   7   17.90    3.00
   4  -7   7  275.47   24.90
  -4  -7  -7  282.87   29.90
  -4  -7  -7  261.17   21.20
  -4  -7  -7  245.88    9.80
  -4  -7  -7  250.37    9.70
  -4  -7  -7  265.67   22.00
   4  -7   7  278.37   32.30
   4  -7   7  286.27   11.80
  -4   7  -7  280.87   25.50
  -4   7  -7  264.17   32.30
  -4   7  -7  234.98   15.30
  -4   7  -7  240.98   25.80
  -5  -7  -7   16.70   20.60
   5  -7   7   17.90   17.10
  -5  -7  -7   18.30   14.00
  -5  -7  -7   23.50   14.00
   5  -7   7   13.40   21.80
  -5   7  -7   23.10   17.80
  -5   7  -7   21.80   22.90
  -5   7  -7   19.20   11.00
  -5   7  -7   16.90   16.80
   5  -8  -7   85.49    8.50
  -5  -8   7  125.39   22.10
   5  -8  -7  104.99   18.20
  -5  -8   7  103.99    6.60
   5  -8  -7  113.99   17.60
  -5  -8   7  148.39   22.40
   5  -8  -7  107.49   21.70
  -5  -8   7  114.29   15.50
  -5   8   7  126.59   20.70
  -5   8   7  111.69   19.80
  -5   8   7  127.79   22.40
  -4  -8   7   82.19    6.00
   4  -8  -7   92.39    6.40
  -4  -8   7  101.19   13.70
   4  -8  -7   95.99   15.10
  -4  -8   7   95.99    5.30
  -4  -8   7   96.29   13.50
  -4  -8   7  116.29   19.20
   4  -8  -7   82.89   15.30
   4  -8  -7   93.79   15.70
   4  -8  -7   99.09    7.50
   4  -8  -7   98.19   18.70
  -4  -8   7  102.19    5.40
  -4   8   7   93.79   12.50
  -4   8   7  105.19   18.70
  -4   8   7   82.59   15.40
   3  -8  -7   70.09   14.80
  -3  -8   7   69.39   12.60
  -3  -8   7   78.19    4.10
  -3  -8   7   85.89    4.90
  -3  -8   7   68.19    5.30
   3  -8  -7   77.29   22.00
   3  -8  -7   70.89   17.90
   3  -8  -7   73.29   14.60
   3  -8  -7   80.69    6.00
  -3  -8   7   83.09   16.20
   3  -8  -7   72.79    4.80
  -3   8   7   73.39   10.00
   3   8  -7   56.69   16.70
  -3   8   7   99.19   16.50
  -3   8   7   68.59   14.00
  -3   8   7   82.29    5.00
   2  -8  -7  345.17   23.50
  -2  -8   7  351.06   11.20
   2  -8  -7  344.27   13.20
   2  -8  -7  357.36   25.30
  -2  -8   7  344.27   12.20
  -2  -8   7  349.17   28.20
  -2  -8   7  369.16   23.80
   2  -8  -7  358.76   22.10
   2  -8  -7  341.07   24.20
  -2  -8   7  343.07   13.10
  -2  -8   7  344.47   21.20
   2  -8  -7  359.86   12.30
   2  -8  -7  358.96   12.00
  -2   8   7  334.07   15.90
  -2   8   7  326.77   23.90
   2   8  -7  361.46   23.20
  -2   8   7  344.87   22.90
  -2   8   7  340.17   11.50
   1  -8  -7    6.80    2.50
  -1  -8   7   10.20    2.40
  -1  -8   7    6.90    2.40
   1  -8  -7   15.00   11.40
   1  -8  -7   16.50   12.90
   1  -8  -7    5.50    2.40
   1  -8  -7   10.00    1.60
  -1  -8   7    9.20   13.80
  -1  -8   7    8.00   14.00
   1  -8  -7   11.90   10.10
   1  -8  -7    6.60   12.20
  -1  -8   7   10.60   10.00
  -1   8   7    3.80    2.50
   1   8  -7    8.40    1.30
  -1   8   7   10.70   10.60
   1   8  -7   11.00   12.40
  -1   8   7   10.20   11.40
   0  -8   7  310.87   30.00
   0  -8  -7  367.76   12.30
   0  -8  -7  336.77   24.00
   0  -8  -7  339.97   24.00
   0  -8  -7  337.27   20.40
   0  -8  -7  342.17   19.90
   0  -8   7  335.67   12.30
   0  -8   7  350.06   13.10
   0  -8  -7  351.96   12.50
   0  -8   7  345.47   20.70
   0  -8   7  334.97   26.40
   0  -8  -7  340.27   10.80
   0   8  -7  341.27   15.70
   0   8  -7  346.37   10.80
   0   8   7  308.87   12.10
   0   8  -7  338.17   11.30
   0   8   7  337.37   18.50
   0   8  -7  319.67   24.20
   1  -8   7  117.29   12.40
  -1  -8  -7  113.89   15.50
   1  -8   7  105.39    6.70
  -1  -8  -7  108.19    5.80
   1  -8   7  111.49    6.10
   1  -8   7  114.99   16.10
  -1  -8  -7  130.29   17.40
  -1  -8  -7  103.29   16.30
  -1  -8  -7  127.99    5.50
  -1  -8  -7  107.89   11.20
  -1   8  -7   91.69   14.60
  -1   8  -7  115.89    4.70
  -1   8  -7  120.89   15.40
   1   8   7  118.09    5.50
  -1   8  -7  116.09    5.70
   1   8   7  104.39   14.00
   1   8   7   95.09    5.00
   2  -8   7   70.59   16.60
  -2  -8  -7   65.99    4.10
  -2  -8  -7   56.39   15.50
  -2  -8  -7   50.09    3.90
  -2  -8  -7   57.99   11.00
   2  -8   7   61.59   12.90
  -2  -8  -7   60.09   10.00
  -2  -8  -7   60.69   15.00
   2   8   7   41.60    4.70
  -2   8  -7   61.99    4.60
  -2   8  -7   54.69   15.90
  -2   8  -7   46.90    4.20
  -3  -8  -7   94.59   17.00
  -3  -8  -7  130.59   12.90
   3  -8   7  125.49   15.30
  -3  -8  -7  126.99   17.10
  -3  -8  -7  136.39   18.70
  -3  -8  -7  132.79    8.60
   3  -8   7  132.39   19.80
  -3   8  -7  129.79   14.80
  -3   8  -7  109.29    7.20
  -3   8  -7  120.49   19.80
  -3   8  -7  118.49   16.20
   3   8   7  118.39    5.20
  -4  -8  -7    2.80    2.70
  -4  -8  -7   14.10   18.80
   4  -8   7    6.80   21.60
  -4  -8  -7    1.50   11.60
  -4  -8  -7    0.40   13.00
   4  -8   7    4.00   16.00
  -4   8  -7    1.00   20.80
  -4   8  -7    9.60   16.00
  -4   8  -7    9.80   17.40
   4  -9  -7   84.99   18.70
  -4  -9   7   71.69   15.10
  -4  -9   7   97.39   22.60
  -4  -9   7   74.29   14.00
   4  -9  -7   69.39   17.40
   4  -9  -7   77.29   20.60
   4  -9  -7   65.69   17.80
  -4  -9   7  109.39    7.00
  -4   9   7  100.19   21.70
  -4   9   7   98.19   20.50
  -4   9   7   69.29   13.30
  -3  -9   7  112.39    6.50
  -3  -9   7  162.48   22.40
  -3  -9   7  129.09   21.50
   3  -9  -7  113.59    7.70
  -3  -9   7  105.79    6.90
   3  -9  -7  145.09   17.40
   3  -9  -7  125.79    6.40
   3  -9  -7  121.59   15.80
  -3  -9   7  135.09   15.30
   3  -9  -7  135.09   18.90
   3  -9  -7  140.39   18.50
  -3   9   7  125.99   16.10
  -3   9   7  139.39   19.20
  -3   9   7  135.59   17.60
   2  -9  -7   15.00   13.80
  -2  -9   7    9.30    2.80
  -2  -9   7   18.80   12.70
  -2  -9   7   20.20   13.40
   2  -9  -7   10.10   13.70
   2  -9  -7   13.90   19.70
  -2  -9   7   20.60   19.00
   2  -9  -7   14.40    3.70
   2  -9  -7   17.50    3.10
   2  -9  -7   18.50   13.40
  -2   9   7   34.30   15.20
  -2   9   7   15.30   26.50
  -1  -9   7  200.68   28.60
   1  -9  -7  187.48    7.40
   1  -9  -7  196.38   21.00
   1  -9  -7  215.28    8.00
   1  -9  -7  202.48    8.70
   1  -9  -7  217.08   27.60
   1  -9  -7  210.68   21.20
  -1  -9   7  198.58    8.60
  -1  -9   7  189.48   24.00
  -1  -9   7  189.98    8.70
  -1  -9   7  191.18   20.20
   1   9  -7  210.28   25.00
  -1   9   7  183.48   21.60
  -1   9   7  185.98   22.70
   0  -9   7   58.19   12.50
   0  -9  -7   65.89   13.50
   0  -9  -7   55.69    3.10
   0  -9   7   60.79   15.40
   0  -9  -7   59.49    4.70
   0  -9   7   53.19   17.40
   0  -9   7   46.10    6.90
   0  -9  -7   45.50   17.70
   0  -9   7   58.49    5.30
   0  -9  -7   55.89   14.90
   0  -9  -7   63.89   12.00
   0   9  -7   55.79    3.50
   0   9   7   58.69   12.10
   0   9  -7   60.29   15.00
  -1  -9  -7   82.29   11.30
   1  -9   7   60.29   16.00
   1  -9   7   75.99   14.40
  -1  -9  -7   65.39    4.50
  -1  -9  -7   60.49   14.90
  -1  -9  -7   51.79   15.10
  -1  -9  -7   80.99   12.40
  -1   9  -7   71.19   16.70
  -1   9  -7   76.39    9.30
  -1   9  -7   60.39    4.50
   1   9   7   78.09   11.50
  -2  -9  -7  103.09   16.20
  -2  -9  -7   85.89   16.20
  -2  -9  -7   96.59   16.80
  -2  -9  -7  106.99   13.10
   2  -9   7   95.99   18.30
  -2  -9  -7  102.89    4.90
   2  -9   7  104.99   15.50
  -2   9  -7   97.09    5.60
  -2   9  -7  112.49   12.70
  -2   9  -7  113.69   20.00
   2   9   7   80.79    6.50
   3  -9   7    3.80   15.90
  -3  -9  -7    5.30   19.10
   3  -9   7    3.50   20.00
  -3  -9  -7    4.40   17.30
  -3  -9  -7    2.60   10.80
  -3  -9  -7   -3.90    9.70
  -3   9  -7    6.50   14.70
  -3   9  -7    7.60   18.10
  -3   9  -7    1.80   21.00
  -2 -10   7  126.29   16.30
  -2 -10   7  131.99    7.60
   2 -10  -7  132.69   17.70
   2 -10  -7  122.89   18.60
   2 -10  -7  136.79   17.90
  -2 -10   7  136.39   24.20
  -2 -10   7  114.29   16.10
   2 -10  -7  126.69   16.50
  -2  10   7  138.99   19.20
  -2  10   7  109.19   18.30
   1 -10  -7   -5.10    3.00
   1 -10  -7    0.90   15.80
  -1 -10   7   -5.20   19.20
  -1 -10   7    7.60   14.60
   1 -10  -7   -2.90   17.90
  -1 -10   7    6.10   15.10
   1 -10  -7    6.10   13.80
   1 -10  -7   15.70   14.40
   1 -10  -7   11.70    4.70
   1  10  -7    1.20   16.00
   0 -10  -7  100.59   13.40
   0 -10  -7  108.39   14.40
   0 -10   7   95.19   17.80
   0 -10  -7   90.39   17.70
   0 -10  -7  114.09   18.70
   0 -10   7  101.09   15.60
   0 -10  -7  105.39    6.00
   0 -10   7   82.09   20.00
   0  10  -7   86.19   18.70
   0  10   7  102.49   15.10
  -1 -10  -7   33.10   17.80
  -1 -10  -7   26.00   11.60
   1 -10   7   30.10   15.30
  -1 -10  -7   36.90   13.80
   1 -10   7   23.80   18.20
  -1 -10  -7   29.10   17.80
  -1  10  -7   23.90    3.00
  -1  10  -7   28.10   18.40
   1  10   7   28.10   13.20
  -7   0   8   67.49   18.20
  -7   0   8   42.30    6.30
   7   0  -8   56.89   21.20
   7   0  -8   62.99   11.00
  -7   0   8   59.89   15.50
   7   0  -8   68.89   15.00
  -7   0   8   49.50   18.40
   6   0  -8  224.48   15.60
  -6   0   8  220.88   24.90
  -6   0   8  229.48   11.10
   6   0  -8  218.08   26.10
  -6   0   8  233.38   24.70
  -6   0   8  227.68   21.20
  -5   0   8  532.55   26.10
   5   0  -8  493.15   19.70
  -5   0   8  554.44   19.30
  -5   0   8  523.75   27.00
   5   0  -8  531.75   17.40
  -5   0   8  522.55   18.00
   5   0  -8  517.25   27.70
   5   0  -8  516.55   18.80
   5   0  -8  516.45   23.30
  -5   0   8  513.85   23.40
   5   0  -8  498.65   17.70
   4   0  -8   75.69   10.30
  -4   0   8   83.49   12.80
   4   0  -8   68.79    4.60
   4   0  -8   89.19   10.60
   4   0  -8   81.19   12.30
   4   0  -8   88.69    5.70
   4   0  -8   85.89    9.60
  -4   0   8   69.99   10.30
   4   0  -8   79.29    5.20
  -4   0   8   86.39    5.10
  -4   0   8   67.39    9.40
  -4   0   8   68.29    5.60
  -3   0   8 1369.06   45.90
   3   0  -8 1362.56   44.30
   3   0  -8 1275.87   45.50
   3   0  -8 1424.56   42.60
  -3   0   8 1415.66   41.90
  -3   0   8 1366.76   43.80
   3   0  -8 1357.16   43.60
   3   0  -8 1445.56   42.10
  -3   0   8 1397.26   42.40
  -3   0   8 1320.97   45.40
   3   0  -8 1367.66   42.30
  -3   0   8 1377.16   44.20
   3   0  -8 1426.86   43.40
  -2   0   8  340.57   16.60
  -2   0   8  376.36   13.80
   2   0  -8  356.76   17.20
   2   0  -8  360.26   12.30
  -2   0   8  340.47   18.90
   2   0  -8  368.36   13.70
  -2   0   8  361.86   12.30
  -2   0   8  357.96   16.60
   2   0  -8  340.77   16.30
   2   0  -8  357.16   15.00
  -2   0   8  371.16   12.80
   2   0  -8  371.76   12.50
   2   0  -8  356.16   19.80
   1   0  -8 1123.39   38.50
   1   0  -8 1086.89   36.20
  -1   0   8 1103.29   35.70
  -1   0   8 1146.09   36.00
  -1   0   8 1192.28   34.90
  -1   0   8 1164.58   35.00
   1   0  -8 1162.98   36.10
  -1   0   8 1092.69   38.20
   1   0  -8 1166.88   34.80
  -1   0   8 1099.79   36.30
   1   0  -8 1082.29   36.60
   0   0   8 1649.54   53.99
   0   0  -8 1662.23   51.99
   0   0   8 1663.23   51.09
   0   0   8 1686.93   53.69
   0   0  -8 1744.13   52.29
   0   0  -8 1772.82   51.19
   0   0  -8 1639.94   52.19
   0   0  -8 1666.33   53.99
   0   0   8 1754.52   51.19
   0   0   8 1733.53   50.79
   0   0   8 1627.64   51.99
   1   0   8    9.80    1.80
   1   0   8   10.20    2.10
   1   0   8    9.40    1.20
  -1   0  -8   10.00    7.30
   1   0   8    9.90    5.40
  -1   0  -8    3.70    7.10
  -1   0  -8    3.50    2.20
  -1   0  -8    7.50    1.90
   1   0   8    5.20    2.60
  -1   0  -8    8.10    9.40
   1   0   8    5.50    7.00
   1   0   8    5.40   10.10
   2   0   8  643.64   27.70
  -2   0  -8  655.73   27.60
   2   0   8  679.93   24.60
  -2   0  -8  643.54   25.40
  -2   0  -8  708.73   23.40
   2   0   8  692.53   20.40
   2   0   8  670.93   22.00
   2   0   8  716.73   22.00
   2   0   8  658.93   22.40
  -2   0  -8  676.13   24.90
  -2   0  -8  679.43   21.80
   2   0   8  678.73   23.10
  -3   0  -8    7.30    8.90
  -3   0  -8    3.90    2.00
   3   0   8    4.40    8.20
   3   0   8    8.40    2.60
  -3   0  -8    6.50    9.10
  -3   0  -8    3.80    2.50
   3   0   8    7.60    0.90
   3   0   8    9.00    1.80
   3   0   8    9.40   11.60
  -3   0  -8    7.40   10.80
  -4   0  -8   97.79   11.50
  -4   0  -8   81.09   11.00
  -4   0  -8  111.79    5.80
  -4   0  -8  113.29   14.90
   4   0   8  117.09   15.40
   4   0   8  118.09    6.30
  -4   0  -8  103.19    6.90
   4   0   8   95.69   10.80
   4   0   8  103.79    4.30
   5   0   8  130.09    5.60
  -5   0  -8  137.09    8.50
  -5   0  -8  147.29   24.50
  -5   0  -8  119.69   14.00
   5   0   8  144.19   25.50
   5   0   8  139.59    6.20
   5   0   8  136.09   18.80
  -5   0  -8  136.29   22.60
   6   0   8    7.40   16.40
   6   0   8    5.80    2.00
   6   0   8   15.80   18.70
  -6   0  -8    7.10   18.70
  -6   0  -8   13.20   15.70
  -6   0  -8    9.10   15.20
  -7  -1   8  222.78   30.20
  -7  -1   8  182.98   10.70
  -7  -1   8  183.68   29.40
   7  -1  -8  207.78   25.90
  -7  -1   8  214.18   25.50
   7  -1  -8  202.68   32.70
   7  -1  -8  191.28   20.50
  -7   1   8  212.58   25.70
  -7   1   8  210.38   30.40
   7   1  -8  197.28   16.40
   7   1  -8  197.98   32.30
   7   1  -8  219.48   23.10
  -7   1   8  175.18   31.40
  -6  -1   8  245.58   11.40
  -6  -1   8  253.97   25.10
   6  -1  -8  245.78   21.50
  -6  -1   8  229.38   25.10
  -6  -1   8  234.48   21.40
   6  -1  -8  244.38   27.80
   6  -1  -8  239.08   17.70
  -6   1   8  220.68   26.30
   6   1  -8  226.68    9.10
   6   1  -8  234.18   19.70
   6   1  -8  243.08   26.40
  -6   1   8  233.28   24.80
  -6   1   8  241.08   21.60
  -6   1   8  233.88   11.30
   6   1  -8  229.78   14.00
   5  -1  -8  376.66   21.30
  -5  -1   8  375.06   21.50
   5  -1  -8  373.56   25.00
  -5  -1   8  375.66   23.10
   5  -1  -8  378.56   13.60
  -5  -1   8  380.86   25.00
  -5  -1   8  381.36   13.70
   5  -1  -8  360.96   14.60
  -5  -1   8  365.96   14.70
   5  -1  -8  371.96   17.70
  -5  -1   8  374.76   13.10
   5   1  -8  379.56   19.00
  -5   1   8  378.06   23.00
   5   1  -8  378.96   25.00
  -5   1   8  375.36   14.90
  -5   1   8  369.86   22.90
   5   1  -8  396.86   13.70
   5   1  -8  361.46   15.20
   5   1  -8  355.66   13.60
  -5   1   8  371.46   24.00
   4  -1  -8 1548.25   46.90
   4  -1  -8 1550.44   49.99
   4  -1  -8 1554.74   47.10
  -4  -1   8 1499.55   48.80
   4  -1  -8 1521.35   47.60
   4  -1  -8 1552.74   49.10
  -4  -1   8 1615.74   48.50
  -4  -1   8 1506.65   51.09
  -4  -1   8 1518.55   49.99
  -4  -1   8 1562.54   47.30
   4  -1  -8 1592.24   48.50
   4  -1  -8 1503.05   51.39
  -4  -1   8 1560.94   47.00
   4   1  -8 1517.95   48.50
  -4   1   8 1522.65   47.40
   4   1  -8 1545.45   47.30
   4   1  -8 1491.35   46.40
   4   1  -8 1543.85   51.49
  -4   1   8 1549.34   49.00
  -4   1   8 1511.25   51.19
   4   1  -8 1567.64   48.30
  -4   1   8 1533.85   49.70
  -4   1   8 1587.64   48.60
   4   1  -8 1589.54   47.30
   3  -1  -8   72.69    8.80
  -3  -1   8   59.39   10.40
  -3  -1   8   66.69    4.00
  -3  -1   8   63.99    8.90
   3  -1  -8   60.39    4.00
   3  -1  -8   74.99   11.70
  -3  -1   8   69.49    4.90
  -3  -1   8   87.29   10.10
   3  -1  -8   67.29    5.20
  -3  -1   8   80.09    4.50
   3  -1  -8   64.19    4.00
   3  -1  -8   82.69   10.20
   3  -1  -8   67.09    7.30
   3   1  -8   67.19    4.20
  -3   1   8   72.29    8.80
   3   1  -8   64.69    8.50
  -3   1   8   58.29    5.20
   3   1  -8   74.19    4.60
   3   1  -8   72.49    8.90
  -3   1   8   71.59   11.50
   3   1  -8   72.09    5.40
  -3   1   8   72.69    4.60
   3   1  -8   73.39    8.40
   3   1  -8   52.99   10.40
  -3   1   8   66.99    8.60
  -3   1   8   68.29    4.00
  -2  -1   8 1448.16   45.50
  -2  -1   8 1473.05   45.30
   2  -1  -8 1492.15   43.70
   2  -1  -8 1438.96   46.10
  -2  -1   8 1437.56   45.60
  -2  -1   8 1517.85   44.20
   2  -1  -8 1443.16   45.30
  -2  -1   8 1425.46   47.30
   2  -1  -8 1418.36   47.50
   2  -1  -8 1461.15   43.90
   2  -1  -8 1517.85   45.40
  -2  -1   8 1463.35   43.90
   2  -1  -8 1437.86   44.70
   2   1  -8 1485.25   45.30
   2   1  -8 1463.65   45.20
  -2   1   8 1481.05   43.90
  -2   1   8 1410.06   45.50
   2   1  -8 1418.26   45.60
  -2   1   8 1393.26   45.10
  -2   1   8 1403.36   47.40
  -2   1   8 1469.15   44.50
   2   1  -8 1423.46   44.00
  -2   1   8 1491.75   45.30
   2   1  -8 1408.66   44.10
   2   1  -8 1453.75   47.70
   2   1  -8 1377.36   45.00
   1  -1  -8  881.31   27.50
  -1  -1   8  894.51   27.90
  -1  -1   8  844.32   26.40
   1  -1  -8  829.72   28.70
   1  -1  -8  872.01   27.70
  -1  -1   8  870.61   26.60
   1  -1  -8  828.42   31.10
  -1  -1   8  822.52   28.20
   1  -1  -8  842.32   25.90
   1  -1  -8  794.42   29.20
  -1  -1   8  813.72   28.80
  -1  -1   8  824.42   30.70
   1   1  -8  830.52   28.60
  -1   1   8  822.92   30.90
  -1   1   8  868.21   27.70
  -1   1   8  798.72   27.50
  -1   1   8  818.42   28.30
  -1   1   8  873.21   26.50
   1   1  -8  905.21   26.60
  -1   1   8  877.11   26.90
   1   1  -8  825.42   30.80
   1   1  -8  799.02   28.50
   0  -1   8  306.17   10.70
   0  -1  -8  284.57   17.60
   0  -1  -8  290.27   11.70
   0  -1  -8  283.27   15.20
   0  -1   8  307.17   12.00
   0  -1   8  310.07   10.80
   0  -1  -8  305.07   10.70
   0  -1   8  297.07   14.10
   0  -1  -8  287.07   15.80
   0  -1   8  300.57   15.30
   0  -1   8  283.87   18.10
   0   1   8  286.17   17.80
   0   1   8  307.77   15.40
   0   1  -8  300.27   18.40
   0   1  -8  295.97   15.30
   0   1  -8  291.37   14.90
   0   1   8  308.67   11.10
   0   1  -8  302.37   12.00
   0   1  -8  314.97   11.50
   0   1   8  290.67   12.40
   0   1   8  288.77   12.80
   0   1   8  302.17   10.50
  -1  -1  -8 1414.56   47.80
   1  -1   8 1429.16   46.00
   1  -1   8 1460.25   44.80
  -1  -1  -8 1450.85   46.10
   1  -1   8 1515.75   44.00
  -1  -1  -8 1547.55   46.20
  -1  -1  -8 1430.86   46.70
  -1  -1  -8 1521.55   45.20
   1  -1   8 1543.35   44.80
   1  -1   8 1450.85   48.60
   1  -1   8 1503.05   46.20
   1  -1   8 1434.46   45.20
  -1   1  -8 1433.96   48.40
   1   1   8 1433.26   45.70
   1   1   8 1495.25   45.20
   1   1   8 1447.26   48.20
  -1   1  -8 1440.76   46.20
  -1   1  -8 1436.36   46.10
  -1   1  -8 1554.64   46.40
   1   1   8 1485.15   43.70
   1   1   8 1427.96   44.20
  -1   1  -8 1482.25   44.80
   1   1   8 1534.45   46.00
   1   1   8 1506.35   44.50
  -2  -1  -8   18.10    8.10
  -2  -1  -8   24.20    8.70
  -2  -1  -8   16.70    9.50
   2  -1   8   26.30    3.50
  -2  -1  -8   22.50    3.30
   2  -1   8   26.70    3.80
   2  -1   8   22.00    7.50
   2  -1   8   21.90    2.70
   2  -1   8   23.10    6.30
   2  -1   8   16.90    1.80
   2  -1   8   16.30   10.40
  -2  -1  -8   19.30    3.10
   2   1   8   25.70   10.90
  -2   1  -8   19.30   10.20
  -2   1  -8   20.70    7.70
  -2   1  -8   14.40    8.00
   2   1   8   27.30    4.80
  -2   1  -8   31.50    5.30
   2   1   8   26.50    7.70
   2   1   8   19.60    1.30
   2   1   8   24.10    3.60
  -2   1  -8   19.70    2.40
   2   1   8   15.10    2.00
   2   1   8   27.90    3.60
   3  -1   8  550.04   16.90
  -3  -1  -8  541.35   24.10
   3  -1   8  598.44   19.00
  -3  -1  -8  567.74   19.80
   3  -1   8  537.35   22.80
   3  -1   8  530.45   26.40
  -3  -1  -8  532.15   18.30
  -3  -1  -8  538.65   22.80
   3  -1   8  541.45   19.60
  -3  -1  -8  531.45   25.70
   3   1   8  539.75   26.30
  -3   1  -8  564.94   23.30
   3   1   8  573.74   17.90
  -3   1  -8  550.34   26.40
   3   1   8  523.25   18.40
   3   1   8  547.45   16.80
  -3   1  -8  558.94   18.70
   3   1   8  557.94   22.50
  -3   1  -8  580.84   20.10
  -3   1  -8  543.85   23.50
  -4  -1  -8  290.47   22.90
  -4  -1  -8  300.97   19.30
   4  -1   8  308.57   24.80
  -4  -1  -8  310.77   12.80
   4  -1   8  319.87   12.90
  -4  -1  -8  288.77   21.50
  -4  -1  -8  309.37   11.40
   4  -1   8  296.27   19.50
   4  -1   8  292.27   10.40
   4  -1   8  320.97   11.40
   4   1   8  303.47   18.10
  -4   1  -8  304.17   23.60
   4   1   8  290.77   23.80
   4   1   8  303.27   10.00
   4   1   8  320.87   10.90
  -4   1  -8  293.27   20.10
  -4   1  -8  327.47   13.20
  -4   1  -8  294.67   19.70
  -5  -1  -8   49.70   12.90
   5  -1   8   48.30   15.70
  -5  -1  -8   43.00   13.40
  -5  -1  -8   48.80    5.90
   5  -1   8   32.50    3.40
   5  -1   8   52.69   14.00
  -5  -1  -8   47.20   15.40
  -5   1  -8   43.20   15.40
   5   1   8   39.10    2.70
   5   1   8   47.80   15.30
  -5   1  -8   56.89    6.30
   5   1   8   48.70   11.10
  -5   1  -8   52.19   13.10
   5   1   8   36.80    4.00
  -5   1  -8   57.99   13.40
   6  -1   8  112.29   20.90
  -6  -1  -8  149.88   19.00
   6  -1   8  136.49   15.70
  -6  -1  -8  103.79   18.40
  -6  -1  -8  121.89   16.70
  -6  -1  -8  145.79    8.60
   6  -1   8  103.19    6.00
   6   1   8  122.79    7.60
   6   1   8  133.99   21.30
  -6   1  -8  124.49   21.10
  -6   1  -8  125.39   17.20
   6   1   8  124.19   14.30
  -6   1  -8  122.79   17.00
   7  -2  -8   55.49   16.20
  -7  -2   8   58.49    7.50
   7  -2  -8   66.79   13.30
  -7  -2   8   58.09   18.70
  -7  -2   8   63.29   16.20
  -7  -2   8   57.39   18.90
   7  -2  -8   62.49   21.40
   7   2  -8   57.49    5.30
  -7   2   8   68.89   21.20
  -7   2   8   63.29   16.20
  -7   2   8   68.89   19.20
   7   2  -8   55.59   13.70
   7   2  -8   59.69   20.40
   6  -2  -8  239.58   34.10
   6  -2  -8  236.08   19.40
  -6  -2   8  238.98   26.00
   6  -2  -8  256.57   22.70
  -6  -2   8  254.27   22.70
  -6  -2   8  234.08   24.90
  -6  -2   8  216.08   10.80
  -6   2   8  230.18   22.20
   6   2  -8  231.88   12.00
  -6   2   8  217.98   27.30
   6   2  -8  227.78   18.90
   6   2  -8  224.28   26.60
   6   2  -8  239.48    9.20
  -6   2   8  226.58   25.30
   5  -2  -8  551.84   19.90
   5  -2  -8  532.35   29.20
  -5  -2   8  540.25   25.20
   5  -2  -8  545.85   18.60
  -5  -2   8  567.74   19.80
  -5  -2   8  495.45   37.40
  -5  -2   8  538.85   18.20
  -5  -2   8  563.04   18.80
   5  -2  -8  550.24   23.00
   5  -2  -8  580.54   28.90
   5   2  -8  540.65   28.40
   5   2  -8  544.75   22.80
   5   2  -8  561.94   20.00
  -5   2   8  544.25   28.80
  -5   2   8  554.14   21.10
   5   2  -8  521.65   18.10
  -5   2   8  559.04   27.20
   5   2  -8  565.54   18.10
   4  -2  -8   82.79   11.80
  -4  -2   8   60.99   11.30
  -4  -2   8   66.39   11.60
   4  -2  -8   86.69    5.20
  -4  -2   8   72.59    4.60
   4  -2  -8   67.99    4.50
   4  -2  -8   61.09   12.40
   4  -2  -8   76.09    8.70
  -4  -2   8   67.29   10.10
  -4  -2   8   68.09    5.30
   4  -2  -8   68.59    9.70
   4  -2  -8   69.59    5.50
  -4  -2   8   70.19    4.30
  -4   2   8   60.89    5.50
  -4   2   8   79.19    4.30
   4   2  -8   61.29    7.10
   4   2  -8   75.59    4.30
   4   2  -8   53.69    4.60
   4   2  -8   63.09   12.10
  -4   2   8   72.09   11.20
  -4   2   8   66.79   12.60
   4   2  -8   66.09    9.00
  -4   2   8   59.39    9.70
   3  -2  -8 1155.98   38.80
  -3  -2   8 1165.28   36.30
  -3  -2   8 1204.78   36.90
   3  -2  -8 1161.68   38.30
  -3  -2   8 1124.09   39.50
   3  -2  -8 1182.38   35.40
   3  -2  -8 1142.79   37.10
   3  -2  -8 1118.59   37.80
   3  -2  -8 1166.78   35.40
   3  -2  -8 1148.19   40.20
  -3  -2   8 1144.59   38.50
  -3  -2   8 1127.89   37.60
  -3   2   8 1107.69   37.50
  -3   2   8 1152.28   36.10
   3   2  -8 1213.78   35.40
  -3   2   8 1100.19   39.70
   3   2  -8 1115.59   39.90
   3   2  -8 1174.18   36.80
   3   2  -8 1126.19   34.80
  -3   2   8 1162.58   37.50
   3   2  -8 1161.58   37.10
  -3   2   8 1127.09   37.80
   3   2  -8 1138.09   37.90
   3   2  -8 1168.28   37.30
  -2  -2   8  348.37   17.70
   2  -2  -8  367.96   13.60
   2  -2  -8  309.27   18.90
   2  -2  -8  351.06   16.40
  -2  -2   8  363.36   12.40
   2  -2  -8  347.77   12.00
  -2  -2   8  369.76   13.60
  -2  -2   8  346.27   12.30
   2  -2  -8  366.06   12.50
   2  -2  -8  336.47   17.40
  -2  -2   8  353.66   20.00
  -2  -2   8  346.87   17.50
   2  -2  -8  345.47   18.00
  -2   2   8  354.86   12.20
   2   2  -8  380.16   12.40
  -2   2   8  350.06   16.20
   2   2  -8  350.46   19.90
  -2   2   8  350.56   19.40
   2   2  -8  357.76   16.80
  -2   2   8  380.86   13.60
  -2   2   8  361.86   12.90
   2   2  -8  352.16   16.60
   2   2  -8  359.76   13.50
  -2   2   8  343.07   16.90
  -1  -2   8  630.04   19.60
  -1  -2   8  594.04   25.10
   1  -2  -8  614.34   19.60
  -1  -2   8  604.94   20.70
   1  -2  -8  599.44   25.00
  -1  -2   8  604.04   22.60
  -1  -2   8  604.94   22.50
   1  -2  -8  604.74   22.70
   1  -2  -8  601.14   23.30
   1  -2  -8  624.14   20.70
  -1  -2   8  601.14   19.40
   1  -2  -8  615.24   18.80
   1   2  -8  593.14   20.80
  -1   2   8  576.34   20.90
   1   2  -8  580.44   22.20
  -1   2   8  590.14   20.50
  -1   2   8  607.64   20.00
   1   2  -8  593.74   25.60
  -1   2   8  590.64   21.90
  -1   2   8  581.64   24.90
   1   2  -8  619.24   19.50
   1   2  -8  574.34   22.10
  -1   2   8  609.34   19.30
   0  -2  -8 1192.28   40.40
   0  -2   8 1217.68   39.30
   0  -2   8 1282.87   37.70
   0  -2   8 1232.08   42.10
   0  -2   8 1209.48   39.60
   0  -2  -8 1215.08   39.80
   0  -2  -8 1271.87   38.20
   0  -2   8 1266.17   37.90
   0  -2   8 1252.17   38.00
   0  -2   8 1314.37   40.10
   0  -2  -8 1222.58   41.70
   0  -2  -8 1276.97   39.20
   0   2  -8 1377.26   38.80
   0   2   8 1262.27   38.60
   0   2  -8 1224.98   41.90
   0   2   8 1197.58   39.00
   0   2   8 1135.59   37.70
   0   2   8 1202.38   41.70
   0   2   8 1297.37   37.70
   0   2  -8 1170.68   39.10
   0   2  -8 1270.37   39.50
   0   2  -8 1210.18   39.50
   0   2   8 1230.98   39.40
  -1  -2  -8    9.40    8.00
   1  -2   8   11.20    7.00
   1  -2   8   13.80    1.70
  -1  -2  -8   13.10    7.50
   1  -2   8   10.40    1.90
  -1  -2  -8    7.20    1.90
   1  -2   8   11.40    9.80
  -1  -2  -8    9.80    3.20
  -1  -2  -8   13.80    9.70
   1  -2   8   12.00    6.80
   1  -2   8   13.90    2.80
   1  -2   8   13.30    2.00
  -1   2  -8    7.90    1.80
  -1   2  -8   15.20    7.80
   1   2   8   14.60   10.00
  -1   2  -8   11.10    2.70
  -1   2  -8   13.20    9.50
   1   2   8    8.70    1.60
   1   2   8    8.10    1.90
   1   2   8   12.20    7.10
  -1   2  -8   10.20    7.00
   1   2   8   15.60    4.40
   1   2   8   19.30    3.20
  -1   2  -8   14.20    2.00
   2  -2   8  808.72   25.70
  -2  -2  -8  784.62   29.70
  -2  -2  -8  767.12   28.50
   2  -2   8  770.62   28.70
   2  -2   8  817.52   27.20
   2  -2   8  833.62   25.00
  -2  -2  -8  788.62   28.70
   2  -2   8  781.92   31.70
  -2  -2  -8  794.62   30.70
  -2  -2  -8  825.52   25.70
   2   2   8  812.22   31.20
  -2   2  -8  847.02   27.60
   2   2   8  830.02   27.30
   2   2   8  805.02   26.70
   2   2   8  804.12   28.10
  -2   2  -8  799.52   28.70
  -2   2  -8  796.32   31.60
  -2   2  -8  811.02   28.40
   2   2   8  844.42   25.20
  -2   2  -8  837.82   25.90
  -2   2  -8  826.32   25.80
  -3  -2  -8   19.70    2.60
  -3  -2  -8   26.30    9.30
   3  -2   8   23.90    3.20
  -3  -2  -8   25.90   10.50
   3  -2   8   18.10    8.80
   3  -2   8   21.90    3.40
  -3  -2  -8   25.00    3.50
   3  -2   8   25.80   12.20
   3  -2   8   27.50    2.20
  -3  -2  -8   27.50   11.50
  -3   2  -8   30.70    4.70
   3   2   8   33.10    2.80
   3   2   8   30.10    4.40
   3   2   8   32.60    8.40
  -3   2  -8   33.20    9.90
  -3   2  -8   28.20    9.10
   3   2   8   28.90   11.30
  -3   2  -8   28.90   12.10
   4  -2   8  252.17   25.00
  -4  -2  -8  230.38   20.70
   4  -2   8  230.68    8.10
  -4  -2  -8  255.17   10.80
   4  -2   8  224.68   10.50
  -4  -2  -8  218.88    9.20
   4  -2   8  253.17   18.60
  -4  -2  -8  244.48   19.30
  -4  -2  -8  236.78   21.70
  -4   2  -8  219.88   18.90
  -4   2  -8  242.68   27.50
   4   2   8  234.18   22.80
  -4   2  -8  237.08   24.40
   4   2   8  253.97    8.60
   4   2   8  247.98   17.20
  -4   2  -8  218.98   10.80
   5  -2   8  176.38   22.00
  -5  -2  -8  175.18   24.00
  -5  -2  -8  149.29   24.90
   5  -2   8  176.58    6.80
   5  -2   8  177.18   28.70
  -5  -2  -8  146.49   23.60
  -5  -2  -8  151.38    8.60
   5   2   8  169.88   18.60
   5   2   8  179.28    6.70
  -5   2  -8  166.28   27.50
  -5   2  -8  154.08    9.60
   5   2   8  164.28    5.50
   5   2   8  144.59   25.30
  -5   2  -8  177.38   22.20
  -5   2  -8  176.98   21.70
   6  -2   8   -5.60    2.60
  -6  -2  -8    4.90   17.10
   6  -2   8    1.10   14.80
  -6  -2  -8    2.40   16.90
   6  -2   8   13.00   22.00
  -6  -2  -8   -1.50   15.00
  -6   2  -8   -2.50   15.80
  -6   2  -8    3.40   15.40
   6   2   8    0.70    3.20
  -6   2  -8    6.10   20.70
   6   2   8   -6.40   19.40
   6   2   8    1.20   12.20
   6   2   8   -1.70    1.40
  -7  -3   8  177.48   10.70
   7  -3  -8  204.48   25.80
   7  -3  -8  192.78   19.70
  -7  -3   8  189.88   27.60
  -7  -3   8  180.48   30.10
  -7  -3   8  179.58   21.10
   7  -3  -8  171.28   28.90
   7   3  -8  190.48   21.00
   7   3  -8  187.48    7.90
  -7   3   8  214.38   23.70
  -7   3   8  247.78   37.20
   7   3  -8  186.58   23.00
  -7   3   8  174.28   18.70
  -6  -3   8  138.99   16.70
  -6  -3   8  151.78    9.40
   6  -3  -8  171.68   29.20
  -6  -3   8  161.38   22.20
  -6  -3   8  159.08   24.50
   6  -3  -8  158.68   23.50
   6  -3  -8  151.98   19.90
   6   3  -8  157.28   26.00
  -6   3   8  174.28   20.30
  -6   3   8  150.98   15.60
   6   3  -8  166.88   17.90
  -6   3   8  176.18   17.70
   5  -3  -8   77.39    6.30
  -5  -3   8   96.79    6.80
   5  -3  -8   94.79   11.00
   5  -3  -8  101.79   12.60
  -5  -3   8   91.79   13.20
   5  -3  -8   86.29   17.00
   5  -3  -8  103.19    5.50
  -5  -3   8  101.29    5.60
  -5  -3   8  111.09   11.90
  -5  -3   8   97.39    5.30
  -5  -3   8   92.79   13.90
  -5   3   8   84.29   15.10
   5   3  -8  109.39    5.50
  -5   3   8   88.19   13.20
   5   3  -8  105.99   14.90
   5   3  -8   98.89    9.90
  -5   3   8   86.09   14.80
  -5   3   8   75.99    6.50
   4  -3  -8  940.51   33.00
  -4  -3   8  940.61   35.10
   4  -3  -8  958.40   31.30
   4  -3  -8  948.81   36.60
  -4  -3   8  963.60   30.00
   4  -3  -8  956.70   35.30
   4  -3  -8  950.60   29.80
  -4  -3   8  945.71   29.70
  -4  -3   8  945.21   35.40
  -4  -3   8  917.61   31.90
   4  -3  -8  969.30   33.50
  -4  -3   8  949.90   33.30
  -4   3   8  945.31   31.30
  -4   3   8  941.01   29.60
  -4   3   8  933.71   33.60
  -4   3   8  918.81   36.10
   4   3  -8 1009.80   29.60
   4   3  -8  952.60   30.40
   4   3  -8  930.11   31.80
   4   3  -8  939.71   35.90
  -4   3   8  956.80   34.40
  -3  -3   8  239.88    9.90
  -3  -3   8  235.88    8.70
   3  -3  -8  222.48   16.40
   3  -3  -8  228.68    9.80
  -3  -3   8  234.88   16.40
   3  -3  -8  223.18   15.70
  -3  -3   8  219.38   18.30
  -3  -3   8  221.88   17.50
   3  -3  -8  229.08    8.50
   3  -3  -8  213.08   19.00
   3  -3  -8  220.28   18.00
   3  -3  -8  208.18    8.90
   3   3  -8  227.08   14.60
   3   3  -8  217.38    7.00
  -3   3   8  208.68   19.70
   3   3  -8  236.28    9.20
   3   3  -8  222.08   19.00
  -3   3   8  216.28    9.90
  -3   3   8  218.78   15.10
  -3   3   8  229.98   16.30
   3   3  -8  227.68    7.10
  -3   3   8  201.58   10.80
  -2  -3   8 1492.75   45.20
  -2  -3   8 1572.64   46.90
   2  -3  -8 1404.06   48.60
  -2  -3   8 1507.45   45.20
   2  -3  -8 1490.65   47.00
   2  -3  -8 1441.96   47.90
   2  -3  -8 1472.55   47.00
  -2  -3   8 1480.65   47.60
   2  -3  -8 1474.45   45.20
   2  -3  -8 1533.25   46.60
  -2  -3   8 1436.46   47.10
   2  -3  -8 1527.85   44.80
  -2  -3   8 1475.95   49.00
  -2   3   8 1528.75   45.10
  -2   3   8 1486.55   46.50
  -2   3   8 1471.05   49.00
   2   3  -8 1451.35   44.10
   2   3  -8 1497.45   46.40
   2   3  -8 1490.35   46.60
  -2   3   8 1506.25   46.60
   2   3  -8 1585.64   45.30
  -2   3   8 1494.05   46.60
   2   3  -8 1488.05   46.60
  -2   3   8 1536.15   46.00
   2   3  -8 1485.05   49.20
  -1  -3   8  306.17   16.90
  -1  -3   8  299.57   16.20
   1  -3  -8  282.27   17.00
   1  -3  -8  299.27   16.70
   1  -3  -8  299.67   10.00
  -1  -3   8  291.47   19.10
   1  -3  -8  294.47   10.70
  -1  -3   8  311.97   10.70
  -1  -3   8  296.97   10.80
   1  -3  -8  304.77   12.10
   1  -3  -8  314.27   18.70
  -1  -3   8  302.57   11.90
  -1  -3   8  311.87   11.00
   1  -3  -8  299.57   16.10
   1   3  -8  290.07   14.70
   1   3  -8  299.27   19.80
   1   3  -8  301.07   11.30
  -1   3   8  283.07   13.70
  -1   3   8  305.87   10.50
  -1   3   8  287.17   12.30
   1   3  -8  294.67   11.90
  -1   3   8  302.47   11.70
   1   3  -8  296.17   16.10
  -1   3   8  298.87   18.60
   1   3  -8  308.77   10.10
  -1   3   8  294.47   15.00
   0  -3   8  293.47   11.80
   0  -3   8  292.17   10.40
   0  -3   8  290.57   10.60
   0  -3  -8  326.97   14.50
   0  -3  -8  285.27   15.70
   0  -3   8  291.07   19.40
   0  -3   8  295.27   10.20
   0  -3  -8  301.67   10.80
   0  -3   8  272.97   15.40
   0  -3  -8  262.77   17.20
   0  -3   8  284.67   16.30
   0  -3  -8  292.07   18.60
   0   3  -8  296.17   11.90
   0   3  -8  279.37   14.40
   0   3   8  304.47   18.80
   0   3  -8  306.27   10.60
   0   3   8  288.47   10.10
   0   3  -8  290.07   15.70
   0   3   8  272.07   12.00
   0   3   8  295.37   11.30
   0   3   8  287.57   14.70
   0   3   8  277.77   11.60
   0   3  -8  284.37   19.00
  -1  -3  -8  555.54   21.80
  -1  -3  -8  558.54   24.50
  -1  -3  -8  570.04   18.70
   1  -3   8  544.45   22.10
   1  -3   8  574.54   18.90
   1  -3   8  575.64   19.90
  -1  -3  -8  560.14   23.60
  -1  -3  -8  573.04   19.90
   1  -3   8  566.74   22.10
   1  -3   8  564.64   25.40
   1  -3   8  586.44   18.20
   1  -3   8  566.04   18.20
   1   3   8  542.65   19.10
   1   3   8  570.44   17.90
   1   3   8  539.75   20.90
  -1   3  -8  560.54   20.90
  -1   3  -8  560.54   25.60
  -1   3  -8  569.24   20.80
  -1   3  -8  580.74   18.40
  -1   3  -8  572.34   18.50
   1   3   8  582.24   19.50
   1   3   8  555.14   18.10
   1   3   8  561.04   24.60
  -1   3  -8  549.74   22.80
  -2  -3  -8   40.00   10.80
   2  -3   8   36.20    4.70
  -2  -3  -8   30.60    9.60
   2  -3   8   33.90   11.20
   2  -3   8   39.20    2.90
  -2  -3  -8   40.20    8.50
  -2  -3  -8   30.50    3.30
  -2  -3  -8   25.90    4.10
   2  -3   8   38.00    8.70
  -2   3  -8   38.90    3.30
  -2   3  -8   28.60    5.30
  -2   3  -8   42.80    3.60
   2   3   8   35.70    4.00
  -2   3  -8   32.90   11.10
   2   3   8   41.30   11.10
  -2   3  -8   30.50    9.10
   2   3   8   33.90    2.70
   2   3   8   39.40    7.70
  -2   3  -8   40.30    7.90
  -3  -3  -8  330.67   18.70
   3  -3   8  318.67   13.90
  -3  -3  -8  321.17   21.50
   3  -3   8  333.57   24.20
   3  -3   8  287.27   13.00
  -3  -3  -8  327.67   11.70
  -3  -3  -8  318.27   21.10
   3  -3   8  323.67   10.90
  -3  -3  -8  323.67   12.60
   3  -3   8  324.77   19.50
  -3   3  -8  310.97   19.50
  -3   3  -8  332.67   12.00
  -3   3  -8  308.77   18.20
   3   3   8  324.37   22.70
  -3   3  -8  319.57   11.70
  -3   3  -8  323.57   13.30
   3   3   8  334.77   10.80
   3   3   8  309.07   12.20
   3   3   8  314.47   16.80
  -3   3  -8  302.17   23.70
   4  -3   8  214.78   27.50
   4  -3   8  239.58   26.00
   4  -3   8  218.48   10.60
  -4  -3  -8  231.88    9.10
   4  -3   8  231.08    8.20
  -4  -3  -8  235.38   19.60
  -4  -3  -8  216.68   24.50
  -4   3  -8  231.78   25.40
  -4   3  -8  202.18   11.40
  -4   3  -8  220.18   24.70
   4   3   8  228.98   16.10
   4   3   8  233.48   23.80
   4   3   8  235.48    8.00
  -4   3  -8  223.58   18.70
   5  -3   8   40.90   19.90
  -5  -3  -8   36.50   14.30
  -5  -3  -8   39.90   16.20
  -5  -3  -8   45.50    5.20
   5  -3   8   38.10   13.20
   5  -3   8   30.30    4.10
  -5   3  -8   32.90   12.40
  -5   3  -8   44.90   14.20
  -5   3  -8   33.80   18.40
   5   3   8   44.60   16.40
   5   3   8   39.40   10.10
   5   3   8   37.70    3.70
   6  -3   8  128.79   17.90
  -6  -3  -8  133.49   19.60
  -6  -3  -8  122.79   19.60
   6  -3   8  146.49   25.30
  -6  -3  -8  156.58    9.50
  -6  -3  -8  127.49   17.40
   6   3   8  138.79   21.00
   6   3   8  134.39   19.10
  -6   3  -8  133.09   20.40
  -6   3  -8  140.29   14.30
  -6   3  -8  119.49   18.60
  -6   3  -8  147.19   24.80
  -6  -4   8  159.78   25.40
  -6  -4   8  164.48   19.30
   6  -4  -8  144.99   20.40
  -6  -4   8  140.49   15.40
   6  -4  -8  145.09   16.20
  -6  -4   8  148.79    8.50
  -6   4   8  176.18   19.80
   6   4  -8  151.78    6.40
   6   4  -8  154.98   27.00
   6   4  -8  139.59   16.50
  -6   4   8  125.49   19.80
  -6   4   8  129.99   16.00
  -5  -4   8  371.96   25.40
   5  -4  -8  355.66   23.00
   5  -4  -8  342.57   27.20
  -5  -4   8  357.66   25.90
  -5  -4   8  378.26   14.20
  -5  -4   8  360.76   13.10
  -5  -4   8  406.26   13.90
   5  -4  -8  377.26   25.80
   5  -4  -8  342.37   13.50
   5  -4  -8  370.26   22.50
  -5  -4   8  364.26   22.80
   5  -4  -8  358.26   14.40
   5   4  -8  354.36   25.50
  -5   4   8  353.06   23.10
   5   4  -8  354.96   18.40
  -5   4   8  342.87   27.10
  -5   4   8  364.76   25.30
   5   4  -8  359.66   12.30
   4  -4  -8   46.10    3.60
   4  -4  -8   47.50   10.30
  -4  -4   8   38.80   11.90
  -4  -4   8   48.30   10.30
  -4  -4   8   44.10    3.80
  -4  -4   8   49.80   12.70
   4  -4  -8   34.90    5.00
   4  -4  -8   41.20   13.70
  -4  -4   8   38.00    3.70
   4  -4  -8   42.20   10.90
   4  -4  -8   35.50   10.90
  -4  -4   8   40.70    4.50
   4   4  -8   29.10    3.90
  -4   4   8   51.19   14.00
  -4   4   8   33.50    3.60
  -4   4   8   58.89   12.20
   4   4  -8   46.90    8.10
  -4   4   8   33.80    4.90
  -4   4   8   44.00   10.40
   4   4  -8   48.90   12.60
   3  -4  -8  459.85   17.30
  -3  -4   8  426.16   21.20
   3  -4  -8  438.56   21.20
  -3  -4   8  402.26   22.40
   3  -4  -8  456.95   14.90
  -3  -4   8  446.66   15.00
  -3  -4   8  438.36   22.80
   3  -4  -8  429.56   23.90
   3  -4  -8  443.56   20.90
   3  -4  -8  428.56   23.00
  -3  -4   8  460.35   16.80
   3  -4  -8  451.35   15.20
   3   4  -8  447.36   23.70
  -3   4   8  446.36   15.70
  -3   4   8  453.35   24.50
   3   4  -8  447.76   16.50
  -3   4   8  437.16   19.80
   3   4  -8  453.85   18.70
  -3   4   8  436.16   21.20
   3   4  -8  455.55   14.80
  -2  -4   8  343.27   13.50
  -2  -4   8  344.87   13.00
  -2  -4   8  343.77   11.80
   2  -4  -8  347.87   12.10
  -2  -4   8  340.47   20.80
  -2  -4   8  341.47   19.40
  -2  -4   8  346.17   18.40
   2  -4  -8  345.27   13.30
   2  -4  -8  332.17   18.30
   2  -4  -8  344.87   19.60
   2  -4  -8  345.37   11.60
   2  -4  -8  331.37   18.40
   2  -4  -8  339.57   20.80
  -2   4   8  310.97   20.70
  -2   4   8  333.07   17.00
   2   4  -8  350.66   10.60
   2   4  -8  346.17   16.60
   2   4  -8  337.87   13.70
   2   4  -8  345.57   21.40
  -2   4   8  357.76   12.80
  -2   4   8  327.27   16.80
   2   4  -8  348.57   12.00
  -2   4   8  350.16   11.70
   1  -4  -8  142.29    6.10
   1  -4  -8  133.69   16.10
   1  -4  -8  142.39   14.00
   1  -4  -8  143.29    5.30
  -1  -4   8  136.79   17.30
  -1  -4   8  148.19    6.50
   1  -4  -8  100.99   15.20
  -1  -4   8  134.69    7.50
   1  -4  -8  137.49    8.10
   1  -4  -8  143.59   14.80
  -1  -4   8  134.49    7.20
  -1  -4   8  131.69   14.50
  -1  -4   8  139.89   15.80
  -1  -4   8  144.19    6.00
  -1   4   8  134.89    7.00
  -1   4   8  142.39    6.70
   1   4  -8  135.09    5.20
  -1   4   8  129.19   10.90
  -1   4   8  130.29   16.60
   1   4  -8  138.39   18.10
   1   4  -8  144.79   11.70
   1   4  -8  137.29   13.30
  -1   4   8  140.99   12.40
   1   4  -8  144.19    7.40
  -1   4   8  136.39    5.60
   0  -4  -8  566.54   25.10
   0  -4  -8  554.14   17.40
   0  -4  -8  585.84   19.90
   0  -4   8  567.64   23.70
   0  -4  -8  568.44   24.40
   0  -4   8  585.34   19.00
   0  -4   8  564.64   19.10
   0  -4   8  571.74   25.90
   0  -4  -8  576.24   18.70
   0  -4   8  588.94   20.30
   0  -4  -8  548.75   22.80
   0  -4   8  545.25   22.50
   0  -4   8  581.14   18.40
   0   4   8  576.74   19.80
   0   4   8  576.04   19.60
   0   4   8  563.44   19.90
   0   4  -8  589.14   19.00
   0   4   8  593.44   21.30
   0   4  -8  582.64   26.30
   0   4   8  634.54   18.80
   0   4  -8  595.74   18.80
   0   4  -8  584.74   22.50
   0   4  -8  559.44   21.00
   0   4   8  571.64   25.00
   0   4  -8  597.64   20.60
   1  -4   8   11.30    1.90
  -1  -4  -8    1.10    8.40
  -1  -4  -8   13.20   10.30
   1  -4   8    6.40    8.10
   1  -4   8   10.80   10.80
   1  -4   8    5.30    2.10
  -1  -4  -8   10.60    2.00
   1  -4   8    7.70    8.40
   1  -4   8    4.50    2.40
  -1  -4  -8    7.10    2.10
  -1   4  -8    4.50    6.40
  -1   4  -8    4.90   10.50
  -1   4  -8    5.20    2.40
  -1   4  -8    5.20    1.50
   1   4   8    9.00    4.40
   1   4   8    3.00    2.50
   1   4   8    8.90    2.20
   1   4   8   10.20   10.40
   1   4   8    6.00    6.80
  -1   4  -8    9.20    1.90
  -2  -4  -8  579.84   26.10
   2  -4   8  567.74   24.30
   2  -4   8  545.25   27.00
   2  -4   8  585.74   18.80
  -2  -4  -8  553.64   19.90
  -2  -4  -8  575.34   26.00
   2  -4   8  586.94   20.70
  -2  -4  -8  579.54   20.20
  -2  -4  -8  589.44   23.80
   2   4   8  604.64   18.50
   2   4   8  586.64   19.80
  -2   4  -8  566.44   21.90
   2   4   8  560.74   21.20
  -2   4  -8  597.84   19.20
  -2   4  -8  597.14   20.90
  -2   4  -8  606.64   19.30
  -2   4  -8  581.14   27.70
  -2   4  -8  578.04   24.80
   2   4   8  575.64   26.40
   3  -4   8   33.70    5.10
  -3  -4  -8   32.60   11.80
  -3  -4  -8   38.00    9.90
  -3  -4  -8   32.40   12.20
  -3  -4  -8   30.40    3.40
   3  -4   8   41.20   14.50
  -3  -4  -8   27.00    4.10
   3  -4   8   42.30   10.70
   3  -4   8   24.90    3.00
  -3   4  -8   34.70    3.60
   3   4   8   39.70   12.70
  -3   4  -8   40.60    9.00
  -3   4  -8   37.90   13.90
   3   4   8   36.90    7.40
  -3   4  -8   31.00    3.40
   3   4   8   30.90    2.40
  -3   4  -8   29.90    4.20
   3   4   8   22.20    3.80
  -3   4  -8   38.70   11.20
   4  -4   8   89.89   24.10
   4  -4   8  106.29   13.20
  -4  -4  -8   90.19    6.30
  -4  -4  -8  103.99   15.50
   4  -4   8  113.59    7.20
  -4  -4  -8  108.39    5.60
  -4  -4  -8   86.49   17.40
  -4  -4  -8   92.79   12.20
   4  -4   8   99.59    4.80
   4   4   8  113.39   15.50
  -4   4  -8  102.19   17.30
  -4   4  -8  101.09   11.50
   4   4   8  104.59    4.00
   4   4   8   96.69   12.90
  -4   4  -8   82.99   13.40
  -5  -4  -8  105.29   22.50
   5  -4   8   91.29   20.40
  -5  -4  -8   91.09    6.30
  -5  -4  -8   64.59   15.40
  -5  -4  -8   90.39   16.60
   5  -4   8   91.99   15.00
   5   4   8   77.99    8.50
   5   4   8   87.89   17.40
  -5   4  -8   84.89   13.30
  -5   4  -8   87.29   15.70
  -5   4  -8  101.39   13.00
  -5   4  -8   76.69   19.60
  -6  -4  -8   -0.50   16.00
   6  -4   8    9.40   23.50
  -6  -4  -8   -3.10   18.60
  -6  -4  -8   -0.80   19.40
   6  -4   8    4.80   17.00
  -6   4  -8    1.80   14.50
  -6   4  -8   -0.10   15.90
  -6   4  -8    1.00   23.00
  -6   4  -8    2.40   18.70
   6   4   8   -0.70   19.80
  -6  -5   8  118.99   18.90
  -6  -5   8  121.49    7.90
  -6  -5   8  126.79   17.80
   6  -5  -8  112.99   17.10
  -6  -5   8  125.49   15.80
   6  -5  -8  126.59   22.50
   6  -5  -8  119.59   16.50
  -6   5   8  138.79   22.40
   6   5  -8  117.39   18.80
   6   5  -8  127.19   14.40
  -6   5   8  130.59   20.20
  -6   5   8   98.79   17.50
  -6   5   8  115.79   16.40
   5  -5  -8   77.59   13.20
  -5  -5   8   91.99    5.70
   5  -5  -8  100.19   14.50
  -5  -5   8   88.79   15.00
  -5  -5   8   94.79    7.60
  -5  -5   8  104.39    8.30
   5  -5  -8  119.59   16.60
   5  -5  -8  101.69    7.50
  -5  -5   8  100.99   13.70
  -5  -5   8   94.19   14.70
   5  -5  -8   94.39   17.70
  -5   5   8   97.09   15.70
  -5   5   8   97.89   13.90
  -5   5   8   89.59   17.30
   5   5  -8  110.19   16.00
   5   5  -8   98.49    5.00
   5   5  -8  104.39   13.20
  -4  -5   8  483.05   23.90
  -4  -5   8  475.55   26.70
   4  -5  -8  445.16   34.00
   4  -5  -8  514.55   16.70
   4  -5  -8  495.15   24.80
  -4  -5   8  478.85   16.50
   4  -5  -8  507.85   25.80
   4  -5  -8  512.45   28.40
  -4  -5   8  506.15   18.30
   4  -5  -8  470.65   17.90
  -4   5   8  507.65   23.60
  -4   5   8  497.05   25.90
  -4   5   8  491.45   28.30
   4   5  -8  464.05   19.30
   4   5  -8  474.35   26.60
  -4   5   8  518.85   16.60
  -4   5   8  460.55   26.80
   3  -5  -8   22.80   10.90
   3  -5  -8   21.20   12.90
  -3  -5   8   27.70    3.20
   3  -5  -8   19.60   10.10
  -3  -5   8   22.20    9.70
   3  -5  -8   29.90   12.10
  -3  -5   8   21.80    2.80
   3  -5  -8   17.30    3.00
  -3  -5   8   23.80   11.70
  -3  -5   8   16.80   10.30
  -3   5   8   19.20    2.20
   3   5  -8   21.60    7.10
  -3   5   8   23.70   12.30
   3   5  -8   27.40   12.20
  -3   5   8   23.50   10.20
  -3   5   8   13.70    2.70
   3   5  -8   14.90    1.80
  -3   5   8   22.50   10.60
  -3   5   8   21.80    9.40
  -2  -5   8  961.70   30.50
  -2  -5   8  929.91   33.60
   2  -5  -8  946.61   35.60
   2  -5  -8  967.70   29.80
  -2  -5   8  924.21   29.80
  -2  -5   8  978.30   29.70
   2  -5  -8  957.90   31.10
   2  -5  -8  934.51   34.80
   2  -5  -8  940.71   33.10
   2  -5  -8  935.51   34.10
   2  -5  -8  968.40   29.60
  -2  -5   8  856.61   34.00
  -2  -5   8  950.20   35.20
  -2  -5   8  934.81   35.50
  -2   5   8  945.81   32.80
   2   5  -8  986.00   29.30
  -2   5   8  924.01   32.20
  -2   5   8 1007.10   30.80
   2   5  -8  962.70   36.10
   2   5  -8  974.00   28.00
  -2   5   8  977.00   32.20
   2   5  -8  991.30   31.30
  -2   5   8  933.61   35.60
  -2   5   8  993.40   29.60
   2   5  -8  972.50   31.40
  -1  -5   8  477.45   23.30
   1  -5  -8  482.65   21.70
   1  -5  -8  478.75   15.20
  -1  -5   8  477.15   17.50
  -1  -5   8  471.95   15.70
   1  -5  -8  488.05   16.10
   1  -5  -8  473.15   22.70
  -1  -5   8  493.85   16.20
  -1  -5   8  488.75   16.70
   1  -5  -8  466.75   23.60
   1  -5  -8  466.75   18.60
  -1  -5   8  471.95   20.90
  -1  -5   8  470.75   24.40
   1  -5  -8  455.15   23.20
  -1   5   8  496.85   17.10
   1   5  -8  470.25   18.60
   1   5  -8  504.75   15.80
  -1   5   8  498.55   15.60
   1   5  -8  500.95   15.10
  -1   5   8  475.05   19.50
   1   5  -8  478.75   17.50
  -1   5   8  492.35   19.50
   1   5  -8  478.35   20.00
  -1   5   8  510.65   17.60
   1   5  -8  491.15   25.10
  -1   5   8  475.85   23.50
   0  -5   8  302.17   12.30
   0  -5  -8  298.67   17.80
   0  -5   8  317.97   11.30
   0  -5   8  307.07   10.50
   0  -5  -8  313.97   11.20
   0  -5  -8  302.47   19.90
   0  -5  -8  300.97   12.00
   0  -5  -8  308.97   19.50
   0  -5  -8  303.47    9.60
   0  -5   8  320.97   21.70
   0  -5  -8  299.57   20.30
   0  -5   8  306.67   17.40
   0  -5   8  325.17   11.30
   0  -5   8  305.07   19.80
   0   5  -8  303.37   21.30
   0   5  -8  302.07   16.80
   0   5  -8  303.77   14.20
   0   5   8  321.47   11.90
   0   5   8  313.37   12.00
   0   5  -8  313.17   10.90
   0   5   8  301.67   13.80
   0   5   8  313.87   14.70
   0   5   8  287.47   11.20
   0   5   8  318.07   19.80
  -1  -5  -8  747.03   29.90
  -1  -5  -8  756.32   25.30
   1  -5   8  744.73   24.10
  -1  -5  -8  744.43   23.70
   1  -5   8  749.62   27.90
   1  -5   8  758.42   24.00
   1  -5   8  720.83   31.40
   1  -5   8  760.92   25.50
  -1  -5  -8  729.83   30.00
   1   5   8  750.02   24.80
  -1   5  -8  768.72   23.70
   1   5   8  713.23   23.60
  -1   5  -8  788.92   23.90
   1   5   8  739.43   24.80
  -1   5  -8  713.93   25.10
  -1   5  -8  760.82   31.80
   1   5   8  759.12   22.70
   1   5   8  770.72   24.70
   1   5   8  727.03   29.80
  -2  -5  -8   18.00   11.60
   2  -5   8   10.80    3.10
  -2  -5  -8   14.10    2.20
   2  -5   8   20.20   13.60
  -2  -5  -8    9.60    2.50
  -2  -5  -8   18.30   11.20
   2  -5   8   11.30    2.00
   2  -5   8   13.20    9.70
  -2  -5  -8   19.00    9.60
  -2   5  -8   22.00   10.20
  -2   5  -8   20.60    7.10
  -2   5  -8   11.80    3.20
   2   5   8   17.40    5.70
  -2   5  -8   15.60    2.40
   2   5   8   14.50    2.50
   2   5   8   24.20   11.70
  -2   5  -8   10.70   13.20
  -3  -5  -8  156.28    7.60
  -3  -5  -8  143.99   17.90
   3  -5   8  147.69    6.60
  -3  -5  -8  169.18   20.70
  -3  -5  -8  142.89   21.60
   3  -5   8  148.19    8.40
   3  -5   8  143.79   20.10
  -3  -5  -8  136.39    6.60
   3  -5   8  166.68   19.60
  -3   5  -8  138.99    6.80
  -3   5  -8  134.79   14.50
  -3   5  -8  161.78   24.90
  -3   5  -8  148.69   20.40
   3   5   8  158.18   21.10
  -4  -5  -8   75.99    5.80
  -4  -5  -8   86.49   12.40
  -4  -5  -8   90.19    5.20
   4  -5   8   84.09   19.20
   4  -5   8   73.69   13.40
  -4  -5  -8   76.89   14.40
   4  -5   8   93.59    6.80
  -4  -5  -8   66.89   14.70
   4  -5   8   72.49    4.70
  -4   5  -8   90.89   14.50
   4   5   8   72.59   15.20
  -4   5  -8   82.89   11.30
  -4   5  -8   86.99   19.50
   5  -5   8   13.80   21.70
   5  -5   8   20.10   15.70
  -5  -5  -8    6.40   17.50
  -5  -5  -8   16.90    3.50
  -5  -5  -8   14.70   17.70
   5  -5   8   25.20    3.30
  -5  -5  -8   16.70   15.70
  -5   5  -8   24.00   12.80
  -5   5  -8   18.10   16.30
   5   5   8   22.80   17.40
  -5   5  -8   15.20   13.90
  -5   5  -8   19.60   21.10
  -6  -6   8   73.59   20.30
   6  -6  -8   82.89   24.50
  -6  -6   8   68.59   17.40
   6  -6  -8   75.69   18.60
   6  -6  -8   52.59   17.60
  -6  -6   8   87.09   16.10
   6   6  -8   82.79   19.60
  -6   6   8  110.29   24.10
  -6   6   8   84.79   21.00
  -6   6   8   81.49   17.80
   5  -6  -8  222.48   10.80
   5  -6  -8  237.38   26.00
  -5  -6   8  209.88    9.90
   5  -6  -8  215.38   27.70
  -5  -6   8  212.78   28.10
   5  -6  -8  223.48   25.20
  -5  -6   8  213.38   24.60
   5  -6  -8  220.08   29.70
  -5  -6   8  201.68    8.90
  -5   6   8  187.78   30.90
  -5   6   8  209.98   22.90
  -5   6   8  203.98   26.90
   5   6  -8  206.98   26.30
   4  -6  -8   45.00   15.10
  -4  -6   8   58.49   12.00
   4  -6  -8   49.80   14.10
   4  -6  -8   55.99   13.70
  -4  -6   8   44.40   13.10
  -4  -6   8   53.29    4.30
   4  -6  -8   38.40    4.70
   4  -6  -8   40.10   13.00
  -4  -6   8   50.99   14.80
  -4  -6   8   44.20    5.00
   4  -6  -8   51.49    4.10
   4   6  -8   37.40    2.60
   4   6  -8   48.00   13.90
  -4   6   8   57.29   11.60
   4   6  -8   44.30    6.40
  -4   6   8   41.10   15.40
  -4   6   8   42.00   13.00
  -3  -6   8  449.26   18.00
  -3  -6   8  497.85   18.00
   3  -6  -8  496.05   16.80
  -3  -6   8  513.95   16.60
   3  -6  -8  521.85   24.80
  -3  -6   8  493.15   23.90
   3  -6  -8  498.65   29.60
   3  -6  -8  502.25   27.60
   3  -6  -8  517.45   17.80
   3  -6  -8  526.15   18.90
  -3  -6   8  498.25   27.50
   3   6  -8  481.95   18.80
  -3   6   8  499.85   22.30
  -3   6   8  504.85   27.90
   3   6  -8  497.75   15.60
  -3   6   8  491.45   24.80
  -3   6   8  506.65   16.40
   3   6  -8  530.25   27.10
  -2  -6   8  144.29    5.90
   2  -6  -8  140.29   19.30
  -2  -6   8  148.59   20.20
   2  -6  -8  137.39   19.70
   2  -6  -8  155.48    7.60
  -2  -6   8  138.89    7.50
  -2  -6   8  142.59   17.50
   2  -6  -8  148.59    6.50
   2  -6  -8  141.99    5.80
   2  -6  -8  145.69   17.60
   2  -6  -8  140.29   18.80
  -2  -6   8  136.99    6.40
  -2  -6   8  126.59   14.70
  -2   6   8  143.89   20.60
  -2   6   8  131.39    5.80
   2   6  -8  147.49   20.80
  -2   6   8  132.89   14.80
   2   6  -8  150.28   12.70
  -2   6   8  140.89   16.20
   1  -6  -8  285.87   20.40
   1  -6  -8  276.97   18.50
  -1  -6   8  269.47    9.40
   1  -6  -8  282.37   20.30
  -1  -6   8  281.87   22.10
   1  -6  -8  273.37   11.20
   1  -6  -8  252.67   20.90
  -1  -6   8  274.17   22.00
   1  -6  -8  277.57    9.20
   1  -6  -8  278.57   10.10
  -1  -6   8  266.97   10.40
  -1  -6   8  273.67   18.40
  -1   6   8  267.17   15.80
   1   6  -8  282.07    9.10
  -1   6   8  274.37   20.60
   1   6  -8  306.57   22.90
   1   6  -8  275.67   11.20
  -1   6   8  280.97   15.20
   1   6  -8  282.07   15.90
  -1   6   8  276.77   10.90
   0  -6  -8  489.95   22.30
   0  -6   8  519.25   18.20
   0  -6  -8  503.85   16.10
   0  -6  -8  476.15   25.30
   0  -6   8  476.45   21.80
   0  -6  -8  484.55   24.50
   0  -6   8  503.65   25.20
   0  -6  -8  473.55   14.70
   0  -6   8  489.65   16.70
   0  -6  -8  462.35   23.60
   0  -6   8  480.65   26.50
   0  -6   8  474.55   15.30
   0  -6  -8  503.55   17.20
   0  -6   8  497.15   16.60
   0   6  -8  486.85   21.20
   0   6  -8  507.45   15.80
   0   6   8  466.35   19.10
   0   6   8  475.45   23.90
   0   6   8  474.05   16.90
   0   6   8  478.55   15.10
   0   6  -8  467.45   25.80
   0   6   8  488.55   18.30
   0   6  -8  513.45   15.90
   0   6   8  415.76   16.70
   1  -6   8    5.00    9.80
  -1  -6  -8    0.10   10.70
   1  -6   8    4.10    2.20
  -1  -6  -8    8.10    2.10
   1  -6   8    3.80   13.80
  -1  -6  -8    6.50    2.40
  -1  -6  -8    3.30   12.60
   1  -6   8   -0.40    2.30
  -1  -6  -8    4.90    9.70
  -1  -6  -8    5.60   10.30
   1   6   8    6.70    6.10
  -1   6  -8   -0.50   13.20
   1   6   8    8.80   10.50
  -1   6  -8    3.40    6.00
   1   6   8    5.00    0.80
   1   6   8   -0.40    6.30
  -1   6  -8    3.30    1.50
  -1   6  -8   -0.20    1.60
  -1   6  -8    3.70    9.30
   1   6   8    6.10    2.40
  -2  -6  -8  313.17   33.20
   2  -6   8  389.56   16.60
  -2  -6  -8  387.06   14.40
  -2  -6  -8  400.46   13.50
  -2  -6  -8  392.46   23.20
   2  -6   8  369.56   13.60
  -2  -6  -8  365.56   21.10
   2  -6   8  384.86   26.90
  -2   6  -8  420.56   23.00
  -2   6  -8  415.56   14.00
  -2   6  -8  400.36   13.60
  -2   6  -8  389.36   27.50
  -2   6  -8  372.76   16.30
   2   6   8  376.86   23.70
   3  -6   8   50.69   17.10
  -3  -6  -8   49.00    4.30
  -3  -6  -8   43.20   13.40
   3  -6   8   47.20    6.10
  -3  -6  -8   42.10   11.60
  -3  -6  -8   32.20    4.50
   3  -6   8   45.20   12.80
   3  -6   8   41.60    4.10
  -3  -6  -8   38.90   15.70
  -3   6  -8   52.79   17.40
  -3   6  -8   46.80    8.50
  -3   6  -8   48.70   14.90
   3   6   8   41.20   13.00
   4  -6   8   85.69   20.70
  -4  -6  -8   56.29    5.40
  -4  -6  -8   72.19   13.40
  -4  -6  -8   72.89   14.60
  -4  -6  -8   63.89    5.10
   4  -6   8   59.69   15.20
   4  -6   8   61.99    8.00
  -4  -6  -8   74.59   17.90
  -4   6  -8   67.39   33.90
   4   6   8   74.29   15.70
  -4   6  -8   76.59   11.00
  -4   6  -8   67.19   15.70
   5  -6   8   59.79   18.30
  -5  -6  -8   38.30   18.40
  -5  -6  -8   60.39   16.50
   5  -6   8   59.19   23.70
  -5   6  -8   66.39   17.80
  -5   6  -8   47.40   13.20
  -5   6  -8   60.09   16.70
  -5   6  -8   52.39   22.90
   5  -7  -8   46.20    6.70
   5  -7  -8   66.99   18.50
  -5  -7   8   62.69   17.80
  -5  -7   8   48.70    5.80
  -5  -7   8   60.89   20.20
   5  -7  -8   59.49   17.30
  -5  -7   8   50.29   15.80
   5  -7  -8   54.89   20.20
   5  -7  -8   52.99   17.00
   5   7  -8   53.29   17.10
  -5   7   8   53.89   17.40
  -5   7   8   82.09   22.90
  -5   7   8   55.69   15.40
   4  -7  -8  282.07   27.60
   4  -7  -8  241.48   11.60
   4  -7  -8  269.87   26.60
  -4  -7   8  254.57   24.20
  -4  -7   8  268.77   10.10
  -4  -7   8  260.17   23.50
  -4  -7   8  257.17   10.80
  -4  -7   8  230.88    9.70
  -4  -7   8  246.98   28.20
   4  -7  -8  237.58   10.10
   4  -7  -8  258.17   25.90
   4  -7  -8  245.78   28.60
  -4   7   8  268.77   22.30
   4   7  -8  270.67   25.20
  -4   7   8  245.48   25.60
  -4   7   8  221.28   29.40
  -3  -7   8   18.40   15.00
   3  -7  -8   25.50   14.60
   3  -7  -8   29.70    3.40
  -3  -7   8   22.40   11.90
   3  -7  -8   23.00   12.70
   3  -7  -8   19.70   13.60
  -3  -7   8   31.10    3.20
   3  -7  -8   18.70   12.80
  -3  -7   8   26.40   13.00
   3   7  -8   31.00   13.50
  -3   7   8   20.70   14.80
  -3   7   8   17.70    3.50
  -3   7   8   13.80   10.40
  -3   7   8   22.90   14.00
   2  -7  -8  462.55   14.80
  -2  -7   8  469.55   28.10
   2  -7  -8  470.35   27.30
   2  -7  -8  461.45   24.20
  -2  -7   8  457.95   15.40
   2  -7  -8  478.55   16.70
   2  -7  -8  413.76   16.50
  -2  -7   8  443.96   16.60
  -2  -7   8  453.65   14.70
   2  -7  -8  451.35   26.60
  -2  -7   8  440.66   23.50
  -2  -7   8  422.86   28.30
   2   7  -8  448.26   17.40
  -2   7   8  444.76   22.90
  -2   7   8  452.35   14.50
  -2   7   8  455.75   26.50
   2   7  -8  468.45   14.10
   2   7  -8  465.35   26.90
  -2   7   8  435.96   20.10
  -1  -7   8  147.19   15.90
  -1  -7   8  138.69   18.00
   1  -7  -8  141.09   18.30
   1  -7  -8  140.59    5.40
   1  -7  -8  137.99    7.30
   1  -7  -8  158.68   16.00
  -1  -7   8  111.49   19.50
  -1  -7   8  125.19    6.60
   1  -7  -8  151.38   21.80
  -1  -7   8  131.59    7.60
  -1  -7   8  146.89    5.30
   1  -7  -8  139.59    7.10
  -1   7   8  137.49   12.70
   1   7  -8  143.09   13.60
  -1   7   8  149.88   21.10
   1   7  -8  161.28   22.90
   1   7  -8  146.79    5.50
  -1   7   8  141.29   16.60
  -1   7   8  136.39    5.20
   0  -7   8   92.29    7.20
   0  -7   8   77.99   11.40
   0  -7  -8  101.39   14.50
   0  -7  -8   87.69    4.80
   0  -7  -8   85.09    5.50
   0  -7  -8   75.89   16.60
   0  -7  -8   81.99   11.50
   0  -7   8   92.59   15.50
   0  -7  -8   77.09    3.20
   0  -7   8   81.19    5.20
   0  -7  -8   83.79   12.10
   0  -7   8   63.59   13.50
   0   7   8   81.89   12.80
   0   7   8   84.69    9.50
   0   7  -8   86.69    9.80
   0   7  -8   77.79    3.90
   0   7  -8   82.99    4.00
   0   7  -8   64.59   13.90
  -1  -7  -8  306.17   27.20
  -1  -7  -8  354.86   12.20
   1  -7   8  362.96   14.10
   1  -7   8  363.16   28.20
  -1  -7  -8  339.17   13.00
   1  -7   8  342.07   26.70
  -1  -7  -8  350.06   21.20
  -1  -7  -8  350.86   25.50
  -1  -7  -8  318.87   21.70
  -1   7  -8  355.86   12.10
  -1   7  -8  358.76   13.30
  -1   7  -8  371.26   20.10
  -1   7  -8  344.17   27.00
   1   7   8  322.87   15.70
   1   7   8  337.77   22.50
  -2  -7  -8   21.80   13.20
  -2  -7  -8   16.90   11.50
   2  -7   8   24.60    3.70
   2  -7   8   20.10   15.40
  -2  -7  -8   11.80    2.80
   2  -7   8   12.80   12.00
  -2   7  -8   15.80    2.20
  -2   7  -8   11.50   15.50
  -3  -7  -8  120.49   13.60
  -3  -7  -8  124.29    6.00
  -3  -7  -8  114.99   18.30
   3  -7   8  120.09   15.90
   3  -7   8  114.19   19.20
  -3  -7  -8  102.09    6.10
   3  -7   8  124.99    8.30
  -3  -7  -8  102.79   23.10
  -3   7  -8   90.29   28.10
  -3   7  -8   99.39   11.40
  -3   7  -8   93.49   18.70
   3   7   8  110.79    5.50
   4  -7   8   42.00   17.00
  -4  -7  -8   45.10   14.50
   4  -7   8   33.20   20.50
  -4  -7  -8   47.40   19.00
  -4  -7  -8   26.00    3.70
  -4  -7  -8   40.10   14.00
  -4   7  -8   35.50   39.10
  -4   7  -8   44.40   16.70
  -4   7  -8   34.30    9.60
  -4   7  -8   40.40   16.80
  -4  -8   8    4.80   14.30
   4  -8  -8    5.20   15.80
   4  -8  -8   10.60   19.60
  -4  -8   8   11.80   19.70
  -4  -8   8    6.80   22.80
   4  -8  -8   14.20   17.50
  -4  -8   8    4.80    2.70
   4  -8  -8   16.20   18.00
  -4   8   8    5.90   16.20
  -4   8   8   26.70   19.60
   4   8  -8   18.30   16.00
  -4   8   8    9.60   13.20
  -4   8   8    3.00    3.10
   3  -8  -8  196.58    9.90
   3  -8  -8  201.88   27.60
  -3  -8   8  197.48    8.40
  -3  -8   8  187.88   23.60
   3  -8  -8  193.58    7.90
  -3  -8   8  211.48   24.60
  -3  -8   8  228.18   30.30
  -3  -8   8  184.28    9.20
   3  -8  -8  200.78   27.80
  -3  -8   8  209.18    7.50
   3  -8  -8  196.08   24.60
   3  -8  -8  200.58   26.70
  -3   8   8  184.78    7.60
   3   8  -8  199.78   25.60
  -3   8   8  172.68   24.30
  -3   8   8  172.28   27.80
  -3   8   8  197.98   19.30
   2  -8  -8   58.39   14.50
  -2  -8   8   63.69    3.50
  -2  -8   8   76.49   17.60
   2  -8  -8   61.59    7.40
  -2  -8   8   60.69   13.30
  -2  -8   8   69.69   15.20
  -2  -8   8   60.59    5.80
  -2  -8   8   72.19    5.10
   2  -8  -8   70.89   15.80
   2  -8  -8   74.09   15.60
   2  -8  -8   70.19    4.30
   2   8  -8   71.09   15.20
  -2   8   8   62.89   13.70
  -2   8   8   58.99    9.10
  -2   8   8   61.59   15.50
   1  -8  -8  150.58   20.80
  -1  -8   8  136.09   17.50
   1  -8  -8  151.28   17.00
   1  -8  -8  154.08    6.70
  -1  -8   8  132.59   14.10
  -1  -8   8  144.89    6.90
  -1  -8   8  140.79    7.80
  -1  -8   8  138.89   24.40
   1  -8  -8  147.29   22.20
   1  -8  -8  133.69    8.70
   1  -8  -8  124.09   15.30
  -1   8   8  152.38   19.30
   1   8  -8  165.58   25.20
   1   8  -8  151.78   11.90
  -1   8   8  136.69   22.30
   0  -8  -8  157.48   20.50
   0  -8   8  163.88    8.50
   0  -8  -8  181.78   24.90
   0  -8  -8  163.38    6.10
   0  -8   8  188.08   25.70
   0  -8  -8  173.68    8.10
   0  -8  -8  179.48    7.40
   0  -8  -8  167.98   25.60
   0  -8  -8  176.68   21.00
   0  -8   8  166.18   18.10
   0   8   8  182.68   21.90
   0   8   8  164.38   16.70
   0   8  -8  171.38   26.50
   0   8  -8  180.48   15.90
   0   8  -8  183.08    7.30
  -1  -8  -8   13.10   15.40
  -1  -8  -8   20.50    4.30
  -1  -8  -8    9.90   14.20
  -1  -8  -8   14.40   11.70
   1  -8   8   12.40    3.40
   1  -8   8    9.40   16.20
  -1  -8  -8    7.00    2.70
   1  -8   8   11.10   12.90
  -1   8  -8    8.50   16.10
   1   8   8   13.90    9.20
  -1   8  -8    6.70    2.90
  -1   8  -8   14.80    2.10
  -1   8  -8   17.50   10.50
   1   8   8    9.20    2.10
  -2  -8  -8  159.88   21.30
  -2  -8  -8  129.99   17.30
   2  -8   8  119.99   15.40
   2  -8   8  166.58    9.50
  -2  -8  -8  102.09   16.20
   2  -8   8  130.69   19.40
  -2  -8  -8  160.28    7.40
  -2  -8  -8  129.49    6.90
  -2   8  -8  150.38    6.40
  -2   8  -8  132.59    6.60
  -2   8  -8  115.99   19.00
   3  -8   8    5.80    4.60
  -3  -8  -8   10.80   19.40
  -3  -8  -8    5.00    2.90
  -3  -8  -8    2.40   18.50
   3  -8   8   10.40   20.40
   3  -8   8    6.50   16.20
  -3  -8  -8  -19.90   11.70
  -3   8  -8   -0.60   19.70
  -3   8  -8   -3.30   26.30
   3  -9  -8    4.10   16.20
   3  -9  -8    6.10    2.80
   3  -9  -8    7.30   18.00
   3  -9  -8   16.90   18.50
   3  -9  -8    3.20   18.30
  -3  -9   8   17.00   20.10
  -3  -9   8    9.70   15.40
  -3   9   8   36.10   20.30
  -3   9   8   12.30   17.80
  -3   9   8    4.10   10.90
   2  -9  -8  125.59   17.20
   2  -9  -8  124.89   17.30
  -2  -9   8  159.88   22.30
   2  -9  -8  154.88   16.70
   2  -9  -8  132.39    6.30
   2  -9  -8  164.98   20.50
  -2  -9   8  155.08   27.20
  -2   9   8  129.39   18.40
   2   9  -8  165.48   28.20
  -2   9   8  150.38   17.50
  -1  -9   8   46.30   18.80
   1  -9  -8   60.29    6.30
   1  -9  -8   64.49   20.40
   1  -9  -8   67.89   18.10
  -1  -9   8   51.19   16.40
   1  -9  -8   47.70   16.60
   1  -9  -8   58.39    3.70
   1  -9  -8   55.79   14.90
  -1  -9   8   47.00    6.00
  -1  -9   8   53.29   18.60
  -1   9   8   43.40   15.40
  -1   9   8   57.29   14.30
   1   9  -8   54.09   17.10
   0  -9   8   41.50   14.10
   0  -9  -8   45.70    2.90
   0  -9  -8   45.80    4.80
   0  -9   8   44.60    7.10
   0  -9  -8   37.10   13.70
   0  -9   8   50.39   17.90
   0  -9  -8   49.50   13.80
   0  -9  -8   37.20   16.30
   0  -9   8   43.10   18.50
   0  -9  -8   48.20    5.80
   0  -9  -8   36.90   16.40
   0   9  -8   24.50   18.40
   0   9  -8   41.40    7.80
   0   9   8   43.80   12.80
  -1  -9  -8  138.09   15.20
  -1  -9  -8  123.29   14.50
  -1  -9  -8  141.49    9.00
   1  -9   8  114.49   15.90
  -1  -9  -8  107.29   18.10
   1  -9   8  157.38    8.60
   1  -9   8  128.69   20.50
  -1  -9  -8  110.69   17.80
  -1   9  -8  115.99    6.10
  -1   9  -8  112.39   19.50
   1   9   8  121.29   17.90
  -1   9  -8  141.89   18.60
   2  -9   8    7.30   19.90
  -2  -9  -8    4.60   12.30
  -2  -9  -8   12.60   19.60
   2  -9   8   10.30   16.10
  -2  -9  -8   -8.40   19.10
  -2  -9  -8    8.40    3.00
   2  -9   8   -5.80    7.30
  -2  -9  -8    6.00   13.90
  -2   9  -8    6.60   21.20
  -2   9  -8   20.10   13.70
   7   0  -9   55.49   11.70
  -7   0   9   59.79   17.10
  -7   0   9   63.09   22.80
   7   0  -9   66.89   23.90
  -7   0   9   50.99   19.50
   7   0  -9   55.29   17.10
   6   0  -9  312.47   31.20
  -6   0   9  284.97   13.60
  -6   0   9  306.57   29.80
   6   0  -9  319.97   23.10
   6   0  -9  314.97   18.50
  -6   0   9  320.37   28.10
  -6   0   9  334.57   26.20
  -5   0   9   27.70    4.30
  -5   0   9   29.20   14.70
   5   0  -9   28.40    7.90
   5   0  -9   27.50   15.20
  -5   0   9   22.20   15.40
  -5   0   9   22.80   11.40
   4   0  -9  329.87   19.40
   4   0  -9  316.97   15.70
  -4   0   9  319.97   12.00
   4   0  -9  325.37   23.60
  -4   0   9  316.67   13.00
  -4   0   9  317.27   19.60
   4   0  -9  315.07   11.60
   4   0  -9  313.17   11.70
  -4   0   9  313.97   21.40
   4   0  -9  313.77   21.10
  -4   0   9  298.27   23.50
   4   0  -9  309.17   12.80
   3   0  -9  341.37   12.30
  -3   0   9  364.76   12.80
   3   0  -9  277.77   21.70
   3   0  -9  341.77   18.50
  -3   0   9  341.17   19.70
  -3   0   9  345.37   22.60
   3   0  -9  361.06   13.90
   3   0  -9  358.66   20.10
  -3   0   9  387.16   15.10
   3   0  -9  358.26   16.30
  -3   0   9  340.37   19.40
   3   0  -9  331.17   12.80
  -2   0   9   76.49    4.30
  -2   0   9   79.49    9.50
  -2   0   9   67.99    5.20
   2   0  -9   66.09    4.00
  -2   0   9   67.89    4.80
   2   0  -9   85.79    8.10
   2   0  -9   82.39    9.60
   2   0  -9   76.09   12.50
   2   0  -9   60.09    9.00
  -2   0   9   74.89    9.00
  -2   0   9   76.59   12.40
   2   0  -9   69.89    5.60
   2   0  -9   77.99    4.30
   1   0  -9 1122.59   36.10
   1   0  -9 1104.09   37.20
  -1   0   9 1148.19   34.80
   1   0  -9 1101.49   37.30
  -1   0   9 1098.89   34.30
  -1   0   9 1143.09   35.90
  -1   0   9 1076.89   36.60
  -1   0   9 1092.79   35.90
   1   0  -9 1085.59   39.40
  -1   0   9 1079.09   39.30
   1   0  -9 1150.88   34.50
   0   0   9   23.90    4.10
   0   0  -9   16.70    8.80
   0   0   9   13.80    6.70
   0   0   9   16.30   11.30
   0   0  -9   14.20    9.10
   0   0  -9   20.10    2.40
   0   0   9   12.30    8.20
   0   0  -9   14.80    3.10
   0   0  -9   19.90   11.30
   0   0   9   20.50    2.70
   1   0   9  812.92   33.20
  -1   0  -9  869.31   28.20
   1   0   9  852.41   26.60
  -1   0  -9  831.32   29.90
   1   0   9  851.31   26.90
   1   0   9  816.82   27.50
  -1   0  -9  795.32   30.30
   1   0   9  836.42   27.90
  -1   0  -9  811.12   32.90
  -1   0  -9  857.91   26.80
   1   0   9  839.42   29.90
   1   0   9  851.41   25.40
  -2   0  -9  357.36   23.60
  -2   0  -9  384.36   14.70
   2   0   9  365.86   15.50
  -2   0  -9  378.16   20.70
   2   0   9  367.66   24.10
   2   0   9  363.56   13.40
   2   0   9  373.06   20.00
   2   0   9  359.76   12.90
   2   0   9  362.66   12.00
  -2   0  -9  360.56   20.50
   2   0   9  381.26   14.90
  -3   0  -9   62.09   11.50
   3   0   9   60.19   14.20
  -3   0  -9   57.19    4.50
   3   0   9   53.89    5.30
   3   0   9   60.89    2.40
  -3   0  -9   65.29   11.40
   3   0   9   54.29   10.50
  -3   0  -9   65.49   14.10
  -3   0  -9   49.80    4.30
   3   0   9   62.19    7.20
  -3   0  -9   55.89    5.90
   4   0   9  102.59    4.20
   4   0   9   91.59    7.20
   4   0   9   99.29   16.70
  -4   0  -9  112.89   14.20
  -4   0  -9  106.99   13.70
  -4   0  -9   82.89   15.40
  -4   0  -9   73.59    7.20
   4   0   9   92.59   11.90
  -5   0  -9   10.40   18.00
   5   0   9    3.20   15.40
   5   0   9    2.20   17.60
  -5   0  -9    4.20   14.40
  -5   0  -9   -3.10   14.00
   5   0   9    4.10    1.80
  -5   0  -9    1.80    4.20
  -6   0  -9   59.39    8.90
  -6   0  -9   37.60   18.30
  -6   0  -9   31.90   17.60
  -6   0  -9   36.30   21.10
   6   0   9   50.09   26.10
   6   0   9   31.00   15.70
   7  -1  -9  164.68   24.60
   7  -1  -9  182.18   22.10
  -7  -1   9  185.08   22.00
  -7  -1   9  192.88   24.00
   7  -1  -9  187.98   19.10
  -7   1   9  170.08   22.20
  -7   1   9  175.18   23.60
   7   1  -9  176.98   17.30
   7   1  -9  197.78   26.40
  -6  -1   9   -3.40   13.50
   6  -1  -9   -8.20   13.50
   6  -1  -9    0.50   10.30
  -6  -1   9    3.30   14.90
  -6  -1   9    8.50   16.50
   6  -1  -9    1.30   18.10
   6   1  -9   -4.70    7.90
   6   1  -9   -3.00   12.50
  -6   1   9   -3.30   13.80
   6   1  -9    1.80   18.70
  -6   1   9    0.10   17.10
  -6   1   9   -9.60   15.90
  -5  -1   9  472.55   17.90
  -5  -1   9  463.45   27.20
   5  -1  -9  473.55   24.60
   5  -1  -9  455.25   29.50
   5  -1  -9  497.45   19.00
  -5  -1   9  463.65   29.10
  -5  -1   9  471.75   25.50
   5  -1  -9  461.15   21.20
  -5   1   9  457.85   28.90
   5   1  -9  471.35   23.60
   5   1  -9  451.45   18.30
   5   1  -9  455.45   29.50
  -5   1   9  468.35   18.00
  -5   1   9  460.45   24.80
  -4  -1   9  127.49   18.80
   4  -1  -9  123.49   18.20
   4  -1  -9  125.39   13.80
  -4  -1   9  120.89    6.10
   4  -1  -9  112.39    7.30
  -4  -1   9  108.79   14.10
  -4  -1   9  121.99   17.30
   4  -1  -9  115.49    6.10
   4  -1  -9  123.29   19.30
  -4  -1   9  127.69    7.20
   4  -1  -9  133.99   15.70
  -4   1   9  130.39   16.40
   4   1  -9  141.29   21.60
   4   1  -9  126.79   11.10
   4   1  -9  119.79    6.10
  -4   1   9  121.89   15.30
  -4   1   9  120.49   12.40
   4   1  -9  126.49   16.50
  -4   1   9  140.49    6.60
   4   1  -9  124.99    6.20
  -4   1   9  122.49    7.60
   4   1  -9  108.39    7.10
  -3  -1   9  674.53   27.00
   3  -1  -9  679.63   24.90
  -3  -1   9  687.93   22.30
  -3  -1   9  709.93   23.70
   3  -1  -9  683.23   27.80
   3  -1  -9  661.93   21.80
   3  -1  -9  699.73   22.10
  -3  -1   9  657.23   26.90
   3  -1  -9  636.24   29.50
  -3  -1   9  663.53   29.40
   3  -1  -9  670.73   23.40
   3  -1  -9  673.13   26.10
  -3   1   9  691.43   22.50
   3   1  -9  656.53   22.10
   3   1  -9  700.03   23.70
   3   1  -9  691.13   26.30
  -3   1   9  700.33   23.50
   3   1  -9  677.03   26.90
   3   1  -9  676.33   23.30
  -3   1   9  686.83   26.40
   3   1  -9  634.24   29.40
  -3   1   9  662.13   29.60
   3   1  -9  705.83   22.10
  -3   1   9  656.73   26.40
  -2  -1   9 1292.47   40.20
   2  -1  -9 1236.28   38.90
  -2  -1   9 1266.57   38.90
   2  -1  -9 1218.68   41.20
   2  -1  -9 1287.57   40.20
  -2  -1   9 1139.29   39.20
   2  -1  -9 1227.78   40.20
   2  -1  -9 1331.97   39.50
  -2  -1   9 1248.08   41.00
   2  -1  -9 1264.67   41.90
   2  -1  -9 1237.38   43.60
  -2  -1   9 1243.88   41.10
  -2  -1   9 1263.87   44.00
   2   1  -9 1286.47   41.70
   2   1  -9 1225.68   41.30
  -2   1   9 1287.47   38.60
  -2   1   9 1230.28   43.40
  -2   1   9 1280.37   40.30
   2   1  -9 1281.97   40.20
   2   1  -9 1278.57   44.20
  -2   1   9 1240.68   40.50
   2   1  -9 1230.38   39.30
  -2   1   9 1275.27   39.20
   2   1  -9 1320.87   38.80
  -2   1   9 1234.58   41.20
   1  -1  -9   38.90   12.40
   1  -1  -9   29.80    9.50
   1  -1  -9   40.90    9.00
   1  -1  -9   45.70    3.60
  -1  -1   9   42.80    8.30
  -1  -1   9   44.70    4.50
  -1  -1   9   31.70   11.20
  -1  -1   9   38.10    4.40
   1  -1  -9   33.10    4.40
  -1  -1   9   29.80    8.70
   1   1  -9   32.00   11.50
  -1   1   9   40.70    4.40
  -1   1   9   35.50    3.90
   1   1  -9   44.30    8.80
  -1   1   9   33.30    7.40
   1   1  -9   32.20    8.60
  -1   1   9   40.10   11.50
   1   1  -9   40.30    3.30
  -1   1   9   28.10    9.50
   1   1  -9   38.90    6.00
  -1   1   9   30.00    3.10
   0  -1   9  735.93   30.50
   0  -1   9  716.53   26.80
   0  -1  -9  740.63   23.70
   0  -1   9  764.42   23.90
   0  -1   9  757.62   23.70
   0  -1  -9  747.03   25.10
   0  -1   9  746.03   26.00
   0  -1  -9  735.13   30.30
   0  -1  -9  711.93   27.70
   0  -1  -9  719.83   27.60
   0  -1   9  758.72   25.50
   0   1   9  765.32   23.60
   0   1   9  716.03   24.80
   0   1  -9  753.62   27.20
   0   1   9  714.93   24.40
   0   1  -9  750.82   23.70
   0   1   9  757.12   26.20
   0   1  -9  745.93   25.20
   0   1  -9  718.93   27.00
   0   1   9  721.03   30.10
   0   1  -9  720.63   30.50
   0   1   9  718.33   26.60
  -1  -1  -9  196.78    8.20
   1  -1   9  207.08    7.30
  -1  -1  -9  199.88   19.40
   1  -1   9  204.48   20.30
   1  -1   9  201.08    9.50
   1  -1   9  199.18   13.30
   1  -1   9  200.28   15.70
  -1  -1  -9  188.98    9.10
  -1  -1  -9  185.58   15.80
  -1  -1  -9  179.78   17.00
   1  -1   9  194.68    8.00
   1  -1   9  196.18    8.20
   1   1   9  209.98    8.70
  -1   1  -9  203.58    8.30
  -1   1  -9  218.38    9.90
  -1   1  -9  198.08   15.90
   1   1   9  197.48   11.40
   1   1   9  206.08    6.90
   1   1   9  212.18    8.00
  -1   1  -9  185.58   19.90
   1   1   9  205.28   15.80
   1   1   9  195.18   19.50
   1   1   9  196.58    9.30
  -1   1  -9  199.48   16.10
   2  -1   9  167.38    6.00
  -2  -1  -9  163.98   17.90
   2  -1   9  155.28   20.60
   2  -1   9  166.38   13.10
  -2  -1  -9  157.58   16.30
   2  -1   9  156.08    7.20
   2  -1   9  152.08    8.30
   2  -1   9  165.28    7.00
  -2  -1  -9  173.68    7.50
  -2  -1  -9  170.38    8.60
   2  -1   9  153.08   15.50
  -2  -1  -9  163.38   20.10
   2   1   9  171.38    5.40
  -2   1  -9  156.98    9.20
   2   1   9  158.28   10.20
   2   1   9  161.18   15.80
  -2   1  -9  161.18   20.00
  -2   1  -9  156.18   16.80
  -2   1  -9  171.08    7.30
   2   1   9  166.28    6.80
   2   1   9  164.08    7.70
   2   1   9  172.88   20.60
  -2   1  -9  161.38   17.60
  -3  -1  -9  511.05   24.40
   3  -1   9  487.75   18.10
  -3  -1  -9  476.05   18.10
   3  -1   9  494.85   15.20
   3  -1   9  489.45   28.60
  -3  -1  -9  467.15   16.60
   3  -1   9  488.95   22.70
  -3  -1  -9  494.65   26.90
   3  -1   9  502.95   16.60
  -3  -1  -9  486.55   25.50
   3   1   9  487.55   27.50
  -3   1  -9  518.05   23.70
  -3   1  -9  491.15   24.10
  -3   1  -9  478.95   27.40
   3   1   9  468.45   17.30
  -3   1  -9  450.65   16.80
   3   1   9  506.05   16.20
   3   1   9  495.15   22.50
  -3   1  -9  503.35   18.40
   3   1   9  478.55   15.00
   4  -1   9   -2.10    1.70
   4  -1   9   -2.80   14.90
  -4  -1  -9   -1.00    3.20
   4  -1   9   -5.30   19.70
  -4  -1  -9   -0.80   20.90
  -4  -1  -9   -1.70   13.90
  -4  -1  -9   -2.20   12.20
  -4   1  -9   -6.50   14.90
  -4   1  -9   -4.90   11.90
  -4   1  -9   -3.10   12.10
   4   1   9    7.20    3.00
   4   1   9   -2.80   10.60
   4   1   9   -1.10   14.70
   4   1   9    1.50    6.10
   5  -1   9  177.48    6.90
   5  -1   9  194.38   23.40
  -5  -1  -9  145.69   16.90
  -5  -1  -9  179.18   24.00
  -5  -1  -9  183.48    9.90
  -5  -1  -9  184.38   29.20
   5  -1   9  199.28   31.20
  -5   1  -9  176.78   10.20
  -5   1  -9  172.88   17.20
   5   1   9  172.38   21.00
  -5   1  -9  166.78   24.70
   5   1   9  181.98   22.60
  -5   1  -9  191.38   30.10
   5   1   9  175.28    7.70
   6  -1   9   33.10   16.10
   6  -1   9   47.40   24.70
  -6  -1  -9   30.40   17.90
  -6  -1  -9   37.60   18.20
  -6  -1  -9   55.39    8.50
  -6  -1  -9   42.10   21.70
  -6   1  -9   42.60   18.90
   6   1   9   36.80   21.10
  -6   1  -9   41.70   18.60
  -6   1  -9   35.10   22.70
  -6  -2   9  331.07   29.30
   6  -2  -9  311.17   26.80
  -6  -2   9  313.07   29.90
   6  -2  -9  319.17   32.00
  -6  -2   9  305.27   14.40
  -6  -2   9  336.77   26.70
   6  -2  -9  300.17   22.00
  -6   2   9  328.97   28.70
   6   2  -9  317.97   23.20
  -6   2   9  312.57   31.30
   6   2  -9  322.17   31.40
  -6   2   9  321.87   27.00
   5  -2  -9   51.49    6.00
   5  -2  -9   49.20   10.50
  -5  -2   9   40.10   12.20
  -5  -2   9   47.30   14.60
   5  -2  -9   49.90   12.60
  -5  -2   9   44.50   13.90
  -5  -2   9   48.40    6.40
   5   2  -9   56.19   16.20
  -5   2   9   48.50   19.20
   5   2  -9   50.99   11.20
   5   2  -9   54.89    4.20
  -5   2   9   49.10   12.40
   5   2  -9   47.60    5.90
   4  -2  -9  431.26   30.60
  -4  -2   9  465.35   17.40
   4  -2  -9  455.25   26.80
   4  -2  -9  488.45   17.80
   4  -2  -9  459.15   27.20
  -4  -2   9  466.35   16.00
  -4  -2   9  440.86   31.30
  -4  -2   9  478.55   16.40
  -4  -2   9  453.35   23.30
   4  -2  -9  468.45   16.10
   4  -2  -9  464.85   21.20
  -4  -2   9  447.36   24.80
  -4   2   9  484.85   26.80
   4   2  -9  496.55   16.00
   4   2  -9  465.35   21.90
  -4   2   9  467.25   17.60
   4   2  -9  448.26   16.30
   4   2  -9  480.25   27.30
   4   2  -9  466.55   16.60
  -4   2   9  477.85   24.40
  -4   2   9  485.25   23.00
   3  -2  -9  299.57   12.20
   3  -2  -9  288.27   20.40
  -3  -2   9  297.17   21.70
   3  -2  -9  298.47   17.20
  -3  -2   9  275.87   18.30
  -3  -2   9  284.17   10.70
  -3  -2   9  305.37   14.30
  -3  -2   9  264.07   19.50
  -3  -2   9  298.67   11.00
   3  -2  -9  289.07   10.60
   3  -2  -9  291.47   18.30
   3  -2  -9  305.17   22.60
   3   2  -9  295.17   17.00
   3   2  -9  294.37   18.40
   3   2  -9  294.47   22.60
  -3   2   9  296.57   18.10
  -3   2   9  277.07   12.10
  -3   2   9  287.57   18.10
   3   2  -9  294.57   11.10
   3   2  -9  285.37   13.00
  -3   2   9  305.27   10.70
   3   2  -9  285.57   10.90
  -3   2   9  285.27   22.20
   2  -2  -9   83.59   10.30
  -2  -2   9   76.69    4.70
  -2  -2   9   87.19   10.30
   2  -2  -9   76.29    5.80
  -2  -2   9   77.69   12.40
  -2  -2   9   77.29    9.60
  -2  -2   9   85.19    4.60
   2  -2  -9   87.99    9.20
  -2  -2   9   76.79    5.70
   2  -2  -9   64.89   11.90
   2  -2  -9   83.59    4.30
   2  -2  -9   77.29   10.40
  -2   2   9   92.69    5.80
  -2   2   9   81.29    4.90
  -2   2   9   91.39    9.30
  -2   2   9   80.69    5.40
   2   2  -9   88.39   13.10
   2   2  -9   75.39    9.40
   2   2  -9   93.89   10.00
   2   2  -9   79.79    6.00
   2   2  -9   80.49    4.60
  -2   2   9   78.59    9.60
  -2   2   9   73.49   12.50
   1  -2  -9 1079.59   39.70
   1  -2  -9 1083.09   37.20
  -1  -2   9 1141.09   34.60
   1  -2  -9 1086.49   38.10
  -1  -2   9 1083.29   37.40
   1  -2  -9 1114.49   33.90
  -1  -2   9 1074.59   39.70
  -1  -2   9 1102.59   34.50
   1  -2  -9 1125.99   35.90
  -1  -2   9 1120.69   37.00
   1  -2  -9 1119.59   34.60
  -1  -2   9 1138.69   36.10
  -1   2   9 1164.08   34.90
  -1   2   9 1091.19   37.00
  -1   2   9 1114.29   35.90
   1   2  -9 1132.29   36.20
  -1   2   9 1086.59   35.50
   1   2  -9 1106.69   36.90
  -1   2   9 1154.98   35.20
  -1   2   9 1102.29   39.50
   1   2  -9 1125.59   37.40
   1   2  -9 1087.19   40.10
   1   2  -9 1178.58   34.60
   0  -2   9  109.59   15.50
   0  -2  -9  128.19   18.70
   0  -2   9  111.99   18.20
   0  -2  -9  104.79   15.60
   0  -2   9  112.19    6.70
   0  -2   9  125.39    5.70
   0  -2  -9  125.89   15.70
   0  -2  -9  122.49    6.20
   0  -2   9  122.09   13.60
   0  -2  -9  111.29    7.30
   0  -2   9  103.39    6.20
   0  -2   9  117.89    5.20
   0   2  -9  105.89   13.70
   0   2  -9  124.09   14.50
   0   2   9  127.59   18.80
   0   2   9  114.49   14.30
   0   2  -9  124.59   19.00
   0   2   9  119.09    6.20
   0   2   9  129.79    5.50
   0   2  -9  107.09    6.80
   0   2  -9  119.39    5.60
   0   2   9  114.79    6.60
   0   2   9  114.29   10.10
   1  -2   9  476.35   16.20
   1  -2   9  464.05   16.00
  -1  -2  -9  450.15   22.90
  -1  -2  -9  475.35   24.80
  -1  -2  -9  476.65   16.10
   1  -2   9  451.35   20.80
   1  -2   9  484.45   25.80
  -1  -2  -9  501.85   17.60
   1  -2   9  479.75   15.40
   1  -2   9  459.25   20.10
   1  -2   9  476.35   17.50
  -1   2  -9  493.45   16.60
  -1   2  -9  469.85   25.60
  -1   2  -9  484.25   16.00
  -1   2  -9  474.65   17.80
   1   2   9  448.16   24.80
   1   2   9  461.65   16.50
  -1   2  -9  465.95   20.90
   1   2   9  471.35   21.20
   1   2   9  481.45   15.70
   1   2   9  480.75   17.20
   2  -2   9  541.45   18.40
   2  -2   9  521.75   23.40
  -2  -2  -9  550.34   27.20
   2  -2   9  538.45   27.90
  -2  -2  -9  560.34   24.20
  -2  -2  -9  569.94   20.00
   2  -2   9  555.34   20.00
  -2  -2  -9  553.14   25.30
  -2  -2  -9  555.04   18.40
   2  -2   9  535.45   22.00
   2   2   9  565.84   19.20
  -2   2  -9  557.44   18.90
   2   2   9  532.35   16.40
  -2   2  -9  544.55   24.00
  -2   2  -9  586.64   19.20
   2   2   9  576.24   23.20
  -2   2  -9  531.85   27.70
  -2   2  -9  551.54   20.10
   2   2   9  544.05   17.90
  -2   2  -9  551.34   23.50
   2   2   9  556.64   27.60
   3  -2   9   31.40   15.20
  -3  -2  -9   26.10   11.00
   3  -2   9   20.50    2.30
   3  -2   9   13.60    3.30
  -3  -2  -9   21.00    3.50
  -3  -2  -9   25.00   15.90
   3  -2   9   20.40   10.50
  -3  -2  -9   22.10    2.90
  -3  -2  -9   19.80   11.90
   3   2   9   24.40    3.00
   3   2   9   29.40   14.20
   3   2   9   27.20    9.60
  -3   2  -9   26.60   14.20
  -3   2  -9   29.40   17.00
  -3   2  -9   21.50    3.20
  -3   2  -9   26.90   10.70
  -3   2  -9   29.70    5.20
  -4  -2  -9   71.49   14.40
   4  -2   9   76.89   17.70
   4  -2   9   68.79   12.70
  -4  -2  -9   60.99    6.30
  -4  -2  -9   72.59   15.60
   4  -2   9   63.39    3.40
  -4   2  -9   62.99   16.60
   4   2   9   84.59   17.20
  -4   2  -9   75.69    7.00
  -4   2  -9   84.79   14.00
   4   2   9   85.79   11.60
  -4   2  -9   89.59   13.30
  -5  -2  -9    5.60   17.10
  -5  -2  -9    3.90   16.10
   5  -2   9    8.50   19.30
   5  -2   9   12.30   14.50
  -5  -2  -9    0.20    5.40
   5  -2   9    6.10    2.30
  -5  -2  -9    5.50   14.70
   5   2   9    6.40   17.30
   5   2   9   13.50   12.40
   5   2   9   -0.90    2.40
  -5   2  -9    9.00   15.70
  -5   2  -9   12.90   18.40
   6  -3  -9    6.40   19.80
  -6  -3   9    5.20   14.60
   6  -3  -9    1.00   15.40
  -6  -3   9   -6.70   16.30
   6  -3  -9   -3.10   12.80
  -6  -3   9   12.30   17.60
   6   3  -9   -5.50   11.80
  -6   3   9    6.60   15.30
   6   3  -9   -1.80   18.00
  -6   3   9   -5.30   19.10
  -6   3   9    8.30   16.80
   6   3  -9    7.60    2.70
  -5  -3   9  412.16   27.80
  -5  -3   9  407.36   15.80
  -5  -3   9  389.66   27.50
   5  -3  -9  409.06   23.00
   5  -3  -9  387.36   29.90
  -5  -3   9  412.56   25.00
   5  -3  -9  405.36   27.90
   5  -3  -9  408.36   25.20
  -5   3   9  347.97   36.10
  -5   3   9  394.26   24.40
   5   3  -9  428.96   13.90
   5   3  -9  391.36   29.10
  -5   3   9  322.27   41.90
   5   3  -9  400.26   21.10
   4  -3  -9  125.39    7.70
   4  -3  -9  138.89   17.30
  -4  -3   9  121.79   18.00
  -4  -3   9  133.19   21.60
   4  -3  -9  146.69   22.30
   4  -3  -9  136.69   23.00
   4  -3  -9  147.59    6.60
  -4  -3   9  152.18    8.10
  -4  -3   9  149.69    6.90
   4  -3  -9  136.19   19.90
   4   3  -9  172.68    9.50
  -4   3   9  141.49   22.60
  -4   3   9  132.59   19.70
   4   3  -9  140.99   16.20
   4   3  -9  146.09   16.60
   4   3  -9  136.49    6.30
  -4   3   9  119.19   14.60
  -4   3   9  134.89    8.80
   3  -3  -9  604.84   27.40
   3  -3  -9  626.64   21.50
   3  -3  -9  615.54   25.10
  -3  -3   9  604.44   26.80
  -3  -3   9  603.04   26.00
   3  -3  -9  585.14   21.40
  -3  -3   9  613.84   20.10
   3  -3  -9  605.94   25.60
  -3  -3   9  608.44   28.40
   3  -3  -9  635.14   29.40
  -3  -3   9  638.54   21.70
  -3  -3   9  590.04   19.90
  -3   3   9  615.94   25.40
   3   3  -9  591.14   19.70
   3   3  -9  593.04   29.00
   3   3  -9  622.44   19.90
  -3   3   9  605.64   29.10
  -3   3   9  648.04   20.30
  -3   3   9  589.74   25.40
   3   3  -9  626.44   24.60
  -3   3   9  617.94   21.70
   3   3  -9  585.84   18.40
   2  -3  -9 1135.29   35.10
  -2  -3   9 1073.69   33.40
  -2  -3   9 1063.19   37.00
   2  -3  -9 1058.49   36.50
   2  -3  -9 1085.39   33.50
  -2  -3   9 1073.39   39.50
  -2  -3   9 1052.09   37.10
   2  -3  -9 1061.89   37.90
   2  -3  -9 1073.19   36.90
   2  -3  -9  981.40   38.50
  -2  -3   9 1108.89   35.10
  -2  -3   9 1101.99   33.50
   2  -3  -9 1083.29   32.90
  -2   3   9 1037.00   39.10
   2   3  -9 1022.40   32.20
  -2   3   9 1081.79   36.30
   2   3  -9 1071.69   36.00
   2   3  -9 1105.39   40.10
   2   3  -9 1074.09   36.20
  -2   3   9 1029.40   35.60
  -2   3   9 1106.29   33.60
   2   3  -9 1152.88   34.10
  -2   3   9 1074.99   34.80
  -1  -3   9   13.40    2.10
  -1  -3   9   13.90    3.10
  -1  -3   9   22.20    9.40
   1  -3  -9   14.20    2.00
  -1  -3   9   12.70    2.40
   1  -3  -9   20.60    9.50
  -1  -3   9   15.60   11.30
   1  -3  -9   20.00    9.50
  -1  -3   9   14.40    2.30
  -1  -3   9   18.70    9.40
   1  -3  -9   22.80   11.10
   1  -3  -9   18.60   10.70
   1  -3  -9   21.60    3.10
   1   3  -9   14.80   12.10
   1   3  -9   18.60    8.90
  -1   3   9   28.90    8.60
   1   3  -9   13.50    3.00
   1   3  -9   16.90    1.80
   1   3  -9   23.70    8.10
  -1   3   9   21.50   11.40
   1   3  -9   11.30    2.40
  -1   3   9   23.00    2.70
  -1   3   9   16.80    7.00
   0  -3   9 1319.87   43.60
   0  -3   9 1384.96   43.00
   0  -3  -9 1356.76   41.20
   0  -3  -9 1333.37   46.00
   0  -3   9 1378.76   41.00
   0  -3   9 1318.47   42.40
   0  -3   9 1303.37   43.50
   0  -3  -9 1375.46   42.60
   0  -3   9 1344.97   46.70
   0  -3  -9 1321.07   44.80
   0  -3  -9 1326.87   43.50
   0  -3   9 1376.86   41.00
   0   3   9 1299.27   43.00
   0   3   9 1243.78   40.80
   0   3   9 1328.27   46.20
   0   3  -9 1338.87   43.40
   0   3  -9 1399.16   43.70
   0   3   9 1383.46   40.80
   0   3  -9 1321.77   42.80
   0   3  -9 1375.36   41.30
   0   3  -9 1372.86   47.00
   0   3  -9 1344.87   40.70
   1  -3   9  170.48    7.10
  -1  -3  -9  178.78    8.70
   1  -3   9  194.18    9.90
   1  -3   9  184.68    7.00
  -1  -3  -9  172.98   20.00
   1  -3   9  165.08   16.70
   1  -3   9  166.38   21.00
   1  -3   9  166.48   15.90
  -1  -3  -9  163.98   18.00
  -1  -3  -9  167.48    7.40
  -1   3  -9  176.98    7.20
   1   3   9  170.98   14.90
  -1   3  -9  171.68    7.40
  -1   3  -9  162.08   14.50
   1   3   9  168.28    9.40
   1   3   9  168.28   20.10
  -1   3  -9  154.68   20.10
  -1   3  -9  154.78    8.60
   1   3   9  170.58    6.90
  -2  -3  -9  249.08    9.30
  -2  -3  -9  241.78   21.60
  -2  -3  -9  235.28   20.40
   2  -3   9  239.18    8.60
  -2  -3  -9  230.78   10.50
   2  -3   9  237.28   10.90
   2  -3   9  222.18   23.50
   2  -3   9  219.98   17.90
  -2  -3  -9  248.38   18.80
  -2   3  -9  250.07   19.80
  -2   3  -9  236.58   23.30
   2   3   9  241.08    8.60
  -2   3  -9  228.78   17.00
   2   3   9  247.98   22.10
  -2   3  -9  246.98    9.40
   2   3   9  235.98   16.40
  -2   3  -9  222.68    9.20
   2   3   9  193.98    9.40
  -2   3  -9  230.08   10.80
  -3  -3  -9  294.27   14.70
  -3  -3  -9  305.27   11.90
  -3  -3  -9  249.68   32.60
  -3  -3  -9  315.27   21.10
  -3  -3  -9  257.07   27.90
   3  -3   9  301.47   10.50
   3  -3   9  311.07   13.40
   3  -3   9  280.27   24.80
   3  -3   9  291.47   25.80
   3   3   9  328.87   19.00
   3   3   9  315.07   25.70
  -3   3  -9  316.67   13.30
  -3   3  -9  279.87   36.40
   3   3   9  313.97   10.60
  -3   3  -9  305.67   25.40
  -3   3  -9  309.27   20.30
   4  -3   9   -0.50   12.60
   4  -3   9   -1.10   16.90
  -4  -3  -9   -2.70    3.00
  -4  -3  -9    0.50   15.20
   4  -3   9   -2.50    1.70
  -4  -3  -9    5.00   15.30
   4   3   9    8.00   15.10
  -4   3  -9   -4.80   12.30
   4   3   9    1.30   10.20
  -4   3  -9    6.50   13.70
  -4   3  -9   -5.40   16.40
   4   3   9   -5.20    2.20
  -5  -3  -9   72.09   15.90
   5  -3   9   48.30    5.00
  -5  -3  -9   58.29   16.80
   5  -3   9   73.89   15.60
  -5  -3  -9   73.89    7.20
   5  -3   9   60.29   20.50
  -5  -3  -9   72.19   18.40
   5   3   9   70.99   12.20
   5   3   9   65.69    4.70
  -5   3  -9   81.39   15.50
   5   3   9   65.09   19.10
  -5   3  -9   85.79   16.70
  -5   3  -9   70.79   20.40
   6  -4  -9  303.97   36.60
  -6  -4   9  303.37   32.20
  -6  -4   9  318.97   30.50
  -6  -4   9  295.27   13.20
  -6  -4   9  291.27   28.70
   6  -4  -9  283.47   27.00
   6  -4  -9  297.67   30.20
   6   4  -9  293.17   33.30
  -6   4   9  284.07   33.10
  -6   4   9  279.67   35.10
  -6   4   9  319.07   30.20
   6   4  -9  293.87   22.00
  -5  -4   9   55.59    6.00
  -5  -4   9   69.49   16.20
   5  -4  -9   44.10   14.30
   5  -4  -9   61.69   15.60
  -5  -4   9   57.79   16.60
  -5  -4   9   62.19   14.10
   5  -4  -9   56.09   18.80
   5  -4  -9   50.89   14.80
   5   4  -9   51.09   16.70
  -5   4   9   51.99   16.30
   5   4  -9   66.89    4.70
  -5   4   9   56.69   14.20
   5   4  -9   51.59   10.50
   4  -4  -9  593.84   19.80
   4  -4  -9  615.94   30.40
   4  -4  -9  613.04   28.50
   4  -4  -9  599.64   21.50
  -4  -4   9  548.85   31.30
   4  -4  -9  609.84   27.00
  -4  -4   9  616.24   20.00
   4  -4  -9  569.94   31.60
  -4  -4   9  619.44   21.40
  -4  -4   9  589.44   29.30
  -4  -4   9  593.74   29.90
   4   4  -9  601.74   24.50
  -4   4   9  594.24   29.00
   4   4  -9  568.14   30.70
   4   4  -9  576.54   20.30
  -4   4   9  611.24   32.30
   3  -4  -9  224.38   10.60
  -3  -4   9  228.68   20.80
  -3  -4   9  230.38   18.80
   3  -4  -9  223.48   28.10
  -3  -4   9  222.68    9.20
   3  -4  -9  238.18   23.30
   3  -4  -9  226.68   19.60
   3  -4  -9  239.18   37.40
   3  -4  -9  258.37   10.40
  -3  -4   9  240.28    9.20
  -3  -4   9  216.08   31.20
   3  -4  -9  231.78    8.90
  -3  -4   9  248.18   10.60
   3   4  -9  253.07   17.10
  -3   4   9  241.78   23.80
  -3   4   9  240.48   19.40
  -3   4   9  244.08   17.80
  -3   4   9  245.88    9.50
   3   4  -9  248.48   23.70
   3   4  -9  234.58    9.20
  -2  -4   9  146.39    6.60
  -2  -4   9  139.39    7.80
   2  -4  -9  144.49    6.00
   2  -4  -9  143.89   16.90
   2  -4  -9  150.18    6.80
  -2  -4   9  134.59   20.40
   2  -4  -9  144.29    7.90
   2  -4  -9  146.49   20.00
  -2  -4   9  132.89    6.70
   2  -4  -9  128.99   19.40
  -2  -4   9  140.99    6.30
  -2  -4   9  128.69   17.50
   2  -4  -9  140.79   17.30
  -2  -4   9  141.89   18.10
  -2   4   9  142.19   15.70
   2   4  -9  130.89    6.70
  -2   4   9  127.69   15.40
   2   4  -9  137.49   15.00
  -2   4   9  130.09   20.50
   2   4  -9  140.49   15.60
  -2   4   9  143.99    6.00
   2   4  -9  139.39    5.10
   2   4  -9  149.99   21.80
   1  -4  -9  819.52   31.70
  -1  -4   9  863.11   26.70
  -1  -4   9  859.71   27.10
  -1  -4   9  868.31   28.70
   1  -4  -9  870.31   28.50
  -1  -4   9  848.52   31.20
  -1  -4   9  842.72   32.20
   1  -4  -9  787.12   32.90
   1  -4  -9  854.71   33.10
  -1  -4   9  850.11   34.30
   1  -4  -9  850.71   31.10
   1  -4  -9  873.71   27.10
   1  -4  -9  886.91   26.70
  -1  -4   9  885.51   27.30
   1   4  -9  881.61   27.00
  -1   4   9  876.21   26.90
  -1   4   9  808.22   33.60
   1   4  -9  836.22   34.80
   1   4  -9  827.62   29.60
   1   4  -9  882.41   26.10
  -1   4   9  813.52   28.40
  -1   4   9  849.12   30.00
   1   4  -9  867.31   30.30
   0  -4   9   80.39    5.10
   0  -4   9   67.19    4.90
   0  -4   9   96.09   11.70
   0  -4  -9   90.79   10.70
   0  -4  -9   91.69    5.00
   0  -4  -9   85.09   12.10
   0  -4  -9   80.49   12.60
   0  -4   9   75.39   13.20
   0  -4   9   83.29    4.90
   0  -4   9   74.99   10.50
   0  -4   9   81.49    6.40
   0  -4  -9   93.39    6.00
   0   4   9   81.89   10.50
   0   4   9   82.79    4.30
   0   4   9   83.79    9.00
   0   4   9   85.89   13.40
   0   4  -9   76.59    8.80
   0   4  -9   85.89    4.20
   0   4  -9   82.29   10.30
   0   4  -9   86.69   14.20
   0   4   9   89.89    9.40
   0   4  -9   79.19    4.70
   1  -4   9  439.16   14.50
   1  -4   9  438.76   22.00
  -1  -4  -9  417.46   17.60
   1  -4   9  432.06   15.00
   1  -4   9  417.46   21.40
   1  -4   9  445.76   16.40
  -1  -4  -9  412.36   24.00
  -1  -4  -9  432.76   24.40
  -1  -4  -9  437.06   14.90
   1  -4   9  427.06   26.30
  -1   4  -9  434.66   14.50
  -1   4  -9  418.46   16.40
   1   4   9  418.16   19.30
  -1   4  -9  411.46   19.00
  -1   4  -9  426.36   25.90
  -1   4  -9  431.46   16.40
   1   4   9  426.06   13.90
   1   4   9  389.06   15.00
   1   4   9  430.46   25.30
  -2  -4  -9  331.77   17.60
  -2  -4  -9  387.66   24.60
   2  -4   9  378.16   15.10
  -2  -4  -9  394.06   13.40
   2  -4   9  373.26   26.50
   2  -4   9  391.66   13.00
  -2  -4  -9  400.46   21.70
   2   4   9  382.36   25.00
  -2   4  -9  388.26   27.30
  -2   4  -9  378.16   19.00
   2   4   9  386.46   12.40
   2   4   9  369.86   18.40
  -2   4  -9  360.36   15.00
  -2   4  -9  405.56   22.80
  -2   4  -9  379.46   13.50
  -3  -4  -9   39.10   14.20
   3  -4   9   33.70    5.60
  -3  -4  -9   28.10    3.00
  -3  -4  -9   41.00   14.00
  -3  -4  -9   35.90   11.80
   3  -4   9   29.60    3.40
   3  -4   9   40.30   12.20
   3  -4   9   36.90   16.20
  -3   4  -9   38.00   13.20
   3   4   9   40.90    8.90
  -3   4  -9   34.30   10.40
   3   4   9   45.50   14.60
  -3   4  -9   26.40   15.90
   4  -4   9  211.78    8.30
   4  -4   9  235.48   23.80
  -4  -4  -9  199.48   26.40
  -4  -4  -9  220.88   12.70
   4  -4   9  224.48   31.40
  -4  -4  -9  206.18   27.60
   4   4   9  210.98   16.90
  -4   4  -9  204.78   30.70
  -4   4  -9  210.88   21.50
  -4   4  -9  222.28   24.80
   4   4   9  206.88   28.50
   5  -4   9   -6.00   23.20
   5  -4   9   -1.70   16.30
  -5  -4  -9  -12.40   17.50
  -5  -4  -9    2.20   15.20
  -5  -4  -9    8.30   17.70
  -5  -4  -9   -2.90    4.80
   5   4   9    1.80   19.60
   5   4   9    3.30    9.70
  -5   4  -9   -6.10   16.60
  -5   4  -9    5.60   14.60
  -5   4  -9    2.90   22.10
  -6  -5   9    3.60   18.00
  -6   5   9   16.50   21.30
  -5  -5   9  193.48   19.30
   5  -5  -9  212.88   31.60
   5  -5  -9  212.98   29.10
   5  -5  -9  216.38   25.50
  -5  -5   9  220.28   27.90
  -5  -5   9  228.88   25.60
  -5  -5   9  217.38   10.20
   5  -5  -9  228.38   27.00
  -5   5   9  155.68   26.10
  -5   5   9  190.08   27.40
  -5   5   9  193.08   28.50
   5   5  -9  202.18   28.20
   5   5  -9  184.58   17.20
  -5   5   9  206.58   25.30
   4  -5  -9  156.18   26.70
   4  -5  -9  169.58   23.10
   4  -5  -9  152.38    8.80
   4  -5  -9  162.78    7.20
   4  -5  -9  158.08   22.70
   4  -5  -9  169.18   24.50
  -4  -5   9  164.58   23.80
  -4  -5   9  166.38   24.20
  -4  -5   9  184.08    8.70
  -4  -5   9  149.99    7.30
  -4   5   9  152.98   22.50
  -4   5   9  114.49   25.40
  -4   5   9  155.18   26.10
   4   5  -9  158.08    7.10
   4   5  -9  146.29   17.40
   4   5  -9  155.28   15.60
  -4   5   9  166.38   23.10
   3  -5  -9  163.58   22.70
   3  -5  -9  175.28   23.70
   3  -5  -9  160.48    6.80
   3  -5  -9  181.48   21.30
  -3  -5   9  157.18   21.80
  -3  -5   9  166.68    7.20
  -3  -5   9  180.68    7.20
  -3  -5   9  147.69   19.80
   3  -5  -9  177.38    8.60
  -3  -5   9  151.88   22.10
  -3  -5   9  169.88    9.80
   3  -5  -9  163.88   19.80
  -3   5   9  167.48   24.40
  -3   5   9  166.78   18.00
  -3   5   9  152.28   19.20
  -3   5   9  159.78    6.90
   3   5  -9  157.68    6.60
   3   5  -9  154.18   15.90
   3   5  -9  174.08   24.20
  -3   5   9  154.88   19.40
  -2  -5   9  586.44   26.50
  -2  -5   9  591.54   28.50
  -2  -5   9  568.04   19.40
  -2  -5   9  606.34   21.00
   2  -5  -9  601.84   20.90
   2  -5  -9  592.14   25.80
   2  -5  -9  599.34   27.10
  -2  -5   9  598.34   19.10
   2  -5  -9  597.24   19.40
   2  -5  -9  590.04   18.70
   2  -5  -9  597.64   34.20
  -2   5   9  582.74   18.90
   2   5  -9  598.64   19.40
   2   5  -9  597.54   30.30
  -2   5   9  551.64   24.40
  -2   5   9  594.24   24.40
   2   5  -9  587.34   17.60
  -2   5   9  591.74   24.10
   2   5  -9  573.64   23.80
  -2   5   9  558.04   29.50
   1  -5  -9   27.50    3.70
   1  -5  -9   15.00   12.40
  -1  -5   9   22.80   10.40
  -1  -5   9   28.40    2.90
   1  -5  -9   26.60    2.30
   1  -5  -9   27.60    3.70
  -1  -5   9   26.40   12.50
  -1  -5   9   18.80    2.50
   1  -5  -9   22.60   11.60
   1  -5  -9   23.80   10.50
  -1  -5   9   19.60   13.00
  -1  -5   9   31.10    3.90
   1  -5  -9   29.50   11.60
  -1  -5   9   23.50    2.70
   1   5  -9   21.80    3.00
  -1   5   9   29.70    2.70
  -1   5   9   25.30    8.90
   1   5  -9   29.60    2.20
   1   5  -9   29.30    8.20
   1   5  -9   35.10    9.30
   1   5  -9   37.20   14.40
  -1   5   9   18.60   11.90
  -1   5   9   28.50    8.60
   0  -5  -9  528.45   24.30
   0  -5  -9  515.15   26.30
   0  -5   9  536.95   19.20
   0  -5   9  537.05   25.60
   0  -5   9  534.25   19.90
   0  -5   9  530.15   17.80
   0  -5  -9  533.65   17.70
   0  -5   9  519.35   23.90
   0  -5   9  516.25   29.20
   0  -5  -9  497.05   20.10
   0  -5   9  515.75   17.50
   0  -5  -9  525.05   26.60
   0  -5  -9  526.65   26.20
   0   5  -9  517.35   23.40
   0   5   9  497.65   19.70
   0   5   9  582.94   18.00
   0   5   9  525.65   26.80
   0   5  -9  531.05   17.40
   0   5  -9  520.55   28.90
   0   5  -9  544.55   17.00
   0   5   9  534.85   21.30
   0   5  -9  511.45   20.90
  -1  -5  -9   62.79   11.10
  -1  -5  -9   44.60    5.20
   1  -5   9   58.89    4.00
  -1  -5  -9   71.09    4.40
   1  -5   9   48.00    5.50
   1  -5   9   66.79   12.40
   1  -5   9   52.99    5.70
  -1  -5  -9   54.69   12.90
   1  -5   9   48.60   13.80
  -1   5  -9   50.19   11.00
   1   5   9   61.09    8.30
   1   5   9   56.99    6.10
  -1   5  -9   57.89    4.10
   1   5   9   52.19   13.70
  -1   5  -9   59.19    4.20
  -1   5  -9   60.89    8.60
  -1   5  -9   49.50   13.90
   2  -5   9  122.59    7.60
   2  -5   9  101.59   12.60
   2  -5   9  121.99   17.60
  -2  -5  -9  108.09    6.00
  -2  -5  -9   77.69   13.00
  -2  -5  -9   95.19    6.70
  -2  -5  -9  122.59   12.40
  -2  -5  -9  110.89   25.00
   2  -5   9  116.99    5.60
   2   5   9  128.99   22.70
   2   5   9  114.09   12.50
  -2   5  -9  109.19   14.40
  -2   5  -9  116.09    7.50
  -2   5  -9  104.59   16.40
  -2   5  -9  105.59   13.30
   2   5   9  114.89    4.40
  -3  -5  -9  232.48   24.70
  -3  -5  -9  226.08   25.80
   3  -5   9  224.08   29.00
   3  -5   9  206.08    8.40
  -3  -5  -9  222.18   21.90
  -3  -5  -9  208.28    8.80
  -3  -5  -9  213.58    9.80
   3  -5   9  223.28   10.70
   3  -5   9  218.18   23.50
  -3   5  -9  207.68   17.60
  -3   5  -9  226.98   24.20
   3   5   9  211.08   13.00
   3   5   9  223.58   25.60
  -3   5  -9  216.58   28.90
   4  -5   9   14.60   19.70
   4  -5   9    0.20    2.60
   4  -5   9   -2.30   14.80
  -4  -5  -9    8.20   15.40
  -4  -5  -9    2.20   16.70
   4   5   9   -3.70   16.50
  -4   5  -9   -1.30   15.10
  -4   5  -9    9.40   12.10
  -4   5  -9    3.70   19.10
  -5  -5  -9   85.09   22.40
  -5   5  -9   69.29   15.90
   5  -6  -9   33.80   17.00
   5  -6  -9   47.10   16.10
   5  -6  -9   32.00   20.60
  -5  -6   9   37.90   19.30
   5  -6  -9   27.70   17.20
  -5  -6   9   49.70   15.90
  -5  -6   9   51.79   17.80
   5   6  -9   41.20    8.20
   5   6  -9   34.90   17.90
  -5   6   9   22.40   24.70
  -5   6   9   43.90   19.20
  -5   6   9   40.60   17.00
  -5   6   9   41.30   15.50
   4  -6  -9  194.88   27.60
   4  -6  -9  209.68   29.50
   4  -6  -9  210.58   25.80
  -4  -6   9  208.58   28.00
  -4  -6   9  201.38   24.10
  -4  -6   9  196.28   24.90
   4  -6  -9  182.18   10.00
  -4  -6   9  195.98   10.00
   4  -6  -9  191.18    8.00
   4  -6  -9  185.48   26.00
  -4  -6   9  204.18    9.60
  -4   6   9  183.78   25.00
   4   6  -9  192.88   14.80
   4   6  -9  144.09   17.80
  -4   6   9  186.08   29.60
   3  -6  -9  134.09   15.90
  -3  -6   9  145.39    6.20
  -3  -6   9  134.29   23.90
   3  -6  -9  140.59   17.50
  -3  -6   9  139.79   16.90
   3  -6  -9  131.49    6.20
   3  -6  -9  130.69   15.20
  -3  -6   9  120.89   15.50
   3  -6  -9  150.58   15.30
  -3  -6   9  142.29    7.90
   3  -6  -9  148.49    8.10
  -3   6   9  119.09   17.00
   3   6  -9  135.89   15.00
  -3   6   9  147.49    6.00
  -3   6   9  122.39   14.10
   3   6  -9  159.18   25.90
   3   6  -9  129.79    5.80
  -3   6   9  130.39   13.10
  -2  -6   9   16.80    2.70
  -2  -6   9   24.50    3.30
   2  -6  -9   21.50   14.50
   2  -6  -9   15.10    3.60
  -2  -6   9   18.80   14.90
   2  -6  -9   16.90   12.50
   2  -6  -9   18.00    2.00
  -2  -6   9   19.10   14.00
   2  -6  -9   17.30   12.90
  -2  -6   9   20.10   12.10
   2   6  -9   12.50    1.80
   2   6  -9   10.10    8.80
  -2   6   9   10.90    2.10
  -2   6   9   16.80   10.00
   2   6  -9   17.60   14.60
  -2   6   9   14.80   14.00
  -2   6   9   17.00   10.60
   1  -6  -9  354.96   12.40
  -1  -6   9  335.57   22.00
   1  -6  -9  350.76   25.10
   1  -6  -9  358.66   14.30
   1  -6  -9  342.27   22.50
  -1  -6   9  364.16   24.90
   1  -6  -9  352.46   25.00
   1  -6  -9  341.27   24.70
  -1  -6   9  345.77   14.10
   1  -6  -9  349.07   11.30
  -1  -6   9  331.57   12.80
  -1  -6   9  349.37   25.90
   1   6  -9  349.17   11.90
  -1   6   9  334.57   25.50
   1   6  -9  340.27   11.10
  -1   6   9  334.87   18.40
  -1   6   9  351.26   11.60
   1   6  -9  337.67   19.50
  -1   6   9  347.17   18.70
   1   6  -9  374.76   27.90
   0  -6  -9   19.20   12.10
   0  -6   9   22.30   14.10
   0  -6   9   23.30    2.60
   0  -6  -9   27.10   12.70
   0  -6   9   15.70   13.60
   0  -6  -9   28.00    3.70
   0  -6  -9   32.50   11.30
   0  -6   9   25.30   20.60
   0  -6  -9   32.30    4.50
   0  -6  -9   19.00   15.10
   0  -6   9   23.50    4.30
   0   6  -9   22.50    2.60
   0   6  -9   24.10   15.70
   0   6   9   19.10   12.30
   0   6   9   22.50    3.10
   0   6  -9   36.60   10.40
   0   6  -9   27.50    7.80
   0   6   9   23.50    8.10
   0   6   9   29.50    8.40
   1  -6   9  160.98   21.60
  -1  -6  -9  178.08   22.50
  -1  -6  -9  174.38    8.60
   1  -6   9  171.78   10.60
  -1  -6  -9  177.78   24.90
  -1  -6  -9  168.28   23.30
   1  -6   9  175.68   25.30
  -1  -6  -9  175.88    7.70
   1  -6   9  158.18   20.80
  -1  -6  -9  185.98   20.10
  -1   6  -9  174.28   13.80
   1   6   9  175.38    6.20
   1   6   9  162.38   11.50
   1   6   9  174.88   12.50
  -1   6  -9  174.38   25.40
  -1   6  -9  173.78    7.70
   1   6   9  182.58   22.20
  -1   6  -9  189.78    7.40
  -1   6  -9  192.08   19.70
  -2  -6  -9  102.79   15.50
   2  -6   9  111.99   18.90
  -2  -6  -9   96.09    5.70
   2  -6   9  100.89   13.80
  -2  -6  -9  109.49   15.20
   2  -6   9  111.09    7.50
  -2  -6  -9   87.69    6.50
   2   6   9  108.09   15.80
  -2   6  -9  105.59    6.50
  -2   6  -9  100.69   17.80
  -2   6  -9  102.09   13.60
  -3  -6  -9   35.40   15.10
   3  -6   9   34.10   14.40
  -3  -6  -9   32.50   13.60
  -3  -6  -9   19.60    3.10
  -3  -6  -9   21.90    3.30
   3  -6   9   27.80   19.30
   3  -6   9   25.80    4.60
  -3  -6  -9   30.10   16.40
  -3   6  -9   30.40   14.70
   3   6   9   36.10   15.90
  -3   6  -9   27.40    9.50
  -3   6  -9   20.60   18.70
   4  -6   9   58.89   16.70
   4  -6   9   79.89    7.00
  -4  -6  -9   53.19   28.00
  -4  -6  -9   83.69   21.80
  -4  -6  -9   63.49   17.30
   4  -6   9   81.99   22.30
  -4   6  -9   71.39   18.30
  -4   6  -9   57.19   21.80
  -4   6  -9   70.29   12.50
   4   6   9   65.99   18.80
  -4  -7   9   51.09   16.50
   4  -7  -9   74.79   18.40
  -4  -7   9   70.49    5.10
  -4  -7   9   55.59   17.10
   4  -7  -9   65.49   21.20
   4  -7  -9   45.10    7.70
   4  -7  -9   53.39   16.80
   4  -7  -9   67.69    5.50
  -4  -7   9   72.99   15.60
   4  -7  -9   50.59   16.80
   4   7  -9   40.70   17.40
  -4   7   9   65.29   17.50
  -4   7   9   53.79   19.60
   3  -7  -9  110.99   18.50
   3  -7  -9  122.89    6.10
  -3  -7   9  133.59    6.00
   3  -7  -9  133.19   16.10
   3  -7  -9  108.79   16.20
   3  -7  -9  138.59   17.60
  -3  -7   9  123.79   17.50
  -3  -7   9  131.09   17.50
  -3  -7   9  144.39   20.10
   3  -7  -9  135.89   11.10
  -3   7   9  134.79   15.80
  -3   7   9  132.49   13.40
  -3   7   9  143.99    5.90
   3   7  -9  167.08   27.80
   3   7  -9  117.99   12.60
  -3   7   9  126.99   19.30
   2  -7  -9  180.28   25.60
   2  -7  -9  189.88    7.00
  -2  -7   9  202.28   25.60
  -2  -7   9  163.78   10.60
  -2  -7   9  199.98   28.60
   2  -7  -9  192.88   23.50
   2  -7  -9  192.18   26.20
   2  -7  -9  177.28   25.80
  -2  -7   9  181.28    7.40
   2  -7  -9  183.58    9.30
  -2   7   9  168.58    6.90
   2   7  -9  202.48   27.00
   2   7  -9  184.88   15.40
  -2   7   9  181.98   17.90
  -2   7   9  161.18   19.80
  -2   7   9  197.08   26.00
   1  -7  -9    1.40    1.50
   1  -7  -9    5.20   13.80
  -1  -7   9    8.30   14.80
   1  -7  -9    0.00   13.50
  -1  -7   9    1.00    1.60
   1  -7  -9    3.60    3.50
  -1  -7   9    6.50    3.10
  -1  -7   9   12.00   16.20
  -1  -7   9    5.30   16.00
   1  -7  -9    8.10   13.90
   1  -7  -9    3.30   15.20
  -1   7   9    4.00    8.50
  -1   7   9   11.90   15.10
   1   7  -9    3.20    2.00
   1   7  -9   11.20   16.80
  -1   7   9    4.60   10.50
   1   7  -9    8.10    9.50
   1   7  -9    5.70    1.30
   0  -7  -9  244.48   26.40
   0  -7   9  225.28   11.40
   0  -7  -9  236.48   24.10
   0  -7   9  207.48   22.50
   0  -7  -9  232.28   26.90
   0  -7  -9  234.78   10.00
   0  -7   9  228.58   26.50
   0  -7  -9  227.98    9.00
   0  -7  -9  231.28   22.20
   0  -7   9  222.98   27.20
   0   7  -9  224.58   28.60
   0   7  -9  214.98    9.40
   0   7  -9  197.18    9.00
   0   7   9  204.98   16.40
   0   7   9  215.68   12.70
   0   7  -9  236.68   19.40
   0   7   9  227.98   24.70
  -1  -7  -9   19.90   14.60
  -1  -7  -9   41.60    4.50
  -1  -7  -9   19.90   13.20
  -1  -7  -9   29.70   12.70
  -1  -7  -9   31.70    4.00
   1  -7   9   33.60   13.10
   1  -7   9   29.60   16.40
   1  -7   9   44.40    6.00
   1  -7   9   36.00   15.10
  -1  -7  -9   46.00   16.00
  -1   7  -9   36.60    4.10
  -1   7  -9   34.30   12.00
   1   7   9   33.30   14.20
   1   7   9   35.60    8.00
  -1   7  -9   28.90   17.40
  -2  -7  -9   80.59   18.60
   2  -7   9   74.59   14.90
  -2  -7  -9   73.89    5.40
  -2  -7  -9   71.39   13.70
  -2  -7  -9   51.39    5.50
   2  -7   9   67.29    7.40
   2  -7   9   56.69   18.50
  -2  -7  -9   64.59   14.90
  -2  -7  -9   47.90   15.50
   2   7   9   62.59   15.10
  -2   7  -9   72.09    4.80
  -2   7  -9   65.89   18.80
  -2   7  -9   65.29    7.90
  -3  -7  -9  161.18   26.30
  -3  -7  -9  147.79   21.40
   3  -7   9  124.79   17.70
   3  -7   9  152.88    9.40
  -3  -7  -9  121.69   16.00
  -3  -7  -9  136.19    9.20
   3  -7   9  114.19   21.90
  -3   7  -9  112.19   14.40
  -3   7  -9  124.49   23.60
  -3   7  -9  126.09   17.20
  -3  -8   9   68.09   20.80
  -3  -8   9   63.49   16.20
   3  -8  -9   69.19    8.50
   3  -8  -9   63.29    5.00
  -3  -8   9   69.59   17.60
   3  -8  -9   69.59   19.50
   3  -8  -9   69.19   19.20
   3  -8  -9   66.19   17.70
   3  -8  -9   69.49   16.80
  -3   8   9   76.89   13.30
  -3   8   9   51.69   16.50
  -3   8   9   68.39   20.50
   3   8  -9   83.89   18.50
   2  -8  -9   22.00   17.20
   2  -8  -9   25.90   17.10
  -2  -8   9   19.10   14.80
   2  -8  -9   19.40   15.20
  -2  -8   9   32.40   19.50
  -2  -8   9   12.70   18.70
   2  -8  -9   25.50   16.70
   2  -8  -9   23.60    4.30
  -2   8   9   25.70   10.70
  -2   8   9   16.00   16.70
   2   8  -9   22.30   17.00
  -2   8   9   25.50   15.20
  -1  -8   9  169.38    6.20
   1  -8  -9  151.78   18.50
   1  -8  -9  194.88   20.30
   1  -8  -9  206.28   10.70
   1  -8  -9  156.08   26.10
   1  -8  -9  179.78   24.90
  -1  -8   9  184.58   28.80
  -1  -8   9  175.48    9.50
  -1  -8   9  208.48   30.50
  -1  -8   9  172.08   24.80
  -1   8   9  183.38   21.60
   1   8  -9  188.28   16.20
   1   8  -9  189.98   30.30
  -1   8   9  167.48   13.50
  -1   8   9  187.78   27.30
   0  -8   9    3.20   17.40
   0  -8  -9   10.20   17.90
   0  -8   9    4.80   17.30
   0  -8  -9    9.80   14.60
   0  -8  -9   11.60    3.20
   0  -8   9    6.80   14.80
   0  -8  -9   12.40   16.20
   0  -8  -9   13.90   16.30
   0   8  -9    6.60   18.70
   0   8  -9   13.10   11.10
   0   8   9   15.40   15.90
   0   8   9    9.30   10.80
   1  -8   9  115.49    8.60
   1  -8   9  110.19   19.00
  -1  -8  -9  124.99    8.50
  -1  -8  -9  119.19   19.70
  -1  -8  -9  129.49    9.30
  -1  -8  -9  122.69   15.60
  -1  -8  -9  114.59   18.90
  -1  -8  -9  119.99   15.90
   1  -8   9  107.79   20.60
   1  -8   9  102.89   16.20
  -1   8  -9   81.69   19.50
  -1   8  -9  105.39   13.80
   1   8   9  110.19   16.80
   1   8   9  104.39   15.40
  -1   8  -9  107.39    5.70
  -2  -8  -9   61.39   15.20
  -2  -8  -9   74.19   15.70
   2  -8   9   68.59   21.50
  -2  -8  -9   50.39   19.10
  -2  -8  -9   48.30   18.60
   2  -8   9   63.99   16.70
  -2   8  -9   53.69   20.30
  -2   8  -9   41.90    5.50
  -2   8  -9   58.29   15.10
   6   0 -10  106.39   11.90
  -6   0  10  104.69   21.30
   6   0 -10   93.19   21.70
   6   0 -10   99.79   16.50
  -6   0  10  109.39   17.40
  -6   0  10  125.59   20.30
   5   0 -10   87.19   21.50
  -5   0  10   64.29    7.20
  -5   0  10  102.39   19.60
  -5   0  10   86.89   14.60
   5   0 -10   87.39   14.00
   5   0 -10   84.59    9.90
  -5   0  10   74.69   15.10
   4   0 -10  584.24   23.50
   4   0 -10  622.34   32.90
  -4   0  10  558.54   31.30
   4   0 -10  603.54   20.90
   4   0 -10  614.94   28.80
  -4   0  10  601.34   28.30
  -4   0  10  623.34   21.80
   4   0 -10  599.34   29.60
  -4   0  10  616.14   29.00
  -3   0  10   28.50    3.90
   3   0 -10   20.40    2.60
   3   0 -10   23.10    3.60
   3   0 -10   23.60   11.00
  -3   0  10   31.20   11.30
  -3   0  10   20.40   13.20
  -3   0  10   17.80   18.00
   3   0 -10   24.50    8.50
   3   0 -10    5.50   13.00
   3   0 -10   19.30   10.80
  -3   0  10   30.80    4.00
   2   0 -10  430.76   20.00
   2   0 -10  430.36   26.50
  -2   0  10  423.86   21.10
  -2   0  10  428.96   15.50
   2   0 -10  441.06   16.40
  -2   0  10  427.66   25.20
  -2   0  10  442.96   16.70
  -2   0  10  442.26   22.00
   2   0 -10  439.36   22.60
   2   0 -10  426.26   22.90
  -1   0  10  452.15   15.20
   1   0 -10  453.95   26.30
  -1   0  10  443.16   21.60
  -1   0  10  459.85   16.80
   1   0 -10  442.46   23.00
  -1   0  10  423.66   20.20
  -1   0  10  446.06   25.50
   1   0 -10  435.16   22.40
   1   0 -10  429.06   18.40
  -1   0  10  442.56   15.60
   0   0 -10  124.79    7.50
   0   0  10  138.99    6.80
   0   0 -10  145.89   17.40
   0   0  10  127.09    6.20
   0   0  10  141.09   16.30
   0   0  10  148.69   13.70
   0   0 -10  140.59   17.10
   0   0  10  141.29   21.20
   0   0 -10  144.09   22.00
   0   0  10  138.69    7.50
   1   0  10  605.44   22.90
  -1   0 -10  618.04   27.00
   1   0  10  630.04   30.70
   1   0  10  628.14   20.60
   1   0  10  639.34   21.20
  -1   0 -10  638.24   30.50
   1   0  10  621.14   26.50
  -1   0 -10  629.54   22.40
   1   0  10  650.73   19.50
   1   0  10  622.64   22.30
  -2   0 -10   21.50   15.40
  -2   0 -10   10.60   18.60
   2   0  10   14.80   14.30
   2   0  10   13.40    7.30
   2   0  10    9.60    2.30
  -2   0 -10   11.70    3.50
   2   0  10   10.40    3.30
   2   0  10    9.70    1.40
   2   0  10   12.90   10.60
   2   0  10   10.70    2.80
  -2   0 -10    7.10   11.20
   3   0  10  304.97   27.80
  -3   0 -10  316.27   23.20
   3   0  10  298.57   22.30
  -3   0 -10  300.77   27.80
   3   0  10  280.07   15.50
  -3   0 -10  294.57   13.40
  -3   0 -10  299.77   24.10
   3   0  10  289.17    9.20
   4   0  10   78.79   14.00
  -4   0 -10   65.39    7.40
  -4   0 -10   81.69   15.80
   4   0  10   93.29   20.10
  -4   0 -10   73.09   16.00
   4   0  10   73.59    4.50
  -4   0 -10   74.69   18.10
   4   0  10   87.09    9.70
  -5   0 -10   -1.60   17.50
   5   0  10    5.30   15.00
   5   0  10    9.00   24.50
  -5   0 -10    1.20   19.90
  -5   0 -10    6.40   18.30
   6  -1 -10  156.18   17.90
   6  -1 -10  157.78   20.90
   6  -1 -10  173.88   24.70
  -6  -1  10  141.79   17.80
  -6  -1  10  183.38   32.60
  -6  -1  10  139.39   19.00
  -6   1  10  155.18   23.30
   6   1 -10  169.28   24.80
  -6   1  10  135.39   19.20
  -6   1  10  169.58   18.80
   6   1 -10  150.28   15.80
  -5  -1  10  351.56   25.40
  -5  -1  10  357.46   30.30
  -5  -1  10  348.37   14.70
  -5  -1  10  357.16   28.70
   5  -1 -10  331.37   32.40
   5  -1 -10  339.57   20.70
   5  -1 -10  369.36   25.90
  -5   1  10  358.16   27.70
   5   1 -10  339.17   24.50
   5   1 -10  344.27   30.40
   5   1 -10  319.87   16.90
  -5   1  10  335.47   25.20
  -5   1  10  368.36   32.00
   4  -1 -10   31.30   12.50
  -4  -1  10   20.30   20.80
   4  -1 -10   31.60    9.60
   4  -1 -10   38.30   14.30
  -4  -1  10   38.20   12.60
  -4  -1  10   22.20   14.30
   4  -1 -10   34.20   16.00
   4  -1 -10   21.00    2.70
  -4  -1  10   21.40    3.70
   4   1 -10   36.40   15.60
   4   1 -10   33.10    7.90
   4   1 -10   25.00    3.50
  -4   1  10   13.00   29.00
  -4   1  10   23.50    3.90
  -4   1  10   32.30   12.30
  -4   1  10   33.30   13.10
   4   1 -10   30.30   20.20
   3  -1 -10  746.43   31.90
   3  -1 -10  687.23   33.50
   3  -1 -10  791.12   26.30
  -3  -1  10  765.62   24.70
  -3  -1  10  621.84   40.60
  -3  -1  10  750.42   30.10
  -3  -1  10  765.32   25.90
  -3  -1  10  737.43   33.10
   3  -1 -10  729.03   40.70
   3  -1 -10  697.23   24.90
   3  -1 -10  759.32   28.00
   3   1 -10  764.22   26.30
   3   1 -10  732.13   24.20
   3   1 -10  763.52   29.80
  -3   1  10  757.62   29.70
   3   1 -10  765.92   30.70
  -3   1  10  755.92   33.10
  -3   1  10  753.72   25.80
   3   1 -10  747.13   25.90
  -3   1  10  766.82   24.80
   3   1 -10  719.93   33.10
  -3   1  10  734.83   33.70
  -2  -1  10    1.90    2.50
   2  -1 -10    7.10    3.00
   2  -1 -10    6.70   13.00
   2  -1 -10    1.60   10.20
  -2  -1  10    6.80    3.00
  -2  -1  10    7.70   10.10
   2  -1 -10    3.00    9.90
  -2  -1  10    2.00   10.00
   2  -1 -10    5.80    8.80
  -2  -1  10    6.10   13.90
  -2   1  10    9.20    2.50
   2   1 -10    4.30    9.80
   2   1 -10   12.10   13.80
  -2   1  10    8.60    2.90
   2   1 -10    9.20    7.80
   2   1 -10    6.80    2.00
   2   1 -10    2.60    9.70
   2   1 -10   13.00    2.70
  -2   1  10    7.10    2.10
  -2   1  10    3.10   10.00
  -2   1  10    9.50   13.10
  -2   1  10    3.10    9.10
   1  -1 -10  741.13   30.20
  -1  -1  10  749.03   29.60
   1  -1 -10  756.62   26.00
  -1  -1  10  758.32   26.10
  -1  -1  10  764.22   24.80
   1  -1 -10  771.62   29.50
  -1  -1  10  763.52   33.40
   1  -1 -10  762.52   32.60
  -1  -1  10  740.63   28.20
   1   1 -10  735.73   29.20
   1   1 -10  782.92   34.00
   1   1 -10  777.42   29.30
  -1   1  10  739.03   32.40
  -1   1  10  751.92   29.40
  -1   1  10  762.62   26.00
  -1   1  10  740.63   27.30
   1   1 -10  763.32   26.10
   1   1 -10  776.02   24.50
  -1   1  10  780.02   24.30
  -1   1  10  783.62   25.00
   0  -1  10  557.74   22.40
   0  -1  10  556.24   18.40
   0  -1  10  527.05   24.80
   0  -1 -10  568.04   28.90
   0  -1  10  538.75   28.60
   0  -1  10  556.34   18.80
   0  -1 -10  554.04   25.10
   0  -1  10  559.24   17.90
   0  -1 -10  574.84   20.20
   0  -1 -10  541.25   25.50
   0  -1  10  568.84   20.10
   0   1  10  555.74   18.30
   0   1 -10  559.44   18.50
   0   1 -10  554.14   24.50
   0   1 -10  552.64   29.20
   0   1  10  536.55   23.80
   0   1  10  538.35   21.00
   0   1  10  553.44   28.80
   0   1  10  557.54   19.10
   0   1  10  557.14   19.90
   0   1 -10  553.54   20.20
   0   1 -10  526.85   24.40
   1  -1  10   72.89    4.90
   1  -1  10   94.39   11.40
   1  -1  10   95.29   13.90
   1  -1  10   93.69   15.40
  -1  -1 -10   91.09   12.10
   1  -1  10   94.39    4.20
   1  -1  10   88.79    5.30
  -1  -1 -10   89.29    6.40
  -1  -1 -10   89.99   14.60
   1  -1  10   72.49    6.30
   1   1  10   77.69    6.40
   1   1  10   83.59   11.30
  -1   1 -10  103.49   15.40
  -1   1 -10   98.49   11.80
   1   1  10   95.69   15.10
   1   1  10   95.19    3.80
  -1   1 -10   76.79    7.20
   1   1  10   96.49    5.50
   1   1  10   93.69   11.00
   1   1  10   83.79    6.40
   2  -1  10  333.57   27.50
   2  -1  10  336.07   13.30
   2  -1  10  327.47   17.40
  -2  -1 -10  352.66   13.50
   2  -1  10  326.77   21.80
   2  -1  10  334.57   10.90
  -2  -1 -10  325.97   27.30
   2  -1  10  321.97   13.60
  -2  -1 -10  327.37   22.90
  -2  -1 -10  340.17   13.90
   2   1  10  336.17   12.80
   2   1  10  332.67   11.80
  -2   1 -10  320.97   22.00
   2   1  10  315.37   14.60
   2   1  10  324.57   26.20
   2   1  10  314.57   20.60
  -2   1 -10  354.16   12.40
  -2   1 -10  338.77   27.00
   2   1  10  331.47   10.30
  -2   1 -10  340.67   14.00
   3  -1  10   66.89    9.70
   3  -1  10   70.59    3.00
  -3  -1 -10   72.59   16.10
  -3  -1 -10   61.99   16.80
   3  -1  10   64.59   12.70
   3  -1  10   70.79   18.30
  -3  -1 -10   59.39    6.60
  -3  -1 -10   63.69   13.40
   3   1  10   68.59    7.10
  -3   1 -10   63.89   14.00
   3   1  10   60.99    3.30
   3   1  10   70.09    4.40
  -3   1 -10   70.49   13.40
  -3   1 -10   60.79   16.70
   3   1  10   60.69   12.10
  -3   1 -10   53.29    6.80
   3   1  10   73.69   17.50
  -4  -1 -10  148.19   18.60
   4  -1  10  129.59    5.50
  -4  -1 -10  107.59   18.30
   4  -1  10  117.59   21.40
  -4  -1 -10  146.69    8.40
   4  -1  10  114.89   14.60
  -4  -1 -10  170.28   24.40
   4   1  10  118.49   11.70
   4   1  10  121.69   20.20
  -4   1 -10  127.09   18.60
  -4   1 -10  113.09   10.50
  -4   1 -10  143.39   17.00
  -4   1 -10  102.79   18.80
   4   1  10  139.39   14.20
  -5  -1 -10   84.99   18.10
   5  -1  10   62.69   22.40
   5  -1  10   76.79   16.50
  -5  -1 -10   81.49   22.30
  -5  -1 -10   49.30    8.70
  -5  -1 -10   94.39   20.20
   5   1  10   68.69    8.50
  -5   1 -10   82.59   18.90
   5   1  10   72.49   15.50
   5   1  10   67.09   21.50
  -5   1 -10   70.29   21.60
  -5   1 -10   94.69   18.50
  -6  -2  10  124.29   22.40
  -6  -2  10   98.89   19.30
   6  -2 -10   96.79   14.20
   6  -2 -10  102.89   23.20
  -6  -2  10   85.89    9.30
  -6  -2  10   97.29   17.50
   6  -2 -10  112.69   18.60
  -6   2  10  104.09   22.90
   6   2 -10  104.29   22.50
  -6   2  10   96.89   19.90
   6   2 -10  103.59   15.50
  -6   2  10  116.39   18.00
   5  -2 -10  111.29   12.90
  -5  -2  10  132.69   17.30
  -5  -2  10  110.59   15.60
   5  -2 -10  120.99   20.60
  -5  -2  10  127.59   19.60
   5  -2 -10   93.19   15.60
  -5  -2  10  131.89    8.20
   5  -2 -10  132.59   16.10
   5   2 -10  108.09   16.90
  -5   2  10  101.99   16.40
  -5   2  10  109.89   15.30
   5   2 -10  108.79   19.00
  -5   2  10  113.39   20.30
   5   2 -10  112.79   11.10
   4  -2 -10  485.85   31.50
   4  -2 -10  492.25   28.40
  -4  -2  10  510.95   18.60
   4  -2 -10  504.55   23.70
  -4  -2  10  498.25   26.20
   4  -2 -10  519.15   27.30
  -4  -2  10  482.85   27.20
  -4  -2  10  462.55   29.90
   4  -2 -10  452.85   16.60
   4  -2 -10  514.35   21.10
  -4  -2  10  494.65   17.90
  -4   2  10  430.86   50.09
   4   2 -10  476.95   18.30
  -4   2  10  467.05   25.80
  -4   2  10  497.45   27.10
   4   2 -10  446.76   30.70
   4   2 -10  498.65   24.80
  -3  -2  10    0.90    3.10
   3  -2 -10    5.20   15.70
  -3  -2  10   -4.10   11.00
   3  -2 -10    6.10    1.90
   3  -2 -10    6.70   12.10
  -3  -2  10    2.60   24.30
  -3  -2  10    1.20    2.20
   3  -2 -10   -4.10    3.10
   3  -2 -10   -0.20    9.40
   3  -2 -10   -0.40   14.80
   3   2 -10   -0.20   10.10
  -3   2  10   -2.70   14.60
  -3   2  10    3.30   16.20
   3   2 -10    0.40   14.50
   3   2 -10    3.30    2.10
   3   2 -10   -0.90   11.40
   3   2 -10    1.80    6.70
  -3   2  10    2.80   10.30
   2  -2 -10  263.27   22.70
   2  -2 -10  324.47   12.80
  -2  -2  10  305.17   20.20
  -2  -2  10  293.57   11.40
  -2  -2  10  308.17   12.80
   2  -2 -10  312.77   10.80
   2  -2 -10  294.17   19.30
  -2  -2  10  303.47   20.80
   2  -2 -10  302.17   21.60
  -2  -2  10  297.97   24.70
   2  -2 -10  304.37   20.10
  -2   2  10  281.97   23.40
   2   2 -10  308.07   20.10
  -2   2  10  312.07   11.20
   2   2 -10  292.27   16.00
   2   2 -10  308.27   20.30
   2   2 -10  317.27   25.20
  -2   2  10  303.57   20.40
  -2   2  10  307.27   12.70
   2   2 -10  297.67   12.60
   2   2 -10  309.97   11.40
  -2   2  10  299.47   18.20
  -2   2  10  318.47   12.10
  -1  -2  10  224.08   18.50
  -1  -2  10  236.58   10.70
   1  -2 -10  242.68   23.40
   1  -2 -10  234.58   18.40
  -1  -2  10  240.08    9.50
   1  -2 -10  232.18   19.00
  -1  -2  10  232.98   17.80
  -1  -2  10  245.48   23.40
   1  -2 -10  228.88   10.70
   1  -2 -10  227.58   20.80
   1   2 -10  237.58   18.20
   1   2 -10  255.77    9.50
   1   2 -10  253.27   11.00
  -1   2  10  241.68   23.90
  -1   2  10  260.77   10.20
   1   2 -10  243.48   24.40
  -1   2  10  231.48   15.50
  -1   2  10  248.98   17.80
  -1   2  10  254.87   10.90
  -1   2  10  238.78   10.40
   1   2 -10  244.58   19.80
   0  -2 -10  194.28   19.70
   0  -2 -10  214.48   22.40
   0  -2  10  199.08   23.40
   0  -2  10  213.38    8.70
   0  -2  10  215.28    8.00
   0  -2  10  200.48   10.10
   0  -2 -10  221.08    8.70
   0  -2 -10  216.48   19.50
   0  -2  10  216.38   18.20
   0  -2  10  215.78   17.10
   0  -2 -10  192.08   10.80
   0   2  10  197.68    9.40
   0   2 -10  199.08    8.50
   0   2  10  210.28    9.10
   0   2  10  200.78   13.00
   0   2  10  219.38   18.00
   0   2 -10  208.28   17.80
   0   2 -10  210.98   10.20
   0   2 -10  211.98   23.80
   0   2  10  231.18   23.10
   0   2 -10  213.08   18.20
   1  -2  10  474.35   16.20
   1  -2  10  461.75   21.40
   1  -2  10  477.35   17.90
  -1  -2 -10  479.05   26.90
   1  -2  10  479.35   15.30
  -1  -2 -10  457.35   25.40
  -1  -2 -10  472.75   16.20
   1  -2  10  478.95   28.70
  -1  -2 -10  500.35   17.90
   1  -2  10  476.95   24.10
   1   2  10  456.65   27.10
  -1   2 -10  462.85   17.90
   1   2  10  475.25   14.60
   1   2  10  437.96   17.30
   1   2  10  469.65   15.70
   1   2  10  455.75   16.70
   1   2  10  456.65   22.50
  -1   2 -10  471.75   16.10
  -1   2 -10  442.96   22.60
  -1   2 -10  481.65   28.60
  -2  -2 -10   18.90    3.30
   2  -2  10   25.90   15.60
   2  -2  10   13.80    9.30
   2  -2  10    5.50   14.20
  -2  -2 -10   16.20   14.90
  -2  -2 -10   19.00   12.20
   2  -2  10   11.80    1.70
   2  -2  10    8.20    3.50
  -2  -2 -10   12.00    3.50
  -2   2 -10   17.30   15.20
  -2   2 -10   10.10   10.70
   2   2  10   17.10   15.00
   2   2  10   11.30    2.00
  -2   2 -10   20.90   13.10
   2   2  10   15.40    3.70
   2   2  10   20.20   10.50
  -2   2 -10    9.90    2.40
   3  -2  10  252.17    9.40
   3  -2  10  257.17   22.00
  -3  -2 -10  246.18   25.40
  -3  -2 -10  268.27   12.00
   3  -2  10  258.37   32.10
   3  -2  10  249.28   18.70
  -3  -2 -10  253.97   22.50
  -3  -2 -10  248.18   27.00
  -3   2 -10  249.97   12.70
  -3   2 -10  271.27   24.40
   3   2  10  281.07   28.40
   3   2  10  252.87    9.40
   3   2  10  270.57   20.70
  -3   2 -10  255.07   29.10
  -3   2 -10  281.67   22.80
   4  -2  10   89.09   21.10
  -4  -2 -10   69.29   18.10
  -4  -2 -10   80.99   15.80
  -4  -2 -10   78.39   18.60
   4  -2  10   65.09   14.90
  -4  -2 -10   59.79    8.00
  -4   2 -10   75.69   15.00
   4   2  10   89.79   20.10
  -4   2 -10   83.69   21.10
   4   2  10   73.49   12.80
  -4   2 -10   74.49   16.20
   4   2  10   80.49    5.50
  -5  -2 -10   12.20    5.20
  -5  -2 -10   12.60   20.80
   5  -2  10   15.10   15.90
  -5  -2 -10   24.10   17.80
   5  -2  10   24.60   24.30
   5  -2  10   24.00    2.90
  -5  -2 -10   30.60   19.90
  -5   2 -10   31.70   18.60
  -5   2 -10   16.60   24.30
   5   2  10   16.40   14.00
   5   2  10   13.00   21.10
  -5   2 -10   24.40   17.80
  -6  -3  10  203.88   23.60
   6  -3 -10  170.08   20.60
   6  -3 -10  162.08   20.00
  -6  -3  10  193.98   33.90
  -6  -3  10  183.78   10.70
   6  -3 -10  183.68   26.30
  -6   3  10  184.38   22.40
   6   3 -10  170.18   24.80
  -6   3  10  177.48   26.40
  -5  -3  10  138.89    8.90
   5  -3 -10  126.69   20.90
   5  -3 -10  145.49   16.90
  -5  -3  10  132.79   17.20
   5  -3 -10  164.38   21.90
  -5  -3  10  141.09   16.40
   5  -3 -10  143.69   18.30
  -5  -3  10  148.99   19.80
   5   3 -10  144.39   20.60
  -5   3  10  128.89   16.70
   5   3 -10  124.99    6.40
  -5   3  10  127.59   16.70
   5   3 -10  125.69   14.00
  -5   3  10  136.99   20.60
  -4  -3  10   -0.10   13.00
   4  -3 -10   -1.80    3.80
   4  -3 -10   -1.30   17.50
   4  -3 -10    3.50   13.70
   4  -3 -10    2.20    2.30
  -4  -3  10    5.30   13.30
  -4  -3  10    0.30   15.20
   4  -3 -10    2.70   14.30
   4  -3 -10    0.80   11.10
  -4   3  10    8.50   19.20
  -4   3  10   -8.00   13.00
   4   3 -10   -3.90   11.20
  -4   3  10    4.90   13.00
   4   3 -10  -11.60   16.10
   4   3 -10    2.80    2.50
  -3  -3  10  438.66   18.60
   3  -3 -10  457.05   29.20
   3  -3 -10  404.06   16.50
  -3  -3  10  416.66   27.00
   3  -3 -10  448.46   17.30
  -3  -3  10  445.76   27.90
   3  -3 -10  444.26   23.40
  -3  -3  10  457.95   15.60
  -3  -3  10  442.96   37.80
   3  -3 -10  442.66   26.60
   3  -3 -10  451.35   24.30
   3   3 -10  472.75   29.00
   3   3 -10  460.75   14.40
   3   3 -10  469.75   15.50
   3   3 -10  435.36   16.90
   3   3 -10  454.75   23.00
  -3   3  10  424.06   23.70
  -3   3  10  467.65   31.10
  -3   3  10  430.16   28.90
   3   3 -10  454.05   24.10
   2  -3 -10   32.00    3.20
  -2  -3  10   52.19   11.60
  -2  -3  10   37.30   13.80
  -2  -3  10   44.80    4.70
   2  -3 -10   40.00   10.60
   2  -3 -10   41.10    5.20
  -2  -3  10   39.50    5.30
  -2   3  10   50.29   10.90
  -2   3  10   47.90   10.10
   2   3 -10   41.50    2.70
   2   3 -10   43.10   10.60
   2   3 -10   61.09   15.70
   2   3 -10   48.90   10.90
  -2   3  10   37.10    3.70
  -2   3  10   35.70   14.70
  -2   3  10   49.70    6.40
   2   3 -10   45.90    4.00
  -1  -3  10  385.86   22.00
  -1  -3  10  407.66   14.10
  -1  -3  10  385.16   21.60
   1  -3 -10  392.26   24.90
   1  -3 -10  384.86   22.70
   1  -3 -10  390.76   14.00
   1  -3 -10  404.26   25.60
  -1  -3  10  375.86   26.00
   1  -3 -10  402.46   22.30
  -1  -3  10  417.36   13.90
   1  -3 -10  406.46   15.40
  -1  -3  10  409.16   15.50
  -1   3  10  390.56   13.90
   1   3 -10  379.16   15.50
  -1   3  10  406.06   26.20
   1   3 -10  422.86   21.20
  -1   3  10  357.46   18.20
  -1   3  10  373.96   20.60
   1   3 -10  390.96   20.80
   1   3 -10  379.66   13.00
   1   3 -10  382.96   27.00
   1   3 -10  399.46   13.90
   0  -3  10  223.88   19.00
   0  -3 -10  235.98   19.20
   0  -3  10  224.38    9.00
   0  -3  10  217.58   23.60
   0  -3 -10  225.38   22.00
   0  -3  10  211.28   10.60
   0  -3 -10  229.48   11.50
   0  -3 -10  252.97   25.50
   0  -3  10  222.48   19.60
   0  -3  10  244.38    8.90
   0  -3 -10  233.78    9.30
   0   3 -10  242.78    8.60
   0   3 -10  244.68   24.20
   0   3 -10  236.08    9.30
   0   3 -10  216.48   17.10
   0   3  10  205.48   12.90
   0   3 -10  224.88   19.70
   0   3 -10  223.18   10.70
   0   3  10  221.18   23.80
   0   3  10  219.58    8.70
   0   3  10  220.88   17.70
  -1  -3 -10   81.89    5.30
  -1  -3 -10   74.89   25.00
   1  -3  10   69.39   21.00
   1  -3  10   86.09   15.70
  -1  -3 -10   90.39    6.70
   1  -3  10  105.99   11.80
   1  -3  10  102.19    4.70
   1  -3  10   87.79    6.60
   1  -3  10  102.09    5.20
  -1  -3 -10  109.79   12.40
   1   3  10   87.09    9.30
   1   3  10   91.59   11.00
  -1   3 -10   89.19    5.10
  -1   3 -10   86.99    6.70
  -1   3 -10   82.99   15.40
   1   3  10  106.79    8.10
   1   3  10   79.59   15.20
  -1   3 -10   96.69   10.90
   1   3  10  100.59    4.90
   2  -3  10  242.28    8.80
  -2  -3 -10  261.97   25.50
  -2  -3 -10  243.78   24.20
   2  -3  10  221.28   21.70
   2  -3  10  241.18   19.60
  -2  -3 -10  223.38   13.30
  -2  -3 -10  272.97   13.10
   2  -3  10  242.78   11.80
  -2  -3 -10  231.38   20.90
  -2   3 -10  247.58   27.10
   2   3  10  242.48    9.10
  -2   3 -10  233.08   21.20
  -2   3 -10  230.88    9.60
   2   3  10  247.18   18.90
  -2   3 -10  230.78   19.80
   2   3  10  243.68   26.30
  -3  -3 -10   19.90   13.30
  -3  -3 -10   13.10    4.20
   3  -3  10   17.80   17.50
  -3  -3 -10   22.40   15.80
   3  -3  10   18.80    2.30
  -3  -3 -10   24.70   16.20
   3  -3  10   16.50   13.10
  -3   3 -10   16.10   13.70
  -3   3 -10   12.10   16.90
   3   3  10   16.80   16.40
  -3   3 -10   16.50   11.90
   3   3  10   25.70   11.10
   3   3  10   12.40    3.00
  -4  -3 -10  104.49   18.50
   4  -3  10  109.79    4.90
  -4  -3 -10   95.89   18.60
   4  -3  10  116.59   22.70
  -4  -3 -10  113.19    8.20
   4  -3  10   95.49   16.10
  -4  -3 -10  117.89   16.30
   4   3  10  126.39   20.70
  -4   3 -10  115.99   15.80
   4   3  10  127.09   13.50
  -4   3 -10   93.69   21.30
  -4   3 -10  116.29   17.50
   4   3  10  106.69    7.00
   5  -4 -10   79.59   21.30
  -5  -4  10   93.49   17.00
  -5  -4  10   78.79   19.80
  -5  -4  10   86.19   19.60
   5  -4 -10   65.49   17.50
   5  -4 -10   82.09   17.50
   5  -4 -10   89.69   14.80
  -5  -4  10   98.79    9.10
  -5   4  10   66.99   16.30
   5   4 -10   81.99   19.90
   5   4 -10   78.29    5.70
  -5   4  10   68.49   20.80
   5   4 -10   68.89   13.00
  -5   4  10   91.09   19.20
  -4  -4  10  395.36   28.50
   4  -4 -10  410.66   29.50
  -4  -4  10  419.86   16.20
  -4  -4  10  390.96   26.80
  -4  -4  10  372.86   29.00
   4  -4 -10  431.26   17.10
  -4  -4  10  395.16   14.90
   4  -4 -10  392.06   14.50
   4  -4 -10  404.06   32.40
   4  -4 -10  403.06   27.00
  -4   4  10  433.06   32.30
  -4   4  10  394.06   25.90
   4   4 -10  400.56   13.80
   4   4 -10  338.47   30.70
  -4   4  10  388.16   27.80
   4   4 -10  419.26   22.90
   3  -4 -10    9.20   14.90
   3  -4 -10    7.20    3.70
   3  -4 -10   -2.00   12.70
  -3  -4  10    3.30    3.50
   3  -4 -10    8.90    3.40
  -3  -4  10    8.10   13.00
   3  -4 -10    5.00   15.40
  -3  -4  10    3.00   12.40
   3  -4 -10    8.60   11.90
  -3  -4  10    9.50   14.90
   3   4 -10   15.60   16.00
  -3   4  10    4.90   11.70
   3   4 -10   13.50   10.90
  -3   4  10    0.70   13.60
  -3   4  10   -2.50   16.10
  -2  -4  10  224.28   28.10
   2  -4 -10  280.87   25.50
   2  -4 -10  290.77   23.80
  -2  -4  10  297.27   23.80
   2  -4 -10  292.27   21.80
   2  -4 -10  287.47   21.70
  -2  -4  10  302.07   11.80
   2  -4 -10  259.27   14.70
  -2  -4  10  288.77   25.80
   2  -4 -10  281.97   10.10
  -2  -4  10  292.67   12.50
   2   4 -10  319.37   27.40
  -2   4  10  302.17   10.70
  -2   4  10  273.37   19.50
   2   4 -10  282.97   19.50
  -2   4  10  288.87   20.20
   2   4 -10  290.77    9.90
   2   4 -10  277.37   12.20
   2   4 -10  289.27   20.10
  -2   4  10  277.17   26.00
  -1  -4  10  103.79   12.70
  -1  -4  10  126.59   16.80
   1  -4 -10  117.49    4.80
  -1  -4  10  114.79    6.00
   1  -4 -10  143.19   15.90
   1  -4 -10  114.79    6.90
  -1  -4  10  106.19    7.30
   1  -4 -10  115.19   13.40
   1  -4 -10  102.09   15.30
  -1  -4  10  119.69    5.70
   1  -4 -10  103.69   12.60
   1  -4 -10  123.89    7.30
  -1   4  10  102.79   13.80
  -1   4  10  127.99    5.60
  -1   4  10  126.59   17.70
   1   4 -10  117.29   16.50
   1   4 -10  116.09    6.50
  -1   4  10  119.89   16.50
   1   4 -10   95.79    5.70
   1   4 -10  121.89   16.30
   1   4 -10  130.19   18.00
   0  -4  10   79.49   12.30
   0  -4 -10   69.49    6.30
   0  -4  10   69.29   17.20
   0  -4  10   62.09   15.80
   0  -4 -10   77.89   12.10
   0  -4  10   92.39    4.80
   0  -4 -10   63.49   13.40
   0  -4 -10   91.99    5.30
   0  -4 -10   83.19   15.70
   0  -4  10   88.69    4.80
   0   4 -10   93.39   12.00
   0   4  10   83.49    8.50
   0   4  10   76.49   10.20
   0   4 -10   81.29   10.40
   0   4  10   66.99   10.80
   0   4  10   88.49   15.80
   0   4 -10   72.99   15.80
   0   4 -10   76.49    4.80
   0   4  10   80.29    4.40
   0   4 -10   74.09    4.20
   1  -4  10  268.37   12.20
   1  -4  10  282.17   27.00
   1  -4  10  276.07   21.30
  -1  -4 -10  272.07   12.10
   1  -4  10  265.17   10.00
  -1  -4 -10  287.97   10.90
  -1  -4 -10  266.57   23.80
   1  -4  10  274.37   21.50
  -1  -4 -10  287.37   25.60
   1  -4  10  288.57   11.10
  -1  -4 -10  291.17   21.70
   1   4  10  254.27   12.20
  -1   4 -10  283.57   26.60
   1   4  10  294.27    9.90
  -1   4 -10  279.97   21.20
   1   4  10  273.57   18.80
   1   4  10  295.07   26.30
  -1   4 -10  262.87   18.80
  -1   4 -10  262.87   10.20
  -2  -4 -10   -4.80    3.20
   2  -4  10    3.60    3.70
   2  -4  10   -1.40   12.10
   2  -4  10   -2.90   12.50
  -2  -4 -10   -1.30   14.50
   2  -4  10    2.70    2.20
  -2  -4 -10    6.40   15.20
   2  -4  10   -0.70   16.00
  -2  -4 -10    2.70   14.90
  -2   4 -10    1.00   12.80
  -2   4 -10    6.20   10.30
   2   4  10   -1.30    1.70
  -2   4 -10   -1.00   16.10
   2   4  10    1.20   15.50
   2   4  10    5.00   10.20
  -3  -4 -10  156.58   26.70
  -3  -4 -10  136.89    8.30
  -3  -4 -10  105.39   16.20
   3  -4  10  134.79   21.20
   3  -4  10  130.29    7.70
   3  -4  10  141.99   16.20
  -3  -4 -10  150.18   15.50
   3   4  10  120.59   17.90
   3   4  10  152.98   17.80
  -3   4 -10  146.49   13.90
  -3   4 -10  129.29   16.50
   3   4  10  145.39    5.60
  -3   4 -10  135.59   20.80
  -4  -4 -10   39.70   16.30
  -4  -4 -10   37.90   20.50
  -4  -4 -10   43.80   19.40
   4  -4  10   38.90    4.40
   4  -4  10   32.70   23.00
   4  -4  10   34.70   16.70
  -4  -4 -10   42.20    5.00
  -4   4 -10   38.00   22.90
   4   4  10   40.10   19.80
   4   4  10   43.20   11.50
  -4   4 -10   49.40   14.70
  -4   4 -10   49.40   17.40
   5  -5 -10   77.09   18.70
   5  -5 -10   62.39   19.60
   5  -5 -10   66.89   23.00
  -5  -5  10   69.59   17.50
   5  -5 -10   71.89   16.50
  -5  -5  10   75.39   12.10
  -5  -5  10   74.89   20.50
  -5  -5  10   64.89   20.00
  -5   5  10   63.99   17.40
   5   5 -10   62.19   12.60
  -5   5  10   58.19   22.00
   5   5 -10   66.39   20.50
  -5   5  10   57.29   19.60
  -4  -5  10    8.10   17.10
  -4  -5  10   12.20   14.70
  -4  -5  10   12.70    4.10
  -4  -5  10    7.50   16.80
   4  -5 -10   13.80   15.70
   4  -5 -10   21.00   14.90
   4  -5 -10   15.20   15.50
   4  -5 -10   13.10    4.30
   4  -5 -10   18.90    2.90
   4  -5 -10   13.90   18.30
   4   5 -10   13.00    3.40
   4   5 -10   14.50   11.20
  -4   5  10   12.20   15.40
   4   5 -10  -16.70   17.10
  -4   5  10   15.90   14.50
  -4   5  10   18.60   19.10
  -3  -5  10  401.76   27.80
  -3  -5  10  423.36   17.90
   3  -5 -10  408.06   27.40
  -3  -5  10  407.36   26.80
   3  -5 -10  413.06   27.60
  -3  -5  10  400.06   14.10
   3  -5 -10  410.06   17.00
   3  -5 -10  389.56   29.80
  -3  -5  10  400.06   29.40
   3  -5 -10  386.76   14.80
   3  -5 -10  411.46   30.80
  -3   5  10  370.06   25.00
  -3   5  10  401.26   25.40
   3   5 -10  447.96   31.80
  -3   5  10  433.46   31.60
   3   5 -10  340.17   15.30
   3   5 -10  430.46   22.50
  -3   5  10  455.85   27.20
  -2  -5  10   24.90   13.90
   2  -5 -10   20.00    3.00
  -2  -5  10   22.30    3.70
   2  -5 -10   19.50    3.70
   2  -5 -10   24.60   12.70
   2  -5 -10   36.50   16.20
   2  -5 -10   23.40   14.50
  -2  -5  10   29.20    3.80
  -2  -5  10   24.00   15.70
  -2  -5  10   28.60   12.80
   2  -5 -10   25.20   12.80
   2   5 -10   25.50   10.80
  -2   5  10   18.50   11.20
  -2   5  10   17.60    2.60
  -2   5  10   19.80   11.40
   2   5 -10   17.30    2.30
  -2   5  10   24.20   15.90
   2   5 -10   24.30    1.80
   2   5 -10   26.80   16.20
  -2   5  10   31.50   10.80
  -1  -5  10  243.68   14.10
   1  -5 -10  239.58   23.20
   1  -5 -10  236.08   24.80
   1  -5 -10  261.77   11.10
   1  -5 -10  185.18   24.60
  -1  -5  10  245.28   25.80
   1  -5 -10  215.58   30.40
  -1  -5  10  237.28   26.00
  -1  -5  10  246.88    9.10
  -1  -5  10  233.68   22.80
   1  -5 -10  223.88    8.20
   1   5 -10  261.47   20.00
   1   5 -10  248.28    9.40
   1   5 -10  246.38   27.80
  -1   5  10  259.77   19.50
   1   5 -10  229.78   18.00
  -1   5  10  224.68    9.70
  -1   5  10  240.38   25.90
  -1   5  10  229.78   17.10
   1   5 -10  232.88    8.70
   0  -5  10  253.57   34.40
   0  -5 -10  268.27   28.60
   0  -5 -10  254.67   11.20
   0  -5 -10  247.38   24.40
   0  -5 -10  244.98   25.70
   0  -5  10  271.27   12.10
   0  -5 -10  237.38   24.30
   0  -5  10  260.97   27.10
   0  -5  10  252.57    9.30
   0  -5  10  227.58   22.60
   0   5 -10  245.38   17.60
   0   5  10  260.27   18.80
   0   5 -10  282.07   29.10
   0   5 -10  254.47   21.20
   0   5  10  253.67    9.40
   0   5  10  253.47   25.90
   0   5 -10  251.47    9.10
   0   5 -10  251.57    9.80
   0   5  10  232.68   14.90
  -1  -5 -10   50.29   14.30
   1  -5  10   65.39   17.30
   1  -5  10   58.79    4.20
  -1  -5 -10   53.69   15.60
  -1  -5 -10   67.09   15.70
   1  -5  10   48.70    5.20
   1  -5  10   54.89   13.30
  -1  -5 -10   50.69    5.80
   1  -5  10   64.89   17.70
   1   5  10   57.79   10.00
  -1   5 -10   68.99    4.10
  -1   5 -10   64.69   17.90
   1   5  10   57.09   16.40
   1   5  10   55.99    3.50
  -1   5 -10   63.69   10.20
   1   5  10   61.89    6.60
  -1   5 -10   71.99   18.40
  -2  -5 -10  186.68   10.00
  -2  -5 -10  179.98   27.50
   2  -5  10  173.58   27.40
   2  -5  10  172.18   11.30
   2  -5  10  191.78    7.80
   2  -5  10  186.18   30.70
   2  -5  10  191.18   24.40
  -2  -5 -10  208.28   26.70
  -2   5 -10  188.78    7.90
   2   5  10  207.68   27.80
  -2   5 -10  182.08   18.00
   2   5  10  190.28   16.70
  -2   5 -10  193.58   30.60
  -3  -5 -10   13.50   16.80
  -3  -5 -10   12.20   15.70
  -3  -5 -10    3.50    4.10
   3  -5  10    9.60   20.10
  -3  -5 -10   14.40   14.80
   3  -5  10   11.40   15.10
   3  -5  10   13.40    3.00
   3   5  10   13.10    8.90
  -3   5 -10   13.00   11.60
   3   5  10   12.60   18.20
  -3   5 -10   -0.70   19.40
  -3   5 -10    9.20   15.80
  -4  -5 -10   40.50   17.40
  -4  -5 -10   57.49   19.20
   4  -5  10   38.30    5.30
   4  -5  10   35.60   23.70
   4  -5  10   40.30   17.90
  -4  -5 -10   51.19   22.00
  -4   5 -10   28.00   23.60
  -4   5 -10   45.70   14.60
  -4   5 -10   48.70   19.30
   4   5  10   60.79   20.90
  -4  -6  10  222.08   30.20
   4  -6 -10  238.38   11.80
  -4  -6  10  236.28   27.90
   4  -6 -10  228.78   34.60
  -4  -6  10  226.48   13.10
   4  -6 -10  216.58   29.60
   4  -6 -10  236.38   28.40
  -4  -6  10  244.98   10.60
   4  -6 -10  224.18    9.60
  -4  -6  10  235.48   31.60
   4  -6 -10  250.37   33.50
  -4   6  10  220.98   28.70
  -4   6  10  216.88   34.50
   4   6 -10  166.28   21.50
  -4   6  10  208.58   26.90
   4   6 -10  215.68   19.20
   3  -6 -10   10.80   15.70
  -3  -6  10   13.70   14.60
   3  -6 -10   17.30   15.80
   3  -6 -10   11.40   17.40
   3  -6 -10   14.90    4.50
   3  -6 -10   16.90   16.30
   3  -6 -10   10.30    2.40
  -3  -6  10    8.50   14.60
  -3  -6  10   17.30   17.10
  -3  -6  10    7.00    3.80
   3   6 -10   14.10   10.50
   3   6 -10    3.30    2.90
   3   6 -10   27.00   17.90
  -3   6  10   20.90   19.20
  -3   6  10   19.70   17.40
  -3   6  10   10.90    2.60
  -3   6  10   15.60   13.50
  -2  -6  10  315.47   29.90
  -2  -6  10  295.27   13.90
  -2  -6  10  304.37   28.90
  -2  -6  10  295.27   11.60
   2  -6 -10  289.47   28.00
   2  -6 -10  293.47   29.30
   2  -6 -10  301.97   26.90
   2  -6 -10  299.67   24.80
   2  -6 -10  294.77   10.20
   2  -6 -10  299.67   13.10
  -2  -6  10  292.67   25.50
  -2   6  10  286.37   10.30
   2   6 -10  252.67   11.90
   2   6 -10  318.27   30.80
   2   6 -10  300.77   20.30
  -2   6  10  295.57   22.30
  -2   6  10  272.97   22.00
  -2   6  10  309.57   30.00
  -1  -6  10   94.99    7.40
   1  -6 -10  103.59    6.70
   1  -6 -10   89.09   14.40
   1  -6 -10   74.39   16.20
   1  -6 -10   82.29    4.10
  -1  -6  10  108.09   18.10
  -1  -6  10   93.59    4.70
  -1  -6  10  100.79   14.70
   1  -6 -10  107.49   15.70
   1  -6 -10   92.29   16.00
  -1  -6  10  108.99   17.50
  -1   6  10  102.19    6.30
   1   6 -10   88.69    5.10
  -1   6  10   96.39   11.40
   1   6 -10   82.09    3.90
  -1   6  10  103.39   18.10
  -1   6  10  100.09   11.80
   1   6 -10  101.69   12.50
   1   6 -10   85.69   18.10
   0  -6  10   68.59   14.20
   0  -6  10   71.19    4.20
   0  -6  10   52.89    8.00
   0  -6 -10   65.09   15.40
   0  -6  10   74.39   16.00
   0  -6 -10   46.10   15.20
   0  -6 -10   67.69    6.10
   0  -6  10   63.09   17.70
   0  -6 -10   69.59   19.60
   0  -6 -10   70.59   16.60
   0   6  10   59.89   10.30
   0   6 -10   79.19   10.40
   0   6  10   70.99   16.90
   0   6 -10   65.99    6.60
   0   6  10   65.99   10.00
   0   6 -10   66.89   12.90
   0   6  10   48.70    5.30
   0   6 -10   76.29   18.90
   0   6 -10   60.69    3.90
  -1  -6 -10  206.28   28.60
  -1  -6 -10  174.78   11.20
  -1  -6 -10  220.68   26.10
   1  -6  10  207.98   24.00
   1  -6  10  206.88   25.50
   1  -6  10  214.58   30.40
  -1  -6 -10  221.78   28.00
   1  -6  10  226.48   11.70
   1   6  10  194.68   26.70
  -1   6 -10  228.48   31.00
  -1   6 -10  203.88   17.10
   1   6  10  197.98   12.40
   1   6  10  200.88   15.90
  -1   6 -10  215.68    8.30
   2  -6  10    4.20   14.70
   2  -6  10   12.70    4.40
   2  -6  10    2.40   14.90
  -2  -6 -10    9.70   16.30
   2  -6  10   -0.20    4.30
   2  -6  10   -8.90   20.20
  -2  -6 -10   -3.50    5.00
  -2  -6 -10   -5.70   16.10
  -2   6 -10    0.30   20.10
  -2   6 -10    3.60   10.10
   2   6  10   10.20   17.70
   3  -6  10   99.89   23.30
   3  -6  10   89.09   17.60
  -3  -6 -10   92.69   17.00
  -3  -6 -10   70.89   18.40
  -3  -6 -10   86.59   18.60
  -3   6 -10   84.49   12.10
  -3   6 -10   76.59   22.40
  -3   6 -10   95.19   17.70
   3   6  10   91.49   19.60
  -3  -7  10  223.38   31.90
   3  -7 -10  265.37   30.90
   3  -7 -10  233.78   12.00
  -3  -7  10  219.08   27.90
   3  -7 -10  237.58   33.20
   3  -7 -10  255.47   33.00
  -3  -7  10  227.28   31.70
  -3  -7  10  234.88   10.80
   3  -7 -10  189.48   10.20
   3  -7 -10  245.48   33.30
  -3   7  10  223.48   26.70
  -3   7  10  237.68   24.50
  -3   7  10  200.38   10.10
   3   7 -10  271.87   34.00
  -3   7  10  222.58   35.60
   3   7 -10  224.78   17.70
   2  -7 -10   31.80    4.60
  -2  -7  10   20.40    5.20
  -2  -7  10   46.50    4.20
   2  -7 -10   32.40   16.80
   2  -7 -10   41.20   15.80
   2  -7 -10   37.10   16.70
  -2  -7  10   32.10   17.80
   2  -7 -10   26.50   17.40
  -2  -7  10   39.10   19.40
   2  -7 -10   34.20    4.70
  -2  -7  10   37.00   16.10
  -2   7  10   56.99   19.80
  -2   7  10   28.80   13.50
  -2   7  10   38.00   12.70
   2   7 -10   42.80   11.30
   2   7 -10   40.70   18.80
  -2   7  10   34.30    4.10
   1  -7 -10  135.99    5.50
  -1  -7  10  141.89   16.60
  -1  -7  10  126.29   19.30
   1  -7 -10  148.29   19.70
   1  -7 -10  142.09   19.10
  -1  -7  10  156.28    9.10
  -1  -7  10  127.69   18.60
   1  -7 -10  153.48    8.50
   1  -7 -10  122.69   17.00
   1  -7 -10  131.59   16.40
  -1   7  10  135.69   18.00
  -1   7  10  139.69   19.40
   1   7 -10  157.48   20.00
   1   7 -10  169.48   21.90
  -1   7  10  133.09   19.50
   0  -7 -10  131.59   16.30
   0  -7 -10  104.59   16.90
   0  -7  10  121.39   16.30
   0  -7 -10  123.59   17.90
   0  -7 -10  119.69   19.00
   0  -7 -10  116.89    8.00
   0  -7  10  108.09   19.30
   0  -7  10  126.79   19.20
   0  -7  10   98.09   10.70
   0   7  10  139.29   19.50
   0   7 -10  120.09   13.70
   0   7 -10  163.38   22.60
   0   7 -10   84.69    7.20
   0   7  10  129.09   16.70
   0   7  10  119.79   14.80
  -1  -7 -10    4.70   15.10
   1  -7  10   12.90    6.40
   1  -7  10    0.40   15.80
  -1  -7 -10  -14.60   15.50
  -1  -7 -10    7.60   18.70
  -1  -7 -10   11.20    5.10
  -1  -7 -10   -0.30   18.30
   1  -7  10   16.20   20.30
   1  -7  10    8.20   17.60
   1   7  10    4.30   16.80
  -1   7 -10    0.70    2.50
  -1   7 -10   13.10   15.80
   1   7  10   -1.30    8.20
  -1   7 -10    3.80   19.80
  -2  -7 -10   95.79   17.10
  -2  -7 -10   73.89   19.10
  -2  -7 -10   92.99   18.10
   2  -7  10   79.39   19.10
   2  -7  10   75.79    9.40
  -2  -7 -10   95.79   21.50
   2  -7  10   76.69   23.30
   2  -7  10   70.49   17.40
  -2   7 -10   58.79   21.70
  -2   7 -10   84.89   16.50
  -2   7 -10   80.99   10.30
   2   7  10   79.89   18.90
  -1  -8  10  105.39   22.40
  -1  -8  10  102.69   21.40
   1  -8 -10  101.49   20.00
  -1  -8  10   87.59   18.10
   1  -8 -10   84.49   19.20
   1  -8 -10   78.99   20.50
  -1   8  10   91.69   20.30
  -1   8  10   97.39   11.40
  -1   8  10  115.59   15.50
   1   8 -10   97.49   22.20
   0  -8 -10   25.70   17.90
   0  -8 -10   39.40   21.10
   0  -8  10   24.00   20.50
   0  -8  10   31.50   17.20
   0  -8 -10   14.90   19.20
   0   8  10   28.30   12.50
   0   8 -10   45.20   23.10
   5   0 -11  319.27   20.90
   5   0 -11  342.57   29.20
  -5   0  11  332.47   30.60
  -5   0  11  319.17   29.60
  -5   0  11  338.77   35.80
   5   0 -11  325.57   36.10
  -4   0  11   20.00   17.90
  -4   0  11   20.90   14.30
   4   0 -11   33.00   14.90
   4   0 -11   27.20   14.40
  -4   0  11   26.70   14.20
   4   0 -11   22.00   10.10
   4   0 -11   33.90   19.60
  -3   0  11  223.58   26.80
  -3   0  11  229.28   23.20
  -3   0  11  223.48   22.30
   3   0 -11  244.08   22.00
   3   0 -11  234.78   24.20
   3   0 -11  217.68   18.80
   3   0 -11  221.88    9.30
  -3   0  11  247.08   13.00
   2   0 -11  333.47   35.90
   2   0 -11  370.86   23.30
  -2   0  11  335.47   21.50
  -2   0  11  370.46   23.40
  -2   0  11  351.16   14.60
  -2   0  11  376.86   14.90
   2   0 -11  361.46   15.20
   2   0 -11  354.46   20.70
  -2   0  11  342.17   30.70
   2   0 -11  371.86   29.20
   1   0 -11    2.30   11.30
  -1   0  11   -0.20    9.60
  -1   0  11    0.90   12.40
  -1   0  11   -1.50    3.20
   1   0 -11    0.20   11.90
   1   0 -11   -6.30    3.10
  -1   0  11    2.40   15.60
   1   0 -11    9.60   15.90
   0   0  11  354.16   13.80
   0   0 -11  351.66   24.20
   0   0  11  358.56   12.30
   0   0  11  361.26   28.20
   0   0 -11  354.06   24.00
   0   0 -11  368.06   16.50
   0   0  11  405.46   16.60
   0   0  11  358.96   19.30
   1   0  11   38.40   14.90
  -1   0 -11   56.59   16.50
  -1   0 -11   43.20   12.80
  -1   0 -11   40.70   12.40
   1   0  11   48.50    9.30
  -1   0 -11   47.00    5.60
   1   0  11   49.70    5.00
   1   0  11   46.10   16.30
  -2   0 -11  258.57   11.90
  -2   0 -11  241.58   28.70
  -2   0 -11  220.08   32.10
   2   0  11  248.28   23.00
   2   0  11  256.97   30.00
   2   0  11  249.58    8.30
  -2   0 -11  245.58   23.40
   2   0  11  236.98   16.10
   3   0  11   40.90   13.90
  -3   0 -11   34.20   18.90
  -3   0 -11   29.00    4.80
  -3   0 -11   42.30   15.80
  -3   0 -11   51.09   16.50
   3   0  11   49.00   20.70
   3   0  11   43.60    9.10
   4   0  11   11.40   15.50
   4   0  11   17.50   25.20
  -4   0 -11    8.30   21.10
  -4   0 -11   15.50   18.70
   4   0  11   12.60    9.80
  -4   0 -11   17.20   18.20
  -5  -1  11    0.40   17.00
   5  -1 -11    2.50   12.00
  -5  -1  11   -0.50   15.80
   5  -1 -11    5.10   16.10
   5  -1 -11   -3.90   21.90
  -5  -1  11    1.90   19.70
  -5   1  11    6.50   21.30
  -5   1  11    4.90   15.80
   5   1 -11    5.20   15.40
  -5   1  11    2.80   16.90
   5   1 -11   11.20   20.70
   5   1 -11   -1.60    9.50
   4  -1 -11  376.16   28.00
  -4  -1  11  348.37   27.30
  -4  -1  11  353.06   27.60
  -4  -1  11  321.57   31.40
  -4  -1  11  405.56   17.30
   4  -1 -11  346.87   29.70
   4  -1 -11  364.26   33.40
   4  -1 -11  331.67   21.90
   4   1 -11  340.87   28.40
  -4   1  11  323.87   25.70
  -4   1  11  326.27   33.10
   4   1 -11  327.07   18.70
   4   1 -11  348.07   47.00
   4   1 -11  355.46   26.60
  -4   1  11  297.37   34.00
  -3  -1  11  308.17   23.50
   3  -1 -11  329.27   26.10
  -3  -1  11  326.27   13.40
   3  -1 -11  318.17   21.10
   3  -1 -11  309.87   11.60
   3  -1 -11  239.08   28.70
   3  -1 -11  314.67   23.40
  -3  -1  11  343.47   23.50
  -3  -1  11  313.27   28.50
   3   1 -11  311.97   18.70
  -3   1  11  317.57   23.50
  -3   1  11  285.27   29.20
   3   1 -11  333.97   24.00
   3   1 -11  292.47   28.30
  -3   1  11  318.07   23.70
   3   1 -11  311.57   24.60
   2  -1 -11  194.38   21.20
   2  -1 -11  178.48   10.60
  -2  -1  11  179.38   21.80
  -2  -1  11  173.78   10.70
   2  -1 -11  188.98   22.60
   2  -1 -11  180.28   30.10
  -2  -1  11  163.58   27.00
   2  -1 -11  183.48   19.30
  -2  -1  11  168.28   20.00
  -2  -1  11  188.68    8.60
   2   1 -11  189.68   20.50
   2   1 -11  181.48   27.90
  -2   1  11  175.88   18.80
  -2   1  11  186.78   25.70
   2   1 -11  187.98   21.50
  -2   1  11  190.58   21.60
   2   1 -11  166.08   17.20
  -1  -1  11  283.97   12.80
  -1  -1  11  318.17   29.50
   1  -1 -11  314.67   22.60
  -1  -1  11  297.47   22.70
   1  -1 -11  303.37   13.30
  -1  -1  11  308.27   13.80
   1  -1 -11  269.37   44.30
  -1  -1  11  296.07   20.20
   1   1 -11  322.17   28.30
   1   1 -11  305.77   22.10
  -1   1  11  303.87   18.50
   1   1 -11  289.17   22.10
  -1   1  11  339.37   15.50
   1   1 -11  313.27   13.40
  -1   1  11  301.17   26.60
   0  -1  11   10.70    3.60
   0  -1  11   16.10   15.20
   0  -1  11   17.40    9.60
   0  -1 -11    8.50    3.40
   0  -1  11   18.90   11.70
   0  -1  11    9.40    2.70
   0  -1 -11   17.30   16.00
   0  -1 -11   17.60   11.90
   0  -1 -11   16.70   19.30
   0   1  11   16.00   15.60
   0   1  11   13.70    8.50
   0   1  11   10.40    3.50
   0   1  11   12.80   11.80
   0   1 -11   18.80   12.20
   0   1 -11   13.70   11.50
   0   1 -11   19.90   15.90
   0   1 -11   14.60    3.70
   1  -1  11  319.67   10.20
  -1  -1 -11  303.27   13.20
  -1  -1 -11  313.57   28.90
   1  -1  11  298.67   18.50
  -1  -1 -11  300.57   22.80
   1  -1  11  276.97   11.40
   1  -1  11  298.37   23.20
  -1  -1 -11  250.57   31.80
   1  -1  11  316.37   28.90
   1   1  11  295.87    9.80
  -1   1 -11  276.87   32.20
  -1   1 -11  293.07   14.60
  -1   1 -11  307.97   24.20
   1   1  11  305.67   21.00
   1   1  11  310.67   28.00
   1   1  11  276.67   15.90
  -1   1 -11  287.47   22.70
  -2  -1 -11   75.79   17.80
  -2  -1 -11   65.69   14.20
   2  -1  11   63.99   20.10
   2  -1  11   74.69   14.00
  -2  -1 -11   58.89    6.80
  -2  -1 -11   57.59   14.10
   2  -1  11   76.09   10.50
   2  -1  11   51.99    5.40
  -2   1 -11   64.09    7.10
   2   1  11   74.19    8.20
  -2   1 -11   92.49   14.90
   2   1  11   62.89    2.70
  -2   1 -11   66.89   13.30
   2   1  11   63.99   17.10
  -2   1 -11   72.09   18.00
  -3  -1 -11   31.50    4.90
  -3  -1 -11   36.90   15.30
   3  -1  11   31.00   14.70
   3  -1  11   38.00   10.80
  -3  -1 -11   44.80   17.00
  -3  -1 -11   28.00   18.30
   3  -1  11   41.70   20.00
  -3   1 -11   40.80   15.70
   3   1  11   37.30   19.00
  -3   1 -11   27.40   18.70
  -3   1 -11   22.30   14.90
   3   1  11   36.10    7.50
   3   1  11   24.40   13.30
   4  -1  11   86.79   12.60
  -4  -1 -11   62.59   11.10
   4  -1  11   84.19   17.00
  -4  -1 -11   76.69   18.70
   4  -1  11   82.69   24.20
  -4  -1 -11   74.19   18.90
  -4  -1 -11   89.09   21.70
  -4   1 -11   95.09   18.40
   4   1  11   76.19   15.90
  -4   1 -11   84.29   18.70
   4   1  11   79.09   21.90
  -4   1 -11   71.39   22.20
  -5  -2  11  282.57   35.60
   5  -2 -11  283.67   37.80
  -5  -2  11  298.67   30.30
   5  -2 -11  298.67   24.40
   5  -2 -11  298.47   32.60
  -5  -2  11  297.47   31.20
   5  -2 -11  288.97   29.10
  -5   2  11  289.07   29.40
   5   2 -11  311.57   27.40
  -5   2  11  289.77   31.70
  -5   2  11  303.87   37.40
   5   2 -11  274.37   15.40
  -4  -2  11   52.89   17.40
   4  -2 -11   68.89   15.90
   4  -2 -11   66.49   17.20
   4  -2 -11   66.69   12.70
  -4  -2  11   57.39   15.90
  -4  -2  11   64.19    7.60
  -4  -2  11   59.89   15.20
   4  -2 -11   58.79   18.80
  -4   2  11   58.79   14.90
   4   2 -11   39.00   19.60
   4   2 -11   67.69    8.50
   4   2 -11   64.09   14.30
  -4   2  11   54.69   19.70
   3  -2 -11  260.37   26.60
  -3  -2  11  274.67   12.30
   3  -2 -11  234.08   28.80
  -3  -2  11  290.57   13.30
  -3  -2  11  250.57   23.40
   3  -2 -11  245.38   21.40
  -3  -2  11  268.07   28.70
  -3  -2  11  250.07   27.40
   3  -2 -11  278.07   23.70
   3  -2 -11  232.98    9.90
  -3   2  11  270.07   23.80
   3   2 -11  250.77   16.20
  -3   2  11  270.07   22.80
   3   2 -11  261.87   29.70
   3   2 -11  279.07   23.40
  -2  -2  11  472.45   26.60
   2  -2 -11  457.85   24.70
   2  -2 -11  477.95   15.60
  -2  -2  11  481.15   18.00
   2  -2 -11  431.96   29.40
   2  -2 -11  450.65   28.20
  -2  -2  11  474.25   25.50
  -2  -2  11  459.85   16.40
   2  -2 -11  467.35   17.60
   2  -2 -11  473.65   27.10
  -2  -2  11  458.85   31.30
   2   2 -11  457.75   21.30
  -2   2  11  458.65   23.20
  -2   2  11  446.86   30.40
  -2   2  11  466.35   24.70
   2   2 -11  451.25   27.00
   2   2 -11  489.95   32.40
   2   2 -11  464.65   25.80
  -1  -2  11    3.20   10.90
   1  -2 -11   10.10   15.50
  -1  -2  11   -0.30   11.90
  -1  -2  11    0.60    2.50
  -1  -2  11    3.00   15.70
   1  -2 -11    4.00   12.40
   1  -2 -11   -2.70   13.50
   1  -2 -11   -0.20   11.80
   1  -2 -11   -6.60    3.20
  -1  -2  11   -2.20    3.20
   1   2 -11    1.70   10.90
   1   2 -11   -0.70   12.40
   1   2 -11    6.60   16.40
  -1   2  11    0.40    9.30
  -1   2  11    1.90   12.90
  -1   2  11    1.70   15.30
   0  -2  11  252.87   13.60
   0  -2 -11  280.07   13.00
   0  -2 -11  288.37   28.00
   0  -2  11  256.27   33.80
   0  -2  11  300.97   10.30
   0  -2 -11  282.07   25.00
   0  -2  11  271.97   20.00
   0  -2 -11  283.37   23.80
   0  -2  11  261.27   10.90
   0  -2  11  262.17   21.80
   0   2  11  312.37   28.50
   0   2 -11  285.37   22.00
   0   2 -11  300.17   28.40
   0   2  11  273.57   16.30
   0   2  11  287.37   21.60
   0   2 -11  286.17   22.20
   0   2 -11  317.77   10.50
   1  -2  11  179.68   21.40
   1  -2  11  186.48    8.10
  -1  -2 -11  176.28   23.20
  -1  -2 -11  188.08   27.10
  -1  -2 -11  172.58   24.50
   1  -2  11  184.38   19.40
   1  -2  11  189.48    7.00
   1  -2  11  173.58   22.20
  -1  -2 -11  159.58    9.50
  -1   2 -11  171.98    7.70
  -1   2 -11  160.28   20.70
  -1   2 -11  185.68   21.80
   1   2  11  173.68   12.60
   1   2  11  186.28    6.30
   1   2  11  179.68   20.60
   1   2  11  171.58   26.30
   1   2  11  183.88    7.60
  -2  -2 -11   71.19   17.50
   2  -2  11   68.79   18.40
  -2  -2 -11   90.39   17.10
  -2  -2 -11   79.59   14.70
   2  -2  11   74.59   11.80
   2  -2  11   76.99    4.00
   2  -2  11   90.29   14.70
   2   2  11   78.99   13.40
  -2   2 -11   66.99   18.10
   2   2  11   70.59    4.90
  -2   2 -11   76.99   15.00
  -2   2 -11   86.79   13.70
   2   2  11   87.99   19.10
   3  -2  11  122.29   22.60
  -3  -2 -11  122.19   16.70
  -3  -2 -11   87.19    8.00
  -3  -2 -11   96.69   16.60
  -3  -2 -11  106.39   19.80
   3  -2  11   99.29   13.00
   3  -2  11   63.49    4.40
   3  -2  11  101.69   16.20
  -3   2 -11  111.89   16.80
  -3   2 -11  101.79   19.10
  -3   2 -11  113.99   22.00
   3   2  11  102.49   14.30
   3   2  11   57.29    5.00
   3   2  11  129.99   21.70
  -4  -2 -11    1.40   20.20
   4  -2  11    8.30   16.50
  -4  -2 -11   -8.50    5.00
   4  -2  11    7.40   23.70
  -4  -2 -11   -6.10   18.10
   4  -2  11    6.20   13.00
  -4  -2 -11    7.30   20.60
   4   2  11    5.30   22.20
  -4   2 -11   -5.40   23.30
  -4   2 -11    3.60   18.20
  -4   2 -11   16.90   17.90
   5  -3 -11   -8.00   22.20
   5  -3 -11   -2.30   17.60
  -5  -3  11    2.80   18.20
  -5  -3  11    2.80   17.60
   5  -3 -11    5.10   15.10
   5  -3 -11   -3.30   18.00
  -5  -3  11   -2.20   20.30
  -5   3  11    0.50   17.60
   5   3 -11   11.70   22.60
  -5   3  11   -2.00   17.50
   5   3 -11   -1.30   14.70
  -5   3  11    7.00   21.90
   4  -3 -11  194.48   33.20
   4  -3 -11  213.48   31.10
  -4  -3  11  229.68   11.10
  -4  -3  11  206.68   25.80
  -4  -3  11  205.48   30.00
   4  -3 -11  211.78   10.10
   4  -3 -11  200.08   27.70
  -4  -3  11  216.48   27.70
   4  -3 -11  222.78   26.60
  -4   3  11  157.98   26.10
  -4   3  11  214.18   27.10
   4   3 -11  187.78   24.60
   4   3 -11  169.98   22.20
  -4   3  11  224.88   33.30
   3  -3 -11  261.27   30.20
   3  -3 -11  256.87   12.00
  -3  -3  11  258.17   25.00
   3  -3 -11  264.07   22.90
  -3  -3  11  243.98   25.10
  -3  -3  11  226.98   10.30
   3  -3 -11  259.67   24.60
   3  -3 -11  250.67   27.40
  -3  -3  11  265.17   28.70
  -3  -3  11  265.87   12.00
   3  -3 -11  236.48    9.70
   3   3 -11  228.38   28.50
   3   3 -11  241.68   14.70
   3   3 -11  270.27   30.40
  -3   3  11  240.68   28.80
   3   3 -11  245.78   24.20
  -3   3  11  227.38   23.20
  -3   3  11  254.87   24.50
   2  -3 -11   72.79   16.90
   2  -3 -11  106.99    7.70
   2  -3 -11   93.59   14.40
   2  -3 -11  108.09   13.50
   2  -3 -11   84.49   14.20
   2  -3 -11  108.89    5.10
  -2  -3  11   98.89   14.10
  -2  -3  11   88.99   17.40
  -2  -3  11  117.29    7.90
  -2  -3  11  112.79    6.30
  -2   3  11  118.09   19.00
  -2   3  11  102.79   12.50
   2   3 -11  115.99   13.60
   2   3 -11   99.89    5.80
  -2   3  11  114.19   14.30
   2   3 -11  134.89   19.80
  -1  -3  11  425.36   15.10
  -1  -3  11  436.36   17.00
  -1  -3  11  434.66   24.60
  -1  -3  11  431.16   26.40
   1  -3 -11  452.25   25.90
   1  -3 -11  440.36   30.10
   1  -3 -11  419.46   28.10
   1  -3 -11  451.05   16.90
  -1  -3  11  426.06   31.00
   1  -3 -11  445.06   29.30
  -1  -3  11  422.86   14.80
   1   3 -11  380.76   29.90
  -1   3  11  417.66   30.20
   1   3 -11  455.55   32.20
  -1   3  11  408.46   20.70
   1   3 -11  430.66   23.80
  -1   3  11  432.16   24.60
   1   3 -11  425.86   14.30
   0  -3  11   -0.10    3.40
   0  -3  11   10.10   17.40
   0  -3 -11   10.70   13.60
   0  -3 -11   -1.00    4.70
   0  -3  11   14.50   13.10
   0  -3 -11   18.90   15.60
   0  -3 -11    3.20   12.70
   0  -3  11    6.00   11.60
   0  -3  11    1.60    2.30
   0  -3  11   14.70    2.60
   0   3  11    5.90    2.20
   0   3  11   12.40   11.70
   0   3 -11   18.80   17.90
   0   3  11   13.10   16.30
   0   3 -11   10.50   11.10
   0   3 -11    7.60   12.60
   0   3  11    7.80    7.70
  -1  -3 -11  218.48   25.60
   1  -3  11  247.18    9.00
   1  -3  11  230.78    9.60
   1  -3  11  232.38   24.40
   1  -3  11  254.27   13.30
  -1  -3 -11  240.78   11.40
  -1  -3 -11  260.47   23.30
   1  -3  11  238.18   21.50
   1  -3  11  231.18   29.80
  -1  -3 -11  269.97   28.40
  -1   3 -11  252.47   23.20
   1   3  11  267.47   29.50
   1   3  11  255.87   21.40
   1   3  11  215.68    7.60
   1   3  11  244.68   10.00
   1   3  11  230.38   12.90
  -1   3 -11  231.88   21.10
  -1   3 -11  210.48   10.30
  -2  -3 -11   83.39   17.30
  -2  -3 -11   51.19    7.50
   2  -3  11   80.49    4.30
  -2  -3 -11   80.09   18.00
   2  -3  11   76.99   13.20
   2  -3  11   90.19   20.60
   2  -3  11   69.79   14.70
   2   3  11   71.99   18.50
   2   3  11   81.99   13.00
  -2   3 -11   83.49   19.80
   2   3  11   64.19    5.10
  -2   3 -11   75.59   13.10
  -3  -3 -11   19.90   15.80
   3  -3  11    8.90   15.70
   3  -3  11   13.50    2.30
  -3  -3 -11   16.70   16.50
  -3  -3 -11   30.20   18.90
  -3  -3 -11    8.50    7.90
   3  -3  11    5.50   20.40
   3  -3  11   21.00   13.30
  -3   3 -11   16.60   16.50
   3   3  11    6.10    2.90
  -3   3 -11    5.90   20.10
  -3   3 -11   16.20   14.30
   3   3  11   13.40   13.30
   3   3  11   19.20   19.30
   4  -4 -11   47.70    6.00
   4  -4 -11   53.79   15.40
   4  -4 -11   49.50   22.70
  -4  -4  11   40.40   16.40
  -4  -4  11   49.30    8.10
  -4  -4  11   42.30   19.30
   4  -4 -11   49.70   17.70
   4  -4 -11   44.50   17.50
  -4  -4  11   44.50   16.60
  -4   4  11   56.99   16.30
  -4   4  11   66.09   22.70
   4   4 -11   49.10   21.90
   4   4 -11   20.90   20.50
  -3  -4  11  191.68   25.60
   3  -4 -11  176.18    7.80
  -3  -4  11  167.88    8.30
   3  -4 -11  200.48   30.20
   3  -4 -11  163.48   10.00
   3  -4 -11  178.98   24.70
  -3  -4  11  187.88   29.10
  -3  -4  11  187.28   11.70
   3  -4 -11  181.08   25.30
   3  -4 -11  195.08   29.50
  -3  -4  11  181.88   26.80
  -3   4  11  184.78   22.90
   3   4 -11  216.08   31.60
  -3   4  11  188.18   24.70
  -3   4  11  158.28   23.50
   3   4 -11  197.88   23.10
   2  -4 -11  251.77   12.10
   2  -4 -11  259.87    9.60
  -2  -4  11  251.27   25.80
   2  -4 -11  225.28   29.00
  -2  -4  11  267.87   10.40
   2  -4 -11  263.17   24.70
   2  -4 -11  254.57   24.40
  -2  -4  11  252.27   24.90
   2  -4 -11  268.47   27.00
  -2  -4  11  259.57   29.60
  -2  -4  11  255.67   12.80
   2   4 -11  300.07   32.20
   2   4 -11  264.17   26.20
  -2   4  11  244.58   21.10
  -2   4  11  249.48   29.40
   2   4 -11  259.27   22.60
   1  -4 -11    0.80   16.50
  -1  -4  11   14.10   13.40
   1  -4 -11   15.30   13.50
  -1  -4  11   25.20    3.70
   1  -4 -11   17.20   13.80
   1  -4 -11    7.70   14.90
  -1  -4  11   18.60   17.70
  -1  -4  11    5.20    3.90
  -1  -4  11    7.80   15.70
   1  -4 -11   13.30    4.10
  -1   4  11   12.80    2.30
   1   4 -11   20.60   11.60
  -1   4  11   14.70   12.60
   1   4 -11   18.50   18.10
  -1   4  11   15.30   17.10
  -1   4  11   11.40    9.40
   1   4 -11    1.60    3.70
   0  -4  11  229.18    9.80
   0  -4  11  240.38   27.40
   0  -4 -11  244.88   28.30
   0  -4 -11  221.68   25.50
   0  -4 -11  238.88   24.80
   0  -4  11  225.08   23.80
   0  -4  11  250.87   29.70
   0  -4  11  203.88   11.00
   0  -4 -11  242.48   27.90
   0  -4 -11  218.58   10.90
   0   4  11  229.78   15.80
   0   4  11  226.68    9.60
   0   4 -11  228.18   22.10
   0   4  11  223.08   21.20
   0   4 -11  225.38    8.90
   0   4  11  227.58   28.50
   0   4 -11  222.88   20.00
   0   4 -11  242.08   31.30
  -1  -4 -11   66.69   17.20
  -1  -4 -11   69.39   14.70
  -1  -4 -11   66.59    6.70
   1  -4  11   49.20    8.30
   1  -4  11   61.89   14.20
   1  -4  11   58.69   18.70
  -1  -4 -11   63.59   17.50
   1  -4  11   70.19    4.70
   1  -4  11   60.89    5.90
   1  -4  11   65.09   14.70
   1   4  11   68.99    4.30
   1   4  11   62.19    6.90
  -1   4 -11   63.99   12.30
  -1   4 -11   57.69   22.40
  -1   4 -11   47.20    4.70
   1   4  11   75.69   19.30
   1   4  11   62.19   12.60
  -1   4 -11   56.19   14.40
   2  -4  11   46.00   15.50
   2  -4  11   72.89    4.50
  -2  -4 -11   64.59   18.60
  -2  -4 -11   57.19   18.80
   2  -4  11   65.39   21.40
   2  -4  11   58.79   15.30
  -2   4 -11   54.79   20.00
   2   4  11   55.09    4.10
   2   4  11   73.39   19.90
  -2   4 -11   65.19   13.10
   2   4  11   59.19   12.70
  -3  -4 -11   65.59   20.40
   3  -4  11   62.09   22.70
   3  -4  11   51.29    4.50
  -3  -4 -11   62.99    8.20
  -3  -4 -11   73.49   16.80
   3  -4  11   50.89   17.20
   3  -4  11   51.49   27.00
  -3  -4 -11   85.29   20.70
  -3   4 -11   49.70   22.80
  -3   4 -11   67.09   14.80
   3   4  11   81.79   21.60
  -3   4 -11   73.79   18.40
   3   4  11   64.59   13.30
   4  -5 -11  113.29   23.60
  -4  -5  11   97.09   19.40
   4  -5 -11  123.99   18.10
   4  -5 -11  113.69   20.00
  -4  -5  11   89.59   19.80
   4  -5 -11  124.59   20.90
   4   5 -11   84.69   23.00
  -4   5  11  100.59   32.30
  -4   5  11  108.49   23.00
   4   5 -11   98.49    6.20
   4   5 -11  110.89   15.20
  -3  -5  11  130.19    7.70
   3  -5 -11  151.38   18.40
   3  -5 -11  116.09    9.20
  -3  -5  11  135.79   23.30
   3  -5 -11  141.49    6.70
  -3  -5  11  159.88    9.60
  -3  -5  11  148.89   18.50
  -3  -5  11  166.68   21.80
   3  -5 -11  132.39   18.20
   3  -5 -11  138.19   21.30
   3  -5 -11  152.58   21.40
  -3   5  11  139.09   16.40
  -3   5  11  140.69   16.60
  -3   5  11  152.08   16.30
   3   5 -11  149.29   22.10
   3   5 -11  128.39    6.90
  -3   5  11  141.39   22.30
   3   5 -11  161.78   22.80
  -2  -5  11   11.80    4.40
   2  -5 -11   20.80    2.50
   2  -5 -11   23.70   16.00
   2  -5 -11   21.30   14.60
  -2  -5  11   28.00   19.20
  -2  -5  11   25.70   15.60
   2  -5 -11   28.40   17.90
   2  -5 -11   23.50   15.30
   2  -5 -11   19.90    4.10
  -2  -5  11   20.10   14.90
   2   5 -11   28.70   13.50
  -2   5  11   23.10   18.90
  -2   5  11   36.90   12.10
  -2   5  11   20.20   15.00
  -2   5  11   22.10   12.60
   2   5 -11   27.30   18.90
   2   5 -11   26.00    2.90
  -1  -5  11  259.37   12.50
  -1  -5  11  257.97   12.00
  -1  -5  11  277.77   27.40
   1  -5 -11  272.87   30.70
   1  -5 -11  293.47   27.10
  -1  -5  11  266.27   30.50
   1  -5 -11  265.07   12.20
   1  -5 -11  187.48   28.80
   1  -5 -11  268.67   27.30
  -1  -5  11  262.87   27.20
  -1   5  11  274.07   11.10
  -1   5  11  269.77   22.80
   1   5 -11  277.67   39.80
   1   5 -11  310.97   33.60
  -1   5  11  241.08   30.80
  -1   5  11  246.98   19.80
   1   5 -11  260.37   21.90
   0  -5  11   -1.30    4.10
   0  -5  11    8.80   18.60
   0  -5  11    3.90    3.00
   0  -5 -11    3.80    4.10
   0  -5 -11   -1.90   16.10
   0  -5  11    1.20   15.70
   0  -5  11   13.00   14.90
   0  -5 -11    5.40   17.10
   0  -5 -11   -1.40   15.60
   0  -5 -11   10.40   14.60
   0   5 -11    8.90   18.90
   0   5 -11   17.40   13.70
   0   5 -11    7.30   11.50
   0   5  11    2.40    9.00
   0   5 -11    8.10    2.00
   0   5  11    3.40   11.90
   0   5  11   10.60   17.20
   0   5  11    3.90    2.10
  -1  -5 -11  120.09   18.60
  -1  -5 -11  117.39    8.40
  -1  -5 -11  132.69   19.70
   1  -5  11  139.29   22.50
   1  -5  11  104.99    9.20
   1  -5  11  127.79   16.80
  -1  -5 -11  140.49   16.40
   1  -5  11  112.29   16.50
  -1   5 -11  123.59   16.10
   1   5  11  133.99   11.00
  -1   5 -11  139.09    7.70
   1   5  11  139.09   19.80
  -1   5 -11  129.99   19.30
   1   5  11  130.99   20.40
   1   5  11  134.39    5.60
  -1   5 -11  142.49   24.70
   2  -5  11   51.49   16.50
  -2  -5 -11   44.30   17.90
  -2  -5 -11   50.69    6.00
  -2  -5 -11   64.09   19.20
   2  -5  11   55.69   17.10
   2  -5  11   59.39   21.70
   2   5  11   59.49   12.10
   2   5  11   62.09   20.40
  -2   5 -11   52.19   13.20
  -2   5 -11   41.90   21.80
   3  -6 -11   61.19   19.60
  -3  -6  11   85.19   12.70
   3  -6 -11   78.99   22.10
   3  -6 -11   54.09   21.60
  -3  -6  11   58.99   21.50
  -3  -6  11   45.30   17.90
  -3  -6  11   52.79    6.10
   3  -6 -11   52.59    8.40
   3  -6 -11   54.59    5.10
  -3  -6  11   64.49   18.00
  -3   6  11   64.79   22.40
   3   6 -11   76.89   22.90
  -3   6  11   62.99   16.80
  -2  -6  11  137.09   22.30
   2  -6 -11  119.99   19.30
  -2  -6  11  102.99   18.70
  -2  -6  11   94.49    8.90
   2  -6 -11  107.89    5.60
   2  -6 -11  110.89   21.30
   2  -6 -11  122.39   20.70
   2  -6 -11  127.49   19.50
  -2  -6  11  119.39    6.20
  -2  -6  11  101.49   17.70
   2   6 -11   84.19    6.10
  -2   6  11  104.09   15.20
   2   6 -11  125.89   14.50
   2   6 -11  118.79   22.60
  -2   6  11  114.39   15.60
  -2   6  11   78.99    7.50
  -2   6  11  132.39   23.70
  -1  -6  11   -0.30   18.10
   1  -6 -11    0.70   16.10
  -1  -6  11   -6.80   16.20
  -1  -6  11    6.10    2.70
   1  -6 -11    3.60    4.20
   1  -6 -11   -8.60   19.40
  -1  -6  11   -1.50   19.50
   1  -6 -11    4.70   19.00
   1  -6 -11   -4.20   16.20
   1  -6 -11    0.00    2.40
  -1   6  11   -2.00   18.80
  -1   6  11   -0.20   11.70
  -1   6  11    3.10   13.00
   1   6 -11    9.30   20.00
   1   6 -11    0.20   13.80
   1   6 -11    0.70    3.30
   0  -6  11  138.49   17.60
   0  -6  11  137.29    7.70
   0  -6  11  107.79   13.20
   0  -6 -11  167.38   19.50
   0  -6  11  179.28   22.90
   0  -6  11  162.58   19.50
   0  -6 -11  151.58    9.20
   0  -6 -11  113.89   19.50
   0  -6 -11  137.89   21.00
   0  -6 -11  163.98   18.00
   0   6 -11  175.08   24.70
   0   6 -11  153.88   22.50
   0   6 -11  130.29    7.10
   0   6  11  150.28   20.70
   0   6 -11  142.69   19.70
   0   6  11  146.79   20.90
   0   6  11  152.88   16.80
  -1  -6 -11   23.20   16.10
   1  -6  11   13.30   18.00
   1  -6  11    9.20    6.30
   1  -6  11   20.80   17.00
  -1  -6 -11   15.60   20.00
  -1  -6 -11   24.50   18.10
  -1  -6 -11   10.70   19.40
   1  -6  11   21.00   21.80
   1   6  11   18.30   19.50
  -1   6 -11   23.90   32.20
  -1   6 -11   15.00    3.40
  -1   6 -11   21.80   11.70
  -1   6 -11   19.90   15.80
   1   6  11   19.20   11.30
   4   0 -12   71.19   22.70
   4   0 -12   82.09   18.40
  -4   0  12   55.49   17.10
   4   0 -12   64.69   12.70
  -4   0  12   55.69   17.00
  -4   0  12   55.39   21.00
   4   0 -12   43.30   17.60
  -3   0  12  227.68   32.10
  -3   0  12  177.38   28.60
   3   0 -12  167.58   21.70
   3   0 -12  209.08   21.40
  -3   0  12  224.88   26.20
   3   0 -12  217.28   28.70
   3   0 -12  230.88   25.80
   2   0 -12   32.40   20.00
   2   0 -12   27.00   15.00
  -2   0  12   26.70   14.70
   2   0 -12   28.40   11.70
  -2   0  12   13.40   12.80
   2   0 -12   18.90   14.70
  -2   0  12   31.20   19.60
  -1   0  12  310.07   32.20
  -1   0  12  307.77   24.70
   1   0 -12  309.27   26.60
  -1   0  12  314.97   21.90
   1   0 -12  313.17   27.40
   1   0 -12  330.67   33.00
   0   0  12  308.27   10.50
   0   0  12  284.47   25.60
   0   0  12  264.87   20.40
   0   0 -12  284.57   27.00
   0   0 -12  293.77   33.40
   0   0  12  280.17   32.20
   0   0 -12  269.87   27.00
   1   0  12    3.70   13.50
  -1   0 -12    7.10   15.20
   1   0  12    1.00   10.10
  -1   0 -12    3.80   20.80
  -1   0 -12   -2.80   14.10
   1   0  12    5.10   20.10
   2   0  12  235.78   26.50
  -2   0 -12  286.17   35.70
  -2   0 -12  242.48   29.10
   2   0  12  259.97   35.20
   2   0  12  239.88   18.30
  -3   0 -12   25.60   23.20
   3   0  12   34.70   10.70
  -3   0 -12   37.30   18.30
   3   0  12   31.80   16.70
   3   0  12   28.30   22.90
  -3   0 -12   26.50   18.70
   4  -1 -12  142.49   14.80
  -4  -1  12  125.99   18.10
   4  -1 -12  123.49   19.20
  -4  -1  12  156.28   18.90
   4  -1 -12  170.08   19.70
   4  -1 -12  142.59   23.90
  -4  -1  12  138.09   23.80
   4   1 -12  158.18   25.70
  -4   1  12  139.99   18.20
   4   1 -12  175.88   18.80
  -4   1  12  148.79   19.00
  -4   1  12  119.99   23.20
   4   1 -12  146.29   18.70
   4   1 -12  147.39   19.90
  -3  -1  12    3.90   15.20
  -3  -1  12    7.70   15.70
   3  -1 -12    4.70   15.60
  -3  -1  12   -0.30   19.90
   3  -1 -12    5.40   12.80
   3  -1 -12    7.40   15.40
   3  -1 -12  -33.80   19.80
   3   1 -12  -11.30   20.20
   3   1 -12    5.50   15.50
   3   1 -12    4.10   16.20
  -3   1  12    5.90   20.50
  -3   1  12    6.60   15.30
  -3   1  12    4.30   14.60
   3   1 -12    4.90   11.10
  -2  -1  12  426.56   26.40
  -2  -1  12  439.26   34.80
   2  -1 -12  430.96   26.10
  -2  -1  12  399.16   27.50
   2  -1 -12  433.26   30.40
   2  -1 -12  452.65   29.70
   2  -1 -12  427.06   34.00
   2   1 -12  427.56   28.90
   2   1 -12  451.85   28.00
  -2   1  12  427.66   25.00
   2   1 -12  410.26   23.70
  -2   1  12  417.96   33.80
   2   1 -12  448.86   36.40
  -2   1  12  441.46   28.50
   1  -1 -12   71.19   14.90
  -1  -1  12   90.49   21.10
  -1  -1  12   81.79   13.10
  -1  -1  12   74.29   14.60
   1  -1 -12   82.39   19.60
   1  -1 -12   75.89   16.70
  -1   1  12   86.29   11.80
  -1   1  12   77.89   23.70
   1   1 -12   90.29   21.00
  -1   1  12   81.49   14.60
   1   1 -12   63.59   14.10
   1   1 -12   70.09   14.90
   0  -1 -12  142.19   17.50
   0  -1  12  159.08   23.20
   0  -1 -12  157.58   16.90
   0  -1 -12  170.68   30.30
   0  -1 -12  156.78   10.50
   0  -1  12  154.08    8.90
   0  -1  12  134.99   20.00
   0  -1  12  168.88   20.00
   0   1 -12  156.28   24.00
   0   1  12  138.19   15.70
   0   1 -12  143.59   15.90
   0   1  12  178.48   30.10
   0   1 -12  145.69   21.10
   0   1  12  137.89   17.10
  -1  -1 -12   85.69    8.70
  -1  -1 -12   98.09   16.10
  -1  -1 -12  112.69   17.30
   1  -1  12  102.39    4.60
   1  -1  12   90.39   15.70
   1  -1  12   93.39   12.30
  -1  -1 -12  102.69   20.30
   1  -1  12   82.09   20.50
   1   1  12   91.69   20.90
  -1   1 -12   95.89   16.60
   1   1  12   96.79   10.20
  -1   1 -12   96.29   21.70
  -1   1 -12   81.99   15.20
   1   1  12   97.89   15.30
  -2  -1 -12   10.90   20.60
  -2  -1 -12    8.60   17.40
   2  -1  12    0.60   15.30
  -2  -1 -12   -0.20    5.60
   2  -1  12   10.00   20.60
   2  -1  12    9.70   11.70
  -2   1 -12    3.40   15.50
   2   1  12   10.10   27.30
  -2   1 -12    7.60   21.20
   2   1  12    8.10   14.50
   2   1  12    5.60    8.60
  -3  -1 -12   66.59   23.90
   3  -1  12   68.99   17.70
  -3  -1 -12   63.89   19.80
   3  -1  12   65.09   13.10
   3  -1  12   79.29   24.30
  -3  -1 -12   79.29   18.80
  -3   1 -12   72.09   19.20
   3   1  12   67.99   27.50
  -3   1 -12   58.49   18.30
  -3   1 -12   60.99   24.70
   3   1  12   68.09   16.30
  -4  -2  12   62.09   18.10
   4  -2 -12   60.29   15.30
  -4  -2  12   74.59   18.20
  -4  -2  12   52.39   20.70
   4  -2 -12   53.49   23.50
   4  -2 -12   71.99   20.70
   4  -2 -12   77.09   19.10
  -4   2  12   57.79   17.80
  -4   2  12   59.89   18.00
   4   2 -12   63.99   10.30
   4   2 -12   26.50   23.20
   4   2 -12   71.79   17.90
  -4   2  12   63.49   25.00
  -3  -2  12  181.18   22.50
   3  -2 -12  148.79   22.30
   3  -2 -12  161.18   24.00
  -3  -2  12  186.48   18.30
   3  -2 -12  155.18    7.50
   3  -2 -12  177.08   18.50
  -3  -2  12  178.38   17.90
   3  -2 -12  197.68   20.50
   3   2 -12  173.98   18.00
  -3   2  12  188.08   25.20
   3   2 -12  187.58   26.90
   3   2 -12  185.08   27.70
   3   2 -12  152.88   22.00
  -3   2  12  153.28   22.00
  -3   2  12  155.48   18.00
   2  -2 -12    3.50   16.60
   2  -2 -12   15.10   15.20
  -2  -2  12   11.80   20.30
   2  -2 -12    1.70   15.20
   2  -2 -12  -11.00   19.10
  -2  -2  12    5.80   14.60
  -2  -2  12    8.60   15.50
  -2   2  12    4.40   19.70
  -2   2  12    4.30   14.70
  -2   2  12    4.80   12.30
   2   2 -12    6.40   14.40
   2   2 -12   19.90   20.10
   2   2 -12    8.80   14.80
   2   2 -12    8.30   11.00
  -1  -2  12  217.08   23.00
   1  -2 -12  215.98   28.60
  -1  -2  12  221.78   32.10
  -1  -2  12  200.48   24.20
   1  -2 -12  230.18   27.10
   1  -2 -12  209.08   13.60
   1  -2 -12  245.98   31.40
   1  -2 -12  180.98   26.30
  -1   2  12  241.68   34.70
  -1   2  12  210.48   19.30
   1   2 -12  231.88   26.30
   1   2 -12  238.58   32.40
  -1   2  12  230.58   25.00
   0  -2  12  130.19   16.00
   0  -2 -12  172.28   30.10
   0  -2  12  153.58    8.80
   0  -2 -12  109.69   11.90
   0  -2 -12  124.59   16.20
   0  -2  12  151.38    6.40
   0  -2  12  142.09   20.90
   0  -2  12  158.28   14.40
   0  -2 -12  132.09   17.20
   0   2  12  136.39   20.40
   0   2 -12  117.59    6.50
   0   2  12  137.69   16.20
   0   2 -12  144.89   19.50
   0   2  12  163.48   23.70
   0   2 -12  156.58   23.00
   0   2 -12  144.09   16.80
   1  -2  12   26.10   13.20
  -1  -2 -12   19.50   16.80
   1  -2  12   34.80   21.00
   1  -2  12   36.70    5.30
  -1  -2 -12   32.50   16.20
  -1  -2 -12   31.70   19.30
   1  -2  12   24.60   15.40
  -1  -2 -12   28.80    4.80
  -1   2 -12   29.60   15.90
   1   2  12   31.30   14.60
   1   2  12   31.90    8.40
   1   2  12   31.60   20.30
  -1   2 -12   35.70   21.80
   2  -2  12  157.88   25.00
  -2  -2 -12  145.19   19.00
   2  -2  12  161.68   22.30
  -2  -2 -12  143.89   10.00
  -2  -2 -12  172.68   23.30
   2  -2  12  148.49   18.00
   2   2  12  142.89   22.00
  -2   2 -12  138.39   16.60
   2   2  12  182.48   25.80
  -2   2 -12  162.68   24.60
  -3  -3  12    9.90   16.40
   3  -3 -12    5.10    3.40
   3  -3 -12    9.90   21.40
   3  -3 -12   16.00   17.50
   3  -3 -12    0.40   17.10
   3  -3 -12    5.20   14.50
  -3  -3  12    5.40   16.90
  -3  -3  12    8.40   21.10
   3   3 -12   11.10   15.40
  -3   3  12    6.40   14.70
  -3   3  12    6.40   21.10
   3   3 -12    3.70   15.50
   3   3 -12    7.90   26.00
  -3   3  12   16.10   15.80
   3   3 -12   11.00    9.50
   2  -3 -12  237.98   30.60
  -2  -3  12  254.77   33.90
   2  -3 -12  222.38   23.60
  -2  -3  12  256.17   26.80
  -2  -3  12  246.58   26.80
   2  -3 -12  268.87   10.40
   2  -3 -12  251.67   26.80
   2  -3 -12  257.87   27.30
   2   3 -12  235.38   33.40
   2   3 -12  251.17   26.60
  -2   3  12  231.28   22.70
   2   3 -12  233.68   19.60
   2   3 -12  212.28   33.70
  -2   3  12  197.68   31.50
  -2   3  12  254.67   26.40
   1  -3 -12   68.29   15.80
  -1  -3  12   67.09   21.00
   1  -3 -12   54.79   16.90
  -1  -3  12   66.09   15.60
  -1  -3  12   74.39    5.40
  -1  -3  12   66.99   14.80
   1  -3 -12   69.29   16.50
   1  -3 -12   47.70    7.70
   1  -3 -12   66.19   19.60
  -1   3  12   54.49   14.90
  -1   3  12   65.39   21.00
   1   3 -12   68.29   22.80
   1   3 -12   53.49   15.30
   1   3 -12   51.39   14.30
  -1   3  12   61.09   11.70
   1   3 -12   62.49    4.30
   0  -3  12  130.69    6.90
   0  -3 -12  113.99   19.30
   0  -3  12  116.09   16.50
   0  -3 -12  114.39    8.90
   0  -3  12   99.39   17.10
   0  -3 -12  115.59   16.90
   0  -3  12  108.79   20.90
   0  -3 -12  120.79   20.90
   0   3  12  135.29   22.60
   0   3 -12  128.39    6.00
   0   3 -12  125.99   22.20
   0   3 -12  130.29   16.80
   0   3  12  121.69   15.30
   0   3  12  107.79   14.80
   0   3 -12  110.49   14.70
   1  -3  12  101.19   21.20
   1  -3  12  129.89   17.80
  -1  -3 -12  121.69   22.30
  -1  -3 -12  127.29    9.30
   1  -3  12  104.89    7.10
  -1  -3 -12  103.49   17.80
  -1  -3 -12  117.59   17.50
   1  -3  12  146.49    5.80
   1  -3  12  130.99   16.10
   1   3  12  134.89   22.10
   1   3  12  114.49   12.50
  -1   3 -12  118.99   16.00
   1   3  12   96.39   19.20
  -1   3 -12  123.79   17.50
  -1   3 -12  109.29   23.20
   2  -3  12    4.40   21.90
   2  -3  12    8.30   17.50
  -2  -3 -12   -2.70    4.60
  -2  -3 -12   -2.30   19.90
   2  -3  12    8.20   14.50
   2  -3  12    8.30    2.60
  -2  -3 -12   11.20   21.60
  -2   3 -12    1.20   21.80
   2   3  12    8.40   21.60
  -2   3 -12    2.70   19.70
   3  -4 -12  207.68   28.90
   3  -4 -12  188.48    8.70
  -3  -4  12  234.38   35.80
   3  -4 -12  210.68   21.30
   3  -4 -12  218.48   34.00
   3  -4 -12  235.68   36.00
  -3  -4  12  212.68   29.20
  -3  -4  12  231.38   13.40
  -3  -4  12  181.08   20.00
  -3   4  12  211.28   29.90
  -3   4  12  210.28   28.20
   3   4 -12  217.08   27.70
  -3   4  12  189.88   25.20
   3   4 -12  271.67   47.30
  -2  -4  12    7.70   16.50
  -2  -4  12   16.20    5.70
   2  -4 -12   -1.10   19.80
  -2  -4  12   13.80   16.60
  -2  -4  12    5.20   21.60
   2  -4 -12   23.30    6.60
   2  -4 -12   16.60    2.50
   2  -4 -12   16.00   19.50
   2  -4 -12    7.00   15.40
   2  -4 -12   13.90   17.10
   2   4 -12   10.30   15.20
   2   4 -12   23.50   33.10
  -2   4  12   11.80   15.80
  -2   4  12   11.70   13.60
   2   4 -12    5.70   15.80
   2   4 -12    9.80   10.30
  -2   4  12   10.30   32.20
   1  -4 -12  176.98   19.00
   1  -4 -12  183.68   21.60
  -1  -4  12  151.68   18.10
   1  -4 -12  199.68   11.40
  -1  -4  12  183.88   23.70
  -1  -4  12  172.48    8.10
  -1  -4  12  144.69   16.80
   1  -4 -12  124.49   20.70
   1  -4 -12  166.68   18.70
   1   4 -12  187.78   24.60
  -1   4  12  146.89   16.80
   1   4 -12  154.48   33.30
  -1   4  12  142.69   22.10
  -1   4  12  163.18   18.50
   1   4 -12  192.98   26.10
   0  -4 -12   76.49   17.30
   0  -4  12   94.49   17.10
   0  -4  12   77.39   17.30
   0  -4 -12   79.09    8.80
   0  -4 -12   75.49   18.70
   0  -4 -12   79.89   17.50
   0  -4  12   74.69    6.50
   0  -4  12   75.19   21.00
   0  -4 -12   80.29   19.90
   0   4 -12   80.79   16.40
   0   4  12   95.19   22.10
   0   4  12   79.89   10.90
   0   4 -12   84.59   14.50
   0   4 -12   89.49   23.20
   0   4 -12   55.89    5.00
   1  -4  12   28.00   15.60
  -1  -4 -12   24.00    6.70
  -1  -4 -12   24.30   18.10
   1  -4  12   33.10    3.90
  -1  -4 -12   41.90   21.70
   1  -4  12   25.80   17.60
  -1  -4 -12   19.60   17.70
   1  -4  12   23.10   21.60
   1   4  12    0.70    7.80
  -1   4 -12   37.40   17.20
   1   4  12   26.50   21.60
   1   4  12   18.80    4.60
  -1   4 -12   36.10   24.00
   1   4  12   25.00   14.60
  -1   4 -12   22.00   13.80
   2  -5 -12  234.68   32.70
   2  -5 -12  197.98   22.50
  -2  -5  12  211.58   31.00
  -2  -5  12  189.88   12.70
  -2  -5  12  210.68    9.20
  -2  -5  12  201.58   20.60
   2   5 -12  191.98   17.10
  -2   5  12  222.38   23.70
   2   5 -12  232.48   38.50
  -1  -5  12   39.30    9.90
   1  -5 -12   27.10   21.40
  -1  -5  12   43.40    5.30
  -1  -5  12   40.70   21.90
   1  -5 -12   29.70   18.10
   1  -5 -12   31.20   17.90
   1  -5 -12   -2.30   19.70
  -1  -5  12   35.20   19.20
  -1  -5  12   28.00   17.80
   1  -5 -12   32.20    5.60
  -1   5  12   28.00   22.10
  -1   5  12   29.30   12.90
   1   5 -12   30.20   16.30
  -1   5  12   28.00   20.70
   1   5 -12   33.30   14.90
   0  -5 -12   88.59   18.80
   0  -5  12   72.89   19.00
   0  -5 -12   72.09    9.00
   0  -5 -12   78.09   21.00
   0  -5  12   94.29    6.10
   0  -5  12   72.99   18.70
   0  -5 -12   70.99   18.50
   0  -5  12   70.69   22.70
   0  -5 -12   74.79   21.10
   0   5 -12   78.09   15.10
   0   5 -12   92.49   17.20
   0   5  12   84.39   22.70
   0   5  12   72.19    5.90
   0   5 -12  113.89   26.30
   0   5  12   90.09   15.40
   0   5 -12   81.79    5.00
   0   5  12   70.79   11.10
   2   0 -13   44.30   14.80
  -2   0  13   52.09   24.20
   2   0 -13   50.09   24.20
   2   0 -13   40.00   17.70
  -2   0  13   38.80   18.40
   2   0 -13   43.60   18.00
  -2   0  13   49.20   18.00
   1   0 -13   91.99   18.40
  -1   0  13   85.39   17.70
  -1   0  13   76.19   14.30
   1   0 -13   65.29   17.50
  -1   0  13   77.69   23.40
   1   0 -13   94.69   24.00
   0   0 -13    5.40   17.30
   0   0  13   -5.20   12.30
   0   0 -13   16.00   23.90
   0   0 -13   -6.10   17.70
   0   0  13   15.00   23.70
   0   0  13   -3.40    4.10
   0   0  13    6.50   16.20
  -1   0 -13  180.18   20.50
   1   0  13  141.59   24.10
   1   0  13  163.68   18.70
   1   0  13  139.39   20.40
  -1   0 -13  163.38   25.80
  -1   0 -13  143.19   20.00
   2  -1 -13  108.99   24.70
   2  -1 -13   98.59   18.90
  -2  -1  13  117.99   18.60
  -2  -1  13   95.39   16.60
  -2  -1  13  123.29   25.10
   2  -1 -13  105.79   19.80
   2  -1 -13  105.99   18.60
  -2   1  13   99.39   18.90
  -2   1  13  105.89   16.30
   2   1 -13  110.29   18.90
   2   1 -13  120.19   14.80
   2   1 -13  137.79   26.40
   2   1 -13  119.39   19.50
  -2   1  13  124.39   25.20
  -1  -1  13   26.20   16.80
   1  -1 -13   23.70   16.90
   1  -1 -13   21.80   15.60
  -1  -1  13   25.80   23.00
   1  -1 -13   23.90   17.90
   1  -1 -13   28.50   24.20
  -1  -1  13   20.50   14.30
  -1   1  13   39.40   24.00
   1   1 -13   31.80   17.70
   1   1 -13   43.90   23.80
  -1   1  13   32.30   17.20
   1   1 -13   32.40   17.50
  -1   1  13   35.70   13.70
   0  -1  13  178.48   19.30
   0  -1  13  213.58    8.40
   0  -1  13  180.88   23.80
   0  -1 -13  200.28   22.10
   0  -1  13  183.08   25.90
   0  -1 -13  196.08   20.30
   0  -1 -13  231.08   38.20
   0   1 -13  199.68   29.30
   0   1  13  215.78   37.00
   0   1 -13  192.28   29.90
   0   1  13  164.68   18.90
   0   1  13  188.28   20.20
   0   1 -13  186.78   26.50
   1  -1  13   -4.20   17.50
   1  -1  13    3.50   22.50
  -1  -1 -13   13.30   24.50
  -1  -1 -13   11.40   18.60
  -1  -1 -13    1.50   20.60
   1  -1  13    2.50   13.20
  -1   1 -13   11.00   18.40
  -1   1 -13   -5.20   17.70
   1   1  13    0.80   10.70
  -1   1 -13    9.20   24.30
   1   1  13    8.20   24.60
   1   1  13    4.10   16.40
   2  -2 -13   62.19   16.90
  -2  -2  13   38.10   16.90
   2  -2 -13   18.80   22.20
  -2  -2  13   59.59   18.10
   2  -2 -13   69.59   21.30
  -2  -2  13   55.89   23.40
  -2   2  13   40.40   23.40
   2   2 -13   53.59   24.60
   2   2 -13   65.99   13.60
  -2   2  13   48.90   15.00
   2   2 -13   64.69   18.60
  -1  -2  13  135.29   17.20
   1  -2 -13  146.99   20.80
  -1  -2  13  174.58   26.30
  -1  -2  13  152.78   19.00
   1  -2 -13  124.69   18.00
   1  -2 -13  139.69   19.60
   1  -2 -13  140.99   24.40
   1   2 -13  164.98   26.40
  -1   2  13  151.28   14.70
  -1   2  13  153.58   25.30
  -1   2  13  141.39   18.60
   1   2 -13  145.49   19.30
   1   2 -13  133.99    8.30
   1   2 -13  174.08   19.10
   0  -2 -13    0.90   20.80
   0  -2  13    3.50   17.40
   0  -2 -13    4.00   17.80
   0  -2  13   -9.10    4.50
   0  -2 -13   23.10   23.80
   0  -2  13    4.00   22.90
   0  -2  13    1.80   15.80
   0   2  13    5.80   11.40
   0   2  13   12.50   23.80
   0   2 -13   -2.60   16.70
   0   2 -13   16.10   17.90
   0   2  13    6.70   16.50
   0   2 -13   16.90   24.20
   0   0   0    0.00    0.00
_computing_structure_solution     'SHELXT 2014/5 (Sheldrick, 2014)'
;
_shelx_hkl_checksum              65245
_shelx_res_file
;
TITL UMD1819E_c.res in P2(1)
    umd1819e_c.res
    created by SHELXL-2018/3 at 11:10:37 on 09-Jul-2020
REM Old TITL UMD1819E in P2(1)
REM SHELXT solution in P2(1)
REM R1 0.117, Rweak 0.012, Alpha 0.012, Orientation as input
REM Flack x= 0.397 ( 0.009 ) from Parsons' quotients
REM Formula found by SHELXT: C12 I N11
CELL 0.71073 7.3471 9.9672 10.9499 90 94.671 90
ZERR 4 0.0008 0.0009 0.0011 0 0.003 0
LATT -1
SYMM -X,0.5+Y,-Z
SFAC C H I N
UNIT 30 42 2 4
DFIX 1.53 0.01 C13 C14 C13 C14A
DFIX 1.35 0.01 C14 C15 C14A C15A
EADP C15 C15A
EADP C14 C14A
L.S. 10
PLAN  7
SIZE 0.15 0.22 0.39
TEMP 30.07
CONF
HTAB N1 I1
BOND $H
MORE -1
fmap 2
acta
TWIN -1 0 0 0 -1 0 0 0 -1 2
OMIT 0 -2 0
REM <olex2.extras>
REM <HklSrc "%umd1819e_c.hkl">
REM </olex2.extras>
WGHT    0.034500    0.614000
EXTI    0.055658
BASF   0.29328
FVAR       1.03182   0.30277
I1    3    0.300174    0.614870    0.865604    11.00000    0.05576    0.05734 =
         0.05027    0.00298    0.01514   -0.00094
N1    4    0.394660    0.580236    0.537802    11.00000    0.07392    0.11991 =
         0.04849   -0.02580    0.02044   -0.01378
AFIX  43
H1    2    0.366598    0.619421    0.603678    11.00000   -1.20000
AFIX   0
N2    4    0.834976    0.620193    0.113077    11.00000    0.05342    0.04561 =
         0.05029    0.01082    0.01597    0.01968
C1    1    0.545623    0.607601    0.477706    11.00000    0.06445    0.09995 =
         0.06798   -0.03345    0.01189   -0.02924
AFIX  43
H1A   2    0.633090    0.672620    0.499495    11.00000   -1.20000
AFIX   0
C2    1    0.292353    0.479166    0.476556    11.00000    0.05267    0.05677 =
         0.04169    0.00322    0.01415    0.00040
C3    1    0.128100    0.419117    0.502461    11.00000    0.05753    0.07442 =
         0.07178    0.01782    0.02339    0.00541
AFIX  43
H3    2    0.068939    0.443978    0.570894    11.00000   -1.20000
AFIX   0
C4    1    0.057677    0.322913    0.423992    11.00000    0.04509    0.07830 =
         0.10147    0.03065   -0.00437   -0.00904
AFIX  43
H4    2   -0.051395    0.281303    0.439444    11.00000   -1.20000
AFIX   0
C5    1    0.145829    0.285007    0.320254    11.00000    0.07150    0.06468 =
         0.08019    0.01419   -0.02711   -0.01485
AFIX  43
H5    2    0.094346    0.219554    0.267657    11.00000   -1.20000
AFIX   0
C6    1    0.308213    0.344448    0.296192    11.00000    0.07134    0.05557 =
         0.04784    0.00024   -0.00725    0.00782
AFIX  43
H6    2    0.366647    0.318328    0.227823    11.00000   -1.20000
AFIX   0
C7    1    0.384714    0.442641    0.373074    11.00000    0.04730    0.05008 =
         0.03579   -0.00042    0.00161    0.00239
C8    1    0.545827    0.520256    0.377013    11.00000    0.05223    0.06698 =
         0.05577    0.00013    0.01774   -0.00195
C9    1    0.695221    0.511661    0.291705    11.00000    0.06471    0.07701 =
         0.08613    0.01671    0.03446    0.01216
AFIX  23
H9A   2    0.812499    0.516278    0.339083    11.00000   -1.20000
H9B   2    0.687847    0.425695    0.250073    11.00000   -1.20000
AFIX   0
C10   1    0.684590    0.617452    0.201741    11.00000    0.05481    0.06477 =
         0.05946    0.00422    0.01911    0.02869
AFIX  23
H10A  2    0.685969    0.702654    0.244613    11.00000   -1.20000
H10B  2    0.567847    0.610421    0.153994    11.00000   -1.20000
AFIX   0
C13   1    1.023236    0.614694    0.172684    11.00000    0.05301    0.08878 =
         0.06165    0.01023    0.01921    0.00804
PART 1
AFIX  23
H13A  2    1.106539    0.583631    0.114432    21.00000   -1.20000
H13B  2    1.028342    0.552140    0.240738    21.00000   -1.20000
AFIX  23
PART 2
H13C  2    1.108633    0.616136    0.109644   -21.00000   -1.20000
H13D  2    1.039323    0.530235    0.216237   -21.00000   -1.20000
AFIX   0
PART 0
C12   1    0.805876    0.741132    0.030211    11.00000    0.06637    0.05668 =
         0.04154    0.01653   -0.00089    0.00037
AFIX 137
H12A  2    0.822133    0.821611    0.078022    11.00000   -1.50000
H12B  2    0.684335    0.739046   -0.009237    11.00000   -1.50000
H12C  2    0.892702    0.739452   -0.030715    11.00000   -1.50000
AFIX   0
PART 1
C14   1    1.080213    0.754547    0.219003    21.00000    0.07157    0.14436 =
         0.03971   -0.01379    0.02490   -0.00867
AFIX  43
H14   2    0.995335    0.818264    0.189308    21.00000   -1.20000
AFIX   0
C15   1    1.216322    0.813411    0.289887    21.00000    0.07164    0.11522 =
         0.08122    0.00557    0.00112    0.00938
AFIX  93
H15A  2    1.311433    0.761751    0.326014    21.00000   -1.20000
H15B  2    1.215032    0.905645    0.302622    21.00000   -1.20000
AFIX   0
PART 2
C14A  1    1.069645    0.727655    0.261091   -21.00000    0.07157    0.14436 =
         0.03971   -0.01379    0.02490   -0.00867
AFIX  43
H14A  2    1.001641    0.742461    0.327829   -21.00000   -1.20000
AFIX   0
C15A  1    1.211355    0.805804    0.240663   -21.00000    0.07164    0.11522 =
         0.08122    0.00557    0.00112    0.00938
AFIX  93
H15C  2    1.277982    0.789671    0.173504   -21.00000   -1.20000
H15D  2    1.243546    0.876433    0.293577   -21.00000   -1.20000
AFIX   0
PART 0
C11   1    0.811078    0.500498    0.035764    11.00000    0.10966    0.05840 =
         0.12135   -0.02720    0.06191   -0.01538
AFIX 137
H11A  2    0.689549    0.499355   -0.003742    11.00000   -1.50000
H11B  2    0.830123    0.421667    0.085540    11.00000   -1.50000
H11C  2    0.897905    0.502045   -0.025164    11.00000   -1.50000
AFIX   0
HKLF 4
REM  UMD1819E_c.res in P2(1)
REM wR2 = 0.0707, GooF = S = 1.133, Restrained GooF = 1.134 for all data
REM R1 = 0.0268 for 2868 Fo > 4sig(Fo) and 0.0287 for all 3038 data
REM 174 parameters refined using 5 restraints
END
WGHT      0.0345      0.6139
REM Highest difference peak  0.456,  deepest hole -0.484,  1-sigma level  0.090
Q1    1   0.2213  0.6164  0.8377  11.00000  0.05    0.46
Q2    1   1.1040  0.6134  0.4134  11.00000  0.05    0.45
Q3    1   0.3458  0.6803  0.8619  11.00000  0.05    0.44
Q4    1   0.3510  0.5558  0.8622  11.00000  0.05    0.44
Q5    1   0.7990  0.6170  0.2620  11.00000  0.05    0.39
Q6    1   0.2966  0.6160  0.9063  11.00000  0.05    0.30
Q7    1   0.5460  0.7039  0.3868  11.00000  0.05    0.29
;
_shelx_res_checksum              95706
loop_
_space_group_symop_operation_xyz
'x, y, z'
'-x, y+1/2, -z'
loop_
_atom_site_type_symbol
_atom_site_label
_atom_site_fract_x
_atom_site_fract_y
_atom_site_fract_z
_atom_site_U_iso_or_equiv
_atom_site_adp_type
_atom_site_calc_flag
_atom_site_occupancy
_atom_site_disorder_assembly
_atom_site_disorder_group
I I1 0.30017(4) 0.61487(8) 0.86560(3) 0.05386(18) Uani d 1 . .
N N1 0.3947(9) 0.5802(8) 0.5378(5) 0.080(3) Uani d 1 . .
H H1 0.366598 0.619421 0.603678 0.096 Uiso calc 1 . .
N N2 0.8350(6) 0.6202(10) 0.1131(4) 0.0491(11) Uani d 1 . .
C C1 0.5456(9) 0.6076(16) 0.4777(6) 0.077(2) Uani d 1 . .
H H1A 0.633090 0.672620 0.499495 0.093 Uiso calc 1 . .
C C2 0.2924(9) 0.4792(7) 0.4766(5) 0.0498(14) Uani d 1 . .
C C3 0.1281(10) 0.4191(8) 0.5025(7) 0.0669(19) Uani d 1 . .
H H3 0.068939 0.443978 0.570894 0.080 Uiso calc 1 . .
C C4 0.0577(10) 0.3229(9) 0.4240(9) 0.076(2) Uani d 1 . .
H H4 -0.051395 0.281303 0.439444 0.091 Uiso calc 1 . .
C C5 0.1458(11) 0.2850(8) 0.3203(8) 0.074(2) Uani d 1 . .
H H5 0.094346 0.219554 0.267657 0.089 Uiso calc 1 . .
C C6 0.3082(10) 0.3444(7) 0.2962(6) 0.0589(16) Uani d 1 . .
H H6 0.366647 0.318328 0.227823 0.071 Uiso calc 1 . .
C C7 0.3847(8) 0.4426(6) 0.3731(5) 0.0445(12) Uani d 1 . .
C C8 0.5458(9) 0.5203(7) 0.3770(6) 0.0576(16) Uani d 1 . .
C C9 0.6952(11) 0.5117(9) 0.2917(8) 0.074(2) Uani d 1 . .
H H9A 0.812499 0.516278 0.339083 0.089 Uiso calc 1 . .
H H9B 0.687847 0.425695 0.250073 0.089 Uiso calc 1 . .
C C10 0.6846(8) 0.6175(13) 0.2017(5) 0.0589(15) Uani d 1 . .
H H10A 0.685969 0.702654 0.244613 0.071 Uiso calc 1 . .
H H10B 0.567847 0.610421 0.153994 0.071 Uiso calc 1 . .
C C13 1.0232(7) 0.6147(14) 0.1727(5) 0.0670(14) Uani d 1 . .
H H13A 1.106539 0.583631 0.114432 0.080 Uiso calc 0.30(4) A 1
H H13B 1.028342 0.552140 0.240738 0.080 Uiso calc 0.30(4) A 1
H H13C 1.108633 0.616136 0.109644 0.080 Uiso calc 0.70(4) A 2
H H13D 1.039323 0.530235 0.216237 0.080 Uiso calc 0.70(4) A 2
C C12 0.8059(14) 0.7411(10) 0.0302(8) 0.055(2) Uani d 1 . .
H H12A 0.822133 0.821611 0.078022 0.083 Uiso calc 1 . .
H H12B 0.684335 0.739046 -0.009237 0.083 Uiso calc 1 . .
H H12C 0.892702 0.739452 -0.030715 0.083 Uiso calc 1 . .
C C14 1.080(7) 0.755(3) 0.219(4) 0.084(5) Uani d 0.30(4) A 1
H H14 0.995335 0.818264 0.189308 0.101 Uiso calc 0.30(4) A 1
C C15 1.216(7) 0.813(8) 0.290(4) 0.090(5) Uani d 0.30(4) A 1
H H15A 1.311433 0.761751 0.326014 0.108 Uiso calc 0.30(4) A 1
H H15B 1.215032 0.905645 0.302622 0.108 Uiso calc 0.30(4) A 1
C C14A 1.070(2) 0.7277(18) 0.2611(18) 0.084(5) Uani d 0.70(4) A 2
H H14A 1.001641 0.742461 0.327829 0.101 Uiso calc 0.70(4) A 2
C C15A 1.211(3) 0.806(3) 0.241(2) 0.090(5) Uani d 0.70(4) A 2
H H15C 1.277982 0.789671 0.173504 0.108 Uiso calc 0.70(4) A 2
H H15D 1.243546 0.876433 0.293577 0.108 Uiso calc 0.70(4) A 2
C C11 0.811(2) 0.5005(13) 0.0358(14) 0.094(5) Uani d 1 . .
H H11A 0.689549 0.499355 -0.003742 0.140 Uiso calc 1 . .
H H11B 0.830123 0.421667 0.085540 0.140 Uiso calc 1 . .
H H11C 0.897905 0.502045 -0.025164 0.140 Uiso calc 1 . .
loop_
_atom_site_aniso_label
_atom_site_aniso_U_11
_atom_site_aniso_U_22
_atom_site_aniso_U_33
_atom_site_aniso_U_12
_atom_site_aniso_U_13
_atom_site_aniso_U_23
I1 0.0558(2) 0.0573(2) 0.0503(2) -0.0009(3) 0.01514(13) 0.0030(3)
N1 0.074(4) 0.120(8) 0.048(3) -0.014(4) 0.020(3) -0.026(3)
N2 0.053(2) 0.046(2) 0.050(2) 0.020(4) 0.0160(17) 0.011(4)
C1 0.064(4) 0.100(6) 0.068(4) -0.029(7) 0.012(3) -0.033(7)
C2 0.053(3) 0.057(4) 0.042(3) 0.000(3) 0.014(3) 0.003(3)
C3 0.058(4) 0.074(5) 0.072(5) 0.005(4) 0.023(3) 0.018(4)
C4 0.045(4) 0.078(5) 0.101(6) -0.009(3) -0.004(4) 0.031(5)
C5 0.071(5) 0.065(4) 0.080(5) -0.015(4) -0.027(4) 0.014(4)
C6 0.071(4) 0.056(4) 0.048(4) 0.008(3) -0.007(3) 0.000(3)
C7 0.047(3) 0.050(3) 0.036(3) 0.002(2) 0.002(2) 0.000(2)
C8 0.052(4) 0.067(4) 0.056(4) -0.002(3) 0.018(3) 0.000(3)
C9 0.065(4) 0.077(5) 0.086(5) 0.012(4) 0.034(4) 0.017(4)
C10 0.055(3) 0.065(3) 0.059(3) 0.029(6) 0.019(2) 0.004(6)
C13 0.053(3) 0.089(4) 0.062(3) 0.008(8) 0.019(2) 0.010(8)
C12 0.066(6) 0.057(5) 0.042(4) 0.000(4) -0.001(4) 0.017(4)
C14 0.072(6) 0.144(11) 0.040(9) -0.009(7) 0.025(7) -0.014(9)
C15 0.072(6) 0.115(9) 0.081(14) 0.009(6) 0.001(11) 0.006(14)
C14A 0.072(6) 0.144(11) 0.040(9) -0.009(7) 0.025(7) -0.014(9)
C15A 0.072(6) 0.115(9) 0.081(14) 0.009(6) 0.001(11) 0.006(14)
C11 0.110(10) 0.058(6) 0.121(11) -0.015(6) 0.062(8) -0.027(6)
loop_
_atom_type_symbol
_atom_type_description
_atom_type_scat_dispersion_real
_atom_type_scat_dispersion_imag
_atom_type_scat_source
C C 0.0033 0.0016 'International Tables Vol C Tables 4.2.6.8 and 6.1.1.4'
H H 0.0000 0.0000 'International Tables Vol C Tables 4.2.6.8 and 6.1.1.4'
I I -0.4742 1.8119 'International Tables Vol C Tables 4.2.6.8 and 6.1.1.4'
N N 0.0061 0.0033 'International Tables Vol C Tables 4.2.6.8 and 6.1.1.4'
loop_
_geom_angle_atom_site_label_1
_geom_angle_atom_site_label_2
_geom_angle_atom_site_label_3
_geom_angle_site_symmetry_1
_geom_angle_site_symmetry_3
_geom_angle
_geom_angle_publ_flag
C1 N1 H1 . . 125.1 ?
C1 N1 C2 . . 109.9(6) ?
C2 N1 H1 . . 125.1 ?
C13 N2 C10 . . 114.6(4) ?
C13 N2 C12 . . 112.0(8) ?
C12 N2 C10 . . 108.7(7) ?
C11 N2 C10 . . 107.1(9) ?
C11 N2 C13 . . 106.7(9) ?
C11 N2 C12 . . 107.3(6) ?
N1 C1 H1A . . 126.0 ?
N1 C1 C8 . . 107.9(8) ?
C8 C1 H1A . . 126.0 ?
N1 C2 C3 . . 130.7(6) ?
N1 C2 C7 . . 107.2(5) ?
C3 C2 C7 . . 122.1(6) ?
C2 C3 H3 . . 121.2 ?
C4 C3 C2 . . 117.6(7) ?
C4 C3 H3 . . 121.2 ?
C3 C4 H4 . . 119.2 ?
C3 C4 C5 . . 121.6(7) ?
C5 C4 H4 . . 119.2 ?
C4 C5 H5 . . 119.9 ?
C6 C5 C4 . . 120.2(7) ?
C6 C5 H5 . . 119.9 ?
C5 C6 H6 . . 119.8 ?
C5 C6 C7 . . 120.3(7) ?
C7 C6 H6 . . 119.8 ?
C6 C7 C2 . . 118.2(6) ?
C6 C7 C8 . . 134.9(6) ?
C8 C7 C2 . . 106.9(5) ?
C1 C8 C7 . . 108.0(6) ?
C1 C8 C9 . . 124.9(7) ?
C7 C8 C9 . . 127.1(7) ?
C8 C9 H9A . . 109.1 ?
C8 C9 H9B . . 109.1 ?
H9A C9 H9B . . 107.8 ?
C10 C9 C8 . . 112.5(6) ?
C10 C9 H9A . . 109.1 ?
C10 C9 H9B . . 109.1 ?
N2 C10 H10A . . 108.2 ?
N2 C10 H10B . . 108.2 ?
C9 C10 N2 . . 116.4(6) ?
C9 C10 H10A . . 108.2 ?
C9 C10 H10B . . 108.2 ?
H10A C10 H10B . . 107.3 ?
N2 C13 H13A . . 109.8 ?
N2 C13 H13B . . 109.8 ?
N2 C13 H13C . . 108.7 ?
N2 C13 H13D . . 108.7 ?
N2 C13 C14 . . 109(2) ?
N2 C13 C14A . . 114.2(11) ?
H13A C13 H13B . . 108.2 ?
H13C C13 H13D . . 107.6 ?
C14 C13 H13A . . 109.8 ?
C14 C13 H13B . . 109.8 ?
C14A C13 H13C . . 108.7 ?
C14A C13 H13D . . 108.7 ?
N2 C12 H12A . . 109.5 ?
N2 C12 H12B . . 109.5 ?
N2 C12 H12C . . 109.5 ?
H12A C12 H12B . . 109.5 ?
H12A C12 H12C . . 109.5 ?
H12B C12 H12C . . 109.5 ?
C13 C14 H14 . . 110.4 ?
C15 C14 C13 . . 139(5) ?
C15 C14 H14 . . 110.4 ?
C14 C15 H15A . . 120.0 ?
C14 C15 H15B . . 120.0 ?
H15A C15 H15B . . 120.0 ?
C13 C14A H14A . . 121.1 ?
C15A C14A C13 . . 118(2) ?
C15A C14A H14A . . 121.1 ?
C14A C15A H15C . . 120.0 ?
C14A C15A H15D . . 120.0 ?
H15C C15A H15D . . 120.0 ?
N2 C11 H11A . . 109.5 ?
N2 C11 H11B . . 109.5 ?
N2 C11 H11C . . 109.5 ?
H11A C11 H11B . . 109.5 ?
H11A C11 H11C . . 109.5 ?
H11B C11 H11C . . 109.5 ?
loop_
_geom_bond_atom_site_label_1
_geom_bond_atom_site_label_2
_geom_bond_site_symmetry_2
_geom_bond_distance
_geom_bond_publ_flag
N1 H1 . 0.8600 ?
N1 C1 . 1.363(9) ?
N1 C2 . 1.396(10) ?
N2 C10 . 1.529(6) ?
N2 C13 . 1.482(7) ?
N2 C12 . 1.513(13) ?
N2 C11 . 1.465(16) ?
C1 H1A . 0.9300 ?
C1 C8 . 1.405(11) ?
C2 C3 . 1.397(10) ?
C2 C7 . 1.415(8) ?
C3 H3 . 0.9300 ?
C3 C4 . 1.361(13) ?
C4 H4 . 0.9300 ?
C4 C5 . 1.404(13) ?
C5 H5 . 0.9300 ?
C5 C6 . 1.377(11) ?
C6 H6 . 0.9300 ?
C6 C7 . 1.380(9) ?
C7 C8 . 1.412(9) ?
C8 C9 . 1.501(9) ?
C9 H9A . 0.9700 ?
C9 H9B . 0.9700 ?
C9 C10 . 1.441(12) ?
C10 H10A . 0.9700 ?
C10 H10B . 0.9700 ?
C13 H13A . 0.9700 ?
C13 H13B . 0.9700 ?
C13 H13C . 0.9700 ?
C13 H13D . 0.9700 ?
C13 C14 . 1.530(14) ?
C13 C14A . 1.506(12) ?
C12 H12A . 0.9600 ?
C12 H12B . 0.9600 ?
C12 H12C . 0.9600 ?
C14 H14 . 0.9300 ?
C14 C15 . 1.349(14) ?
C15 H15A . 0.9300 ?
C15 H15B . 0.9300 ?
C14A H14A . 0.9300 ?
C14A C15A . 1.334(12) ?
C15A H15C . 0.9300 ?
C15A H15D . 0.9300 ?
C11 H11A . 0.9600 ?
C11 H11B . 0.9600 ?
C11 H11C . 0.9600 ?
loop_
_geom_hbond_atom_site_label_D
_geom_hbond_atom_site_label_H
_geom_hbond_atom_site_label_A
_geom_hbond_site_symmetry_A
_geom_hbond_distance_DH
_geom_hbond_distance_HA
_geom_hbond_distance_DA
_geom_hbond_angle_DHA
_geom_hbond_publ_flag
N1 H1 I1 . 0.86 2.95 3.727(6) 151.5 yes
loop_
_geom_torsion_atom_site_label_1
_geom_torsion_atom_site_label_2
_geom_torsion_atom_site_label_3
_geom_torsion_atom_site_label_4
_geom_torsion_site_symmetry_1
_geom_torsion_site_symmetry_2
_geom_torsion_site_symmetry_3
_geom_torsion_site_symmetry_4
_geom_torsion
_geom_torsion_publ_flag
N1 C1 C8 C7 . . . . 3.0(12) ?
N1 C1 C8 C9 . . . . -175.9(8) ?
N1 C2 C3 C4 . . . . 178.9(7) ?
N1 C2 C7 C6 . . . . -179.2(6) ?
N1 C2 C7 C8 . . . . 2.1(7) ?
N2 C13 C14 C15 . . . . 170(6) ?
N2 C13 C14A C15A . . . . -121.9(19) ?
C1 N1 C2 C3 . . . . -179.4(9) ?
C1 N1 C2 C7 . . . . -0.2(10) ?
C1 C8 C9 C10 . . . . -79.5(12) ?
C2 N1 C1 C8 . . . . -1.8(12) ?
C2 C3 C4 C5 . . . . -0.2(11) ?
C2 C7 C8 C1 . . . . -3.1(9) ?
C2 C7 C8 C9 . . . . 175.8(7) ?
C3 C2 C7 C6 . . . . 0.0(9) ?
C3 C2 C7 C8 . . . . -178.7(7) ?
C3 C4 C5 C6 . . . . 0.6(12) ?
C4 C5 C6 C7 . . . . -0.6(11) ?
C5 C6 C7 C2 . . . . 0.4(9) ?
C5 C6 C7 C8 . . . . 178.6(7) ?
C6 C7 C8 C1 . . . . 178.5(9) ?
C6 C7 C8 C9 . . . . -2.6(13) ?
C7 C2 C3 C4 . . . . -0.1(11) ?
C7 C8 C9 C10 . . . . 101.8(10) ?
C8 C9 C10 N2 . . . . 178.0(7) ?
C10 N2 C13 C14 . . . . -80.6(19) ?
C10 N2 C13 C14A . . . . -58.9(14) ?
C13 N2 C10 C9 . . . . -51.2(12) ?
C12 N2 C10 C9 . . . . -177.3(8) ?
C12 N2 C13 C14 . . . . 43.9(18) ?
C12 N2 C13 C14A . . . . 65.5(12) ?
C11 N2 C10 C9 . . . . 67.0(11) ?
C11 N2 C13 C14 . . . . 161.1(18) ?
C11 N2 C13 C14A . . . . -177.3(12) ?
loop_
_twin_individual_id
_twin_individual_mass_fraction_refined
1 0.71(5)
2 0.29(5)

_cod_database_fobs_code 2243509
