#------------------------------------------------------------------------------
#$Date: 2019-09-28 07:13:13 +0300 (Sat, 28 Sep 2019) $
#$Revision: 218912 $
#$URL: file:///home/coder/svn-repositories/cod/cif/2/24/31/2243115.cif $
#------------------------------------------------------------------------------
#
# This file is available in the Crystallography Open Database (COD),
# http://www.crystallography.net/. The original data for this entry
# were provided by IUCr Journals, http://journals.iucr.org/.
#
# The file may be used within the scientific community so long as
# proper attribution is given to the journal article from which the
# data were obtained.
#
data_2243115
loop_
_publ_author_name
'Gotoh, Kazuma'
'Ishida, Hiroyuki'
_publ_section_title
;
 Crystal structures of 3-chloro-2-nitrobenzoic acid with quinoline
 derivatives: 3-chloro-2-nitrobenzoic acid--5-nitroquinoline (1/1),
 3-chloro-2-nitrobenzoic acid--6-nitroquinoline (1/1) and
 8-hydroxyquinolinium 3-chloro-2-nitrobenzoate
;
_journal_coeditor_code           LH5922
_journal_issue                   10
_journal_name_full               'Acta Crystallographica Section E'
_journal_page_first              1552
_journal_page_last               1557
_journal_paper_doi               10.1107/S2056989019012799
_journal_volume                  75
_journal_year                    2019
_chemical_formula_moiety         'C7 H4 Cl N O4, C9 H6 N2 O2 '
_chemical_formula_sum            'C16 H10 Cl N3 O6'
_chemical_formula_weight         375.72
_chemical_name_systematic
;
3-Chloro-2-nitrobenzoicacid--6-nitroquinoline (1/1)
;
_space_group_crystal_system      triclinic
_space_group_IT_number           2
_space_group_name_Hall           '-P 1'
_space_group_name_H-M_alt        'P -1'
_symmetry_space_group_name_Hall  '-P 1'
_symmetry_space_group_name_H-M   'P -1'
_atom_sites_solution_hydrogens   mixed
_atom_sites_solution_primary     direct
_atom_sites_solution_secondary   difmap
_cell_angle_alpha                71.990(4)
_cell_angle_beta                 79.724(4)
_cell_angle_gamma                69.051(3)
_cell_formula_units_Z            2
_cell_length_a                   7.7282(10)
_cell_length_b                   10.2839(14)
_cell_length_c                   11.2828(16)
_cell_measurement_reflns_used    14524
_cell_measurement_temperature    190.0(10)
_cell_measurement_theta_max      30.09
_cell_measurement_theta_min      3.07
_cell_volume                     794.08(19)
_computing_cell_refinement
;
RAPID-AUTO (Rigaku, 2006)
;
_computing_data_collection
;
RAPID-AUTO (Rigaku, 2006)
;
_computing_data_reduction
;
RAPID-AUTO (Rigaku, 2006)
;
_computing_molecular_graphics
;
<i>ORTEP-3 for Windows</i> (Farrugia, 2012) and
Mercury (Macrae <i>et al</i>., 2006)
;
_computing_publication_material
;
CrystalStructure (Rigaku, 2018) and PLATON (Spek, 2015)
;
_computing_structure_refinement
;
<i>SHELXL2018/3</i> (Sheldrick, 2015<i>b</i>)
;
_computing_structure_solution
;
<i>SHELXT2018/2</i> (Sheldrick, 2015<i>a</i>)
;
_diffrn_ambient_temperature      190(2)
_diffrn_detector_area_resol_mean 10.000
_diffrn_measured_fraction_theta_full 0.998
_diffrn_measured_fraction_theta_max 0.998
_diffrn_measurement_device_type  'Rigaku R-AXIS RAPIDII'
_diffrn_measurement_method       \w
_diffrn_radiation_type           'Mo K\a'
_diffrn_radiation_wavelength     0.71075
_diffrn_reflns_av_R_equivalents  0.0257
_diffrn_reflns_av_unetI/netI     0.0181
_diffrn_reflns_limit_h_max       10
_diffrn_reflns_limit_h_min       -10
_diffrn_reflns_limit_k_max       14
_diffrn_reflns_limit_k_min       -14
_diffrn_reflns_limit_l_max       15
_diffrn_reflns_limit_l_min       -15
_diffrn_reflns_number            16549
_diffrn_reflns_theta_full        25.242
_diffrn_reflns_theta_max         29.984
_diffrn_reflns_theta_min         3.065
_diffrn_standards_number         0
_exptl_absorpt_coefficient_mu    0.282
_exptl_absorpt_correction_T_max  0.919
_exptl_absorpt_correction_T_min  0.887
_exptl_absorpt_correction_type   numerical
_exptl_absorpt_process_details
;
(<i>NUMABS</i>; Higashi, 1999)
;
_exptl_crystal_colour            colorless
_exptl_crystal_density_diffrn    1.571
_exptl_crystal_density_method    'not measured'
_exptl_crystal_description       block
_exptl_crystal_F_000             384.00
_exptl_crystal_size_max          0.380
_exptl_crystal_size_mid          0.350
_exptl_crystal_size_min          0.300
_refine_diff_density_max         0.503
_refine_diff_density_min         -0.332
_refine_ls_extinction_method     none
_refine_ls_goodness_of_fit_ref   1.069
_refine_ls_hydrogen_treatment    mixed
_refine_ls_matrix_type           full
_refine_ls_number_parameters     239
_refine_ls_number_reflns         4622
_refine_ls_number_restraints     0
_refine_ls_restrained_S_all      1.069
_refine_ls_R_factor_all          0.0460
_refine_ls_R_factor_gt           0.0389
_refine_ls_shift/su_max          0.001
_refine_ls_shift/su_mean         0.000
_refine_ls_structure_factor_coef Fsqd
_refine_ls_weighting_details
'w = 1/[\s^2^(Fo^2^)+(0.0720P)^2^+0.0976P] where P=(Fo^2^+2Fc^2^)/3'
_refine_ls_weighting_scheme      calc
_refine_ls_wR_factor_gt          0.1090
_refine_ls_wR_factor_ref         0.1130
_reflns_number_gt                4029
_reflns_number_total             4622
_reflns_threshold_expression     'I > 2\s(I)'
_cod_data_source_file            lh5922sup1.cif
_cod_data_source_block           II
_cod_database_code               2243115
_shelx_space_group_comment
;
The symmetry employed for this shelxl refinement is uniquely defined
by the following loop, which should always be used as a source of
symmetry information in preference to the above space-group names.
They are only intended as comments.
;
_shelx_hkl_file
;
   0   0   2   48.85    0.55
   0   0   2   49.26    0.52
   0   0  -2   49.13    0.52
   0   0  -2   48.32    0.54
   0   0   3 1508.87   22.08
   0   0  -3 1495.72   21.64
   0   0  -3 1482.21   21.70
   0   0   4  363.90    4.61
   0   0  -4  353.75    4.30
   0   0  -4  355.33    4.50
   0   0   5  716.81    9.80
   0   0  -5  692.96    9.52
   0   0  -5  700.37    9.52
   0   0   6   35.23    0.51
   0   0  -6   35.00    0.52
   0   0  -6   34.58    0.59
   0   0   7    0.12    0.11
   0   0  -7   -0.01    0.09
   0   0  -7   -0.03    0.07
   0   0   8   25.26    0.46
   0   0  -8   24.63    0.56
   0   0  -8   23.05    0.35
   0   0   9   23.87    0.49
   0   0   9   23.26    0.49
   0   0  -9   21.82    0.45
   0   0  -9   21.71    0.45
   0   0  10   38.46    0.72
   0   0  10   39.90    0.74
   0   0 -10   36.14    0.66
   0   0 -10   36.48    0.68
   0   0  11    3.92    0.19
   0   0  11    5.24    0.48
   0   0 -11    4.50    0.43
   0   0 -11    3.53    0.17
   0   0  12    2.44    0.18
   0   0  12    2.27    0.29
   0   0 -12    2.21    0.16
   0   0 -12    2.43    0.26
   0   0  13    3.57    0.21
   0   0  13    3.94    0.53
   0   0 -13    5.01    0.51
   0   0 -13    3.85    0.20
   0   0  14    3.85    0.22
   0   0  14    4.43    0.38
   0   0 -14    3.79    0.35
   0   0 -14    3.75    0.21
   0   0  15    3.43    0.41
   0   0 -15    2.70    0.56
   0   1 -14    0.57    0.29
   0   1 -14    0.42    0.26
   0  -1  14    0.30    0.26
   0  -1  14    0.25    0.30
   0   1 -13    1.08    0.25
   0   1 -13    1.36    0.47
   0  -1  13    1.03    0.49
   0  -1  13    0.52    0.27
   0   1 -12    2.06    0.17
   0   1 -12    2.48    0.29
   0  -1  12    2.46    0.30
   0  -1  12    1.94    0.19
   0   1 -11    1.08    0.23
   0   1 -11    1.44    0.15
   0  -1  11    1.28    0.41
   0  -1  11    1.58    0.16
   0   1 -10    0.38    0.30
   0   1 -10    0.27    0.11
   0  -1  10    0.34    0.20
   0  -1  10    0.27    0.21
   0   1  -9   40.26    0.60
   0   1  -9   41.36    0.72
   0  -1   9   44.82    0.96
   0  -1   9   43.89    0.67
   0   1  -8    0.57    0.10
   0   1  -8    0.46    0.15
   0  -1   8    0.64    0.19
   0  -1   8    0.88    0.18
   0   1  -7   16.89    0.43
   0   1  -7   12.58    0.24
   0  -1   7   13.47    0.31
   0  -1   7   13.39    0.25
   0   1  -6   70.56    0.87
   0   1  -6   70.99    0.93
   0  -1   6   73.67    1.07
   0  -1   6   76.66    1.02
   0   1  -5    0.90    0.13
   0   1  -5    0.99    0.11
   0  -1   5    1.22    0.19
   0  -1   5    1.10    0.14
   0   1  -4   16.60    0.23
   0   1  -4   16.36    0.25
   0  -1   4   17.02    0.29
   0  -1   4   16.86    0.34
   0   1  -3  198.78    2.32
   0   1  -3  191.17    2.24
   0  -1   3  193.10    2.26
   0  -1   3  197.15    2.26
   0   1  -2   18.64    0.24
   0   1  -2   18.25    0.23
   0  -1   2   18.16    0.30
   0  -1   2   18.15    0.23
   0   1  -1  283.96    3.24
   0   1  -1  288.92    3.27
   0  -1   1  292.89    3.36
   0  -1   1  296.88    3.44
   0   1   2  234.86    2.59
   0   1   2  236.60    2.65
   0   1   2  236.53    2.61
   0   1   2  236.31    2.62
   0  -1  -2  234.07    2.59
   0  -1  -2  238.44    2.63
   0   1   3 9800.32  197.20
   0   1   3 9784.77  196.61
   0   1   3 9999.00  201.28
   0  -1  -3 9831.42  197.78
   0  -1  -3 9468.45  189.86
   0   1   4  595.40    7.74
   0   1   4  589.23    7.63
   0  -1  -4  578.21    7.60
   0  -1  -4  557.78    7.17
   0   1   5   40.49    0.60
   0   1   5   40.99    0.53
   0  -1  -5   39.71    0.51
   0  -1  -5   37.40    0.50
   0   1   6  945.08   13.36
   0   1   6  955.07   13.96
   0  -1  -6  889.80   12.67
   0  -1  -6  900.99   12.95
   0   1   7    0.41    0.19
   0   1   7    0.46    0.14
   0  -1  -7    0.34    0.13
   0  -1  -7    0.56    0.11
   0   1   8   10.38    0.27
   0   1   8   10.21    0.21
   0  -1  -8    9.40    0.35
   0  -1  -8    9.41    0.19
   0   1   9    6.30    0.19
   0   1   9    6.96    0.25
   0  -1  -9    6.06    0.25
   0  -1  -9    6.38    0.24
   0   1  10    0.59    0.31
   0   1  10    0.55    0.13
   0  -1 -10    0.94    0.19
   0  -1 -10    0.67    0.12
   0   1  11   14.40    0.41
   0   1  11   14.18    0.31
   0  -1 -11   12.42    0.55
   0  -1 -11   12.92    0.37
   0   1  12    8.51    0.37
   0   1  12    7.95    0.25
   0   1  12    7.92    0.23
   0  -1 -12    7.84    0.34
   0  -1 -12    7.51    0.23
   0   1  13    1.70    0.16
   0   1  13    1.34    0.44
   0  -1 -13    1.21    0.14
   0  -1 -13    1.22    0.39
   0   1  14    3.27    0.35
   0   1  14    3.50    0.31
   0  -1 -14    3.46    0.31
   0  -1 -14    3.66    0.29
   0   1  15    0.13    0.24
   0   1  15    0.25    0.25
   0  -1 -15    0.17    0.38
   0   2 -14    5.22    0.68
   0   2 -14    4.31    0.25
   0  -2  14    5.23    0.49
   0  -2  14    4.20    0.41
   0   2 -13   21.22    0.69
   0   2 -13   19.80    0.46
   0  -2  13   20.05    0.51
   0  -2  13   24.27    1.06
   0   2 -12    4.90    0.35
   0   2 -12    4.71    0.37
   0  -2  12    4.88    0.41
   0  -2  12    4.66    0.38
   0   2 -11    0.59    0.24
   0   2 -11    0.66    0.40
   0  -2  11    0.79    0.43
   0  -2  11    0.50    0.25
   0   2 -10    8.56    0.36
   0   2 -10    8.48    0.35
   0  -2  10    8.98    0.28
   0  -2  10    9.30    0.39
   0   2  -9    0.19    0.17
   0   2  -9    0.07    0.18
   0  -2   9   -0.03    0.11
   0  -2   9   -0.03    0.17
   0   2  -8    9.78    0.30
   0   2  -8   10.02    0.25
   0  -2   8   10.20    0.37
   0  -2   8   10.33    0.34
   0   2  -7   20.19    0.53
   0   2  -7   19.85    0.34
   0  -2   7   21.73    0.57
   0  -2   7   20.74    0.36
   0   2  -6    5.83    0.25
   0   2  -6    5.67    0.30
   0  -2   6    6.28    0.18
   0  -2   6    6.03    0.33
   0   2  -5   27.47    0.39
   0   2  -5   30.42    0.53
   0  -2   5   28.45    0.40
   0  -2   5   27.70    0.52
   0   2  -4   93.41    1.14
   0   2  -4   91.64    1.15
   0  -2   4   94.59    1.20
   0  -2   4   93.03    1.24
   0   2  -3   38.65    0.52
   0   2  -3   38.65    0.49
   0  -2   3   39.72    0.48
   0  -2   3   40.89    0.52
   0   2  -2  114.76    1.31
   0   2  -2  118.10    1.34
   0  -2   2  115.03    1.33
   0  -2   2  118.15    1.39
   0   2  -1  442.27    5.44
   0   2  -1  433.96    5.42
   0  -2   1  446.24    5.58
   0  -2   1  437.20    5.49
   0   2   0   77.41    0.83
   0   2   0   77.50    0.90
   0  -2   0   75.43    0.87
   0  -2   0   74.93    0.81
   0   2   1  122.58    1.39
   0   2   1  120.95    1.34
   0  -2  -1  119.99    1.30
   0  -2  -1  121.36    1.34
   0   2   2   13.47    0.18
   0   2   2   13.95    0.19
   0  -2  -2   13.12    0.21
   0  -2  -2   13.42    0.18
   0   2   3  360.56    4.32
   0   2   3  358.14    4.33
   0   2   3  357.45    4.27
   0  -2  -3  347.06    4.19
   0  -2  -3  339.53    4.04
   0   2   4 1211.85   17.27
   0   2   4 1164.10   16.50
   0   2   4 1175.97   16.62
   0   2   4 1184.28   16.80
   0  -2  -4 1205.31   17.32
   0   2   5  222.65    2.70
   0   2   5  225.22    2.67
   0   2   5  224.89    2.73
   0   2   5  227.77    2.76
   0  -2  -5  221.34    2.68
   0   2   6  240.51    2.92
   0   2   6  236.64    3.00
   0   2   6  240.24    2.97
   0  -2  -6  234.01    2.86
   0  -2  -6  232.38    2.92
   0   2   7  122.39    1.61
   0   2   7  120.04    1.55
   0   2   7  120.84    1.48
   0  -2  -7  118.38    1.54
   0  -2  -7  116.22    1.50
   0   2   8    8.37    0.26
   0   2   8    8.05    0.25
   0   2   8    8.07    0.33
   0  -2  -8    7.86    0.25
   0  -2  -8    9.37    0.34
   0   2   9    3.67    0.14
   0   2   9    3.77    0.30
   0   2   9    4.13    0.22
   0  -2  -9    3.73    0.21
   0  -2  -9    3.65    0.30
   0   2  10    0.58    0.18
   0   2  10    0.46    0.17
   0   2  10    0.46    0.18
   0  -2 -10    0.60    0.18
   0  -2 -10    0.62    0.16
   0   2  11    0.01    0.16
   0   2  11    0.03    0.09
   0   2  11    0.10    0.15
   0  -2 -11   -0.08    0.09
   0  -2 -11    0.38    0.15
   0   2  12    0.03    0.11
   0   2  12    0.25    0.17
   0   2  12    0.26    0.17
   0   2  12   -0.12    0.17
   0  -2 -12    0.14    0.25
   0  -2 -12    0.03    0.09
   0   2  13    2.65    0.17
   0   2  13    2.89    0.46
   0   2  13    2.72    0.27
   0   2  13    2.53    0.27
   0  -2 -13    3.06    0.27
   0   2  14    0.53    0.25
   0   2  14    1.29    0.25
   0   2  14    1.45    0.44
   0  -2 -14    1.93    0.26
   0   2  15    0.23    0.36
   0   2  15    0.09    0.23
   0  -2 -15    0.44    0.40
   0   3 -13   15.30    0.62
   0   3 -13   14.35    0.57
   0  -3  13   13.92    0.60
   0  -3  13   15.75    1.00
   0   3 -12    0.28    0.39
   0   3 -12   -0.13    0.22
   0  -3  12    0.03    0.29
   0  -3  12    0.19    0.27
   0   3 -11   22.45    0.65
   0   3 -11   21.27    0.62
   0  -3  11   23.19    0.68
   0  -3  11   22.28    0.52
   0   3 -10    9.44    0.41
   0   3 -10    9.57    0.30
   0  -3  10    9.41    0.33
   0  -3  10   10.88    0.68
   0   3  -9   10.20    0.29
   0   3  -9   10.12    0.37
   0  -3   9   11.19    0.45
   0  -3   9   11.31    0.41
   0   3  -8   11.04    0.39
   0   3  -8   11.38    0.52
   0  -3   8   12.01    0.31
   0  -3   8   12.63    0.40
   0   3  -7   64.06    1.15
   0   3  -7   65.92    1.06
   0  -3   7   68.23    0.98
   0  -3   7   66.71    1.04
   0   3  -6   34.04    0.69
   0   3  -6   34.21    0.52
   0  -3   6   34.33    0.58
   0  -3   6   35.71    0.55
   0   3  -5    6.63    0.27
   0   3  -5    6.77    0.31
   0  -3   5    7.07    0.29
   0  -3   5    6.65    0.22
   0   3  -4   18.37    0.30
   0   3  -4   18.42    0.32
   0  -3   4   18.74    0.30
   0  -3   4   20.23    0.45
   0   3  -3  341.54    4.35
   0   3  -3  348.64    4.39
   0  -3   3  351.43    4.56
   0  -3   3  345.90    4.42
   0   3  -2  344.77    4.33
   0   3  -2  354.44    4.40
   0  -3   2  347.15    4.37
   0  -3   2  355.13    4.53
   0   3  -1 1390.57   20.19
   0   3  -1 1360.65   19.78
   0  -3   1 1382.46   20.09
   0  -3   1 1365.84   19.84
   0   3   0   12.39    0.20
   0   3   0   12.31    0.19
   0  -3   0   12.14    0.19
   0  -3   0   12.15    0.20
   0   3   1   38.71    0.45
   0   3   1   38.19    0.46
   0  -3  -1   40.34    0.48
   0  -3  -1   38.45    0.50
   0   3   2   79.28    0.87
   0   3   2   80.04    0.97
   0  -3  -2   77.28    0.85
   0  -3  -2   78.92    0.90
   0   3   3    0.57    0.07
   0   3   3    0.45    0.06
   0  -3  -3    0.61    0.09
   0  -3  -3    0.50    0.11
   0   3   4  445.39    5.65
   0   3   4  432.66    5.41
   0   3   4  440.83    5.56
   0  -3  -4  416.28    5.21
   0  -3  -4  420.27    5.27
   0   3   5   22.34    0.30
   0   3   5   22.14    0.30
   0   3   5   22.67    0.30
   0   3   5   22.13    0.30
   0  -3  -5   21.63    0.30
   0   3   6  263.40    3.46
   0   3   6  256.67    3.25
   0   3   6  269.42    3.41
   0   3   6  260.02    3.27
   0   3   7  147.87    1.85
   0   3   7  149.60    1.91
   0   3   7  148.68    1.84
   0   3   7  147.07    2.00
   0  -3  -7  144.08    1.83
   0   3   8   46.45    0.68
   0   3   8   47.53    0.79
   0   3   8   47.70    0.63
   0   3   8   47.95    0.73
   0  -3  -8   46.03    0.67
   0   3   9   22.78    0.42
   0   3   9   22.23    0.46
   0   3   9   22.29    0.42
   0   3   9   22.51    0.36
   0  -3  -9   21.88    0.41
   0   3  10    0.28    0.10
   0   3  10    0.32    0.14
   0   3  10    0.26    0.10
   0   3  10    0.21    0.14
   0  -3 -10    0.03    0.13
   0   3  11   -0.03    0.13
   0   3  11   -0.11    0.14
   0   3  11    0.00    0.14
   0   3  11    0.08    0.14
   0  -3 -11    0.13    0.14
   0   3  12    0.15    0.17
   0   3  12    0.15    0.11
   0   3  12    0.19    0.16
   0   3  12    0.09    0.16
   0  -3 -12    0.07    0.15
   0   3  13    0.57    0.20
   0   3  13    0.43    0.19
   0   3  13    0.38    0.33
   0   3  13    0.37    0.12
   0  -3 -13    0.34    0.19
   0   3  14    0.03    0.18
   0   3  14    0.04    0.29
   0   3  14    0.06    0.30
   0  -3 -14   -0.09    0.31
   0   3  15   -0.08    0.35
   0   3  15    0.10    0.19
   0  -3 -15    0.02    0.18
   0   4 -13    4.06    0.43
   0   4 -13    2.56    0.40
   0  -4  13    2.72    0.79
   0  -4  13    3.05    0.44
   0   4 -12   11.41    0.56
   0   4 -12   10.37    0.52
   0  -4  12    9.94    0.40
   0  -4  12   11.74    0.61
   0   4 -11    8.09    0.32
   0   4 -11    8.56    0.72
   0  -4  11    8.40    0.52
   0  -4  11    9.51    0.52
   0   4 -10   27.91    0.97
   0   4 -10   26.89    0.57
   0  -4  10   28.94    1.06
   0  -4  10   28.54    0.61
   0   4  -9   -0.02    0.14
   0   4  -9   -0.20    0.21
   0  -4   9   -0.03    0.19
   0  -4   9    0.02    0.13
   0   4  -8    7.67    0.40
   0   4  -8    7.27    0.34
   0  -4   8    7.34    0.29
   0  -4   8    7.92    0.36
   0   4  -7    3.66    0.21
   0   4  -7    4.33    0.26
   0  -4   7    3.75    0.30
   0  -4   7    4.48    0.35
   0   4  -6   13.62    0.31
   0   4  -6   13.27    0.35
   0  -4   6   14.05    0.33
   0  -4   6   13.39    0.38
   0   4  -5   77.93    1.18
   0   4  -5   76.57    1.08
   0  -4   5   79.57    1.30
   0  -4   5   79.92    1.11
   0   4  -4   81.48    1.09
   0   4  -4   85.07    1.11
   0  -4   4   87.81    1.26
   0  -4   4   84.13    1.15
   0   4  -3  206.86    2.64
   0   4  -3  212.27    2.66
   0  -4   3  211.20    2.71
   0  -4   3  218.99    2.77
   0   4  -2  154.42    1.92
   0   4  -2  157.53    2.05
   0  -4   2  157.66    1.95
   0  -4   2  154.91    1.94
   0   4  -1    1.70    0.12
   0   4  -1    2.15    0.14
   0  -4   1    1.39    0.20
   0  -4   1    1.43    0.13
   0   4   0  603.96    7.98
   0   4   0  600.12    8.01
   0  -4   0  597.85    7.98
   0  -4   0  595.11    7.87
   0   4   1 1741.00   26.51
   0   4   1 1789.02   27.30
   0  -4  -1 1726.16   26.09
   0  -4  -1 1725.54   25.94
   0   4   2   27.16    0.35
   0   4   2   27.23    0.44
   0  -4  -2   26.87    0.37
   0  -4  -2   25.78    0.33
   0   4   3  111.90    1.34
   0   4   3  111.22    1.39
   0  -4  -3  105.52    1.20
   0  -4  -3  107.82    1.34
   0   4   4    9.73    0.19
   0   4   4    9.98    0.17
   0  -4  -4    9.45    0.18
   0  -4  -4    9.65    0.22
   0   4   5  105.46    1.28
   0   4   5  105.21    1.24
   0   4   5  107.82    1.34
   0  -4  -5   98.80    1.19
   0  -4  -5   97.63    1.17
   0   4   6    7.24    0.21
   0   4   6    7.19    0.23
   0   4   6    6.89    0.16
   0   4   6    7.23    0.22
   0  -4  -6    6.85    0.22
   0   4   7    9.52    0.19
   0   4   7    9.66    0.20
   0   4   7    9.30    0.21
   0   4   7    9.67    0.20
   0   4   8    1.99    0.13
   0   4   8    2.01    0.14
   0   4   8    1.99    0.21
   0   4   8    2.43    0.20
   0   4   9   10.88    0.40
   0   4   9   11.37    0.34
   0   4   9   11.06    0.25
   0   4   9   10.88    0.27
   0   4  10    1.20    0.26
   0   4  10    1.26    0.16
   0   4  10    1.26    0.13
   0   4  10    1.18    0.21
   0   4  11    2.50    0.15
   0   4  11    2.43    0.31
   0   4  11    2.76    0.24
   0   4  11    2.68    0.20
   0   4  12    1.10    0.31
   0   4  12    1.17    0.22
   0   4  12    1.21    0.14
   0   4  12    1.35    0.19
   0   4  13    2.86    0.17
   0   4  13    3.37    0.40
   0   4  13    2.89    0.25
   0   4  13    2.89    0.17
   0   4  14    0.08    0.18
   0   4  14   -0.06    0.17
   0   4  14    0.25    0.29
   0   4  15    0.19    0.32
   0   4  15    0.08    0.35
   0   5 -12    7.00    0.52
   0   5 -12    7.90    0.53
   0  -5  12    7.18    0.38
   0  -5  12    8.70    0.59
   0   5 -11   41.22    0.99
   0   5 -11   39.69    1.01
   0  -5  11   40.14    0.85
   0  -5  11   43.70    1.08
   0   5 -10   13.32    0.54
   0   5 -10   13.78    0.41
   0  -5  10   14.43    0.64
   0  -5  10   15.12    0.90
   0   5  -9   14.77    0.76
   0   5  -9   14.73    0.41
   0  -5   9   15.17    0.44
   0  -5   9   16.09    0.84
   0   5  -8    3.79    0.52
   0   5  -8    4.39    0.25
   0  -5   8    4.88    0.58
   0  -5   8    4.45    0.28
   0   5  -7  142.64    2.23
   0   5  -7  138.02    2.32
   0  -5   7  151.53    2.55
   0  -5   7  143.07    2.12
   0   5  -6    2.04    0.38
   0   5  -6    1.89    0.20
   0  -5   6    1.88    0.43
   0  -5   6    1.95    0.21
   0   5  -5    0.75    0.16
   0   5  -5    0.85    0.30
   0  -5   5    1.11    0.30
   0  -5   5    1.87    0.23
   0   5  -4   10.55    0.40
   0   5  -4   10.10    0.41
   0  -5   4   10.85    0.29
   0  -5   4   10.20    0.31
   0   5  -3  187.44    2.43
   0   5  -3  181.92    2.37
   0  -5   3  189.80    2.47
   0  -5   3  181.92    2.41
   0   5  -2   46.07    0.77
   0   5  -2   44.70    0.63
   0  -5   2   46.58    0.67
   0  -5   2   44.24    0.66
   0   5  -1    6.85    0.19
   0   5  -1    7.38    0.21
   0  -5   1    6.48    0.30
   0  -5   1    7.18    0.20
   0   5   0  950.60   13.45
   0   5   0  952.30   13.51
   0  -5   0  914.83   12.91
   0  -5   0  952.78   13.62
   0   5   1    1.28    0.24
   0   5   1    1.10    0.12
   0  -5  -1    1.06    0.12
   0  -5  -1    0.92    0.14
   0   5   2   32.94    0.44
   0   5   2   33.35    0.48
   0  -5  -2   33.11    0.57
   0  -5  -2   31.23    0.42
   0   5   3  210.79    2.65
   0   5   3  209.78    2.63
   0  -5  -3  204.69    2.56
   0  -5  -3  205.23    2.68
   0   5   4  804.09   11.23
   0   5   4  805.54   11.29
   0  -5  -4  769.62   10.51
   0  -5  -4  764.35   10.68
   0   5   5   39.63    0.52
   0   5   5   40.11    0.67
   0  -5  -5   37.37    0.56
   0  -5  -5   37.67    0.52
   0   5   6   -0.10    0.08
   0   5   6    0.05    0.12
   0   5   6    0.14    0.08
   0   5   6    0.15    0.15
   0  -5  -6    0.17    0.08
   0  -5  -6    0.08    0.14
   0   5   7    9.58    0.30
   0   5   7    9.09    0.21
   0   5   7    9.09    0.20
   0   5   7    9.87    0.31
   0  -5  -7    9.59    0.30
   0   5   8   66.80    0.91
   0   5   8   66.62    0.91
   0   5   8   65.15    0.88
   0   5   8   64.80    0.97
   0   5   9    0.50    0.11
   0   5   9    0.46    0.19
   0   5   9    0.54    0.12
   0   5   9    0.57    0.19
   0   5  10    5.66    0.21
   0   5  10    5.65    0.19
   0   5  10    5.75    0.19
   0   5  10    5.23    0.32
   0   5  11    0.17    0.22
   0   5  11    0.26    0.12
   0   5  11    0.19    0.14
   0   5  11    0.17    0.19
   0   5  12    0.08    0.14
   0   5  12    0.04    0.18
   0   5  12    0.14    0.11
   0   5  12    0.14    0.23
   0   5  13    0.02    0.09
   0   5  13    0.03    0.09
   0   5  13   -0.03    0.14
   0   5  13   -0.05    0.21
   0   5  14    1.99    0.17
   0   5  14    2.63    0.25
   0   5  14    2.19    0.24
   0   5  14    2.08    0.26
   0   5  15    3.89    0.30
   0   5  15    4.44    0.31
   0   6 -11   -0.06    0.27
   0   6 -11    0.08    0.19
   0  -6  11   -0.07    0.32
   0  -6  11   -0.03    0.19
   0   6 -10    0.23    0.28
   0   6 -10    0.19    0.32
   0  -6  10    0.10    0.51
   0  -6  10    0.08    0.33
   0   6  -9   25.70    0.78
   0   6  -9   26.96    0.71
   0  -6   9   28.61    1.11
   0  -6   9   28.92    0.86
   0   6  -8   10.20    0.43
   0   6  -8    9.14    0.52
   0  -6   8    9.76    0.38
   0  -6   8   10.51    0.73
   0   6  -7    2.48    0.25
   0   6  -7    2.00    0.46
   0  -6   7    2.05    0.52
   0  -6   7    2.90    0.25
   0   6  -6   20.33    0.69
   0   6  -6   21.19    0.47
   0  -6   6   21.09    0.53
   0  -6   6   21.47    0.49
   0   6  -5    5.80    0.42
   0   6  -5    5.78    0.45
   0  -6   5    5.57    0.32
   0  -6   5    5.47    0.43
   0   6  -4   58.38    0.90
   0   6  -4   58.07    1.06
   0  -6   4   61.55    0.94
   0  -6   4   56.86    1.12
   0   6  -3    0.25    0.14
   0   6  -3    0.32    0.15
   0  -6   3    0.69    0.18
   0  -6   3    0.27    0.27
   0   6  -2    3.41    0.31
   0   6  -2    3.40    0.19
   0  -6   2    3.46    0.20
   0  -6   2    3.70    0.21
   0   6  -1  198.39    2.71
   0   6  -1  202.10    2.64
   0  -6   1  192.36    2.68
   0  -6   1  199.28    2.60
   0   6   0  519.78    7.03
   0   6   0  509.52    6.90
   0  -6   0  506.92    6.90
   0  -6   0  513.01    6.96
   0   6   1    0.20    0.20
   0   6   1    0.14    0.10
   0  -6  -1    0.11    0.10
   0  -6  -1    0.18    0.12
   0   6   2   56.86    0.74
   0   6   2   56.54    0.79
   0  -6  -2   55.07    0.81
   0  -6  -2   55.77    0.88
   0   6   3  383.01    5.08
   0   6   3  394.31    5.26
   0  -6  -3  378.46    5.01
   0  -6  -3  370.57    4.91
   0   6   4  342.28    4.72
   0   6   4  353.22    4.71
   0  -6  -4  322.45    4.28
   0  -6  -4  330.77    4.35
   0   6   5   40.31    0.57
   0   6   5   40.62    0.74
   0  -6  -5   38.11    0.61
   0  -6  -5   38.65    0.58
   0   6   6   15.85    0.30
   0   6   6   16.37    0.36
   0   6   6   16.07    0.45
   0  -6  -6   14.85    0.35
   0  -6  -6   15.00    0.31
   0   6   7   42.56    0.64
   0   6   7   42.36    0.60
   0   6   7   43.48    0.74
   0  -6  -7   40.78    0.62
   0   6   8    0.30    0.12
   0   6   8    0.48    0.10
   0   6   8    0.49    0.13
   0   6   8    0.35    0.12
   0  -6  -8    0.37    0.12
   0   6   9   20.57    0.50
   0   6   9   20.12    0.37
   0   6   9   19.94    0.36
   0   6   9   19.87    0.37
   0   6  10    3.67    0.26
   0   6  10    2.97    0.17
   0   6  10    2.91    0.17
   0   6  10    3.16    0.19
   0   6  11   13.83    0.42
   0   6  11   13.10    0.41
   0   6  11   13.02    0.45
   0   6  11   13.14    0.31
   0   6  12    0.30    0.20
   0   6  12    0.04    0.18
   0   6  12    0.03    0.13
   0   6  12    0.02    0.19
   0   6  13   -0.06    0.21
   0   6  13   -0.03    0.18
   0   6  13    0.07    0.17
   0   6  13   -0.05    0.13
   0   6  14    0.97    0.19
   0   6  14    0.49    0.15
   0   6  14    0.39    0.14
   0   6  14    1.06    0.30
   0   6  15    1.04    0.35
   0   6  15    1.45    0.23
   0   7 -10    0.19    0.30
   0   7 -10    0.20    0.35
   0  -7  10    0.22    0.40
   0  -7  10    0.68    0.61
   0   7  -9    2.41    0.36
   0   7  -9    2.37    0.28
   0  -7   9    1.87    0.46
   0  -7   9    2.39    0.67
   0   7  -8    1.92    0.27
   0   7  -8    2.46    0.32
   0  -7   8    2.07    0.59
   0  -7   8    2.36    0.45
   0   7  -7    6.80    0.33
   0   7  -7    6.58    0.36
   0  -7   7    6.63    0.64
   0  -7   7    6.64    0.51
   0   7  -6    5.98    0.53
   0   7  -6    6.34    0.48
   0  -7   6    6.27    0.38
   0  -7   6    6.28    0.50
   0   7  -5   28.34    0.79
   0   7  -5   29.32    0.77
   0  -7   5   29.87    0.79
   0  -7   5   27.59    0.63
   0   7  -4    2.08    0.23
   0   7  -4    1.81    0.35
   0  -7   4    2.08    0.23
   0  -7   4    1.75    0.40
   0   7  -3   24.02    0.50
   0   7  -3   22.82    0.46
   0  -7   3   21.88    0.49
   0  -7   3   23.28    0.65
   0   7  -2   17.54    0.41
   0   7  -2   16.89    0.38
   0  -7   2   17.47    0.41
   0  -7   2   16.31    0.41
   0   7  -1    0.68    0.30
   0   7  -1    1.13    0.16
   0  -7   1    0.83    0.29
   0  -7   1    0.64    0.17
   0   7   0    3.93    0.35
   0   7   0    3.95    0.29
   0  -7   0    3.69    0.34
   0  -7   0    4.37    0.32
   0   7   1   33.57    0.57
   0   7   1   33.40    0.52
   0  -7  -1   32.26    0.63
   0   7   2   40.28    0.59
   0   7   2   40.90    0.65
   0  -7  -2   39.21    0.63
   0  -7  -2   38.29    0.68
   0   7   3   64.05    0.96
   0   7   3   63.86    0.92
   0  -7  -3   59.88    0.79
   0  -7  -3   61.01    0.87
   0   7   4   11.32    0.30
   0  -7  -4   11.06    0.32
   0  -7  -4   10.84    0.40
   0   7   5   29.81    0.57
   0   7   5   28.12    0.51
   0  -7  -5   27.03    0.41
   0  -7  -5   27.41    0.48
   0   7   6  187.09    2.60
   0   7   6  189.50    2.47
   0  -7  -6  176.40    2.41
   0  -7  -6  175.27    2.27
   0   7   7   69.79    0.96
   0   7   7   69.01    1.03
   0   7   7   70.31    1.06
   0  -7  -7   64.18    1.08
   0  -7  -7   66.34    1.00
   0   7   8   10.31    0.40
   0   7   8   10.13    0.33
   0   7   8   10.69    0.36
   0   7   8   10.65    0.41
   0  -7  -8    9.82    0.39
   0   7   9    1.48    0.16
   0   7   9    1.92    0.22
   0   7   9    1.76    0.18
   0   7   9    1.84    0.25
   0   7  10    0.29    0.14
   0   7  10    0.16    0.21
   0   7  10    0.08    0.23
   0   7  11   -0.07    0.19
   0   7  11   -0.03    0.11
   0   7  11    0.03    0.19
   0   7  11   -0.03    0.11
   0   7  12    0.43    0.14
   0   7  12    0.52    0.24
   0   7  12    0.66    0.24
   0   7  12    0.51    0.15
   0   7  13    0.12    0.13
   0   7  13   -0.02    0.14
   0   7  13    0.02    0.19
   0   7  13   -0.06    0.19
   0   7  14    0.48    0.25
   0   7  14    0.70    0.30
   0   7  14    0.30    0.24
   0   7  14    0.48    0.17
   0   7  15    0.31    0.29
   0   7  15    0.28    0.30
   0   8  -9    9.54    0.44
   0   8  -9    9.26    0.53
   0  -8   9   10.78    0.72
   0  -8   9    9.83    0.95
   0   8  -8   17.53    0.55
   0   8  -8   17.37    0.62
   0  -8   8   18.58    0.82
   0  -8   8   19.52    1.05
   0   8  -7    0.57    0.25
   0   8  -7    1.12    0.46
   0  -8   7    0.90    0.43
   0  -8   7    0.61    0.55
   0   8  -6    4.77    0.51
   0   8  -6    5.21    0.55
   0  -8   6    5.37    0.52
   0  -8   6    4.99    0.40
   0   8  -5    3.84    0.46
   0   8  -5    2.94    0.46
   0  -8   5    3.19    0.32
   0  -8   5    3.64    0.46
   0   8  -4   42.81    0.99
   0   8  -4   44.54    1.02
   0  -8   4   43.05    0.81
   0  -8   4   42.51    1.06
   0   8  -3   48.47    0.86
   0   8  -3   46.89    1.01
   0  -8   3   49.40    0.88
   0  -8   3   46.40    0.85
   0   8  -2   36.38    0.68
   0   8  -2   35.81    0.80
   0  -8   2   33.99    0.65
   0  -8   2   34.82    0.66
   0   8  -1    7.58    0.40
   0   8  -1    8.05    0.32
   0  -8   1    7.27    0.29
   0  -8   1    8.07    0.31
   0   8   0   32.70    0.57
   0   8   0   33.52    0.63
   0  -8   0   32.60    0.60
   0  -8   0   30.46    0.55
   0   8   1   19.20    0.39
   0   8   1   20.02    0.46
   0  -8  -1   19.01    0.44
   0  -8  -1   18.36    0.39
   0   8   2   73.48    1.17
   0   8   2   72.98    1.09
   0  -8  -2   70.34    1.05
   0  -8  -2   70.03    1.12
   0   8   3    4.56    0.20
   0   8   3    4.56    0.26
   0  -8  -3    3.96    0.29
   0  -8  -3    4.04    0.24
   0   8   4    0.12    0.16
   0   8   4    0.16    0.12
   0  -8  -4    0.19    0.24
   0  -8  -4    0.05    0.10
   0   8   5   52.25    0.84
   0   8   5   52.99    0.88
   0  -8  -5   49.17    0.79
   0  -8  -5   48.35    0.76
   0   8   6    1.66    0.15
   0   8   6    1.49    0.19
   0  -8  -6    1.53    0.13
   0  -8  -6    1.36    0.18
   0   8   7    3.52    0.16
   0   8   7    3.91    0.28
   0   8   7    3.48    0.35
   0  -8  -7    3.14    0.21
   0  -8  -7    3.25    0.15
   0   8   8    5.58    0.25
   0   8   8    5.08    0.27
   0   8   8    5.53    0.20
   0  -8  -8    4.17    0.17
   0  -8  -8    4.91    0.35
   0   8   9    3.63    0.19
   0   8   9    3.76    0.35
   0   8   9    3.52    0.25
   0   8   9    3.60    0.22
   0  -8  -9    3.52    0.21
   0   8  10    7.99    0.34
   0   8  10    8.32    0.28
   0   8  10    8.73    0.30
   0   8  10    8.43    0.26
   0   8  11    6.69    0.27
   0   8  11    6.89    0.37
   0   8  11    6.63    0.24
   0   8  11    5.93    0.24
   0   8  12    0.03    0.23
   0   8  12    0.21    0.20
   0   8  12    0.22    0.15
   0   8  12    0.27    0.23
   0   8  13    0.52    0.18
   0   8  13    0.94    0.17
   0   8  13    0.55    0.16
   0   8  13    0.77    0.16
   0   8  14    0.72    0.16
   0   8  14    0.90    0.28
   0   8  14    0.87    0.29
   0   8  14    0.24    0.16
   0   9  -8    2.12    0.64
   0   9  -8    2.66    0.35
   0  -9   8    1.99    0.58
   0  -9   8    1.75    0.73
   0   9  -7   40.29    1.25
   0   9  -7   40.43    0.91
   0  -9   7   44.49    1.45
   0  -9   7   42.52    0.96
   0   9  -6   19.18    0.59
   0   9  -6   18.46    0.60
   0  -9   6   20.43    0.89
   0  -9   6   20.72    0.69
   0   9  -5   29.09    0.70
   0   9  -5   29.26    0.95
   0  -9   5   29.22    0.75
   0  -9   5   29.81    0.96
   0   9  -4   20.39    0.77
   0   9  -4   18.55    0.52
   0  -9   4   18.64    0.54
   0  -9   4   18.59    0.79
   0   9  -3   43.47    1.06
   0   9  -3   41.77    0.79
   0  -9   3   41.53    0.82
   0  -9   3   40.35    0.80
   0   9  -2   24.69    0.79
   0   9  -2   23.13    0.52
   0  -9   2   23.55    0.77
   0  -9   2   22.37    0.53
   0   9  -1   83.13    1.28
   0   9  -1   87.06    1.61
   0  -9   1   84.98    1.34
   0  -9   1   79.51    1.27
   0   9   0   51.45    0.85
   0  -9   0   52.78    1.12
   0  -9   0   49.99    0.84
   0   9   1    7.01    0.39
   0   9   1    6.61    0.52
   0  -9  -1    6.39    0.39
   0  -9  -1    6.53    0.48
   0   9   2   62.64    1.08
   0   9   2   65.45    1.24
   0  -9  -2   60.21    0.97
   0  -9  -2   59.44    0.90
   0   9   3   56.60    0.93
   0   9   3   55.11    0.85
   0  -9  -3   52.64    0.88
   0  -9  -3   51.21    0.78
   0   9   4   40.05    0.64
   0   9   4   40.40    0.75
   0  -9  -4   38.16    0.87
   0  -9  -4   37.78    0.73
   0   9   5   35.76    0.69
   0   9   5   36.07    0.68
   0  -9  -5   32.62    0.78
   0  -9  -5   32.11    0.52
   0   9   6    0.07    0.22
   0   9   6   -0.02    0.09
   0  -9  -6    0.06    0.10
   0  -9  -6    0.06    0.15
   0   9   7    1.88    0.27
   0   9   7    1.80    0.23
   0  -9  -7    1.70    0.23
   0  -9  -7    1.61    0.34
   0   9   8   49.85    0.90
   0   9   8   48.38    0.85
   0   9   8   49.29    0.87
   0  -9  -8   45.91    0.79
   0  -9  -8   45.98    0.79
   0   9   9    1.25    0.21
   0   9   9    1.40    0.19
   0   9   9    1.06    0.23
   0   9   9    1.26    0.25
   0  -9  -9    1.33    0.32
   0   9  10    1.13    0.35
   0   9  10    1.10    0.23
   0   9  10    1.38    0.19
   0   9  10    1.06    0.25
   0  -9 -10    1.01    0.19
   0   9  11    0.62    0.29
   0   9  11    0.64    0.19
   0   9  11    0.57    0.25
   0   9  12    5.04    0.22
   0   9  12    5.20    0.38
   0   9  12    5.53    0.29
   0   9  12    4.64    0.26
   0   9  13    0.02    0.18
   0   9  13   -0.09    0.14
   0   9  13   -0.03    0.13
   0   9  13    0.08    0.12
   0  10  -7    8.37    0.47
   0  10  -7    7.94    0.51
   0 -10   7    7.44    0.47
   0 -10   7    8.05    0.88
   0  10  -6   19.34    0.65
   0  10  -6   20.19    0.65
   0 -10   6   19.41    0.70
   0 -10   6   19.07    0.63
   0  10  -5    3.93    0.40
   0  10  -5    4.02    0.38
   0 -10   5    4.14    0.62
   0 -10   5    3.58    0.42
   0  10  -4   14.87    0.52
   0  10  -4   16.28    0.57
   0 -10   4   15.14    0.79
   0 -10   4   13.95    0.81
   0  10  -3   21.22    0.62
   0  10  -3   19.78    0.76
   0 -10   3   19.39    0.57
   0 -10   3   19.79    0.59
   0  10  -2    9.16    0.57
   0  10  -2    9.12    0.45
   0 -10   2    8.60    0.43
   0 -10   2    8.97    0.40
   0  10  -1   52.15    1.12
   0  10  -1   54.42    1.03
   0 -10   1   49.86    1.11
   0 -10   1   50.26    1.22
   0  10   0   63.04    1.22
   0  10   0   67.13    1.17
   0 -10   0   63.30    1.12
   0 -10   0   59.62    1.18
   0  10   1    4.18    0.33
   0  10   1    4.06    0.39
   0 -10  -1    3.66    0.25
   0 -10  -1    3.76    0.31
   0  10   2   23.17    0.63
   0  10   2   25.33    0.83
   0 -10  -2   22.49    0.77
   0 -10  -2   22.66    0.63
   0  10   3   52.89    1.18
   0  10   3   49.90    0.81
   0 -10  -3   49.30    1.09
   0 -10  -3   47.65    0.76
   0  10   4    5.73    0.34
   0  10   4    5.71    0.25
   0 -10  -4    6.02    0.49
   0 -10  -4    5.20    0.35
   0  10   5   62.28    1.09
   0  10   5   62.59    0.95
   0 -10  -5   58.35    1.19
   0 -10  -5   57.17    0.99
   0  10   6    3.90    0.21
   0  10   6    3.94    0.49
   0 -10  -6    3.63    0.30
   0 -10  -6    3.41    0.28
   0  10   7    0.09    0.23
   0  10   7    0.29    0.20
   0 -10  -7    0.05    0.16
   0 -10  -7   -0.03    0.16
   0  10   8   36.53    0.76
   0  10   8   38.47    0.96
   0  10   8   35.78    0.60
   0 -10  -8   34.67    0.57
   0 -10  -8   35.33    0.88
   0  10   9    0.07    0.23
   0  10   9    0.23    0.19
   0  10   9    0.23    0.20
   0 -10  -9    0.25    0.19
   0  10  10    3.90    0.35
   0  10  10    4.31    0.28
   0  10  10    4.83    0.46
   0 -10 -10    3.72    0.27
   0  10  11   11.32    0.57
   0  10  11   10.33    0.45
   0  10  11    9.59    0.52
   0  10  12    0.18    0.14
   0  10  12    0.24    0.18
   0  10  12    0.12    0.22
   0  10  12    0.05    0.31
   0  10  13   -0.22    0.17
   0  10  13    0.19    0.30
   0  11  -5   13.75    0.59
   0  11  -5   13.01    0.82
   0 -11   5   12.95    0.57
   0 -11   5   11.88    0.59
   0  11  -4    0.16    0.29
   0  11  -4    0.15    0.25
   0 -11   4   -0.12    0.43
   0 -11   4    0.29    0.44
   0  11  -3    0.12    0.29
   0  11  -3    0.27    0.25
   0 -11   3    0.30    0.47
   0 -11   3    0.31    0.28
   0  11  -2    8.00    0.73
   0  11  -2    7.67    0.39
   0 -11   2    6.84    0.61
   0 -11   2    7.69    0.44
   0  11  -1    0.42    0.22
   0  11  -1    0.36    0.47
   0 -11   1    0.09    0.36
   0 -11   1    0.40    0.27
   0  11   0    1.61    0.32
   0  11   0    1.37    0.24
   0 -11   0    1.42    0.31
   0 -11   0    1.70    0.40
   0  11   1    2.89    0.38
   0  11   1    4.25    0.41
   0 -11  -1    3.48    0.42
   0 -11  -1    3.50    0.55
   0  11   2   28.10    0.69
   0  11   2   27.52    0.74
   0 -11  -2   25.16    0.53
   0 -11  -2   26.08    0.64
   0  11   3    2.17    0.49
   0  11   3    1.32    0.32
   0 -11  -3    1.92    0.30
   0 -11  -3    1.77    0.20
   0  11   4    6.23    0.40
   0  11   4    6.25    0.38
   0 -11  -4    5.72    0.25
   0 -11  -4    6.25    0.35
   0  11   5    6.27    0.38
   0  11   5    6.51    0.39
   0 -11  -5    4.99    0.35
   0 -11  -5    5.59    0.34
   0  11   6   12.43    0.68
   0  11   6   12.12    0.46
   0 -11  -6   10.79    0.41
   0 -11  -6   11.42    0.41
   0  11   7    8.76    0.41
   0  11   7    8.34    0.41
   0 -11  -7    8.20    0.36
   0 -11  -7    8.44    0.38
   0  11   8    1.50    0.47
   0  11   8    2.17    0.30
   0 -11  -8    1.86    0.26
   0 -11  -8    2.11    0.27
   0  11   9    0.30    0.21
   0  11   9    0.08    0.19
   0  11   9   -0.22    0.18
   0 -11  -9    0.22    0.34
   0 -11  -9    0.30    0.13
   0  11  10    0.88    0.26
   0  11  10    0.94    0.37
   0 -11 -10    0.90    0.37
   0  11  11    5.85    0.33
   0  11  11    6.08    0.55
   0 -11 -11    5.89    0.32
   0  11  12   -0.10    0.33
   0  12  -3    7.56    0.69
   0  12  -3    7.58    0.52
   0 -12   3    7.67    0.51
   0 -12   3    6.74    0.46
   0  12  -2    1.63    0.49
   0  12  -2    1.99    0.40
   0 -12   2    1.25    0.50
   0 -12   2    1.37    0.57
   0  12  -1    1.17    0.38
   0  12  -1    1.90    0.29
   0 -12   1    0.94    0.27
   0 -12   1    0.90    0.32
   0  12   0    1.66    0.38
   0  12   0    2.10    0.28
   0 -12   0    1.34    0.56
   0 -12   0    1.35    0.27
   0  12   1   11.28    0.41
   0  12   1   11.50    0.81
   0 -12  -1   11.09    0.41
   0 -12  -1   11.00    0.49
   0  12   2    0.57    0.20
   0  12   2    0.66    0.31
   0 -12  -2    0.49    0.47
   0 -12  -2    0.62    0.33
   0  12   3    0.40    0.31
   0  12   3    0.66    0.30
   0 -12  -3    0.78    0.28
   0 -12  -3    0.41    0.31
   0  12   4    0.41    0.30
   0  12   4    0.54    0.48
   0 -12  -4    0.44    0.28
   0 -12  -4    0.69    0.19
   0  12   5    5.86    0.41
   0  12   5    5.87    0.42
   0 -12  -5    5.65    0.38
   0 -12  -5    4.96    0.37
   0  12   6    1.61    0.52
   0  12   6    1.47    0.32
   0 -12  -6    1.49    0.29
   0 -12  -6    1.23    0.30
   0  12   7    3.68    0.24
   0  12   7    3.75    0.36
   0 -12  -7    2.98    0.20
   0 -12  -7    2.88    0.33
   0  12   8   11.88    0.35
   0  12   8   11.98    0.73
   0 -12  -8   10.14    0.44
   0 -12  -8   10.19    0.30
   0  12   9    0.55    0.17
   0  12   9    1.15    0.29
   0 -12  -9    0.79    0.16
   0 -12  -9    0.93    0.25
   0  12  10    2.70    0.48
   0  12  10    3.29    0.34
   0 -12 -10    3.15    0.47
   0  13   0    9.72    0.60
   0  13   0    8.31    0.42
   0 -13   0    8.06    0.41
   0 -13   0    7.44    0.52
   0  13   1    0.04    0.21
   0  13   1    0.12    0.30
   0 -13  -1    0.16    0.21
   0 -13  -1    0.25    0.50
   0  13   2    0.30    0.22
   0  13   2    0.64    0.57
   0 -13  -2   -0.09    0.30
   0 -13  -2    0.31    0.20
   0  13   3    1.42    0.39
   0  13   3    1.50    0.37
   0 -13  -3    1.45    0.36
   0 -13  -3    1.21    0.23
   0  13   4    2.89    0.40
   0  13   4    3.19    0.41
   0 -13  -4    1.77    0.59
   0 -13  -4    2.43    0.38
   0  13   5    4.35    0.44
   0  13   5    4.41    0.27
   0 -13  -5    4.25    0.25
   0 -13  -5    3.42    0.40
   0  13   6    2.17    0.23
   0  13   6    1.77    0.40
   0 -13  -6    1.95    0.35
   0 -13  -6    1.69    0.33
   0  13   7    0.58    0.34
   0  13   7    0.60    0.30
   0 -13  -7    0.72    0.30
   0 -13  -7    0.79    0.28
   0  13   8   -0.27    0.46
   0 -13  -8    0.08    0.24
   1 -12  -9    1.55    0.31
  -1  12   9    1.97    0.36
  -1  12   9    1.97    0.32
   1 -12  -8    0.59    0.29
  -1  12   8    0.95    0.54
   1 -12  -7    6.59    0.43
  -1  12   7    7.43    0.48
   1 -12  -6    2.99    0.37
   1 -12  -6    2.35    0.28
  -1  12   6    4.05    0.66
   1 -12  -5    7.18    0.38
   1 -12  -5    7.59    0.46
  -1  12   5    7.43    0.27
  -1  12   5    8.39    0.50
   1 -12  -4    4.23    0.35
   1 -12  -4    3.84    0.64
  -1  12   4    5.00    0.71
  -1  12   4    4.40    0.25
   1 -12  -3   34.38    0.85
   1 -12  -3   32.99    0.63
  -1  12   3   35.08    0.85
  -1  12   3   38.52    0.95
   1 -12  -2   13.12    0.56
   1 -12  -2   13.01    0.59
  -1  12   2   13.76    0.41
  -1  12   2   15.57    0.63
   1 -12  -1   12.37    0.82
   1 -12  -1   12.25    0.57
  -1  12   1   14.10    0.89
  -1  12   1   12.07    0.41
   1 -12   0    3.03    0.39
   1 -12   0    2.75    0.28
  -1  12   0    2.51    0.68
  -1  12   0    2.98    0.43
   1 -12   1    0.63    0.25
   1 -12   1    0.25    0.53
  -1  12  -1    0.95    0.35
  -1  12  -1    0.79    0.41
   1 -12   2   27.75    0.96
   1 -12   2   28.80    0.83
  -1  12  -2   28.35    0.73
  -1  12  -2   31.53    0.90
  -1  11  11    0.70    0.46
  -1  11  11    0.84    0.27
   1 -11 -10    8.20    0.58
  -1  11  10    9.43    0.46
  -1  11  10    9.29    0.64
   1 -11  -9    4.09    0.52
  -1  11   9    4.13    0.54
  -1  11   9    4.77    0.37
   1 -11  -8    0.52    0.25
  -1  11   8    0.37    0.45
   1 -11  -7    3.84    0.26
   1 -11  -7    3.89    0.34
  -1  11   7    4.22    0.37
  -1  11   7    3.57    0.19
   1 -11  -6    6.80    0.32
   1 -11  -6    7.23    0.39
  -1  11   6    7.45    0.67
  -1  11   6    7.00    0.24
   1 -11  -5    2.15    0.30
   1 -11  -5    1.98    0.25
  -1  11   5    2.22    0.34
  -1  11   5    1.87    0.17
   1 -11  -4    1.70    0.30
   1 -11  -4    1.87    0.27
  -1  11   4    1.40    0.53
  -1  11   4    1.77    0.27
   1 -11  -3    0.01    0.40
   1 -11  -3   -0.15    0.23
  -1  11   3   -0.04    0.21
  -1  11   3   -0.01    0.39
   1 -11  -2   23.16    0.65
   1 -11  -2   21.62    0.47
  -1  11   2   22.85    0.64
  -1  11   2   25.37    0.71
   1 -11  -1   11.79    0.54
   1 -11  -1   12.79    0.52
  -1  11   1   13.66    0.56
  -1  11   1   13.07    0.39
   1 -11   0   18.58    0.68
   1 -11   0   19.15    0.89
  -1  11   0   21.77    0.68
  -1  11   0   19.82    0.51
   1 -11   1   63.53    1.24
   1 -11   1   61.68    1.34
  -1  11  -1   70.19    1.67
  -1  11  -1   66.14    1.17
   1 -11   2   -0.08    0.38
   1 -11   2    0.08    0.31
  -1  11  -2   -0.25    0.46
  -1  11  -2   -0.03    0.34
   1 -11   3    9.35    0.49
   1 -11   3    9.19    0.46
  -1  11  -3   10.99    0.81
  -1  11  -3    9.48    0.64
   1 -11   4    2.86    0.38
   1 -11   4    1.83    0.58
  -1  11  -4    2.21    0.40
  -1  11  -4    2.41    0.33
  -1  10  12    0.67    0.37
  -1  10  12    0.57    0.41
  -1  10  11    2.50    0.49
  -1  10  11    2.56    0.29
   1 -10 -10    3.11    0.29
  -1  10  10    3.40    0.31
  -1  10  10    4.36    0.52
   1 -10  -9    0.46    0.36
  -1  10   9    0.68    0.38
  -1  10   9    0.54    0.25
   1 -10  -8    1.84    0.42
   1 -10  -8    1.99    0.14
  -1  10   8    2.27    0.21
  -1  10   8    2.22    0.24
  -1  10   8    1.97    0.48
   1 -10  -7   23.81    0.41
   1 -10  -7   24.64    0.59
  -1  10   7   26.95    0.65
  -1  10   7   24.91    0.42
  -1  10   7   27.00    0.55
   1 -10  -6    1.87    0.21
   1 -10  -6    1.44    0.27
  -1  10   6    1.76    0.46
  -1  10   6    1.90    0.24
   1 -10  -5    1.86    0.26
   1 -10  -5    1.80    0.23
  -1  10   5    1.60    0.24
  -1  10   5    1.84    0.30
   1 -10  -4   18.10    0.50
   1 -10  -4   17.44    0.35
  -1  10   4   18.30    0.48
  -1  10   4   19.32    0.56
   1 -10  -3    3.10    0.19
   1 -10  -3    3.08    0.30
  -1  10   3    3.63    0.52
  -1  10   3    3.08    0.29
   1 -10  -2    3.97    0.32
   1 -10  -2    4.32    0.51
  -1  10   2    4.56    0.34
  -1  10   2    4.39    0.32
   1 -10  -1    1.72    0.20
   1 -10  -1    2.31    0.46
  -1  10   1    2.55    0.31
  -1  10   1    2.73    0.32
   1 -10   0    0.40    0.30
   1 -10   0    0.45    0.25
  -1  10   0    0.68    0.30
  -1  10   0    0.65    0.28
   1 -10   1    4.33    0.56
   1 -10   1    3.20    0.44
  -1  10  -1    4.19    0.36
  -1  10  -1    3.46    0.27
   1 -10   2   21.68    0.61
   1 -10   2   20.81    0.75
  -1  10  -2   22.32    0.63
  -1  10  -2   21.21    0.53
   1 -10   3    0.15    0.38
   1 -10   3   -0.03    0.20
  -1  10  -3   -0.08    0.21
  -1  10  -3   -0.03    0.26
   1 -10   4  107.90    1.90
   1 -10   4  105.23    1.83
  -1  10  -4  107.91    2.10
  -1  10  -4  113.05    1.96
   1 -10   5   -0.08    0.25
   1 -10   5    0.10    0.24
  -1  10  -5    0.35    0.29
  -1  10  -5   -0.08    0.42
   1 -10   6    0.01    0.49
   1 -10   6    0.14    0.27
  -1  10  -6    0.02    0.25
  -1  10  -6   -0.20    0.27
  -1   9  13    5.81    0.34
  -1   9  13    5.87    0.33
  -1   9  12    1.39    0.39
  -1   9  12    1.83    0.25
  -1   9  11    0.84    0.24
  -1   9  11    0.78    0.23
  -1   9  10    8.57    0.30
  -1   9  10    9.53    0.55
  -1   9  10    9.46    0.53
  -1   9  10    8.64    0.24
   1  -9  -9    7.06    0.32
  -1   9   9    6.56    0.20
  -1   9   9    6.92    0.33
  -1   9   9    6.83    0.26
  -1   9   9    7.56    0.35
   1  -9  -8    0.39    0.19
  -1   9   8    0.29    0.09
  -1   9   8    0.36    0.11
  -1   9   8    0.30    0.21
  -1   9   8    0.35    0.20
   1  -9  -7    0.03    0.13
   1  -9  -7    0.09    0.27
  -1   9   7   -0.08    0.30
  -1   9   7    0.04    0.14
  -1   9   7    0.13    0.15
   1  -9  -6    1.41    0.37
   1  -9  -6    1.28    0.12
  -1   9   6    1.15    0.25
  -1   9   6    1.37    0.13
   1  -9  -5   11.92    0.33
   1  -9  -5   11.59    0.39
  -1   9   5   12.52    0.27
  -1   9   5   12.50    0.41
   1  -9  -4   21.94    0.38
   1  -9  -4   21.83    0.52
  -1   9   4   23.09    0.50
  -1   9   4   23.19    0.77
   1  -9  -3    0.58    0.13
   1  -9  -3    0.71    0.22
  -1   9   3    0.57    0.21
  -1   9   3    0.57    0.38
   1  -9  -2    2.21    0.17
   1  -9  -2    1.97    0.26
  -1   9   2    2.32    0.28
  -1   9   2    1.88    0.26
   1  -9  -1    6.05    0.32
   1  -9  -1    4.99    0.23
  -1   9   1    5.73    0.24
  -1   9   1    6.21    0.35
   1  -9   0   32.11    0.87
   1  -9   0   31.26    0.57
  -1   9   0   32.65    0.59
  -1   9   0   33.54    0.70
   1  -9   1   24.55    0.57
   1  -9   1   24.23    0.67
  -1   9  -1   23.71    0.49
  -1   9  -1   25.85    0.61
   1  -9   2    9.08    0.52
   1  -9   2    9.47    0.57
  -1   9  -2    8.90    0.47
  -1   9  -2    8.89    0.40
   1  -9   3    0.14    0.22
   1  -9   3    0.11    0.19
  -1   9  -3    0.33    0.37
  -1   9  -3    1.93    0.28
   1  -9   4    4.34    0.35
   1  -9   4    3.79    0.55
  -1   9  -4    4.34    0.57
  -1   9  -4    3.68    0.31
   1  -9   5    8.59    0.66
   1  -9   5    8.68    0.46
  -1   9  -5    8.70    0.42
  -1   9  -5    8.60    0.68
   1  -9   6    6.11    0.41
   1  -9   6    6.10    0.73
  -1   9  -6    6.49    0.41
  -1   9  -6    6.19    0.65
   1  -9   7   18.91    0.72
   1  -9   7   18.47    0.61
  -1   9  -7   19.31    0.61
  -1   9  -7   18.08    0.63
  -1   8  13    1.97    0.25
  -1   8  13    1.85    0.23
  -1   8  12    0.10    0.18
  -1   8  12    0.13    0.27
  -1   8  11    0.41    0.17
  -1   8  11    0.11    0.19
  -1   8  11    0.28    0.12
  -1   8  11    0.37    0.19
  -1   8  10    2.06    0.14
  -1   8  10    2.74    0.37
  -1   8  10    2.43    0.25
  -1   8  10    2.23    0.20
   1  -8  -9    6.60    0.30
  -1   8   9    7.35    0.49
  -1   8   9    6.82    0.31
  -1   8   9    6.96    0.26
  -1   8   9    7.48    0.29
   1  -8  -8    0.59    0.30
  -1   8   8    0.57    0.32
  -1   8   8    0.49    0.18
  -1   8   8    0.73    0.10
  -1   8   8    0.72    0.20
   1  -8  -7    6.72    0.24
   1  -8  -7    6.86    0.29
  -1   8   7    7.50    0.27
  -1   8   7    7.12    0.25
  -1   8   7    7.94    0.46
   1  -8  -6   14.06    0.38
   1  -8  -6   13.47    0.25
  -1   8   6   14.08    0.27
  -1   8   6   14.89    0.41
   1  -8  -5    3.66    0.39
   1  -8  -5    3.78    0.14
  -1   8   5    4.02    0.27
  -1   8   5    4.28    0.24
   1  -8  -4    1.88    0.22
   1  -8  -4    1.69    0.19
  -1   8   4    2.09    0.14
  -1   8   4    1.72    0.38
   1  -8  -3    2.38    0.24
   1  -8  -3    2.42    0.23
  -1   8   3    2.91    0.25
  -1   8   3    2.94    0.41
   1  -8  -2   46.85    0.80
   1  -8  -2   49.34    0.82
  -1   8   2   49.51    0.73
  -1   8   2   51.41    1.06
   1  -8  -1    0.08    0.15
   1  -8  -1   -0.08    0.17
  -1   8   1   -0.06    0.10
  -1   8   1    0.03    0.28
   1  -8   0    3.51    0.21
   1  -8   0    3.98    0.26
  -1   8   0    3.44    0.19
  -1   8   0    3.73    0.42
   1  -8   1   32.82    0.84
   1  -8   1   31.76    0.74
  -1   8  -1   32.32    0.57
  -1   8  -1   34.12    0.86
   1  -8   2    7.97    0.34
   1  -8   2    7.71    0.46
  -1   8  -2    7.84    0.54
  -1   8  -2    7.51    0.29
   1  -8   3   18.79    0.49
   1  -8   3   17.80    0.46
  -1   8  -3   19.40    0.49
  -1   8  -3   18.09    0.44
   1  -8   4    1.08    0.25
   1  -8   4    0.83    0.24
  -1   8  -4    1.26    0.25
  -1   8  -4    0.96    0.22
   1  -8   5   22.17    0.76
   1  -8   5   21.44    0.57
  -1   8  -5   21.49    0.54
  -1   8  -5   22.78    0.57
   1  -8   6    4.23    0.52
   1  -8   6    4.87    0.62
  -1   8  -6    5.37    0.54
  -1   8  -6    5.94    0.36
   1  -8   7   -0.04    0.26
   1  -8   7   -0.04    0.20
  -1   8  -7    0.03    0.39
  -1   8  -7    0.10    0.34
   1  -8   8    2.15    0.30
   1  -8   8    2.84    0.41
  -1   8  -8    1.76    0.37
  -1   8  -8    2.00    0.30
   1  -8   9    4.87    0.57
   1  -8   9    6.27    0.52
  -1   8  -9    5.16    0.45
  -1   8  -9    5.23    0.37
  -1   7  14    0.59    0.30
  -1   7  14    0.74    0.31
  -1   7  13    0.22    0.13
  -1   7  13    0.19    0.13
  -1   7  13    0.50    0.28
  -1   7  13    0.21    0.17
  -1   7  12    2.45    0.25
  -1   7  12    2.60    0.26
  -1   7  12    2.54    0.34
  -1   7  12    2.15    0.35
  -1   7  11    5.05    0.26
  -1   7  11    4.92    0.25
  -1   7  11    4.46    0.28
  -1   7  11    5.28    0.41
  -1   7  10   15.74    0.59
  -1   7  10   15.92    0.57
  -1   7  10   14.55    0.38
  -1   7  10   15.14    0.40
  -1   7   9   48.96    0.86
  -1   7   9   49.42    0.80
  -1   7   9   49.27    0.84
  -1   7   9   47.49    0.76
   1  -7  -8    0.23    0.26
  -1   7   8    0.13    0.12
  -1   7   8   -0.04    0.25
  -1   7   8    0.02    0.08
  -1   7   8   -0.04    0.25
   1  -7  -7   13.77    0.36
  -1   7   7   13.91    0.34
  -1   7   7   13.46    0.37
  -1   7   7   13.15    0.36
  -1   7   7   13.35    0.24
   1  -7  -6   17.66    0.41
   1  -7  -6   18.13    0.28
  -1   7   6   20.36    0.41
  -1   7   6   20.10    0.30
  -1   7   6   19.90    0.59
   1  -7  -5    1.42    0.19
   1  -7  -5    1.59    0.10
  -1   7   5    2.13    0.19
  -1   7   5    1.42    0.21
   1  -7  -4   10.43    0.20
   1  -7  -4   10.71    0.45
  -1   7   4   11.69    0.30
  -1   7   4   10.94    0.34
   1  -7  -3    1.14    0.11
   1  -7  -3    0.97    0.19
  -1   7   3    1.03    0.19
  -1   7   3    1.23    0.19
   1  -7  -2    9.30    0.22
   1  -7  -2    9.99    0.30
  -1   7   2   10.05    0.32
  -1   7   2    9.62    0.22
   1  -7  -1   25.95    0.51
   1  -7  -1   25.52    0.43
  -1   7   1   26.09    0.53
  -1   7   1   27.37    0.69
   1  -7   0   15.95    0.35
   1  -7   0   17.01    0.41
  -1   7   0   17.19    0.59
  -1   7   0   16.78    0.34
   1  -7   1   41.83    0.71
   1  -7   1   38.51    0.79
  -1   7  -1   41.39    0.70
  -1   7  -1   39.65    0.63
   1  -7   2    5.15    0.39
   1  -7   2    5.46    0.27
  -1   7  -2    5.33    0.23
  -1   7  -2    5.82    0.28
   1  -7   3   25.51    0.69
   1  -7   3   27.03    0.73
  -1   7  -3   27.42    0.72
  -1   7  -3   25.41    0.51
   1  -7   4   48.57    0.84
   1  -7   4   46.82    0.85
  -1   7  -4   51.06    1.04
  -1   7  -4   47.40    0.82
   1  -7   5   12.10    0.64
   1  -7   5   13.45    0.41
  -1   7  -5   12.78    0.41
  -1   7  -5   13.34    0.41
   1  -7   6    1.34    0.29
   1  -7   6    1.30    0.38
  -1   7  -6    1.39    0.25
  -1   7  -6    1.21    0.23
   1  -7   7   26.35    0.80
   1  -7   7   26.22    0.69
  -1   7  -7   25.50    0.78
  -1   7  -7   25.58    0.86
   1  -7   8    4.34    0.50
   1  -7   8    4.22    0.43
  -1   7  -8    4.13    0.30
  -1   7  -8    4.05    0.36
   1  -7   9   10.40    0.57
   1  -7   9   11.15    0.63
  -1   7  -9    9.83    0.49
  -1   7  -9   10.32    0.41
   1  -7  10    3.40    0.50
   1  -7  10    3.41    0.50
  -1   7 -10    3.40    0.41
  -1   7 -10    2.92    0.30
  -1   6  14    0.69    0.17
  -1   6  14    0.52    0.27
  -1   6  14    0.93    0.18
  -1   6  14    0.85    0.19
  -1   6  13    0.28    0.26
  -1   6  13    0.22    0.14
  -1   6  13    0.19    0.14
  -1   6  13    0.65    0.16
  -1   6  12    6.41    0.26
  -1   6  12    6.30    0.23
  -1   6  12    6.36    0.32
  -1   6  12    6.57    0.26
  -1   6  11    4.51    0.24
  -1   6  11    4.40    0.26
  -1   6  11    3.93    0.27
  -1   6  11    4.12    0.35
  -1   6  10   16.04    0.40
  -1   6  10   15.40    0.41
  -1   6  10   15.69    0.38
  -1   6  10   15.89    0.30
  -1   6   9   54.00    0.85
  -1   6   9   55.60    0.89
  -1   6   9   54.86    0.75
  -1   6   9   54.88    0.89
  -1   6   8    2.75    0.32
  -1   6   8    2.57    0.21
  -1   6   8    2.61    0.13
  -1   6   8    2.62    0.12
   1  -6  -7   70.45    1.04
  -1   6   7   74.33    1.01
  -1   6   7   76.55    1.12
  -1   6   7   76.73    1.06
  -1   6   7   73.84    1.10
   1  -6  -6   75.76    0.93
   1  -6  -6   76.23    1.09
  -1   6   6   79.82    1.17
  -1   6   6   81.60    1.01
  -1   6   6   80.39    0.98
   1  -6  -5    2.60    0.30
   1  -6  -5    2.83    0.15
  -1   6   5    3.14    0.20
  -1   6   5    3.23    0.12
   1  -6  -4    1.77    0.18
   1  -6  -4    2.10    0.10
  -1   6   4    2.24    0.17
  -1   6   4    2.54    0.19
   1  -6  -3  150.19    2.12
   1  -6  -3  152.79    1.94
  -1   6   3  157.22    2.10
  -1   6   3  158.79    1.94
   1  -6  -2  113.14    1.50
   1  -6  -2  111.68    1.38
  -1   6   2  116.31    1.45
  -1   6   2  115.49    1.55
   1  -6  -1    1.12    0.19
   1  -6  -1    1.19    0.17
  -1   6   1    1.12    0.29
  -1   6   1    1.29    0.12
   1  -6   0    5.61    0.35
   1  -6   0    5.14    0.19
  -1   6   0    5.19    0.26
  -1   6   0    5.35    0.24
   1  -6   1  462.01    6.50
   1  -6   1  437.44    6.21
  -1   6  -1  438.82    6.22
  -1   6  -1  459.21    6.28
   1  -6   2   14.21    0.39
   1  -6   2   13.45    0.35
  -1   6  -2   14.20    0.56
  -1   6  -2   14.64    0.35
   1  -6   3   24.78    0.67
   1  -6   3   25.78    0.51
  -1   6  -3   26.10    0.52
  -1   6  -3   25.30    0.49
   1  -6   4    6.82    0.45
   1  -6   4    5.61    0.30
  -1   6  -4    5.94    0.28
  -1   6  -4    6.07    0.44
   1  -6   5  121.01    1.83
   1  -6   5  124.46    1.82
  -1   6  -5  124.69    1.78
  -1   6  -5  118.87    1.77
   1  -6   6  198.72    2.90
   1  -6   6  195.79    2.96
  -1   6  -6  193.49    2.78
  -1   6  -6  191.23    2.82
   1  -6   7   21.15    0.71
   1  -6   7   20.81    0.61
  -1   6  -7   20.63    0.79
  -1   6  -7   19.91    0.68
   1  -6   8    2.35    0.34
   1  -6   8    1.76    0.40
  -1   6  -8    1.87    0.23
  -1   6  -8    2.25    0.50
   1  -6   9   12.81    0.61
   1  -6   9   13.45    0.57
  -1   6  -9   11.61    0.50
  -1   6  -9   12.87    0.40
   1  -6  10    4.89    0.49
   1  -6  10    4.28    0.31
  -1   6 -10    4.82    0.42
  -1   6 -10    3.61    0.45
   1  -6  11    5.37    0.35
   1  -6  11    6.00    0.54
  -1   6 -11    5.03    0.31
  -1   6 -11    5.26    0.77
  -1   5  15    0.12    0.31
  -1   5  15    0.11    0.17
  -1   5  15    0.44    0.29
  -1   5  15    0.64    0.17
  -1   5  14    0.36    0.27
  -1   5  14    0.74    0.29
  -1   5  14    0.12    0.28
  -1   5  14    0.85    0.28
  -1   5  13    8.61    0.31
  -1   5  13    8.82    0.31
  -1   5  13    8.46    0.42
  -1   5  13    8.08    0.41
  -1   5  12    6.39    0.40
  -1   5  12    6.83    0.27
  -1   5  12    6.57    0.35
  -1   5  12    6.74    0.35
  -1   5  11    3.34    0.21
  -1   5  11    3.54    0.26
  -1   5  11    3.68    0.18
  -1   5  11    4.04    0.22
  -1   5  10    3.75    0.32
  -1   5  10    3.70    0.21
  -1   5  10    3.74    0.16
  -1   5  10    3.66    0.25
  -1   5   9    0.04    0.20
  -1   5   9    0.07    0.12
  -1   5   9    0.12    0.14
  -1   5   9    0.10    0.14
  -1   5   8    6.42    0.25
  -1   5   8    6.95    0.23
  -1   5   8    6.39    0.16
  -1   5   8    6.46    0.24
   1  -5  -7   73.15    1.03
  -1   5   7   77.56    0.95
  -1   5   7   72.85    1.04
  -1   5   7   76.41    0.95
  -1   5   7   77.35    1.23
   1  -5  -6  304.22    4.24
  -1   5   6  313.41    4.42
  -1   5   6  328.40    4.24
  -1   5   6  311.34    4.27
  -1   5   6  312.99    4.00
   1  -5  -5    3.02    0.09
   1  -5  -5    2.92    0.26
  -1   5   5    3.14    0.18
  -1   5   5    3.04    0.11
  -1   5   5    3.33    0.14
   1  -5  -4   -0.01    0.08
   1  -5  -4   -0.03    0.09
  -1   5   4    0.14    0.14
  -1   5   4    0.92    0.08
   1  -5  -3  443.30    5.70
   1  -5  -3  436.10    5.81
  -1   5   3  448.26    5.99
  -1   5   3  452.05    5.75
   1  -5  -2   30.98    0.40
   1  -5  -2   31.15    0.57
  -1   5   2   33.00    0.41
  -1   5   2   32.49    0.61
   1  -5  -1   77.19    0.94
   1  -5  -1   80.80    1.04
  -1   5   1   79.47    0.96
  -1   5   1   81.13    1.05
   1  -5   0   76.13    1.10
   1  -5   0   71.46    0.91
  -1   5   0   75.99    0.95
  -1   5   0   77.17    1.01
   1  -5   1   12.72    0.28
   1  -5   1   11.13    0.24
  -1   5  -1   11.98    0.31
  -1   5  -1   13.01    0.38
   1  -5   2   25.07    0.42
   1  -5   2   23.77    0.41
  -1   5  -2   25.42    0.42
  -1   5  -2   24.69    0.40
   1  -5   3   41.73    0.79
   1  -5   3   38.33    0.62
  -1   5  -3   40.85    0.63
  -1   5  -3   39.85    0.62
   1  -5   4  713.33   10.54
   1  -5   4  677.74   10.14
  -1   5  -4  694.94    9.90
  -1   5  -4  675.81    9.82
   1  -5   5   19.09    0.50
   1  -5   5   20.32    0.45
  -1   5  -5   19.14    0.47
  -1   5  -5   20.38    0.45
   1  -5   6   48.13    0.79
   1  -5   6   46.93    0.85
  -1   5  -6   46.29    0.81
  -1   5  -6   47.43    0.91
   1  -5   7   24.70    0.86
   1  -5   7   25.26    0.70
  -1   5  -7   23.80    0.49
  -1   5  -7   23.86    0.57
   1  -5   8  181.97    2.94
   1  -5   8  185.19    3.23
  -1   5  -8  175.46    2.57
  -1   5  -8  174.39    2.97
   1  -5   9   51.32    1.12
   1  -5   9   51.29    1.08
  -1   5  -9   47.15    0.97
  -1   5  -9   48.03    1.02
   1  -5  10   23.93    0.74
   1  -5  10   22.00    0.54
  -1   5 -10   22.56    0.68
  -1   5 -10   21.79    0.52
   1  -5  11   25.17    0.61
   1  -5  11   29.71    0.88
  -1   5 -11   26.73    0.79
  -1   5 -11   25.65    0.74
   1  -5  12   20.05    0.74
   1  -5  12   24.25    1.25
  -1   5 -12   22.23    1.10
  -1   5 -12   20.21    0.70
  -1   4  15   -0.08    0.17
  -1   4  15    0.27    0.24
  -1   4  14    2.20    0.35
  -1   4  14    2.26    0.21
  -1   4  14    1.99    0.24
  -1   4  13   21.43    0.63
  -1   4  13   20.70    0.64
  -1   4  13   22.40    0.68
  -1   4  12   30.86    0.73
  -1   4  12   30.68    0.58
  -1   4  12   32.16    0.75
  -1   4  12   29.72    0.71
  -1   4  11    0.71    0.25
  -1   4  11    0.78    0.25
  -1   4  11    0.66    0.17
  -1   4  11    1.20    0.16
  -1   4  10    2.07    0.25
  -1   4  10    1.68    0.25
  -1   4  10    1.87    0.18
  -1   4  10    1.64    0.19
  -1   4   9    3.63    0.17
  -1   4   9    3.85    0.30
  -1   4   9    3.32    0.15
  -1   4   9    3.94    0.30
  -1   4   8   16.15    0.28
  -1   4   8   16.70    0.34
  -1   4   8   16.90    0.46
  -1   4   8   16.50    0.28
  -1   4   7   60.05    0.75
  -1   4   7   59.78    0.84
  -1   4   7   58.78    0.82
  -1   4   7   60.64    0.75
   1  -4  -6   -0.03    0.09
  -1   4   6    0.01    0.10
  -1   4   6    0.19    0.06
  -1   4   6    0.17    0.10
  -1   4   6    0.02    0.05
   1  -4  -5   57.87    0.77
  -1   4   5   61.92    0.75
  -1   4   5   60.82    0.68
  -1   4   5   58.95    0.79
  -1   4   5   58.87    0.79
   1  -4  -4   16.06    0.24
   1  -4  -4   16.32    0.29
  -1   4   4   17.80    0.26
  -1   4   4   17.16    0.30
   1  -4  -3   40.62    0.49
   1  -4  -3   40.81    0.55
  -1   4   3   42.69    0.52
  -1   4   3   42.38    0.57
   1  -4  -2  262.32    3.08
   1  -4  -2  258.71    3.23
  -1   4   2  268.80    3.37
  -1   4   2  272.42    3.28
   1  -4  -1   39.95    0.55
   1  -4  -1   38.46    0.52
  -1   4   1   40.42    0.55
  -1   4   1   40.13    0.53
   1  -4   0  481.42    6.25
   1  -4   0  495.58    6.59
  -1   4   0  512.25    6.84
  -1   4   0  501.45    6.55
   1  -4   1    3.74    0.14
   1  -4   1    3.50    0.13
  -1   4  -1    3.58    0.12
  -1   4  -1    3.58    0.23
   1  -4   2    0.70    0.16
   1  -4   2    0.21    0.10
  -1   4  -2    0.18    0.15
  -1   4  -2    0.07    0.08
   1  -4   3   72.03    1.05
   1  -4   3   75.96    1.08
  -1   4  -3   75.54    1.06
  -1   4  -3   72.54    1.03
   1  -4   4   84.32    1.15
   1  -4   4   86.93    1.15
  -1   4  -4   87.68    1.25
  -1   4  -4   85.22    1.26
   1  -4   5    7.91    0.42
   1  -4   5    8.61    0.25
  -1   4  -5    8.47    0.24
  -1   4  -5    8.30    0.39
   1  -4   6  152.95    2.37
   1  -4   6  152.67    2.10
  -1   4  -6  147.40    2.07
  -1   4  -6  152.62    2.04
   1  -4   7  240.89    3.57
   1  -4   7  231.60    3.37
  -1   4  -7  229.01    3.36
  -1   4  -7  227.53    3.30
   1  -4   8   44.81    1.15
   1  -4   8   44.80    0.92
  -1   4  -8   40.90    0.81
  -1   4  -8   42.64    0.71
   1  -4   9    2.88    0.35
   1  -4   9    3.41    0.57
  -1   4  -9    3.28    0.33
  -1   4  -9    3.13    0.52
   1  -4  10    0.75    0.19
   1  -4  10    1.05    0.32
  -1   4 -10    0.76    0.29
  -1   4 -10    0.89    0.49
   1  -4  11   29.20    0.82
   1  -4  11   25.92    0.57
  -1   4 -11   26.17    0.56
  -1   4 -11   26.97    0.77
   1  -4  12    0.18    0.33
   1  -4  12    0.28    0.29
  -1   4 -12    0.12    0.31
  -1   4 -12    0.55    0.27
   1  -4  13    7.92    0.58
   1  -4  13    5.57    0.30
  -1   4 -13    5.62    0.28
  -1   4 -13    5.43    0.79
   1  -3 -15    0.33    0.20
  -1   3  15    0.34    0.16
  -1   3  15   -0.01    0.19
   1  -3 -14    0.10    0.17
  -1   3  14   -0.10    0.14
  -1   3  14    0.27    0.16
  -1   3  14    0.08    0.18
   1  -3 -13    0.17    0.27
  -1   3  13   -0.02    0.23
  -1   3  13    0.04    0.15
  -1   3  13   -0.13    0.20
   1  -3 -12    0.86    0.29
  -1   3  12    0.79    0.27
  -1   3  12    0.96    0.17
  -1   3  12    0.86    0.18
  -1   3  12    0.74    0.30
   1  -3 -11   11.27    0.32
  -1   3  11   12.51    0.47
  -1   3  11   11.69    0.32
  -1   3  11   11.96    0.33
  -1   3  11   11.48    0.32
   1  -3 -10  198.75    2.86
  -1   3  10  205.42    2.95
  -1   3  10  200.24    2.89
  -1   3  10  204.74    2.94
  -1   3  10  206.95    3.19
   1  -3  -9  187.33    2.57
  -1   3   9  196.02    2.69
  -1   3   9  191.62    2.64
  -1   3   9  194.73    2.71
  -1   3   9  196.53    2.74
   1  -3  -8  109.63    1.55
  -1   3   8  111.70    1.58
  -1   3   8  111.95    1.51
  -1   3   8  111.98    1.57
  -1   3   8  111.68    1.51
   1  -3  -7   25.06    0.36
  -1   3   7   25.97    0.52
  -1   3   7   26.21    0.45
  -1   3   7   25.63    0.37
  -1   3   7   25.91    0.53
  -1   3   6    6.56    0.19
  -1   3   6    6.17    0.26
  -1   3   6    6.30    0.19
  -1   3   6    6.28    0.19
  -1   3   5   75.17    0.90
  -1   3   5   74.83    1.02
  -1   3   5   73.85    0.87
  -1   3   5   73.33    0.93
   1  -3  -4  129.63    1.65
  -1   3   4  135.15    1.52
  -1   3   4  136.59    1.55
  -1   3   4  131.90    1.61
  -1   3   4  133.14    1.61
   1  -3  -3  164.70    1.98
   1  -3  -3  168.24    1.87
  -1   3   3  167.94    2.01
  -1   3   3  171.75    1.88
   1  -3  -2   54.80    0.57
   1  -3  -2   55.82    0.74
  -1   3   2   57.61    0.78
  -1   3   2   59.45    0.65
   1  -3  -1  933.39   12.90
   1  -3  -1  916.14   12.34
  -1   3   1  922.95   12.47
  -1   3   1  953.96   13.20
   1  -3   0  620.22    8.13
   1  -3   0  633.30    8.35
  -1   3   0  641.71    8.45
  -1   3   0  645.99    8.54
   1  -3   1  366.09    4.57
   1  -3   1  354.65    4.43
  -1   3  -1  353.86    4.46
  -1   3  -1  365.66    4.56
   1  -3   2  293.91    3.64
   1  -3   2  284.67    3.62
  -1   3  -2  280.99    3.48
  -1   3  -2  290.69    3.57
   1  -3   3   82.13    1.12
   1  -3   3   85.20    1.04
  -1   3  -3   85.18    1.11
  -1   3  -3   82.42    1.02
   1  -3   4    8.08    0.22
   1  -3   4    7.69    0.19
  -1   3  -4    7.47    0.19
  -1   3  -4    7.39    0.25
   1  -3   5  155.40    1.98
   1  -3   5  150.14    1.99
  -1   3  -5  149.13    1.95
  -1   3  -5  150.20    1.99
   1  -3   6   24.26    0.51
   1  -3   6   23.66    0.47
  -1   3  -6   22.85    0.43
  -1   3  -6   23.43    0.48
   1  -3   7   24.37    0.54
   1  -3   7   24.19    0.52
  -1   3  -7   22.68    0.39
  -1   3  -7   22.85    0.47
   1  -3   8    2.94    0.27
   1  -3   8    2.70    0.28
  -1   3  -8    2.76    0.40
  -1   3  -8    2.55    0.16
   1  -3   9   57.47    1.06
   1  -3   9   58.24    1.05
  -1   3  -9   53.90    0.83
  -1   3  -9   55.82    1.02
   1  -3  10  148.52    2.81
   1  -3  10  142.03    2.35
  -1   3 -10  138.48    2.21
  -1   3 -10  142.49    2.33
   1  -3  11   24.29    0.52
   1  -3  11   26.54    0.79
  -1   3 -11   23.64    0.49
  -1   3 -11   24.60    0.98
   1  -3  12    4.06    0.38
   1  -3  12    4.43    0.45
  -1   3 -12    4.38    0.41
  -1   3 -12    3.68    0.35
   1  -3  13    0.50    0.18
   1  -3  13    1.12    0.37
  -1   3 -13    0.91    0.35
  -1   3 -13    0.74    0.17
   1  -2 -15    0.85    0.25
  -1   2  15    1.07    0.30
  -1   2  15    0.01    0.40
   1  -2 -14    1.41    0.37
  -1   2  14    0.85    0.30
  -1   2  14    1.21    0.24
  -1   2  14    1.06    0.36
   1  -2 -13    0.02    0.14
  -1   2  13    0.15    0.14
  -1   2  13    0.09    0.16
  -1   2  13    0.07    0.18
   1  -2 -12    8.47    0.44
   1  -2 -12    7.61    0.26
  -1   2  12    8.76    0.30
  -1   2  12    9.51    0.50
  -1   2  12    8.94    0.40
   1  -2 -11    1.55    0.19
   1  -2 -11    1.89    0.17
  -1   2  11    1.85    0.18
  -1   2  11    2.08    0.17
  -1   2  11    1.45    0.33
   1  -2 -10   33.05    0.57
   1  -2 -10   31.67    0.57
  -1   2  10   34.97    0.75
  -1   2  10   33.65    0.62
  -1   2  10   33.25    0.58
   1  -2  -9   33.19    0.70
   1  -2  -9   34.12    0.71
  -1   2   9   35.93    0.73
  -1   2   9   35.66    0.61
  -1   2   9   35.82    0.60
   1  -2  -8   51.82    0.88
   1  -2  -8   49.49    0.83
  -1   2   8   53.33    0.78
  -1   2   8   54.72    0.90
  -1   2   8   53.47    0.90
   1  -2  -7  508.32    7.21
   1  -2  -7  509.82    7.00
  -1   2   7  523.31    7.45
  -1   2   7  519.62    7.26
  -1   2   7  515.47    7.17
   1  -2  -6  377.67    4.87
   1  -2  -6  379.75    5.01
  -1   2   6  390.34    5.22
  -1   2   6  391.76    5.24
  -1   2   6  392.13    5.36
   1  -2  -5  197.96    2.32
  -1   2   5  202.21    2.49
  -1   2   5  204.62    2.61
  -1   2   5  204.07    2.43
  -1   2   5  204.91    2.44
   1  -2  -4  112.17    1.26
  -1   2   4  115.60    1.30
  -1   2   4  111.16    1.33
  -1   2   4  117.54    1.32
  -1   2   4  113.83    1.43
   1  -2  -3    6.30    0.14
  -1   2   3    6.41    0.10
  -1   2   3    6.31    0.08
  -1   2   3    6.71    0.14
  -1   2   3    6.48    0.14
   1  -2  -2  892.87   12.12
   1  -2  -2  876.40   11.43
  -1   2   2  903.80   11.84
  -1   2   2  897.25   12.22
   1  -2  -1   48.17    0.51
   1  -2  -1   49.26    0.57
  -1   2   1   49.42    0.57
  -1   2   1   50.46    0.50
   1  -2   0   98.28    1.11
   1  -2   0   98.66    1.09
  -1   2   0   99.32    1.12
  -1   2   0   97.11    1.06
   1  -2   1  243.35    2.85
   1  -2   1  245.67    2.90
  -1   2  -1  245.96    2.96
  -1   2  -1  237.24    2.76
   1  -2   2 1001.22   13.93
   1  -2   2  998.71   13.97
  -1   2  -2  973.27   13.56
  -1   2  -2 1010.94   13.96
   1  -2   3  236.90    2.85
   1  -2   3  227.60    2.78
  -1   2  -3  234.25    2.79
  -1   2  -3  232.05    2.91
   1  -2   4   11.10    0.23
   1  -2   4   11.87    0.26
  -1   2  -4   11.56    0.25
  -1   2  -4   11.21    0.22
   1  -2   5    0.79    0.08
   1  -2   5    0.74    0.13
  -1   2  -5    0.90    0.12
  -1   2  -5    0.63    0.14
   1  -2   6   72.44    1.02
   1  -2   6   74.46    0.95
  -1   2  -6   70.45    0.98
  -1   2  -6   71.42    0.98
   1  -2   7   17.75    0.31
   1  -2   7   19.24    0.56
  -1   2  -7   16.78    0.37
  -1   2  -7   17.63    0.52
   1  -2   8   12.12    0.26
   1  -2   8   13.12    0.54
  -1   2  -8   12.26    0.35
  -1   2  -8   11.87    0.25
   1  -2   9    4.06    0.18
   1  -2   9    4.38    0.30
  -1   2  -9    4.15    0.27
  -1   2  -9    3.91    0.25
   1  -2  10   13.97    0.32
   1  -2  10   13.67    0.74
  -1   2 -10   13.00    0.68
  -1   2 -10   12.93    0.30
   1  -2  11    2.73    0.30
   1  -2  11    3.09    0.36
  -1   2 -11    2.73    0.27
  -1   2 -11    2.58    0.34
   1  -2  12   12.98    0.56
   1  -2  12   11.54    0.33
  -1   2 -12   11.43    0.41
  -1   2 -12   13.40    0.53
   1  -2  13   20.36    0.61
   1  -2  13   23.65    1.12
  -1   2 -13   22.19    1.01
  -1   2 -13   19.88    0.45
   1  -2  14    9.86    0.61
  -1   2 -14    9.64    0.55
   1  -1 -15   -0.03    0.33
   1  -1 -15    0.08    0.14
  -1   1  15    0.01    0.21
  -1   1  15    0.24    0.24
  -1   1  15    0.21    0.17
   1  -1 -14    0.03    0.19
   1  -1 -14    0.08    0.14
  -1   1  14    0.23    0.16
  -1   1  14   -0.14    0.36
   1  -1 -13    4.94    0.24
   1  -1 -13    4.44    0.46
  -1   1  13    5.04    0.25
  -1   1  13    5.11    0.32
   1  -1 -12    5.94    0.36
   1  -1 -12    5.86    0.30
  -1   1  12    6.74    0.36
  -1   1  12    6.41    0.26
  -1   1  12    6.70    0.49
   1  -1 -11    2.35    0.34
   1  -1 -11    2.53    0.19
  -1   1  11    2.32    0.19
  -1   1  11    2.61    0.19
  -1   1  11    2.94    0.23
   1  -1 -10   22.18    0.46
   1  -1 -10   22.81    0.55
  -1   1  10   23.93    0.45
  -1   1  10   24.40    0.50
   1  -1  -9  218.21    3.02
   1  -1  -9  217.12    3.27
  -1   1   9  235.73    3.47
  -1   1   9  234.73    3.55
   1  -1  -8  150.37    2.01
   1  -1  -8  149.58    2.03
  -1   1   8  159.29    2.17
  -1   1   8  160.21    2.31
   1  -1  -7   68.63    0.93
   1  -1  -7   68.55    1.04
  -1   1   7   70.82    0.97
  -1   1   7   73.87    1.12
   1  -1  -6 1506.05   23.19
   1  -1  -6 1499.71   23.53
  -1   1   6 1540.63   23.80
  -1   1   6 1560.87   24.35
   1  -1  -5  800.81   11.08
   1  -1  -5  821.20   11.44
  -1   1   5  860.91   12.14
  -1   1   5  847.23   11.90
   1  -1  -4    2.88    0.18
   1  -1  -4    2.29    0.08
  -1   1   4    2.33    0.17
  -1   1   4    2.23    0.12
   1  -1  -3 1197.19   16.70
   1  -1  -3 1249.99   17.98
  -1   1   3 1219.10   17.41
  -1   1   3 1255.30   17.58
  -1   1   3 1250.67   18.03
   1  -1  -2 1333.65   19.06
  -1   1   2 1322.15   19.09
  -1   1   2 1391.65   19.37
  -1   1   2 1363.46   19.66
   1  -1  -1    7.62    0.07
   1  -1  -1    8.11    0.13
  -1   1   1    7.81    0.14
  -1   1   1    8.50    0.07
   1  -1   0   18.78    0.22
   1  -1   0   18.09    0.18
  -1   1   0   18.49    0.26
  -1   1   0   19.11    0.20
   1  -1   1    0.46    0.09
  -1   1  -1    3.01    0.08
   1  -1   2   13.45    0.22
   1  -1   2   12.61    0.25
  -1   1  -2   13.17    0.21
  -1   1  -2   12.81    0.19
   1  -1   3  112.58    1.37
   1  -1   3  116.72    1.28
  -1   1  -3  113.88    1.25
  -1   1  -3  113.99    1.38
   1  -1   4   31.00    0.37
   1  -1   4   30.73    0.49
  -1   1  -4   30.04    0.35
  -1   1  -4   30.53    0.41
   1  -1   5  472.22    6.27
   1  -1   5  481.79    6.19
  -1   1  -5  474.98    6.15
  -1   1  -5  457.51    6.19
   1  -1   6   87.33    1.12
   1  -1   6   82.04    1.09
  -1   1  -6   81.26    0.97
  -1   1  -6   82.16    1.08
   1  -1   7    5.16    0.23
   1  -1   7    5.19    0.14
  -1   1  -7    5.17    0.20
  -1   1  -7    4.94    0.33
   1  -1   8   11.79    0.34
   1  -1   8   11.86    0.24
  -1   1  -8   10.96    0.21
  -1   1  -8   11.22    0.31
   1  -1   9   31.60    0.57
   1  -1   9   31.37    0.81
  -1   1  -9   29.68    0.57
  -1   1  -9   28.94    0.52
   1  -1  10    9.80    0.39
   1  -1  10   10.07    0.33
  -1   1 -10    9.56    0.22
  -1   1 -10    9.37    0.35
   1  -1  11    2.76    0.49
   1  -1  11    2.36    0.16
  -1   1 -11    2.48    0.28
  -1   1 -11    1.85    0.14
   1  -1  12    2.43    0.35
   1  -1  12    2.04    0.25
  -1   1 -12    2.20    0.24
  -1   1 -12    2.43    0.51
   1  -1  13    1.12    0.25
   1  -1  13    1.33    0.56
  -1   1 -13    1.53    0.32
  -1   1 -13    1.05    0.24
   1  -1  14    1.72    0.38
  -1   1 -14    1.88    0.60
   1   0 -14    2.83    0.34
   1   0 -14    3.05    0.30
  -1   0  14    2.42    0.37
  -1   0  14    3.58    0.54
   1   0 -13   -0.01    0.23
   1   0 -13    0.15    0.19
  -1   0  13    0.02    0.23
  -1   0  13   -0.04    0.19
   1   0 -12    7.46    0.51
   1   0 -12    7.73    0.27
  -1   0  12    7.93    0.30
  -1   0  12    8.06    0.36
   1   0 -11    9.97    0.35
   1   0 -11   10.01    0.30
  -1   0  11   10.90    0.38
  -1   0  11   10.88    0.32
   1   0 -10   10.78    0.39
   1   0 -10   10.21    0.46
  -1   0  10   11.05    0.30
  -1   0  10   11.82    0.35
   1   0  -9    0.08    0.13
   1   0  -9    0.08    0.11
  -1   0   9    0.03    0.12
  -1   0   9    0.11    0.14
   1   0  -8    4.92    0.18
   1   0  -8    4.78    0.19
  -1   0   8    5.16    0.19
  -1   0   8    5.89    0.33
   1   0  -7  165.71    2.13
   1   0  -7  168.22    2.33
  -1   0   7  175.21    2.32
  -1   0   7  176.98    2.32
   1   0  -6   61.54    0.90
   1   0  -6   62.93    0.90
  -1   0   6   62.28    0.82
  -1   0   6   63.80    0.83
   1   0  -5  150.71    1.83
   1   0  -5  150.83    1.83
  -1   0   5  158.38    1.94
  -1   0   5  157.80    1.93
   1   0  -4   42.79    0.52
   1   0  -4   42.82    0.53
  -1   0   4   43.96    0.53
  -1   0   4   43.89    0.54
   1   0  -3 9503.18  191.73
   1   0  -3 9418.08  189.51
  -1   0   3 9684.03  196.04
  -1   0   3 9587.10  194.36
   1   0  -2 2577.79   40.48
   1   0  -2 2560.88   40.62
  -1   0   2 2673.92   42.09
  -1   0   2 2530.36   40.20
   1   0  -1  528.89    6.57
  -1   0   1  518.91    6.39
  -1   0   1  536.51    6.43
   1   0   1 1810.51   26.43
   1   0   1 1801.26   26.49
  -1   0  -1 1779.00   26.19
  -1   0  -1 1847.98   26.97
   1   0   2  732.66    9.30
   1   0   2  720.75    9.37
  -1   0  -2  724.13    9.16
  -1   0  -2  707.75    9.19
   1   0   3  280.43    3.19
   1   0   3  273.49    3.33
  -1   0  -3  267.37    3.25
  -1   0  -3  273.19    3.09
   1   0   4  116.07    1.27
   1   0   4  109.73    1.37
  -1   0  -4  107.73    1.34
  -1   0  -4  112.90    1.23
   1   0   5    0.63    0.05
   1   0   5    0.58    0.16
  -1   0  -5    0.74    0.08
  -1   0  -5    0.62    0.17
   1   0   6   25.79    0.41
   1   0   6   28.00    0.39
  -1   0  -6   25.89    0.35
  -1   0  -6   25.67    0.41
   1   0   7    0.13    0.11
   1   0   7    0.31    0.13
  -1   0  -7    1.77    0.14
  -1   0  -7    0.08    0.11
   1   0   8  176.87    2.61
   1   0   8  181.10    2.27
  -1   0  -8  171.72    2.52
  -1   0  -8  168.60    2.09
   1   0   9    0.14    0.17
   1   0   9    0.15    0.14
  -1   0  -9    0.14    0.08
  -1   0  -9    0.35    0.16
   1   0  10   18.78    0.33
   1   0  10   19.45    0.48
  -1   0 -10   18.74    0.63
  -1   0 -10   17.80    0.37
   1   0  11    5.09    0.50
   1   0  11    4.74    0.25
  -1   0 -11    5.28    0.30
  -1   0 -11    4.62    0.23
   1   0  12   34.59    0.79
   1   0  12   30.48    0.52
  -1   0 -12   28.89    0.56
  -1   0 -12   31.71    0.71
   1   0  13    0.08    0.10
   1   0  13    0.21    0.39
  -1   0 -13    0.02    0.14
  -1   0 -13   -0.12    0.21
   1   0  14    1.27    0.35
  -1   0 -14    1.14    0.50
   1   0  15    3.92    0.43
  -1   0 -15    3.97    0.41
   1   1 -14    0.19    0.16
   1   1 -14    0.16    0.24
  -1  -1  14    0.08    0.17
  -1  -1  14    0.14    0.25
   1   1 -13    0.27    0.22
   1   1 -13    0.14    0.16
  -1  -1  13    0.01    0.37
  -1  -1  13    0.14    0.27
   1   1 -12    3.90    0.46
   1   1 -12    3.67    0.23
  -1  -1  12    4.53    0.34
  -1  -1  12    4.09    0.39
   1   1 -11    0.41    0.24
   1   1 -11    0.18    0.19
  -1  -1  11    0.39    0.23
  -1  -1  11    0.68    0.28
   1   1 -10    9.81    0.35
   1   1 -10    9.76    0.41
  -1  -1  10   11.04    0.32
  -1  -1  10   10.90    0.57
   1   1  -9   12.95    0.30
   1   1  -9   13.37    0.51
  -1  -1   9   14.15    0.39
  -1  -1   9   14.27    0.34
   1   1  -8   53.97    0.79
   1   1  -8   56.52    0.98
  -1  -1   8   57.87    0.99
  -1  -1   8   58.24    0.90
   1   1  -7    0.02    0.09
   1   1  -7    0.19    0.17
  -1  -1   7   -0.03    0.19
  -1  -1   7    0.05    0.09
   1   1  -6   19.50    0.41
   1   1  -6   18.78    0.42
  -1  -1   6   20.60    0.34
  -1  -1   6   21.36    0.46
   1   1  -5  149.29    1.83
   1   1  -5  145.69    1.91
  -1  -1   5  156.94    2.03
  -1  -1   5  155.10    2.04
   1   1  -4    1.70    0.09
   1   1  -4    2.53    0.10
  -1  -1   4    1.82    0.10
  -1  -1   4    1.94    0.11
   1   1  -3  242.80    2.89
   1   1  -3  245.75    3.00
  -1  -1   3  251.48    3.08
  -1  -1   3  250.44    2.99
   1   1  -2    0.15    0.10
   1   1  -2    0.14    0.07
  -1  -1   2    0.24    0.08
  -1  -1   2    0.75    0.08
   1   1  -1  165.51    1.83
   1   1  -1  165.21    1.84
  -1  -1   1  164.74    1.82
  -1  -1   1  164.75    1.80
   1   1   1   21.90    0.21
   1   1   1   22.12    0.26
  -1  -1  -1    0.00    0.01
   1   1   2  664.31    8.51
   1   1   2  672.67    8.60
  -1  -1  -2  681.83    8.76
   1   1   3  258.08    3.04
   1   1   3  267.58    2.90
  -1  -1  -3  262.74    2.85
  -1  -1  -3  260.26    3.07
   1   1   4    8.86    0.17
   1   1   4    7.87    0.11
  -1  -1  -4    7.36    0.08
  -1  -1  -4    7.48    0.15
   1   1   5   17.49    0.22
   1   1   5   17.05    0.35
  -1  -1  -5   16.72    0.21
  -1  -1  -5   17.66    0.28
   1   1   6  107.69    1.23
   1   1   6  103.77    1.31
  -1  -1  -6  101.34    1.16
  -1  -1  -6  101.50    1.28
   1   1   7    8.27    0.23
  -1  -1  -7    4.46    0.14
  -1  -1  -7    4.66    0.19
   1   1   8    1.51    0.08
   1   1   8    1.57    0.17
  -1  -1  -8    1.39    0.16
  -1  -1  -8    1.35    0.08
   1   1   9    8.58    0.25
   1   1   9    8.50    0.44
  -1  -1  -9    8.60    0.29
  -1  -1  -9    7.85    0.22
   1   1  10   23.11    0.70
   1   1  10   23.45    0.44
  -1  -1 -10   22.83    0.67
  -1  -1 -10   21.88    0.40
   1   1  11   74.72    1.12
   1   1  11   77.63    1.30
  -1  -1 -11   73.02    1.23
  -1  -1 -11   69.46    0.94
   1   1  12   -0.08    0.13
   1   1  12    0.03    0.08
   1   1  12   -0.19    0.19
  -1  -1 -12   -0.02    0.08
  -1  -1 -12   -0.14    0.29
   1   1  13    2.64    0.22
   1   1  13    2.44    0.14
   1   1  13    2.52    0.51
  -1  -1 -13    2.59    0.29
  -1  -1 -13    2.27    0.14
   1   1  14   -0.03    0.23
  -1  -1 -14   -0.04    0.20
   1   1  15    2.97    0.39
   1   1  15    2.95    0.35
  -1  -1 -15    2.32    0.34
   1   2 -14   -0.03    0.23
   1   2 -14    0.14    0.26
  -1  -2  14    0.18    0.30
  -1  -2  14    0.24    0.30
   1   2 -13    1.81    0.33
   1   2 -13    1.18    0.47
  -1  -2  13    1.18    0.23
  -1  -2  13    1.69    0.52
   1   2 -12    0.04    0.24
   1   2 -12    0.14    0.20
  -1  -2  12    0.09    0.15
  -1  -2  12   -0.05    0.22
   1   2 -11    3.28    0.30
   1   2 -11    3.63    0.23
  -1  -2  11    4.16    0.33
  -1  -2  11    4.13    0.39
   1   2 -10   10.86    0.38
   1   2 -10   11.26    0.32
  -1  -2  10   12.84    0.63
  -1  -2  10   12.03    0.35
   1   2  -9    7.83    0.25
   1   2  -9    7.53    0.30
  -1  -2   9    8.58    0.34
  -1  -2   9    8.12    0.29
   1   2  -8   26.97    0.48
   1   2  -8   27.91    0.68
  -1  -2   8   28.73    0.57
  -1  -2   8   27.68    0.51
   1   2  -7    2.05    0.16
   1   2  -7    1.83    0.29
  -1  -2   7    1.99    0.17
  -1  -2   7    2.16    0.20
   1   2  -6   59.61    0.81
   1   2  -6   60.65    0.85
  -1  -2   6   61.72    0.85
  -1  -2   6   62.08    0.89
   1   2  -5   23.73    0.36
   1   2  -5   22.96    0.37
  -1  -2   5   24.92    0.41
  -1  -2   5   24.52    0.47
   1   2  -4   10.75    0.20
   1   2  -4   10.58    0.29
  -1  -2   4   11.32    0.30
  -1  -2   4   10.77    0.23
   1   2  -3   73.62    0.87
   1   2  -3   70.06    0.90
  -1  -2   3   73.13    0.88
  -1  -2   3   73.27    0.94
   1   2  -2   84.43    0.96
   1   2  -2   84.81    0.97
  -1  -2   2   85.76    1.06
  -1  -2   2   82.31    0.95
   1   2  -1  565.59    7.18
   1   2  -1  557.15    7.18
  -1  -2   1  558.46    7.11
  -1  -2   1  559.56    7.19
   1   2   0   49.45    0.54
   1   2   0   48.66    0.55
  -1  -2   0   49.56    0.63
  -1  -2   0   49.47    0.54
   1   2   1  212.66    2.42
   1   2   1  216.57    2.40
  -1  -2  -1  211.90    2.40
  -1  -2  -1  211.58    2.37
   1   2   2  871.28   11.76
   1   2   2  883.72   11.61
  -1  -2  -2  860.19   11.43
  -1  -2  -2  837.50   10.89
   1   2   3    4.59    0.13
   1   2   3    4.81    0.09
   1   2   3    4.62    0.12
  -1  -2  -3    0.63    0.03
   1   2   4  254.01    2.82
   1   2   4  245.29    2.75
   1   2   4  250.78    3.08
   1   2   4  250.31    3.08
  -1  -2  -4  249.91    3.08
   1   2   5   18.35    0.23
   1   2   5   18.02    0.35
   1   2   5   18.13    0.29
  -1  -2  -5   17.44    0.28
   1   2   6    4.77    0.17
   1   2   6    5.25    0.12
   1   2   6    5.03    0.25
   1   2   6    5.43    0.13
  -1  -2  -6    0.65    0.05
   1   2   7   45.66    0.65
   1   2   7   47.48    0.57
   1   2   7   47.16    0.57
  -1  -2  -7   45.69    0.65
  -1  -2  -7   45.75    0.56
   1   2   8   22.34    0.29
   1   2   8   21.49    0.40
   1   2   8   22.51    0.34
  -1  -2  -8   21.14    0.40
  -1  -2  -8   21.29    0.33
   1   2   9    0.25    0.15
   1   2   9    0.44    0.12
   1   2   9    0.46    0.11
  -1  -2  -9    1.26    0.16
  -1  -2  -9    0.42    0.12
   1   2  10   23.92    0.41
   1   2  10   24.97    0.52
   1   2  10   23.42    0.42
  -1  -2 -10   23.72    0.50
  -1  -2 -10   22.24    0.40
   1   2  11    9.14    0.20
   1   2  11    9.52    0.36
   1   2  11    8.82    0.19
  -1  -2 -11    9.28    0.51
  -1  -2 -11    8.63    0.19
   1   2  12    0.19    0.15
   1   2  12    0.67    0.14
   1   2  12    0.09    0.21
   1   2  12    0.51    0.21
  -1  -2 -12    0.10    0.27
  -1  -2 -12    0.01    0.07
   1   2  13    1.57    0.19
   1   2  13    1.80    0.19
   1   2  13    1.92    0.27
   1   2  13    1.33    0.45
  -1  -2 -13    2.20    0.28
   1   2  14    8.12    0.43
   1   2  14    7.44    0.41
  -1  -2 -14    7.87    0.41
   1   2  15    0.85    0.48
   1   2  15    1.03    0.31
  -1  -2 -15    0.89    0.29
   1   3 -13    0.34    0.28
   1   3 -13    0.57    0.31
  -1  -3  13    0.41    0.21
  -1  -3  13    0.33    0.52
   1   3 -12    0.25    0.25
   1   3 -12    0.15    0.27
  -1  -3  12   -0.04    0.27
  -1  -3  12    0.12    0.25
   1   3 -11    7.28    0.39
   1   3 -11    7.46    0.43
  -1  -3  11    8.11    0.43
  -1  -3  11    8.03    0.33
   1   3 -10    4.07    0.46
   1   3 -10    3.60    0.35
  -1  -3  10    4.69    0.52
  -1  -3  10    4.63    0.41
   1   3  -9    9.41    0.42
   1   3  -9    8.65    0.50
  -1  -3   9    9.38    0.38
  -1  -3   9    9.79    0.32
   1   3  -8   24.04    0.67
   1   3  -8   23.29    0.58
  -1  -3   8   23.70    0.63
  -1  -3   8   23.86    0.53
   1   3  -7    4.61    0.37
   1   3  -7    5.28    0.33
  -1  -3   7    5.60    0.27
  -1  -3   7    5.33    0.36
   1   3  -6  278.46    3.89
   1   3  -6  278.48    3.98
  -1  -3   6  280.91    3.84
  -1  -3   6  290.81    3.95
   1   3  -5  182.51    2.38
   1   3  -5  180.28    2.33
  -1  -3   5  188.88    2.46
  -1  -3   5  187.08    2.65
   1   3  -4   75.97    0.97
   1   3  -4   75.53    1.09
  -1  -3   4   78.23    1.03
  -1  -3   4   78.92    1.01
   1   3  -3   98.26    1.20
   1   3  -3   97.48    1.21
  -1  -3   3   98.26    1.23
  -1  -3   3  100.73    1.33
   1   3  -2   16.74    0.26
   1   3  -2   16.19    0.26
  -1  -3   2   17.27    0.27
  -1  -3   2   17.08    0.35
   1   3  -1  498.58    6.37
   1   3  -1  508.54    6.56
  -1  -3   1  504.34    6.44
  -1  -3   1  508.59    6.60
   1   3   0   16.64    0.33
   1   3   0   16.77    0.30
  -1  -3   0   16.29    0.25
  -1  -3   0   16.88    0.30
   1   3   1 1782.59   26.62
   1   3   1 1773.56   26.69
  -1  -3  -1 1779.31   26.60
  -1  -3  -1 1769.01   26.38
   1   3   2  293.84    3.52
   1   3   2  294.57    3.52
  -1  -3  -2  294.97    3.51
  -1  -3  -2  290.72    3.47
   1   3   3   23.86    0.30
   1   3   3   24.03    0.38
  -1  -3  -3   23.16    0.36
  -1  -3  -3   24.43    0.31
   1   3   4   73.08    0.86
   1   3   4   74.34    0.79
   1   3   4   72.80    0.85
  -1  -3  -4   69.53    0.77
  -1  -3  -4   71.18    0.84
   1   3   5  427.85    5.32
   1   3   5  436.85    5.46
   1   3   5  426.17    5.59
   1   3   5  425.18    5.48
  -1  -3  -5  417.49    5.18
   1   3   6  108.18    1.24
   1   3   6  106.52    1.34
   1   3   6  107.84    1.45
   1   3   6  107.32    1.21
   1   3   7    6.57    0.12
   1   3   7    6.84    0.20
   1   3   7    6.60    0.28
   1   3   7    6.57    0.17
  -1  -3  -7    6.04    0.19
   1   3   8    0.14    0.08
   1   3   8    0.03    0.08
   1   3   8    0.08    0.11
   1   3   8    0.10    0.12
  -1  -3  -8    0.05    0.11
   1   3   9   21.60    0.35
   1   3   9   22.24    0.36
   1   3   9   21.56    0.43
   1   3   9   22.20    0.54
  -1  -3  -9   21.34    0.42
   1   3  10   40.52    0.86
   1   3  10   41.12    0.60
   1   3  10   40.45    0.70
   1   3  10   39.62    0.52
  -1  -3 -10   39.58    0.69
   1   3  11   15.06    0.26
   1   3  11   15.14    0.26
   1   3  11   15.95    0.42
   1   3  11   15.52    0.58
  -1  -3 -11   15.68    0.41
   1   3  12    7.12    0.25
   1   3  12    7.17    0.34
   1   3  12    7.83    0.51
   1   3  12    7.55    0.25
  -1  -3 -12    7.24    0.33
   1   3  13    0.95    0.10
   1   3  13    0.86    0.25
   1   3  13    0.87    0.40
   1   3  13    0.79    0.17
  -1  -3 -13    1.01    0.24
   1   3  14    8.87    0.64
   1   3  14    8.96    0.63
  -1  -3 -14    9.07    0.63
   1   3  15    3.90    0.35
   1   3  15    4.40    0.37
  -1  -3 -15    3.08    0.34
   1   4 -13    2.12    0.61
   1   4 -13    1.72    0.41
  -1  -4  13    2.05    0.44
  -1  -4  13    2.21    0.45
   1   4 -12    0.26    0.46
   1   4 -12    0.21    0.30
  -1  -4  12    0.37    0.32
  -1  -4  12    0.37    0.22
   1   4 -11    0.22    0.24
   1   4 -11    0.19    0.29
  -1  -4  11    0.27    0.33
  -1  -4  11    0.35    0.47
   1   4 -10    2.10    0.35
   1   4 -10    1.89    0.28
  -1  -4  10    2.25    0.52
  -1  -4  10    2.02    0.25
   1   4  -9   13.65    0.52
   1   4  -9   13.94    0.44
  -1  -4   9   14.74    0.48
  -1  -4   9   13.50    0.57
   1   4  -8   43.68    0.89
   1   4  -8   44.39    0.80
  -1  -4   8   46.34    0.87
  -1  -4   8   46.47    0.97
   1   4  -7   19.03    0.45
   1   4  -7   18.98    0.41
  -1  -4   7   20.03    0.49
  -1  -4   7   20.45    0.45
   1   4  -6   49.99    0.76
   1   4  -6   49.35    0.79
  -1  -4   6   50.30    1.02
  -1  -4   6   51.26    0.79
   1   4  -5  230.42    3.07
   1   4  -5  227.73    3.24
  -1  -4   5  230.51    3.14
  -1  -4   5  237.46    3.18
   1   4  -4    3.71    0.19
   1   4  -4    3.42    0.19
  -1  -4   4    3.72    0.19
  -1  -4   4    3.43    0.33
   1   4  -3  579.30    7.99
   1   4  -3  550.84    7.69
  -1  -4   3  568.14    7.75
  -1  -4   3  580.97    8.07
   1   4  -2 1299.06   19.43
   1   4  -2 1320.43   19.47
  -1  -4   2 1317.89   19.74
  -1  -4   2 1316.71   19.47
   1   4  -1  718.55    9.81
   1   4  -1  693.22    9.52
  -1  -4   1  693.94    9.35
  -1  -4   1  697.38    9.41
   1   4   0   65.34    0.79
   1   4   0   66.09    0.79
  -1  -4   0   66.00    0.90
  -1  -4   0   66.93    0.88
   1   4   1    3.56    0.14
   1   4   1    3.99    0.13
  -1  -4  -1    3.74    0.18
  -1  -4  -1    3.84    0.20
   1   4   2  227.65    2.81
   1   4   2  227.31    2.70
  -1  -4  -2  228.71    2.70
  -1  -4  -2  222.79    2.66
   1   4   3   14.70    0.24
   1   4   3   15.21    0.27
  -1  -4  -3   14.16    0.20
  -1  -4  -3   14.32    0.30
   1   4   4   18.44    0.35
   1   4   4   18.79    0.30
  -1  -4  -4   17.65    0.27
  -1  -4  -4   17.92    0.29
   1   4   5   64.99    0.82
   1   4   5   66.75    0.82
   1   4   5   67.02    0.82
  -1  -4  -5   61.95    0.76
  -1  -4  -5   61.84    0.78
   1   4   6  133.81    1.76
   1   4   6  133.72    1.55
   1   4   6  135.84    1.81
   1   4   6  134.17    1.65
  -1  -4  -6  126.43    1.47
   1   4   7   53.41    0.85
   1   4   7   52.56    0.82
   1   4   7   51.84    0.68
   1   4   7   53.70    0.70
   1   4   8   13.63    0.27
   1   4   8   13.38    0.42
   1   4   8   12.83    0.29
   1   4   8   13.46    0.28
   1   4   9   29.96    0.47
   1   4   9   29.92    0.52
   1   4   9   29.56    0.40
   1   4   9   29.47    0.52
   1   4  10   22.25    0.46
   1   4  10   22.07    0.33
   1   4  10   22.28    0.45
   1   4  10   22.18    0.33
   1   4  11    3.42    0.37
   1   4  11    3.12    0.12
   1   4  11    3.29    0.13
   1   4  11    3.14    0.23
   1   4  12    9.37    0.51
   1   4  12    8.25    0.19
   1   4  12    8.36    0.19
   1   4  12    8.98    0.50
   1   4  13    0.05    0.12
   1   4  13    0.14    0.28
   1   4  13   -0.10    0.12
   1   4  13    0.38    0.27
   1   4  14    2.31    0.27
   1   4  14    1.73    0.45
   1   4  15    0.20    0.38
   1   4  15    0.09    0.22
   1   5 -12    6.36    0.52
   1   5 -12    6.52    0.47
  -1  -5  12    7.81    0.56
  -1  -5  12    7.10    0.39
   1   5 -11    4.16    0.62
   1   5 -11    3.57    0.46
  -1  -5  11    4.07    0.32
  -1  -5  11    4.64    0.74
   1   5 -10    4.99    0.45
   1   5 -10    5.45    0.58
  -1  -5  10    4.28    0.49
  -1  -5  10    5.32    0.66
   1   5  -9   13.34    0.56
   1   5  -9   12.46    0.67
  -1  -5   9   14.00    0.44
  -1  -5   9   13.93    0.51
   1   5  -8   13.66    0.63
   1   5  -8   12.91    0.53
  -1  -5   8   13.85    0.47
  -1  -5   8   13.31    0.41
   1   5  -7    3.89    0.43
   1   5  -7    3.33    0.36
  -1  -5   7    3.52    0.39
  -1  -5   7    4.03    0.48
   1   5  -6    2.45    0.20
   1   5  -6    2.33    0.36
  -1  -5   6    2.86    0.42
  -1  -5   6    2.26    0.35
   1   5  -5   38.76    0.65
   1   5  -5   39.79    0.65
  -1  -5   5   40.38    0.70
  -1  -5   5   40.22    0.66
   1   5  -4   75.61    1.05
   1   5  -4   73.95    1.05
  -1  -5   4   75.68    1.26
  -1  -5   4   77.66    1.09
   1   5  -3   19.42    0.49
   1   5  -3   19.08    0.48
  -1  -5   3   18.76    0.39
  -1  -5   3   18.49    0.36
   1   5  -2  141.25    1.79
   1   5  -2  139.63    1.79
  -1  -5   2  139.64    1.78
  -1  -5   2  139.58    1.93
   1   5  -1  328.99    4.24
   1   5  -1  332.14    4.25
  -1  -5   1  324.39    4.18
  -1  -5   1  326.68    4.19
   1   5   0   36.36    0.63
   1   5   0   35.80    0.52
  -1  -5   0   35.05    0.52
  -1  -5   0   35.66    0.52
   1   5   1 1220.77   17.70
   1   5   1 1195.73   17.54
  -1  -5  -1 1194.58   17.30
  -1  -5  -1 1195.58   17.45
   1   5   2   59.87    0.75
   1   5   2   59.76    0.77
  -1  -5  -2   58.23    0.74
  -1  -5  -2   61.85    0.86
   1   5   3   64.24    0.88
   1   5   3   63.33    0.80
  -1  -5  -3   61.56    0.84
  -1  -5  -3   61.10    0.76
   1   5   4  166.32    2.14
   1   5   4  165.07    2.00
  -1  -5  -4  153.47    1.88
  -1  -5  -4  156.28    1.89
   1   5   5   24.69    0.46
   1   5   5   24.87    0.41
  -1  -5  -5   22.08    0.34
  -1  -5  -5   23.38    0.33
   1   5   6    0.63    0.08
   1   5   6    0.70    0.19
   1   5   6    0.85    0.17
  -1  -5  -6    0.83    0.18
  -1  -5  -6    0.83    0.08
   1   5   7   14.74    0.37
   1   5   7   15.37    0.30
   1   5   7   14.64    0.25
   1   5   7   15.03    0.25
  -1  -5  -7   14.51    0.24
   1   5   8   16.21    0.34
   1   5   8   17.05    0.28
   1   5   8   16.55    0.43
   1   5   8   16.49    0.26
   1   5   9   13.60    0.30
   1   5   9   14.10    0.25
   1   5   9   13.35    0.30
   1   5   9   13.07    0.45
   1   5  10    6.07    0.35
   1   5  10    5.83    0.15
   1   5  10    6.01    0.25
   1   5  10    6.18    0.23
   1   5  11    5.60    0.25
   1   5  11    5.58    0.23
   1   5  11    6.34    0.40
   1   5  11    5.63    0.16
   1   5  12   30.88    0.55
   1   5  12   32.16    0.82
   1   5  12   32.69    0.65
   1   5  12   30.91    0.56
   1   5  13    2.57    0.26
   1   5  13    3.37    0.41
   1   5  13    2.71    0.19
   1   5  13    2.86    0.20
   1   5  14    2.48    0.45
   1   5  14    3.39    0.44
   1   5  15    4.46    0.52
   1   5  15    5.00    0.53
   1   6 -11    2.90    0.40
   1   6 -11    3.21    0.30
  -1  -6  11    3.85    0.35
  -1  -6  11    3.59    0.79
   1   6 -10   13.09    0.45
   1   6 -10   13.34    0.54
  -1  -6  10   14.49    0.63
  -1  -6  10   12.52    0.70
   1   6  -9    0.93    0.47
   1   6  -9    1.28    0.24
  -1  -6   9    1.29    0.41
  -1  -6   9    1.16    0.35
   1   6  -8   22.83    0.81
   1   6  -8   22.92    0.54
  -1  -6   8   23.78    0.67
  -1  -6   8   23.74    0.57
   1   6  -7   13.35    0.40
   1   6  -7   14.93    0.64
  -1  -6   7   14.19    0.42
  -1  -6   7   14.42    0.73
   1   6  -6   40.18    0.90
   1   6  -6   38.16    0.73
  -1  -6   6   40.73    1.03
  -1  -6   6   41.25    0.75
   1   6  -5   99.99    1.62
   1   6  -5   97.24    1.45
  -1  -6   5  100.28    1.48
  -1  -6   5  100.55    1.53
   1   6  -4    6.48    0.27
   1   6  -4    6.61    0.26
  -1  -6   4    6.71    0.47
  -1  -6   4    6.71    0.41
   1   6  -3    0.90    0.27
   1   6  -3    0.54    0.16
  -1  -6   3    0.85    0.19
  -1  -6   3    0.79    0.18
   1   6  -2  402.96    5.49
   1   6  -2  414.51    5.60
  -1  -6   2  406.65    5.52
  -1  -6   2  408.91    5.59
   1   6  -1  105.26    1.53
   1   6  -1  108.51    1.55
  -1  -6   1  107.58    1.42
  -1  -6   1  105.16    1.56
   1   6   0   54.98    0.75
   1   6   0   55.29    0.75
  -1  -6   0   54.69    0.76
  -1  -6   0   56.26    0.77
   1   6   1    0.20    0.11
   1   6   1    0.08    0.10
  -1  -6  -1    0.11    0.10
  -1  -6  -1    0.19    0.10
   1   6   2  153.33    2.05
   1   6   2  150.22    1.88
  -1  -6  -2  149.69    1.88
  -1  -6  -2  145.78    1.82
   1   6   3  384.58    5.16
   1   6   3  381.45    5.13
  -1  -6  -3  366.25    4.73
  -1  -6  -3  369.68    4.95
   1   6   4  201.79    2.56
   1   6   4  206.18    2.61
  -1  -6  -4  194.80    2.57
  -1  -6  -4  196.28    2.62
   1   6   5   68.69    0.91
   1   6   5   69.58    0.90
  -1  -6  -5   63.39    0.83
  -1  -6  -5   65.30    0.86
   1   6   6   10.59    0.35
   1   6   6    9.90    0.30
  -1  -6  -6    9.83    0.31
  -1  -6  -6    9.27    0.27
   1   6   7   24.61    0.43
   1   6   7   25.05    0.41
   1   6   7   25.91    0.48
  -1  -6  -7   23.38    0.35
  -1  -6  -7   24.20    0.41
   1   6   8    7.27    0.22
   1   6   8    7.91    0.19
   1   6   8    7.63    0.27
   1   6   8    7.72    0.25
  -1  -6  -8    7.17    0.25
   1   6   9   15.47    0.34
   1   6   9   15.79    0.35
   1   6   9   15.96    0.36
   1   6   9   15.94    0.29
   1   6  10    0.14    0.20
   1   6  10    0.16    0.14
   1   6  10   -0.03    0.14
   1   6  10    0.03    0.08
   1   6  11    1.21    0.30
   1   6  11    1.25    0.18
   1   6  11    1.24    0.18
   1   6  11    1.50    0.19
   1   6  12    0.41    0.16
   1   6  12    0.65    0.17
   1   6  12    0.32    0.17
   1   6  12    0.28    0.18
   1   6  13    0.52    0.18
   1   6  13    0.65    0.17
   1   6  13    0.69    0.19
   1   6  13    0.69    0.32
   1   6  14    3.03    0.27
   1   6  14    3.45    0.43
   1   6  15    1.61    0.38
   1   6  15   -0.02    0.23
   1   7 -10    1.90    0.46
   1   7 -10    1.78    0.37
  -1  -7  10    1.47    0.31
  -1  -7  10    2.06    0.42
   1   7  -9    4.30    0.51
   1   7  -9    3.98    0.39
  -1  -7   9    4.44    0.56
  -1  -7   9    4.78    0.46
   1   7  -8    0.25    0.25
   1   7  -8    0.31    0.34
  -1  -7   8   -0.08    0.30
  -1  -7   8    0.03    0.23
   1   7  -7   10.46    0.40
   1   7  -7   11.56    0.44
  -1  -7   7   11.31    0.42
  -1  -7   7   11.98    0.48
   1   7  -6   13.58    0.41
   1   7  -6   13.14    0.44
  -1  -7   6   13.36    0.72
  -1  -7   6   13.91    0.43
   1   7  -5   15.50    0.44
   1   7  -5   15.64    0.42
  -1  -7   5   15.98    0.63
  -1  -7   5   15.88    0.47
   1   7  -4   11.66    0.36
   1   7  -4   11.21    0.36
  -1  -7   4   12.25    0.54
  -1  -7   4   11.10    0.58
   1   7  -3   78.10    1.16
   1   7  -3   80.55    1.19
  -1  -7   3   79.11    1.18
  -1  -7   3   77.91    1.21
   1   7  -2    5.05    0.26
   1   7  -2    5.32    0.39
  -1  -7   2    4.84    0.27
  -1  -7   2    4.85    0.41
   1   7  -1   29.60    0.52
   1   7  -1   31.07    0.70
  -1  -7   1   28.45    0.53
  -1  -7   1   29.92    0.53
   1   7   0   95.12    1.45
   1   7   0   92.33    1.43
  -1  -7   0   92.90    1.28
  -1  -7   0   92.70    1.44
   1   7   1  202.10    2.66
   1   7   1  201.34    2.65
  -1  -7  -1  192.40    2.54
  -1  -7  -1  199.20    2.62
   1   7   2   77.96    1.07
   1   7   2   79.31    1.07
  -1  -7  -2   75.44    1.02
  -1  -7  -2   76.57    1.05
   1   7   3    0.15    0.13
   1   7   3    0.15    0.12
  -1  -7  -3    0.18    0.11
  -1  -7  -3    0.09    0.12
   1   7   4    1.21    0.15
   1   7   4    1.41    0.25
  -1  -7  -4    0.90    0.22
  -1  -7  -4    1.16    0.22
   1   7   5   83.11    1.27
   1   7   5   80.72    1.11
  -1  -7  -5   76.68    1.03
  -1  -7  -5   74.34    1.01
   1   7   6  124.35    1.70
   1   7   6  129.34    1.73
  -1  -7  -6  115.56    1.53
  -1  -7  -6  116.91    1.69
   1   7   7    0.11    0.21
   1   7   7    0.14    0.11
   1   7   7   -0.01    0.19
  -1  -7  -7    0.02    0.18
  -1  -7  -7    0.08    0.16
   1   7   8    9.70    0.24
   1   7   8   10.89    0.35
   1   7   8   10.17    0.36
   1   7   8   10.85    0.29
  -1  -7  -8    9.74    0.32
   1   7   9    4.37    0.30
   1   7   9    4.46    0.19
   1   7   9    4.42    0.17
   1   7   9    4.23    0.22
  -1  -7  -9    4.25    0.17
   1   7  10   29.71    0.70
   1   7  10   28.94    0.57
   1   7  10   28.56    0.47
   1   7  10   28.78    0.53
   1   7  11    7.06    0.41
   1   7  11    6.31    0.20
   1   7  11    6.21    0.29
   1   7  11    6.79    0.39
   1   7  12    0.64    0.12
   1   7  12    0.30    0.18
   1   7  12    0.63    0.17
   1   7  12    0.46    0.18
   1   7  13    0.16    0.11
   1   7  13    0.41    0.26
   1   7  13    0.26    0.18
   1   7  13    0.17    0.17
   1   7  14    1.03    0.33
   1   7  14   -0.01    0.35
   1   7  15    0.46    0.22
   1   7  15    0.83    0.35
   1   8  -9   -0.07    0.21
   1   8  -9    0.17    0.26
  -1  -8   9    0.01    0.34
  -1  -8   9    0.16    0.25
   1   8  -8    8.68    0.41
   1   8  -8    9.08    0.74
  -1  -8   8   10.23    0.57
  -1  -8   8    9.32    0.68
   1   8  -7    0.46    0.25
   1   8  -7    0.60    0.45
  -1  -8   7    0.65    0.32
  -1  -8   7    0.38    0.43
   1   8  -6    2.48    0.29
   1   8  -6    3.30    0.51
  -1  -8   6    2.91    0.49
  -1  -8   6    2.32    0.57
   1   8  -5    6.34    0.34
   1   8  -5    5.84    0.52
  -1  -8   5    6.02    0.52
  -1  -8   5    5.36    0.38
   1   8  -4    0.89    0.24
   1   8  -4    1.23    0.39
  -1  -8   4    0.92    0.24
  -1  -8   4    0.97    0.26
   1   8  -3    9.07    0.34
   1   8  -3    9.62    0.35
  -1  -8   3    9.21    0.37
  -1  -8   3   10.12    0.35
   1   8  -2    1.06    0.21
   1   8  -2    0.86    0.19
  -1  -8   2    1.23    0.35
  -1  -8   2    1.08    0.22
   1   8  -1   53.29    0.85
   1   8  -1   56.62    0.90
  -1  -8   1   54.13    0.87
  -1  -8   1   52.51    0.87
   1   8   0   24.07    0.50
   1   8   0   23.10    0.63
  -1  -8   0   23.73    0.49
  -1  -8   0   22.45    0.48
   1   8   1   11.04    0.31
   1   8   1   11.05    0.33
  -1  -8  -1   11.41    0.32
  -1  -8  -1   10.56    0.46
   1   8   2    8.87    0.30
   1   8   2    9.48    0.42
  -1  -8  -2    8.97    0.28
  -1  -8  -2    8.23    0.29
   1   8   3   55.16    0.83
   1   8   3   53.49    0.80
  -1  -8  -3   51.51    0.76
  -1  -8  -3   51.93    0.79
   1   8   4    0.79    0.16
   1   8   4    0.62    0.17
  -1  -8  -4    0.60    0.26
  -1  -8  -4    0.69    0.14
   1   8   5   10.52    0.30
   1   8   5   10.42    0.43
  -1  -8  -5    9.58    0.26
  -1  -8  -5    9.50    0.28
   1   8   6    1.20    0.17
   1   8   6    1.22    0.17
  -1  -8  -6    1.16    0.24
  -1  -8  -6    1.48    0.25
   1   8   7    2.48    0.29
   1   8   7    2.31    0.19
  -1  -8  -7    2.49    0.25
  -1  -8  -7    2.08    0.26
   1   8   8    2.39    0.30
   1   8   8    2.36    0.27
   1   8   8    2.65    0.28
  -1  -8  -8    2.18    0.26
  -1  -8  -8    2.45    0.25
   1   8   9    0.93    0.24
   1   8   9    1.44    0.16
   1   8   9    0.94    0.29
   1   8   9    1.01    0.25
  -1  -8  -9    0.90    0.23
   1   8  10    1.88    0.33
   1   8  10    1.94    0.17
   1   8  10    1.81    0.26
   1   8  10    1.91    0.19
   1   8  11    0.09    0.14
   1   8  11    0.19    0.19
   1   8  11    0.16    0.19
   1   8  11    0.03    0.16
   1   8  12    3.55    0.24
   1   8  12    3.66    0.25
   1   8  12    3.14    0.27
   1   8  12    3.89    0.29
   1   8  13    0.68    0.28
   1   8  13    0.35    0.19
   1   8  13    0.33    0.19
   1   8  13    0.23    0.21
   1   8  14    1.78    0.23
   1   8  14    1.60    0.39
   1   8  15    0.35    0.19
   1   8  15   -0.19    0.33
   1   9  -8    0.73    0.55
   1   9  -8    0.56    0.29
  -1  -9   8    0.49    0.49
  -1  -9   8    0.47    0.39
   1   9  -7    1.25    0.30
   1   9  -7    1.16    0.54
  -1  -9   7    1.01    0.39
  -1  -9   7    1.61    0.53
   1   9  -6    0.64    0.29
   1   9  -6    1.05    0.48
  -1  -9   6    0.99    0.58
  -1  -9   6    1.02    0.48
   1   9  -5   12.60    0.47
   1   9  -5   11.94    0.46
  -1  -9   5   13.12    0.48
  -1  -9   5   12.90    0.53
   1   9  -4   -0.01    0.21
   1   9  -4    0.08    0.20
  -1  -9   4   -0.04    0.21
  -1  -9   4   -0.05    0.22
   1   9  -3   11.70    0.63
   1   9  -3   12.46    0.45
  -1  -9   3   10.82    0.44
  -1  -9   3   11.98    0.43
   1   9  -2   32.72    0.85
   1   9  -2   33.63    0.68
  -1  -9   2   33.64    0.90
  -1  -9   2   33.09    0.89
   1   9  -1    7.24    0.46
   1   9  -1    7.77    0.35
  -1  -9   1    7.00    0.33
  -1  -9   1    7.22    0.50
   1   9   0    9.46    0.35
   1   9   0    9.02    0.30
  -1  -9   0    9.28    0.33
  -1  -9   0    8.07    0.48
   1   9   1   16.68    0.43
   1   9   1   16.34    0.40
  -1  -9  -1   15.39    0.57
  -1  -9  -1   15.36    0.39
   1   9   2   38.06    0.81
   1   9   2   39.25    0.69
  -1  -9  -2   37.47    0.83
  -1  -9  -2   35.70    0.62
   1   9   3    2.97    0.21
   1   9   3    3.09    0.38
  -1  -9  -3    2.72    0.35
  -1  -9  -3    2.70    0.20
   1   9   4    0.44    0.30
   1   9   4    0.58    0.16
  -1  -9  -4    0.57    0.25
  -1  -9  -4    0.46    0.28
   1   9   5   23.52    0.49
   1   9   5   24.31    0.62
  -1  -9  -5   22.57    0.55
  -1  -9  -5   22.45    0.46
   1   9   6    0.52    0.17
   1   9   6    0.51    0.16
  -1  -9  -6    0.23    0.21
  -1  -9  -6    0.16    0.24
   1   9   7    7.45    0.43
   1   9   7    8.19    0.28
  -1  -9  -7    7.38    0.27
  -1  -9  -7    7.45    0.36
   1   9   8   19.53    0.58
   1   9   8   19.67    0.52
   1   9   8   19.45    0.44
  -1  -9  -8   18.58    0.52
  -1  -9  -8   18.00    0.53
   1   9   9   30.74    0.73
   1   9   9   30.62    0.67
   1   9   9   29.51    0.73
  -1  -9  -9   26.20    0.49
  -1  -9  -9   27.95    0.65
   1   9  10    9.03    0.29
   1   9  10    9.90    0.31
   1   9  10    9.57    0.30
   1   9  10   10.16    0.48
  -1  -9 -10    8.37    0.39
   1   9  11    4.44    0.26
   1   9  11    4.52    0.24
   1   9  11    4.22    0.22
   1   9  12    6.60    0.39
   1   9  12    6.94    0.30
   1   9  12    6.46    0.25
   1   9  13   20.59    0.58
   1   9  13   18.91    0.44
   1   9  13   20.96    0.70
   1   9  13   21.21    0.51
   1   9  14   16.25    0.46
   1   9  14   17.32    0.68
   1  10  -7    0.12    0.28
   1  10  -7    0.03    0.26
  -1 -10   7    0.15    0.45
  -1 -10   7   -0.21    0.32
   1  10  -6    0.00    0.25
   1  10  -6    0.07    0.25
  -1 -10   6    0.15    0.25
  -1 -10   6   -0.33    0.35
   1  10  -5    0.11    0.26
   1  10  -5    0.30    0.26
  -1 -10   5    0.14    0.42
  -1 -10   5    0.05    0.46
   1  10  -4   13.73    0.50
   1  10  -4   13.85    0.52
  -1 -10   4   12.98    0.53
  -1 -10   4   12.46    0.50
   1  10  -3    6.79    0.41
   1  10  -3    6.87    0.39
  -1 -10   3    6.05    0.41
  -1 -10   3    6.52    0.63
   1  10  -2    8.70    0.39
   1  10  -2    9.42    0.43
  -1 -10   2    8.43    0.41
  -1 -10   2    9.08    0.64
   1  10  -1    2.48    0.27
   1  10  -1    3.76    0.51
  -1 -10   1    2.99    0.30
  -1 -10   1    3.03    0.30
   1  10   0    0.30    0.33
   1  10   0    0.00    0.17
  -1 -10   0    0.21    0.34
  -1 -10   0    0.08    0.19
   1  10   1   50.72    1.12
   1  10   1   47.95    0.82
  -1 -10  -1   45.92    0.80
  -1 -10  -1   46.78    0.85
   1  10   2   10.78    0.52
   1  10   2   11.41    0.40
  -1 -10  -2   10.11    0.49
  -1 -10  -2   10.78    0.38
   1  10   3   15.80    0.46
   1  10   3   16.07    0.56
  -1 -10  -3   15.50    0.43
  -1 -10  -3   14.69    0.37
   1  10   4    0.03    0.16
   1  10   4    0.17    0.19
  -1 -10  -4    0.00    0.19
  -1 -10  -4    0.58    0.25
   1  10   5   75.99    1.40
   1  10   5   74.23    1.14
  -1 -10  -5   70.10    1.20
  -1 -10  -5   69.64    1.11
   1  10   6   -0.03    0.16
   1  10   6    0.06    0.14
  -1 -10  -6    0.06    0.26
  -1 -10  -6   -0.10    0.14
   1  10   7    2.35    0.40
   1  10   7    2.81    0.35
  -1 -10  -7    1.83    0.19
  -1 -10  -7    2.36    0.22
   1  10   8    5.72    0.41
   1  10   8    5.97    0.30
   1  10   8    5.65    0.24
  -1 -10  -8    5.37    0.24
  -1 -10  -8    5.62    0.27
   1  10   9    1.21    0.28
   1  10   9    1.42    0.35
   1  10   9    1.45    0.32
  -1 -10  -9    1.55    0.19
  -1 -10  -9    1.40    0.18
   1  10  10    0.41    0.30
   1  10  10    0.46    0.18
   1  10  10    0.43    0.26
  -1 -10 -10    0.42    0.26
   1  10  11    2.15    0.22
   1  10  11    1.95    0.22
   1  10  11    1.90    0.19
  -1 -10 -11    1.72    0.19
   1  10  12   13.01    0.41
   1  10  12   12.33    0.36
   1  10  12   12.55    0.38
   1  10  13    1.48    0.38
   1  10  13    1.35    0.22
   1  10  13    1.47    0.19
   1  10  13    1.72    0.21
   1  11  -5    7.86    0.49
   1  11  -5    9.40    0.75
  -1 -11   5    8.27    0.76
  -1 -11   5    9.14    0.84
   1  11  -4    1.07    0.52
   1  11  -4    1.17    0.56
  -1 -11   4    1.53    0.33
  -1 -11   4    1.05    0.36
   1  11  -3    2.43    0.58
   1  11  -3    2.14    0.52
  -1 -11   3    1.99    0.34
  -1 -11   3    1.94    0.57
   1  11  -2   10.00    0.73
   1  11  -2   10.05    0.43
  -1 -11   2    9.52    0.46
  -1 -11   2    8.99    0.44
   1  11  -1   41.98    0.91
   1  11  -1   39.57    0.81
  -1 -11   1   38.95    0.85
  -1 -11   1   38.67    0.80
   1  11   0    1.20    0.25
   1  11   0    0.95    0.31
  -1 -11   0    0.95    0.42
  -1 -11   0    1.12    0.30
   1  11   1    8.66    0.35
   1  11   1    8.97    0.43
  -1 -11  -1    7.92    0.41
  -1 -11  -1    8.83    0.35
   1  11   2    2.54    0.51
   1  11   2    2.32    0.40
  -1 -11  -2    2.06    0.46
  -1 -11  -2    1.94    0.24
   1  11   3    2.83    0.40
   1  11   3    2.70    0.50
  -1 -11  -3    2.08    0.29
  -1 -11  -3    2.04    0.23
   1  11   4    5.41    0.44
   1  11   4    5.32    0.34
  -1 -11  -4    4.98    0.40
  -1 -11  -4    4.86    0.30
   1  11   5    9.49    0.59
   1  11   5    9.93    0.48
  -1 -11  -5    9.77    0.37
  -1 -11  -5    9.18    0.30
   1  11   6    0.06    0.25
   1  11   6   -0.09    0.19
  -1 -11  -6    0.00    0.31
  -1 -11  -6    0.28    0.15
   1  11   7    7.61    0.35
   1  11   7    7.52    0.47
  -1 -11  -7    7.07    0.40
  -1 -11  -7    6.55    0.47
   1  11   8   25.75    0.60
   1  11   8   26.63    0.72
  -1 -11  -8   23.97    0.55
  -1 -11  -8   23.76    0.63
   1  11   9    1.97    0.36
   1  11   9    1.75    0.40
  -1 -11  -9    1.97    0.20
  -1 -11  -9    1.59    0.36
   1  11  10    1.24    0.21
   1  11  10    0.85    0.34
   1  11  10    1.28    0.24
  -1 -11 -10    1.12    0.21
   1  11  11    1.12    0.31
   1  11  11    0.99    0.22
  -1 -11 -11    1.39    0.33
   1  11  12    1.55    0.21
   1  11  12    0.02    0.21
   1  12  -3    4.06    0.46
   1  12  -3    3.63    0.41
  -1 -12   3    3.72    0.43
  -1 -12   3    4.51    0.43
   1  12  -2   37.29    0.89
   1  12  -2   38.90    0.96
  -1 -12   2   35.78    0.90
  -1 -12   2   34.55    0.86
   1  12  -1    9.13    0.53
   1  12  -1    8.76    0.67
  -1 -12   1    7.15    0.74
  -1 -12   1    6.71    0.67
   1  12   0   21.49    0.80
   1  12   0   23.66    1.01
  -1 -12   0   21.02    0.66
  -1 -12   0   19.77    0.58
   1  12   1   13.04    0.65
   1  12   1   13.81    0.82
  -1 -12  -1   12.05    0.75
  -1 -12  -1   11.87    0.44
   1  12   2   32.83    0.92
   1  12   2   35.15    0.84
  -1 -12  -2   30.74    0.87
  -1 -12  -2   31.61    0.77
   1  12   3   21.07    0.64
   1  12   3   19.85    0.72
  -1 -12  -3   19.09    0.57
  -1 -12  -3   17.93    0.68
   1  12   4   12.80    0.61
   1  12   4   13.45    0.77
  -1 -12  -4   11.90    0.39
  -1 -12  -4   11.34    0.68
   1  12   5   23.52    0.63
   1  12   5   22.74    0.54
  -1 -12  -5   20.74    0.65
  -1 -12  -5   21.00    0.80
   1  12   6    0.09    0.37
   1  12   6    0.19    0.19
  -1 -12  -6    0.04    0.30
  -1 -12  -6    0.02    0.14
   1  12   7    0.55    0.19
   1  12   7    0.59    0.26
  -1 -12  -7    0.12    0.25
  -1 -12  -7    0.23    0.33
   1  12   8    0.19    0.37
   1  12   8    0.29    0.19
  -1 -12  -8    0.27    0.16
  -1 -12  -8    0.24    0.20
   1  12   9    0.07    0.31
   1  12   9    0.04    0.17
  -1 -12  -9   -0.03    0.15
  -1 -12  -9   -0.17    0.19
   1  12  10    7.50    0.37
   1  12  10    7.31    0.48
  -1 -12 -10    3.63    0.24
  -1 -12 -10    7.03    0.47
   1  12  11    3.03    0.41
   1  12  11    3.62    0.30
  -1 -12 -11    2.93    0.26
   1  13  -1    0.14    0.29
   1  13  -1    0.40    0.57
  -1 -13   1    0.40    0.34
  -1 -13   1    0.31    0.30
   1  13   0   35.86    0.86
   1  13   0   40.18    1.01
  -1 -13   0   34.21    1.24
  -1 -13   0   34.19    0.83
   1  13   1   12.08    0.62
   1  13   1   10.01    0.70
  -1 -13  -1    9.35    0.54
  -1 -13  -1    9.39    0.45
   1  13   2   10.07    0.86
   1  13   2   10.60    0.65
  -1 -13  -2    8.92    0.43
  -1 -13  -2    9.15    0.49
   1  13   3   22.74    0.74
   1  13   3   22.83    0.59
  -1 -13  -3   20.78    0.56
  -1 -13  -3   21.12    0.93
   1  13   4   21.57    0.98
   1  13   4   18.69    0.53
  -1 -13  -4   18.65    0.62
  -1 -13  -4   18.30    0.52
   1  13   5    7.93    0.37
   1  13   5    8.51    0.49
  -1 -13  -5    8.14    0.45
  -1 -13  -5    7.24    0.51
   1  13   6   11.63    0.78
   1  13   6   10.54    0.41
  -1 -13  -6   10.35    0.46
  -1 -13  -6   10.41    0.36
   1  13   7    5.66    0.50
   1  13   7    5.98    0.41
  -1 -13  -7    4.96    0.43
  -1 -13  -7    5.46    0.36
   1  13   8    0.16    0.36
   1  13   8   -0.07    0.27
  -1 -13  -8    0.51    0.19
  -1 -13  -8    0.67    0.26
   1  13   9    2.35    0.33
   1  13   9    2.21    0.25
  -1 -13  -9    2.06    0.29
  -1 -13  -9    2.11    0.35
   2 -12  -6    3.21    0.65
  -2  12   6    4.45    0.48
   2 -12  -5   -0.06    0.46
  -2  12   5   -0.24    0.56
   2 -12  -4    7.08    0.51
  -2  12   4    7.53    0.54
   2 -12  -3    7.17    0.50
  -2  12   3    8.35    0.89
   2 -12  -2    9.15    0.79
   2 -12  -2    8.70    0.31
  -2  12   2   10.02    0.59
  -2  12   2    8.76    0.45
   2 -12  -1    0.17    0.17
   2 -12  -1    0.23    0.30
  -2  12   1    0.16    0.35
  -2  12   1    0.73    0.19
   2 -11  -9    1.55    0.52
  -2  11   9    1.88    0.34
  -2  11   9    1.15    0.57
   2 -11  -8    1.20    0.30
  -2  11   8    1.33    0.34
  -2  11   8    1.01    0.31
   2 -11  -7    1.69    0.32
  -2  11   7    2.13    0.37
   2 -11  -6    6.58    0.67
  -2  11   6    7.16    0.47
   2 -11  -5   19.99    0.90
  -2  11   5   20.32    0.68
   2 -11  -4    3.15    0.27
   2 -11  -4    3.00    0.63
  -2  11   4    3.66    0.42
   2 -11  -3    1.39    0.35
   2 -11  -3    1.94    0.17
  -2  11   3    1.09    0.25
  -2  11   3    1.38    0.59
   2 -11  -2   22.94    0.62
   2 -11  -2   25.66    0.72
  -2  11   2   24.15    0.50
  -2  11   2   27.09    0.78
   2 -11  -1   32.25    0.63
   2 -11  -1   33.98    1.15
  -2  11   1   36.78    0.94
  -2  11   1   33.85    0.79
   2 -11   0    1.91    0.37
   2 -11   0    1.94    0.38
  -2  11   0    1.96    0.23
  -2  11   0    1.42    0.39
   2 -11   1    0.74    0.36
   2 -11   1    0.41    0.53
  -2  11  -1    0.69    0.33
  -2  11  -1    0.25    0.20
   2 -11   2    6.54    0.55
   2 -11   2    7.14    0.46
  -2  11  -2    7.39    0.77
  -2  11  -2    7.60    0.52
   2 -11   3    1.20    0.29
   2 -11   3    1.34    0.35
  -2  11  -3    1.16    0.26
  -2  11  -3    1.77    0.60
  -2  10  11   -0.19    0.25
  -2  10  11    0.00    0.24
  -2  10  10    2.45    0.35
  -2  10  10    2.44    0.33
   2 -10  -9    1.82    0.48
  -2  10   9    1.53    0.49
  -2  10   9    1.52    0.54
   2 -10  -8    0.03    0.35
  -2  10   8    0.24    0.43
  -2  10   8    0.07    0.40
   2 -10  -7    3.74    0.56
  -2  10   7    4.65    0.35
  -2  10   7    0.19    0.30
   2 -10  -6   14.34    0.74
  -2  10   6   15.74    0.79
   2 -10  -5    6.36    0.25
   2 -10  -5    7.55    0.62
  -2  10   5    6.78    0.19
  -2  10   5    7.24    0.44
   2 -10  -4    0.79    0.12
   2 -10  -4    0.67    0.45
  -2  10   4    1.07    0.30
  -2  10   4    0.79    0.19
   2 -10  -3    2.26    0.25
   2 -10  -3    2.78    0.31
  -2  10   3    2.95    0.25
  -2  10   3    2.92    0.56
   2 -10  -2   21.71    0.42
   2 -10  -2   22.46    0.63
  -2  10   2   22.43    0.43
  -2  10   2   24.91    0.95
   2 -10  -1   42.32    0.73
   2 -10  -1   44.90    0.92
  -2  10   1   46.54    0.98
  -2  10   1   42.92    0.73
   2 -10   0    0.64    0.30
   2 -10   0    0.92    0.30
  -2  10   0    0.90    0.34
  -2  10   0    1.27    0.30
   2 -10   1  101.32    1.74
   2 -10   1   96.95    1.75
  -2  10  -1  106.92    1.85
  -2  10  -1  100.94    1.59
   2 -10   2    1.40    0.44
   2 -10   2    1.71    0.35
  -2  10  -2    1.74    0.37
  -2  10  -2    1.31    0.25
   2 -10   3    1.47    0.28
   2 -10   3    1.31    0.33
  -2  10  -3    1.29    0.35
  -2  10  -3    1.24    0.41
   2 -10   4   19.82    0.65
   2 -10   4   19.68    0.60
  -2  10  -4   21.81    0.69
  -2  10  -4   20.39    0.58
   2 -10   5   13.49    0.53
   2 -10   5   13.18    0.54
  -2  10  -5   14.24    0.57
  -2  10  -5   13.17    0.50
  -2   9  12    0.03    0.37
  -2   9  12    0.22    0.22
  -2   9  11   -0.03    0.31
  -2   9  11   -0.01    0.33
  -2   9  10    0.01    0.21
  -2   9  10    0.08    0.20
   2  -9  -9    1.23    0.25
  -2   9   9    1.67    0.28
  -2   9   9    1.34    0.29
   2  -9  -8    9.82    0.41
  -2   9   8   10.32    0.66
  -2   9   8   10.67    0.43
   2  -9  -7    1.91    0.29
  -2   9   7    2.15    0.30
  -2   9   7    2.04    0.31
   2  -9  -6    1.88    0.10
   2  -9  -6    1.89    0.45
  -2   9   6    2.30    0.49
  -2   9   6    1.86    0.10
  -2   9   6    2.03    0.16
   2  -9  -5   17.21    0.29
   2  -9  -5   17.30    0.73
  -2   9   5   18.96    0.55
  -2   9   5   17.51    0.30
   2  -9  -4    1.83    0.46
   2  -9  -4    1.63    0.12
  -2   9   4    2.32    0.19
  -2   9   4    2.20    0.30
   2  -9  -3   66.73    1.03
   2  -9  -3   69.64    1.17
  -2   9   3   75.30    1.55
  -2   9   3   70.68    1.08
   2  -9  -2   41.22    0.64
   2  -9  -2   44.33    0.85
  -2   9   2   44.33    0.77
  -2   9   2   45.96    1.13
   2  -9  -1    0.32    0.23
   2  -9  -1    0.81    0.25
  -2   9   1    0.45    0.21
  -2   9   1    0.54    0.25
   2  -9   0   43.27    0.85
   2  -9   0   46.65    1.09
  -2   9   0   45.15    0.74
  -2   9   0   47.84    0.91
   2  -9   1   24.54    0.62
   2  -9   1   23.47    0.67
  -2   9  -1   25.06    0.52
  -2   9  -1   26.38    0.66
   2  -9   2   59.50    1.20
   2  -9   2   60.54    1.10
  -2   9  -2   61.02    1.17
  -2   9  -2   63.59    1.16
   2  -9   3   50.05    1.14
   2  -9   3   51.27    0.99
  -2   9  -3   53.60    1.04
  -2   9  -3   51.81    0.93
   2  -9   4   26.49    0.67
   2  -9   4   25.80    0.93
  -2   9  -4   27.25    0.95
  -2   9  -4   25.47    0.62
   2  -9   5   17.02    0.83
   2  -9   5   18.12    0.57
  -2   9  -5   16.70    0.74
  -2   9  -5   19.23    0.85
   2  -9   6    1.99    0.35
   2  -9   6    1.55    0.31
  -2   9  -6    1.87    0.31
  -2   9  -6    1.82    0.52
   2  -9   7   19.39    0.69
   2  -9   7   18.02    0.60
  -2   9  -7   19.02    0.60
  -2   9  -7   17.55    0.59
  -2   8  13    0.18    0.21
  -2   8  13    0.40    0.23
  -2   8  12    1.36    0.41
  -2   8  12    1.10    0.26
  -2   8  11    0.72    0.41
  -2   8  11    0.75    0.38
  -2   8  10    0.02    0.35
  -2   8  10    0.28    0.21
  -2   8   9    0.89    0.24
  -2   8   9    1.05    0.25
   2  -8  -8   -0.06    0.30
  -2   8   8    0.03    0.08
  -2   8   8    0.12    0.27
  -2   8   8   -0.04    0.05
  -2   8   8    0.14    0.17
   2  -8  -7    5.47    0.32
  -2   8   7    5.02    0.19
  -2   8   7    5.15    0.31
  -2   8   7    5.06    0.17
  -2   8   7    4.91    0.52
   2  -8  -6   42.21    0.54
   2  -8  -6   43.69    0.83
  -2   8   6   44.63    0.64
  -2   8   6   44.17    0.57
  -2   8   6   45.12    0.86
   2  -8  -5   60.10    1.03
   2  -8  -5   59.06    0.81
  -2   8   5   62.66    0.87
  -2   8   5   64.13    1.11
   2  -8  -4    0.52    0.24
   2  -8  -4    0.85    0.14
  -2   8   4    0.79    0.09
  -2   8   4    0.56    0.41
   2  -8  -3    9.59    0.29
   2  -8  -3    9.84    0.37
  -2   8   3    9.79    0.59
  -2   8   3   10.09    0.21
   2  -8  -2   73.56    1.16
   2  -8  -2   68.35    1.03
  -2   8   2   72.30    0.98
  -2   8   2   74.61    1.19
   2  -8  -1   23.67    0.52
   2  -8  -1   25.37    0.57
  -2   8   1   26.05    0.60
  -2   8   1   24.70    0.42
   2  -8   0   49.22    0.76
   2  -8   0   51.20    0.89
  -2   8   0   54.20    0.94
  -2   8   0   50.83    0.89
   2  -8   1    4.57    0.46
   2  -8   1    4.87    0.35
  -2   8  -1    4.01    0.48
  -2   8  -1    4.58    0.31
   2  -8   2    1.12    0.24
   2  -8   2    1.22    0.31
  -2   8  -2    1.52    0.41
  -2   8  -2    1.62    0.19
   2  -8   3   20.11    0.73
   2  -8   3   19.10    0.65
  -2   8  -3   21.08    0.74
  -2   8  -3   19.81    0.46
   2  -8   4   82.30    1.36
   2  -8   4   84.86    1.41
  -2   8  -4   83.22    1.34
  -2   8  -4   86.56    1.42
   2  -8   5   13.37    0.68
   2  -8   5   14.87    0.70
  -2   8  -5   13.66    0.65
  -2   8  -5   15.35    0.48
   2  -8   6   28.29    0.89
   2  -8   6   28.15    0.71
  -2   8  -6   26.99    0.68
  -2   8  -6   28.91    0.67
   2  -8   7    5.97    0.44
   2  -8   7    5.58    0.36
  -2   8  -7    5.65    0.37
  -2   8  -7    5.85    0.55
   2  -8   8    9.52    0.54
   2  -8   8    9.81    0.42
  -2   8  -8    9.98    0.71
  -2   8  -8    9.74    0.42
  -2   7  13    0.02    0.17
  -2   7  13    0.01    0.16
  -2   7  12    0.37    0.21
  -2   7  12    0.34    0.33
  -2   7  11    4.69    0.31
  -2   7  11    5.62    0.33
  -2   7  10   11.54    0.40
  -2   7  10   11.21    0.41
  -2   7   9    1.69    0.14
  -2   7   9    1.76    0.25
  -2   7   9    1.34    0.13
  -2   7   9    1.40    0.39
   2  -7  -8    3.14    0.26
  -2   7   8    2.97    0.15
  -2   7   8    3.19    0.09
  -2   7   8    3.93    0.44
  -2   7   8    3.29    0.27
   2  -7  -7    6.36    0.30
  -2   7   7    5.97    0.30
  -2   7   7    6.57    0.18
  -2   7   7    6.38    0.17
  -2   7   7    6.36    0.31
   2  -7  -6    2.59    0.39
  -2   7   6    2.75    0.25
  -2   7   6    2.71    0.14
  -2   7   6    2.88    0.13
  -2   7   6    2.59    0.25
   2  -7  -5   13.07    0.20
   2  -7  -5   13.61    0.56
  -2   7   5   14.15    0.22
  -2   7   5   14.04    0.60
   2  -7  -4  130.47    1.59
   2  -7  -4  135.66    1.95
  -2   7   4  137.58    1.78
  -2   7   4  140.76    2.05
   2  -7  -3   50.18    0.73
   2  -7  -3   51.27    0.87
  -2   7   3   53.49    0.93
  -2   7   3   52.61    0.77
   2  -7  -2  268.64    3.64
   2  -7  -2  274.53    3.86
  -2   7   2  285.49    3.91
  -2   7   2  286.96    4.07
   2  -7  -1   88.89    1.35
   2  -7  -1   84.62    1.27
  -2   7   1   88.67    1.29
  -2   7   1   91.38    1.41
   2  -7   0   24.32    0.42
   2  -7   0   25.39    0.54
  -2   7   0   25.62    0.53
  -2   7   0   26.18    0.57
   2  -7   1    7.86    0.31
   2  -7   1    7.14    0.25
  -2   7  -1    7.50    0.48
  -2   7  -1    7.07    0.33
   2  -7   2    2.35    0.20
   2  -7   2    2.48    0.38
  -2   7  -2    2.76    0.25
  -2   7  -2    2.89    0.19
   2  -7   3   21.02    0.48
   2  -7   3   19.94    0.44
  -2   7  -3   19.41    0.41
  -2   7  -3   20.59    0.48
   2  -7   4    3.96    0.41
   2  -7   4    3.90    0.42
  -2   7  -4    3.83    0.42
  -2   7  -4    3.12    0.37
   2  -7   5   25.03    0.57
   2  -7   5   24.79    0.57
  -2   7  -5   24.60    0.72
  -2   7  -5   26.60    0.75
   2  -7   6   11.12    0.44
   2  -7   6   10.47    0.38
  -2   7  -6   10.49    0.39
  -2   7  -6   10.68    0.40
   2  -7   7   20.54    0.61
   2  -7   7   20.65    0.72
  -2   7  -7   19.12    0.54
  -2   7  -7   19.34    0.51
   2  -7   8   10.44    0.77
   2  -7   8   10.09    0.58
  -2   7  -8    9.46    0.55
  -2   7  -8   10.03    0.67
   2  -7   9    0.00    0.51
   2  -7   9    0.24    0.34
  -2   7  -9    0.30    0.21
  -2   7  -9    0.32    0.29
  -2   6  14    0.46    0.35
  -2   6  14    1.28    0.36
  -2   6  13    1.79    0.40
  -2   6  13    2.29    0.25
  -2   6  12   11.87    0.57
  -2   6  12   11.40    0.39
  -2   6  11   14.29    0.60
  -2   6  11   12.85    0.34
  -2   6  11   14.41    0.60
  -2   6  10    0.09    0.12
  -2   6  10    0.04    0.08
  -2   6  10    0.14    0.16
  -2   6  10    0.18    0.28
  -2   6   9    1.12    0.36
  -2   6   9    1.45    0.23
  -2   6   9    1.57    0.15
  -2   6   9    1.48    0.14
  -2   6   8   37.56    0.70
  -2   6   8   38.95    0.73
  -2   6   8   37.74    0.54
  -2   6   8   36.81    0.52
   2  -6  -7    4.41    0.25
  -2   6   7    4.48    0.11
  -2   6   7    4.18    0.41
  -2   6   7    4.48    0.25
  -2   6   7    4.34    0.14
   2  -6  -6   14.14    0.52
  -2   6   6   14.25    0.54
  -2   6   6   13.98    0.23
  -2   6   6   14.39    0.25
  -2   6   6   14.56    0.39
   2  -6  -5    0.26    0.05
   2  -6  -5    0.38    0.16
  -2   6   5    0.14    0.17
  -2   6   5    0.25    0.09
  -2   6   5    0.29    0.05
   2  -6  -4  112.14    1.35
   2  -6  -4  113.03    1.57
  -2   6   4  117.48    1.66
  -2   6   4  119.66    1.45
   2  -6  -3   59.19    0.77
   2  -6  -3   58.80    1.05
  -2   6   3   60.15    1.11
  -2   6   3   62.01    0.79
   2  -6  -2   34.89    0.46
   2  -6  -2   34.95    0.62
  -2   6   2   35.66    0.47
  -2   6   2   36.33    0.65
   2  -6  -1  565.04    7.72
   2  -6  -1  567.50    8.03
  -2   6   1  565.14    8.01
  -2   6   1  592.60    8.42
   2  -6   0  149.42    2.11
   2  -6   0  158.03    2.20
  -2   6   0  162.40    2.26
  -2   6   0  158.31    2.20
   2  -6   1  341.53    4.78
   2  -6   1  323.78    4.47
  -2   6  -1  355.46    5.21
  -2   6  -1  337.76    4.84
   2  -6   2  990.19   15.06
   2  -6   2 1016.24   15.51
  -2   6  -2  987.42   15.18
  -2   6  -2 1049.19   15.88
   2  -6   3  227.30    3.21
   2  -6   3  244.57    3.65
  -2   6  -3  245.16    3.65
  -2   6  -3  230.56    3.25
   2  -6   4   13.60    0.39
   2  -6   4   12.67    0.38
  -2   6  -4   13.86    0.39
  -2   6  -4   12.83    0.36
   2  -6   5   40.40    0.75
  -2   6  -5   42.25    0.73
  -2   6  -5   41.76    0.92
   2  -6   6    5.80    0.52
   2  -6   6    5.83    0.29
  -2   6  -6    5.71    0.28
  -2   6  -6    5.35    0.30
   2  -6   7    9.20    0.64
   2  -6   7    9.87    0.35
  -2   6  -7    9.19    0.38
  -2   6  -7    9.90    0.33
   2  -6   8    1.92    0.23
   2  -6   8    1.66    0.54
  -2   6  -8    1.68    0.35
  -2   6  -8    1.34    0.46
   2  -6   9    7.27    0.73
   2  -6   9    6.39    0.31
  -2   6  -9    6.44    0.30
  -2   6  -9    6.45    0.42
   2  -6  10    2.25    0.68
   2  -6  10    2.81    0.26
  -2   6 -10    2.73    0.40
  -2   6 -10    2.61    0.39
  -2   5  14    0.11    0.17
  -2   5  14   -0.19    0.17
  -2   5  13   -0.06    0.27
  -2   5  13    0.08    0.16
  -2   5  12    0.27    0.19
  -2   5  12    0.43    0.19
  -2   5  12    0.39    0.19
  -2   5  12    0.36    0.11
  -2   5  11    3.74    0.25
  -2   5  11    3.95    0.23
  -2   5  11    3.53    0.24
  -2   5  11    4.01    0.26
  -2   5  10    4.02    0.21
  -2   5  10    4.25    0.40
  -2   5  10    4.06    0.26
  -2   5  10    3.91    0.20
  -2   5   9   36.78    0.51
  -2   5   9   37.54    0.69
  -2   5   9   36.32    0.57
  -2   5   9   38.42    0.71
  -2   5   8   28.63    0.44
  -2   5   8   30.00    0.74
  -2   5   8   28.82    0.43
  -2   5   8   29.07    0.74
  -2   5   7   51.23    0.64
  -2   5   7   52.55    0.84
  -2   5   7   52.04    0.67
  -2   5   7   52.74    0.84
   2  -5  -6   22.34    0.58
  -2   5   6   22.95    0.61
  -2   5   6   21.65    0.59
  -2   5   6   22.99    0.32
  -2   5   6   22.47    0.30
   2  -5  -5   24.58    0.46
  -2   5   5   25.01    0.47
  -2   5   5   26.16    0.32
  -2   5   5   25.67    0.48
  -2   5   5   26.72    0.34
   2  -5  -4    0.24    0.04
   2  -5  -4    0.38    0.22
  -2   5   4    0.28    0.15
  -2   5   4    0.46    0.05
   2  -5  -3   17.65    0.22
   2  -5  -3   18.34    0.36
  -2   5   3   18.49    0.27
  -2   5   3   18.47    0.37
   2  -5  -2   31.78    0.51
   2  -5  -2   31.71    0.39
  -2   5   2   32.64    0.53
  -2   5   2   32.50    0.44
   2  -5  -1   16.60    0.25
   2  -5  -1   17.33    0.47
  -2   5   1   17.98    0.49
  -2   5   1   17.55    0.30
   2  -5   0    1.74    0.16
   2  -5   0    1.18    0.17
  -2   5   0    1.54    0.16
  -2   5   0    1.39    0.17
   2  -5   1   67.49    1.01
   2  -5   1   72.48    1.02
  -2   5  -1   70.18    1.01
  -2   5  -1   71.64    1.16
   2  -5   2  248.29    3.33
   2  -5   2  265.64    3.60
  -2   5  -2  257.56    3.58
  -2   5  -2  262.87    3.53
   2  -5   3  457.41    6.59
   2  -5   3  462.75    6.53
  -2   5  -3  471.59    6.53
  -2   5  -3  448.80    6.33
   2  -5   4   46.44    0.81
   2  -5   4   49.25    1.00
  -2   5  -4   47.23    0.79
  -2   5  -4   49.78    1.00
   2  -5   5  607.06    8.94
   2  -5   5  593.14    9.02
  -2   5  -5  605.71    8.80
  -2   5  -5  583.26    8.54
   2  -5   6   54.91    0.95
   2  -5   6   57.47    1.09
  -2   5  -6   57.75    1.06
  -2   5  -6   54.03    1.12
   2  -5   7   -0.14    0.21
   2  -5   7    0.03    0.25
  -2   5  -7    0.14    0.20
  -2   5  -7    0.07    0.15
   2  -5   8  112.95    1.74
   2  -5   8  115.03    1.90
  -2   5  -8  113.72    1.70
  -2   5  -8  111.59    1.79
   2  -5   9   33.01    0.65
   2  -5   9   34.41    0.83
  -2   5  -9   33.96    1.02
  -2   5  -9   34.60    0.80
   2  -5  10    1.85    0.58
   2  -5  10    1.42    0.33
  -2   5 -10    1.31    0.34
  -2   5 -10    1.49    0.19
   2  -5  11    0.95    0.63
   2  -5  11    1.06    0.33
  -2   5 -11    1.01    0.32
  -2   5 -11    1.16    0.56
  -2   4  14    1.52    0.23
  -2   4  14    0.09    0.29
  -2   4  13   11.43    0.44
  -2   4  13   12.07    0.41
  -2   4  13   10.32    0.43
  -2   4  12   13.61    0.58
  -2   4  12   12.12    0.41
  -2   4  12   12.92    0.32
  -2   4  11   15.83    0.42
  -2   4  11   14.50    0.41
  -2   4  11   15.38    0.32
  -2   4  11   16.30    0.42
  -2   4  10    5.64    0.26
  -2   4  10    5.10    0.25
  -2   4  10    4.94    0.16
  -2   4  10    5.22    0.25
  -2   4   9    1.08    0.18
  -2   4   9    0.93    0.14
  -2   4   9    0.85    0.30
  -2   4   9    0.80    0.15
  -2   4   8    1.94    0.14
  -2   4   8    1.72    0.19
  -2   4   8    1.53    0.14
  -2   4   8    1.49    0.30
  -2   4   7   24.58    0.60
  -2   4   7   25.07    0.47
  -2   4   7   25.32    0.38
  -2   4   7   25.72    0.36
  -2   4   6    6.53    0.24
  -2   4   6    6.21    0.23
  -2   4   6    6.26    0.14
  -2   4   6    6.42    0.14
   2  -4  -5    3.66    0.29
  -2   4   5    3.88    0.30
  -2   4   5    3.80    0.08
  -2   4   5    3.76    0.10
  -2   4   5    3.67    0.19
   2  -4  -4   22.38    0.39
  -2   4   4   21.58    0.39
  -2   4   4   22.23    0.40
  -2   4   4   22.75    0.25
  -2   4   4   22.61    0.25
   2  -4  -3   37.05    0.41
   2  -4  -3   37.71    0.55
  -2   4   3   38.56    0.57
  -2   4   3   39.51    0.42
   2  -4  -2   16.29    0.23
   2  -4  -2   16.29    0.39
  -2   4   2   16.70    0.19
  -2   4   2   17.27    0.41
   2  -4  -1    3.65    0.09
   2  -4  -1    3.68    0.16
  -2   4   1    4.40    0.17
  -2   4   1    3.98    0.13
   2  -4   0    0.79    0.08
   2  -4   0    0.99    0.19
  -2   4   0    0.85    0.20
  -2   4   0    0.92    0.07
   2  -4   1   64.22    0.87
   2  -4   1   69.72    0.91
  -2   4  -1   67.32    0.84
  -2   4  -1   69.94    1.01
   2  -4   2    0.71    0.17
   2  -4   2    0.82    0.13
  -2   4  -2    0.85    0.10
  -2   4  -2    0.59    0.13
   2  -4   3  167.72    2.17
   2  -4   3  156.71    2.16
  -2   4  -3  161.89    2.09
  -2   4  -3  160.26    2.08
   2  -4   4   11.50    0.31
   2  -4   4   12.86    0.30
  -2   4  -4   12.93    0.30
  -2   4  -4   12.04    0.42
   2  -4   5    8.21    0.37
   2  -4   5    7.62    0.30
  -2   4  -5    8.35    0.25
  -2   4  -5    8.10    0.29
   2  -4   6   16.81    0.45
   2  -4   6   17.89    0.37
  -2   4  -6   17.16    0.36
  -2   4  -6   17.33    0.41
   2  -4   7   40.78    0.79
   2  -4   7   39.67    0.77
  -2   4  -7   38.54    0.92
  -2   4  -7   38.94    0.76
   2  -4   8   36.64    0.78
   2  -4   8   38.55    0.79
  -2   4  -8   36.49    0.74
  -2   4  -8   35.82    0.61
   2  -4   9    0.04    0.25
   2  -4   9    0.19    0.23
  -2   4  -9    0.46    0.23
  -2   4  -9    0.01    0.14
   2  -4  10    1.08    0.29
   2  -4  10    1.01    0.33
  -2   4 -10    0.98    0.26
  -2   4 -10    1.10    0.31
   2  -4  11    8.07    0.41
   2  -4  11   10.45    0.81
  -2   4 -11    8.12    0.29
  -2   4 -11    8.92    0.47
   2  -4  12    5.25    0.50
   2  -4  12    3.94    0.25
  -2   4 -12    4.62    0.37
  -2   4 -12    3.98    0.74
  -2   3  14    3.34    0.37
  -2   3  14    3.90    0.44
  -2   3  14    3.70    0.25
   2  -3 -13   12.53    0.37
  -2   3  13   13.38    0.61
  -2   3  13   13.21    0.52
  -2   3  13   12.15    0.36
   2  -3 -12    6.61    0.25
  -2   3  12    6.25    0.24
  -2   3  12    6.20    0.37
  -2   3  12    6.68    0.30
   2  -3 -11    1.17    0.14
  -2   3  11    1.15    0.25
  -2   3  11    1.17    0.21
  -2   3  11    1.61    0.15
  -2   3  11    1.74    0.21
   2  -3 -10   56.64    0.83
  -2   3  10   59.36    1.00
  -2   3  10   61.25    1.00
  -2   3  10   62.07    1.19
  -2   3  10   57.54    0.96
   2  -3  -9   30.55    0.46
  -2   3   9   31.92    0.57
  -2   3   9   31.59    0.47
  -2   3   9   32.33    0.59
  -2   3   9   32.59    0.60
  -2   3   8    0.07    0.14
  -2   3   8    0.14    0.14
  -2   3   8    0.14    0.08
  -2   3   8    0.23    0.12
  -2   3   7   12.59    0.25
  -2   3   7   12.86    0.43
  -2   3   7   13.28    0.25
  -2   3   7   12.98    0.43
  -2   3   6    4.57    0.14
  -2   3   6    4.73    0.19
  -2   3   6    4.87    0.20
  -2   3   6    4.94    0.13
  -2   3   5   76.95    1.03
  -2   3   5   80.17    0.88
  -2   3   5   80.19    0.87
  -2   3   5   77.82    1.04
   2  -3  -4   85.06    1.18
  -2   3   4   85.77    1.22
  -2   3   4   85.79    1.22
  -2   3   4   90.68    0.94
  -2   3   4   88.87    0.91
   2  -3  -3    0.35    0.10
  -2   3   3    0.56    0.11
  -2   3   3    0.57    0.03
  -2   3   3    0.48    0.11
   2  -3  -2  205.45    2.26
   2  -3  -2  197.10    2.44
  -2   3   2  198.50    2.47
  -2   3   2  207.34    2.26
   2  -3  -1   78.15    0.96
   2  -3  -1   77.23    0.82
  -2   3   1   80.22    1.00
  -2   3   1   82.12    0.90
   2  -3   0    2.97    0.12
   2  -3   0    3.42    0.20
  -2   3   0    3.14    0.11
  -2   3   0    3.05    0.14
   2  -3   1    0.08    0.09
   2  -3   1    0.11    0.08
  -2   3  -1    0.14    0.08
  -2   3  -1    0.10    0.06
   2  -3   2  211.27    2.65
   2  -3   2  222.20    2.76
  -2   3  -2  216.23    2.67
  -2   3  -2  212.56    2.64
   2  -3   3    4.02    0.24
   2  -3   3    4.82    0.15
  -2   3  -3    4.47    0.22
  -2   3  -3    4.45    0.22
   2  -3   4    5.46    0.19
   2  -3   4    5.73    0.17
  -2   3  -4    5.44    0.19
  -2   3  -4    5.52    0.17
   2  -3   5   11.10    0.29
   2  -3   5   11.75    0.25
  -2   3  -5   10.62    0.27
  -2   3  -5   11.00    0.24
   2  -3   6   26.66    0.51
   2  -3   6   28.30    0.56
  -2   3  -6   26.90    0.63
  -2   3  -6   26.53    0.43
   2  -3   7   68.71    0.98
   2  -3   7   69.77    1.09
  -2   3  -7   68.17    0.94
  -2   3  -7   67.50    1.06
   2  -3   8    3.17    0.48
   2  -3   8    3.63    0.29
  -2   3  -8    3.25    0.17
  -2   3  -8    2.83    0.44
   2  -3   9    1.96    0.27
   2  -3   9    2.33    0.48
  -2   3  -9    2.08    0.29
  -2   3  -9    1.72    0.24
   2  -3  10   17.04    0.51
   2  -3  10   19.09    0.58
  -2   3 -10   17.23    0.54
  -2   3 -10   16.18    0.35
   2  -3  11    0.19    0.25
   2  -3  11   -0.16    0.13
  -2   3 -11    0.00    0.10
  -2   3 -11    0.07    0.35
   2  -3  12    0.75    0.25
   2  -3  12    0.23    0.35
  -2   3 -12    0.45    0.31
  -2   3 -12    0.54    0.23
   2  -3  13    0.20    0.34
  -2   3 -13   -0.01    0.42
   2  -2 -14    6.98    0.32
  -2   2  14    7.45    0.47
  -2   2  14    8.09    0.35
  -2   2  14    7.68    0.52
   2  -2 -13   12.59    0.38
  -2   2  13   12.38    0.38
  -2   2  13   14.01    0.44
  -2   2  13   14.06    0.42
   2  -2 -12    1.62    0.19
  -2   2  12    1.58    0.19
  -2   2  12    2.22    0.32
  -2   2  12    2.03    0.23
   2  -2 -11   25.66    0.53
   2  -2 -11   26.19    0.63
  -2   2  11   29.09    0.79
  -2   2  11   27.66    0.54
  -2   2  11   28.51    0.77
   2  -2 -10    7.00    0.23
   2  -2 -10    6.65    0.29
  -2   2  10    7.27    0.46
  -2   2  10    6.84    0.36
  -2   2  10    7.33    0.30
   2  -2  -9   32.58    0.52
   2  -2  -9   37.45    0.65
  -2   2   9   37.89    0.66
  -2   2   9   34.83    0.55
  -2   2   9   35.65    0.65
   2  -2  -8    1.32    0.11
   2  -2  -8    1.43    0.19
  -2   2   8    1.99    0.20
  -2   2   8    1.69    0.19
  -2   2   8    1.30    0.19
   2  -2  -7    2.86    0.19
   2  -2  -7    3.55    0.12
  -2   2   7    2.94    0.11
  -2   2   7    2.95    0.19
  -2   2   7    3.13    0.30
   2  -2  -6   25.61    0.36
   2  -2  -6   17.21    0.35
  -2   2   6   26.87    0.39
  -2   2   6   26.08    0.44
  -2   2   6   27.06    0.57
   2  -2  -5   47.21    0.55
  -2   2   5   48.32    0.57
  -2   2   5   47.33    0.77
  -2   2   5   49.59    0.57
  -2   2   5   47.00    0.66
  -2   2   4   60.61    0.65
  -2   2   4   55.98    0.74
  -2   2   4   57.62    0.75
  -2   2   4   59.36    0.62
   2  -2  -3  355.01    4.52
  -2   2   3  349.66    4.45
  -2   2   3  352.98    4.48
   2  -2  -2  108.66    1.30
  -2   2   2  109.79    1.31
  -2   2   2  103.74    1.24
   2  -2  -1  424.50    5.40
   2  -2  -1  421.10    4.96
  -2   2   1  437.28    5.16
  -2   2   1  426.47    5.43
   2  -2   0  312.56    3.86
   2  -2   0  313.51    3.72
  -2   2   0  315.13    3.74
  -2   2   0  321.80    4.06
   2  -2   1  546.66    7.05
   2  -2   1  570.21    7.42
  -2   2  -1  577.40    7.54
  -2   2  -1  568.67    7.41
   2  -2   2  460.61    5.99
   2  -2   2  478.22    6.14
  -2   2  -2  466.79    5.97
  -2   2  -2  462.31    6.02
   2  -2   3   26.00    0.35
   2  -2   3   25.37    0.36
  -2   2  -3   25.34    0.34
  -2   2  -3   25.92    0.36
   2  -2   4  126.04    1.59
   2  -2   4  131.60    1.58
  -2   2  -4  132.39    1.66
  -2   2  -4  128.94    1.69
   2  -2   5    2.54    0.18
   2  -2   5    2.65    0.16
  -2   2  -5    2.85    0.18
  -2   2  -5    2.28    0.16
   2  -2   6    9.67    0.28
   2  -2   6    9.79    0.20
  -2   2  -6    9.16    0.38
  -2   2  -6    9.25    0.25
   2  -2   7   14.21    0.52
   2  -2   7   14.82    0.27
  -2   2  -7   13.91    0.25
  -2   2  -7   14.49    0.35
   2  -2   8   30.68    0.47
   2  -2   8   30.48    0.61
  -2   2  -8   30.20    0.45
  -2   2  -8   30.17    0.59
   2  -2   9    9.63    0.24
   2  -2   9    8.98    0.37
  -2   2  -9    9.26    0.22
  -2   2  -9    9.93    0.36
   2  -2  10    6.07    0.20
   2  -2  10    6.12    0.40
  -2   2 -10    6.43    0.57
  -2   2 -10    6.19    0.28
   2  -2  11    2.51    0.34
   2  -2  11    2.06    0.16
  -2   2 -11    2.14    0.32
  -2   2 -11    2.34    0.14
   2  -2  12    0.27    0.44
   2  -2  12    0.11    0.19
  -2   2 -12   -0.01    0.14
  -2   2 -12    0.03    0.33
   2  -2  13    0.86    0.35
  -2   2 -13    0.82    0.33
   2  -2  14    0.39    0.59
  -2   2 -14    0.12    0.49
   2  -1 -14    0.82    0.21
   2  -1 -14    0.44    0.20
  -2   1  14    0.75    0.33
  -2   1  14    0.10    0.22
   2  -1 -13    6.55    0.45
   2  -1 -13    6.13    0.45
  -2   1  13    6.86    0.50
  -2   1  13    6.44    0.49
   2  -1 -12   30.08    0.63
   2  -1 -12   30.10    0.62
  -2   1  12   32.08    0.86
  -2   1  12   32.04    0.68
   2  -1 -11   91.10    1.63
   2  -1 -11   86.09    1.55
  -2   1  11   95.67    1.72
  -2   1  11   95.89    1.73
  -2   1  11   94.74    1.70
   2  -1 -10    2.17    0.34
   2  -1 -10    2.73    0.19
  -2   1  10    2.54    0.22
  -2   1  10    2.96    0.35
  -2   1  10    2.54    0.19
   2  -1  -9   69.68    1.15
   2  -1  -9   72.15    1.10
  -2   1   9   76.27    1.16
  -2   1   9   75.53    1.11
  -2   1   9   76.11    1.16
   2  -1  -8  328.83    4.56
   2  -1  -8  341.70    4.83
  -2   1   8  354.50    5.05
  -2   1   8  355.13    5.08
  -2   1   8  361.56    5.32
   2  -1  -7   35.74    0.57
   2  -1  -7   32.76    0.55
  -2   1   7   35.92    0.61
  -2   1   7   36.57    0.59
  -2   1   7   35.13    0.58
   2  -1  -6  296.79    3.94
   2  -1  -6  293.88    3.74
  -2   1   6  318.96    4.21
  -2   1   6  310.25    4.32
  -2   1   6  307.17    4.14
   2  -1  -5  236.58    2.92
   2  -1  -5  239.12    3.08
  -2   1   5  253.54    3.16
  -2   1   5  249.67    3.23
  -2   1   5  243.11    3.14
   2  -1  -4    1.53    0.20
  -2   1   4    0.19    0.10
  -2   1   4    0.67    0.17
   2  -1  -3   -0.01    0.01
  -2   1   3  298.33    3.81
  -2   1   3  294.03    3.66
  -2   1   3  307.45    3.50
  -2   1   2   53.15    0.64
  -2   1   2   53.99    0.65
   2  -1  -1  559.18    7.21
   2  -1  -1  547.27    6.53
  -2   1   1  565.12    7.28
  -2   1   1  558.77    7.28
   2  -1   0    2.65    0.07
   2  -1   0    2.43    0.14
  -2   1   0    2.58    0.09
  -2   1   0    2.57    0.07
   2  -1   1  517.21    6.55
   2  -1   1  534.32    6.79
  -2   1  -1  539.53    6.85
  -2   1  -1  529.55    6.67
   2  -1   2 1547.47   23.25
   2  -1   2 1621.24   24.16
  -2   1  -2 1565.40   23.32
  -2   1  -2 1612.81   23.86
   2  -1   3  714.44    9.67
   2  -1   3  726.01    9.67
  -2   1  -3  711.45    9.41
  -2   1  -3  696.56    9.39
   2  -1   4  121.38    1.58
   2  -1   4  127.07    1.45
  -2   1  -4  123.77    1.41
  -2   1  -4  122.29    1.50
   2  -1   5   63.05    0.79
   2  -1   5   59.68    0.79
  -2   1  -5   58.61    0.78
  -2   1  -5   60.93    0.75
   2  -1   6   71.82    0.85
   2  -1   6   67.55    0.94
  -2   1  -6   68.18    0.81
  -2   1  -6   68.64    1.06
   2  -1   7  161.86    2.21
   2  -1   7  172.15    2.20
  -2   1  -7  161.03    2.18
  -2   1  -7  163.91    2.08
   2  -1   8   -0.01    0.07
   2  -1   8    0.11    0.14
  -2   1  -8    0.02    0.10
  -2   1  -8    0.08    0.14
   2  -1   9    1.69    0.24
   2  -1   9    1.87    0.11
  -2   1  -9    1.65    0.16
  -2   1  -9    1.81    0.22
   2  -1  10   23.65    0.78
   2  -1  10   21.85    0.36
  -2   1 -10   21.05    0.41
  -2   1 -10   22.72    0.55
   2  -1  11    1.19    0.12
   2  -1  11    1.47    0.29
  -2   1 -11    1.36    0.11
  -2   1 -11    1.50    0.45
   2  -1  12    0.44    0.18
   2  -1  12    1.01    0.48
  -2   1 -12    0.54    0.17
  -2   1 -12    0.66    0.27
   2  -1  13    1.09    0.35
  -2   1 -13    1.63    0.56
   2  -1  14   -0.46    0.54
  -2   1 -14    0.12    0.29
   2   0 -14    1.33    0.22
   2   0 -14    0.99    0.25
  -2   0  14    0.96    0.24
  -2   0  14    0.90    0.28
   2   0 -13    0.67    0.35
   2   0 -13    0.75    0.20
  -2   0  13    0.66    0.22
  -2   0  13    0.88    0.38
   2   0 -12    2.78    0.37
   2   0 -12    2.59    0.37
  -2   0  12    2.66    0.25
  -2   0  12    2.59    0.25
   2   0 -11    1.77    0.21
   2   0 -11    1.89    0.20
  -2   0  11    2.00    0.23
  -2   0  11    1.73    0.36
   2   0 -10   14.32    0.35
   2   0 -10   14.58    0.51
  -2   0  10   15.36    0.40
  -2   0  10   15.70    0.39
   2   0  -9    0.35    0.22
   2   0  -9    0.45    0.15
  -2   0   9    0.41    0.15
  -2   0   9    0.41    0.17
   2   0  -8   44.81    0.79
   2   0  -8   46.64    0.87
  -2   0   8   49.92    0.89
  -2   0   8   48.73    0.93
   2   0  -7   80.72    1.08
   2   0  -7   82.05    1.13
  -2   0   7   89.34    1.39
  -2   0   7   88.71    1.33
   2   0  -6  235.28    3.09
   2   0  -6  232.54    2.99
  -2   0   6  245.20    3.26
  -2   0   6  250.46    3.25
   2   0  -5  573.05    7.87
   2   0  -5  585.08    7.99
  -2   0   5  612.04    8.43
  -2   0   5  622.03    8.55
   2   0  -4  204.44    2.42
   2   0  -4  209.62    2.59
  -2   0   4  219.57    2.66
  -2   0   4  216.21    2.70
   2   0  -3   44.38    0.47
   2   0  -3   44.58    0.63
  -2   0   3   47.07    0.55
  -2   0   3   47.68    0.60
   2   0  -2  530.31    6.68
   2   0  -2  395.53    4.77
  -2   0   2  540.37    6.97
  -2   0   2  559.53    6.95
   2   0  -1    9.26    0.17
  -2   0   1    5.94    0.10
  -2   0   1    6.05    0.19
   2   0   0 1418.43   20.49
  -2   0   0 1424.80   20.16
  -2   0   0 1404.14   20.17
  -2   0   0 1344.59   19.33
   2   0   1 1253.44   17.68
   2   0   1 1228.38   17.34
   2   0   1 1237.50   17.43
  -2   0  -1 1248.15   17.65
  -2   0  -1 1279.54   18.03
  -2   0  -1 1244.64   17.60
   2   0   2 1091.18   15.31
   2   0   2 1128.35   15.61
  -2   0  -2 1146.03   15.89
  -2   0  -2 1113.95   15.62
   2   0   3   47.13    0.52
   2   0   3   45.04    0.55
  -2   0  -3   45.91    0.47
  -2   0  -3   45.89    0.55
   2   0   4  787.05   10.36
   2   0   4  781.74   10.84
  -2   0  -4  771.65   10.09
  -2   0  -4  758.76   10.39
   2   0   5 1007.23   14.51
   2   0   5 1052.29   14.70
  -2   0  -5 1030.56   14.28
  -2   0  -5  995.69   14.37
   2   0   6    3.32    0.18
   2   0   6    3.53    0.13
  -2   0  -6    3.31    0.08
  -2   0  -6    3.52    0.18
   2   0   7   10.34    0.21
   2   0   7    9.93    0.28
  -2   0  -7   10.21    0.28
  -2   0  -7    9.85    0.19
   2   0   8   30.99    0.72
   2   0   8   32.40    0.46
  -2   0  -8   30.01    0.69
  -2   0  -8   29.83    0.42
   2   0   9   15.67    0.40
   2   0   9   14.81    0.30
  -2   0  -9   14.51    0.38
  -2   0  -9   14.12    0.26
   2   0  10   27.25    0.46
   2   0  10   28.69    0.60
  -2   0 -10   27.05    0.58
  -2   0 -10   25.31    0.35
   2   0  11   20.90    0.35
   2   0  11   24.22    0.82
  -2   0 -11   19.89    0.37
  -2   0 -11   22.28    0.78
   2   0  12    0.33    0.25
   2   0  12    0.22    0.14
  -2   0 -12    0.29    0.08
  -2   0 -12    0.38    0.24
   2   0  13   10.29    0.51
  -2   0 -13    8.70    0.69
   2   0  14    0.69    0.54
  -2   0 -14    0.57    0.30
   2   1 -14    0.57    0.30
   2   1 -14    0.02    0.22
  -2  -1  14    0.17    0.42
  -2  -1  14    0.37    0.35
   2   1 -13    5.98    0.35
   2   1 -13    6.12    0.31
  -2  -1  13    6.84    0.52
  -2  -1  13    7.34    0.40
   2   1 -12    5.65    0.46
   2   1 -12    5.88    0.30
  -2  -1  12    5.61    0.31
  -2  -1  12    6.39    0.53
   2   1 -11    6.39    0.42
   2   1 -11    5.92    0.43
  -2  -1  11    6.09    0.32
  -2  -1  11    6.67    0.30
   2   1 -10    4.10    0.35
   2   1 -10    3.42    0.23
  -2  -1  10    4.45    0.25
  -2  -1  10    3.63    0.26
   2   1  -9    9.42    0.30
   2   1  -9    8.92    0.29
  -2  -1   9   10.30    0.46
  -2  -1   9   10.30    0.31
   2   1  -8   14.09    0.32
   2   1  -8   14.64    0.46
  -2  -1   8   16.33    0.50
  -2  -1   8   15.23    0.35
   2   1  -7   13.18    0.28
   2   1  -7   13.27    0.30
  -2  -1   7   13.75    0.32
  -2  -1   7   13.52    0.30
   2   1  -6   57.46    0.90
   2   1  -6   53.62    0.73
  -2  -1   6   58.73    0.82
  -2  -1   6   58.06    0.79
   2   1  -5    1.83    0.13
   2   1  -5    1.84    0.11
  -2  -1   5    1.71    0.14
  -2  -1   5    2.08    0.19
   2   1  -4   20.22    0.32
   2   1  -4   19.30    0.34
  -2  -1   4   21.07    0.42
  -2  -1   4   20.59    0.37
   2   1  -3  335.50    4.13
   2   1  -3  338.29    4.24
  -2  -1   3  335.95    4.31
  -2  -1   3  340.22    4.17
   2   1  -2    0.08    0.08
   2   1  -2    0.73    0.09
  -2  -1   2    0.15    0.08
  -2  -1   2    0.19    0.06
   2   1  -1  349.29    4.15
   2   1  -1  358.66    4.42
  -2  -1   1  346.68    4.22
  -2  -1   1  361.50    4.30
   2   1   0   43.68    0.48
   2   1   0   43.29    0.53
  -2  -1   0   42.96    0.48
  -2  -1   0   44.51    0.48
   2   1   1   33.14    0.43
   2   1   1   32.24    0.38
  -2  -1  -1   32.88    0.42
  -2  -1  -1   32.32    0.38
   2   1   2  443.95    5.54
   2   1   2  427.13    5.28
  -2  -1  -2   14.47    0.22
   2   1   3  771.92   10.47
   2   1   3  772.47   10.36
  -2  -1  -3  780.45   10.58
  -2  -1  -3  792.98   10.07
   2   1   4   29.10    0.39
   2   1   4   30.82    0.29
  -2  -1  -4   29.17    0.26
  -2  -1  -4   29.18    0.39
   2   1   5  136.73    1.41
   2   1   5  127.26    1.66
  -2  -1  -5  124.83    1.28
  -2  -1  -5  125.97    1.63
   2   1   6   12.10    0.15
   2   1   6   11.93    0.25
  -2  -1  -6   11.54    0.25
  -2  -1  -6   11.22    0.14
   2   1   7  420.88    5.78
   2   1   7  444.60    5.59
  -2  -1  -7  416.41    5.17
  -2  -1  -7  419.54    5.74
   2   1   8  290.03    4.01
   2   1   8  306.36    3.82
  -2  -1  -8  286.20    3.53
  -2  -1  -8  290.65    4.01
   2   1   9    0.09    0.05
   2   1   9    0.08    0.16
  -2  -1  -9    0.10    0.14
  -2  -1  -9    0.03    0.07
   2   1  10    0.73    0.32
   2   1  10    0.54    0.06
  -2  -1 -10    0.46    0.06
  -2  -1 -10    0.52    0.19
   2   1  11    0.07    0.10
   2   1  11    0.22    0.19
  -2  -1 -11    0.20    0.32
  -2  -1 -11    0.19    0.06
   2   1  12    0.25    0.11
   2   1  12    0.25    0.12
   2   1  12    0.53    0.24
  -2  -1 -12    0.31    0.11
  -2  -1 -12    0.34    0.23
   2   1  13    1.77    0.31
  -2  -1 -13    2.30    0.30
   2   1  14    0.98    0.30
   2   1  14    0.82    0.52
  -2  -1 -14    0.97    0.49
   2   1  15   -0.02    0.25
   2   1  15   -0.05    0.27
  -2  -1 -15    0.06    0.26
   2   2 -13    0.22    0.30
   2   2 -13    0.24    0.35
  -2  -2  13    0.26    0.25
  -2  -2  13   -0.03    0.19
   2   2 -12    0.38    0.37
   2   2 -12    0.77    0.32
  -2  -2  12    0.82    0.37
  -2  -2  12    0.91    0.44
   2   2 -11    0.52    0.19
   2   2 -11    0.52    0.34
  -2  -2  11    0.30    0.34
  -2  -2  11    0.62    0.24
   2   2 -10   14.45    0.40
   2   2 -10   14.16    0.41
  -2  -2  10   15.63    0.46
  -2  -2  10   15.58    0.43
   2   2  -9   71.93    1.14
   2   2  -9   74.99    1.34
  -2  -2   9   79.98    1.28
  -2  -2   9   77.54    1.23
   2   2  -8    0.76    0.16
   2   2  -8    0.95    0.16
  -2  -2   8    1.06    0.19
  -2  -2   8    0.95    0.30
   2   2  -7   18.58    0.49
   2   2  -7   18.73    0.38
  -2  -2   7   19.74    0.41
  -2  -2   7   20.00    0.41
   2   2  -6   13.83    0.29
   2   2  -6   14.36    0.41
  -2  -2   6   14.89    0.32
  -2  -2   6   14.56    0.45
   2   2  -5    0.24    0.10
   2   2  -5    0.11    0.09
  -2  -2   5    0.16    0.11
  -2  -2   5    0.29    0.17
   2   2  -4    0.13    0.09
   2   2  -4    0.18    0.08
  -2  -2   4    0.24    0.16
  -2  -2   4    0.15    0.15
   2   2  -3    1.12    0.17
   2   2  -3    1.01    0.09
  -2  -2   3    0.91    0.10
  -2  -2   3    0.68    0.09
   2   2  -2  377.29    4.69
   2   2  -2  380.70    4.77
  -2  -2   2  386.46    4.82
  -2  -2   2  376.04    4.72
   2   2  -1  126.91    1.45
   2   2  -1  127.75    1.46
  -2  -2   1  126.34    1.45
  -2  -2   1  130.31    1.49
   2   2   0  493.20    6.19
   2   2   0  494.21    6.26
  -2  -2   0  477.63    5.97
  -2  -2   0  494.69    6.20
   2   2   1   28.48    0.35
   2   2   1   28.34    0.35
  -2  -2  -1   28.61    0.35
  -2  -2  -1   27.99    0.35
   2   2   2   38.07    0.46
   2   2   2   38.03    0.38
  -2  -2  -2   37.28    0.39
  -2  -2  -2   37.86    0.46
   2   2   3   21.44    0.30
   2   2   3   21.45    0.30
  -2  -2  -3   21.20    0.30
   2   2   4   25.80    0.35
   2   2   4   26.49    0.36
   2   2   5    6.14    0.16
   2   2   5    6.03    0.17
  -2  -2  -5    6.63    0.17
   2   2   6   13.01    0.12
   2   2   6   12.59    0.35
   2   2   6   12.16    0.26
   2   2   6   13.26    0.13
  -2  -2  -6   12.55    0.25
   2   2   7    4.66    0.19
   2   2   7    4.39    0.07
   2   2   7    4.44    0.08
   2   2   7    4.33    0.19
  -2  -2  -7    4.56    0.19
   2   2   8    1.57    0.07
   2   2   8    1.48    0.18
   2   2   8    1.53    0.17
   2   2   8    1.52    0.07
  -2  -2  -8    1.62    0.29
   2   2   9   36.48    0.63
   2   2   9   36.84    0.45
   2   2   9   35.11    0.42
  -2  -2  -9    7.11    0.12
   2   2  10   26.44    0.55
   2   2  10   28.66    0.39
   2   2  10   28.82    0.57
   2   2  10   27.33    0.36
  -2  -2 -10    0.85    0.06
   2   2  11    9.07    0.19
   2   2  11    9.75    0.36
   2   2  11   10.27    0.37
   2   2  11    9.12    0.19
  -2  -2 -11    8.92    0.35
   2   2  12    0.95    0.25
   2   2  12    0.96    0.07
   2   2  12    0.84    0.11
   2   2  12    1.07    0.25
  -2  -2 -12    0.87    0.25
   2   2  13    0.30    0.23
   2   2  13    0.06    0.23
  -2  -2 -13    0.10    0.22
   2   2  14    0.39    0.42
   2   2  14    0.03    0.41
  -2  -2 -14    0.27    0.42
   2   2  15    0.36    0.29
   2   2  15    0.25    0.30
  -2  -2 -15    0.19    0.28
   2   3 -13    2.33    0.42
   2   3 -13    2.16    0.51
  -2  -3  13    3.66    0.50
  -2  -3  13    2.90    0.63
   2   3 -12    0.05    0.28
   2   3 -12   -0.10    0.20
  -2  -3  12    0.03    0.25
  -2  -3  12   -0.16    0.19
   2   3 -11   -0.03    0.27
   2   3 -11   -0.06    0.19
  -2  -3  11    0.31    0.25
  -2  -3  11    0.32    0.21
   2   3 -10   29.03    0.61
   2   3 -10   28.78    0.63
  -2  -3  10   30.89    0.71
  -2  -3  10   31.84    0.87
   2   3  -9    7.17    0.31
   2   3  -9    7.50    0.30
  -2  -3   9    8.32    0.33
  -2  -3   9    8.46    0.55
   2   3  -8    7.37    0.29
   2   3  -8    6.91    0.28
  -2  -3   8    7.50    0.49
  -2  -3   8    7.61    0.45
   2   3  -7   86.01    1.40
   2   3  -7   82.89    1.39
  -2  -3   7   86.79    1.29
  -2  -3   7   86.38    1.30
   2   3  -6  161.49    2.37
   2   3  -6  162.81    2.37
  -2  -3   6  164.81    2.28
  -2  -3   6  164.87    2.25
   2   3  -5  197.40    2.59
   2   3  -5  197.30    2.62
  -2  -3   5  207.41    2.90
  -2  -3   5  203.65    2.89
   2   3  -4    5.14    0.18
   2   3  -4    4.99    0.17
  -2  -3   4    5.05    0.29
  -2  -3   4    5.20    0.19
   2   3  -3  416.33    5.43
   2   3  -3  415.40    5.40
  -2  -3   3  421.92    5.51
  -2  -3   3  425.68    5.70
   2   3  -2   19.47    0.30
   2   3  -2   19.43    0.30
  -2  -3   2   19.62    0.30
  -2  -3   2   20.21    0.31
   2   3  -1  298.25    3.74
   2   3  -1  292.94    3.59
  -2  -3   1  291.73    3.65
  -2  -3   1  297.30    3.74
   2   3   0  131.36    1.57
   2   3   0  134.17    1.56
  -2  -3   0  132.33    1.58
  -2  -3   0  134.49    1.65
   2   3   1  444.33    5.69
   2   3   1  449.38    5.64
  -2  -3  -1  451.48    5.67
  -2  -3  -1  440.96    5.46
   2   3   2  170.62    1.90
   2   3   2  167.37    1.97
  -2  -3  -2  167.25    1.89
  -2  -3  -2  167.03    2.03
   2   3   3   36.00    0.40
   2   3   3   35.16    0.46
  -2  -3  -3   35.35    0.46
  -2  -3  -3   34.61    0.35
   2   3   4  396.05    5.14
   2   3   4  406.75    4.80
   2   3   4  398.24    5.05
  -2  -3  -4    0.41    0.03
   2   3   5  210.01    2.63
   2   3   5  216.08    2.33
   2   3   5  224.58    2.43
   2   3   5  210.12    2.61
   2   3   6   28.85    0.28
   2   3   6   28.61    0.44
   2   3   6   27.91    0.42
   2   3   6   29.99    0.30
   2   3   7    4.64    0.19
   2   3   7    4.93    0.08
   2   3   7    4.42    0.19
   2   3   7    4.91    0.08
  -2  -3  -7    4.71    0.19
   2   3   8   -0.05    0.21
   2   3   8    0.08    0.04
   2   3   8    0.09    0.04
   2   3   8    0.08    0.12
  -2  -3  -8    0.05    0.19
   2   3   9    2.26    0.31
   2   3   9    2.37    0.21
  -2  -3  -9    2.22    0.20
   2   3  10   30.36    0.39
   2   3  10   30.65    0.60
   2   3  10   30.32    0.75
   2   3  10   29.17    0.37
  -2  -3 -10   30.68    0.60
   2   3  11    4.31    0.13
   2   3  11    4.39    0.44
   2   3  11    4.61    0.29
   2   3  11    4.27    0.13
  -2  -3 -11    5.12    0.29
   2   3  12    0.88    0.09
   2   3  12    0.88    0.09
   2   3  12    0.83    0.24
   2   3  12    1.11    0.39
  -2  -3 -12    0.86    0.24
   2   3  13    6.56    0.57
   2   3  13    6.15    0.57
  -2  -3 -13    6.52    0.56
   2   3  14    1.15    0.48
   2   3  14    1.34    0.49
  -2  -3 -14    1.28    0.48
   2   3  15    0.15    0.25
   2   3  15   -0.13    0.42
  -2  -3 -15    0.14    0.25
   2   4 -12    7.61    0.55
   2   4 -12    7.45    0.43
  -2  -4  12    7.72    0.41
  -2  -4  12    8.78    0.51
   2   4 -11    2.70    0.41
   2   4 -11    2.31    0.30
  -2  -4  11    2.10    0.46
  -2  -4  11    2.32    0.35
   2   4 -10    1.66    0.24
   2   4 -10    1.47    0.44
  -2  -4  10    1.61    0.52
  -2  -4  10    1.89    0.27
   2   4  -9   27.60    0.83
   2   4  -9   27.90    0.59
  -2  -4   9   29.51    0.63
  -2  -4   9   30.20    0.94
   2   4  -8   14.03    0.39
   2   4  -8   13.46    0.40
  -2  -4   8   15.93    0.67
  -2  -4   8   14.44    0.41
   2   4  -7   50.33    0.84
   2   4  -7   48.38    0.80
  -2  -4   7   52.79    0.88
  -2  -4   7   52.47    0.89
   2   4  -6    8.05    0.28
   2   4  -6    7.89    0.29
  -2  -4   6    8.03    0.30
  -2  -4   6    8.63    0.32
   2   4  -5   35.54    0.60
   2   4  -5   35.42    0.77
  -2  -4   5   37.58    0.81
  -2  -4   5   36.17    0.83
   2   4  -4  711.33   10.15
   2   4  -4  734.69   10.66
  -2  -4   4  730.20   10.46
  -2  -4   4  722.07   10.53
   2   4  -3    2.01    0.16
   2   4  -3    2.34    0.25
  -2  -4   3    2.37    0.28
  -2  -4   3    4.93    0.19
   2   4  -2   46.24    0.72
   2   4  -2   46.15    0.63
  -2  -4   2   46.65    0.63
   2   4  -1   18.96    0.41
   2   4  -1   18.90    0.39
  -2  -4   1   18.06    0.31
  -2  -4   1   18.62    0.39
   2   4   0  428.99    5.49
   2   4   0  437.53    5.58
  -2  -4   0  432.11    5.61
  -2  -4   0  439.64    5.75
   2   4   1  715.76    9.56
   2   4   1  712.34    9.57
  -2  -4  -1  723.86    9.68
  -2  -4  -1  731.14    9.96
   2   4   2  155.31    1.85
   2   4   2  153.28    1.83
  -2  -4  -2  151.90    1.75
  -2  -4  -2  152.94    1.90
   2   4   3   50.33    0.57
   2   4   3   50.07    0.63
  -2  -4  -3   49.90    0.70
  -2  -4  -3   49.30    0.55
   2   4   4  135.09    1.54
   2   4   4  128.48    1.57
  -2  -4  -4  128.72    1.46
  -2  -4  -4  125.60    1.53
   2   4   5  160.02    1.82
   2   4   5  153.34    1.92
   2   4   5  151.69    1.88
  -2  -4  -5  152.91    1.73
  -2  -4  -5  145.91    1.82
   2   4   6   22.96    0.29
   2   4   6   21.91    0.50
   2   4   6   23.31    0.26
   2   4   6   22.39    0.37
  -2  -4  -6   21.41    0.25
   2   4   7  417.23    5.86
   2   4   7  421.04    5.23
   2   4   7  439.44    5.48
   2   4   7  415.80    5.64
   2   4   8    0.19    0.06
   2   4   8    0.19    0.21
   2   4   8    0.14    0.03
   2   4   8    0.21    0.23
   2   4   9    2.14    0.09
   2   4   9    1.95    0.21
   2   4   9    2.21    0.06
   2   4   9    2.44    0.20
   2   4  10   54.79    0.67
   2   4  10   54.93    0.91
   2   4  10   56.05    0.92
   2   4  10   53.81    0.66
   2   4  11    0.14    0.07
   2   4  11    0.22    0.29
   2   4  11    0.14    0.07
   2   4  11    0.15    0.19
   2   4  12    9.26    0.56
   2   4  12   10.23    0.56
   2   4  12    9.03    0.19
   2   4  13    0.40    0.22
   2   4  13    0.03    0.37
   2   4  14    1.48    0.48
   2   4  14    1.69    0.30
   2   4  15   -0.09    0.23
   2   4  15   -0.03    0.40
   2   5 -12    1.25    0.25
   2   5 -12    1.13    0.32
  -2  -5  12    1.27    0.39
  -2  -5  12    0.90    0.48
   2   5 -11    2.59    0.29
   2   5 -11    2.65    0.33
  -2  -5  11    2.79    0.32
  -2  -5  11    3.27    0.65
   2   5 -10   -0.14    0.19
   2   5 -10   -0.10    0.23
  -2  -5  10    0.09    0.39
  -2  -5  10   -0.08    0.30
   2   5  -9    1.13    0.26
   2   5  -9    1.18    0.23
  -2  -5   9    1.21    0.26
  -2  -5   9    1.31    0.49
   2   5  -8   -0.06    0.18
   2   5  -8   -0.03    0.17
  -2  -5   8   -0.06    0.18
  -2  -5   8   -0.08    0.35
   2   5  -7    0.13    0.17
   2   5  -7    0.04    0.16
  -2  -5   7    0.19    0.31
  -2  -5   7   -0.02    0.28
   2   5  -6    4.23    0.39
   2   5  -6    3.81    0.24
  -2  -5   6    4.39    0.41
  -2  -5   6    4.15    0.29
   2   5  -5    0.93    0.18
   2   5  -5    0.83    0.19
  -2  -5   5    0.85    0.31
  -2  -5   5    1.08    0.21
   2   5  -4    9.75    0.29
   2   5  -4    9.71    0.29
  -2  -5   4    9.41    0.45
  -2  -5   4   10.23    0.32
   2   5  -3    4.96    0.21
   2   5  -3    4.77    0.21
  -2  -5   3    4.89    0.22
  -2  -5   3    4.78    0.24
   2   5  -2   83.83    1.11
   2   5  -2   84.42    1.10
  -2  -5   2   83.33    1.12
  -2  -5   2   84.17    1.11
   2   5  -1   18.95    0.33
   2   5  -1   18.84    0.34
  -2  -5   1   18.46    0.33
  -2  -5   1   18.74    0.46
   2   5   0   38.71    0.55
   2   5   0   40.35    0.54
  -2  -5   0   39.03    0.62
  -2  -5   0   37.94    0.55
   2   5   1  147.48    1.93
   2   5   1  148.80    1.80
  -2  -5  -1  147.87    1.79
  -2  -5  -1  147.09    1.93
   2   5   2   13.98    0.30
   2   5   2   13.88    0.27
  -2  -5  -2   13.50    0.26
  -2  -5  -2   13.87    0.30
   2   5   3  135.48    1.67
   2   5   3  137.91    1.63
  -2  -5  -3  131.56    1.61
  -2  -5  -3  132.43    1.56
   2   5   4   21.90    0.35
   2   5   4   22.29    0.47
  -2  -5  -4   21.48    0.35
  -2  -5  -4   21.13    0.29
   2   5   5   44.49    0.53
   2   5   5   45.01    0.74
  -2  -5  -5   42.04    0.55
  -2  -5  -5   42.28    0.59
   2   5   6    1.51    0.12
   2   5   6    1.61    0.14
   2   5   6    1.66    0.15
  -2  -5  -6    1.39    0.11
  -2  -5  -6    1.50    0.14
   2   5   7    0.39    0.09
   2   5   7    0.55    0.14
   2   5   7    0.41    0.09
   2   5   7    0.39    0.14
  -2  -5  -7    0.44    0.08
   2   5   8   16.16    0.36
   2   5   8   16.04    0.22
   2   5   8   15.74    0.35
   2   5   8   15.53    0.25
   2   5   9  136.34    1.68
   2   5   9  141.29    1.68
   2   5   9  140.46    2.14
   2   5   9  139.57    1.98
   2   5  10    4.86    0.26
   2   5  10    5.16    0.27
   2   5  10    4.89    0.15
   2   5  10    4.75    0.15
   2   5  11    5.61    0.47
   2   5  11    5.92    0.30
   2   5  11    5.31    0.12
   2   5  11    5.38    0.16
   2   5  12    3.69    0.30
   2   5  12    3.47    0.14
   2   5  12    3.38    0.28
   2   5  12    3.41    0.14
   2   5  13   25.15    0.63
   2   5  13   25.52    0.83
   2   5  14    0.86    0.26
   2   5  14    0.70    0.41
   2   5  15    0.00    0.23
   2   5  15    0.26    0.38
   2   6 -11    0.04    0.19
   2   6 -11   -0.07    0.38
  -2  -6  11    0.20    0.41
  -2  -6  11    0.15    0.32
   2   6 -10    0.00    0.20
   2   6 -10    0.26    0.25
  -2  -6  10    0.17    0.25
  -2  -6  10    0.35    0.30
   2   6  -9    1.07    0.25
   2   6  -9    0.90    0.28
  -2  -6   9    0.93    0.43
  -2  -6   9    0.90    0.32
   2   6  -8   10.24    0.62
   2   6  -8    9.49    0.38
  -2  -6   8   10.45    0.41
  -2  -6   8   10.88    0.47
   2   6  -7    0.97    0.40
   2   6  -7    0.93    0.35
  -2  -6   7    0.83    0.24
  -2  -6   7    1.17    0.45
   2   6  -6    1.48    0.35
   2   6  -6    1.21    0.37
  -2  -6   6    1.83    0.24
  -2  -6   6    1.40    0.43
   2   6  -5   13.39    0.53
   2   6  -5   13.31    0.37
  -2  -6   5   14.11    0.40
  -2  -6   5   13.94    0.42
   2   6  -4    0.68    0.19
   2   6  -4    0.75    0.30
  -2  -6   4    0.84    0.20
  -2  -6   4    0.86    0.22
   2   6  -3    1.17    0.30
   2   6  -3    1.60    0.30
  -2  -6   3    1.30    0.30
  -2  -6   3    0.94    0.35
   2   6  -2   73.08    1.03
   2   6  -2   74.32    1.17
  -2  -6   2   73.08    1.02
  -2  -6   2   73.97    1.22
   2   6  -1    2.03    0.17
   2   6  -1    1.86    0.25
  -2  -6   1    1.87    0.25
  -2  -6   1    1.69    0.19
   2   6   0   61.26    0.85
   2   6   0   61.24    0.83
  -2  -6   0   59.98    0.83
  -2  -6   0   60.69    0.81
   2   6   1   10.16    0.23
   2   6   1   10.06    0.25
  -2  -6  -1   10.14    0.24
  -2  -6  -1    9.41    0.25
   2   6   2   64.29    0.83
   2   6   2   64.35    0.86
  -2  -6  -2   62.22    0.83
  -2  -6  -2   63.90    0.82
   2   6   3    3.74    0.18
   2   6   3    3.90    0.14
  -2  -6  -3    3.64    0.26
  -2  -6  -3    3.93    0.21
   2   6   4   85.61    1.13
   2   6   4   84.58    1.11
  -2  -6  -4   78.87    0.98
  -2  -6  -4   80.51    1.05
   2   6   5   25.96    0.44
   2   6   5   26.74    0.45
  -2  -6  -5   24.63    0.41
  -2  -6  -5   24.76    0.41
   2   6   6   15.84    0.46
   2   6   6   16.67    0.33
  -2  -6  -6   15.44    0.41
  -2  -6  -6   15.17    0.30
   2   6   7   19.32    0.35
   2   6   7   18.47    0.38
   2   6   7   19.19    0.49
  -2  -6  -7   17.46    0.32
  -2  -6  -7   18.62    0.48
   2   6   8    9.77    0.27
   2   6   8    9.90    0.30
   2   6   8   10.07    0.18
   2   6   8   10.18    0.25
  -2  -6  -8    9.56    0.17
   2   6   9    3.30    0.22
   2   6   9    3.12    0.16
   2   6   9    3.13    0.15
   2   6   9    3.09    0.20
   2   6  10    1.23    0.30
   2   6  10    0.72    0.32
   2   6  10    0.89    0.08
   2   6  10    0.99    0.12
   2   6  11   51.07    0.89
   2   6  11   48.73    0.70
   2   6  11   48.95    0.88
   2   6  11   47.38    0.67
   2   6  12   14.43    0.42
   2   6  12   14.13    0.43
   2   6  12   13.48    0.29
   2   6  13    1.94    0.25
   2   6  13    1.56    0.41
   2   6  14   -0.03    0.35
   2   6  14    0.35    0.35
   2   6  15    0.34    0.39
   2   6  15    0.08    0.37
   2   7 -10    1.90    0.61
   2   7 -10    2.47    0.52
  -2  -7  10    2.75    0.35
  -2  -7  10    2.37    0.46
   2   7  -9    0.03    0.21
   2   7  -9    0.15    0.40
  -2  -7   9    0.25    0.31
  -2  -7   9    0.29    0.25
   2   7  -8    5.16    0.34
   2   7  -8    5.32    0.58
  -2  -7   8    5.10    0.56
  -2  -7   8    5.74    0.42
   2   7  -7    7.65    0.36
   2   7  -7    7.41    0.59
  -2  -7   7    8.17    0.58
  -2  -7   7    7.58    0.44
   2   7  -6   16.47    0.47
   2   7  -6   17.05    0.69
  -2  -7   6   17.76    0.69
  -2  -7   6   17.58    0.79
   2   7  -5    0.46    0.21
   2   7  -5    0.28    0.19
  -2  -7   5    0.31    0.35
  -2  -7   5    0.39    0.24
   2   7  -4   25.49    0.55
   2   7  -4   25.94    0.55
  -2  -7   4   25.47    0.73
  -2  -7   4   25.75    0.80
   2   7  -3   21.61    0.47
   2   7  -3   21.25    0.46
  -2  -7   3   21.67    0.52
  -2  -7   3   21.84    0.48
   2   7  -2    0.23    0.17
   2   7  -2    0.32    0.17
  -2  -7   2    0.62    0.19
  -2  -7   2    0.41    0.21
   2   7  -1   11.62    0.33
   2   7  -1   14.96    0.35
  -2  -7   1   11.17    0.35
  -2  -7   1   11.54    0.32
   2   7   0   21.06    0.42
   2   7   0   21.09    0.41
  -2  -7   0   20.49    0.53
  -2  -7   0   20.34    0.57
   2   7   1   11.32    0.30
   2   7   1   11.15    0.28
  -2  -7  -1   11.49    0.40
  -2  -7  -1   11.06    0.30
   2   7   2    8.65    0.24
   2   7   2    8.72    0.40
  -2  -7  -2    8.22    0.25
  -2  -7  -2    8.27    0.23
   2   7   3   28.09    0.45
   2   7   3   27.41    0.48
  -2  -7  -3   26.80    0.43
  -2  -7  -3   26.16    0.45
   2   7   4   22.84    0.38
   2   7   4   22.40    0.42
  -2  -7  -4   21.44    0.39
  -2  -7  -4   20.84    0.35
   2   7   5    1.65    0.14
   2   7   5    1.44    0.18
  -2  -7  -5    1.49    0.16
  -2  -7  -5    1.51    0.12
   2   7   6    0.03    0.11
   2   7   6   -0.01    0.08
  -2  -7  -6    0.02    0.12
  -2  -7  -6    0.08    0.14
   2   7   7   97.84    1.36
   2   7   7   98.31    1.29
   2   7   7   99.74    1.59
  -2  -7  -7   93.48    1.30
  -2  -7  -7   92.60    1.19
   2   7   8    5.13    0.23
   2   7   8    4.91    0.25
   2   7   8    5.33    0.24
  -2  -7  -8    4.92    0.23
  -2  -7  -8    4.99    0.21
   2   7   9    4.01    0.37
   2   7   9    4.23    0.14
   2   7   9    3.71    0.19
   2   7   9    4.09    0.21
  -2  -7  -9    3.79    0.19
   2   7  10    1.65    0.33
   2   7  10    1.30    0.15
   2   7  10    1.25    0.30
   2   7  10    1.52    0.16
   2   7  11    8.09    0.32
   2   7  11    7.62    0.18
   2   7  11    7.07    0.23
   2   7  11    7.90    0.30
   2   7  12    1.13    0.35
   2   7  12    1.00    0.09
   2   7  12    0.75    0.08
   2   7  12    1.06    0.20
   2   7  13    0.04    0.25
   2   7  13   -0.03    0.27
   2   7  14    4.17    0.32
   2   7  14    4.11    0.48
   2   7  15    4.09    0.33
   2   7  15    3.74    0.34
   2   8  -9    6.42    0.63
   2   8  -9    5.65    0.73
  -2  -8   9    7.32    0.46
  -2  -8   9    6.75    0.56
   2   8  -8    2.69    0.55
   2   8  -8    3.50    0.62
  -2  -8   8    3.42    0.38
  -2  -8   8    3.68    0.46
   2   8  -7    1.07    0.45
   2   8  -7    0.98    0.50
  -2  -8   7    1.19    0.29
  -2  -8   7    0.79    0.35
   2   8  -6   10.75    0.65
   2   8  -6   10.41    0.68
  -2  -8   6   11.11    0.51
  -2  -8   6   11.34    0.45
   2   8  -5    2.78    0.46
   2   8  -5    2.60    0.48
  -2  -8   5    2.44    0.30
  -2  -8   5    2.39    0.54
   2   8  -4   22.46    0.54
   2   8  -4   23.18    0.74
  -2  -8   4   22.37    0.55
  -2  -8   4   22.56    0.58
   2   8  -3   55.10    0.94
   2   8  -3   56.28    0.94
  -2  -8   3   56.85    0.96
  -2  -8   3   54.89    0.97
   2   8  -2   93.89    1.40
   2   8  -2   96.52    1.43
  -2  -8   2   96.69    1.64
  -2  -8   2   92.77    1.67
   2   8  -1   40.84    0.72
   2   8  -1   40.31    0.90
  -2  -8   1   41.02    0.95
  -2  -8   1   40.88    0.73
   2   8   0   48.92    0.80
   2   8   0   47.91    0.78
  -2  -8   0   45.78    0.77
  -2  -8   0   47.06    0.77
   2   8   1    8.53    0.46
   2   8   1    8.50    0.30
  -2  -8  -1    8.03    0.41
  -2  -8  -1    7.86    0.30
   2   8   2   44.42    0.70
   2   8   2   43.48    0.72
  -2  -8  -2   42.67    0.83
  -2  -8  -2   41.08    0.68
   2   8   3    2.22    0.19
   2   8   3    1.94    0.22
  -2  -8  -3    2.21    0.19
  -2  -8  -3    2.37    0.34
   2   8   4  104.34    1.42
   2   8   4  102.44    1.43
  -2  -8  -4   97.76    1.48
  -2  -8  -4   98.66    1.35
   2   8   5   20.44    0.52
   2   8   5   19.77    0.45
  -2  -8  -5   19.01    0.41
  -2  -8  -5   18.30    0.36
   2   8   6   12.38    0.41
   2   8   6   12.23    0.35
  -2  -8  -6   11.22    0.32
  -2  -8  -6   11.38    0.27
   2   8   7   19.35    0.37
   2   8   7   19.33    0.62
  -2  -8  -7   17.62    0.40
  -2  -8  -7   17.39    0.33
   2   8   8    9.80    0.48
   2   8   8    9.50    0.30
   2   8   8    9.41    0.35
  -2  -8  -8    9.10    0.30
  -2  -8  -8    9.06    0.32
   2   8   9   23.37    0.68
   2   8   9   23.48    0.41
   2   8   9   22.01    0.38
   2   8   9   23.66    0.63
  -2  -8  -9    0.30    0.17
   2   8  10    0.80    0.19
   2   8  10    0.70    0.34
   2   8  10    0.81    0.12
   2   8  10    0.81    0.19
   2   8  11   -0.11    0.15
   2   8  11    0.07    0.08
   2   8  11    0.14    0.14
   2   8  11   -0.06    0.08
   2   8  12    0.13    0.14
   2   8  12    0.04    0.08
   2   8  12    0.19    0.30
   2   8  13    0.02    0.16
   2   8  13   -0.06    0.25
   2   8  14    0.03    0.25
   2   8  14    0.86    0.21
   2   8  15    4.77    0.56
   2   8  15    4.39    0.34
   2   9  -8   16.52    0.62
   2   9  -8   17.23    0.66
  -2  -9   8   19.07    0.68
  -2  -9   8   17.53    1.11
   2   9  -7    2.61    0.40
   2   9  -7    2.89    0.35
  -2  -9   7    2.55    0.39
  -2  -9   7    3.06    0.46
   2   9  -6   33.01    0.80
   2   9  -6   34.02    0.80
  -2  -9   6   35.02    0.85
  -2  -9   6   34.48    0.90
   2   9  -5   39.36    0.86
   2   9  -5   39.49    1.12
  -2  -9   5   39.94    0.89
  -2  -9   5   39.93    1.23
   2   9  -4    0.05    0.35
   2   9  -4    0.03    0.35
  -2  -9   4   -0.09    0.22
  -2  -9   4    0.19    0.24
   2   9  -3   61.01    1.28
   2   9  -3   60.60    1.28
  -2  -9   3   61.44    1.08
  -2  -9   3   60.02    1.34
   2   9  -2    1.02    0.40
   2   9  -2    1.71    0.25
  -2  -9   2    1.60    0.27
  -2  -9   2    1.76    0.26
   2   9  -1    0.03    0.18
   2   9  -1    0.08    0.17
  -2  -9   1    0.05    0.17
  -2  -9   1    0.00    0.17
   2   9   0  117.93    1.73
   2   9   0  120.25    1.76
  -2  -9   0  115.30    1.68
  -2  -9   0  112.38    1.68
   2   9   1  132.94    2.13
   2   9   1  134.83    1.94
  -2  -9  -1  128.75    2.07
  -2  -9  -1  133.42    2.10
   2   9   2   59.43    0.94
   2   9   2   58.93    0.95
  -2  -9  -2   54.91    0.88
  -2  -9  -2   56.47    1.06
   2   9   3   16.05    0.55
   2   9   3   15.79    0.41
  -2  -9  -3   15.12    0.53
  -2  -9  -3   15.02    0.38
   2   9   4  104.14    1.67
   2   9   4  104.34    1.52
  -2  -9  -4   99.66    1.43
  -2  -9  -4   95.88    1.39
   2   9   5  117.99    1.67
   2   9   5  119.48    1.72
  -2  -9  -5  108.53    1.55
  -2  -9  -5  110.61    1.55
   2   9   6   20.60    0.44
   2   9   6   21.13    0.68
  -2  -9  -6   18.65    0.40
  -2  -9  -6   19.72    0.58
   2   9   7  158.30    2.42
   2   9   7  163.02    2.54
  -2  -9  -7  147.75    2.31
  -2  -9  -7  144.91    2.18
   2   9   8    0.14    0.15
   2   9   8   -0.03    0.13
   2   9   8   -0.01    0.17
  -2  -9  -8    0.09    0.17
  -2  -9  -8    0.16    0.21
   2   9   9    2.33    0.25
   2   9   9    2.25    0.45
   2   9   9    2.35    0.30
  -2  -9  -9    2.54    0.25
  -2  -9  -9    2.54    0.29
   2   9  10  218.24    3.52
   2   9  10  203.89    3.11
   2   9  10  217.14    3.31
   2   9  10  220.25    3.60
  -2  -9 -10  201.03    3.03
   2   9  11   65.93    1.01
   2   9  11   61.94    0.95
   2   9  11   65.76    1.16
   2   9  12    4.14    0.19
   2   9  12    4.21    0.28
   2   9  12    4.82    0.32
   2   9  13    7.32    0.37
   2   9  13    8.37    0.40
   2   9  14    6.87    0.35
   2   9  14    7.89    0.58
   2  10  -7    3.52    0.44
   2  10  -7    3.85    0.40
  -2 -10   7    3.68    0.80
  -2 -10   7    4.15    0.43
   2  10  -6    8.73    0.50
   2  10  -6    9.51    0.52
  -2 -10   6    9.95    0.57
  -2 -10   6    9.40    0.52
   2  10  -5   24.58    0.70
   2  10  -5   25.05    0.98
  -2 -10   5   23.92    0.71
  -2 -10   5   24.09    0.75
   2  10  -4   25.24    0.69
   2  10  -4   25.12    0.95
  -2 -10   4   24.31    0.68
  -2 -10   4   25.74    1.02
   2  10  -3   13.31    0.49
   2  10  -3   12.89    0.74
  -2 -10   3   12.38    0.52
  -2 -10   3   12.47    0.73
   2  10  -2   56.06    1.02
   2  10  -2   58.72    1.06
  -2 -10   2   56.71    1.05
  -2 -10   2   55.08    1.04
   2  10  -1    4.40    0.34
   2  10  -1    3.64    0.31
  -2 -10   1    4.01    0.34
  -2 -10   1    3.54    0.53
   2  10   0   53.54    1.14
   2  10   0   57.16    1.00
  -2 -10   0   54.26    1.17
  -2 -10   0   54.42    0.95
   2  10   1    4.07    0.45
   2  10   1    4.10    0.30
  -2 -10  -1    3.87    0.46
  -2 -10  -1    3.60    0.28
   2  10   2    9.85    0.36
   2  10   2   10.51    0.55
  -2 -10  -2    9.61    0.35
  -2 -10  -2    9.76    0.35
   2  10   3   53.20    0.90
   2  10   3   52.93    0.90
  -2 -10  -3   48.28    0.81
  -2 -10  -3   49.96    0.85
   2  10   4   79.67    1.23
   2  10   4   81.96    1.27
  -2 -10  -4   75.81    1.16
  -2 -10  -4   74.41    1.17
   2  10   5   15.33    0.57
   2  10   5   14.77    0.61
  -2 -10  -5   13.75    0.52
  -2 -10  -5   13.82    0.54
   2  10   6   19.67    0.65
   2  10   6   18.77    0.44
  -2 -10  -6   17.25    0.41
  -2 -10  -6   17.41    0.41
   2  10   7   21.67    0.48
   2  10   7   22.47    0.52
  -2 -10  -7   20.84    0.46
  -2 -10  -7   20.54    0.57
   2  10   8    0.31    0.17
   2  10   8    0.54    0.19
  -2 -10  -8    0.44    0.15
  -2 -10  -8    0.61    0.29
   2  10   9    5.52    0.27
   2  10   9    5.48    0.37
   2  10   9    5.59    0.30
  -2 -10  -9    4.90    0.26
  -2 -10  -9    4.95    0.23
   2  10  10   20.72    0.72
   2  10  10   18.57    0.42
   2  10  10   17.62    0.40
  -2 -10 -10   17.65    0.39
   2  10  11   17.26    0.52
   2  10  11   20.16    0.75
   2  10  11   18.45    0.42
  -2 -10 -11   16.84    0.38
   2  10  12    0.20    0.14
   2  10  12    0.10    0.14
   2  10  12    0.43    0.22
   2  10  13   43.22    1.17
   2  10  14    3.68    0.49
   2  10  14    3.21    0.33
   2  11  -6    1.27    0.66
   2  11  -6    1.75    0.39
  -2 -11   6    1.91    0.75
  -2 -11   6    1.64    0.41
   2  11  -5   13.06    0.88
   2  11  -5   12.46    0.88
  -2 -11   5   12.18    0.64
  -2 -11   5   12.16    0.60
   2  11  -4    9.45    0.80
   2  11  -4   10.41    0.78
  -2 -11   4    9.10    0.86
  -2 -11   4   10.20    0.54
   2  11  -3   44.83    0.97
   2  11  -3   42.88    1.26
  -2 -11   3   44.69    1.27
  -2 -11   3   43.21    0.99
   2  11  -2   10.80    0.70
   2  11  -2   10.72    0.50
  -2 -11   2   10.21    0.74
  -2 -11   2    9.33    0.48
   2  11  -1   14.66    0.70
   2  11  -1   15.39    0.52
  -2 -11   1   14.37    0.52
  -2 -11   1   14.84    0.52
   2  11   0   12.47    0.64
   2  11   0   12.79    0.70
  -2 -11   0   11.80    0.45
  -2 -11   0   11.66    0.66
   2  11   1   14.77    0.69
   2  11   1   14.66    0.73
  -2 -11  -1   13.52    0.47
  -2 -11  -1   13.67    0.46
   2  11   2   47.18    0.88
   2  11   2   48.30    0.93
  -2 -11  -2   44.19    0.85
  -2 -11  -2   44.21    0.84
   2  11   3    9.73    0.40
   2  11   3    9.33    0.37
  -2 -11  -3    8.76    0.37
  -2 -11  -3    8.75    0.52
   2  11   4    7.89    0.53
   2  11   4    7.50    0.35
  -2 -11  -4    6.22    0.49
  -2 -11  -4    6.83    0.31
   2  11   5    3.12    0.28
   2  11   5    3.53    0.28
  -2 -11  -5    2.90    0.25
  -2 -11  -5    2.69    0.25
   2  11   6   14.10    0.60
   2  11   6   14.92    0.44
  -2 -11  -6   13.69    0.38
  -2 -11  -6   13.28    0.40
   2  11   7   32.47    0.66
   2  11   7   33.58    0.68
  -2 -11  -7   30.61    0.78
  -2 -11  -7   30.36    0.76
   2  11   8    2.64    0.27
   2  11   8    2.54    0.37
  -2 -11  -8    2.30    0.22
  -2 -11  -8    2.02    0.21
   2  11   9    2.96    0.24
   2  11   9    2.43    0.27
  -2 -11  -9    2.65    0.37
  -2 -11  -9    3.11    0.34
   2  11  10    3.11    0.24
   2  11  10    3.25    0.28
  -2 -11 -10    2.87    0.24
  -2 -11 -10    2.89    0.21
   2  11  11   10.75    0.58
   2  11  11    9.99    0.47
   2  11  11    9.04    0.30
  -2 -11 -11    9.11    0.30
   2  11  12   -0.01    0.29
   2  11  12    0.70    0.16
   2  11  13    0.63    0.40
   2  12  -4    0.38    0.33
   2  12  -4    0.34    0.35
  -2 -12   4    0.32    0.35
  -2 -12   4    0.41    0.35
   2  12  -3    0.08    0.30
   2  12  -3    0.09    0.30
  -2 -12   3    0.23    0.52
  -2 -12   3    0.03    0.51
   2  12  -2   29.18    0.79
   2  12  -2   29.92    0.85
  -2 -12   2   26.45    0.78
  -2 -12   2   27.96    0.79
   2  12  -1   29.32    1.08
   2  12  -1   26.21    0.71
  -2 -12   1   26.42    0.74
  -2 -12   1   26.90    0.74
   2  12   0   21.25    0.61
   2  12   0   21.07    0.65
  -2 -12   0   20.38    0.87
  -2 -12   0   19.81    0.86
   2  12   1   20.89    0.62
   2  12   1   19.93    0.57
  -2 -12  -1   18.32    0.78
  -2 -12  -1   19.94    0.60
   2  12   2    6.18    0.41
   2  12   2    5.78    0.36
  -2 -12  -2    5.11    0.54
  -2 -12  -2    5.61    0.58
   2  12   3   17.50    0.78
   2  12   3   14.95    0.48
  -2 -12  -3   13.94    0.44
  -2 -12  -3   14.51    0.72
   2  12   4   10.34    0.44
   2  12   4   10.05    0.41
  -2 -12  -4   10.14    0.39
  -2 -12  -4    9.04    0.41
   2  12   5   11.64    0.66
   2  12   5   11.75    0.43
  -2 -12  -5   10.92    0.38
  -2 -12  -5   10.31    0.40
   2  12   6    1.89    0.25
   2  12   6    0.03    0.25
  -2 -12  -6    0.01    0.21
  -2 -12  -6    1.28    0.32
   2  12   7    1.68    0.40
   2  12   7   -0.06    0.40
  -2 -12  -7    1.56    0.22
  -2 -12  -7   -0.01    0.37
   2  12   8    0.01    0.17
   2  12   8    0.03    0.29
  -2 -12  -8   -0.03    0.27
  -2 -12  -8   -0.09    0.17
   2  12   9   20.30    0.52
   2  12   9   20.32    0.74
  -2 -12  -9   19.01    0.47
  -2 -12  -9   18.15    0.47
   2  12  10   -0.02    0.27
   2  12  10    0.05    0.19
  -2 -12 -10    0.10    0.15
  -2 -12 -10   -0.14    0.25
   2  12  11   -0.01    0.31
   2  12  11    0.62    0.23
  -2 -12 -11    0.19    0.25
   2  12  12    0.00    0.29
   2  12  12    0.63    0.36
  -2 -12 -12    0.62    0.17
   2  13  -1   13.41    0.59
   2  13  -1   13.44    0.64
  -2 -13   1   12.89    0.88
  -2 -13   1   12.85    0.60
   2  13   0    1.37    0.34
   2  13   0    1.77    0.41
  -2 -13   0    1.03    0.35
  -2 -13   0    1.16    0.36
   2  13   1    9.23    0.47
   2  13   1    9.97    0.85
  -2 -13  -1    8.57    0.46
  -2 -13  -1    8.51    0.51
   2  13   2   16.91    0.57
   2  13   2   18.98    0.65
  -2 -13  -2   16.16    0.58
  -2 -13  -2   15.44    0.55
   2  13   3   16.03    0.79
   2  13   3   16.89    0.62
  -2 -13  -3   14.51    0.50
  -2 -13  -3   14.08    0.56
   2  13   4    4.95    0.65
   2  13   4    4.04    0.57
  -2 -13  -4    3.44    0.33
  -2 -13  -4    3.61    0.35
   2  13   5   17.43    0.57
   2  13   5   16.84    0.75
  -2 -13  -5   15.45    0.67
  -2 -13  -5   15.19    0.74
   2  13   6   -0.22    0.39
   2  13   6    0.02    0.36
  -2 -13  -6   -0.01    0.35
  -2 -13  -6   -0.06    0.18
   2  13   7   -0.05    0.24
   2  13   7    0.58    0.25
  -2 -13  -7    0.46    0.22
  -2 -13  -7    0.33    0.38
   2  13   8   26.22    0.68
   2  13   8   26.33    0.66
  -2 -13  -8   23.20    0.74
  -2 -13  -8   22.61    0.58
   2  13   9    1.50    0.46
   2  13   9    1.77    0.29
  -2 -13  -9    1.11    0.24
  -2 -13  -9    1.25    0.25
   2  13  10    0.00    0.39
   2  13  10    1.39    0.41
  -2 -13 -10    1.14    0.37
  -2 -13 -10    1.37    0.37
   2  14   2   28.85    0.83
   2  14   2   30.63    0.95
  -2 -14  -2   28.44    0.87
  -2 -14  -2   27.51    1.06
   2  14   3   37.78    1.22
   2  14   3   40.60    1.07
  -2 -14  -3   35.79    1.13
  -2 -14  -3   36.25    1.26
   2  14   4    9.02    0.57
   2  14   4    8.18    0.72
  -2 -14  -4    8.68    0.67
  -2 -14  -4    7.64    0.48
   2  14   5    0.35    0.31
   2  14   5    0.18    0.26
  -2 -14  -5    0.15    0.35
  -2 -14  -5    0.01    0.26
   2  14   6    7.67    0.49
   2  14   6    8.55    0.44
  -2 -14  -6    7.43    0.36
  -2 -14  -6    7.54    0.44
   2  14   7    0.21    0.26
   2  14   7    0.03    0.23
  -2 -14  -7    0.33    0.25
  -2 -14  -7    0.21    0.22
   3 -11  -7    3.03    0.64
  -3  11   7    3.89    0.45
  -3  11   7    2.38    0.67
   3 -11  -6    4.24    0.70
  -3  11   6    5.57    0.50
  -3  11   6    4.72    0.46
   3 -11  -5   -0.21    0.31
  -3  11   5    0.14    0.35
   3 -11  -4   67.24    1.39
  -3  11   4   74.75    1.94
   3 -11  -3    1.66    0.63
  -3  11   3    1.54    0.42
   3 -11  -2   11.04    0.57
  -3  11   2   11.27    0.61
   3 -11  -1   39.64    0.96
  -3  11   1   40.72    1.37
   3 -11   0   -0.02    0.49
   3 -11   0    0.21    0.16
  -3  11   0    0.12    0.27
  -3  11   0   -0.06    0.19
   3 -11   1   10.15    0.35
   3 -11   1   10.18    0.52
  -3  11  -1    9.42    0.34
  -3  11  -1   11.43    0.57
  -3  10   9    8.83    0.74
  -3  10   9    8.30    0.52
   3 -10  -8    0.64    0.49
  -3  10   8    0.86    0.35
  -3  10   8    0.57    0.53
   3 -10  -7    0.03    0.39
  -3  10   7   -0.03    0.35
  -3  10   7    0.04    0.37
   3 -10  -6   -0.08    0.25
  -3  10   6   -0.08    0.28
  -3  10   6   -0.19    0.26
   3 -10  -5    0.93    0.30
  -3  10   5    0.80    0.54
   3 -10  -4    0.57    0.30
  -3  10   4    0.44    0.31
   3 -10  -3   35.60    0.85
  -3  10   3   38.66    0.92
   3 -10  -2    0.32    0.19
   3 -10  -2    0.53    0.49
  -3  10   2    1.45    0.20
  -3  10   2    0.53    0.36
   3 -10  -1   33.57    0.81
   3 -10  -1   31.05    0.68
  -3  10   1   34.00    1.17
  -3  10   1   31.97    0.67
   3 -10   0    3.96    0.23
   3 -10   0    3.79    0.63
  -3  10   0    3.87    0.22
  -3  10   0    4.03    0.67
   3 -10   1    2.65    0.25
   3 -10   1    3.64    0.40
  -3  10  -1    2.83    0.35
  -3  10  -1    2.75    0.41
   3 -10   2   74.23    1.27
   3 -10   2   76.03    1.76
  -3  10  -2   79.04    1.50
  -3  10  -2   71.46    1.19
   3 -10   3    0.15    0.22
   3 -10   3    0.45    0.29
  -3  10  -3    0.46    0.30
  -3  10  -3    0.14    0.31
   3 -10   4    4.34    0.52
   3 -10   4    3.62    0.40
  -3  10  -4    3.96    0.41
  -3  10  -4    3.70    0.30
  -3   9  11    0.57    0.30
  -3   9  11    0.42    0.29
  -3   9  10    7.09    0.46
  -3   9  10    6.96    0.71
  -3   9   9   27.87    0.79
  -3   9   9   27.60    1.10
   3  -9  -8   42.47    0.96
  -3   9   8   46.69    1.04
  -3   9   8   44.03    1.01
   3  -9  -7    1.44    0.32
  -3   9   7    1.81    0.34
  -3   9   7    1.63    0.56
   3  -9  -6    9.09    0.43
  -3   9   6    8.79    0.46
  -3   9   6    8.51    0.44
   3  -9  -5    3.56    0.35
  -3   9   5    3.90    0.59
   3  -9  -4   10.72    0.44
  -3   9   4   10.67    0.47
   3  -9  -3    0.66    0.15
   3  -9  -3    0.57    0.26
  -3   9   3    0.82    0.28
  -3   9   3    0.57    0.14
   3  -9  -2    4.13    0.16
   3  -9  -2    4.32    0.54
  -3   9   2    5.40    0.59
  -3   9   2    4.48    0.16
   3  -9  -1    7.42    0.40
   3  -9  -1    6.92    0.23
  -3   9   1    7.10    0.30
  -3   9   1    7.72    0.66
   3  -9   0   10.99    0.30
   3  -9   0   11.44    0.46
  -3   9   0   11.53    0.30
  -3   9   0   12.49    0.74
   3  -9   1   44.61    1.15
   3  -9   1   42.02    0.89
  -3   9  -1   45.53    1.18
  -3   9  -1   40.91    0.70
   3  -9   2    1.74    0.36
   3  -9   2    2.59    0.32
  -3   9  -2    2.21    0.33
  -3   9  -2    2.40    0.54
   3  -9   3    7.12    0.34
   3  -9   3    7.42    0.63
  -3   9  -3    8.07    0.65
  -3   9  -3    7.05    0.31
   3  -9   4    5.69    0.36
   3  -9   4    5.28    0.62
  -3   9  -4    5.59    0.31
  -3   9  -4    6.01    0.63
   3  -9   5   21.69    0.86
   3  -9   5   21.37    0.63
  -3   9  -5   21.96    0.90
  -3   9  -5   20.34    0.55
   3  -9   6    0.68    0.28
   3  -9   6    0.74    0.30
  -3   9  -6    0.41    0.25
  -3   9  -6    0.62    0.28
  -3   8  12    0.18    0.25
  -3   8  12    0.25    0.26
  -3   8  11   -0.11    0.24
  -3   8  11   -0.14    0.25
  -3   8  10    3.90    0.36
  -3   8  10    3.80    0.38
  -3   8   9    1.32    0.52
  -3   8   9    1.59    0.54
  -3   8   8    0.67    0.30
  -3   8   8    0.74    0.47
   3  -8  -7   17.47    0.83
  -3   8   7   16.73    0.57
  -3   8   7   18.59    0.60
   3  -8  -6   83.71    1.46
  -3   8   6   89.02    1.89
  -3   8   6   86.14    1.51
   3  -8  -5   90.38    1.12
   3  -8  -5   99.43    1.61
  -3   8   5   92.64    1.15
  -3   8   5  103.05    1.72
  -3   8   5   93.10    1.09
   3  -8  -4    0.14    0.09
   3  -8  -4    0.25    0.23
  -3   8   4    0.30    0.09
  -3   8   4    0.40    0.25
   3  -8  -3    0.06    0.10
   3  -8  -3    0.05    0.34
  -3   8   3    0.30    0.12
  -3   8   3    0.08    0.40
   3  -8  -2    3.73    0.20
   3  -8  -2    3.49    0.49
  -3   8   2    3.55    0.51
  -3   8   2    3.86    0.20
   3  -8  -1   -0.05    0.19
   3  -8  -1   -0.10    0.09
  -3   8   1    0.08    0.34
  -3   8   1    0.05    0.08
   3  -8   0    1.07    0.25
   3  -8   0    1.00    0.14
  -3   8   0    1.26    0.43
  -3   8   0    1.11    0.21
   3  -8   1   15.81    0.48
   3  -8   1   15.98    0.70
  -3   8  -1   15.53    0.35
  -3   8  -1   17.56    0.73
   3  -8   2   15.41    0.55
   3  -8   2   16.21    0.49
  -3   8  -2   17.03    0.74
  -3   8  -2   16.10    0.51
   3  -8   3   21.74    0.79
   3  -8   3   19.87    0.66
  -3   8  -3   21.67    0.57
  -3   8  -3   20.27    0.46
   3  -8   4   17.43    0.48
   3  -8   4   17.35    0.51
  -3   8  -4   18.65    0.53
  -3   8  -4   17.10    0.60
   3  -8   5    1.48    0.43
   3  -8   5    1.59    0.44
  -3   8  -5    1.63    0.28
  -3   8  -5    1.67    0.25
   3  -8   6    0.62    0.41
   3  -8   6    1.06    0.30
  -3   8  -6    0.79    0.43
  -3   8  -6    0.85    0.41
   3  -8   7    3.82    0.51
   3  -8   7    4.49    0.41
  -3   8  -7    4.61    0.53
  -3   8  -7    3.86    0.36
  -3   7  12    0.37    0.41
  -3   7  12    0.34    0.24
  -3   7  11    0.22    0.36
  -3   7  11    0.04    0.37
  -3   7  10    7.03    0.57
  -3   7  10    7.61    0.41
  -3   7   9    3.99    0.35
  -3   7   9    4.47    0.35
  -3   7   8    1.77    0.30
  -3   7   8    1.95    0.49
   3  -7  -7   92.70    1.56
  -3   7   7   98.60    1.64
  -3   7   7   96.68    1.62
   3  -7  -6   10.72    0.44
  -3   7   6   11.61    0.46
  -3   7   6   11.24    0.47
   3  -7  -5   41.44    0.81
  -3   7   5   42.47    0.86
  -3   7   5   42.29    0.83
   3  -7  -4    3.04    0.12
   3  -7  -4    3.72    0.52
  -3   7   4    3.77    0.13
  -3   7   4    3.68    0.57
   3  -7  -3  211.82    2.73
   3  -7  -3  221.55    3.47
  -3   7   3  230.31    3.64
  -3   7   3  220.76    2.85
   3  -7  -2    2.81    0.12
   3  -7  -2    2.75    0.30
  -3   7   2    2.87    0.17
  -3   7   2    2.70    0.31
   3  -7  -1    8.45    0.20
   3  -7  -1   10.43    0.36
  -3   7   1    9.48    0.38
  -3   7   1    9.62    0.20
   3  -7   0    0.64    0.21
   3  -7   0    1.01    0.12
  -3   7   0    0.90    0.18
  -3   7   0    0.64    0.36
   3  -7   1    1.86    0.16
   3  -7   1    1.48    0.24
  -3   7  -1    1.72    0.39
  -3   7  -1    1.64    0.14
   3  -7   2   18.06    0.63
   3  -7   2   16.83    0.38
  -3   7  -2   18.60    0.46
  -3   7  -2   17.12    0.47
   3  -7   3    5.93    0.26
   3  -7   3    5.57    0.30
  -3   7  -3    5.43    0.31
  -3   7  -3    5.09    0.24
   3  -7   4    4.96    0.46
   3  -7   4    4.35    0.43
  -3   7  -4    4.79    0.39
  -3   7  -4    4.62    0.30
   3  -7   5   -0.08    0.17
   3  -7   5    0.14    0.18
  -3   7  -5    0.08    0.26
  -3   7  -5   -0.02    0.14
   3  -7   6   16.64    0.46
   3  -7   6   16.18    0.51
  -3   7  -6   17.43    0.67
  -3   7  -6   17.48    0.48
   3  -7   7    0.09    0.18
   3  -7   7    0.02    0.37
  -3   7  -7    0.24    0.22
  -3   7  -7    0.19    0.19
   3  -7   8   24.62    1.01
   3  -7   8   23.02    0.58
  -3   7  -8   25.34    0.81
  -3   7  -8   25.30    0.69
   3  -7   9    0.86    0.23
   3  -7   9    0.61    0.60
  -3   7  -9    0.04    0.22
  -3   7  -9    0.75    0.30
  -3   6  13    0.60    0.41
  -3   6  13    0.61    0.25
  -3   6  12    1.18    0.26
  -3   6  12    1.24    0.27
  -3   6  11   -0.01    0.19
  -3   6  11   -0.03    0.30
  -3   6  10    3.87    0.49
  -3   6  10    4.36    0.50
  -3   6   9    2.70    0.27
  -3   6   9    2.88    0.45
  -3   6   8    1.45    0.25
  -3   6   8    1.10    0.25
  -3   6   7   26.91    0.60
  -3   6   7   26.33    0.58
   3  -6  -6   -0.07    0.29
  -3   6   6    0.20    0.20
  -3   6   6    0.17    0.31
   3  -6  -5   25.56    0.74
  -3   6   5   25.13    0.78
  -3   6   5   25.10    0.75
   3  -6  -4  261.99    3.03
   3  -6  -4  258.81    3.68
  -3   6   4  270.90    3.25
  -3   6   4  271.15    3.90
  -3   6   4  268.39    3.17
   3  -6  -3    6.25    0.15
   3  -6  -3    6.57    0.33
  -3   6   3    6.82    0.15
  -3   6   3    6.81    0.35
   3  -6  -2   30.69    0.46
   3  -6  -2   32.49    0.65
  -3   6   2   32.60    0.67
  -3   6   2   31.35    0.41
   3  -6  -1  326.12    4.27
   3  -6  -1  332.13    4.73
  -3   6   1  336.67    4.88
  -3   6   1  334.78    4.50
   3  -6   0  628.42    9.22
  -3   6   0  644.04    9.43
  -3   6   0  619.21    8.81
   3  -6   1   22.84    0.40
   3  -6   1   23.72    0.52
  -3   6  -1   23.84    0.41
  -3   6  -1   23.49    0.73
   3  -6   2   10.63    0.49
   3  -6   2    9.74    0.39
  -3   6  -2   10.27    0.35
  -3   6  -2   10.92    0.37
   3  -6   3   25.85    0.52
   3  -6   3   24.39    0.61
  -3   6  -3   24.84    0.46
  -3   6  -3   26.59    0.54
   3  -6   4   31.34    0.59
   3  -6   4   32.82    0.77
  -3   6  -4   32.76    0.79
  -3   6  -4   31.70    0.57
   3  -6   5    0.19    0.16
   3  -6   5   -0.09    0.29
  -3   6  -5    0.44    0.17
  -3   6  -5   -0.05    0.16
   3  -6   6   14.69    0.56
   3  -6   6   15.27    0.63
  -3   6  -6   15.02    0.42
  -3   6  -6   15.92    0.57
   3  -6   7    0.37    0.25
   3  -6   7    0.46    0.30
  -3   6  -7    0.61    0.23
  -3   6  -7    0.59    0.19
   3  -6   8    0.41    0.26
   3  -6   8    0.30    0.19
  -3   6  -8    0.45    0.30
  -3   6  -8    0.43    0.25
   3  -6   9    1.11    0.21
   3  -6   9    1.22    0.34
  -3   6  -9    0.77    0.42
  -3   6  -9    0.04    0.18
   3  -6  10    0.44    0.31
   3  -6  10    0.41    0.56
  -3   6 -10    0.44    0.30
  -3   6 -10   -0.02    0.30
  -3   5  13    0.03    0.19
  -3   5  13    0.04    0.19
  -3   5  12    2.27    0.28
  -3   5  12    1.80    0.27
  -3   5  11    2.98    0.30
  -3   5  11    3.80    0.30
  -3   5  10    5.12    0.49
  -3   5  10    5.21    0.33
  -3   5   9   25.78    0.58
  -3   5   9   26.00    0.60
  -3   5   8    7.39    0.33
  -3   5   8    6.20    0.32
  -3   5   7    4.58    0.43
  -3   5   7    4.12    0.27
  -3   5   6    3.03    0.25
  -3   5   6    3.01    0.37
   3  -5  -5   25.07    0.50
  -3   5   5   25.35    0.52
  -3   5   5   25.62    0.52
   3  -5  -4    5.52    0.26
  -3   5   4    5.71    0.41
  -3   5   4    5.37    0.26
   3  -5  -3   11.25    0.14
   3  -5  -3   12.14    0.33
  -3   5   3   12.48    0.51
  -3   5   3   12.03    0.15
   3  -5  -2    3.23    0.12
   3  -5  -2    3.57    0.35
  -3   5   2    2.97    0.37
  -3   5   2    3.17    0.11
   3  -5  -1  110.74    1.69
   3  -5  -1  108.23    1.28
  -3   5   1  112.76    1.74
  -3   5   1  111.71    1.38
   3  -5   0   58.61    0.75
   3  -5   0   62.03    1.07
  -3   5   0   62.02    0.95
  -3   5   0   61.56    0.85
   3  -5   1    0.20    0.11
   3  -5   1    0.25    0.28
  -3   5  -1    0.39    0.17
  -3   5  -1    0.15    0.16
   3  -5   2  139.63    2.12
   3  -5   2  128.81    1.74
  -3   5  -2  135.83    1.92
  -3   5  -2  133.73    1.79
   3  -5   3   91.55    1.32
   3  -5   3   87.44    1.24
  -3   5  -3   93.95    1.52
  -3   5  -3   89.55    1.38
   3  -5   4    5.66    0.25
   3  -5   4    5.32    0.38
  -3   5  -4    5.77    0.25
  -3   5  -4    5.00    0.24
   3  -5   5   96.37    1.45
   3  -5   5  101.58    1.64
  -3   5  -5  104.33    1.66
  -3   5  -5   98.21    1.61
   3  -5   6   21.78    0.46
   3  -5   6   21.73    0.52
  -3   5  -6   22.75    0.46
  -3   5  -6   22.00    0.50
   3  -5   7    7.53    0.28
   3  -5   7    6.93    0.35
  -3   5  -7    7.76    0.28
  -3   5  -7    6.62    0.51
   3  -5   8    0.75    0.18
   3  -5   8    1.26    0.27
  -3   5  -8    1.22    0.25
  -3   5  -8    1.10    0.29
   3  -5   9   10.88    0.34
   3  -5   9   11.75    0.49
  -3   5  -9   10.72    0.33
  -3   5  -9   11.89    0.69
   3  -5  10    0.10    0.28
   3  -5  10    0.11    0.15
  -3   5 -10   -0.10    0.25
  -3   5 -10    0.01    0.23
   3  -5  11    0.68    0.19
   3  -5  11    0.62    0.57
  -3   5 -11    0.03    0.25
  -3   5 -11    0.46    0.46
  -3   4  14    1.48    0.46
  -3   4  13    0.57    0.40
  -3   4  12    0.70    0.23
  -3   4  11    1.81    0.25
  -3   4  10    0.21    0.11
  -3   4  10    0.37    0.19
  -3   4  10    0.23    0.11
  -3   4  10    0.27    0.19
  -3   4   9   22.59    0.36
  -3   4   9   25.22    0.74
  -3   4   9   23.55    0.36
  -3   4   9   24.10    0.56
  -3   4   8   19.11    0.66
  -3   4   8   18.19    0.26
  -3   4   8   18.14    0.26
  -3   4   8   19.79    0.65
  -3   4   7    6.27    0.29
  -3   4   7    6.49    0.29
  -3   4   7    5.96    0.09
  -3   4   7    6.14    0.09
  -3   4   6    5.38    0.27
  -3   4   6    4.99    0.25
  -3   4   5   16.13    0.38
  -3   4   5   16.36    0.54
   3  -4  -4   10.79    0.30
  -3   4   4   10.45    0.30
  -3   4   4   10.27    0.44
   3  -4  -3   73.86    1.03
  -3   4   3   75.16    1.20
  -3   4   3   75.38    1.06
   3  -4  -2   12.85    0.17
   3  -4  -2   12.85    0.42
  -3   4   2   13.27    0.44
  -3   4   2   13.31    0.17
   3  -4  -1   80.83    0.95
   3  -4  -1   80.68    1.09
  -3   4   1   84.47    1.16
  -3   4   1   83.34    0.96
   3  -4   0    5.16    0.13
   3  -4   0    5.55    0.21
  -3   4   0    5.20    0.33
  -3   4   0    5.39    0.16
   3  -4   1  255.41    3.27
   3  -4   1  265.31    3.52
  -3   4  -1  265.27    3.55
  -3   4  -1  264.91    3.45
   3  -4   2   68.70    0.91
   3  -4   2   72.02    1.01
  -3   4  -2   74.07    1.16
  -3   4  -2   70.78    0.93
   3  -4   3    2.43    0.17
   3  -4   3    1.92    0.15
  -3   4  -3    2.22    0.14
  -3   4  -3    2.25    0.27
   3  -4   4   87.93    1.23
   3  -4   4   83.88    1.32
  -3   4  -4   86.55    1.18
  -3   4  -4   87.10    1.34
   3  -4   5    7.74    0.35
   3  -4   5    7.52    0.41
  -3   4  -5    8.12    0.27
  -3   4  -5    7.87    0.25
   3  -4   6   30.84    0.52
   3  -4   6   29.65    0.57
  -3   4  -6   30.34    0.52
  -3   4  -6   30.48    0.73
   3  -4   7    9.85    0.36
   3  -4   7   10.50    0.41
  -3   4  -7   10.67    0.28
  -3   4  -7   10.60    0.36
   3  -4   8   17.82    0.73
   3  -4   8   18.19    0.52
  -3   4  -8   18.51    0.51
  -3   4  -8   19.34    0.70
   3  -4   9    3.37    0.52
   3  -4   9    2.28    0.29
  -3   4  -9    2.59    0.29
  -3   4  -9    2.23    0.30
   3  -4  10    2.65    0.30
   3  -4  10    3.44    0.36
  -3   4 -10    2.72    0.53
  -3   4 -10    2.81    0.19
   3  -4  11    3.76    0.42
   3  -4  11    3.85    0.32
  -3   4 -11    3.32    0.21
  -3   4 -11    3.34    0.39
   3  -4  12    6.32    0.81
  -3   4 -12    5.89    0.77
  -3   3  14    0.06    0.20
  -3   3  13    7.96    0.58
  -3   3  12    4.99    0.19
  -3   3  12    5.93    0.51
  -3   3  12    5.55    0.30
  -3   3  11    0.07    0.08
  -3   3  11    0.08    0.09
  -3   3  11    0.00    0.29
  -3   3  11   -0.33    0.29
  -3   3  10    7.81    0.50
  -3   3  10    6.48    0.25
  -3   3  10    6.98    0.18
  -3   3  10    7.94    0.33
  -3   3   9   14.87    0.30
  -3   3   9   15.63    0.61
  -3   3   9   16.20    0.43
  -3   3   9   14.92    0.31
  -3   3   8   29.51    0.43
  -3   3   8   31.23    0.60
  -3   3   8   30.30    0.39
  -3   3   8   32.16    0.78
  -3   3   7   10.11    0.18
  -3   3   7   10.48    0.48
  -3   3   7   10.38    0.18
  -3   3   7   11.10    0.33
  -3   3   6   66.29    0.68
  -3   3   6   66.86    0.72
  -3   3   6   65.98    0.99
  -3   3   6   65.06    0.98
  -3   3   5  195.46    2.65
  -3   3   5  195.18    2.64
  -3   3   4  115.86    1.68
  -3   3   4  115.09    1.67
   3  -3  -3    1.77    0.16
  -3   3   3    1.42    0.16
  -3   3   3    1.48    0.25
   3  -3  -2    8.56    0.24
  -3   3   2    8.59    0.35
  -3   3   2    8.37    0.24
   3  -3  -1    5.70    0.29
   3  -3  -1    5.93    0.11
  -3   3   1    5.74    0.19
  -3   3   1    6.02    0.10
   3  -3   0  205.17    2.43
   3  -3   0  206.99    2.64
  -3   3   0  211.24    2.81
  -3   3   0  215.60    2.57
   3  -3   1  228.31    2.86
   3  -3   1  229.83    2.92
  -3   3  -1  232.73    2.86
  -3   3  -1  226.73    2.88
   3  -3   2   86.26    1.20
   3  -3   2   81.34    1.09
  -3   3  -2   84.41    1.05
  -3   3  -2   85.36    1.09
   3  -3   3  315.30    4.18
   3  -3   3  332.84    4.53
  -3   3  -3  337.52    4.55
  -3   3  -3  321.09    4.28
   3  -3   4  102.13    1.44
   3  -3   4   95.48    1.40
  -3   3  -4   98.18    1.42
  -3   3  -4   98.07    1.39
   3  -3   5   70.40    1.06
   3  -3   5   69.11    1.12
  -3   3  -5   68.17    0.97
  -3   3  -5   68.30    0.92
   3  -3   6   16.83    0.32
   3  -3   6   16.79    0.54
  -3   3  -6   16.23    0.31
  -3   3  -6   16.63    0.39
   3  -3   7  100.88    1.50
   3  -3   7   97.39    1.48
  -3   3  -7   97.04    1.32
  -3   3  -7   98.81    1.64
   3  -3   8    4.28    0.19
   3  -3   8    4.54    0.30
  -3   3  -8    4.14    0.17
  -3   3  -8    3.90    0.28
   3  -3   9   10.87    0.42
   3  -3   9    9.56    0.25
  -3   3  -9    9.98    0.25
  -3   3  -9   10.24    0.40
   3  -3  10   12.88    0.30
   3  -3  10   13.73    0.74
  -3   3 -10   12.66    0.29
  -3   3 -10   13.27    0.48
   3  -3  11    4.53    0.20
   3  -3  11    4.99    0.41
  -3   3 -11    4.49    0.28
  -3   3 -11    5.01    0.39
   3  -3  12    8.10    0.79
  -3   3 -12    9.85    0.52
   3  -3  13    3.22    0.46
  -3   3 -13    2.06    0.42
   3  -2 -14    2.15    0.33
  -3   2  14    2.81    0.32
   3  -2 -13    2.98    0.21
  -3   2  13    3.25    0.21
  -3   2  13    3.30    0.30
  -3   2  13    3.30    0.35
   3  -2 -12    6.46    0.34
  -3   2  12    6.79    0.35
  -3   2  12    6.65    0.35
  -3   2  12    6.62    0.25
   3  -2 -11    0.35    0.12
  -3   2  11    0.24    0.12
  -3   2  11    0.42    0.20
  -3   2  11    0.36    0.20
  -3   2  11    0.49    0.19
   3  -2 -10    0.17    0.09
  -3   2  10    0.09    0.09
  -3   2  10    0.30    0.19
  -3   2  10    0.14    0.19
  -3   2  10    0.28    0.17
   3  -2  -9    2.65    0.17
   3  -2  -9   -0.09    0.21
  -3   2   9    3.18    0.38
  -3   2   9    2.98    0.20
  -3   2   9    2.54    0.12
  -3   2   9    2.74    0.39
   3  -2  -8    0.92    0.08
  -3   2   8    1.50    0.33
  -3   2   8    1.09    0.32
  -3   2   8    1.35    0.14
   3  -2  -7    1.26    0.10
  -3   2   7    1.19    0.11
  -3   2   7    1.25    0.12
  -3   2   7    1.17    0.19
  -3   2   7    1.20    0.19
   3  -2  -6   97.20    1.08
  -3   2   6  208.01    2.47
  -3   2   6  198.89    2.75
  -3   2   6  199.32    2.74
  -3   2   6  212.27    2.54
  -3   2   5    6.19    0.09
  -3   2   5    6.54    0.24
  -3   2   5    6.55    0.09
  -3   2   5    6.29    0.35
  -3   2   4    2.96    0.19
  -3   2   4    2.77    0.29
  -3   2   3  740.96   10.44
  -3   2   3  751.75   10.56
   3  -2  -2  264.05    3.49
  -3   2   2  261.13    3.46
  -3   2   2  260.94    3.34
   3  -2  -1  386.30    5.02
   3  -2  -1  390.84    4.59
  -3   2   1  388.27    5.05
  -3   2   1  390.84    5.18
   3  -2   0    0.03    0.14
   3  -2   0    0.19    0.06
  -3   2   0    0.18    0.06
  -3   2   0    0.06    0.09
   3  -2   1  236.32    2.85
   3  -2   1  244.32    3.06
  -3   2  -1  252.42    3.06
  -3   2  -1  246.69    3.18
   3  -2   2  170.35    2.15
   3  -2   2  182.78    2.32
  -3   2  -2  179.06    2.30
  -3   2  -2  175.73    2.15
   3  -2   3   59.37    0.76
   3  -2   3   62.00    0.79
  -3   2  -3   61.18    0.78
  -3   2  -3   62.78    0.88
   3  -2   4  124.38    1.55
   3  -2   4  119.86    1.64
  -3   2  -4  123.07    1.66
  -3   2  -4  123.03    1.53
   3  -2   5    2.84    0.13
   3  -2   5    3.10    0.27
  -3   2  -5    2.64    0.19
  -3   2  -5    2.66    0.16
   3  -2   6   95.27    1.34
   3  -2   6  100.05    1.28
  -3   2  -6   97.90    1.36
  -3   2  -6   95.48    1.21
   3  -2   7   66.48    1.03
   3  -2   7   68.57    0.99
  -3   2  -7   66.07    1.01
  -3   2  -7   66.92    0.95
   3  -2   8   33.04    0.50
   3  -2   8   34.01    0.85
  -3   2  -8   32.25    0.55
  -3   2  -8   34.25    0.82
   3  -2   9   10.41    0.30
   3  -2   9    9.89    0.40
  -3   2  -9   10.12    0.22
  -3   2  -9   10.23    0.38
   3  -2  10    7.61    0.39
   3  -2  10    6.84    0.28
  -3   2 -10    7.28    0.57
  -3   2 -10    6.63    0.19
   3  -2  11    0.85    0.19
   3  -2  11    1.24    0.30
  -3   2 -11    2.08    0.30
  -3   2 -11    1.18    0.12
   3  -2  12    0.74    0.34
  -3   2 -12    0.59    0.30
   3  -2  13    8.61    0.82
  -3   2 -13    7.41    0.51
   3  -1 -14   12.25    0.41
  -3   1  14   14.49    0.74
  -3   1  14   13.37    0.46
   3  -1 -13    1.22    0.19
   3  -1 -13    1.45    0.25
  -3   1  13    1.77    0.35
  -3   1  13    1.74    0.45
   3  -1 -12   15.43    0.46
   3  -1 -12   14.38    0.50
  -3   1  12   16.87    0.69
  -3   1  12   15.76    0.56
   3  -1 -11   19.29    0.68
   3  -1 -11   17.63    0.40
  -3   1  11   18.99    0.70
  -3   1  11   20.55    0.73
  -3   1  11   19.45    0.43
   3  -1 -10   51.52    0.93
   3  -1 -10   49.12    0.89
  -3   1  10   54.40    0.97
  -3   1  10   56.28    1.21
  -3   1  10   52.71    0.84
   3  -1  -9    5.69    0.26
   3  -1  -9    5.45    0.28
  -3   1   9    6.47    0.46
  -3   1   9    6.18    0.20
  -3   1   9    6.97    0.30
   3  -1  -8    3.06    0.22
   3  -1  -8    2.91    0.19
  -3   1   8    3.50    0.14
  -3   1   8    3.43    0.23
  -3   1   8    3.14    0.37
   3  -1  -7   20.27    0.42
   3  -1  -7   19.48    0.35
  -3   1   7   20.95    0.43
  -3   1   7   20.92    0.44
  -3   1   7   21.42    0.40
   3  -1  -6    1.22    0.18
   3  -1  -6    1.60    0.11
  -3   1   6    1.20    0.17
  -3   1   6    1.44    0.18
  -3   1   6    1.47    0.13
   3  -1  -5    9.20    0.26
   3  -1  -5   10.67    0.17
  -3   1   5    9.40    0.25
  -3   1   5    9.39    0.25
  -3   1   5    9.38    0.14
   3  -1  -4   -0.01    0.02
  -3   1   4   40.18    0.69
  -3   1   4   38.10    0.57
  -3   1   4   40.43    0.44
   3  -1  -3  150.60    1.89
   3  -1  -3  150.13    1.52
  -3   1   3  146.67    1.94
  -3   1   3  158.93    1.61
  -3   1   3  149.07    1.88
  -3   1   2    2.37    0.13
  -3   1   2    2.59    0.14
   3  -1  -1   51.41    0.52
  -3   1   1   52.92    0.77
  -3   1   1   50.24    0.74
   3  -1   0 1593.29   23.98
   3  -1   0 1570.21   23.00
   3  -1   0 1544.99   22.61
  -3   1   0 1590.33   24.03
  -3   1   0 1636.41   24.79
   3  -1   1  183.77    2.16
   3  -1   1  184.18    2.22
  -3   1  -1  186.86    2.32
  -3   1  -1  190.23    2.20
   3  -1   2   26.40    0.40
   3  -1   2   24.71    0.32
  -3   1  -2   26.30    0.41
  -3   1  -2   26.68    0.39
   3  -1   3  233.95    2.92
   3  -1   3  256.49    3.10
  -3   1  -3  248.43    3.16
  -3   1  -3  249.94    3.12
   3  -1   4  179.13    2.15
   3  -1   4  167.57    2.12
  -3   1  -4  176.24    2.10
  -3   1  -4  174.73    2.20
   3  -1   5  125.94    1.55
   3  -1   5  117.56    1.53
  -3   1  -5  120.76    1.49
  -3   1  -5  119.31    1.55
   3  -1   6   13.41    0.26
   3  -1   6   12.74    0.30
  -3   1  -6   13.14    0.25
  -3   1  -6   12.81    0.30
   3  -1   7   35.69    0.61
   3  -1   7   36.64    0.54
  -3   1  -7   35.75    0.61
  -3   1  -7   35.16    0.51
   3  -1   8    6.57    0.29
   3  -1   8    6.33    0.14
  -3   1  -8    6.05    0.19
  -3   1  -8    6.41    0.43
   3  -1   9   22.83    0.41
   3  -1   9   24.52    0.75
  -3   1  -9   22.92    0.39
  -3   1  -9   23.73    0.53
   3  -1  10    6.52    0.36
  -3   1 -10    6.08    0.15
  -3   1 -10    6.37    0.35
   3  -1  11    5.68    0.22
   3  -1  11    6.71    0.60
  -3   1 -11    5.57    0.15
  -3   1 -11    6.08    0.57
   3  -1  12    0.59    0.30
  -3   1 -12    0.63    0.30
   3  -1  13    0.70    0.57
  -3   1 -13    0.68    0.33
   3  -1  14    4.42    0.50
  -3   1 -14    3.90    0.45
   3   0 -14    3.04    0.46
   3   0 -14    2.26    0.41
  -3   0  14    3.21    0.33
  -3   0  14    3.50    0.49
   3   0 -13    0.00    0.17
   3   0 -13   -0.04    0.23
  -3   0  13    0.25    0.19
  -3   0  13   -0.02    0.21
   3   0 -12    0.13    0.14
   3   0 -12   -0.01    0.30
  -3   0  12   -0.16    0.18
  -3   0  12    0.14    0.14
   3   0 -11    0.56    0.16
   3   0 -11    1.17    0.22
  -3   0  11    0.75    0.23
  -3   0  11    0.63    0.30
  -3   0  11    0.81    0.22
   3   0 -10    2.49    0.28
   3   0 -10    1.55    0.40
  -3   0  10    1.72    0.25
  -3   0  10    2.24    0.30
   3   0  -9   51.88    0.89
   3   0  -9   48.80    0.87
  -3   0   9   53.53    0.91
  -3   0   9   52.35    0.95
   3   0  -8    3.54    0.23
   3   0  -8    3.26    0.23
  -3   0   8    3.26    0.24
  -3   0   8    3.70    0.26
   3   0  -7    5.38    0.37
   3   0  -7    5.16    0.22
  -3   0   7    5.46    0.25
  -3   0   7    5.49    0.17
   3   0  -6   85.74    1.13
   3   0  -6   88.67    1.37
  -3   0   6   92.42    1.24
  -3   0   6   88.77    1.25
   3   0  -5   20.86    0.50
   3   0  -5   19.89    0.27
  -3   0   5   21.78    0.35
  -3   0   5   20.35    0.39
   3   0  -4  136.74    1.74
   3   0  -4  135.72    1.55
  -3   0   4  139.82    1.79
  -3   0   4  145.00    1.66
   3   0  -3   47.16    0.63
   3   0  -3   46.02    0.48
  -3   0   3   50.03    0.57
  -3   0   3   48.24    0.64
   3   0  -2    1.46    0.11
  -3   0   2    1.36    0.07
  -3   0   2    1.23    0.11
  -3   0   2    1.17    0.11
   3   0  -1    1.42    0.10
   3   0  -1    1.10    0.05
  -3   0   1    1.20    0.15
  -3   0   1    1.34    0.10
  -3   0   1    1.36    0.06
  -3   0   0  731.86    9.87
  -3   0   0  762.08   10.26
   3   0   1    0.84    0.08
   3   0   1    0.82    0.09
  -3   0  -1    0.89    0.12
  -3   0  -1    0.85    0.07
   3   0   2    5.52    0.16
   3   0   2    6.03    0.18
   3   0   2    5.31    0.16
  -3   0  -2    5.70    0.16
  -3   0  -2    5.46    0.11
  -3   0  -2    6.08    0.18
   3   0   3  200.39    2.31
   3   0   3  191.91    2.34
  -3   0  -3  200.30    2.32
  -3   0  -3  200.16    2.43
   3   0   4  163.73    2.04
   3   0   4  176.99    2.05
  -3   0  -4  171.70    1.99
  -3   0  -4  170.53    2.10
   3   0   5   30.45    0.38
   3   0   5   28.89    0.44
  -3   0  -5   29.27    0.37
  -3   0  -5   29.21    0.44
   3   0   6   72.03    0.80
   3   0   6   68.65    1.05
  -3   0  -6   70.58    1.07
  -3   0  -6   69.38    0.77
   3   0   7    0.46    0.08
   3   0   7    0.42    0.24
  -3   0  -7    0.41    0.08
  -3   0  -7    0.41    0.24
   3   0   8    1.27    0.10
   3   0   8    1.40    0.19
  -3   0  -8    1.31    0.06
  -3   0  -8    1.64    0.32
   3   0   9    3.36    0.09
   3   0   9    3.47    0.26
  -3   0  -9    3.59    0.25
  -3   0  -9    3.40    0.13
   3   0  10    2.50    0.13
   3   0  10    2.74    0.45
  -3   0 -10    2.48    0.12
  -3   0 -10    2.88    0.27
   3   0  11    0.68    0.11
   3   0  11    0.90    0.26
  -3   0 -11    1.28    0.25
  -3   0 -11    0.90    0.07
   3   0  12    0.33    0.26
  -3   0 -12    0.08    0.36
   3   0  13    0.03    0.40
  -3   0 -13    0.23    0.26
   3   0  14   -0.15    0.25
   3   0  14    0.19    0.27
  -3   0 -14    0.03    0.42
   3   1 -13    1.16    0.36
   3   1 -13    1.33    0.41
  -3  -1  13    0.79    0.43
  -3  -1  13    1.08    0.42
   3   1 -12    4.45    0.41
   3   1 -12    5.21    0.31
  -3  -1  12    5.29    0.48
  -3  -1  12    5.11    0.52
   3   1 -11   -0.04    0.28
   3   1 -11   -0.04    0.22
  -3  -1  11   -0.12    0.28
  -3  -1  11    0.06    0.15
   3   1 -10    8.55    0.42
   3   1 -10    9.40    0.35
  -3  -1  10    9.69    0.37
  -3  -1  10    9.57    0.33
   3   1  -9    0.16    0.25
   3   1  -9   -0.01    0.11
  -3  -1   9   -0.12    0.14
  -3  -1   9   -0.16    0.18
   3   1  -8    7.64    0.29
   3   1  -8    7.34    0.31
  -3  -1   8    7.94    0.30
  -3  -1   8    8.05    0.25
   3   1  -7    1.34    0.19
   3   1  -7    1.17    0.29
  -3  -1   7    1.09    0.30
  -3  -1   7    1.18    0.23
   3   1  -6   13.54    0.46
   3   1  -6   12.96    0.25
  -3  -1   6   14.14    0.28
  -3  -1   6   14.21    0.46
   3   1  -5  108.95    1.45
   3   1  -5  106.92    1.41
  -3  -1   5  110.88    1.48
  -3  -1   5  111.96    1.41
   3   1  -4    6.23    0.20
   3   1  -4    5.61    0.19
  -3  -1   4    6.07    0.20
  -3  -1   4    6.04    0.22
   3   1  -3  111.04    1.33
   3   1  -3  110.19    1.37
  -3  -1   3  114.73    1.33
  -3  -1   3  112.41    1.40
   3   1  -2  149.04    1.72
   3   1  -2  145.84    1.84
  -3  -1   2  146.11    1.78
  -3  -1   2  156.46    1.83
   3   1  -1   77.11    0.92
   3   1  -1   78.22    0.85
  -3  -1   1   80.36    0.88
  -3  -1   1   79.46    0.95
   3   1   0   17.66    0.30
   3   1   0   18.06    0.23
  -3  -1   0   19.12    0.28
  -3  -1   0   18.28    0.25
   3   1   1  288.43    3.44
   3   1   1  295.53    3.60
   3   1   1  291.05    3.53
  -3  -1  -1  293.79    3.50
  -3  -1  -1  285.57    3.41
  -3  -1  -1  285.79    3.42
   3   1   2  160.31    1.87
   3   1   2  164.21    1.93
  -3  -1  -2  158.95    1.82
  -3  -1  -2  160.16    1.79
   3   1   3  253.99    3.13
   3   1   3  255.62    3.12
  -3  -1  -3  260.72    3.19
  -3  -1  -3  258.13    2.96
  -3  -1  -3  253.09    2.93
   3   1   4   11.85    0.32
   3   1   4   17.41    0.27
  -3  -1  -4   12.94    0.32
  -3  -1  -4   12.40    0.16
   3   1   5    1.11    0.04
   3   1   5    1.04    0.13
   3   1   5    1.09    0.12
  -3  -1  -5    1.01    0.05
  -3  -1  -5    1.08    0.13
   3   1   6   97.96    1.41
   3   1   6  104.30    1.08
  -3  -1  -6   98.99    1.02
  -3  -1  -6   99.10    1.30
   3   1   7   51.33    0.55
   3   1   7   49.64    0.86
  -3  -1  -7   50.29    0.75
  -3  -1  -7   47.45    0.49
   3   1   8   20.42    0.24
   3   1   8   20.55    0.43
  -3  -1  -8   18.62    0.24
  -3  -1  -8   20.93    0.43
   3   1   9    2.29    0.07
   3   1   9    2.28    0.22
  -3  -1  -9    2.24    0.07
  -3  -1  -9    2.17    0.23
   3   1  10    7.00    0.32
   3   1  10    5.54    0.11
  -3  -1 -10    5.54    0.10
  -3  -1 -10    6.93    0.31
   3   1  11    5.92    0.35
   3   1  11    4.79    0.08
  -3  -1 -11    4.90    0.33
  -3  -1 -11    4.91    0.11
   3   1  12   -0.06    0.26
   3   1  12    2.23    0.45
  -3  -1 -12    3.04    0.51
   3   1  13    0.30    0.26
   3   1  13    0.25    0.27
  -3  -1 -13    0.27    0.25
   3   1  14   -0.01    0.26
   3   1  14    0.17    0.27
  -3  -1 -14    0.30    0.29
   3   1  15    1.20    0.61
   3   1  15    1.78    0.41
  -3  -1 -15    1.20    0.59
   3   2 -13    0.49    0.39
   3   2 -13    0.52    0.36
  -3  -2  13    0.22    0.25
  -3  -2  13    0.50    0.25
   3   2 -12    6.59    0.35
   3   2 -12    6.16    0.51
  -3  -2  12    7.06    0.40
  -3  -2  12    6.86    0.38
   3   2 -11    0.03    0.17
   3   2 -11    0.03    0.25
  -3  -2  11    0.00    0.22
  -3  -2  11    1.45    0.24
   3   2 -10    2.70    0.39
   3   2 -10    2.16    0.34
  -3  -2  10    2.68    0.40
  -3  -2  10    2.24    0.43
   3   2  -9    1.58    0.22
   3   2  -9    1.49    0.30
  -3  -2   9    1.51    0.35
  -3  -2   9    1.34    0.23
   3   2  -8    0.35    0.17
   3   2  -8    0.43    0.22
  -3  -2   8    0.50    0.19
  -3  -2   8    0.47    0.16
   3   2  -7    0.26    0.16
   3   2  -7    0.37    0.12
  -3  -2   7    0.35    0.28
  -3  -2   7    0.34    0.14
   3   2  -6   21.56    0.46
   3   2  -6   22.18    0.57
  -3  -2   6   23.00    0.45
  -3  -2   6   22.97    0.54
   3   2  -5   51.63    0.75
   3   2  -5   49.82    0.68
  -3  -2   5   53.16    0.79
  -3  -2   5   53.01    0.85
   3   2  -4   28.40    0.41
   3   2  -4   28.98    0.46
  -3  -2   4   29.82    0.60
  -3  -2   4   29.27    0.53
   3   2  -3   16.08    0.32
   3   2  -3   17.05    0.41
  -3  -2   3   16.97    0.30
  -3  -2   3   16.63    0.27
   3   2  -2    0.04    0.07
   3   2  -2    0.18    0.14
  -3  -2   2    0.06    0.14
  -3  -2   2    0.22    0.13
   3   2  -1   35.30    0.49
   3   2  -1   34.21    0.52
  -3  -2   1   34.54    0.45
  -3  -2   1   36.20    0.45
   3   2   0  221.09    2.61
   3   2   0  216.55    2.59
  -3  -2   0  215.41    2.57
  -3  -2   0  223.00    2.70
   3   2   1  315.20    3.84
   3   2   1  309.36    3.75
  -3  -2  -1  322.54    3.93
  -3  -2  -1  308.81    3.80
   3   2   2  272.77    3.40
   3   2   2  273.98    3.25
  -3  -2  -2  275.37    3.35
  -3  -2  -2  270.44    3.20
   3   2   3   22.05    0.32
   3   2   3   22.37    0.32
   3   2   3   22.10    0.25
  -3  -2  -3   22.29    0.32
  -3  -2  -3   21.38    0.25
  -3  -2  -3   21.94    0.25
   3   2   4   16.44    0.28
   3   2   4   16.28    0.27
  -3  -2  -4   16.81    0.18
   3   2   5   52.34    0.70
   3   2   5   52.94    0.78
  -3  -2  -5   53.76    0.71
   3   2   6   33.06    0.52
   3   2   6   33.76    0.52
  -3  -2  -6   34.20    0.52
   3   2   7    0.00    0.13
   3   2   7    0.05    0.19
  -3  -2  -7    0.07    0.14
   3   2   8    2.70    0.35
   3   2   8    3.01    0.33
  -3  -2  -8    2.42    0.33
   3   2   9    0.31    0.18
   3   2   9    0.46    0.29
  -3  -2  -9    0.32    0.17
   3   2  10    2.04    0.25
   3   2  10    1.72    0.39
  -3  -2 -10    1.83    0.24
   3   2  11    0.14    0.20
   3   2  11    0.12    0.34
  -3  -2 -11    0.06    0.19
   3   2  12    6.17    0.59
   3   2  12    6.68    0.39
  -3  -2 -12    6.90    0.60
   3   2  13    2.32    0.54
   3   2  13    2.20    0.35
  -3  -2 -13    2.25    0.34
   3   2  14    1.66    0.35
   3   2  14    1.70    0.35
  -3  -2 -14    2.59    0.35
   3   2  15   -0.09    0.29
   3   2  15   -0.12    0.30
  -3  -2 -15    0.06    0.27
   3   3 -13    4.58    0.53
   3   3 -13    5.09    0.55
  -3  -3  13    4.84    0.41
  -3  -3  13    4.71    0.40
   3   3 -12    9.93    0.61
   3   3 -12    9.68    0.62
  -3  -3  12   10.08    0.73
  -3  -3  12   10.67    0.68
   3   3 -11    0.28    0.20
   3   3 -11    0.14    0.32
  -3  -3  11    0.14    0.36
  -3  -3  11    0.15    0.22
   3   3 -10    2.83    0.26
   3   3 -10    2.50    0.37
  -3  -3  10    3.02    0.28
  -3  -3  10    2.46    0.29
   3   3  -9    0.34    0.32
   3   3  -9    0.68    0.29
  -3  -3   9    0.55    0.20
  -3  -3   9    0.49    0.35
   3   3  -8   21.54    0.49
   3   3  -8   22.77    0.62
  -3  -3   8   24.23    0.69
  -3  -3   8   23.78    0.53
   3   3  -7    0.56    0.15
   3   3  -7    0.41    0.18
  -3  -3   7    0.39    0.28
  -3  -3   7    0.31    0.30
   3   3  -6   27.44    0.60
   3   3  -6   28.78    0.67
  -3  -3   6   29.43    0.53
  -3  -3   6   28.97    0.54
   3   3  -5   10.15    0.25
   3   3  -5   10.74    0.29
  -3  -3   5   10.72    0.28
  -3  -3   5   11.18    0.43
   3   3  -4   15.64    0.43
   3   3  -4   15.83    0.30
  -3  -3   4   15.95    0.33
  -3  -3   4   16.00    0.32
   3   3  -3   14.75    0.29
   3   3  -3   14.45    0.26
  -3  -3   3   14.84    0.30
  -3  -3   3   15.18    0.29
   3   3  -2  137.28    1.70
   3   3  -2  139.57    1.79
  -3  -3   2  140.53    1.72
  -3  -3   2  137.20    1.80
   3   3  -1    0.31    0.14
   3   3  -1    0.19    0.14
  -3  -3   1    0.07    0.08
  -3  -3   1    0.25    0.14
   3   3   0    8.21    0.17
   3   3   0    8.64    0.19
  -3  -3   0    8.31    0.17
  -3  -3   0    8.64    0.18
   3   3   1  797.63   10.84
   3   3   1  819.51   11.30
  -3  -3  -1  820.84   11.19
  -3  -3  -1  796.11   10.78
   3   3   2  300.43    3.66
   3   3   2  299.29    3.81
  -3  -3  -2  300.58    3.71
  -3  -3  -2  291.27    3.53
   3   3   3  756.87   10.36
   3   3   3  770.48   10.19
  -3  -3  -3  753.32    9.90
  -3  -3  -3  758.06   10.34
   3   3   4  130.87    1.63
   3   3   4  138.00    1.45
   3   3   4  131.75    1.62
  -3  -3  -4  130.15    1.61
   3   3   5   14.21    0.38
   3   3   5   14.64    0.28
   3   3   6   23.72    0.53
   3   3   6   23.49    0.40
   3   3   7  126.85    1.83
   3   3   7  127.80    1.87
   3   3   8    0.04    0.14
   3   3   8    0.14    0.14
  -3  -3  -8    0.14    0.14
   3   3   9    4.64    0.27
   3   3   9    4.92    0.26
  -3  -3  -9    4.23    0.26
   3   3  10    5.37    0.45
   3   3  10    5.40    0.28
  -3  -3 -10    5.30    0.45
   3   3  11   14.79    0.66
   3   3  11   15.77    0.46
  -3  -3 -11   15.68    0.66
   3   3  12    2.29    0.48
   3   3  12    2.13    0.30
  -3  -3 -12    2.41    0.49
   3   3  13   13.07    0.52
   3   3  13   13.10    0.51
  -3  -3 -13   12.32    0.51
   3   3  14   -0.09    0.25
   3   3  14    0.16    0.25
  -3  -3 -14    0.10    0.26
   3   3  15    0.08    0.29
   3   3  15    0.25    0.30
  -3  -3 -15    0.05    0.27
   3   4 -12    2.12    0.46
   3   4 -12    1.55    0.30
  -3  -4  12    2.41    0.33
  -3  -4  12    2.22    0.37
   3   4 -11    4.87    0.35
   3   4 -11    4.78    0.33
  -3  -4  11    5.34    0.38
  -3  -4  11    5.29    0.41
   3   4 -10    5.02    0.32
   3   4 -10    5.04    0.32
  -3  -4  10    5.49    0.38
  -3  -4  10    5.71    0.57
   3   4  -9    3.82    0.44
   3   4  -9    2.98    0.27
  -3  -4   9    3.86    0.31
  -3  -4   9    3.31    0.31
   3   4  -8   21.84    0.50
   3   4  -8   21.89    0.70
  -3  -4   8   23.73    0.57
  -3  -4   8   22.94    0.56
   3   4  -7   36.01    0.82
   3   4  -7   36.87    0.68
  -3  -4   7   38.41    0.91
  -3  -4   7   37.31    0.71
   3   4  -6    7.23    0.29
   3   4  -6    7.33    0.26
  -3  -4   6    7.57    0.30
  -3  -4   6    7.61    0.30
   3   4  -5    0.40    0.26
   3   4  -5    0.35    0.23
  -3  -4   5    0.38    0.17
  -3  -4   5    0.50    0.27
   3   4  -4    0.31    0.14
   3   4  -4    0.49    0.14
  -3  -4   4    0.29    0.14
  -3  -4   4    0.09    0.24
   3   4  -3   53.42    0.75
   3   4  -3   53.93    0.75
  -3  -4   3   53.43    0.76
  -3  -4   3   55.07    0.78
   3   4  -2  148.52    1.88
   3   4  -2  153.43    2.05
  -3  -4   2  152.31    1.94
  -3  -4   2  150.29    1.90
   3   4  -1    0.05    0.09
   3   4  -1    0.14    0.10
  -3  -4   1    0.03    0.18
  -3  -4   1    0.14    0.16
   3   4   0  293.95    3.81
  -3  -4   0  298.55    3.74
  -3  -4   0  285.84    3.57
   3   4   1   50.14    0.62
   3   4   1   49.27    0.65
  -3  -4  -1   49.05    0.64
  -3  -4  -1   48.60    0.60
   3   4   2    5.29    0.17
   3   4   2    5.09    0.17
  -3  -4  -2    5.39    0.17
  -3  -4  -2    5.22    0.17
   3   4   3  256.24    3.09
   3   4   3  249.59    3.25
  -3  -4  -3  252.18    3.03
  -3  -4  -3  250.49    3.25
   3   4   4  952.12   13.79
   3   4   4  982.91   13.51
  -3  -4  -4  946.49   13.45
  -3  -4  -4  966.41   13.23
   3   4   5    2.26    0.15
   3   4   5    1.78    0.16
   3   4   5    1.99    0.08
  -3  -4  -5    1.66    0.15
   3   4   6  186.50    2.42
   3   4   6  189.02    2.60
   3   4   7  225.07    3.00
   3   4   7  226.49    3.16
   3   4   8    9.22    0.30
   3   4   8    9.41    0.30
   3   4   9   43.86    0.95
   3   4   9   44.25    0.91
   3   4  10    1.03    0.22
   3   4  10    1.01    0.35
   3   4  11    0.34    0.21
   3   4  11    0.31    0.20
   3   4  12    0.25    0.24
   3   4  12    0.64    0.24
   3   4  13   -0.03    0.24
   3   4  13    0.30    0.24
   3   4  14   16.27    0.58
   3   4  14   16.58    0.59
   3   4  15   11.74    0.56
   3   4  15   13.19    0.58
   3   5 -12    2.35    0.32
   3   5 -12    1.99    0.54
  -3  -5  12    2.86    0.37
  -3  -5  12    3.05    0.42
   3   5 -11    8.21    0.41
   3   5 -11    8.19    0.63
  -3  -5  11    9.63    0.69
  -3  -5  11    8.54    0.52
   3   5 -10    3.36    0.31
   3   5 -10    3.26    0.50
  -3  -5  10    2.98    0.58
  -3  -5  10    2.75    0.33
   3   5  -9    3.48    0.49
   3   5  -9    4.04    0.49
  -3  -5   9    4.16    0.55
  -3  -5   9    4.70    0.58
   3   5  -8   14.67    0.44
   3   5  -8   14.31    0.64
  -3  -5   8   15.36    0.49
  -3  -5   8   16.39    0.50
   3   5  -7    2.04    0.25
   3   5  -7    2.45    0.25
  -3  -5   7    2.22    0.27
  -3  -5   7    2.55    0.27
   3   5  -6   28.21    0.57
   3   5  -6   28.81    0.57
  -3  -5   6   28.96    0.60
  -3  -5   6   30.15    0.81
   3   5  -5    0.03    0.15
   3   5  -5   -0.18    0.23
  -3  -5   5   -0.01    0.29
  -3  -5   5   -0.18    0.19
   3   5  -4    4.06    0.23
   3   5  -4    7.39    0.39
  -3  -5   4    4.21    0.41
  -3  -5   4    4.68    0.38
   3   5  -3   30.98    0.52
   3   5  -3   31.05    0.52
  -3  -5   3   31.84    0.70
  -3  -5   3   31.66    0.68
   3   5  -2    3.90    0.19
   3   5  -2    3.87    0.19
  -3  -5   2    4.00    0.21
  -3  -5   2    4.19    0.30
   3   5  -1   67.30    1.00
   3   5  -1   66.95    0.90
  -3  -5   1   67.02    0.91
  -3  -5   1   66.29    0.89
   3   5   0  254.33    3.32
   3   5   0  251.84    3.21
  -3  -5   0  251.02    3.21
  -3  -5   0  251.20    3.28
   3   5   1   81.76    1.17
   3   5   1   80.09    1.00
  -3  -5  -1   79.90    1.07
  -3  -5  -1   80.46    1.03
   3   5   2   72.56    0.94
   3   5   2   73.79    0.90
  -3  -5  -2   73.19    0.89
  -3  -5  -2   71.99    1.03
   3   5   3   27.66    0.44
   3   5   3   27.65    0.42
  -3  -5  -3   26.54    0.41
  -3  -5  -3   26.86    0.35
   3   5   4    9.25    0.24
   3   5   4    9.16    0.15
  -3  -5  -4    8.82    0.23
  -3  -5  -4    8.87    0.19
   3   5   5    5.16    0.14
   3   5   5    5.17    0.20
  -3  -5  -5    4.96    0.19
  -3  -5  -5    5.10    0.14
   3   5   6  196.22    2.59
   3   5   6  194.30    2.56
   3   5   6  204.25    2.37
  -3  -5  -6  186.99    2.44
  -3  -5  -6  187.33    2.11
   3   5   7   22.55    0.45
   3   5   7   22.39    0.26
   3   5   7   22.12    0.42
   3   5   7   23.21    0.27
  -3  -5  -7    0.00    0.02
   3   5   8   81.70    1.21
   3   5   8   80.93    0.82
   3   5   8   82.18    0.84
   3   5   8   82.80    1.35
   3   5   9   27.69    0.57
   3   5   9   28.68    0.56
   3   5  10   70.71    1.14
   3   5  10   72.12    1.14
   3   5  11    2.50    0.41
   3   5  11    2.40    0.43
   3   5  12    0.19    0.21
   3   5  12    0.09    0.33
   3   5  13    3.94    0.35
   3   5  13    4.58    0.35
   3   5  14    0.04    0.25
   3   5  14    0.32    0.25
   3   5  15    0.30    0.28
   3   5  15    0.11    0.46
   3   6 -11    0.68    0.27
   3   6 -11    0.61    0.30
  -3  -6  11    0.87    0.31
  -3  -6  11    0.85    0.60
   3   6 -10    0.03    0.24
   3   6 -10    0.27    0.37
  -3  -6  10   -0.03    0.39
  -3  -6  10   -0.04    0.27
   3   6  -9   17.07    0.56
   3   6  -9   17.52    0.76
  -3  -6   9   17.89    0.59
  -3  -6   9   18.50    0.63
   3   6  -8   20.31    0.56
   3   6  -8   20.67    0.57
  -3  -6   8   20.75    0.59
  -3  -6   8   21.09    0.88
   3   6  -7   17.11    0.49
   3   6  -7   17.26    0.49
  -3  -6   7   18.38    0.74
  -3  -6   7   19.01    0.79
   3   6  -6   24.10    0.55
   3   6  -6   24.89    0.74
  -3  -6   6   24.75    0.59
  -3  -6   6   25.93    0.62
   3   6  -5  104.45    1.77
   3   6  -5  104.88    1.77
  -3  -6   5  105.71    1.89
  -3  -6   5  108.58    1.64
   3   6  -4   71.29    1.28
   3   6  -4   70.62    1.09
  -3  -6   4   71.86    1.12
  -3  -6   4   71.06    1.14
   3   6  -3   43.77    0.73
   3   6  -3   44.48    0.88
  -3  -6   3   45.06    0.74
  -3  -6   3   45.08    0.78
   3   6  -2   60.99    0.90
   3   6  -2   58.97    0.87
  -3  -6   2   62.40    1.06
  -3  -6   2   61.93    0.94
   3   6  -1   91.35    1.25
   3   6  -1   91.31    1.24
  -3  -6   1   91.39    1.24
  -3  -6   1   91.57    1.27
   3   6   0  436.09    5.90
   3   6   0  448.76    6.19
  -3  -6   0  444.60    6.12
  -3  -6   0  440.75    5.95
   3   6   1  102.97    1.37
   3   6   1  103.36    1.44
  -3  -6  -1  101.40    1.41
  -3  -6  -1  101.80    1.49
   3   6   2  178.20    2.30
   3   6   2  179.89    2.25
  -3  -6  -2  173.62    2.17
  -3  -6  -2  176.85    2.39
   3   6   3   49.21    0.72
   3   6   3   49.51    0.64
  -3  -6  -3   48.77    0.83
  -3  -6  -3   48.56    0.71
   3   6   4  249.74    3.27
   3   6   4  254.09    3.17
  -3  -6  -4  239.74    3.25
  -3  -6  -4  243.12    3.10
   3   6   5   20.88    0.57
   3   6   5   21.32    0.36
  -3  -6  -5   20.14    0.52
  -3  -6  -5   19.75    0.34
   3   6   6   99.44    1.39
   3   6   6  103.45    1.28
  -3  -6  -6   93.37    1.11
  -3  -6  -6   95.82    1.44
   3   6   7   24.58    0.35
   3   6   7   23.68    0.47
   3   6   7   23.95    0.46
  -3  -6  -7   22.49    0.58
  -3  -6  -7   22.23    0.32
   3   6   8   67.17    0.80
   3   6   8   67.84    1.04
   3   6   8   66.92    1.00
   3   6   8   65.00    0.74
  -3  -6  -8   63.62    0.75
   3   6   9    0.39    0.07
   3   6   9    0.49    0.19
   3   6   9    0.59    0.06
   3   6   9    0.34    0.28
   3   6  10    7.02    0.11
   3   6  10    6.93    0.11
   3   6  10    6.88    0.49
   3   6  10    8.12    0.30
   3   6  11   22.29    0.54
   3   6  11   21.81    0.72
   3   6  12   13.19    0.44
   3   6  12   13.88    0.63
   3   6  13    0.29    0.22
   3   6  13    0.03    0.37
   3   6  14    0.05    0.40
   3   6  14    0.30    0.25
   3   6  15    0.00    0.43
   3   6  15    0.44    0.27
   3   7 -10    1.34    0.34
   3   7 -10    1.50    0.31
  -3  -7  10    1.83    0.36
  -3  -7  10    1.70    0.42
   3   7  -9    6.16    0.40
   3   7  -9    6.60    0.42
  -3  -7   9    6.21    0.65
  -3  -7   9    6.70    0.49
   3   7  -8    0.10    0.22
   3   7  -8    0.03    0.23
  -3  -7   8    0.19    0.23
  -3  -7   8   -0.10    0.25
   3   7  -7    0.33    0.38
   3   7  -7    0.30    0.24
  -3  -7   7    0.57    0.26
  -3  -7   7    0.46    0.29
   3   7  -6   15.62    0.68
   3   7  -6   16.15    0.48
  -3  -7   6   15.97    0.49
  -3  -7   6   16.23    0.77
   3   7  -5   42.85    0.80
   3   7  -5   43.27    1.02
  -3  -7   5   42.88    0.82
  -3  -7   5   43.55    0.85
   3   7  -4   19.50    0.48
   3   7  -4   19.08    0.48
  -3  -7   4   19.89    0.49
  -3  -7   4   19.35    0.74
   3   7  -3   48.55    0.83
   3   7  -3   49.21    0.84
  -3  -7   3   50.57    0.85
  -3  -7   3   49.90    0.88
   3   7  -2   17.73    0.42
   3   7  -2   17.81    0.43
  -3  -7   2   17.77    0.42
  -3  -7   2   17.03    0.46
   3   7  -1  103.70    1.64
   3   7  -1  103.52    1.60
  -3  -7   1  101.15    1.57
  -3  -7   1  102.35    1.66
   3   7   0    5.40    0.27
   3   7   0    6.03    0.37
  -3  -7   0    5.52    0.25
  -3  -7   0    5.05    0.28
   3   7   1  116.85    1.61
   3   7   1  117.32    1.57
  -3  -7  -1  114.81    1.54
  -3  -7  -1  116.10    1.59
   3   7   2  294.08    4.17
   3   7   2  291.35    3.86
  -3  -7  -2  287.92    3.85
  -3  -7  -2  287.45    3.79
   3   7   3  301.18    4.06
   3   7   3  309.55    4.05
  -3  -7  -3  301.23    4.21
  -3  -7  -3  296.77    4.05
   3   7   4   15.18    0.38
   3   7   4   15.78    0.40
  -3  -7  -4   15.58    0.51
  -3  -7  -4   14.55    0.36
   3   7   5  101.00    1.59
   3   7   5  101.47    1.39
  -3  -7  -5   96.76    1.50
  -3  -7  -5   96.50    1.31
   3   7   6  109.64    1.38
   3   7   6  109.78    1.55
  -3  -7  -6  103.30    1.43
  -3  -7  -6  100.47    1.36
   3   7   7   20.74    0.38
   3   7   7   20.13    0.46
   3   7   7   19.78    0.43
  -3  -7  -7   19.45    0.42
  -3  -7  -7   18.67    0.35
   3   7   8   59.77    0.93
   3   7   8   61.23    0.76
   3   7   8   60.12    0.96
  -3  -7  -8   58.15    0.90
  -3  -7  -8   56.17    0.68
   3   7   9    0.25    0.09
   3   7   9    0.39    0.19
   3   7   9    0.35    0.09
   3   7   9    0.27    0.27
  -3  -7  -9    0.37    0.09
   3   7  10    1.79    0.11
   3   7  10    1.59    0.22
   3   7  10    1.63    0.23
   3   7  10    1.77    0.10
   3   7  11    0.06    0.07
   3   7  11    0.16    0.19
   3   7  11    0.25    0.18
   3   7  12   -0.03    0.31
   3   7  12    0.17    0.30
   3   7  13    1.49    0.25
   3   7  13   -0.05    0.25
   3   7  14    0.03    0.25
   3   7  14    0.46    0.23
   3   7  15    0.02    0.25
   3   7  15    0.29    0.25
   3   8  -9    0.24    0.44
   3   8  -9    0.13    0.30
  -3  -8   9    0.08    0.42
  -3  -8   9   -0.03    0.50
   3   8  -8   14.31    0.55
   3   8  -8   13.85    0.57
  -3  -8   8   14.11    0.86
  -3  -8   8   16.05    0.64
   3   8  -7   11.75    0.47
   3   8  -7   12.01    0.50
  -3  -8   7   11.66    0.51
  -3  -8   7   12.30    0.55
   3   8  -6    5.48    0.36
   3   8  -6    5.29    0.37
  -3  -8   6    6.11    0.38
  -3  -8   6    5.90    0.41
   3   8  -5   11.96    0.43
   3   8  -5   11.20    0.64
  -3  -8   5   12.76    0.46
  -3  -8   5   12.55    0.74
   3   8  -4    1.65    0.43
   3   8  -4    1.40    0.42
  -3  -8   4    1.30    0.28
  -3  -8   4    1.46    0.30
   3   8  -3   50.35    1.11
   3   8  -3   50.39    0.90
  -3  -8   3   50.68    1.11
  -3  -8   3   49.91    0.93
   3   8  -2    8.57    0.34
   3   8  -2    8.15    0.35
  -3  -8   2    8.33    0.57
  -3  -8   2    8.32    0.52
   3   8  -1   12.19    0.57
   3   8  -1   12.89    0.37
  -3  -8   1   12.54    0.37
  -3  -8   1   12.30    0.60
   3   8   0   10.06    0.36
   3   8   0   10.65    0.34
  -3  -8   0   10.37    0.51
  -3  -8   0   10.34    0.37
   3   8   1  131.16    1.88
   3   8   1  135.78    2.04
  -3  -8  -1  132.93    2.01
  -3  -8  -1  131.24    1.85
   3   8   2  277.21    3.81
   3   8   2  281.81    4.00
  -3  -8  -2  275.39    3.90
  -3  -8  -2  272.02    3.97
   3   8   3   37.29    0.70
   3   8   3   36.80    0.63
  -3  -8  -3   35.75    0.66
  -3  -8  -3   35.64    0.75
   3   8   4   28.02    0.60
   3   8   4   28.48    0.51
  -3  -8  -4   26.05    0.56
  -3  -8  -4   26.98    0.48
   3   8   5  422.23    5.97
   3   8   5  406.09    5.71
  -3  -8  -5  394.38    5.72
  -3  -8  -5  385.03    5.32
   3   8   6    0.33    0.13
   3   8   6    0.47    0.23
  -3  -8  -6    0.38    0.33
  -3  -8  -6    0.41    0.12
   3   8   7   99.44    1.45
   3   8   7  100.31    1.53
  -3  -8  -7   93.24    1.39
  -3  -8  -7   93.10    1.33
   3   8   8   36.59    0.67
   3   8   8   35.88    0.52
   3   8   8   36.22    0.90
  -3  -8  -8   35.17    0.64
  -3  -8  -8   32.87    0.47
   3   8   9    0.16    0.13
   3   8   9    0.12    0.28
   3   8   9    0.19    0.19
  -3  -8  -9    0.19    0.18
  -3  -8  -9    0.16    0.08
   3   8  10    0.09    0.12
   3   8  10    0.03    0.19
   3   8  10    0.24    0.11
   3   8  10    0.25    0.18
   3   8  11    0.08    0.08
   3   8  11   -0.03    0.05
   3   8  11   -0.05    0.15
   3   8  11    0.21    0.27
   3   8  12    8.61    0.40
   3   8  13    0.00    0.42
   3   8  13    0.85    0.24
   3   8  14    0.09    0.36
   3   8  14    0.06    0.20
   3   8  15    0.05    0.21
   3   8  15    0.05    0.23
   3   9  -8    0.99    0.52
   3   9  -8    0.73    0.35
  -3  -9   8    1.12    0.58
  -3  -9   8    0.74    0.68
   3   9  -7   20.11    0.92
   3   9  -7   22.21    0.70
  -3  -9   7   21.26    0.99
  -3  -9   7   22.77    1.09
   3   9  -6   -0.06    0.24
   3   9  -6   -0.06    0.25
  -3  -9   6   -0.24    0.41
  -3  -9   6    0.20    0.28
   3   9  -5   36.05    0.81
   3   9  -5   36.51    0.83
  -3  -9   5   36.16    1.09
  -3  -9   5   38.14    0.89
   3   9  -4   24.49    0.63
   3   9  -4   24.41    0.63
  -3  -9   4   23.98    0.88
  -3  -9   4   24.59    0.66
   3   9  -3    3.35    0.48
   3   9  -3    3.45    0.31
  -3  -9   3    3.25    0.50
  -3  -9   3    3.49    0.35
   3   9  -2    1.32    0.41
   3   9  -2    1.56    0.41
  -3  -9   2    1.50    0.27
  -3  -9   2    1.81    0.28
   3   9  -1   24.11    0.57
   3   9  -1   24.17    0.54
  -3  -9   1   24.54    0.74
  -3  -9   1   23.58    0.57
   3   9   0   92.84    1.42
   3   9   0   94.50    1.42
  -3  -9   0   92.44    1.39
  -3  -9   0   91.14    1.41
   3   9   1   -0.04    0.30
   3   9   1    0.07    0.15
  -3  -9  -1   -0.08    0.26
  -3  -9  -1   -0.11    0.19
   3   9   2    0.03    0.16
   3   9   2   -0.03    0.23
  -3  -9  -2    0.27    0.32
  -3  -9  -2    0.48    0.28
   3   9   3   66.15    1.26
   3   9   3   64.35    0.97
  -3  -9  -3   62.50    0.99
  -3  -9  -3   62.77    1.10
   3   9   4  114.91    1.68
   3   9   4  115.37    1.62
  -3  -9  -4  111.65    1.79
  -3  -9  -4  106.60    1.49
   3   9   5   28.95    0.68
   3   9   5   28.26    0.62
  -3  -9  -5   26.30    0.56
  -3  -9  -5   26.32    0.63
   3   9   6   30.15    0.56
   3   9   6   30.53    0.99
  -3  -9  -6   29.81    0.85
  -3  -9  -6   27.07    0.51
   3   9   7  320.22    4.73
   3   9   7  323.44    5.05
  -3  -9  -7  293.94    4.29
  -3  -9  -7  291.14    4.08
   3   9   8  394.10    5.70
   3   9   8  412.41    6.50
   3   9   8  402.03    6.01
  -3  -9  -8  384.23    5.68
  -3  -9  -8  369.81    5.39
   3   9   9    2.05    0.48
   3   9   9    1.64    0.25
   3   9   9    1.72    0.52
  -3  -9  -9    1.41    0.46
  -3  -9  -9    1.50    0.24
   3   9  10    2.56    0.28
   3   9  10    1.99    0.21
   3   9  10    2.35    0.30
  -3  -9 -10    2.16    0.21
   3   9  11   41.83    0.71
   3   9  11   44.58    0.90
   3   9  11   44.98    1.06
   3   9  12   23.29    0.86
   3   9  13    2.82    0.33
   3   9  14    0.31    0.38
   3   9  14    0.11    0.25
   3  10  -7    3.89    0.75
   3  10  -7    4.60    0.70
  -3 -10   7    4.19    0.85
  -3 -10   7    4.94    0.77
   3  10  -6    9.38    0.82
   3  10  -6    9.85    0.79
  -3 -10   6   10.17    0.85
  -3 -10   6   10.64    0.94
   3  10  -5    1.62    0.35
   3  10  -5    2.19    0.36
  -3 -10   5    1.84    0.62
  -3 -10   5    2.70    0.41
   3  10  -4   10.26    0.47
   3  10  -4    9.50    0.46
  -3 -10   4    9.50    0.77
  -3 -10   4    9.70    0.47
   3  10  -3    1.39    0.30
   3  10  -3    1.03    0.29
  -3 -10   3    0.92    0.29
  -3 -10   3    0.88    0.30
   3  10  -2   13.54    0.49
   3  10  -2   14.44    0.70
  -3 -10   2   14.63    0.51
  -3 -10   2   14.62    0.77
   3  10  -1   43.69    0.85
   3  10  -1   45.79    1.08
  -3 -10   1   43.69    1.11
  -3 -10   1   45.08    1.09
   3  10   0   -0.03    0.28
   3  10   0    0.01    0.16
  -3 -10   0    0.09    0.19
  -3 -10   0   -0.01    0.20
   3  10   1    2.05    0.45
   3  10   1    2.16    0.25
  -3 -10  -1    1.82    0.27
  -3 -10  -1    2.31    0.25
   3  10   2   48.77    0.88
   3  10   2   49.54    1.03
  -3 -10  -2   46.57    1.03
  -3 -10  -2   46.45    0.99
   3  10   3   23.74    0.57
   3  10   3   24.11    0.52
  -3 -10  -3   22.67    0.52
  -3 -10  -3   22.45    0.66
   3  10   4    4.32    0.48
   3  10   4    4.01    0.25
  -3 -10  -4    4.28    0.28
  -3 -10  -4    3.48    0.36
   3  10   5   56.11    1.16
   3  10   5   57.25    1.05
  -3 -10  -5   53.08    1.06
  -3 -10  -5   50.35    0.81
   3  10   6    1.56    0.18
   3  10   6    1.72    0.25
  -3 -10  -6    1.77    0.22
  -3 -10  -6    1.41    0.18
   3  10   7    2.65    0.30
   3  10   7    1.96    0.28
  -3 -10  -7    2.14    0.25
  -3 -10  -7    2.00    0.17
   3  10   8   25.86    0.50
   3  10   8   26.20    0.63
  -3 -10  -8   24.12    0.55
  -3 -10  -8   23.10    0.44
   3  10   9   30.99    0.68
   3  10   9   29.92    0.54
   3  10   9   30.58    0.71
  -3 -10  -9   28.86    0.64
  -3 -10  -9   28.38    0.50
   3  10  10   30.28    0.53
   3  10  10   32.16    0.96
  -3 -10 -10   29.98    0.65
  -3 -10 -10   28.39    0.49
   3  10  11   20.81    0.51
   3  10  11   21.67    0.61
   3  10  11   19.31    0.47
  -3 -10 -11   19.15    0.46
   3  10  12   11.85    0.46
   3  10  13    1.08    0.30
   3  10  14    9.88    0.70
   3  10  14    9.08    0.45
   3  11  -6    6.88    0.55
   3  11  -6    6.69    0.80
  -3 -11   6    6.83    0.54
  -3 -11   6    6.47    0.61
   3  11  -5    1.92    0.40
   3  11  -5    2.05    0.42
  -3 -11   5    2.10    0.42
  -3 -11   5    1.72    0.74
   3  11  -4    1.24    0.36
   3  11  -4    1.24    0.36
  -3 -11   4    1.42    0.37
  -3 -11   4    1.31    0.40
   3  11  -3   -0.01    0.28
   3  11  -3    0.34    0.27
  -3 -11   3    0.37    0.29
  -3 -11   3    0.03    0.51
   3  11  -2    1.00    0.48
   3  11  -2    1.39    0.50
  -3 -11   2    0.86    0.30
  -3 -11   2    0.67    0.31
   3  11  -1    9.51    0.65
   3  11  -1    9.68    0.67
  -3 -11   1    9.25    0.46
  -3 -11   1    9.42    0.67
   3  11   0    0.87    0.46
   3  11   0    0.82    0.28
  -3 -11   0    1.00    0.46
  -3 -11   0    0.85    0.27
   3  11   1   10.50    0.43
   3  11   1   10.72    0.42
  -3 -11  -1   10.53    0.63
  -3 -11  -1   10.72    0.62
   3  11   2    0.66    0.25
   3  11   2    0.26    0.38
  -3 -11  -2    0.59    0.38
  -3 -11  -2    0.64    0.41
   3  11   3   13.61    0.46
   3  11   3   13.69    0.43
  -3 -11  -3   13.14    0.41
  -3 -11  -3   12.47    0.43
   3  11   4    2.12    0.29
   3  11   4    2.52    0.41
  -3 -11  -4    1.99    0.26
  -3 -11  -4    1.67    0.24
   3  11   5    2.20    0.25
   3  11   5    2.16    0.30
  -3 -11  -5    1.72    0.22
  -3 -11  -5    2.15    0.41
   3  11   6   26.43    0.71
   3  11   6   25.93    0.61
  -3 -11  -6   23.82    0.54
  -3 -11  -6   22.84    0.63
   3  11   7    0.28    0.17
   3  11   7    0.29    0.23
  -3 -11  -7    0.41    0.32
  -3 -11  -7    0.20    0.15
   3  11   8   14.48    0.51
   3  11   8   14.98    0.47
  -3 -11  -8   13.05    0.41
  -3 -11  -8   13.42    0.46
   3  11   9   -0.05    0.20
   3  11   9    0.02    0.19
  -3 -11  -9    0.11    0.18
  -3 -11  -9    0.01    0.20
   3  11  10   -0.02    0.22
   3  11  10    0.18    0.14
  -3 -11 -10    0.13    0.19
  -3 -11 -10    0.01    0.19
   3  11  11    0.65    0.25
   3  11  11    1.30    0.17
   3  11  11    1.40    0.48
  -3 -11 -11    0.87    0.24
   3  11  12   40.30    0.92
   3  11  13    2.30    0.56
   3  12  -4   36.97    1.03
   3  12  -4   37.49    1.04
  -3 -12   4   36.92    1.41
  -3 -12   4   36.57    1.02
   3  12  -3    6.22    0.52
   3  12  -3    6.11    0.50
  -3 -12   3    6.89    0.53
  -3 -12   3    6.78    0.52
   3  12  -2    1.82    0.63
   3  12  -2    1.88    0.35
  -3 -12   2    1.89    0.63
  -3 -12   2    1.66    0.38
   3  12  -1    5.29    0.41
   3  12  -1    4.93    0.42
  -3 -12   1    5.59    0.66
  -3 -12   1    4.28    0.68
   3  12   0    1.61    0.34
   3  12   0    2.80    0.35
  -3 -12   0    1.61    0.34
  -3 -12   0    1.92    0.34
   3  12   1    5.90    0.41
   3  12   1    6.69    0.62
  -3 -12  -1    5.59    0.39
  -3 -12  -1    6.45    0.59
   3  12   2   22.75    0.62
   3  12   2   21.65    0.63
  -3 -12  -2   20.19    0.57
  -3 -12  -2   19.85    0.57
   3  12   3    2.29    0.32
   3  12   3    2.26    0.31
  -3 -12  -3    1.94    0.30
  -3 -12  -3    2.43    0.29
   3  12   4    9.57    0.45
   3  12   4   10.23    0.41
  -3 -12  -4    8.75    0.40
  -3 -12  -4    8.94    0.38
   3  12   5    5.04    0.33
   3  12   5    5.37    0.37
  -3 -12  -5    4.82    0.52
  -3 -12  -5    4.96    0.30
   3  12   6   35.10    0.74
   3  12   6   37.68    0.80
  -3 -12  -6   31.53    0.65
  -3 -12  -6   32.00    0.68
   3  12   7    1.88    0.41
   3  12   7    2.20    0.31
  -3 -12  -7    1.89    0.26
  -3 -12  -7    1.66    0.23
   3  12   8    0.24    0.19
   3  12   8    0.13    0.40
  -3 -12  -8    0.19    0.30
  -3 -12  -8   -0.02    0.25
   3  12   9    3.21    0.25
   3  12   9   -0.01    0.52
  -3 -12  -9    3.09    0.28
  -3 -12  -9    3.00    0.23
   3  12  10    2.22    0.34
   3  12  10    2.24    0.31
  -3 -12 -10    1.31    0.41
  -3 -12 -10    1.55    0.19
   3  12  11    0.71    0.27
   3  12  11    0.37    0.15
   3  12  11    0.00    0.26
  -3 -12 -11    0.32    0.14
   3  12  12    6.08    0.63
   3  13  -2   30.29    0.90
   3  13  -2   29.63    0.88
  -3 -13   2   27.81    0.88
  -3 -13   2   29.00    0.88
   3  13  -1   29.98    0.87
   3  13  -1   28.00    0.81
  -3 -13   1   26.71    0.83
  -3 -13   1   27.42    1.13
   3  13   0   14.95    0.62
   3  13   0   15.98    0.95
  -3 -13   0   13.37    0.88
  -3 -13   0   14.15    0.60
   3  13   1    0.18    0.27
   3  13   1    0.09    0.30
  -3 -13  -1   -0.06    0.42
  -3 -13  -1    0.16    0.43
   3  13   2   34.29    0.85
   3  13   2   34.80    0.85
  -3 -13  -2   31.51    0.79
  -3 -13  -2   31.43    0.78
   3  13   3    0.00    0.25
   3  13   3    0.22    0.41
  -3 -13  -3    0.12    0.25
  -3 -13  -3    0.03    0.41
   3  13   4   -0.03    0.31
   3  13   4    0.87    0.29
  -3 -13  -4    0.58    0.46
  -3 -13  -4    0.00    0.42
   3  13   5   86.67    1.83
   3  13   5   85.82    1.79
  -3 -13  -5   77.16    1.61
  -3 -13  -5   74.82    1.58
   3  13   6    1.46    0.30
   3  13   6    0.03    0.57
  -3 -13  -6    1.21    0.27
  -3 -13  -6    0.00    0.41
   3  13   7   22.40    0.62
   3  13   7   23.26    0.95
  -3 -13  -7   20.65    0.57
  -3 -13  -7   20.12    0.75
   3  13   8   13.69    0.68
   3  13   8   14.10    0.55
  -3 -13  -8   12.76    0.66
  -3 -13  -8   11.29    0.40
   3  13   9    3.32    0.46
   3  13   9    3.88    0.36
  -3 -13  -9    3.41    0.49
  -3 -13  -9    2.85    0.25
   3  13  10    5.81    0.32
   3  13  10    6.45    0.41
  -3 -13 -10    6.20    0.35
  -3 -13 -10    6.23    0.44
   3  14   2   10.65    0.55
   3  14   2   12.58    0.90
  -3 -14  -2   10.96    0.81
  -3 -14  -2   10.40    0.56
   3  14   3    7.18    0.46
   3  14   3    6.89    0.48
  -3 -14  -3    7.32    0.69
  -3 -14  -3    6.79    0.72
   3  14   4    0.00    0.45
   3  14   4   -0.22    0.45
  -3 -14  -4    0.04    0.36
  -3 -14  -4    0.01    0.22
   3  14   5    5.23    0.65
   3  14   5    5.28    0.41
  -3 -14  -5    4.31    0.57
  -3 -14  -5    4.34    0.36
   3  14   6    1.77    0.48
   3  14   6    0.03    0.30
  -3 -14  -6    1.55    0.27
  -3 -14  -6    0.00    0.28
   3  14   7    0.99    0.45
   3  14   7   -0.01    0.29
  -3 -14  -7    1.39    0.27
  -3 -14  -7    0.00    0.27
   3  14   8   36.27    0.85
   3  14   8   37.59    0.91
  -3 -14  -8   32.03    0.75
  -3 -14  -8   29.98    0.71
   4 -10  -7    1.00    0.34
  -4  10   7    0.61    0.63
  -4  10   7    0.87    0.35
   4 -10  -6    9.53    0.53
  -4  10   6   10.16    0.55
  -4  10   6   10.60    0.59
   4 -10  -5    0.07    0.27
  -4  10   5   -0.04    0.49
  -4  10   5    0.07    0.27
   4 -10  -4   -0.03    0.45
  -4  10   4   -0.18    0.31
  -4  10   4   -0.08    0.29
   4 -10  -3    1.28    0.35
  -4  10   3    0.81    0.60
   4 -10  -2    1.50    0.37
  -4  10   2    1.46    0.40
   4 -10  -1   36.42    1.23
  -4  10   1   38.00    0.96
   4 -10   0    1.66    0.37
  -4  10   0    1.28    0.38
   4 -10   1   -0.08    0.43
  -4  10  -1    0.08    0.30
  -4   9   9    6.25    0.78
  -4   9   9    6.10    0.51
  -4   9   8    8.04    0.51
  -4   9   8    9.10    0.53
   4  -9  -7    0.34    0.28
  -4   9   7    0.19    0.30
  -4   9   7    0.25    0.29
   4  -9  -6    0.00    0.20
  -4   9   6    0.01    0.23
  -4   9   6    0.02    0.41
   4  -9  -5    1.67    0.33
  -4   9   5    1.81    0.36
  -4   9   5    1.93    0.35
   4  -9  -4    4.66    0.63
  -4   9   4    4.50    0.40
  -4   9   4    0.79    0.35
   4  -9  -3    2.48    0.34
  -4   9   3    2.25    0.59
   4  -9  -2   12.33    0.52
  -4   9   2   12.93    0.55
   4  -9  -1    6.64    0.65
  -4   9   1    7.37    0.46
   4  -9   0    0.19    0.19
   4  -9   0    0.03    0.25
  -4   9   0    0.12    0.27
  -4   9   0    0.19    0.11
   4  -9   1   13.41    0.35
   4  -9   1   14.79    0.53
  -4   9  -1   14.47    0.55
  -4   9  -1   13.15    0.33
   4  -9   2   25.23    0.54
   4  -9   2   26.28    0.70
  -4   9  -2   27.74    0.75
  -4   9  -2   23.70    0.51
   4  -9   3    3.96    0.28
   4  -9   3    4.11    0.58
  -4   9  -3    3.79    0.39
  -4   9  -3    4.05    0.38
   4  -9   4    5.51    0.52
   4  -9   4    5.39    0.38
  -4   9  -4    5.24    0.41
  -4   9  -4    5.35    0.46
  -4   8  10    4.89    0.46
  -4   8  10    4.99    0.70
  -4   8   9   21.54    1.05
  -4   8   9   20.13    0.72
  -4   8   8    4.02    0.65
  -4   8   8    2.48    0.67
  -4   8   7    1.28    0.35
  -4   8   7    1.27    0.53
   4  -8  -6    0.11    0.41
  -4   8   6    0.24    0.41
  -4   8   6   -0.08    0.42
   4  -8  -5    0.02    0.35
  -4   8   5   -0.19    0.25
  -4   8   5    0.04    0.40
   4  -8  -4    0.51    0.27
  -4   8   4    0.35    0.26
  -4   8   4    0.51    0.45
   4  -8  -3    6.99    0.39
  -4   8   3    7.47    0.42
   4  -8  -2    2.58    0.31
  -4   8   2    3.14    0.34
   4  -8  -1   10.69    0.30
   4  -8  -1   10.58    0.65
  -4   8   1   11.37    0.46
  -4   8   1   10.34    0.22
   4  -8   0   23.90    0.52
   4  -8   0   25.12    0.63
  -4   8   0   27.46    0.68
  -4   8   0   23.64    0.41
   4  -8   1    3.15    0.19
   4  -8   1    3.14    0.32
  -4   8  -1    3.06    0.35
  -4   8  -1    2.81    0.18
   4  -8   2   17.65    0.54
   4  -8   2   18.63    0.55
  -4   8  -2   19.38    0.56
  -4   8  -2   16.74    0.38
   4  -8   3    0.02    0.25
   4  -8   3    0.08    0.20
  -4   8  -3   -0.12    0.23
  -4   8  -3   -0.04    0.23
   4  -8   4   19.94    0.52
   4  -8   4   20.27    0.57
  -4   8  -4   19.98    0.65
  -4   8  -4   21.37    0.59
   4  -8   5   23.04    0.79
   4  -8   5   23.02    0.84
  -4   8  -5   23.65    0.87
  -4   8  -5   22.30    0.57
   4  -8   6    8.90    0.43
   4  -8   6    9.04    0.63
  -4   8  -6    9.94    0.65
  -4   8  -6    9.07    0.59
  -4   7  11    0.12    0.27
  -4   7  11    0.25    0.45
  -4   7  10   10.88    0.52
  -4   7  10   11.08    0.54
  -4   7   9   61.95    1.29
  -4   7   9   61.12    1.27
  -4   7   8    7.35    0.47
  -4   7   8    7.10    0.47
  -4   7   7    1.78    0.35
  -4   7   7    1.57    0.58
   4  -7  -6  123.15    2.05
  -4   7   6  125.71    2.13
  -4   7   6  124.15    2.09
   4  -7  -5    6.22    0.40
  -4   7   5    6.99    0.42
  -4   7   5    7.18    0.68
   4  -7  -4   46.58    0.91
  -4   7   4   47.22    0.93
  -4   7   4   46.64    0.94
   4  -7  -3   14.19    0.46
   4  -7  -3   12.40    0.17
  -4   7   3   15.08    0.49
  -4   7   3   11.88    0.17
   4  -7  -2    6.79    0.18
   4  -7  -2    7.13    0.55
  -4   7   2    7.38    0.38
  -4   7   2    6.75    0.14
   4  -7  -1    7.13    0.24
   4  -7  -1    8.27    0.54
  -4   7   1    7.78    0.37
  -4   7   1    7.04    0.22
   4  -7   0   13.23    0.35
   4  -7   0   14.06    0.43
  -4   7   0   14.10    0.45
  -4   7   0   13.18    0.25
   4  -7   1   32.12    0.63
   4  -7   1   33.88    0.69
  -4   7  -1   34.13    0.71
  -4   7  -1   31.00    0.51
   4  -7   2   11.36    0.30
   4  -7   2   11.54    0.61
  -4   7  -2   11.59    0.42
  -4   7  -2   10.61    0.28
   4  -7   3   51.16    0.85
   4  -7   3   53.82    0.97
  -4   7  -3   54.39    0.98
  -4   7  -3   50.34    0.95
   4  -7   4    1.50    0.35
   4  -7   4    1.55    0.26
  -4   7  -4    1.77    0.42
  -4   7  -4    1.01    0.33
   4  -7   5   35.91    0.95
   4  -7   5   34.33    0.71
  -4   7  -5   35.54    0.74
  -4   7  -5   34.05    0.69
   4  -7   6    8.10    0.38
   4  -7   6    8.14    0.40
  -4   7  -6    8.81    0.39
  -4   7  -6    7.82    0.56
   4  -7   7   19.56    0.54
   4  -7   7   19.73    0.84
  -4   7  -7   20.38    0.75
  -4   7  -7   19.10    0.55
   4  -7   8    1.86    0.26
   4  -7   8    1.56    0.55
  -4   7  -8    1.65    0.25
  -4   7  -8    1.61    0.30
  -4   6  12    1.45    0.32
  -4   6  12    1.69    0.33
  -4   6  11    0.19    0.25
  -4   6  11    0.25    0.25
  -4   6  10    3.34    0.36
  -4   6  10    3.76    0.57
  -4   6   9    6.96    0.41
  -4   6   9    6.24    0.63
  -4   6   8   24.17    0.64
  -4   6   8   23.34    0.63
  -4   6   7    7.54    0.64
  -4   6   7    7.23    0.41
  -4   6   6  103.35    1.99
  -4   6   6  106.00    2.01
   4  -6  -5    5.98    0.58
  -4   6   5    5.94    0.40
  -4   6   5    6.09    0.58
   4  -6  -4   17.06    0.78
  -4   6   4   17.00    0.55
  -4   6   4   16.58    0.79
   4  -6  -3  387.37    6.01
  -4   6   3  379.67    5.55
  -4   6   3  391.86    6.11
   4  -6  -2    0.59    0.25
   4  -6  -2    0.58    0.08
  -4   6   2    0.74    0.08
  -4   6   2    0.55    0.42
   4  -6  -1   42.23    0.61
   4  -6  -1   44.07    0.80
  -4   6   1   44.98    1.04
  -4   6   1   42.62    0.55
   4  -6   0   99.54    1.37
   4  -6   0  106.47    1.60
  -4   6   0  102.26    1.39
  -4   6   0  108.05    1.84
   4  -6   1    6.97    0.20
   4  -6   1    7.79    0.49
  -4   6  -1    7.55    0.50
  -4   6  -1    7.18    0.27
   4  -6   2  111.46    1.66
   4  -6   2  115.36    1.71
  -4   6  -2  116.64    1.77
  -4   6  -2  113.35    1.67
   4  -6   3   31.84    0.70
   4  -6   3   33.88    0.66
  -4   6  -3   34.64    0.66
  -4   6  -3   32.66    0.68
   4  -6   4   91.16    1.39
   4  -6   4   94.89    1.64
  -4   6  -4   95.95    1.68
  -4   6  -4   92.38    1.39
   4  -6   5   16.07    0.43
   4  -6   5   15.54    0.60
  -4   6  -5   16.47    0.44
  -4   6  -5   15.22    0.41
   4  -6   6   38.12    0.74
   4  -6   6   36.20    0.74
  -4   6  -6   38.03    0.91
  -4   6  -6   37.01    0.92
   4  -6   7   13.78    0.41
   4  -6   7   13.83    0.49
  -4   6  -7   13.18    0.46
  -4   6  -7   14.54    0.42
   4  -6   8   15.00    0.59
   4  -6   8   15.57    0.55
  -4   6  -8   14.53    0.51
  -4   6  -8   15.02    0.60
   4  -6   9    3.90    0.41
   4  -6   9    3.82    0.41
  -4   6  -9    3.48    0.27
  -4   6  -9    3.35    0.59
  -4   5  12    6.70    0.43
  -4   5  12    7.12    0.42
  -4   5  11    4.15    0.35
  -4   5  11    3.96    0.35
  -4   5  10    0.00    0.20
  -4   5  10    0.14    0.22
  -4   5   9    1.75    0.28
  -4   5   9    1.25    0.29
  -4   5   8   14.47    0.46
  -4   5   8   16.03    0.49
  -4   5   7    0.12    0.33
  -4   5   7    0.03    0.33
  -4   5   6   19.53    0.70
  -4   5   6   20.12    0.52
  -4   5   5    0.05    0.31
  -4   5   5    0.13    0.30
   4  -5  -4   16.65    0.62
  -4   5   4   16.33    0.46
  -4   5   4   16.51    0.64
   4  -5  -3   25.20    0.55
  -4   5   3   24.82    0.55
  -4   5   3   24.85    0.56
   4  -5  -2   53.71    1.06
   4  -5  -2   52.35    0.57
  -4   5   2   54.99    0.92
  -4   5   2   54.58    0.58
   4  -5  -1    7.29    0.18
   4  -5  -1    7.00    0.47
  -4   5   1    7.19    0.17
  -4   5   1    7.56    0.32
   4  -5   0   46.25    0.60
   4  -5   0   49.14    0.97
  -4   5   0   48.79    0.81
  -4   5   0   48.00    0.67
   4  -5   1   20.17    0.34
   4  -5   1   21.77    0.46
  -4   5  -1   22.27    0.63
  -4   5  -1   21.06    0.33
   4  -5   2    0.63    0.12
   4  -5   2    0.62    0.19
  -4   5  -2    0.48    0.19
  -4   5  -2    0.52    0.11
   4  -5   3   69.71    1.01
   4  -5   3   73.45    1.12
  -4   5  -3   73.19    1.11
  -4   5  -3   72.01    1.03
   4  -5   4   36.12    0.77
   4  -5   4   38.56    0.82
  -4   5  -4   38.23    0.67
  -4   5  -4   37.79    0.63
   4  -5   5   54.33    0.89
   4  -5   5   51.72    0.87
  -4   5  -5   55.54    1.06
  -4   5  -5   54.34    1.03
   4  -5   6    8.80    0.34
   4  -5   6    8.54    0.30
  -4   5  -6    9.63    0.30
  -4   5  -6    8.76    0.33
   4  -5   7   57.06    1.01
   4  -5   7   57.73    1.12
  -4   5  -7   58.42    1.04
  -4   5  -7   59.79    1.13
   4  -5   8   13.71    0.48
   4  -5   8   13.84    0.52
  -4   5  -8   14.08    0.68
  -4   5  -8   15.27    0.54
   4  -5   9   16.61    0.57
   4  -5   9   18.98    0.61
  -4   5  -9   18.55    0.45
  -4   5  -9   18.95    0.59
   4  -5  10    6.59    0.41
   4  -5  10    7.34    0.47
  -4   5 -10    6.59    0.29
  -4   5 -10    7.66    0.46
  -4   4  13    0.39    0.27
  -4   4  12    0.79    0.28
  -4   4  11    0.11    0.22
  -4   4  10    3.30    0.31
  -4   4   9    6.76    0.36
  -4   4   9    7.70    0.56
  -4   4   8   23.06    0.57
  -4   4   8   24.31    0.58
  -4   4   7    2.11    0.25
  -4   4   7    1.83    0.25
  -4   4   6   11.83    0.55
  -4   4   6   12.23    0.55
  -4   4   5    1.05    0.33
  -4   4   5    0.79    0.21
   4  -4  -4    0.03    0.14
  -4   4   4    0.15    0.26
  -4   4   4    0.04    0.16
   4  -4  -3    0.62    0.18
  -4   4   3    0.90    0.31
  -4   4   3    0.76    0.19
   4  -4  -2   23.66    0.47
  -4   4   2   23.43    0.48
  -4   4   2   23.34    0.47
   4  -4  -1   28.27    0.52
   4  -4  -1   27.47    0.35
  -4   4   1   28.68    0.69
  -4   4   1   28.48    0.35
   4  -4   0  116.96    1.39
   4  -4   0  120.79    1.66
  -4   4   0  119.32    1.83
  -4   4   0  121.88    1.50
   4  -4   1    0.75    0.09
   4  -4   1    0.74    0.16
  -4   4  -1    0.60    0.16
  -4   4  -1    0.67    0.14
   4  -4   2   22.56    0.44
   4  -4   2   23.78    0.56
  -4   4  -2   23.91    0.58
  -4   4  -2   23.55    0.37
   4  -4   3   14.21    0.30
   4  -4   3   15.27    0.46
  -4   4  -3   14.74    0.34
  -4   4  -3   14.43    0.29
   4  -4   4   17.32    0.46
   4  -4   4   18.22    0.37
  -4   4  -4   17.81    0.38
  -4   4  -4   17.63    0.36
   4  -4   5    5.41    0.25
   4  -4   5    5.87    0.34
  -4   4  -5    5.73    0.23
  -4   4  -5    6.02    0.24
   4  -4   6    1.46    0.19
   4  -4   6    0.53    0.15
  -4   4  -6    0.60    0.24
  -4   4  -6    0.68    0.18
   4  -4   7    3.25    0.26
   4  -4   7    3.10    0.30
  -4   4  -7    3.41    0.41
  -4   4  -7    3.34    0.30
   4  -4   8    4.21    0.32
   4  -4   8    4.33    0.31
  -4   4  -8    4.03    0.30
  -4   4  -8    4.32    0.32
   4  -4   9    0.73    0.45
   4  -4   9    0.62    0.25
  -4   4  -9    0.59    0.15
  -4   4  -9    0.74    0.26
   4  -4  10    8.10    0.38
   4  -4  10    7.96    0.48
  -4   4 -10    7.82    0.27
  -4   4 -10    9.05    0.69
   4  -4  11    8.21    0.52
  -4   4 -11    8.04    0.49
  -4   3  13    0.03    0.35
  -4   3  12    1.17    0.28
  -4   3  11    1.03    0.26
  -4   3  10   -0.03    0.18
  -4   3  10    0.00    0.19
  -4   3   9    0.57    0.07
  -4   3   9    0.64    0.07
  -4   3   9    0.61    0.24
  -4   3   9    0.68    0.24
  -4   3   8    4.52    0.30
  -4   3   8    4.34    0.30
  -4   3   7    0.15    0.19
  -4   3   7    0.08    0.18
  -4   3   6   38.35    0.70
  -4   3   6   39.57    0.90
  -4   3   5   48.12    0.80
  -4   3   5   47.52    0.79
  -4   3   4   63.52    0.96
  -4   3   4   63.31    1.11
  -4   3   3    0.35    0.25
  -4   3   3    0.33    0.26
   4  -3  -2    1.39    0.16
  -4   3   2    1.23    0.17
  -4   3   2    0.98    0.27
   4  -3  -1   36.54    0.41
   4  -3  -1   37.80    0.59
  -4   3   1   37.10    0.59
  -4   3   1   36.54    0.71
   4  -3   0   28.45    0.47
   4  -3   0   27.31    0.33
  -4   3   0   29.13    0.38
  -4   3   0   28.13    0.48
   4  -3   1   17.68    0.26
   4  -3   1   18.05    0.35
  -4   3  -1   17.33    0.46
  -4   3  -1   18.11    0.26
   4  -3   2   22.02    0.34
   4  -3   2   23.44    0.41
  -4   3  -2   23.29    0.41
  -4   3  -2   23.38    0.35
   4  -3   3   57.06    0.86
   4  -3   3   58.97    0.83
  -4   3  -3   59.29    0.84
  -4   3  -3   59.06    0.79
   4  -3   4    2.45    0.25
   4  -3   4    2.04    0.24
  -4   3  -4    1.88    0.24
  -4   3  -4    2.10    0.15
   4  -3   5    5.55    0.33
   4  -3   5    5.21    0.19
  -4   3  -5    5.06    0.19
  -4   3  -5    5.44    0.33
   4  -3   6    6.71    0.39
   4  -3   6    5.16    0.19
  -4   3  -6    4.67    0.19
  -4   3  -6    4.55    0.24
   4  -3   7    4.17    0.26
   4  -3   7    4.12    0.41
  -4   3  -7    3.74    0.25
  -4   3  -7    3.84    0.25
   4  -3   8    0.39    0.19
   4  -3   8    0.54    0.22
  -4   3  -8    0.37    0.21
  -4   3  -8    0.68    0.19
   4  -3   9    2.82    0.30
   4  -3   9    2.19    0.25
  -4   3  -9    2.25    0.46
  -4   3  -9    2.80    0.25
   4  -3  10    0.17    0.18
   4  -3  10    0.02    0.41
  -4   3 -10    0.07    0.17
  -4   3 -10    0.08    0.23
   4  -3  11    0.22    0.28
  -4   3 -11    0.07    0.25
   4  -3  12    0.52    0.33
  -4   3 -12    0.49    0.32
  -4   2  13   -0.01    0.34
  -4   2  12    0.12    0.37
  -4   2  11    1.94    0.46
   4  -2 -10    5.13    0.21
  -4   2  10    5.84    0.52
  -4   2  10    5.38    0.21
  -4   2  10    6.48    0.54
  -4   2  10    5.65    0.24
   4  -2  -9   24.74    0.41
  -4   2   9   26.69    0.62
  -4   2   9   25.77    0.43
  -4   2   9   27.64    0.85
  -4   2   8   23.28    0.74
  -4   2   8   22.32    0.35
  -4   2   8   22.81    0.75
  -4   2   7    8.54    0.48
  -4   2   7    8.34    0.50
  -4   2   6   44.57    0.95
  -4   2   6   44.48    0.76
  -4   2   5   37.44    0.65
  -4   2   5   37.30    0.66
  -4   2   4   16.44    0.53
  -4   2   4   16.25    0.38
  -4   2   3   29.16    0.51
  -4   2   3   29.24    0.66
  -4   2   2  379.14    5.11
  -4   2   2  379.20    5.10
   4  -2  -1   42.80    0.63
   4  -2  -1   41.16    0.42
  -4   2   1   41.64    0.74
  -4   2   1   42.44    0.74
   4  -2   0   24.88    0.52
   4  -2   0   23.73    0.28
   4  -2   0   23.19    0.30
  -4   2   0   25.48    0.30
  -4   2   0   23.32    0.41
  -4   2   0   24.08    0.52
   4  -2   1   24.20    0.49
   4  -2   1   23.38    0.35
  -4   2  -1   23.80    0.51
  -4   2  -1   24.60    0.36
   4  -2   2   84.65    1.05
   4  -2   2   88.33    1.14
  -4   2  -2   88.48    1.09
  -4   2  -2   87.41    1.25
   4  -2   3    0.48    0.10
   4  -2   3    1.39    0.11
  -4   2  -3    0.35    0.16
  -4   2  -3    0.21    0.09
   4  -2   4    0.19    0.10
   4  -2   4    0.01    0.14
  -4   2  -4    0.15    0.09
  -4   2  -4    0.06    0.09
   4  -2   5    0.09    0.12
   4  -2   5    0.00    0.14
  -4   2  -5    0.00    0.12
  -4   2  -5   -0.02    0.16
   4  -2   6   15.47    0.50
   4  -2   6   15.08    0.28
  -4   2  -6   15.35    0.28
  -4   2  -6   15.02    0.48
   4  -2   7    1.18    0.20
   4  -2   7    1.35    0.11
  -4   2  -7    1.71    0.19
  -4   2  -7    1.44    0.20
   4  -2   8    0.46    0.10
   4  -2   8    0.43    0.20
  -4   2  -8    0.48    0.20
  -4   2  -8    0.50    0.16
   4  -2   9   32.89    0.59
   4  -2   9   35.28    0.95
  -4   2  -9   35.76    0.74
  -4   2  -9   33.61    0.51
   4  -2  10    3.24    0.34
   4  -2  10    2.80    0.21
  -4   2 -10    3.37    0.52
  -4   2 -10    3.09    0.21
   4  -2  11    0.44    0.49
  -4   2 -11    0.47    0.29
   4  -2  12    0.81    0.35
  -4   2 -12    1.04    0.34
   4  -2  13    1.18    0.64
  -4   2 -13    0.82    0.56
  -4   1  13    8.15    0.45
   4  -1 -12   -0.09    0.17
   4  -1 -12    0.07    0.15
  -4   1  12    0.03    0.10
  -4   1  12    0.07    0.19
  -4   1  12   -0.01    0.12
   4  -1 -11   -0.08    0.15
   4  -1 -11    0.25    0.19
  -4   1  11    0.04    0.11
  -4   1  11    0.07    0.20
   4  -1 -10   10.21    0.40
   4  -1 -10    9.14    0.22
  -4   1  10   10.14    0.42
  -4   1  10    9.85    0.34
  -4   1  10   11.02    0.41
   4  -1  -9    1.06    0.25
   4  -1  -9    1.09    0.16
  -4   1   9    1.07    0.18
  -4   1   9    1.02    0.25
  -4   1   9    1.80    0.25
   4  -1  -8    0.02    0.31
   4  -1  -8    0.13    0.10
  -4   1   8    0.15    0.19
  -4   1   8    0.16    0.13
  -4   1   8    0.32    0.32
   4  -1  -7    8.48    0.48
   4  -1  -7    6.95    0.18
  -4   1   7    7.18    0.20
  -4   1   7    7.68    0.33
  -4   1   7    8.02    0.48
   4  -1  -6   26.59    0.53
  -4   1   6   26.60    0.37
  -4   1   6   27.20    0.54
  -4   1   6   27.11    0.54
   4  -1  -5    0.14    0.13
   4  -1  -5    0.01    0.03
  -4   1   5    0.02    0.14
  -4   1   5   -0.03    0.14
  -4   1   5    0.02    0.04
   4  -1  -4    0.05    0.14
  -4   1   4    0.05    0.14
  -4   1   4    0.14    0.22
  -4   1   3  136.16    1.81
  -4   1   3  134.97    1.80
  -4   1   2    0.43    0.14
  -4   1   2    0.68    0.14
   4  -1  -1    1.60    0.05
  -4   1   1    1.53    0.21
  -4   1   1    1.57    0.14
   4  -1   0  177.21    2.01
   4  -1   0  175.08    1.99
  -4   1   0  173.00    2.28
  -4   1   0  173.41    2.27
   4  -1   1   20.05    0.30
   4  -1   1   20.05    0.31
   4  -1   1   20.86    0.33
  -4   1  -1   20.26    0.33
  -4   1  -1   19.99    0.33
   4  -1   2  191.95    2.37
   4  -1   2  192.38    2.43
   4  -1   2  199.95    2.51
  -4   1  -2  192.18    2.46
  -4   1  -2  197.95    2.56
  -4   1  -2  200.12    2.46
   4  -1   3    2.39    0.12
   4  -1   3    2.32    0.12
  -4   1  -3    2.40    0.12
  -4   1  -3    2.46    0.13
   4  -1   4   70.79    1.03
   4  -1   4   74.94    0.93
  -4   1  -4   73.47    0.99
  -4   1  -4   73.43    0.97
   4  -1   5    0.46    0.13
   4  -1   5    0.35    0.08
  -4   1  -5    0.52    0.14
  -4   1  -5    0.61    0.13
   4  -1   6   20.12    0.52
   4  -1   6   20.66    0.30
  -4   1  -6   20.21    0.36
  -4   1  -6   20.48    0.41
   4  -1   7   10.56    0.32
   4  -1   7   10.23    0.25
  -4   1  -7   10.37    0.25
  -4   1  -7   10.66    0.46
   4  -1   8    3.74    0.40
   4  -1   8    3.19    0.16
  -4   1  -8    4.11    0.17
  -4   1  -8    3.46    0.25
   4  -1   9    1.31    0.25
   4  -1   9    1.16    0.14
  -4   1  -9    1.17    0.14
  -4   1  -9    1.52    0.25
   4  -1  10    0.36    0.36
   4  -1  10    0.08    0.10
  -4   1 -10   -0.03    0.09
  -4   1 -10   -0.09    0.20
   4  -1  11   25.54    0.71
  -4   1 -11   24.21    0.92
   4  -1  12   18.03    0.66
  -4   1 -12   17.10    0.63
   4  -1  13   -0.11    0.32
  -4   1 -13    0.25    0.31
   4   0 -13    1.61    0.47
   4   0 -13    1.79    0.20
  -4   0  13    1.61    0.34
  -4   0  13    2.10    0.36
   4   0 -12    0.84    0.25
   4   0 -12    0.66    0.25
  -4   0  12    0.63    0.26
  -4   0  12    0.40    0.28
   4   0 -11   -0.05    0.19
   4   0 -11   -0.05    0.18
  -4   0  11   -0.03    0.32
  -4   0  11   -0.04    0.13
   4   0 -10    1.17    0.21
   4   0 -10    1.02    0.39
  -4   0  10    1.11    0.40
  -4   0  10    1.07    0.41
  -4   0  10    1.11    0.25
   4   0  -9   15.46    0.44
   4   0  -9   13.61    0.28
  -4   0   9   15.88    0.46
  -4   0   9   15.64    0.43
  -4   0   9   16.39    0.67
   4   0  -8    7.44    0.19
   4   0  -8    7.96    0.33
  -4   0   8    8.11    0.34
  -4   0   8    7.40    0.33
  -4   0   8    7.75    0.20
   4   0  -7   41.67    0.56
   4   0  -7   46.40    0.80
  -4   0   7   46.32    0.80
  -4   0   7   46.68    0.79
  -4   0   7   44.87    0.62
   4   0  -6   40.82    0.57
   4   0  -6   42.47    0.71
  -4   0   6   42.53    0.73
  -4   0   6   43.57    0.57
  -4   0   6   43.59    0.74
   4   0  -5    2.31    0.20
   4   0  -5    2.31    0.08
  -4   0   5    2.50    0.20
  -4   0   5    2.49    0.14
  -4   0   5    2.26    0.20
   4   0  -4    0.23    0.07
   4   0  -4    0.27    0.14
  -4   0   4    0.29    0.14
  -4   0   4    0.22    0.08
  -4   0   4    0.19    0.14
   4   0  -3   67.99    0.74
  -4   0   3  169.03    2.34
  -4   0   3  180.83    2.06
  -4   0   3  170.06    2.23
   4   0  -2    2.05    0.06
  -4   0   2    8.33    0.22
  -4   0   2    8.76    0.14
  -4   0   2    8.41    0.22
   4   0  -1   34.30    0.39
   4   0  -1   35.16    0.50
   4   0  -1   34.41    0.41
  -4   0   1   35.70    0.41
  -4   0   1   33.41    0.48
  -4   0   1   33.80    0.48
   4   0   0    0.11    0.07
  -4   0   0    0.04    0.08
  -4   0   0    0.19    0.14
   4   0   1   92.28    1.11
   4   0   1   91.36    1.08
  -4   0  -1   86.90    1.06
  -4   0  -1   91.63    1.18
   4   0   2  189.66    2.30
   4   0   2  186.17    2.26
  -4   0  -2  190.70    2.39
  -4   0  -2  192.38    2.41
   4   0   3  137.99    1.69
   4   0   3  127.58    1.59
   4   0   3  127.63    1.58
  -4   0  -3  136.67    1.69
  -4   0  -3  132.70    1.64
  -4   0  -3  130.84    1.61
   4   0   4  129.83    1.66
   4   0   4  127.30    1.62
   4   0   4  138.86    1.69
  -4   0  -4  131.79    1.61
  -4   0  -4  130.99    1.61
  -4   0  -4  134.82    1.72
   4   0   5   42.90    0.56
   4   0   5   40.75    0.70
  -4   0  -5   42.58    0.56
  -4   0  -5   42.79    0.74
   4   0   6   35.13    0.68
   4   0   6   36.74    0.48
  -4   0  -6   35.85    0.47
  -4   0  -6   35.14    0.57
   4   0   7   13.98    0.35
   4   0   7   14.65    0.25
  -4   0  -7   13.75    0.35
  -4   0  -7   14.04    0.24
   4   0   8   13.96    0.38
   4   0   8   13.62    0.23
  -4   0  -8   13.69    0.23
  -4   0  -8   14.93    0.39
   4   0   9    1.05    0.35
   4   0   9    0.86    0.08
  -4   0  -9    1.03    0.08
  -4   0  -9    0.82    0.22
   4   0  10   14.38    0.45
   4   0  10   12.09    0.18
  -4   0 -10   14.06    0.45
  -4   0 -10   12.43    0.21
   4   0  11    3.35    0.35
  -4   0 -11    3.95    0.34
   4   0  12   18.52    0.90
  -4   0 -12   15.75    0.83
   4   0  13    9.59    0.52
   4   0  13    8.66    0.53
  -4   0 -13    9.00    0.51
   4   0  14    3.10    0.45
   4   0  14    4.36    0.49
  -4   0 -14    2.69    0.42
   4   1 -13    0.76    0.32
   4   1 -13    0.76    0.44
  -4  -1  13    0.74    0.37
  -4  -1  13    0.62    0.46
   4   1 -12    0.06    0.15
   4   1 -12    0.36    0.22
  -4  -1  12    0.16    0.30
  -4  -1  12    0.18    0.39
   4   1 -11    0.04    0.13
   4   1 -11    0.01    0.31
  -4  -1  11    0.07    0.23
  -4  -1  11   -0.03    0.19
   4   1 -10    0.14    0.18
   4   1 -10   -0.08    0.11
  -4  -1  10   -0.08    0.19
  -4  -1  10    0.17    0.21
   4   1  -9   12.70    0.60
   4   1  -9   11.12    0.28
  -4  -1   9   13.03    0.43
  -4  -1   9   12.47    0.45
   4   1  -8    0.09    0.17
   4   1  -8    0.08    0.15
  -4  -1   8   -0.21    0.30
  -4  -1   8   -0.09    0.11
   4   1  -7    0.17    0.17
   4   1  -7    0.20    0.14
  -4  -1   7    0.38    0.30
  -4  -1   7    0.24    0.18
   4   1  -6    0.51    0.17
   4   1  -6    0.39    0.08
  -4  -1   6    0.59    0.19
  -4  -1   6    0.55    0.17
   4   1  -5   29.18    0.52
   4   1  -5   27.43    0.38
  -4  -1   5   29.84    0.53
  -4  -1   5   30.03    0.43
   4   1  -4  145.71    1.93
   4   1  -4  145.30    1.82
  -4  -1   4  154.09    1.88
  -4  -1   4  148.53    1.99
   4   1  -3   23.22    0.34
   4   1  -3   23.16    0.40
  -4  -1   3   24.35    0.37
  -4  -1   3   23.84    0.52
   4   1  -2   60.76    0.91
   4   1  -2   60.42    0.73
  -4  -1   2   62.21    0.71
  -4  -1   2   60.94    0.92
   4   1  -1   25.19    0.35
   4   1  -1   25.17    0.38
  -4  -1   1   25.96    0.35
  -4  -1   1   25.37    0.39
   4   1   0   29.92    0.49
   4   1   0   30.53    0.42
  -4  -1   0   30.08    0.49
  -4  -1   0   31.22    0.37
  -4  -1   0   29.27    0.41
   4   1   1    8.69    0.19
   4   1   1    9.08    0.18
   4   1   1    8.95    0.21
  -4  -1  -1    9.26    0.20
  -4  -1  -1    8.80    0.17
  -4  -1  -1    8.93    0.17
   4   1   2    6.46    0.20
   4   1   2    6.06    0.14
  -4  -1  -2    7.03    0.18
  -4  -1  -2    6.15    0.13
   4   1   3   13.00    0.30
   4   1   3   12.55    0.28
  -4  -1  -3   12.83    0.19
  -4  -1  -3   12.68    0.22
   4   1   4   84.22    1.07
   4   1   4   83.33    1.06
  -4  -1  -4   87.11    1.11
  -4  -1  -4   85.71    0.95
  -4  -1  -4   83.71    0.96
   4   1   5   59.52    0.82
   4   1   5   60.03    0.80
  -4  -1  -5   60.37    0.68
  -4  -1  -5   57.76    0.65
  -4  -1  -5   62.62    0.85
   4   1   6    1.69    0.26
   4   1   6    1.12    0.15
  -4  -1  -6    1.78    0.26
   4   1   7   62.00    0.92
   4   1   7   60.53    0.90
  -4  -1  -7   60.32    0.63
  -4  -1  -7   62.66    0.93
   4   1   8   26.42    0.53
   4   1   8   26.80    0.53
  -4  -1  -8   24.92    0.25
  -4  -1  -8   25.03    0.25
  -4  -1  -8   27.39    0.53
   4   1   9   39.36    0.72
   4   1   9   39.90    0.74
  -4  -1  -9   40.73    0.74
   4   1  10    2.87    0.28
   4   1  10    2.76    0.28
  -4  -1 -10    2.63    0.28
   4   1  11   -0.14    0.22
   4   1  11   -0.22    0.36
  -4  -1 -11   -0.08    0.21
   4   1  12    0.35    0.26
   4   1  12    0.46    0.27
  -4  -1 -12    0.59    0.27
   4   1  13    1.48    0.56
   4   1  13    1.52    0.35
  -4  -1 -13    1.51    0.55
   4   1  14    6.14    0.48
   4   1  14    6.17    0.78
  -4  -1 -14    5.60    0.49
   4   2 -12    0.08    0.30
   4   2 -12    0.49    0.25
  -4  -2  12    0.96    0.24
  -4  -2  12    0.31    0.29
   4   2 -11    1.16    0.27
   4   2 -11    0.73    0.31
  -4  -2  11    0.88    0.23
  -4  -2  11    1.18    0.28
   4   2 -10    1.34    0.30
   4   2 -10    1.54    0.43
  -4  -2  10    1.68    0.23
  -4  -2  10    1.97    0.46
   4   2  -9   20.10    0.53
   4   2  -9   18.98    0.55
  -4  -2   9   20.70    0.48
  -4  -2   9   22.57    0.57
   4   2  -8    0.19    0.19
   4   2  -8    0.29    0.13
  -4  -2   8    0.33    0.20
  -4  -2   8    0.22    0.15
   4   2  -7    8.83    0.48
   4   2  -7    8.45    0.24
  -4  -2   7   10.02    0.52
  -4  -2   7    9.03    0.39
   4   2  -6    0.97    0.19
   4   2  -6    0.95    0.12
  -4  -2   6    0.95    0.20
  -4  -2   6    0.99    0.24
   4   2  -5    2.99    0.22
   4   2  -5    3.08    0.21
  -4  -2   5    3.56    0.22
  -4  -2   5    3.31    0.25
   4   2  -4    5.59    0.23
   4   2  -4    5.80    0.16
  -4  -2   4    5.61    0.36
  -4  -2   4    6.10    0.18
   4   2  -3   24.64    0.42
   4   2  -3   25.89    0.43
  -4  -2   3   26.00    0.37
  -4  -2   3   25.52    0.43
   4   2  -2   11.35    0.25
   4   2  -2    9.90    0.19
  -4  -2   2   10.24    0.25
  -4  -2   2   10.83    0.27
   4   2  -1 1070.62   15.52
   4   2  -1 1092.13   15.78
  -4  -2   1 1066.09   15.50
  -4  -2   1 1097.93   15.77
   4   2   0  335.65    4.20
   4   2   0  337.22    4.29
  -4  -2   0  344.95    4.33
  -4  -2   0  335.77    4.30
   4   2   1    2.23    0.11
   4   2   1    1.96    0.10
  -4  -2  -1    2.32    0.11
  -4  -2  -1    2.24    0.10
   4   2   2   80.32    0.94
   4   2   2   81.65    1.05
   4   2   2   81.70    1.07
  -4  -2  -2   79.38    0.93
  -4  -2  -2   83.16    1.06
  -4  -2  -2   80.60    0.98
   4   2   3    2.52    0.18
   4   2   3    2.80    0.13
   4   2   3    2.58    0.08
  -4  -2  -3    2.71    0.11
  -4  -2  -3    2.36    0.12
  -4  -2  -3    2.63    0.11
   4   2   4   82.12    1.14
   4   2   4   79.28    1.01
  -4  -2  -4   81.22    0.90
  -4  -2  -4   80.61    0.89
   4   2   5   19.82    0.35
   4   2   5   19.83    0.35
  -4  -2  -5   19.63    0.22
   4   2   6   15.70    0.33
   4   2   6   15.65    0.33
  -4  -2  -6   16.18    0.34
   4   2   7    0.43    0.15
   4   2   7    0.44    0.15
  -4  -2  -7    0.46    0.16
   4   2   8   17.38    0.41
   4   2   8   16.45    0.41
  -4  -2  -8   17.98    0.42
   4   2   9    0.79    0.20
   4   2   9    0.57    0.21
  -4  -2  -9    0.79    0.21
   4   2  10    2.73    0.29
   4   2  10    3.02    0.29
  -4  -2 -10    2.89    0.30
   4   2  11   10.33    0.44
   4   2  11   10.40    0.44
  -4  -2 -11   10.32    0.44
   4   2  12    0.50    0.26
   4   2  12    0.27    0.26
  -4  -2 -12    0.57    0.28
   4   2  13    0.18    0.25
   4   2  13   -0.05    0.25
  -4  -2 -13    0.15    0.27
   4   2  14    0.83    0.55
   4   2  14    0.69    0.57
  -4  -2 -14    0.95    0.57
   4   2  15   -0.18    0.28
   4   2  15    0.29    0.30
  -4  -2 -15   -0.06    0.30
   4   3 -12    1.70    0.50
   4   3 -12    0.98    0.40
  -4  -3  12    1.41    0.30
  -4  -3  12    1.60    0.53
   4   3 -11    0.40    0.25
   4   3 -11    0.41    0.31
  -4  -3  11    0.25    0.24
  -4  -3  11    0.51    0.27
   4   3 -10   12.75    0.67
   4   3 -10   10.90    0.52
  -4  -3  10   12.11    0.42
  -4  -3  10   13.18    0.50
   4   3  -9    9.80    0.41
   4   3  -9    9.85    0.46
  -4  -3   9   10.79    0.37
  -4  -3   9   10.67    0.65
   4   3  -8    2.81    0.20
   4   3  -8    2.70    0.44
  -4  -3   8    2.37    0.37
  -4  -3   8    2.96    0.29
   4   3  -7   19.09    0.46
   4   3  -7   17.98    0.38
  -4  -3   7   19.26    0.43
  -4  -3   7   19.26    0.49
   4   3  -6   79.49    1.39
   4   3  -6   76.08    1.10
  -4  -3   6   79.45    1.23
  -4  -3   6   82.59    1.37
   4   3  -5    5.04    0.25
   4   3  -5    4.37    0.28
  -4  -3   5    4.95    0.26
  -4  -3   5    4.98    0.34
   4   3  -4  209.80    2.81
   4   3  -4  200.74    2.81
  -4  -3   4  209.07    2.83
  -4  -3   4  219.13    3.08
   4   3  -3   93.60    1.40
   4   3  -3   90.01    1.19
  -4  -3   3   93.67    1.28
  -4  -3   3   95.31    1.24
   4   3  -2   62.87    0.90
   4   3  -2   61.62    0.94
  -4  -3   2   62.49    0.85
  -4  -3   2   63.79    0.83
   4   3  -1   86.92    1.17
   4   3  -1   86.07    1.19
  -4  -3   1   88.23    1.10
  -4  -3   1   85.71    1.10
   4   3   0   51.69    0.76
   4   3   0   50.28    0.66
  -4  -3   0   53.10    0.76
  -4  -3   0   50.56    0.75
   4   3   1  499.00    6.72
   4   3   1  488.58    6.59
  -4  -3  -1  504.92    6.65
  -4  -3  -1  488.04    6.54
   4   3   2 1296.74   19.07
   4   3   2 1262.61   18.84
  -4  -3  -2 1325.48   19.72
  -4  -3  -2 1262.28   18.53
   4   3   3  228.07    2.86
   4   3   3  228.77    3.02
   4   3   3  231.64    2.76
  -4  -3  -3  229.86    2.88
  -4  -3  -3  226.58    2.67
   4   3   4   11.63    0.24
   4   3   4   11.84    0.36
   4   3   4   11.79    0.18
  -4  -3  -4   11.34    0.17
  -4  -3  -4   11.78    0.25
  -4  -3  -4   11.11    0.17
   4   3   5   68.99    0.94
   4   3   5   68.33    1.02
  -4  -3  -5   38.58    0.37
   4   3   6  339.75    4.56
   4   3   6  337.48    4.52
   4   3   7   40.34    0.81
   4   3   7   40.85    0.79
   4   3   8    5.12    0.27
   4   3   8    4.63    0.41
   4   3   9  158.40    2.53
   4   3   9  162.62    2.34
   4   3  10    1.66    0.26
   4   3  10    1.76    0.25
  -4  -3 -10    1.89    0.27
   4   3  11   18.95    0.56
   4   3  11   19.66    0.56
  -4  -3 -11   19.34    0.57
   4   3  12   21.80    0.64
   4   3  12   22.27    0.63
  -4  -3 -12   22.34    0.66
   4   3  13   51.57    1.12
   4   3  13   54.10    1.46
  -4  -3 -13   53.82    1.16
   4   3  14   11.94    0.88
   4   3  14   13.24    0.88
   4   3  15    0.18    0.47
   4   3  15   -0.01    0.30
   4   4 -12    0.15    0.22
   4   4 -12    0.25    0.25
  -4  -4  12    0.25    0.41
  -4  -4  12   -0.04    0.26
   4   4 -11    6.39    0.41
   4   4 -11    5.78    0.34
  -4  -4  11    6.74    0.64
  -4  -4  11    6.78    0.44
   4   4 -10    1.06    0.45
   4   4 -10    0.93    0.23
  -4  -4  10    0.90    0.44
  -4  -4  10    1.25    0.48
   4   4  -9    2.20    0.30
   4   4  -9    2.42    0.38
  -4  -4   9    2.54    0.46
  -4  -4   9    2.43    0.32
   4   4  -8    8.02    0.38
   4   4  -8    8.05    0.47
  -4  -4   8    9.10    0.37
  -4  -4   8    9.30    0.63
   4   4  -7   27.03    0.55
   4   4  -7   29.65    0.81
  -4  -4   7   29.21    0.61
  -4  -4   7   30.14    0.66
   4   4  -6   24.35    0.52
   4   4  -6   23.49    0.60
  -4  -4   6   24.52    0.51
  -4  -4   6   25.28    0.75
   4   4  -5    3.26    0.19
   4   4  -5    3.19    0.39
  -4  -4   5    3.58    0.37
  -4  -4   5    3.52    0.26
   4   4  -4   36.59    0.59
   4   4  -4   39.29    0.66
  -4  -4   4   39.31    0.80
  -4  -4   4   39.56    0.68
   4   4  -3  174.31    2.34
   4   4  -3  175.45    2.35
  -4  -4   3  185.85    2.64
  -4  -4   3  180.75    2.60
   4   4  -2   25.27    0.56
   4   4  -2   25.17    0.41
  -4  -4   2   25.31    0.43
  -4  -4   2   25.30    0.57
   4   4  -1   78.97    1.04
   4   4  -1   80.82    1.16
  -4  -4   1   81.81    1.06
  -4  -4   1   79.57    1.15
   4   4   0  273.68    3.50
   4   4   0  273.66    3.50
  -4  -4   0  283.49    3.62
  -4  -4   0  271.99    3.59
   4   4   1  222.80    2.80
   4   4   1  226.66    2.98
  -4  -4  -1  229.53    2.88
  -4  -4  -1  221.11    2.76
   4   4   2  229.30    2.92
   4   4   2  230.68    2.92
  -4  -4  -2  228.05    2.86
  -4  -4  -2  220.16    2.70
   4   4   3    4.25    0.19
   4   4   3    4.49    0.11
  -4  -4  -3    5.21    0.27
  -4  -4  -3    4.30    0.11
   4   4   4   22.55    0.41
   4   4   4   22.43    0.30
  -4  -4  -4   22.53    0.50
  -4  -4  -4   22.00    0.30
   4   4   5  566.14    7.96
   4   4   5  573.03    7.23
   4   4   5  555.93    7.67
  -4  -4  -5   -0.02    0.02
   4   4   6   20.76    0.42
   4   4   6   20.34    0.41
   4   4   7   49.22    0.78
   4   4   7   49.17    0.90
   4   4   8   36.04    0.84
   4   4   8   34.66    0.62
   4   4   9   30.09    0.62
   4   4   9   31.02    0.60
   4   4  10    3.52    0.47
   4   4  10    3.30    0.45
   4   4  11    4.06    0.55
   4   4  11    4.50    0.52
   4   4  12  123.54    2.09
   4   4  12  124.29    2.42
   4   4  13   10.45    0.53
   4   4  13   11.21    0.80
   4   4  14    0.32    0.53
   4   4  14    0.66    0.53
   4   4  15   19.42    1.06
   4   4  15   20.03    1.07
   4   5 -11    0.35    0.26
   4   5 -11    0.00    0.38
  -4  -5  11   -0.01    0.23
  -4  -5  11    0.04    0.38
   4   5 -10    0.21    0.39
   4   5 -10    0.12    0.35
  -4  -5  10    0.55    0.29
  -4  -5  10    0.41    0.30
   4   5  -9    2.59    0.27
   4   5  -9    2.15    0.30
  -4  -5   9    2.25    0.31
  -4  -5   9    2.00    0.52
   4   5  -8    1.62    0.23
   4   5  -8    1.33    0.26
  -4  -5   8    1.94    0.28
  -4  -5   8    1.59    0.30
   4   5  -7    0.15    0.29
   4   5  -7    0.13    0.35
  -4  -5   7    0.20    0.34
  -4  -5   7    0.20    0.37
   4   5  -6    6.97    0.30
   4   5  -6    7.45    0.34
  -4  -5   6    7.55    0.33
  -4  -5   6    7.17    0.35
   4   5  -5   11.90    0.38
   4   5  -5   11.62    0.35
  -4  -5   5   11.67    0.56
  -4  -5   5   12.66    0.40
   4   5  -4   48.70    0.81
   4   5  -4   47.39    0.77
  -4  -5   4   48.93    1.01
  -4  -5   4   47.48    0.80
   4   5  -3   27.63    0.52
   4   5  -3   27.76    0.64
  -4  -5   3   28.13    0.70
  -4  -5   3   27.51    0.52
   4   5  -2   19.80    0.41
   4   5  -2   19.78    0.53
  -4  -5   2   19.17    0.39
  -4  -5   2   19.83    0.41
   4   5  -1  134.07    1.88
   4   5  -1  135.31    1.77
  -4  -5   1  136.52    1.79
  -4  -5   1  134.38    1.77
   4   5   0   15.38    0.30
   4   5   0   16.11    0.33
  -4  -5   0   16.39    0.33
  -4  -5   0   15.03    0.30
   4   5   1   14.74    0.27
   4   5   1   15.42    0.32
  -4  -5  -1   15.27    0.30
  -4  -5  -1   15.08    0.27
   4   5   2    4.60    0.20
   4   5   2    4.94    0.20
  -4  -5  -2    4.99    0.19
  -4  -5  -2    4.60    0.14
   4   5   3   65.62    0.86
   4   5   3   66.37    1.03
  -4  -5  -3   64.40    0.77
  -4  -5  -3   66.97    0.90
   4   5   4    0.35    0.06
   4   5   4    0.39    0.14
  -4  -5  -4    0.30    0.10
  -4  -5  -4    0.30    0.14
   4   5   5   85.27    0.95
   4   5   5   85.52    1.18
  -4  -5  -5   83.58    1.26
  -4  -5  -5   83.07    0.92
   4   5   6   11.75    0.33
   4   5   6   12.80    0.32
   4   5   6   12.63    0.17
  -4  -5  -6    0.00    0.02
   4   5   7    0.04    0.15
   4   5   7   -0.08    0.14
   4   5   8   57.12    0.93
   4   5   8   58.35    1.09
   4   5   9   14.43    0.59
   4   5   9   14.37    0.40
   4   5  10    5.06    0.31
   4   5  10    5.35    0.30
   4   5  11    2.43    0.29
   4   5  11    2.45    0.28
   4   5  12    0.51    0.41
   4   5  12    0.10    0.23
   4   5  13    5.90    0.68
   4   5  13    6.44    0.65
   4   5  14    0.28    0.48
   4   5  14    0.19    0.46
   4   5  15   13.39    0.94
   4   5  15   14.43    0.93
   4   6 -10    0.22    0.24
   4   6 -10    0.01    0.23
  -4  -6  10    0.12    0.28
  -4  -6  10    0.30    0.46
   4   6  -9    3.71    0.35
   4   6  -9    3.85    0.33
  -4  -6   9    4.72    0.40
  -4  -6   9    5.04    0.63
   4   6  -8    0.54    0.38
   4   6  -8    0.41    0.25
  -4  -6   8    0.46    0.26
  -4  -6   8    0.26    0.44
   4   6  -7    0.76    0.38
   4   6  -7    0.97    0.42
  -4  -6   7    1.22    0.27
  -4  -6   7    1.42    0.28
   4   6  -6    3.42    0.30
   4   6  -6    3.08    0.26
  -4  -6   6    3.63    0.49
  -4  -6   6    3.44    0.32
   4   6  -5    0.52    0.21
   4   6  -5    0.15    0.19
  -4  -6   5    0.47    0.22
  -4  -6   5    0.21    0.22
   4   6  -4   21.59    0.52
   4   6  -4   21.34    0.48
  -4  -6   4   21.74    0.72
  -4  -6   4   22.01    0.73
   4   6  -3   55.27    0.90
   4   6  -3   55.29    1.07
  -4  -6   3   57.38    1.16
  -4  -6   3   56.16    1.13
   4   6  -2   18.98    0.58
   4   6  -2   18.52    0.44
  -4  -6   2   18.58    0.64
  -4  -6   2   18.87    0.44
   4   6  -1   70.99    1.04
   4   6  -1   71.69    1.06
  -4  -6   1   70.99    1.06
  -4  -6   1   70.38    1.03
   4   6   0  306.99    4.25
   4   6   0  301.42    4.06
  -4  -6   0  298.36    4.00
  -4  -6   0  296.28    4.11
   4   6   1    9.37    0.24
   4   6   1    9.36    0.29
  -4  -6  -1    9.58    0.29
  -4  -6  -1    9.31    0.25
   4   6   2    8.35    0.29
   4   6   2    8.28    0.27
  -4  -6  -2    7.92    0.20
  -4  -6  -2    8.11    0.25
   4   6   3    1.09    0.30
   4   6   3    1.48    0.17
  -4  -6  -3    0.68    0.16
  -4  -6  -3    0.98    0.25
   4   6   4    0.69    0.17
   4   6   4    0.70    0.08
  -4  -6  -4    0.66    0.27
  -4  -6  -4    1.01    0.14
   4   6   5  109.02    1.50
   4   6   5  110.23    1.37
  -4  -6  -5  108.17    1.46
  -4  -6  -5  105.78    1.25
   4   6   6   12.40    0.35
   4   6   6   12.85    0.22
   4   6   6   11.91    0.32
  -4  -6  -6   12.03    0.32
  -4  -6  -6   12.08    0.17
   4   6   7    7.62    0.42
   4   6   7    6.83    0.30
   4   6   7    6.93    0.13
  -4  -6  -7    7.20    0.42
   4   6   8   19.10    0.44
   4   6   8   18.79    0.46
   4   6   9    6.19    0.31
   4   6   9    6.07    0.45
   4   6  10    9.77    0.57
   4   6  10   10.07    0.36
   4   6  11    1.57    0.26
   4   6  11    1.80    0.25
   4   6  12    4.99    0.35
   4   6  12    4.92    0.34
   4   6  13    0.39    0.26
   4   6  13    0.43    0.41
   4   6  14    2.48    0.35
   4   6  14    2.32    0.55
   4   6  15    2.76    0.38
   4   6  15    1.89    0.63
   4   7 -10    0.14    0.26
   4   7 -10    0.14    0.26
  -4  -7  10    0.35    0.51
  -4  -7  10    0.25    0.33
   4   7  -9    0.28    0.41
   4   7  -9   -0.03    0.43
  -4  -7   9    0.43    0.30
  -4  -7   9   -0.04    0.30
   4   7  -8    1.50    0.49
   4   7  -8    1.34    0.51
  -4  -7   8    1.37    0.35
  -4  -7   8    1.49    0.35
   4   7  -7    0.14    0.23
   4   7  -7   -0.13    0.35
  -4  -7   7    0.08    0.41
  -4  -7   7    0.12    0.41
   4   7  -6   18.12    0.55
   4   7  -6   17.62    0.53
  -4  -7   6   18.27    0.83
  -4  -7   6   18.63    0.57
   4   7  -5   29.55    0.90
   4   7  -5   30.79    0.67
  -4  -7   5   32.07    0.97
  -4  -7   5   31.25    0.71
   4   7  -4   26.20    0.60
   4   7  -4   27.25    0.79
  -4  -7   4   26.73    0.62
  -4  -7   4   28.11    0.63
   4   7  -3   79.79    1.24
   4   7  -3   79.41    1.24
  -4  -7   3   79.57    1.26
  -4  -7   3   80.82    1.29
   4   7  -2   12.43    0.57
   4   7  -2   12.06    0.58
  -4  -7   2   12.78    0.58
  -4  -7   2   12.04    0.63
   4   7  -1  205.94    2.87
   4   7  -1  207.73    2.90
  -4  -7   1  203.70    2.81
  -4  -7   1  206.87    2.89
   4   7   0   36.74    0.79
   4   7   0   35.51    0.66
  -4  -7   0   35.38    0.63
  -4  -7   0   36.14    0.67
   4   7   1    7.59    0.49
   4   7   1    7.34    0.26
  -4  -7  -1    7.72    0.26
  -4  -7  -1    7.33    0.48
   4   7   2   85.86    1.24
   4   7   2   88.03    1.30
  -4  -7  -2   83.49    1.14
  -4  -7  -2   86.12    1.23
   4   7   3   61.78    0.94
   4   7   3   60.70    0.83
  -4  -7  -3   58.89    0.80
  -4  -7  -3   60.55    1.08
   4   7   4   76.07    1.30
   4   7   4   76.78    1.09
  -4  -7  -4   73.82    1.07
  -4  -7  -4   71.99    0.94
   4   7   5    0.44    0.19
   4   7   5    0.25    0.08
  -4  -7  -5    0.32    0.17
  -4  -7  -5    0.19    0.08
   4   7   6   37.78    0.68
   4   7   6   38.90    0.51
  -4  -7  -6   36.61    0.63
  -4  -7  -6   37.27    0.54
   4   7   7   14.27    0.38
   4   7   7   14.62    0.58
   4   7   7   14.45    0.26
  -4  -7  -7   13.64    0.37
  -4  -7  -7   13.14    0.25
   4   7   8    5.60    0.27
   4   7   8    5.43    0.46
   4   7   8    5.16    0.14
  -4  -7  -8    5.40    0.27
  -4  -7  -8    4.79    0.09
   4   7   9    0.10    0.19
   4   7   9    0.16    0.04
   4   7   9    0.22    0.18
   4   7  10    0.82    0.25
   4   7  10    1.17    0.23
   4   7  11    0.40    0.23
   4   7  11    0.19    0.21
   4   7  12    1.96    0.46
   4   7  12    1.65    0.28
   4   7  13    0.31    0.25
   4   7  13    0.61    0.41
   4   7  14    0.22    0.42
   4   7  14    0.32    0.27
   4   7  15   -0.04    0.25
   4   7  15    0.24    0.41
   4   8  -9    0.30    0.51
   4   8  -9    0.68    0.31
  -4  -8   9   -0.02    0.54
  -4  -8   9    0.57    0.35
   4   8  -8    1.22    0.33
   4   8  -8    1.31    0.53
  -4  -8   8    1.25    0.37
  -4  -8   8    2.79    0.39
   4   8  -7    2.99    0.60
   4   8  -7    3.63    0.57
  -4  -8   7    2.92    0.38
  -4  -8   7    2.89    0.40
   4   8  -6   13.56    0.77
   4   8  -6   14.54    0.52
  -4  -8   6   14.20    0.54
  -4  -8   6   14.33    0.84
   4   8  -5    7.19    0.41
   4   8  -5    6.32    0.40
  -4  -8   5    7.09    0.42
  -4  -8   5    7.35    0.44
   4   8  -4    9.10    0.41
   4   8  -4    8.50    0.39
  -4  -8   4    8.71    0.41
  -4  -8   4    9.08    0.43
   4   8  -3    6.94    0.56
   4   8  -3    6.19    0.56
  -4  -8   3    6.07    0.36
  -4  -8   3    6.49    0.39
   4   8  -2  113.72    1.72
   4   8  -2  112.30    1.73
  -4  -8   2  110.28    1.69
  -4  -8   2  110.69    1.74
   4   8  -1  294.77    4.21
   4   8  -1  295.08    4.52
  -4  -8   1  288.10    4.11
  -4  -8   1  294.79    4.25
   4   8   0  121.80    1.99
   4   8   0  121.80    1.83
  -4  -8   0  119.43    1.74
  -4  -8   0  120.74    1.80
   4   8   1    1.14    0.48
   4   8   1    0.45    0.22
  -4  -8  -1    0.65    0.36
  -4  -8  -1    0.62    0.26
   4   8   2  955.41   14.35
   4   8   2  959.01   14.70
  -4  -8  -2  918.35   13.94
  -4  -8  -2  934.40   14.28
   4   8   3    4.77    0.55
   4   8   3    0.57    0.19
  -4  -8  -3    0.65    0.26
  -4  -8  -3    0.60    0.30
   4   8   4  213.00    3.02
   4   8   4  216.25    3.06
  -4  -8  -4  205.63    3.11
  -4  -8  -4  202.65    2.72
   4   8   5    1.37    0.26
   4   8   5    0.60    0.14
  -4  -8  -5    0.46    0.21
  -4  -8  -5    0.46    0.20
   4   8   6   49.44    1.09
   4   8   6   48.23    0.67
  -4  -8  -6   46.99    0.79
  -4  -8  -6   46.61    0.64
   4   8   7    1.63    0.25
   4   8   7    1.66    0.18
  -4  -8  -7    2.15    0.24
  -4  -8  -7    1.65    0.17
   4   8   8   11.83    0.41
   4   8   8   12.43    0.38
   4   8   8   11.70    0.27
  -4  -8  -8   12.05    0.37
  -4  -8  -8   11.36    0.19
   4   8   9   11.40    0.39
   4   8   9   12.40    0.61
   4   8   9   11.59    0.19
  -4  -8  -9   11.27    0.37
  -4  -8  -9   10.45    0.21
   4   8  10    3.30    0.30
   4   8  10    3.00    0.28
   4   8  10    2.67    0.08
   4   8  10    2.75    0.10
   4   8  11    1.32    0.28
   4   8  11    1.24    0.25
   4   8  12    3.08    0.34
   4   8  13   19.19    0.86
   4   8  14    5.27    0.41
   4   8  14    5.76    0.62
   4   8  15    0.03    0.27
   4   8  15    0.21    0.25
   4   9  -8    4.24    0.68
   4   9  -8    4.72    0.44
  -4  -9   8    4.53    0.75
  -4  -9   8    4.01    0.79
   4   9  -7    7.20    0.48
   4   9  -7    7.63    0.74
  -4  -9   7    7.64    0.51
  -4  -9   7    7.77    0.84
   4   9  -6    0.10    0.25
   4   9  -6    0.22    0.43
  -4  -9   6    0.38    0.32
  -4  -9   6    0.25    0.30
   4   9  -5    4.34    0.61
   4   9  -5    4.70    0.59
  -4  -9   5    4.31    0.41
  -4  -9   5    4.54    0.42
   4   9  -4   31.95    0.74
   4   9  -4   31.35    0.74
  -4  -9   4   31.64    0.77
  -4  -9   4   31.48    0.79
   4   9  -3   24.23    0.61
   4   9  -3   22.72    0.62
  -4  -9   3   23.21    0.62
  -4  -9   3   23.08    0.90
   4   9  -2    0.35    0.35
   4   9  -2    0.07    0.36
  -4  -9   2    0.43    0.25
  -4  -9   2    0.50    0.39
   4   9  -1    6.00    0.32
   4   9  -1    5.75    0.34
  -4  -9   1    5.92    0.31
  -4  -9   1    5.58    0.35
   4   9   0   16.92    0.47
   4   9   0   17.10    0.44
  -4  -9   0   16.43    0.44
  -4  -9   0   16.38    0.47
   4   9   1    3.08    0.46
   4   9   1    2.65    0.38
  -4  -9  -1    2.96    0.24
  -4  -9  -1    2.73    0.28
   4   9   2   63.82    1.05
   4   9   2   63.03    0.97
  -4  -9  -2   60.41    1.10
  -4  -9  -2   60.40    0.99
   4   9   3   14.78    0.46
   4   9   3   14.42    0.52
  -4  -9  -3   14.22    0.66
  -4  -9  -3   13.52    0.51
   4   9   4   43.30    1.22
   4   9   4   40.04    0.70
  -4  -9  -4   39.20    0.79
  -4  -9  -4   38.05    0.66
   4   9   5  958.48   14.81
   4   9   5  956.19   14.93
  -4  -9  -5  917.17   14.43
  -4  -9  -5  910.36   14.14
   4   9   6   79.76    1.39
   4   9   6   78.81    1.16
  -4  -9  -6   77.48    1.32
  -4  -9  -6   74.53    1.09
   4   9   7   42.77    0.86
   4   9   7   41.33    0.63
  -4  -9  -7   41.57    1.05
  -4  -9  -7   38.83    0.71
   4   9   8   39.66    0.82
   4   9   8   38.87    0.79
   4   9   8   38.05    0.67
  -4  -9  -8   38.82    0.76
  -4  -9  -8   36.83    0.54
   4   9   9   22.59    0.78
   4   9   9   21.83    0.58
   4   9   9   21.50    0.35
  -4  -9  -9   22.10    0.74
  -4  -9  -9   19.69    0.32
   4   9  10   14.32    0.46
   4   9  10   14.41    0.71
   4   9  10   13.01    0.29
  -4  -9 -10   12.29    0.27
   4   9  11    2.54    0.33
   4   9  11    3.52    0.30
   4   9  12    1.29    0.30
   4   9  13    0.24    0.26
   4   9  14   -0.03    0.41
   4   9  14   -0.05    0.23
   4  10  -7    0.90    0.58
   4  10  -7    0.63    0.36
  -4 -10   7    0.74    0.59
  -4 -10   7    0.57    0.40
   4  10  -6    0.79    0.34
   4  10  -6    1.06    0.34
  -4 -10   6    0.98    0.58
  -4 -10   6    0.91    0.64
   4  10  -5    3.26    0.41
   4  10  -5    4.17    0.41
  -4 -10   5    3.52    0.41
  -4 -10   5    4.25    0.45
   4  10  -4   19.21    0.89
   4  10  -4   20.54    0.90
  -4 -10   4   21.11    0.91
  -4 -10   4   20.37    0.68
   4  10  -3   10.64    0.47
   4  10  -3   10.56    0.74
  -4 -10   3   10.95    0.52
  -4 -10   3   10.74    0.74
   4  10  -2   11.29    0.46
   4  10  -2   10.61    0.47
  -4 -10   2   10.39    0.45
  -4 -10   2   10.34    0.73
   4  10  -1   45.38    1.11
   4  10  -1   45.41    0.90
  -4 -10   1   44.56    0.87
  -4 -10   1   44.17    0.90
   4  10   0    6.78    0.34
   4  10   0    5.87    0.36
  -4 -10   0    5.47    0.38
  -4 -10   0    6.34    0.52
   4  10   1    4.78    0.54
   4  10   1    4.46    0.30
  -4 -10  -1    4.72    0.30
  -4 -10  -1    4.07    0.33
   4  10   2   44.67    0.85
   4  10   2   46.05    0.97
  -4 -10  -2   43.54    0.81
  -4 -10  -2   42.53    0.76
   4  10   3    0.42    0.25
   4  10   3    0.41    0.19
  -4 -10  -3    0.91    0.40
  -4 -10  -3    0.65    0.19
   4  10   4   39.49    0.78
   4  10   4   38.46    0.82
  -4 -10  -4   35.77    0.70
  -4 -10  -4   35.78    0.62
   4  10   5   15.36    0.70
   4  10   5   15.24    0.36
  -4 -10  -5   14.60    0.43
  -4 -10  -5   13.51    0.34
   4  10   6   18.03    0.75
   4  10   6   17.98    0.39
  -4 -10  -6   18.30    0.66
  -4 -10  -6   17.01    0.48
   4  10   7   14.14    0.72
   4  10   7   13.77    0.44
  -4 -10  -7   13.48    0.44
  -4 -10  -7   12.83    0.41
   4  10   8   66.23    1.49
   4  10   8   63.86    1.08
  -4 -10  -8   62.50    1.36
  -4 -10  -8   59.16    1.00
   4  10   9   65.53    1.17
   4  10   9   64.73    1.20
   4  10   9   61.39    1.01
  -4 -10  -9   63.40    1.11
  -4 -10  -9   57.31    0.84
   4  10  10    1.66    0.29
   4  10  10    1.44    0.32
   4  10  10    1.85    0.20
  -4 -10 -10    1.97    0.28
  -4 -10 -10    1.48    0.19
   4  10  11    6.24    0.61
   4  10  12    6.08    0.41
   4  10  13    0.44    0.47
   4  10  14    0.07    0.25
   4  11  -5    4.67    0.46
   4  11  -5    4.39    0.47
  -4 -11   5    4.46    0.75
  -4 -11   5    4.82    0.80
   4  11  -4    0.31    0.31
   4  11  -4    0.63    0.33
  -4 -11   4    0.41    0.55
  -4 -11   4    0.59    0.35
   4  11  -3    4.56    0.64
   4  11  -3    4.51    0.41
  -4 -11   3    4.45    0.68
  -4 -11   3    5.12    0.45
   4  11  -2   20.44    0.64
   4  11  -2   20.57    0.65
  -4 -11   2   20.88    0.64
  -4 -11   2   21.39    0.68
   4  11  -1   17.79    0.58
   4  11  -1   18.12    0.57
  -4 -11   1   17.65    0.88
  -4 -11   1   17.50    0.57
   4  11   0   12.75    0.47
   4  11   0   11.98    0.77
  -4 -11   0   13.19    0.78
  -4 -11   0   12.79    0.70
   4  11   1   51.00    1.28
   4  11   1   52.53    0.96
  -4 -11  -1   50.11    0.97
  -4 -11  -1   50.79    0.94
   4  11   2    5.89    0.62
   4  11   2    6.17    0.52
  -4 -11  -2    6.10    0.39
  -4 -11  -2    6.47    0.34
   4  11   3   27.67    0.67
   4  11   3   28.19    0.61
  -4 -11  -3   27.14    0.86
  -4 -11  -3   26.60    0.77
   4  11   4    3.36    0.34
   4  11   4    3.14    0.40
  -4 -11  -4    2.81    0.48
  -4 -11  -4    2.23    0.37
   4  11   5    0.66    0.19
   4  11   5    1.02    0.27
  -4 -11  -5    1.00    0.25
  -4 -11  -5    0.85    0.19
   4  11   6    2.76    0.22
   4  11   6    2.94    0.32
  -4 -11  -6    2.88    0.28
  -4 -11  -6    2.66    0.21
   4  11   7   12.49    0.47
   4  11   7   12.13    0.47
  -4 -11  -7   12.06    0.63
  -4 -11  -7   11.79    0.43
   4  11   8    0.46    0.15
   4  11   8    0.50    0.26
  -4 -11  -8    0.24    0.22
  -4 -11  -8    0.23    0.21
   4  11   9   25.68    0.67
   4  11   9   24.89    0.46
  -4 -11  -9   24.05    0.60
  -4 -11  -9   22.29    0.53
   4  11  10    1.39    0.14
   4  11  10    1.35    0.50
  -4 -11 -10    0.99    0.41
  -4 -11 -10    0.74    0.20
   4  11  11    0.38    0.28
   4  11  12    2.73    0.36
   4  11  13    4.35    0.41
   4  12  -4    0.04    0.31
   4  12  -4    0.28    0.54
  -4 -12   4    0.02    0.35
  -4 -12   4    0.47    0.37
   4  12  -3   19.08    0.96
   4  12  -3   18.90    1.01
  -4 -12   3   19.58    0.69
  -4 -12   3   19.01    0.74
   4  12  -2    4.29    0.68
   4  12  -2    4.71    0.45
  -4 -12   2    5.26    0.46
  -4 -12   2    5.46    0.76
   4  12  -1    3.46    0.39
   4  12  -1    3.14    0.66
  -4 -12   1    3.41    0.41
  -4 -12   1    2.91    0.39
   4  12   0   40.48    0.88
   4  12   0   41.16    1.23
  -4 -12   0   38.57    0.89
  -4 -12   0   38.06    0.86
   4  12   1    0.75    0.46
   4  12   1    0.04    0.25
  -4 -12  -1    0.08    0.49
  -4 -12  -1    0.51    0.27
   4  12   2   39.52    1.18
   4  12   2   39.96    1.07
  -4 -12  -2   36.80    1.13
  -4 -12  -2   39.25    0.84
   4  12   3   27.57    0.75
   4  12   3   26.75    0.66
  -4 -12  -3   26.13    0.98
  -4 -12  -3   23.78    0.83
   4  12   4   73.26    1.36
   4  12   4   72.68    1.49
  -4 -12  -4   67.20    1.50
  -4 -12  -4   64.56    1.33
   4  12   5   24.97    0.59
   4  12   5   26.04    0.69
  -4 -12  -5   21.99    0.59
  -4 -12  -5   22.42    0.73
   4  12   6    0.24    0.19
   4  12   6    0.23    0.26
  -4 -12  -6    0.28    0.23
  -4 -12  -6   -0.01    0.28
   4  12   7    7.83    0.67
   4  12   7    7.34    0.46
  -4 -12  -7    6.58    0.37
  -4 -12  -7    6.23    0.28
   4  12   8   -0.05    0.53
   4  12   8    1.84    0.33
  -4 -12  -8    0.25    0.46
  -4 -12  -8    2.13    0.30
   4  12   9   24.18    0.68
   4  12   9   22.26    0.49
  -4 -12  -9   21.97    0.59
  -4 -12  -9   20.15    0.44
   4  12  10    9.87    0.50
   4  12  10    9.42    0.30
  -4 -12 -10    9.78    0.43
  -4 -12 -10    8.64    0.28
   4  12  11   -0.02    0.40
  -4 -12 -11    2.65    0.30
   4  12  12    4.02    0.40
   4  13  -2   22.05    0.77
   4  13  -2   20.14    0.71
  -4 -13   2   21.01    0.75
  -4 -13   2   21.33    0.76
   4  13  -1    5.81    0.74
   4  13  -1    4.99    0.48
  -4 -13   1    3.79    0.75
  -4 -13   1    5.20    0.73
   4  13   0   21.96    0.71
   4  13   0   20.76    0.72
  -4 -13   0   20.76    0.71
  -4 -13   0   21.50    0.70
   4  13   1   24.09    0.72
   4  13   1   22.84    0.71
  -4 -13  -1   21.60    0.71
  -4 -13  -1   22.35    0.69
   4  13   2   12.43    0.87
   4  13   2   13.68    0.53
  -4 -13  -2   11.88    0.55
  -4 -13  -2   11.42    0.50
   4  13   3   49.77    1.05
   4  13   3   51.50    1.44
  -4 -13  -3   47.53    1.32
  -4 -13  -3   48.12    1.23
   4  13   4    1.72    0.63
   4  13   4    1.31    0.32
  -4 -13  -4    1.32    0.57
  -4 -13  -4    1.57    0.30
   4  13   5    6.96    0.64
   4  13   5    7.86    0.84
  -4 -13  -5    6.77    0.47
  -4 -13  -5    5.32    0.38
   4  13   6  117.40    1.95
   4  13   6  123.23    2.48
  -4 -13  -6  106.30    1.80
  -4 -13  -6  104.36    1.73
   4  13   7    0.08    0.55
   4  13   7    0.43    0.23
  -4 -13  -7    0.59    0.29
  -4 -13  -7    0.00    0.33
   4  13   8   16.12    0.59
   4  13   8   15.74    0.63
  -4 -13  -8   14.60    0.52
  -4 -13  -8   14.48    0.58
   4  13   9    0.08    0.28
   4  13   9    0.25    0.29
  -4 -13  -9    0.05    0.39
  -4 -13  -9   -0.17    0.16
   4  13  10   -0.02    0.51
   4  13  10    0.79    0.30
  -4 -13 -10    0.27    0.22
  -4 -13 -10   -0.02    0.14
   4  13  11    4.01    0.41
  -4 -13 -11    3.64    0.34
   4  14   2    1.22    0.37
   4  14   2    1.12    0.34
  -4 -14  -2    0.87    0.34
  -4 -14  -2    0.91    0.52
   4  14   3    0.27    0.48
   4  14   3    0.48    0.52
  -4 -14  -3    0.49    0.31
  -4 -14  -3    0.66    0.29
   4  14   4    2.70    0.65
   4  14   4    3.10    0.36
  -4 -14  -4    3.02    0.37
  -4 -14  -4    2.37    0.33
   4  14   5    5.86    0.63
   4  14   5    6.51    0.73
  -4 -14  -5    5.37    0.41
  -4 -14  -5    4.94    0.36
   4  14   6    0.08    0.35
   4  14   6   -0.08    0.26
  -4 -14  -6    0.16    0.25
  -4 -14  -6    0.00    0.33
   4  14   7    1.10    0.26
   4  14   7   -0.03    0.35
  -4 -14  -7    0.73    0.27
  -4 -14  -7    0.00    0.23
   4  14   8    2.70    0.42
   4  14   8    2.69    0.30
  -4 -14  -8    1.58    0.32
  -4 -14  -8    2.07    0.26
   5  -9  -6    4.80    0.46
  -5   9   6    6.59    0.84
  -5   9   6    6.41    0.49
   5  -9  -5    1.07    0.59
  -5   9   5    1.07    0.40
  -5   9   5    1.38    0.61
   5  -9  -4   21.79    0.72
  -5   9   4   22.56    1.10
  -5   9   4   23.44    0.73
   5  -9  -3    2.83    0.40
  -5   9   3    2.45    0.40
  -5   9   3    3.33    0.43
   5  -9  -2    0.06    0.42
  -5   9   2    0.27    0.30
  -5   9   2    0.33    0.31
   5  -9  -1    0.18    0.28
  -5   9   1    0.25    0.30
   5  -9   0    5.17    0.66
  -5   9   0    5.82    0.72
   5  -9   1    8.33    0.48
  -5   9  -1    8.53    0.77
  -5   9  -2   13.47    0.82
  -5   8   8    0.46    0.55
  -5   8   8    0.14    0.56
  -5   8   7    1.28    0.62
  -5   8   7    1.76    0.39
  -5   8   6    0.21    0.48
  -5   8   6    0.17    0.50
   5  -8  -5   10.53    0.52
  -5   8   5   10.81    0.56
  -5   8   5   10.85    0.54
   5  -8  -4   13.59    0.55
  -5   8   4   13.37    0.85
  -5   8   4   14.38    0.57
   5  -8  -3    0.11    0.43
  -5   8   3    0.02    0.28
  -5   8   3    0.28    0.43
   5  -8  -2   16.56    0.85
  -5   8   2   18.19    0.63
  -5   8   2   15.94    0.57
   5  -8  -1   59.73    1.17
  -5   8   1   59.02    1.50
   5  -8   0    2.08    0.55
  -5   8   0    2.41    0.59
   5  -8   1   -0.10    0.24
  -5   8  -1   -0.10    0.41
   5  -8   2    0.02    0.22
   5  -8   2    0.27    0.38
  -5   8  -2    0.09    0.38
  -5   8  -2    0.03    0.12
   5  -8   3    1.10    0.20
   5  -8   3    0.74    0.30
  -5   8  -3    0.74    0.47
  -5   8  -3    0.63    0.28
   5  -8   4   12.20    0.57
   5  -8   4   12.44    0.49
  -5   8  -4   12.91    0.73
  -5   8  -4   10.84    0.37
  -5   7   9    8.21    0.52
  -5   7   9    8.76    0.54
  -5   7   8   23.77    0.75
  -5   7   8   23.19    0.75
  -5   7   7   12.28    0.58
  -5   7   7   12.87    0.86
  -5   7   6   -0.14    0.26
  -5   7   6    0.32    0.27
   5  -7  -5    0.68    0.29
  -5   7   5    0.42    0.49
  -5   7   5    0.58    0.29
   5  -7  -4    0.03    0.36
  -5   7   4    0.14    0.25
  -5   7   4    0.03    0.40
   5  -7  -3    0.39    0.41
  -5   7   3    0.37    0.27
  -5   7   3    0.35    0.42
   5  -7  -2    0.89    0.28
  -5   7   2    1.10    0.49
  -5   7   2    0.78    0.28
   5  -7  -1   32.71    0.74
  -5   7   1   33.86    1.04
   5  -7   0    0.20    0.14
   5  -7   0    0.28    0.38
  -5   7   0    0.33    0.41
   5  -7   1   12.82    0.30
   5  -7   1   13.56    0.48
  -5   7  -1   12.43    0.36
  -5   7  -1   14.16    0.73
   5  -7   2   79.05    1.31
   5  -7   2   83.74    1.66
  -5   7  -2   87.45    1.75
  -5   7  -2   76.51    1.14
   5  -7   3    3.74    0.35
   5  -7   3    4.05    0.32
  -5   7  -3    4.27    0.52
  -5   7  -3    3.72    0.21
   5  -7   4    1.62    0.22
   5  -7   4    1.39    0.27
  -5   7  -4    1.24    0.28
  -5   7  -4    1.45    0.19
   5  -7   5    4.88    0.46
   5  -7   5    4.63    0.51
  -5   7  -5    4.88    0.34
  -5   7  -5    4.97    0.28
   5  -7   6    3.58    0.31
   5  -7   6    3.03    0.30
  -5   7  -6    3.52    0.49
  -5   7  -6    3.46    0.29
  -5   6  10    1.28    0.58
  -5   6  10    1.78    0.57
  -5   6   9    6.73    0.72
  -5   6   9    6.30    0.46
  -5   6   8    0.77    0.55
  -5   6   8    1.21    0.34
  -5   6   7   20.69    0.64
  -5   6   7   20.03    0.91
  -5   6   6   15.83    0.84
  -5   6   6   15.63    0.57
  -5   6   5   14.78    0.52
  -5   6   5   15.56    0.54
   5  -6  -4    0.39    0.25
  -5   6   4    0.22    0.25
  -5   6   4    0.07    0.24
   5  -6  -3    0.03    0.19
  -5   6   3    0.14    0.36
  -5   6   3   -0.14    0.21
   5  -6  -2    6.79    0.35
  -5   6   2    7.14    0.37
  -5   6   2    6.89    0.35
   5  -6  -1    4.89    0.14
   5  -6  -1    5.97    0.50
  -5   6   1    5.48    0.33
  -5   6   1    5.65    0.32
  -5   6   1    4.88    0.14
   5  -6   0    0.09    0.11
   5  -6   0    0.05    0.19
  -5   6   0    0.03    0.19
  -5   6   0    0.03    0.10
   5  -6   1    4.75    0.25
   5  -6   1    4.41    0.31
  -5   6  -1    4.70    0.32
  -5   6  -1    5.10    0.16
   5  -6   2   34.42    0.57
   5  -6   2   37.24    0.92
  -5   6  -2   36.67    0.93
  -5   6  -2   34.90    0.64
   5  -6   3    1.42    0.17
   5  -6   3    1.48    0.24
  -5   6  -3    1.69    0.39
  -5   6  -3    1.33    0.16
   5  -6   4    0.25    0.16
   5  -6   4    0.08    0.20
  -5   6  -4    0.54    0.16
  -5   6  -4    0.32    0.21
   5  -6   5   29.00    0.61
   5  -6   5   30.23    0.82
  -5   6  -5   31.75    0.85
  -5   6  -5   29.53    0.60
   5  -6   6    1.11    0.39
   5  -6   6    1.17    0.22
  -5   6  -6    1.20    0.23
  -5   6  -6    1.09    0.23
   5  -6   7    1.44    0.45
   5  -6   7    1.50    0.23
  -5   6  -7    1.74    0.38
  -5   6  -7    1.25    0.42
   5  -6   8    2.68    0.25
   5  -6   8    2.78    0.35
  -5   6  -8    3.38    0.32
  -5   6  -8    3.01    0.27
  -5   5  11    4.95    0.41
  -5   5  11    5.72    0.45
  -5   5  10   -0.14    0.23
  -5   5  10    0.09    0.24
  -5   5   9    1.18    0.50
  -5   5   9    0.87    0.52
  -5   5   8    1.96    0.53
  -5   5   8    2.23    0.53
  -5   5   7    2.38    0.33
  -5   5   7    2.43    0.51
  -5   5   6    0.55    0.44
  -5   5   6    0.61    0.26
  -5   5   5    1.13    0.46
  -5   5   5    2.05    0.30
  -5   5   4    0.22    0.36
  -5   5   4    0.22    0.22
   5  -5  -3    8.43    0.37
  -5   5   3    7.31    0.36
  -5   5   3    7.99    0.36
   5  -5  -2    1.74    0.25
  -5   5   2    2.03    0.27
  -5   5   2    2.02    0.25
   5  -5  -1   12.00    0.39
   5  -5  -1   10.97    0.19
  -5   5   1   11.69    0.19
  -5   5   1   12.34    0.40
  -5   5   1   11.71    0.39
   5  -5   0    0.75    0.33
   5  -5   0    0.66    0.12
  -5   5   0    0.89    0.07
  -5   5   0    0.62    0.22
   5  -5   1    0.01    0.26
   5  -5   1    0.08    0.13
  -5   5  -1    0.16    0.12
  -5   5  -1   -0.02    0.18
   5  -5   2    1.28    0.13
   5  -5   2    1.10    0.21
  -5   5  -2    1.59    0.21
  -5   5  -2    1.26    0.12
   5  -5   3    0.64    0.14
   5  -5   3    1.00    0.31
  -5   5  -3    0.99    0.32
  -5   5  -3    0.64    0.21
   5  -5   4    3.82    0.33
   5  -5   4    3.95    0.25
  -5   5  -4    4.02    0.25
  -5   5  -4    3.75    0.31
   5  -5   5    4.09    0.25
   5  -5   5    3.89    0.38
  -5   5  -5    4.69    0.39
  -5   5  -5    4.39    0.36
   5  -5   6    6.13    0.30
   5  -5   6    5.90    0.27
  -5   5  -6    6.15    0.28
  -5   5  -6    6.35    0.45
   5  -5   7    0.54    0.23
   5  -5   7    0.50    0.18
  -5   5  -7    0.85    0.19
  -5   5  -7    0.65    0.24
   5  -5   8    7.81    0.38
   5  -5   8    6.68    0.28
  -5   5  -8    6.95    0.38
  -5   5  -8    7.64    0.44
   5  -5   9    0.76    0.28
   5  -5   9    0.53    0.17
  -5   5  -9    0.57    0.27
  -5   5  -9    0.57    0.18
  -5   4  11    4.65    0.41
  -5   4  10    1.46    0.30
  -5   4   9    1.00    0.29
  -5   4   8    3.13    0.33
  -5   4   8    3.26    0.33
  -5   4   7    0.82    0.44
  -5   4   7    0.97    0.44
  -5   4   6    0.50    0.25
  -5   4   6    0.54    0.39
  -5   4   5    0.38    0.36
  -5   4   5    0.41    0.23
  -5   4   4    7.27    0.52
  -5   4   4    7.07    0.34
  -5   4   3   42.84    0.95
  -5   4   3   42.83    0.97
   5  -4  -2    2.51    0.40
  -5   4   2    2.38    0.25
  -5   4   2    2.16    0.39
   5  -4  -1   16.51    0.41
   5  -4  -1   15.24    0.19
  -5   4   1   16.28    0.42
  -5   4   1   15.80    0.41
   5  -4   0    0.20    0.16
   5  -4   0    0.17    0.08
   5  -4   0    0.14    0.09
  -5   4   0    0.11    0.08
  -5   4   0    0.14    0.27
  -5   4   0    0.16    0.16
   5  -4   1   53.72    0.85
   5  -4   1   50.33    0.72
  -5   4  -1   51.75    0.99
  -5   4  -1   51.28    0.67
   5  -4   2    9.89    0.22
   5  -4   2   10.27    0.46
  -5   4  -2   10.56    0.33
  -5   4  -2   10.59    0.23
   5  -4   3   -0.06    0.09
   5  -4   3    0.01    0.14
  -5   4  -3    0.00    0.21
  -5   4  -3   -0.02    0.14
   5  -4   4    0.60    0.26
   5  -4   4    0.57    0.23
  -5   4  -4    0.49    0.14
  -5   4  -4    1.00    0.17
   5  -4   5    5.37    0.36
   5  -4   5    6.05    0.24
  -5   4  -5    5.58    0.24
  -5   4  -5    5.87    0.25
   5  -4   6    5.62    0.27
   5  -4   6    5.12    0.35
  -5   4  -6    4.88    0.35
  -5   4  -6    5.37    0.27
   5  -4   7    0.85    0.21
   5  -4   7    0.70    0.15
  -5   4  -7    0.61    0.21
  -5   4  -7    0.68    0.25
   5  -4   8    5.31    0.53
   5  -4   8    6.04    0.24
  -5   4  -8    6.57    0.35
  -5   4  -8    6.29    0.25
   5  -4   9    1.04    0.52
   5  -4   9    1.83    0.18
  -5   4  -9    2.34    0.19
  -5   4  -9    1.85    0.50
   5  -4  10    0.29    0.29
  -5   4 -10    0.36    0.27
  -5   3  12    0.10    0.26
  -5   3  11    2.39    0.34
  -5   3  10    3.54    0.57
  -5   3   9    5.75    0.58
  -5   3   9    5.80    0.60
  -5   3   8   10.39    0.64
  -5   3   8   10.88    0.65
  -5   3   7   12.96    0.66
  -5   3   7   13.21    0.45
  -5   3   6    8.92    0.56
  -5   3   6    8.48    0.37
  -5   3   5    5.86    0.49
  -5   3   5    6.19    0.51
  -5   3   4   33.21    0.65
  -5   3   4   32.49    0.81
  -5   3   3    1.37    0.34
  -5   3   3    1.08    0.21
  -5   3   2   35.55    0.79
  -5   3   2   35.67    0.81
   5  -3  -1   14.57    0.36
   5  -3  -1   13.63    0.16
  -5   3   1   14.01    0.36
  -5   3   1   14.17    0.52
   5  -3   0   73.30    0.89
   5  -3   0   76.59    1.12
   5  -3   0   73.06    0.88
  -5   3   0   74.65    1.10
  -5   3   0   74.61    1.10
   5  -3   1    6.63    0.25
   5  -3   1    5.69    0.19
   5  -3   1    5.60    0.19
  -5   3  -1    6.04    0.19
  -5   3  -1    6.70    0.25
  -5   3  -1    6.07    0.25
   5  -3   2   46.68    0.70
   5  -3   2   49.07    0.74
  -5   3  -2   48.88    0.65
  -5   3  -2   48.13    0.87
   5  -3   3  154.10    2.06
   5  -3   3  163.65    2.37
  -5   3  -3  164.34    2.26
  -5   3  -3  163.94    2.28
   5  -3   4   73.96    1.07
  -5   3  -4   72.20    1.06
  -5   3  -4   73.07    1.06
   5  -3   5   31.56    0.69
   5  -3   5   33.03    0.68
  -5   3  -5   33.10    0.56
  -5   3  -5   33.01    0.71
   5  -3   6    1.22    0.31
   5  -3   6    1.21    0.15
  -5   3  -6    1.28    0.15
  -5   3  -6    1.20    0.30
   5  -3   7    1.61    0.36
   5  -3   7    1.60    0.24
  -5   3  -7    1.82    0.15
  -5   3  -7    1.69    0.36
   5  -3   8   14.88    0.46
   5  -3   8   14.48    0.42
  -5   3  -8   14.32    0.33
  -5   3  -8   15.68    0.46
   5  -3   9   13.31    0.49
   5  -3   9   12.36    0.39
  -5   3  -9   13.13    0.41
  -5   3  -9   14.00    0.48
   5  -3  10    0.51    0.46
  -5   3 -10    0.23    0.25
   5  -3  11    2.59    0.37
  -5   3 -11    2.11    0.57
  -5   2  12    3.91    0.62
  -5   2  11    4.49    0.62
  -5   2  10   -0.27    0.42
  -5   2   9    7.69    0.40
  -5   2   9    8.20    0.62
  -5   2   8    9.40    0.62
  -5   2   8    9.03    0.41
  -5   2   7   21.76    0.55
  -5   2   7   21.55    0.55
  -5   2   6    0.76    0.22
  -5   2   6    0.56    0.36
  -5   2   5   76.68    1.22
  -5   2   5   78.13    1.23
  -5   2   4    8.80    0.32
  -5   2   4    8.75    0.33
  -5   2   3   25.53    0.51
  -5   2   3   26.04    0.51
  -5   2   2   21.79    0.44
  -5   2   2   21.19    0.44
   5  -2  -1   68.66    0.71
   5  -2  -1   71.67    0.74
  -5   2   1   72.81    1.05
  -5   2   1   71.78    1.03
   5  -2   0   34.93    0.57
   5  -2   0   33.21    0.39
   5  -2   0   32.72    0.41
  -5   2   0   34.19    0.56
  -5   2   0   34.05    0.56
   5  -2   1    4.72    0.16
   5  -2   1    4.83    0.19
   5  -2   1    4.63    0.12
  -5   2  -1    5.22    0.20
  -5   2  -1    4.83    0.20
   5  -2   2    0.03    0.07
   5  -2   2   -0.08    0.16
   5  -2   2    0.00    0.10
  -5   2  -2    0.07    0.07
  -5   2  -2    0.08    0.17
  -5   2  -2    0.01    0.11
   5  -2   3   52.61    0.72
   5  -2   3   53.11    0.73
   5  -2   3   56.73    0.90
  -5   2  -3   53.21    0.76
  -5   2  -3   54.12    0.88
  -5   2  -3   55.35    0.84
   5  -2   4   22.50    0.39
   5  -2   4   23.60    0.40
  -5   2  -4   22.94    0.49
  -5   2  -4   22.97    0.40
   5  -2   5   20.27    0.53
   5  -2   5   21.96    0.47
  -5   2  -5   21.75    0.54
  -5   2  -5   21.41    0.38
   5  -2   6  266.24    4.00
   5  -2   6  271.77    3.72
  -5   2  -6  264.36    3.57
  -5   2  -6  270.27    4.04
   5  -2   7    3.72    0.26
   5  -2   7    3.19    0.24
  -5   2  -7    4.35    0.25
  -5   2  -7    3.38    0.26
   5  -2   8   33.63    0.69
   5  -2   8   32.60    0.51
  -5   2  -8   33.66    0.52
  -5   2  -8   34.19    0.88
   5  -2   9   16.85    0.72
   5  -2   9   14.09    0.29
  -5   2  -9   15.56    0.38
  -5   2  -9   15.66    0.70
   5  -2  10    0.21    0.25
  -5   2 -10   -0.08    0.36
   5  -2  11   11.87    0.79
  -5   2 -11   11.05    0.49
   5  -2  12    0.14    0.30
  -5   2 -12    0.10    0.26
  -5   1  12    0.87    0.51
  -5   1  11    7.53    0.67
  -5   1  10   12.23    0.48
   5  -1  -9    0.89    0.26
  -5   1   9    2.85    0.32
  -5   1   9    2.34    0.50
   5  -1  -8    3.19    0.31
  -5   1   8    3.96    0.51
  -5   1   8    3.39    0.14
  -5   1   8    3.79    0.32
   5  -1  -7    4.09    0.09
   5  -1  -7    2.52    0.30
  -5   1   7    5.65    0.51
  -5   1   7    5.01    0.32
  -5   1   6    1.70    0.24
  -5   1   6    1.76    0.24
  -5   1   5    4.28    0.26
  -5   1   5    4.10    0.27
  -5   1   4    5.88    0.43
  -5   1   4    6.50    0.44
  -5   1   3    2.95    0.35
  -5   1   3    2.86    0.22
  -5   1   2   32.66    0.69
  -5   1   2   32.36    0.68
   5  -1  -1    2.05    0.07
  -5   1   1    2.00    0.27
  -5   1   1    1.99    0.17
   5  -1   0   19.98    0.29
   5  -1   0   19.34    0.27
  -5   1   0   19.73    0.36
  -5   1   0   20.05    0.37
   5  -1   1   78.86    0.94
   5  -1   1   78.67    0.93
  -5   1  -1   77.39    1.05
  -5   1  -1   79.17    1.06
   5  -1   2   49.64    0.69
   5  -1   2   46.51    0.60
   5  -1   2   47.05    0.61
  -5   1  -2   47.22    0.67
  -5   1  -2   47.65    0.68
   5  -1   3    6.11    0.25
   5  -1   3    5.93    0.18
   5  -1   3    5.88    0.23
  -5   1  -3    6.51    0.25
  -5   1  -3    6.12    0.18
  -5   1  -3    5.70    0.18
   5  -1   4   -0.03    0.18
   5  -1   4    0.42    0.10
   5  -1   4    0.05    0.14
  -5   1  -4    0.01    0.14
  -5   1  -4    0.36    0.09
  -5   1  -4    0.01    0.18
   5  -1   5   12.70    0.30
   5  -1   5   12.46    0.30
   5  -1   5   13.06    0.25
  -5   1  -5   12.47    0.24
  -5   1  -5   12.77    0.31
  -5   1  -5   13.36    0.30
   5  -1   6    4.49    0.34
   5  -1   6    4.72    0.20
  -5   1  -6    4.50    0.21
  -5   1  -6    4.80    0.34
   5  -1   7   11.68    0.35
   5  -1   7   11.66    0.29
  -5   1  -7   11.77    0.29
  -5   1  -7   12.10    0.35
   5  -1   8    0.45    0.32
   5  -1   8    0.25    0.13
  -5   1  -8    0.65    0.14
  -5   1  -8    0.36    0.20
   5  -1   9  117.76    1.88
   5  -1   9  104.55    1.47
  -5   1  -9  112.96    1.53
  -5   1  -9  117.45    1.87
   5  -1  10    9.06    0.67
  -5   1 -10   10.16    0.43
   5  -1  11   -0.11    0.32
   5  -1  11    3.74    0.35
  -5   1 -11    3.63    0.57
   5  -1  12   15.25    0.58
   5  -1  12   16.42    0.91
  -5   1 -12   15.14    0.59
   5  -1  13    2.43    0.41
   5  -1  13    2.56    0.44
  -5   1 -13    3.25    0.42
   5   0 -12    2.16    0.32
  -5   0  12    1.11    0.34
   5   0 -11    0.74    0.45
  -5   0  11    0.90    0.30
   5   0 -10    1.04    0.43
   5   0 -10    0.46    0.17
  -5   0  10    1.04    0.28
  -5   0  10    0.51    0.19
   5   0  -9    2.14    0.29
   5   0  -9    1.63    0.11
  -5   0   9    2.08    0.30
  -5   0   9    1.99    0.20
  -5   0   9    1.88    0.29
   5   0  -8   42.09    0.83
   5   0  -8   35.34    0.50
  -5   0   8   43.45    1.09
  -5   0   8   39.14    0.65
  -5   0   8   41.05    0.84
   5   0  -7   52.81    0.94
   5   0  -7   47.11    0.67
  -5   0   7   53.30    1.19
  -5   0   7   51.86    0.94
  -5   0   7   49.22    0.72
   5   0  -6   13.55    0.41
   5   0  -6   12.52    0.23
  -5   0   6   13.45    0.25
  -5   0   6   14.13    0.41
  -5   0   6   14.03    0.41
   5   0  -5   32.43    0.63
  -5   0   5   32.01    0.41
  -5   0   5   31.97    0.62
  -5   0   5   32.20    0.62
   5   0  -4   -0.01    0.03
  -5   0   4   63.08    1.13
  -5   0   4   61.69    0.71
  -5   0   4   62.84    0.97
   5   0  -3    0.01    0.03
  -5   0   3  195.80    2.26
  -5   0   3  186.13    2.54
  -5   0   3  187.53    2.56
   5   0  -2   20.98    0.26
   5   0  -2   21.58    0.42
  -5   0   2   21.59    0.25
  -5   0   2   20.34    0.54
  -5   0   2   20.98    0.55
   5   0  -1   11.83    0.20
   5   0  -1   11.67    0.19
  -5   0   1   12.06    0.39
  -5   0   1   11.16    0.27
   5   0   0   88.95    1.07
  -5   0   0   86.35    1.14
  -5   0   0   86.95    1.26
   5   0   1   82.13    1.04
   5   0   1   80.42    1.01
  -5   0  -1   78.70    1.04
  -5   0  -1   78.32    1.03
   5   0   2  190.30    2.37
   5   0   2  190.22    2.43
  -5   0  -2  184.84    2.37
  -5   0  -2  191.99    2.55
   5   0   3   12.96    0.25
   5   0   3   12.96    0.31
  -5   0  -3   13.33    0.31
  -5   0  -3   12.94    0.24
   5   0   4    9.68    0.22
   5   0   4    9.63    0.24
  -5   0  -4   10.22    0.25
  -5   0  -4   10.29    0.25
  -5   0  -4    9.65    0.25
   5   0   5   31.62    0.42
   5   0   5   29.65    0.50
   5   0   5   29.90    0.49
  -5   0  -5   31.85    0.52
  -5   0  -5   30.24    0.47
  -5   0  -5   29.56    0.40
   5   0   6   70.30    1.17
   5   0   6   72.18    0.94
   5   0   6   70.92    1.16
  -5   0  -6   71.76    0.88
  -5   0  -6   74.50    1.22
  -5   0  -6   71.05    0.92
   5   0   7    0.06    0.14
   5   0   7    0.09    0.05
   5   0   7    0.08    0.14
  -5   0  -7    0.06    0.08
  -5   0  -7    0.03    0.05
  -5   0  -7    0.13    0.14
   5   0   8    9.80    0.33
   5   0   8    9.25    0.16
   5   0   8    9.51    0.33
  -5   0  -8   10.01    0.34
  -5   0  -8    9.76    0.20
  -5   0  -8    9.55    0.16
   5   0   9    1.09    0.24
   5   0   9    1.01    0.08
   5   0   9    1.36    0.38
  -5   0  -9    1.20    0.09
  -5   0  -9    1.06    0.25
   5   0  10    2.10    0.28
   5   0  10    1.01    0.28
  -5   0 -10    1.14    0.28
   5   0  11    8.85    0.46
   5   0  11    8.88    0.46
  -5   0 -11    8.97    0.45
   5   0  12   14.76    0.57
   5   0  12   14.75    0.87
  -5   0 -12   14.54    0.57
   5   0  13    5.54    0.76
   5   0  13    6.57    0.50
  -5   0 -13    6.43    0.76
   5   1 -12    4.77    0.41
  -5  -1  12    5.65    0.44
   5   1 -11    1.66    0.50
   5   1 -11    1.72    0.25
  -5  -1  11    1.25    0.32
  -5  -1  11    1.38    0.19
   5   1 -10    0.38    0.25
   5   1 -10    0.26    0.19
  -5  -1  10    0.04    0.40
  -5  -1  10    0.23    0.21
   5   1  -9    0.67    0.25
   5   1  -9    0.36    0.18
  -5  -1   9    0.49    0.24
  -5  -1   9    0.38    0.24
  -5  -1   9    0.35    0.20
   5   1  -8    6.57    0.55
   5   1  -8    6.12    0.18
  -5  -1   8    6.66    0.36
  -5  -1   8    6.91    0.30
   5   1  -7   15.21    0.65
   5   1  -7   13.81    0.33
  -5  -1   7   14.54    0.46
  -5  -1   7   14.76    0.37
   5   1  -6   13.12    0.24
   5   1  -6   14.05    0.41
  -5  -1   6   15.08    0.62
  -5  -1   6   14.18    0.33
   5   1  -5   16.76    0.43
   5   1  -5   16.31    0.25
  -5  -1   5   16.85    0.42
  -5  -1   5   16.63    0.34
   5   1  -4   55.47    1.06
   5   1  -4   53.32    0.71
  -5  -1   4   56.50    0.76
  -5  -1   4   55.15    0.89
   5   1  -3   54.20    0.83
   5   1  -3   52.17    0.62
  -5  -1   3   53.38    0.81
  -5  -1   3   55.69    0.72
  -5  -1   3   53.87    0.83
   5   1  -2   33.15    0.55
   5   1  -2   32.98    0.41
  -5  -1   2   32.84    0.54
  -5  -1   2   34.84    0.47
  -5  -1   2   33.36    0.68
   5   1  -1  177.67    2.32
   5   1  -1  178.19    2.18
  -5  -1   1  182.97    2.15
  -5  -1   1  166.89    2.20
  -5  -1   1  171.73    2.26
   5   1   0   63.37    0.80
   5   1   0   64.29    0.86
   5   1   0   63.58    0.83
  -5  -1   0   64.33    0.81
  -5  -1   0   60.99    0.82
  -5  -1   0   60.36    0.82
   5   1   1   18.19    0.27
   5   1   1   17.44    0.31
  -5  -1  -1   17.05    0.38
  -5  -1  -1   16.99    0.30
   5   1   2   45.55    0.61
   5   1   2   45.14    0.59
  -5  -1  -2   44.56    0.59
  -5  -1  -2   44.42    0.59
   5   1   3  365.81    4.87
   5   1   3  371.42    4.87
  -5  -1  -3  370.57    4.91
  -5  -1  -3  374.11    4.90
   5   1   4  171.06    2.35
   5   1   4  169.60    2.30
  -5  -1  -4  168.79    2.05
  -5  -1  -4  171.36    2.09
   5   1   5   81.10    1.24
   5   1   5   81.15    1.23
  -5  -1  -5   82.46    1.02
  -5  -1  -5   80.69    1.00
   5   1   6    4.53    0.23
   5   1   6    4.05    0.33
  -5  -1  -6    4.48    0.23
  -5  -1  -6    4.44    0.09
  -5  -1  -6    4.59    0.13
   5   1   7   19.39    0.60
   5   1   7   19.14    0.41
  -5  -1  -7   21.08    0.61
  -5  -1  -7   19.80    0.27
   5   1   8   28.55    0.58
   5   1   8   27.79    0.56
  -5  -1  -8   29.12    0.59
  -5  -1  -8   26.65    0.30
   5   1   9   15.01    0.44
   5   1   9   15.10    0.45
  -5  -1  -9   15.48    0.45
   5   1  10    0.81    0.25
   5   1  10    0.48    0.39
  -5  -1 -10    0.57    0.24
   5   1  11    4.17    0.35
   5   1  11    4.57    0.56
  -5  -1 -11    4.37    0.36
   5   1  12    0.32    0.29
   5   1  12    0.52    0.30
  -5  -1 -12    0.57    0.30
   5   1  13    0.54    0.33
   5   1  13    0.52    0.34
  -5  -1 -13    0.20    0.30
   5   1  14    1.01    0.62
   5   1  14    1.27    0.65
  -5  -1 -14    1.30    0.63
   5   2 -12   -0.26    0.25
   5   2 -12    0.19    0.15
  -5  -2  12    0.30    0.19
  -5  -2  12   -0.19    0.47
   5   2 -11    0.84    0.30
   5   2 -11    0.80    0.18
  -5  -2  11    0.71    0.20
  -5  -2  11    0.58    0.51
   5   2 -10    4.22    0.36
   5   2 -10    4.01    0.22
  -5  -2  10    4.39    0.25
  -5  -2  10    5.20    0.39
   5   2  -9    2.64    0.50
   5   2  -9    2.50    0.26
  -5  -2   9    3.22    0.32
  -5  -2   9    2.18    0.31
   5   2  -8    5.98    0.35
   5   2  -8    5.98    0.30
  -5  -2   8    6.46    0.55
  -5  -2   8    5.99    0.24
   5   2  -7    7.30    0.35
   5   2  -7    6.96    0.20
  -5  -2   7    7.54    0.35
  -5  -2   7    7.80    0.34
   5   2  -6    6.92    0.47
   5   2  -6    6.26    0.18
  -5  -2   6    6.68    0.32
  -5  -2   6    6.40    0.30
   5   2  -5   16.62    0.58
   5   2  -5   15.43    0.28
  -5  -2   5   16.64    0.59
  -5  -2   5   16.67    0.31
   5   2  -4  136.12    2.10
   5   2  -4  132.74    1.69
  -5  -2   4  134.99    1.93
  -5  -2   4  142.59    1.94
   5   2  -3   10.94    0.31
   5   2  -3   10.94    0.21
  -5  -2   3   10.86    0.32
  -5  -2   3   11.59    0.30
   5   2  -2   51.18    0.76
   5   2  -2   51.02    0.65
  -5  -2   2   51.18    0.77
  -5  -2   2   52.76    0.75
   5   2  -1   13.99    0.41
   5   2  -1   13.92    0.31
  -5  -2   1   13.75    0.24
  -5  -2   1   13.42    0.30
   5   2   0    3.19    0.15
   5   2   0    3.75    0.14
  -5  -2   0    3.48    0.19
  -5  -2   0    3.55    0.16
   5   2   1    0.31    0.08
   5   2   1    0.35    0.09
   5   2   1    0.25    0.08
  -5  -2  -1    0.30    0.09
  -5  -2  -1    0.30    0.08
  -5  -2  -1    0.90    0.15
   5   2   2    0.15    0.14
   5   2   2    0.72    0.16
   5   2   2    0.09    0.14
  -5  -2  -2    0.15    0.14
  -5  -2  -2    0.18    0.12
  -5  -2  -2    0.11    0.08
   5   2   3   38.05    0.55
   5   2   3   38.51    0.63
  -5  -2  -3   38.89    0.55
  -5  -2  -3   38.71    0.49
   5   2   4   82.61    1.23
   5   2   4   81.63    1.08
  -5  -2  -4   82.55    1.02
  -5  -2  -4   81.68    0.95
   5   2   5   10.67    0.29
   5   2   5   10.30    0.27
  -5  -2  -5   10.12    0.19
  -5  -2  -5   10.12    0.19
   5   2   6   97.78    1.55
   5   2   6   98.80    1.53
  -5  -2  -6    0.01    0.03
   5   2   7  172.75    2.45
   5   2   7  172.74    2.60
   5   2   8    0.69    0.22
   5   2   8    0.59    0.35
   5   2   9    5.43    0.33
   5   2   9    5.71    0.34
  -5  -2  -9    5.43    0.33
   5   2  10    0.22    0.23
   5   2  10    0.12    0.22
  -5  -2 -10    0.21    0.24
   5   2  11    0.21    0.23
   5   2  11    0.02    0.23
  -5  -2 -11    0.22    0.25
   5   2  12    0.99    0.30
   5   2  12    0.96    0.30
  -5  -2 -12    0.68    0.30
   5   2  13    0.06    0.24
   5   2  13   -0.14    0.39
  -5  -2 -13    0.05    0.27
   5   2  14    0.30    0.32
   5   2  14    0.41    0.56
  -5  -2 -14    0.15    0.31
   5   3 -11    8.32    0.48
   5   3 -11    6.69    0.31
  -5  -3  11    7.50    0.37
  -5  -3  11    8.55    0.51
   5   3 -10    7.01    0.42
   5   3 -10    5.99    0.41
  -5  -3  10    6.41    0.33
  -5  -3  10    6.74    0.44
   5   3  -9    2.08    0.31
   5   3  -9    2.21    0.31
  -5  -3   9    2.37    0.37
  -5  -3   9    2.51    0.54
   5   3  -8    8.55    0.28
   5   3  -8    8.49    0.40
  -5  -3   8    9.45    0.32
  -5  -3   8    9.61    0.43
   5   3  -7   13.51    0.63
   5   3  -7   12.44    0.42
  -5  -3   7   13.44    0.66
  -5  -3   7   12.93    0.48
   5   3  -6    5.26    0.30
   5   3  -6    4.94    0.19
  -5  -3   6    5.22    0.22
  -5  -3   6    5.26    0.30
   5   3  -5   57.19    0.94
   5   3  -5   54.69    0.79
  -5  -3   5   57.17    0.94
  -5  -3   5   58.20    0.86
   5   3  -4   23.71    0.49
   5   3  -4   22.99    0.39
  -5  -3   4   24.14    0.51
  -5  -3   4   24.44    0.54
   5   3  -3   39.77    0.65
   5   3  -3   38.98    0.57
  -5  -3   3   40.92    0.83
  -5  -3   3   41.78    0.61
   5   3  -2  104.23    1.42
   5   3  -2  102.89    1.33
  -5  -3   2  103.36    1.42
  -5  -3   2  107.31    1.38
   5   3  -1  124.21    1.63
   5   3  -1  126.52    1.70
  -5  -3   1  128.54    1.62
  -5  -3   1  121.82    1.61
   5   3   0    2.65    0.24
   5   3   0    2.82    0.23
  -5  -3   0    2.88    0.25
  -5  -3   0    2.94    0.14
   5   3   1   41.66    0.57
   5   3   1   41.73    0.58
  -5  -3  -1   42.60    0.57
  -5  -3  -1   39.65    0.63
   5   3   2    4.38    0.17
   5   3   2    4.28    0.19
  -5  -3  -2    4.39    0.16
  -5  -3  -2    4.11    0.19
   5   3   3  317.52    4.22
   5   3   3  337.18    4.26
   5   3   3  316.65    4.26
  -5  -3  -3  319.85    4.07
  -5  -3  -3  336.99    4.40
  -5  -3  -3  319.82    4.12
   5   3   4    0.34    0.19
   5   3   4    0.11    0.22
   5   3   4    0.20    0.06
  -5  -3  -4    0.17    0.13
  -5  -3  -4    0.31    0.09
  -5  -3  -4    0.28    0.09
   5   3   5   14.73    0.35
   5   3   5   14.25    0.32
  -5  -3  -5   14.48    0.19
  -5  -3  -5   14.66    0.21
   5   3   6  406.85    5.67
   5   3   6  409.32    5.85
  -5  -3  -6  415.33    4.95
  -5  -3  -6  427.14    5.06
   5   3   7   14.01    0.41
   5   3   7   13.67    0.56
   5   3   8   50.58    1.09
   5   3   8   50.02    0.86
   5   3   9    3.82    0.34
   5   3   9    3.13    0.33
   5   3  10  386.14    5.95
   5   3  10  384.51    5.87
   5   3  11   26.91    0.73
   5   3  11   28.27    1.00
   5   3  12    0.03    0.26
   5   3  12    0.29    0.42
   5   3  13    2.71    0.40
   5   3  13    2.81    0.62
   5   3  14   10.65    0.57
   5   3  14   11.11    0.56
   5   4 -11    5.69    0.43
   5   4 -11    5.40    0.31
  -5  -4  11    6.47    0.60
  -5  -4  11    6.70    0.49
   5   4 -10   10.74    0.74
   5   4 -10    9.30    0.37
  -5  -4  10   12.37    0.83
  -5  -4  10   11.78    0.65
   5   4  -9    3.27    0.35
   5   4  -9    2.74    0.40
  -5  -4   9    2.36    0.44
  -5  -4   9    2.36    0.36
   5   4  -8    8.95    0.66
   5   4  -8    8.10    0.46
  -5  -4   8    8.62    0.35
  -5  -4   8    9.60    0.70
   5   4  -7   26.65    0.66
   5   4  -7   24.93    0.52
  -5  -4   7   25.95    0.75
  -5  -4   7   27.33    0.68
   5   4  -6   10.39    0.39
   5   4  -6    9.71    0.43
  -5  -4   6    9.77    0.33
  -5  -4   6   10.76    0.61
   5   4  -5    7.04    0.35
   5   4  -5    7.03    0.49
  -5  -4   5    7.17    0.26
  -5  -4   5    7.27    0.34
   5   4  -4   10.50    0.27
   5   4  -4   11.05    0.35
  -5  -4   4   11.27    0.30
  -5  -4   4   11.25    0.36
   5   4  -3    1.23    0.19
   5   4  -3    1.28    0.15
  -5  -4   3    1.23    0.17
  -5  -4   3    1.27    0.33
   5   4  -2  101.21    1.48
   5   4  -2  101.94    1.40
  -5  -4   2  105.90    1.55
  -5  -4   2  100.84    1.41
   5   4  -1   30.69    0.48
   5   4  -1   30.86    0.51
  -5  -4   1   31.18    0.49
  -5  -4   1   29.70    0.50
   5   4   0    7.99    0.23
   5   4   0    7.72    0.22
  -5  -4   0    8.79    0.23
  -5  -4   0    7.98    0.22
   5   4   1    7.80    0.22
   5   4   1    7.46    0.27
  -5  -4  -1    7.77    0.21
  -5  -4  -1    7.06    0.19
   5   4   2   35.98    0.54
   5   4   2   34.91    0.48
  -5  -4  -2   36.58    0.54
  -5  -4  -2   34.04    0.55
   5   4   3   31.26    0.41
   5   4   3   30.47    0.50
  -5  -4  -3   30.95    0.48
  -5  -4  -3   29.90    0.46
   5   4   4   12.43    0.30
   5   4   4   12.47    0.19
   5   4   4   12.58    0.39
  -5  -4  -4   12.41    0.40
  -5  -4  -4   12.55    0.24
   5   4   5    4.03    0.19
   5   4   5    3.96    0.22
   5   4   5    3.81    0.08
  -5  -4  -5    3.55    0.20
  -5  -4  -5    3.55    0.08
  -5  -4  -5    3.59    0.08
   5   4   6   15.36    0.37
   5   4   6   15.91    0.48
  -5  -4  -6   15.73    0.17
  -5  -4  -6   15.06    0.18
   5   4   7   12.40    0.36
   5   4   7   12.83    0.35
   5   4   8    3.35    0.29
   5   4   8    3.54    0.26
   5   4   9  248.36    3.94
   5   4   9  247.89    3.61
   5   4  10   27.20    0.73
   5   4  10   28.22    1.00
   5   4  11    0.43    0.29
   5   4  11    0.14    0.46
   5   4  12    3.36    0.41
   5   4  12    4.01    0.63
   5   4  13   86.12    1.69
   5   4  13   86.06    1.68
   5   4  14    0.61    0.35
   5   4  14    0.16    0.34
   5   4  15    2.88    0.44
   5   4  15    3.69    0.46
   5   5 -10    0.03    0.33
   5   5 -10    0.19    0.25
  -5  -5  10    0.15    0.40
  -5  -5  10    0.21    0.30
   5   5  -9    0.40    0.26
   5   5  -9    0.00    0.19
  -5  -5   9    0.30    0.24
  -5  -5   9    0.45    0.49
   5   5  -8   28.45    1.00
   5   5  -8   26.63    0.62
  -5  -5   8   29.43    0.77
  -5  -5   8   29.54    0.69
   5   5  -7   82.48    1.45
   5   5  -7   80.28    1.52
  -5  -5   7   85.47    1.69
  -5  -5   7   84.93    1.82
   5   5  -6   53.14    1.23
   5   5  -6   49.95    0.88
  -5  -5   6   54.26    0.98
  -5  -5   6   53.07    1.02
   5   5  -5    0.97    0.30
   5   5  -5    0.64    0.25
  -5  -5   5    1.17    0.36
  -5  -5   5    1.07    0.28
   5   5  -4    0.51    0.17
   5   5  -4    0.26    0.22
  -5  -5   4    0.52    0.32
  -5  -5   4    0.51    0.37
   5   5  -3   37.77    0.64
   5   5  -3   38.80    0.87
  -5  -5   3   38.85    0.86
  -5  -5   3   37.56    0.89
   5   5  -2    6.84    0.25
   5   5  -2    6.49    0.26
  -5  -5   2    6.87    0.26
  -5  -5   2    6.39    0.27
   5   5  -1    0.08    0.14
   5   5  -1    0.13    0.13
  -5  -5   1    0.08    0.13
  -5  -5   1   -0.02    0.12
   5   5   0    0.79    0.15
   5   5   0    0.64    0.14
  -5  -5   0    0.74    0.15
  -5  -5   0    0.57    0.23
   5   5   1   57.84    0.96
   5   5   1   54.67    0.75
  -5  -5  -1   57.80    0.94
  -5  -5  -1   53.71    0.75
   5   5   2    5.41    0.35
   5   5   2    4.97    0.24
  -5  -5  -2    4.99    0.21
  -5  -5  -2    4.85    0.25
   5   5   3    1.75    0.19
   5   5   3    1.93    0.11
  -5  -5  -3    2.76    0.18
  -5  -5  -3    1.74    0.17
   5   5   4    6.94    0.25
   5   5   4    6.85    0.14
  -5  -5  -4    6.93    0.24
  -5  -5  -4    6.63    0.14
   5   5   5   11.43    0.30
   5   5   5   12.13    0.21
   5   5   5   11.89    0.47
  -5  -5  -5   11.89    0.21
  -5  -5  -5   11.89    0.45
   5   5   6    1.63    0.19
   5   5   6    2.13    0.35
   5   5   6    1.60    0.07
  -5  -5  -6    1.27    0.19
   5   5   7   17.58    0.61
   5   5   7   17.76    0.41
   5   5   8    3.14    0.41
   5   5   8    3.14    0.39
   5   5   9    4.54    0.30
   5   5   9    4.74    0.29
   5   5  10   10.64    0.63
   5   5  10    9.90    0.40
   5   5  11   27.63    0.70
   5   5  11   27.86    0.68
   5   5  12   38.31    0.90
   5   5  12   38.06    0.86
   5   5  13   15.09    0.63
   5   5  13   15.52    0.59
   5   5  14    8.10    0.53
   5   5  14    7.94    0.52
   5   5  15    0.64    0.35
   5   5  15    0.28    0.35
   5   6 -10    1.01    0.35
   5   6 -10    1.01    0.28
  -5  -6  10    1.09    0.33
  -5  -6  10    0.86    0.63
   5   6  -9    5.84    0.66
   5   6  -9    5.60    0.56
  -5  -6   9    6.30    0.42
  -5  -6   9    6.01    0.48
   5   6  -8    1.51    0.30
   5   6  -8   -0.01    0.41
  -5  -6   8    1.45    0.49
  -5  -6   8    1.43    0.57
   5   6  -7    5.34    0.31
   5   6  -7    4.44    0.38
  -5  -6   7    5.10    0.56
  -5  -6   7    4.94    0.40
   5   6  -6    1.59    0.24
   5   6  -6    1.66    0.48
  -5  -6   6    1.91    0.28
  -5  -6   6    1.81    0.32
   5   6  -5   72.23    1.38
   5   6  -5   73.17    1.27
  -5  -6   5   77.52    1.53
  -5  -6   5   76.83    1.61
   5   6  -4  224.80    3.31
   5   6  -4  231.60    3.74
  -5  -6   4  240.36    3.84
  -5  -6   4  233.74    3.78
   5   6  -3  348.38    5.06
   5   6  -3  342.53    5.02
  -5  -6   3  352.84    5.08
  -5  -6   3  345.00    5.03
   5   6  -2   29.52    0.78
   5   6  -2   28.07    0.58
  -5  -6   2   29.65    0.80
  -5  -6   2   29.57    0.60
   5   6  -1    1.59    0.32
   5   6  -1    1.83    0.35
  -5  -6   1    1.72    0.35
  -5  -6   1    2.07    0.34
   5   6   0   46.01    0.70
   5   6   0   45.54    0.74
  -5  -6   0   47.71    0.76
  -5  -6   0   45.25    0.85
   5   6   1   56.17    0.80
   5   6   1   58.72    0.88
  -5  -6  -1   58.35    1.03
  -5  -6  -1   55.18    0.80
   5   6   2  110.89    1.48
   5   6   2  115.86    1.60
  -5  -6  -2  116.76    1.58
  -5  -6  -2  108.04    1.44
   5   6   3    8.59    0.29
   5   6   3    9.29    0.30
  -5  -6  -3    8.27    0.20
  -5  -6  -3    8.76    0.29
   5   6   4   61.51    0.86
   5   6   4   61.98    0.94
  -5  -6  -4   61.08    0.85
  -5  -6  -4   62.40    0.91
   5   6   5   56.25    0.75
   5   6   5   55.57    0.90
  -5  -6  -5   55.71    0.87
  -5  -6  -5   54.67    0.74
   5   6   6   43.57    0.76
   5   6   6   42.11    0.50
   5   6   6   44.62    0.92
  -5  -6  -6   43.79    0.90
  -5  -6  -6   43.26    0.55
   5   6   7   48.16    0.80
   5   6   7   46.41    0.50
   5   6   7   47.67    0.83
  -5  -6  -7   47.82    0.81
   5   6   8   14.37    0.43
   5   6   8   13.72    0.41
   5   6   9   10.12    0.57
   5   6   9   10.59    0.55
   5   6  10    4.61    0.32
   5   6  10    4.84    0.30
   5   6  11    2.76    0.50
   5   6  11    2.29    0.29
   5   6  12    0.15    0.25
   5   6  12    0.19    0.25
   5   6  13    1.06    0.32
   5   6  13    0.76    0.30
   5   6  14    0.11    0.26
   5   6  14   -0.04    0.25
   5   6  15    7.68    0.53
   5   6  15    8.37    0.52
   5   7  -9    9.86    0.79
   5   7  -9   10.69    0.74
  -5  -7   9   10.95    0.59
  -5  -7   9   10.82    0.85
   5   7  -8   -0.01    0.52
   5   7  -8    2.63    0.37
  -5  -7   8    2.43    0.42
  -5  -7   8    2.62    0.62
   5   7  -7   23.34    0.64
   5   7  -7   24.47    0.95
  -5  -7   7   25.11    1.05
  -5  -7   7   25.61    0.74
   5   7  -6   70.84    1.27
   5   7  -6   70.60    1.33
  -5  -7   6   71.97    1.63
  -5  -7   6   71.65    1.39
   5   7  -5   22.52    0.62
   5   7  -5   21.84    0.77
  -5  -7   5   22.69    0.63
  -5  -7   5   23.16    0.65
   5   7  -4   57.29    1.03
   5   7  -4   57.02    1.01
  -5  -7   4   59.65    1.33
  -5  -7   4   59.01    1.11
   5   7  -3   14.48    0.46
   5   7  -3   14.40    0.63
  -5  -7   3   14.74    0.46
  -5  -7   3   14.87    0.49
   5   7  -2   25.67    0.60
   5   7  -2   24.97    0.57
  -5  -7   2   26.29    0.61
  -5  -7   2   25.78    0.60
   5   7  -1  356.28    5.33
   5   7  -1  365.58    5.49
  -5  -7   1  365.51    5.22
  -5  -7   1  354.25    5.10
   5   7   0  137.51    1.96
   5   7   0  140.29    2.00
  -5  -7   0  137.75    2.15
  -5  -7   0  142.31    2.26
   5   7   1   80.85    1.16
   5   7   1   84.27    1.26
  -5  -7  -1   81.38    1.17
  -5  -7  -1   84.04    1.24
   5   7   2    8.64    0.37
   5   7   2    8.81    0.54
  -5  -7  -2    7.93    0.25
  -5  -7  -2    8.46    0.33
   5   7   3  116.65    1.69
   5   7   3  120.24    1.72
  -5  -7  -3  113.34    1.51
  -5  -7  -3  118.58    1.67
   5   7   4  137.84    1.90
   5   7   4  139.32    1.96
  -5  -7  -4  132.65    1.81
  -5  -7  -4  135.87    1.90
   5   7   5    4.44    0.21
   5   7   5    4.74    0.30
  -5  -7  -5    4.43    0.27
  -5  -7  -5    4.33    0.21
   5   7   6   25.77    0.41
   5   7   6   24.86    0.56
  -5  -7  -6   24.81    0.52
  -5  -7  -6   24.48    0.34
   5   7   7  136.10    1.97
   5   7   7  131.98    1.62
   5   7   7  136.82    2.25
  -5  -7  -7  132.99    1.92
  -5  -7  -7  127.18    1.57
   5   7   8   20.21    0.52
   5   7   8   20.93    0.54
   5   7   8   19.11    0.24
  -5  -7  -8   20.64    0.52
  -5  -7  -8   18.16    0.22
   5   7   9   52.62    0.96
   5   7   9   52.58    1.15
   5   7  10    0.33    0.42
   5   7  10    0.44    0.23
   5   7  11    0.05    0.24
   5   7  11    0.22    0.22
   5   7  12    4.82    0.58
   5   7  12    4.49    0.35
   5   7  13    0.47    0.30
   5   7  13    0.64    0.29
   5   7  14    3.23    0.38
   5   7  14    3.30    0.40
   5   7  15    4.53    0.46
   5   7  15    4.72    0.43
   5   8  -8   12.00    0.54
   5   8  -8   12.91    0.86
  -5  -8   8   12.96    0.64
  -5  -8   8   13.03    0.62
   5   8  -7    2.86    0.35
   5   8  -7    2.04    0.39
  -5  -8   7    2.25    0.41
  -5  -8   7    2.36    0.63
   5   8  -6    8.29    0.45
   5   8  -6    9.08    0.49
  -5  -8   6    8.52    0.50
  -5  -8   6    9.25    0.74
   5   8  -5   29.70    1.06
   5   8  -5   30.80    1.01
  -5  -8   5   31.68    1.11
  -5  -8   5   31.40    0.80
   5   8  -4   65.59    1.23
   5   8  -4   66.97    1.47
  -5  -8   4   67.16    1.55
  -5  -8   4   67.41    1.55
   5   8  -3  135.43    2.39
   5   8  -3  135.62    2.12
  -5  -8   3  138.05    2.44
  -5  -8   3  138.90    2.47
   5   8  -2    1.27    0.28
   5   8  -2    0.95    0.47
  -5  -8   2    0.88    0.45
  -5  -8   2    0.87    0.30
   5   8  -1  266.64    4.08
   5   8  -1  268.01    3.94
  -5  -8   1  263.72    3.85
  -5  -8   1  270.64    3.95
   5   8   0   73.92    1.18
   5   8   0   74.49    1.49
  -5  -8   0   71.79    1.14
  -5  -8   0   74.78    1.22
   5   8   1   21.12    0.63
   5   8   1   21.85    0.54
  -5  -8  -1   20.87    0.46
  -5  -8  -1   21.88    0.75
   5   8   2  129.86    1.99
   5   8   2  135.81    2.23
  -5  -8  -2  127.26    1.95
  -5  -8  -2  132.47    2.15
   5   8   3  101.97    1.44
   5   8   3  107.17    1.60
  -5  -8  -3  101.79    1.55
  -5  -8  -3  105.21    1.55
   5   8   4    3.74    0.19
   5   8   4    3.82    0.31
  -5  -8  -4    4.28    0.46
  -5  -8  -4    3.70    0.19
   5   8   5   43.21    1.01
   5   8   5   42.20    0.61
  -5  -8  -5   42.63    0.75
  -5  -8  -5   40.67    0.68
   5   8   6   -0.10    0.19
   5   8   6    0.10    0.08
  -5  -8  -6    0.46    0.19
  -5  -8  -6    0.08    0.14
   5   8   7   39.74    0.58
   5   8   7   39.34    0.78
   5   8   7   40.34    0.75
  -5  -8  -7   38.92    0.73
  -5  -8  -7   38.08    0.57
   5   8   8    0.12    0.20
   5   8   8    0.06    0.08
   5   8   8    0.26    0.22
  -5  -8  -8    0.03    0.21
  -5  -8  -8    0.17    0.08
   5   8   9    1.94    0.46
   5   8   9    1.51    0.08
   5   8   9    1.51    0.49
  -5  -8  -9    1.82    0.27
  -5  -8  -9    1.47    0.07
   5   8  10  120.15    1.96
   5   8  10  120.27    1.92
   5   8  11    2.26    0.33
   5   8  11    2.12    0.31
   5   8  12    0.57    0.30
   5   8  13    6.01    0.70
   5   8  14    8.54    0.79
   5   8  14    9.30    0.77
   5   9  -7    6.83    0.49
   5   9  -7    6.76    0.46
  -5  -9   7    7.35    0.52
  -5  -9   7    7.52    0.52
   5   9  -6   27.45    1.10
   5   9  -6   28.59    0.79
  -5  -9   6   27.43    0.82
  -5  -9   6   28.56    0.84
   5   9  -5   17.96    0.64
   5   9  -5   18.40    0.60
  -5  -9   5   17.17    0.64
  -5  -9   5   19.30    0.92
   5   9  -4   12.13    0.48
   5   9  -4   11.57    0.74
  -5  -9   4   11.92    0.52
  -5  -9   4   12.34    0.52
   5   9  -3    6.85    0.40
   5   9  -3    6.41    0.61
  -5  -9   3    7.95    0.41
  -5  -9   3    6.76    0.66
   5   9  -2    6.63    0.35
   5   9  -2    6.65    0.38
  -5  -9   2    6.93    0.38
  -5  -9   2    6.62    0.39
   5   9  -1   22.06    0.56
   5   9  -1   22.01    0.57
  -5  -9   1   21.97    0.56
  -5  -9   1   21.71    0.59
   5   9   0   72.91    1.41
   5   9   0   74.30    1.51
  -5  -9   0   72.81    1.18
  -5  -9   0   73.13    1.23
   5   9   1   81.47    1.28
   5   9   1   83.39    1.36
  -5  -9  -1   80.12    1.25
  -5  -9  -1   83.50    1.35
   5   9   2  131.32    2.07
   5   9   2  132.16    1.98
  -5  -9  -2  123.31    1.78
  -5  -9  -2  129.84    1.92
   5   9   3    0.41    0.41
   5   9   3    0.28    0.16
  -5  -9  -3    0.10    0.15
  -5  -9  -3    0.55    0.37
   5   9   4   35.19    0.73
   5   9   4   35.11    0.58
  -5  -9  -4   34.21    0.68
  -5  -9  -4   33.05    0.57
   5   9   5   17.74    0.52
   5   9   5   17.48    0.35
  -5  -9  -5   17.84    0.48
  -5  -9  -5   16.14    0.45
   5   9   6   33.25    0.71
   5   9   6   33.49    0.62
  -5  -9  -6   32.89    0.89
  -5  -9  -6   33.13    0.61
   5   9   7    0.79    0.43
   5   9   7    0.84    0.11
  -5  -9  -7    0.91    0.24
  -5  -9  -7    0.86    0.17
   5   9   8    0.03    0.20
   5   9   8    0.05    0.22
   5   9   8    0.12    0.12
  -5  -9  -8    0.05    0.18
  -5  -9  -8    0.02    0.11
   5   9   9    3.07    0.50
   5   9   9    4.61    0.35
   5   9   9    3.66    0.15
  -5  -9  -9    4.55    0.49
  -5  -9  -9    3.59    0.15
   5   9  10   12.47    0.50
   5   9  10   12.98    0.46
   5   9  11   -0.02    0.40
   5   9  11    0.08    0.22
   5   9  12    0.33    0.29
   5   9  13   14.18    0.59
   5   9  14    0.93    0.57
   5   9  14    0.85    0.55
   5  10  -6    0.51    0.34
   5  10  -6    0.25    0.54
  -5 -10   6    0.10    0.27
  -5 -10   6   -0.26    0.43
   5  10  -5    5.63    0.74
   5  10  -5    5.09    0.45
  -5 -10   5    5.15    0.50
  -5 -10   5    5.40    0.49
   5  10  -4   25.36    0.74
   5  10  -4   23.23    0.71
  -5 -10   4   25.34    0.78
  -5 -10   4   25.02    0.77
   5  10  -3   51.80    1.35
   5  10  -3   51.46    1.07
  -5 -10   3   50.22    1.08
  -5 -10   3   52.56    1.11
   5  10  -2   28.30    0.69
   5  10  -2   27.84    0.70
  -5 -10   2   27.74    0.96
  -5 -10   2   27.32    1.01
   5  10  -1    6.28    0.57
   5  10  -1    7.15    0.62
  -5 -10   1    6.61    0.57
  -5 -10   1    5.75    0.41
   5  10   0   27.84    0.63
   5  10   0   27.96    0.68
  -5 -10   0   27.70    0.63
  -5 -10   0   28.76    0.68
   5  10   1    1.09    0.39
   5  10   1    1.17    0.30
  -5 -10  -1    0.85    0.38
  -5 -10  -1    0.79    0.29
   5  10   2  115.63    1.77
   5  10   2  116.94    1.84
  -5 -10  -2  110.55    1.68
  -5 -10  -2  115.32    1.81
   5  10   3   70.74    1.52
   5  10   3   66.51    1.25
  -5 -10  -3   65.80    1.16
  -5 -10  -3   63.13    1.03
   5  10   4    0.39    0.27
   5  10   4    0.57    0.17
  -5 -10  -4    0.64    0.41
  -5 -10  -4    0.53    0.17
   5  10   5    7.16    0.39
   5  10   5    7.10    0.25
  -5 -10  -5    6.57    0.35
  -5 -10  -5    6.41    0.35
   5  10   6    0.94    0.29
   5  10   6    0.98    0.15
  -5 -10  -6    1.19    0.25
  -5 -10  -6    0.75    0.14
   5  10   7   39.04    0.82
   5  10   7   37.93    0.59
  -5 -10  -7   37.85    0.76
  -5 -10  -7   36.10    0.57
   5  10   8    8.40    0.43
   5  10   8    8.69    0.22
  -5 -10  -8    7.79    0.58
  -5 -10  -8    7.68    0.28
   5  10   9    5.85    0.35
   5  10   9    5.46    0.61
   5  10   9    5.27    0.23
  -5 -10  -9    5.99    0.35
  -5 -10  -9    4.91    0.15
   5  10  10    0.14    0.20
   5  10  10   -0.10    0.24
  -5 -10 -10   -0.05    0.21
   5  10  11    1.55    0.33
   5  10  12    0.46    0.49
   5  10  13    0.31    0.31
   5  11  -5    0.05    0.49
   5  11  -5    0.08    0.30
  -5 -11   5    0.32    0.52
  -5 -11   5    0.08    0.34
   5  11  -4    1.29    0.36
   5  11  -4    1.23    0.60
  -5 -11   4    0.88    0.60
  -5 -11   4    1.14    0.40
   5  11  -3    1.04    0.35
   5  11  -3    1.34    0.58
  -5 -11   3    0.99    0.57
  -5 -11   3    1.06    0.38
   5  11  -2    2.68    0.62
   5  11  -2    2.17    0.60
  -5 -11   2    2.67    0.63
  -5 -11   2    2.94    0.41
   5  11  -1   37.18    0.83
   5  11  -1   37.89    0.88
  -5 -11   1   36.67    0.85
  -5 -11   1   37.01    1.17
   5  11   0    5.59    0.56
   5  11   0    5.36    0.42
  -5 -11   0    5.57    0.37
  -5 -11   0    5.21    0.41
   5  11   1    9.28    0.40
   5  11   1    9.78    0.47
  -5 -11  -1    9.25    0.41
  -5 -11  -1    8.89    0.46
   5  11   2   17.82    0.67
   5  11   2   17.14    0.57
  -5 -11  -2   16.97    0.54
  -5 -11  -2   17.05    0.66
   5  11   3    2.71    0.56
   5  11   3    2.67    0.25
  -5 -11  -3    2.70    0.32
  -5 -11  -3    2.73    0.25
   5  11   4    0.14    0.17
  -5 -11  -4    0.02    0.22
  -5 -11  -4    0.15    0.16
   5  11   5    2.15    0.54
   5  11   5    2.50    0.34
  -5 -11  -5    2.28    0.47
  -5 -11  -5    1.59    0.33
   5  11   6   20.05    0.86
   5  11   6   20.05    0.57
  -5 -11  -6   20.17    0.77
  -5 -11  -6   18.31    0.53
   5  11   7    1.21    0.52
   5  11   7    1.18    0.26
  -5 -11  -7    1.17    0.27
  -5 -11  -7    1.13    0.25
   5  11   8    0.77    0.22
   5  11   8    0.86    0.49
  -5 -11  -8    1.03    0.26
  -5 -11  -8    0.62    0.14
   5  11   9    2.19    0.34
   5  11   9    1.92    0.23
  -5 -11  -9    1.66    0.48
  -5 -11  -9    1.91    0.22
   5  11  10   -0.07    0.25
  -5 -11 -10   -0.05    0.35
   5  11  11   -0.05    0.42
   5  11  12    0.59    0.33
   5  11  13    0.83    0.56
   5  12  -3   12.23    0.62
   5  12  -3   13.62    0.61
  -5 -12   3   12.66    0.95
  -5 -12   3   13.37    0.97
   5  12  -2   13.15    0.84
   5  12  -2   12.46    0.60
  -5 -12   2   13.37    0.61
  -5 -12   2   12.85    0.62
   5  12  -1   23.39    0.69
   5  12  -1   23.73    0.74
  -5 -12   1   23.57    0.74
  -5 -12   1   23.36    0.74
   5  12   0   18.96    0.90
   5  12   0   18.91    0.67
  -5 -12   0   19.01    0.90
  -5 -12   0   17.76    0.96
   5  12   1    4.41    0.37
   5  12   1    3.98    0.42
  -5 -12  -1    4.00    0.42
  -5 -12  -1    4.48    0.37
   5  12   2    0.63    0.32
   5  12   2    0.55    0.43
  -5 -12  -2    0.48    0.30
  -5 -12  -2    0.56    0.42
   5  12   3   16.38    0.60
   5  12   3   15.58    0.49
  -5 -12  -3   15.61    0.56
  -5 -12  -3   14.37    0.46
   5  12   4    0.30    0.48
   5  12   4    0.30    0.33
  -5 -12  -4    0.13    0.23
  -5 -12  -4   -0.02    0.17
   5  12   5    2.15    0.37
   5  12   5    1.59    0.59
  -5 -12  -5    1.71    0.31
  -5 -12  -5    2.24    0.23
   5  12   6   21.52    0.65
   5  12   6   21.47    0.49
  -5 -12  -6   20.65    0.58
  -5 -12  -6   19.89    0.62
   5  12   7    3.60    0.41
   5  12   7    3.91    0.24
  -5 -12  -7    3.60    0.56
  -5 -12  -7    3.01    0.34
   5  12   8    0.16    0.28
   5  12   8    0.12    0.14
  -5 -12  -8    0.11    0.23
  -5 -12  -8    0.03    0.20
   5  12   9    1.78    0.36
   5  12   9    1.73    0.17
  -5 -12  -9    2.15    0.32
  -5 -12  -9    1.35    0.26
   5  12  10   -0.05    0.44
  -5 -12 -10    0.14    0.25
   5  12  11    8.95    0.51
  -5 -12 -11    7.78    0.43
   5  12  12    0.78    0.57
   5  13  -1    5.13    0.51
   5  13  -1    5.22    0.46
  -5 -13   1    5.46    0.50
  -5 -13   1    5.26    0.47
   5  13   0   12.74    0.85
   5  13   0   12.18    0.58
  -5 -13   0   11.07    0.58
  -5 -13   0   13.06    0.84
   5  13   1    8.65    0.49
   5  13   1    9.58    0.54
  -5 -13  -1    8.21    0.83
  -5 -13  -1    8.57    0.48
   5  13   2    5.35    0.49
   5  13   2    5.32    0.68
  -5 -13  -2    5.16    0.47
  -5 -13  -2    5.72    0.66
   5  13   3   88.10    1.68
   5  13   3   86.78    1.55
  -5 -13  -3   83.36    1.57
  -5 -13  -3   82.66    1.49
   5  13   4    7.18    0.54
   5  13   4    6.49    0.62
  -5 -13  -4    6.52    0.47
  -5 -13  -4    6.41    0.37
   5  13   5    4.25    0.46
   5  13   5    4.43    0.50
  -5 -13  -5    3.28    0.39
  -5 -13  -5    3.42    0.30
   5  13   6    0.13    0.33
   5  13   6    0.42    0.21
  -5 -13  -6    0.38    0.25
  -5 -13  -6    0.00    0.19
   5  13   7    0.70    0.35
   5  13   7    0.74    0.21
  -5 -13  -7    0.76    0.30
  -5 -13  -7    0.71    0.20
   5  13   8    9.95    0.54
   5  13   8    9.12    0.33
  -5 -13  -8    9.81    0.71
  -5 -13  -8    8.08    0.45
   5  13   9    0.19    0.51
   5  13   9    0.24    0.16
  -5 -13  -9    0.27    0.44
  -5 -13  -9    0.23    0.25
   5  13  10    0.13    0.30
  -5 -13 -10    0.86    0.30
   5  14   2    1.44    0.55
   5  14   2    0.94    0.63
  -5 -14  -2    0.97    0.61
  -5 -14  -2    1.36    0.55
   5  14   3    1.24    0.39
   5  14   3    1.39    0.32
  -5 -14  -3    1.43    0.59
  -5 -14  -3    1.47    0.30
   5  14   4    2.16    0.41
   5  14   4    2.10    0.31
  -5 -14  -4    1.66    0.37
  -5 -14  -4    2.02    0.30
   5  14   5    0.50    0.35
   5  14   5    0.38    0.41
  -5 -14  -5    0.46    0.30
  -5 -14  -5    0.00    0.39
   5  14   6   13.68    0.63
   5  14   6   12.72    0.46
  -5 -14  -6   11.26    0.52
  -5 -14  -6   12.15    0.62
   5  14   7    0.60    0.37
   5  14   7    0.66    0.24
  -5 -14  -7    0.61    0.32
  -5 -14  -7    0.84    0.35
   5  14   8    0.03    0.57
   5  14   8    0.38    0.20
  -5 -14  -8    0.44    0.46
  -5 -14  -8    0.25    0.19
  -6   8   5    1.34    0.39
  -6   8   5    0.93    0.39
  -6   8   4    5.50    0.76
  -6   8   4    6.15    0.75
   6  -8  -3    3.25    0.41
  -6   8   3    3.10    0.43
  -6   8   3    3.05    0.42
   6  -8  -2    0.57    0.32
  -6   8   2    0.25    0.32
  -6   8   2    0.42    0.30
   6  -8  -1    1.03    0.54
  -6   8   1    0.92    0.57
  -6   8   1    1.12    0.54
   6  -8   0    1.03    0.32
  -6   8   0    1.04    0.31
  -6   8   0    0.65    0.54
   6  -8   1    9.39    0.70
  -6   8  -1    8.66    0.46
  -6   8  -1    9.45    0.50
  -6   7   7    0.18    0.34
  -6   7   7    0.33    0.32
  -6   7   6   -0.08    0.25
  -6   7   6    0.08    0.25
  -6   7   5   -0.01    0.45
  -6   7   5   -0.09    0.46
  -6   7   4   24.38    0.73
  -6   7   4   25.14    0.75
   6  -7  -3    1.47    0.35
  -6   7   3    1.53    0.35
  -6   7   3    1.50    0.35
   6  -7  -2    5.66    0.66
  -6   7   2    5.26    0.71
  -6   7   2    5.38    0.66
   6  -7  -1   32.16    0.79
  -6   7   1   32.94    1.12
  -6   7   1   31.25    0.78
   6  -7   0    0.99    0.30
  -6   7   0    0.79    0.29
  -6   7   0    1.06    0.32
   6  -7   1    4.81    0.36
  -6   7  -1    5.71    0.39
  -6   7  -1    4.66    0.37
   6  -7   2   11.91    0.47
  -6   7  -2   12.51    0.50
   6  -7   3    0.10    0.23
  -6   7  -3    0.38    0.42
   6  -7   4   19.54    0.64
   6  -7   4   21.40    0.82
  -6   7  -4   22.21    0.83
  -6   7  -4   18.11    0.58
  -6   6   8    6.09    0.73
  -6   6   8    4.93    0.47
  -6   6   7    8.89    0.79
  -6   6   7    9.58    0.82
  -6   6   6    5.08    0.45
  -6   6   6    4.77    0.43
  -6   6   5   10.52    0.53
  -6   6   5   11.12    0.79
  -6   6   4    0.97    0.31
  -6   6   4    0.88    0.32
  -6   6   3    0.32    0.45
  -6   6   3    0.21    0.43
   6  -6  -2    3.19    0.34
  -6   6   2    3.11    0.34
  -6   6   2    2.70    0.34
   6  -6  -1   51.53    1.01
  -6   6   1   50.06    1.01
  -6   6   1   51.05    1.00
   6  -6   0   -0.11    0.36
  -6   6   0   -0.22    0.25
  -6   6   0    0.08    0.37
   6  -6   1    6.79    0.36
  -6   6  -1    6.94    0.38
  -6   6  -1    6.11    0.36
   6  -6   2   27.50    0.47
   6  -6   2   29.97    0.88
  -6   6  -2   12.68    0.44
   6  -6   3   11.94    0.43
   6  -6   3   12.67    0.43
  -6   6  -3   12.14    0.64
  -6   6  -3   11.21    0.29
   6  -6   4   15.62    0.41
   6  -6   4   17.27    0.50
  -6   6  -4   17.24    0.68
  -6   6  -4   15.40    0.52
   6  -6   5   16.03    0.60
   6  -6   5   16.52    0.66
  -6   6  -5   17.33    0.51
  -6   6  -5   15.96    0.57
   6  -6   6    6.55    0.34
   6  -6   6    6.26    0.33
  -6   6  -6    6.64    0.52
  -6   6  -6    6.41    0.32
  -6   5   9    0.46    0.30
  -6   5   9    0.34    0.32
  -6   5   8    1.35    0.35
  -6   5   8    1.50    0.36
  -6   5   7    0.98    0.32
  -6   5   7    0.69    0.33
  -6   5   6    6.46    0.65
  -6   5   6    6.07    0.67
  -6   5   5    1.21    0.32
  -6   5   5    1.76    0.51
  -6   5   4   33.41    0.78
  -6   5   4   34.01    1.05
  -6   5   3   24.16    0.63
  -6   5   3   25.33    0.65
   6  -5  -2   16.79    0.51
  -6   5   2   17.39    0.52
  -6   5   2   16.89    0.50
   6  -5  -1    5.59    0.52
  -6   5   1    4.93    0.33
  -6   5   1    4.62    0.52
   6  -5   0    9.67    0.39
  -6   5   0   10.11    0.39
  -6   5   0    9.92    0.39
   6  -5   1   10.66    0.27
   6  -5   1   11.10    0.29
   6  -5   1   12.10    0.58
  -6   5  -1   11.10    0.28
  -6   5  -1   12.12    0.41
  -6   5  -1   11.43    0.58
   6  -5   2   17.37    0.32
   6  -5   2   18.06    0.42
   6  -5   2   18.75    0.48
  -6   5  -2   19.49    0.50
  -6   5  -2   18.03    0.47
  -6   5  -2   17.93    0.33
   6  -5   3    0.00    0.10
   6  -5   3    0.25    0.18
   6  -5   3    0.16    0.28
  -6   5  -3    0.37    0.19
  -6   5  -3    0.00    0.18
  -6   5  -3    0.16    0.18
   6  -5   4    5.50    0.24
   6  -5   4    5.53    0.29
  -6   5  -4    4.86    0.22
  -6   5  -4    5.85    0.45
   6  -5   5   21.99    0.64
   6  -5   5   22.94    0.68
  -6   5  -5   23.32    0.54
  -6   5  -5   21.96    0.61
   6  -5   6   15.36    0.59
   6  -5   6   14.54    0.57
  -6   5  -6   15.76    0.59
  -6   5  -6   15.12    0.58
   6  -5   7    6.79    0.35
   6  -5   7    6.76    0.44
  -6   5  -7    7.63    0.31
  -6   5  -7    8.02    0.52
   6  -5   8    0.61    0.25
   6  -5   8    0.62    0.30
  -6   5  -8    0.52    0.19
  -6   5  -8    0.63    0.38
  -6   4  10    0.28    0.30
  -6   4   9    0.42    0.30
  -6   4   8    3.58    0.37
  -6   4   8    3.08    0.62
  -6   4   7    4.65    0.39
  -6   4   7    4.93    0.40
  -6   4   6    1.85    0.31
  -6   4   6    1.88    0.31
  -6   4   5    0.92    0.45
  -6   4   5    0.85    0.43
  -6   4   4    2.09    0.29
  -6   4   4    1.68    0.46
  -6   4   3    3.00    0.30
  -6   4   3    3.12    0.30
  -6   4   2    5.80    0.33
  -6   4   2    5.78    0.52
   6  -4  -1   18.36    0.48
  -6   4   1   18.45    0.68
  -6   4   1   18.25    0.49
   6  -4   0   60.33    1.19
   6  -4   0   56.07    0.72
  -6   4   0   60.20    1.22
  -6   4   0   59.49    1.19
   6  -4   1   80.76    1.26
   6  -4   1   72.67    1.00
   6  -4   1   75.51    0.97
  -6   4  -1   78.96    1.44
  -6   4  -1   76.78    1.23
   6  -4   2    4.38    0.16
   6  -4   2    4.77    0.23
   6  -4   2    5.16    0.41
  -6   4  -2    4.88    0.16
  -6   4  -2    4.35    0.41
  -6   4  -2    3.90    0.43
   6  -4   3    3.89    0.17
   6  -4   3    4.09    0.25
   6  -4   3    3.91    0.25
  -6   4  -3    3.74    0.24
  -6   4  -3    4.43    0.25
  -6   4  -3    3.79    0.17
   6  -4   4   28.17    0.51
   6  -4   4   29.65    0.70
  -6   4  -4   28.43    0.71
  -6   4  -4   27.28    0.60
   6  -4   5    0.68    0.26
   6  -4   5    0.55    0.17
  -6   4  -5    0.79    0.18
  -6   4  -5    0.74    0.16
   6  -4   6    4.06    0.39
   6  -4   6    3.72    0.22
  -6   4  -6    3.90    0.24
  -6   4  -6    3.65    0.25
   6  -4   7    6.08    0.48
   6  -4   7    6.09    0.38
  -6   4  -7    6.08    0.39
  -6   4  -7    6.74    0.31
   6  -4   8    4.41    0.51
   6  -4   8    4.05    0.35
  -6   4  -8    5.05    0.35
  -6   4  -8    4.40    0.32
   6  -4   9    0.69    0.28
  -6   4  -9    0.79    0.27
  -6   3  10    0.62    0.52
  -6   3   9    0.57    0.30
  -6   3   8    6.16    0.42
  -6   3   8    5.79    0.42
  -6   3   7    0.46    0.26
  -6   3   7    0.47    0.46
  -6   3   6    1.30    0.30
  -6   3   6    1.28    0.29
  -6   3   5    7.65    0.57
  -6   3   5    6.80    0.38
  -6   3   4   32.64    0.90
  -6   3   4   32.93    0.92
  -6   3   3    0.09    0.20
  -6   3   3    0.24    0.20
  -6   3   2   26.11    0.57
  -6   3   2   26.79    0.58
  -6   3   1    0.10    0.16
  -6   3   1    0.04    0.17
   6  -3   0    3.85    0.11
  -6   3   0    8.70    0.47
  -6   3   0    8.51    0.33
   6  -3   1   49.91    0.83
   6  -3   1   46.16    0.65
   6  -3   1   46.56    0.60
  -6   3  -1   48.17    0.82
  -6   3  -1   46.95    0.79
   6  -3   2   22.28    0.44
   6  -3   2   24.26    0.49
   6  -3   2   22.94    0.36
  -6   3  -2   23.31    0.49
  -6   3  -2   23.05    0.48
   6  -3   3  108.44    1.49
   6  -3   3  109.23    1.59
   6  -3   3  115.54    1.82
  -6   3  -3  115.57    1.68
  -6   3  -3  110.47    1.77
  -6   3  -3  114.04    1.55
   6  -3   4   56.41    0.85
   6  -3   4   58.39    0.88
   6  -3   4   61.24    0.95
  -6   3  -4   61.57    1.09
  -6   3  -4   58.98    0.92
  -6   3  -4   61.07    0.91
   6  -3   5    2.48    0.19
   6  -3   5    2.76    0.19
   6  -3   5    2.58    0.19
  -6   3  -5    2.56    0.19
  -6   3  -5    2.66    0.19
  -6   3  -5    2.59    0.19
   6  -3   6    5.05    0.26
   6  -3   6    4.99    0.32
  -6   3  -6    5.09    0.22
  -6   3  -6    4.95    0.38
   6  -3   7   29.91    0.63
   6  -3   7   28.50    0.52
  -6   3  -7   29.71    0.54
  -6   3  -7   30.41    0.79
   6  -3   8    9.07    0.37
   6  -3   8    7.39    0.25
  -6   3  -8    8.27    0.26
  -6   3  -8    8.45    0.54
   6  -3   9   -0.14    0.21
   6  -3   9   -0.03    0.22
  -6   3  -9    0.15    0.35
   6  -3  10    1.01    0.32
   6  -3  10    4.22    0.54
  -6   3 -10    4.12    0.59
  -6   2  10    5.63    0.70
  -6   2   9    0.36    0.29
  -6   2   8    2.59    0.35
  -6   2   8    2.67    0.35
  -6   2   7   19.50    0.59
  -6   2   7   19.61    0.60
  -6   2   6   11.88    0.46
  -6   2   6   11.43    0.46
  -6   2   5   14.35    0.68
  -6   2   5   14.21    0.68
  -6   2   4    0.13    0.34
  -6   2   4    0.25    0.20
  -6   2   3    0.39    0.20
  -6   2   3    0.52    0.34
  -6   2   2   25.18    0.54
  -6   2   2   25.55    0.54
  -6   2   1   68.56    1.06
  -6   2   1   70.46    1.08
   6  -2   0    0.20    0.07
   6  -2   0    0.16    0.07
  -6   2   0    0.08    0.25
  -6   2   0    0.19    0.15
   6  -2   1    3.95    0.11
   6  -2   1    3.86    0.16
  -6   2  -1    3.79    0.21
  -6   2  -1    4.07    0.34
   6  -2   2    2.05    0.19
   6  -2   2    2.04    0.18
   6  -2   2    2.12    0.11
  -6   2  -2    1.99    0.19
  -6   2  -2    2.05    0.18
   6  -2   3   37.13    0.75
   6  -2   3   35.24    0.54
   6  -2   3   35.77    0.63
  -6   2  -3   38.43    0.58
  -6   2  -3   36.03    0.61
  -6   2  -3   35.50    0.74
   6  -2   4  116.45    1.63
   6  -2   4  122.83    1.72
   6  -2   4  117.64    1.75
  -6   2  -4  125.38    1.74
  -6   2  -4  122.69    1.72
  -6   2  -4  117.88    1.66
   6  -2   5    3.19    0.28
   6  -2   5    3.36    0.32
   6  -2   5    3.73    0.20
  -6   2  -5    2.93    0.33
  -6   2  -5    3.46    0.19
  -6   2  -5    3.19    0.28
   6  -2   6   20.65    0.46
   6  -2   6   22.12    0.47
   6  -2   6   21.53    0.50
  -6   2  -6   22.18    0.41
  -6   2  -6   21.65    0.49
  -6   2  -6   22.43    0.48
   6  -2   7   36.69    0.70
   6  -2   7   37.34    0.71
   6  -2   7   36.10    0.57
  -6   2  -7   36.37    0.57
  -6   2  -7   38.18    0.70
  -6   2  -7   38.16    0.73
   6  -2   8    0.19    0.19
   6  -2   8    0.38    0.31
   6  -2   8    0.05    0.09
  -6   2  -8   -0.08    0.09
  -6   2  -8   -0.01    0.09
  -6   2  -8   -0.08    0.19
   6  -2   9   12.72    0.46
   6  -2   9   13.66    0.48
  -6   2  -9   13.52    0.47
   6  -2  10    1.04    0.29
   6  -2  10    1.44    0.31
  -6   2 -10    1.10    0.29
   6  -2  11    2.92    0.37
   6  -2  11    3.57    0.62
  -6   2 -11    3.79    0.39
  -6   1  10   -0.16    0.27
  -6   1   9    0.13    0.25
  -6   1   8    0.19    0.40
  -6   1   8    0.17    0.25
  -6   1   7    3.39    0.35
  -6   1   7    3.83    0.54
  -6   1   6    0.01    0.35
  -6   1   6    0.18    0.35
  -6   1   5    0.90    0.25
  -6   1   5    0.78    0.25
  -6   1   4    2.88    0.27
  -6   1   4    2.78    0.28
  -6   1   3   44.33    0.79
  -6   1   3   42.85    0.77
  -6   1   2   10.28    0.51
  -6   1   2   10.71    0.50
   6  -1  -1   -0.06    0.03
  -6   1   1    4.31    0.38
  -6   1   1    4.61    0.25
   6  -1   0    0.72    0.10
   6  -1   0    0.79    0.08
  -6   1   0    0.67    0.16
  -6   1   0    0.62    0.16
   6  -1   1    8.99    0.22
   6  -1   1    8.69    0.21
  -6   1  -1    9.00    0.25
  -6   1  -1    9.05    0.38
   6  -1   2    3.46    0.19
   6  -1   2    3.54    0.13
  -6   1  -2    3.13    0.28
  -6   1  -2    3.71    0.19
   6  -1   3    0.03    0.15
   6  -1   3    0.11    0.08
  -6   1  -3    0.08    0.11
  -6   1  -3    0.19    0.18
   6  -1   4   10.34    0.36
   6  -1   4   10.60    0.25
  -6   1  -4   10.54    0.35
  -6   1  -4   11.31    0.35
   6  -1   5    0.50    0.25
   6  -1   5    0.52    0.12
   6  -1   5    0.59    0.24
  -6   1  -5    0.57    0.25
  -6   1  -5    0.39    0.12
  -6   1  -5    0.68    0.12
   6  -1   6   31.67    0.57
   6  -1   6   31.49    0.59
   6  -1   6   32.26    0.59
  -6   1  -6   33.25    0.62
  -6   1  -6   31.67    0.58
  -6   1  -6   31.52    0.57
   6  -1   7    1.08    0.21
   6  -1   7    1.17    0.18
   6  -1   7    1.22    0.34
  -6   1  -7    1.37    0.12
  -6   1  -7    1.01    0.18
  -6   1  -7    1.23    0.22
   6  -1   8    0.52    0.14
   6  -1   8    0.63    0.35
   6  -1   8    0.69    0.22
  -6   1  -8    0.52    0.15
  -6   1  -8    0.91    0.36
  -6   1  -8    0.46    0.15
   6  -1   9    0.65    0.40
   6  -1   9    0.73    0.25
  -6   1  -9    0.70    0.41
   6  -1  10   10.36    0.67
   6  -1  10   11.01    0.47
  -6   1 -10   11.34    0.70
   6  -1  11    0.58    0.47
   6  -1  11    0.52    0.30
  -6   1 -11    0.32    0.46
   6  -1  12    0.02    0.27
   6  -1  12    0.11    0.29
  -6   1 -12    0.26    0.30
  -6   0  11    3.35    0.40
   6   0 -10    2.74    0.35
  -6   0  10    2.68    0.37
   6   0  -9    0.08    0.25
  -6   0   9   -0.10    0.25
   6   0  -8   -0.14    0.24
  -6   0   8    0.13    0.39
  -6   0   8    0.12    0.23
   6   0  -7    0.98    0.26
  -6   0   7    1.21    0.46
  -6   0   7    1.27    0.27
   6   0  -6    8.76    0.39
   6   0  -6    6.95    0.13
  -6   0   6    8.63    0.38
  -6   0   6    9.05    0.39
   6   0  -5    1.19    0.23
   6   0  -5    0.87    0.05
  -6   0   5    1.15    0.05
  -6   0   5    0.91    0.24
  -6   0   5    1.12    0.24
   6   0  -4    3.51    0.28
   6   0  -4    4.18    0.08
  -6   0   4    4.75    0.45
  -6   0   4    5.10    0.45
   6   0  -3   36.68    0.41
   6   0  -3   36.73    0.40
  -6   0   3   38.21    0.86
  -6   0   3   37.89    0.68
   6   0  -2   29.88    0.35
  -6   0   2   30.38    0.57
  -6   0   2   30.90    0.74
   6   0  -1    3.28    0.12
   6   0  -1    3.43    0.14
  -6   0   1    3.31    0.24
  -6   0   1    3.27    0.24
   6   0   0  122.07    1.45
   6   0   0  117.33    1.39
  -6   0   0  120.27    1.81
  -6   0   0  119.06    1.66
   6   0   1   47.85    0.68
   6   0   1   45.90    0.65
  -6   0  -1   45.71    0.70
  -6   0  -1   46.89    0.83
   6   0   2    0.08    0.08
   6   0   2    0.14    0.12
  -6   0  -2    0.09    0.11
  -6   0  -2    0.22    0.18
   6   0   3   57.55    0.79
   6   0   3   55.30    0.76
  -6   0  -3   57.01    0.79
  -6   0  -3   56.18    0.79
   6   0   4    0.12    0.12
   6   0   4    0.37    0.17
  -6   0  -4    0.17    0.14
  -6   0  -4    0.15    0.09
   6   0   5   12.58    0.30
   6   0   5   12.20    0.30
  -6   0  -5   13.09    0.31
  -6   0  -5   12.92    0.25
   6   0   6    3.96    0.22
   6   0   6    4.19    0.21
  -6   0  -6    4.10    0.14
  -6   0  -6    3.96    0.19
  -6   0  -6    4.66    0.23
   6   0   7    3.19    0.37
   6   0   7    3.45    0.36
  -6   0  -7    3.35    0.39
  -6   0  -7    2.97    0.17
  -6   0  -7    3.51    0.17
   6   0   8   37.83    0.92
   6   0   8   37.56    0.72
  -6   0  -8   37.40    0.49
  -6   0  -8   40.18    0.95
  -6   0  -8   35.50    0.47
   6   0   9    7.57    0.37
   6   0   9    8.21    0.57
  -6   0  -9    8.16    0.39
   6   0  10    4.61    0.36
   6   0  10    4.98    0.35
  -6   0 -10    5.01    0.37
   6   0  11    0.10    0.25
   6   0  11    0.16    0.25
  -6   0 -11    0.30    0.27
   6   0  12    0.47    0.30
   6   0  12    0.08    0.50
  -6   0 -12    0.36    0.48
  -6  -1  11    2.69    0.40
   6   1 -10    0.85    0.31
  -6  -1  10    0.96    0.32
   6   1  -9    1.17    0.30
  -6  -1   9    1.02    0.50
   6   1  -8    0.17    0.08
   6   1  -8    0.31    0.40
  -6  -1   8    0.32    0.26
  -6  -1   8    0.65    0.16
  -6  -1   8    0.19    0.42
   6   1  -7    0.25    0.36
   6   1  -7    0.14    0.11
  -6  -1   7    0.17    0.22
  -6  -1   7    0.17    0.13
  -6  -1   7    0.24    0.36
   6   1  -6    0.46    0.37
   6   1  -6    0.35    0.07
  -6  -1   6    0.54    0.23
  -6  -1   6    0.30    0.08
  -6  -1   6    0.26    0.36
   6   1  -5    0.41    0.34
   6   1  -5    0.26    0.09
  -6  -1   5    0.24    0.35
  -6  -1   5    0.34    0.07
  -6  -1   5    0.21    0.33
   6   1  -4   -0.06    0.16
   6   1  -4    0.03    0.08
  -6  -1   4    0.03    0.08
  -6  -1   4   -0.10    0.16
  -6  -1   4    0.04    0.15
   6   1  -3    0.90    0.20
   6   1  -3    0.68    0.10
  -6  -1   3    0.75    0.10
  -6  -1   3    1.44    0.19
  -6  -1   3    0.65    0.19
   6   1  -2   14.20    0.52
   6   1  -2   13.59    0.25
  -6  -1   2   13.52    0.20
  -6  -1   2   14.04    0.36
  -6  -1   2   13.05    0.50
   6   1  -1    5.48    0.17
   6   1  -1    6.03    0.25
   6   1  -1    5.20    0.19
  -6  -1   1    5.69    0.13
  -6  -1   1    5.81    0.25
  -6  -1   1    5.59    0.24
   6   1   0  273.57    3.56
   6   1   0  268.01    3.46
  -6  -1   0  265.14    3.75
  -6  -1   0  257.20    3.52
   6   1   1  138.11    1.84
   6   1   1  134.44    1.68
  -6  -1  -1  132.60    1.81
  -6  -1  -1  133.01    1.81
   6   1   2   12.58    0.37
   6   1   2   12.50    0.26
  -6  -1  -2   12.10    0.41
  -6  -1  -2   12.27    0.41
   6   1   3  188.77    2.49
   6   1   3  185.35    2.45
  -6  -1  -3  185.52    2.43
  -6  -1  -3  189.04    2.59
   6   1   4   14.21    0.30
   6   1   4   14.52    0.30
  -6  -1  -4   14.09    0.25
  -6  -1  -4   13.51    0.33
   6   1   5    1.28    0.16
   6   1   5    1.06    0.15
  -6  -1  -5    1.17    0.14
   6   1   6    2.25    0.30
   6   1   6    2.35    0.19
  -6  -1  -6    2.63    0.14
  -6  -1  -6    2.42    0.09
   6   1   7    0.28    0.17
   6   1   7    0.29    0.25
  -6  -1  -7    0.27    0.05
  -6  -1  -7    0.19    0.08
   6   1   8    2.97    0.41
   6   1   8    3.68    0.40
  -6  -1  -8    3.63    0.11
   6   1   9   18.09    0.50
   6   1   9   17.38    0.48
  -6  -1  -9   18.78    0.51
   6   1  10    9.08    0.41
   6   1  10    9.05    0.41
  -6  -1 -10    9.20    0.43
   6   1  11    4.15    0.37
   6   1  11    4.41    0.57
  -6  -1 -11    3.74    0.38
   6   1  12    0.75    0.30
   6   1  12    0.08    0.30
  -6  -1 -12    0.39    0.30
   6   1  13    0.46    0.32
   6   1  13    0.56    0.34
  -6  -1 -13    0.57    0.34
   6   2 -11    0.25    0.30
  -6  -2  11    0.28    0.32
   6   2 -10    1.60    0.35
   6   2 -10    1.89    0.26
  -6  -2  10    2.08    0.61
   6   2  -9    5.21    0.62
   6   2  -9    4.28    0.28
  -6  -2   9    4.76    0.33
  -6  -2   9    5.22    0.41
   6   2  -8   -0.07    0.34
   6   2  -8   -0.01    0.08
  -6  -2   8   -0.08    0.24
  -6  -2   8    0.12    0.11
   6   2  -7    0.13    0.23
   6   2  -7    0.16    0.15
  -6  -2   7    0.15    0.33
  -6  -2   7   -0.03    0.09
   6   2  -6    0.25    0.14
   6   2  -6    0.28    0.23
  -6  -2   6    0.25    0.20
  -6  -2   6    0.03    0.09
   6   2  -5   22.04    0.54
   6   2  -5   20.92    0.41
  -6  -2   5   22.55    0.53
  -6  -2   5   21.11    0.43
   6   2  -4    6.31    0.31
   6   2  -4    5.93    0.15
  -6  -2   4    6.37    0.49
  -6  -2   4    6.00    0.16
   6   2  -3   13.74    0.38
   6   2  -3   13.30    0.30
  -6  -2   3   13.25    0.38
  -6  -2   3   13.38    0.25
   6   2  -2   39.04    0.83
   6   2  -2   38.31    0.52
  -6  -2   2   38.60    0.81
  -6  -2   2   38.87    0.52
   6   2  -1    6.21    0.25
   6   2  -1    6.45    0.17
  -6  -2   1    6.31    0.25
  -6  -2   1    6.49    0.16
  -6  -2   1    6.22    0.25
   6   2   0   17.29    0.29
   6   2   0   17.85    0.37
   6   2   0   17.76    0.40
  -6  -2   0   18.14    0.30
  -6  -2   0   17.54    0.49
  -6  -2   0   16.92    0.35
   6   2   1  350.11    4.77
   6   2   1  357.98    4.73
   6   2   1  367.47    4.99
  -6  -2  -1  373.25    5.01
  -6  -2  -1  343.42    4.83
  -6  -2  -1  344.17    4.71
   6   2   2    3.84    0.29
   6   2   2    3.47    0.16
  -6  -2  -2    3.41    0.17
  -6  -2  -2    3.33    0.17
   6   2   3  391.70    5.54
   6   2   3  386.73    5.43
  -6  -2  -3  385.58    5.21
  -6  -2  -3  381.97    5.15
   6   2   4  472.71    6.63
   6   2   4  471.40    6.68
  -6  -2  -4  475.41    6.45
  -6  -2  -4  471.50    6.36
   6   2   5   65.88    1.19
   6   2   5   64.48    0.98
  -6  -2  -5   65.68    0.82
  -6  -2  -5   65.20    0.81
   6   2   6    3.95    0.41
   6   2   6    3.42    0.24
  -6  -2  -6    3.46    0.14
  -6  -2  -6    3.60    0.14
   6   2   7    8.90    0.34
   6   2   7    8.84    0.32
  -6  -2  -7    8.49    0.15
   6   2   8    1.28    0.37
   6   2   8    1.09    0.35
   6   2   9    1.53    0.25
   6   2   9    0.61    0.38
   6   2  10    0.24    0.21
   6   2  10    0.08    0.21
   6   2  11    3.46    0.36
   6   2  11    3.68    0.35
   6   2  12    0.19    0.26
   6   2  12    0.08    0.26
   6   2  13    4.19    0.44
   6   2  13    4.90    0.71
   6   3 -10    2.70    0.21
   6   3 -10    2.93    0.39
  -6  -3  10    2.82    0.38
  -6  -3  10    2.79    0.42
   6   3  -9    1.88    0.57
   6   3  -9    1.80    0.19
  -6  -3   9    1.83    0.21
  -6  -3   9    1.83    0.36
   6   3  -8    9.69    0.40
   6   3  -8   10.55    0.49
  -6  -3   8    9.99    0.45
  -6  -3   8   12.08    0.74
   6   3  -7    2.15    0.31
   6   3  -7    2.26    0.17
  -6  -3   7    2.62    0.19
  -6  -3   7    3.06    0.34
   6   3  -6   35.90    0.74
   6   3  -6   33.74    0.55
  -6  -3   6   35.63    0.99
  -6  -3   6   34.64    0.58
   6   3  -5    7.01    0.29
   6   3  -5    7.12    0.53
  -6  -3   5    6.89    0.22
  -6  -3   5    7.17    0.34
   6   3  -4   16.13    0.31
   6   3  -4   17.65    0.63
  -6  -3   4   16.69    0.63
  -6  -3   4   16.15    0.41
   6   3  -3   53.32    0.74
   6   3  -3   55.35    1.08
  -6  -3   3   54.41    0.90
  -6  -3   3   55.06    0.77
   6   3  -2   61.76    0.85
   6   3  -2   63.32    0.96
  -6  -3   2   65.20    0.98
  -6  -3   2   62.84    1.14
   6   3  -1   32.70    0.60
   6   3  -1   32.23    0.57
  -6  -3   1   31.65    0.56
  -6  -3   1   32.70    0.59
   6   3   0   21.28    0.52
   6   3   0   20.97    0.36
  -6  -3   0   20.83    0.35
  -6  -3   0   20.23    0.40
   6   3   1  147.16    2.05
   6   3   1  142.95    2.01
  -6  -3  -1  147.51    1.92
  -6  -3  -1  139.06    1.84
   6   3   2   71.93    1.06
   6   3   2   68.84    0.96
   6   3   2   70.05    1.07
  -6  -3  -2   67.16    1.01
  -6  -3  -2   71.43    1.10
  -6  -3  -2   67.70    1.01
   6   3   3   42.45    0.64
   6   3   3   42.77    0.67
   6   3   3   45.80    0.63
  -6  -3  -3   43.94    0.67
  -6  -3  -3   42.25    0.58
  -6  -3  -3   42.80    0.59
   6   3   4  287.05    4.10
   6   3   4  288.39    4.05
  -6  -3  -4  292.81    3.74
  -6  -3  -4  289.46    3.74
   6   3   5    4.67    0.26
   6   3   5    4.99    0.25
  -6  -3  -5    4.39    0.12
  -6  -3  -5    4.72    0.12
   6   3   6  163.79    2.38
   6   3   6  163.59    2.35
  -6  -3  -6  143.68    1.70
  -6  -3  -6  170.19    1.99
   6   3   7 1024.45   16.06
   6   3   7 1038.50   16.25
   6   3   8   31.91    0.98
   6   3   8   32.09    0.72
   6   3   9   12.68    0.46
   6   3   9   13.21    0.45
   6   3  10    7.06    0.41
   6   3  10    7.40    0.38
   6   3  11    6.95    0.41
   6   3  11    6.34    0.39
   6   3  12    8.86    0.72
   6   3  12    8.37    0.71
   6   3  13    0.27    0.47
   6   3  13   -0.05    0.46
   6   3  14    2.38    0.69
   6   3  14    3.42    0.44
   6   4 -10   20.79    0.74
   6   4 -10   17.81    0.49
  -6  -4  10   18.14    0.74
  -6  -4  10   21.58    0.77
   6   4  -9   10.63    0.77
   6   4  -9    8.92    0.33
  -6  -4   9    9.47    0.37
  -6  -4   9   10.91    0.83
   6   4  -8    0.67    0.30
   6   4  -8    0.52    0.28
  -6  -4   8    0.72    0.19
  -6  -4   8    0.72    0.30
   6   4  -7    5.95    0.61
   6   4  -7    5.20    0.25
  -6  -4   7    5.34    0.41
  -6  -4   7    4.83    0.63
   6   4  -6    2.18    0.49
   6   4  -6    2.26    0.29
  -6  -4   6    2.13    0.31
  -6  -4   6    2.07    0.31
   6   4  -5   11.40    0.42
   6   4  -5   11.69    0.41
  -6  -4   5   12.20    0.32
  -6  -4   5   11.66    0.64
   6   4  -4    0.24    0.20
   6   4  -4    0.30    0.13
  -6  -4   4    0.39    0.25
  -6  -4   4    0.96    0.23
   6   4  -3   20.23    0.48
   6   4  -3   19.56    0.49
  -6  -4   3   20.76    0.52
  -6  -4   3   20.17    0.47
   6   4  -2  131.16    1.86
   6   4  -2  129.40    1.88
  -6  -4   2  130.10    1.77
  -6  -4   2  128.90    2.02
   6   4  -1   40.12    0.66
   6   4  -1   39.76    0.62
  -6  -4   1   41.32    0.74
  -6  -4   1   38.16    0.65
   6   4   0   52.65    0.90
   6   4   0   51.53    0.75
  -6  -4   0   53.33    0.77
  -6  -4   0   50.77    0.77
   6   4   1   37.90    0.57
   6   4   1   37.63    0.71
  -6  -4  -1   38.36    0.57
  -6  -4  -1   36.42    0.56
   6   4   2    0.22    0.23
   6   4   2    0.31    0.10
  -6  -4  -2    0.28    0.21
  -6  -4  -2    0.41    0.17
   6   4   3   29.78    0.67
   6   4   3   30.20    0.44
   6   4   3   28.88    0.49
  -6  -4  -3   31.34    0.52
  -6  -4  -3   29.00    0.42
   6   4   4  157.97    2.28
   6   4   4  154.04    2.13
   6   4   4  163.82    2.10
  -6  -4  -4  163.87    2.34
  -6  -4  -4  157.11    2.01
  -6  -4  -4  151.75    1.96
   6   4   5    0.35    0.27
   6   4   5    0.15    0.14
  -6  -4  -5    0.16    0.06
  -6  -4  -5    0.15    0.09
   6   4   6    7.18    0.46
   6   4   6    7.77    0.28
  -6  -4  -6    0.05    0.04
   6   4   7    2.92    0.46
   6   4   7    3.52    0.44
   6   4   8   59.35    1.28
   6   4   8   57.80    1.03
   6   4   9   93.92    1.85
   6   4   9   95.23    1.87
   6   4  10  166.06    2.92
   6   4  10  163.93    2.64
   6   4  11    0.85    0.31
   6   4  11    0.77    0.49
   6   4  12    0.16    0.43
   6   4  12    0.04    0.41
   6   4  13   17.67    0.64
   6   4  13   16.87    0.96
   6   4  14   -0.21    0.47
   6   4  14    0.03    0.29
   6   5 -10   12.46    0.60
   6   5 -10   11.15    0.63
  -6  -5  10   13.34    0.72
  -6  -5  10   14.99    0.99
   6   5  -9    2.61    0.63
   6   5  -9    2.47    0.26
  -6  -5   9    2.81    0.30
  -6  -5   9    3.66    0.43
   6   5  -8    9.38    0.49
   6   5  -8    9.02    0.35
  -6  -5   8    9.27    0.39
  -6  -5   8    8.91    0.51
   6   5  -7   14.50    0.79
   6   5  -7   14.11    0.55
  -6  -5   7   14.16    0.62
  -6  -5   7   14.93    0.57
   6   5  -6   25.07    0.54
   6   5  -6   26.74    0.68
  -6  -5   6   26.01    0.57
  -6  -5   6   26.92    0.95
   6   5  -5    0.80    0.25
   6   5  -5    0.46    0.27
  -6  -5   5    0.72    0.19
  -6  -5   5    0.52    0.26
   6   5  -4    8.89    0.57
   6   5  -4    8.67    0.41
  -6  -5   4    9.34    0.45
  -6  -5   4    9.30    0.39
   6   5  -3   17.17    0.61
   6   5  -3   15.79    0.36
  -6  -5   3   16.40    0.52
  -6  -5   3   16.56    0.63
   6   5  -2    6.79    0.25
   6   5  -2    6.63    0.43
  -6  -5   2    6.53    0.25
  -6  -5   2    6.34    0.44
   6   5  -1   16.25    0.37
   6   5  -1   16.91    0.54
  -6  -5   1   17.05    0.37
  -6  -5   1   15.83    0.39
   6   5   0   41.29    0.67
   6   5   0   42.30    0.80
  -6  -5   0   43.78    0.82
  -6  -5   0   41.80    0.82
   6   5   1   60.32    0.86
   6   5   1   60.09    0.90
  -6  -5  -1   61.38    0.90
  -6  -5  -1   58.35    0.96
   6   5   2   29.27    0.53
   6   5   2   31.76    0.57
  -6  -5  -2   29.60    0.51
  -6  -5  -2   27.68    0.45
   6   5   3    5.14    0.16
   6   5   3    5.28    0.25
  -6  -5  -3    5.16    0.23
  -6  -5  -3    5.10    0.24
   6   5   4    3.35    0.20
   6   5   4    3.52    0.18
   6   5   4    3.41    0.35
  -6  -5  -4    3.28    0.21
  -6  -5  -4    3.02    0.18
   6   5   5    9.57    0.30
   6   5   5    9.74    0.32
   6   5   5   10.06    0.22
  -6  -5  -5   10.05    0.31
  -6  -5  -5    9.62    0.22
   6   5   6    2.30    0.23
   6   5   6    1.97    0.33
  -6  -5  -6    2.21    0.09
  -6  -5  -6    2.15    0.09
   6   5   7   21.36    0.50
   6   5   7   20.94    0.47
   6   5   8   15.69    0.46
   6   5   8   15.67    0.45
   6   5   9    0.02    0.35
   6   5   9   -0.09    0.19
   6   5  10    0.90    0.28
   6   5  10    0.79    0.26
   6   5  11    0.04    0.23
   6   5  11    0.04    0.23
   6   5  12   24.19    0.97
   6   5  12   24.41    0.70
   6   5  13    0.62    0.57
   6   5  13    0.99    0.33
   6   5  14    2.21    0.67
   6   5  14    1.80    0.41
   6   6  -9    0.16    0.40
   6   6  -9   -0.03    0.17
  -6  -6   9    0.18    0.25
  -6  -6   9    0.18    0.33
   6   6  -8    0.28    0.29
   6   6  -8   -0.02    0.33
  -6  -6   8    0.11    0.23
  -6  -6   8    0.24    0.31
   6   6  -7   15.74    0.57
   6   6  -7   14.87    0.46
  -6  -6   7   15.29    0.72
  -6  -6   7   15.98    0.60
   6   6  -6    6.21    0.39
   6   6  -6    5.32    0.30
  -6  -6   6    6.35    0.34
  -6  -6   6    6.37    0.42
   6   6  -5   15.87    0.52
   6   6  -5   15.79    0.42
  -6  -6   5   16.45    0.67
  -6  -6   5   17.14    0.54
   6   6  -4   57.24    1.27
   6   6  -4   56.60    1.13
  -6  -6   4   57.96    1.20
  -6  -6   4   59.50    1.34
   6   6  -3    0.76    0.19
   6   6  -3    0.82    0.24
  -6  -6   3    1.01    0.21
  -6  -6   3    0.89    0.25
   6   6  -2    3.89    0.24
   6   6  -2    3.20    0.26
  -6  -6   2    3.96    0.25
  -6  -6   2    3.63    0.26
   6   6  -1   30.46    0.72
   6   6  -1   29.54    0.56
  -6  -6   1   30.78    0.73
  -6  -6   1   28.77    0.57
   6   6   0   35.64    0.80
   6   6   0   35.84    0.61
  -6  -6   0   36.24    0.79
  -6  -6   0   34.47    0.75
   6   6   1    7.81    0.30
   6   6   1    7.00    0.25
  -6  -6  -1    7.62    0.29
  -6  -6  -1    7.45    0.37
   6   6   2    8.30    0.30
   6   6   2    8.32    0.24
  -6  -6  -2    8.94    0.43
  -6  -6  -2    7.88    0.23
   6   6   3   32.50    0.77
   6   6   3   30.96    0.57
  -6  -6  -3   32.12    0.57
  -6  -6  -3   29.81    0.46
   6   6   4   75.08    1.16
   6   6   4   74.77    1.05
  -6  -6  -4   78.86    1.32
  -6  -6  -4   73.27    0.96
   6   6   5   18.69    0.44
   6   6   5   18.48    0.34
   6   6   5   18.98    0.64
  -6  -6  -5   18.40    0.28
  -6  -6  -5   18.57    0.43
   6   6   6   55.79    0.90
   6   6   6   54.44    1.11
   6   6   6   52.01    0.63
  -6  -6  -6   55.14    0.90
  -6  -6  -6   53.54    0.68
   6   6   7    8.96    0.55
   6   6   7    8.88    0.50
  -6  -6  -7    8.13    0.33
  -6  -6  -7    7.28    0.12
   6   6   8    2.86    0.46
   6   6   8    3.02    0.26
   6   6   9    7.83    0.37
   6   6   9    8.15    0.35
   6   6  10    0.00    0.19
   6   6  10   -0.06    0.33
   6   6  11    2.95    0.34
   6   6  11    2.59    0.32
   6   6  12    1.06    0.30
   6   6  12    1.00    0.30
   6   6  13    5.17    0.68
   6   6  13    5.27    0.42
   6   6  14    1.38    0.35
   6   6  14    1.26    0.61
   6   7  -8   24.63    1.13
   6   7  -8   26.15    0.72
  -6  -7   8   28.66    0.91
  -6  -7   8   27.28    0.78
   6   7  -7   20.09    0.67
   6   7  -7   19.52    0.58
  -6  -7   7   20.70    0.88
  -6  -7   7   21.64    0.74
   6   7  -6   -0.05    0.31
   6   7  -6    0.15    0.40
  -6  -7   6   -0.02    0.19
  -6  -7   6    0.11    0.40
   6   7  -5   13.50    0.44
   6   7  -5   13.64    0.52
  -6  -7   5   14.92    0.70
  -6  -7   5   14.76    0.55
   6   7  -4   23.49    0.57
   6   7  -4   22.80    0.85
  -6  -7   4   24.62    0.61
  -6  -7   4   23.91    0.64
   6   7  -3    9.91    0.56
   6   7  -3   10.12    0.41
  -6  -7   3   10.11    0.40
  -6  -7   3   10.80    0.42
   6   7  -2    8.53    0.35
   6   7  -2    8.58    0.35
  -6  -7   2    8.88    0.35
  -6  -7   2    8.93    0.37
   6   7  -1   31.53    0.62
   6   7  -1   29.43    0.76
  -6  -7   1   30.68    0.62
  -6  -7   1   29.60    0.60
   6   7   0    0.07    0.26
   6   7   0    0.32    0.30
  -6  -7   0    0.14    0.18
  -6  -7   0    0.14    0.16
   6   7   1    9.87    0.44
   6   7   1   10.22    0.36
  -6  -7  -1   10.38    0.35
  -6  -7  -1    9.63    0.46
   6   7   2  216.51    3.14
   6   7   2  224.61    3.15
  -6  -7  -2  223.11    3.32
  -6  -7  -2  207.42    2.91
   6   7   3   13.72    0.43
   6   7   3   12.54    0.41
  -6  -7  -3   12.61    0.30
  -6  -7  -3   13.28    0.39
   6   7   4   21.38    0.52
   6   7   4   20.89    0.36
  -6  -7  -4   20.87    0.36
  -6  -7  -4   21.80    0.49
   6   7   5   49.45    0.88
   6   7   5   47.82    0.65
  -6  -7  -5   49.76    1.02
  -6  -7  -5   47.38    0.65
   6   7   6    5.60    0.33
   6   7   6    5.31    0.34
   6   7   6    5.54    0.14
  -6  -7  -6    6.05    0.32
  -6  -7  -6    5.47    0.20
   6   7   7  127.52    1.59
   6   7   7  136.69    2.07
   6   7   7  136.80    2.04
  -6  -7  -7  137.97    2.05
  -6  -7  -7  129.24    1.55
   6   7   8   59.18    1.26
   6   7   8   59.88    1.08
  -6  -7  -8   10.28    0.45
   6   7   9    5.46    0.36
   6   7   9    5.59    0.34
   6   7  10    0.25    0.25
   6   7  10    0.13    0.24
   6   7  11    2.63    0.35
   6   7  11    2.59    0.33
   6   7  12    6.19    0.45
   6   7  12    6.38    0.42
   6   7  13    1.10    0.34
   6   7  13    1.19    0.57
   6   7  14    0.19    0.28
   6   7  14   -0.10    0.48
   6   8  -8    1.10    0.36
   6   8  -8    0.02    0.30
  -6  -8   8    0.98    0.43
  -6  -8   8    1.45    0.59
   6   8  -7    9.75    0.49
   6   8  -7   10.46    0.55
  -6  -8   7   11.32    0.62
  -6  -8   7    9.74    0.53
   6   8  -6   23.82    0.68
   6   8  -6   23.36    0.73
  -6  -8   6   23.60    0.76
  -6  -8   6   24.28    0.71
   6   8  -5    0.04    0.34
   6   8  -5    0.00    0.24
  -6  -8   5   -0.12    0.43
  -6  -8   5    0.03    0.40
   6   8  -4   56.59    1.06
   6   8  -4   55.35    1.11
  -6  -8   4   57.83    1.12
  -6  -8   4   58.01    1.45
   6   8  -3   12.47    0.72
   6   8  -3   13.59    0.47
  -6  -8   3   13.65    0.49
  -6  -8   3   13.67    0.75
   6   8  -2   19.80    0.53
   6   8  -2   20.27    0.53
  -6  -8   2   20.41    0.78
  -6  -8   2   20.37    0.78
   6   8  -1    5.79    0.48
   6   8  -1    5.84    0.33
  -6  -8   1    5.65    0.49
  -6  -8   1    6.39    0.52
   6   8   0    0.35    0.31
   6   8   0    0.68    0.36
  -6  -8   0    0.38    0.19
  -6  -8   0    1.49    0.36
   6   8   1    5.99    0.26
   6   8   1    6.58    0.34
  -6  -8  -1    5.58    0.40
  -6  -8  -1    6.05    0.48
   6   8   2    3.96    0.22
   6   8   2    4.55    0.47
  -6  -8  -2    4.06    0.22
  -6  -8  -2    3.94    0.28
   6   8   3    0.36    0.14
   6   8   3    0.39    0.22
  -6  -8  -3    0.30    0.14
  -6  -8  -3    0.42    0.20
   6   8   4   19.27    0.36
   6   8   4   19.35    0.72
  -6  -8  -4   19.01    0.36
  -6  -8  -4   19.66    0.68
   6   8   5   18.85    0.42
   6   8   5   20.92    0.75
  -6  -8  -5   20.21    0.51
  -6  -8  -5   19.19    0.43
   6   8   6    1.14    0.17
   6   8   6    1.08    0.30
  -6  -8  -6    1.21    0.25
  -6  -8  -6    0.96    0.17
   6   8   7   81.28    1.33
   6   8   7   81.43    1.37
   6   8   7   75.74    1.03
  -6  -8  -7   80.15    1.31
  -6  -8  -7   77.56    1.06
   6   8   8   27.60    0.89
   6   8   8   27.67    0.95
  -6  -8  -8    1.58    0.08
   6   8   9   12.71    0.77
   6   8   9   13.54    0.47
   6   8  10    1.37    0.32
   6   8  10    1.36    0.30
   6   8  11   30.85    1.09
   6   8  11   30.63    0.77
   6   8  12    7.17    0.48
   6   8  12    7.45    0.46
   6   8  13    0.39    0.32
   6   8  13    0.33    0.48
   6   8  14    1.14    0.63
   6   8  14    1.26    0.59
   6   9  -7    0.03    0.26
   6   9  -7    0.13    0.30
  -6  -9   7    0.23    0.33
  -6  -9   7    0.00    0.30
   6   9  -6    0.07    0.32
   6   9  -6    1.65    0.36
  -6  -9   6    2.00    0.42
  -6  -9   6    1.88    0.62
   6   9  -5    0.59    0.28
   6   9  -5    0.41    0.52
  -6  -9   5    0.35    0.33
  -6  -9   5    0.57    0.30
   6   9  -4   12.96    0.53
   6   9  -4   12.41    0.74
  -6  -9   4   13.18    0.56
  -6  -9   4   13.56    0.55
   6   9  -3    3.38    0.56
   6   9  -3    3.30    0.34
  -6  -9   3    3.12    0.35
  -6  -9   3    2.27    0.35
   6   9  -2   27.25    0.65
   6   9  -2   26.73    0.67
  -6  -9   2   26.27    0.68
  -6  -9   2   27.06    0.92
   6   9  -1    8.79    0.39
   6   9  -1    8.32    0.63
  -6  -9   1    7.75    0.38
  -6  -9   1    8.15    0.61
   6   9   0    1.03    0.37
   6   9   0    0.96    0.27
  -6  -9   0    1.08    0.40
  -6  -9   0    1.61    0.28
   6   9   1   37.33    0.69
   6   9   1   38.74    0.78
  -6  -9  -1   37.90    0.70
  -6  -9  -1   38.58    0.76
   6   9   2    1.16    0.19
   6   9   2    1.20    0.45
  -6  -9  -2    1.47    0.32
  -6  -9  -2    1.23    0.43
   6   9   3    1.56    0.18
   6   9   3    1.41    0.27
  -6  -9  -3    1.45    0.29
  -6  -9  -3    1.23    0.41
   6   9   4    0.09    0.12
   6   9   4    0.16    0.22
  -6  -9  -4    0.04    0.19
  -6  -9  -4    0.20    0.19
   6   9   5    0.72    0.13
   6   9   5    0.33    0.25
  -6  -9  -5    0.52    0.23
  -6  -9  -5    0.51    0.13
   6   9   6   39.01    0.68
   6   9   6   41.82    1.09
  -6  -9  -6   39.53    0.79
  -6  -9  -6   39.36    0.68
   6   9   7   29.07    0.44
   6   9   7   30.82    1.00
  -6  -9  -7   29.94    0.91
  -6  -9  -7   29.19    0.44
   6   9   8    0.30    0.25
   6   9   8    0.24    0.12
   6   9   8    0.41    0.26
  -6  -9  -8    0.52    0.25
  -6  -9  -8    0.24    0.08
   6   9   9   13.56    0.51
   6   9   9   13.34    0.53
  -6  -9  -9   13.23    0.51
   6   9  10   15.55    0.57
   6   9  10   15.76    0.53
   6   9  11    4.54    0.43
   6   9  11    4.52    0.39
   6   9  12    0.03    0.26
   6   9  13   -0.02    0.27
   6  10  -5    0.59    0.34
   6  10  -5    0.27    0.32
  -6 -10   5    0.92    0.37
  -6 -10   5    0.46    0.35
   6  10  -4    1.34    0.57
   6  10  -4    1.29    0.33
  -6 -10   4    1.14    0.36
  -6 -10   4    1.02    0.58
   6  10  -3    0.18    0.27
   6  10  -3    0.23    0.43
  -6 -10   3    0.18    0.27
  -6 -10   3    0.19    0.28
   6  10  -2    0.95    0.30
   6  10  -2    1.27    0.50
  -6 -10   2    1.12    0.30
  -6 -10   2    1.13    0.51
   6  10  -1   15.41    0.50
   6  10  -1   16.30    0.55
  -6 -10   1   15.44    0.74
  -6 -10   1   16.57    0.79
   6  10   0    6.10    0.35
   6  10   0    7.50    0.41
  -6 -10   0    6.22    0.35
  -6 -10   0    7.00    0.40
   6  10   1    0.19    0.30
   6  10   1    0.04    0.40
  -6 -10  -1    0.04    0.19
  -6 -10  -1   -0.23    0.22
   6  10   2   13.11    0.39
   6  10   2   14.54    0.74
  -6 -10  -2   11.92    0.38
  -6 -10  -2   13.81    0.47
   6  10   3    1.02    0.19
   6  10   3    1.38    0.30
  -6 -10  -3    1.27    0.28
  -6 -10  -3    1.04    0.32
   6  10   4   22.39    0.46
   6  10   4   22.96    0.62
  -6 -10  -4   22.32    0.57
  -6 -10  -4   21.58    0.60
   6  10   5    2.42    0.19
   6  10   5    2.97    0.35
  -6 -10  -5    2.98    0.49
  -6 -10  -5    2.45    0.19
   6  10   6    3.57    0.18
   6  10   6    3.46    0.35
  -6 -10  -6    4.29    0.52
  -6 -10  -6    3.61    0.27
   6  10   7    0.31    0.17
   6  10   7    0.19    0.25
  -6 -10  -7    0.48    0.24
  -6 -10  -7    0.25    0.17
   6  10   8   19.80    0.58
   6  10   8   17.70    0.31
   6  10   8   18.74    0.61
  -6 -10  -8   19.38    0.57
  -6 -10  -8   17.74    0.31
   6  10   9   11.20    0.47
   6  10   9   10.34    0.50
  -6 -10  -9   10.55    0.48
   6  10  10    0.22    0.42
   6  10  10    0.34    0.48
  -6 -10 -10    0.21    0.25
   6  10  11    0.37    0.31
   6  10  12    4.92    0.74
   6  10  13    8.72    0.56
   6  11  -4   22.12    0.74
   6  11  -4   21.03    0.69
  -6 -11   4   23.13    1.12
  -6 -11   4   22.87    0.77
   6  11  -3    4.46    0.44
   6  11  -3    4.12    0.45
  -6 -11   3    4.74    0.73
  -6 -11   3    4.58    0.47
   6  11  -2    3.30    0.38
   6  11  -2    3.82    0.41
  -6 -11   2    3.25    0.63
  -6 -11   2    3.48    0.41
   6  11  -1    7.65    0.43
   6  11  -1    8.34    0.48
  -6 -11   1    7.89    0.45
  -6 -11   1    7.38    0.73
   6  11   0   -0.19    0.32
   6  11   0    0.08    0.24
  -6 -11   0   -0.17    0.24
  -6 -11   0   -0.11    0.27
   6  11   1    9.79    0.40
   6  11   1   10.27    0.74
  -6 -11  -1   10.00    0.62
  -6 -11  -1   10.11    0.47
   6  11   2    0.35    0.20
   6  11   2    0.58    0.46
  -6 -11  -2    0.49    0.21
  -6 -11  -2    0.41    0.28
   6  11   3   12.15    0.54
   6  11   3   12.30    0.51
  -6 -11  -3   12.39    0.48
  -6 -11  -3   11.70    0.37
   6  11   4    3.72    0.37
   6  11   4    3.09    0.37
  -6 -11  -4    3.48    0.34
  -6 -11  -4    3.52    0.25
   6  11   5    0.61    0.17
   6  11   5    0.63    0.30
  -6 -11  -5    0.51    0.27
  -6 -11  -5    0.57    0.17
   6  11   6   17.73    0.39
   6  11   6   19.32    0.62
  -6 -11  -6   18.02    0.56
  -6 -11  -6   17.91    0.52
   6  11   7   -0.03    0.18
   6  11   7   -0.08    0.25
  -6 -11  -7    0.21    0.22
  -6 -11  -7   -0.01    0.11
   6  11   8    0.19    0.18
   6  11   8   -0.08    0.45
  -6 -11  -8    0.09    0.40
  -6 -11  -8    0.13    0.10
   6  11   9   11.90    0.81
  -6 -11  -9   11.80    0.75
   6  11  10    1.56    0.38
  -6 -11 -10    2.23    0.35
   6  11  11    2.28    0.66
   6  11  12    0.84    0.36
   6  12  -2   12.57    0.57
   6  12  -2   12.63    0.92
  -6 -12   2   12.88    0.59
  -6 -12   2   12.25    0.61
   6  12  -1    4.00    0.68
   6  12  -1    5.93    0.74
  -6 -12   1    5.15    0.44
  -6 -12   1    4.60    0.78
   6  12   0   43.88    0.96
   6  12   0   43.62    1.38
  -6 -12   0   42.37    1.25
  -6 -12   0   43.62    1.01
   6  12   1    7.40    0.42
   6  12   1    7.50    0.80
  -6 -12  -1    6.95    0.49
  -6 -12  -1    7.68    0.44
   6  12   2   13.28    0.67
   6  12   2   14.71    0.60
  -6 -12  -2   13.23    0.57
  -6 -12  -2   12.61    0.48
   6  12   3   14.54    0.46
   6  12   3   14.94    0.61
  -6 -12  -3   15.20    0.57
  -6 -12  -3   13.46    0.46
   6  12   4   18.35    0.49
   6  12   4   19.12    0.67
  -6 -12  -4   18.71    0.60
  -6 -12  -4   17.92    0.48
   6  12   5    1.05    0.21
   6  12   5    1.20    0.36
  -6 -12  -5    1.13    0.32
  -6 -12  -5    0.92    0.21
   6  12   6   23.16    0.64
   6  12   6   24.03    1.05
  -6 -12  -6   22.94    0.67
  -6 -12  -6   22.28    0.49
   6  12   7    0.60    0.26
   6  12   7    0.37    0.56
  -6 -12  -7    0.41    0.30
  -6 -12  -7    0.54    0.25
   6  12   8    4.15    0.21
   6  12   8    4.33    0.73
  -6 -12  -8    4.42    0.39
  -6 -12  -8    3.91    0.31
   6  12   9   16.39    0.66
  -6 -12  -9   16.39    0.58
   6  12  10    0.71    0.36
  -6 -12 -10    0.23    0.47
   6  12  11    4.85    0.76
  -6 -12 -11    3.52    0.40
   6  13   0    4.56    0.43
   6  13   0    4.47    0.49
  -6 -13   0    5.10    0.78
  -6 -13   0    4.47    0.68
   6  13   1   34.80    1.12
   6  13   1   35.78    0.98
  -6 -13  -1   35.39    0.93
  -6 -13  -1   33.21    0.85
   6  13   2    5.30    0.41
   6  13   2    6.14    0.52
  -6 -13  -2    5.32    0.49
  -6 -13  -2    5.43    0.62
   6  13   3   10.59    0.45
   6  13   3   10.92    0.60
  -6 -13  -3   11.01    0.56
  -6 -13  -3   10.83    0.46
   6  13   4    9.08    0.60
   6  13   4   10.25    0.57
  -6 -13  -4    8.60    0.50
  -6 -13  -4    9.43    0.41
   6  13   5    1.74    0.73
   6  13   5    1.79    0.43
  -6 -13  -5    1.76    0.60
  -6 -13  -5    1.40    0.25
   6  13   6   40.10    1.40
   6  13   6   38.75    0.97
  -6 -13  -6   38.12    1.25
  -6 -13  -6   35.41    0.72
   6  13   7   32.75    1.31
   6  13   7   31.26    0.81
  -6 -13  -7   30.45    0.81
  -6 -13  -7   28.51    0.61
   6  13   8   -0.08    0.30
   6  13   8    0.07    0.22
  -6 -13  -8    0.07    0.28
  -6 -13  -8    0.20    0.24
   6  13   9    6.58    0.54
  -6 -13  -9    6.17    0.46
   6  13  10   -0.04    0.50
  -6 -13 -10    0.09    0.28
   6  14   4    0.56    0.42
   6  14   4    0.82    0.38
  -6 -14  -4    0.41    0.34
  -6 -14  -4    0.63    0.25
   6  14   5    3.36    0.51
   6  14   5    3.46    0.77
  -6 -14  -5    2.69    0.63
  -6 -14  -5    3.12    0.46
   6  14   6    0.14    0.20
   6  14   6   -0.23    0.54
  -6 -14  -6   -0.02    0.51
  -6 -14  -6    0.37    0.34
  -7   6   6   11.16    0.60
  -7   6   6   11.21    0.61
  -7   6   5    3.23    0.45
  -7   6   5    3.93    0.43
  -7   6   4   -0.20    0.46
  -7   6   4    0.16    0.28
  -7   6   3    9.68    0.52
  -7   6   3    9.13    0.50
  -7   6   2    2.96    0.37
  -7   6   2    4.06    0.61
  -7   6   1    1.09    0.49
  -7   6   1    0.88    0.31
   7  -6   0    0.33    0.25
  -7   6   0    0.09    0.25
  -7   6   0    0.06    0.24
   7  -6   1    4.36    0.56
  -7   6  -1    5.13    0.38
  -7   6  -1    4.65    0.57
   7  -6   2    8.87    0.41
  -7   6  -2    9.20    0.44
  -7   6  -2    7.98    0.41
   7  -6   3    0.40    0.25
  -7   6  -3    0.15    0.23
  -7   6  -3    0.00    0.21
  -7   5   7    2.71    0.42
  -7   5   7    2.06    0.42
  -7   5   6    0.14    0.53
  -7   5   6    0.40    0.31
  -7   5   5    0.54    0.54
  -7   5   5    1.01    0.54
  -7   5   4   10.32    0.52
  -7   5   4   10.03    0.51
  -7   5   3    5.64    0.43
  -7   5   3    6.18    0.67
  -7   5   2    4.52    0.61
  -7   5   2    4.68    0.39
  -7   5   1    6.25    0.40
  -7   5   1    6.70    0.40
  -7   5   0    8.68    0.41
  -7   5   0    9.36    0.62
   7  -5   1    4.25    0.33
  -7   5  -1    5.07    0.35
  -7   5  -1    4.80    0.34
   7  -5   2    0.37    0.36
  -7   5  -2    0.68    0.24
  -7   5  -2    0.01    0.37
   7  -5   3    1.39    0.26
  -7   5  -3    1.50    0.25
  -7   5  -3   -0.01    0.24
   7  -5   4   16.00    0.49
   7  -5   4   15.03    0.49
   7  -5   4   15.57    0.39
  -7   5  -4   14.45    0.51
  -7   5  -4   17.72    0.71
  -7   5  -4   15.85    0.48
   7  -5   5   27.46    0.81
   7  -5   5   25.08    0.54
   7  -5   5   27.14    0.72
  -7   5  -5   28.18    0.64
  -7   5  -5   26.83    0.80
  -7   5  -5   26.22    0.56
   7  -5   6    1.45    0.38
   7  -5   6    1.63    0.36
   7  -5   6    1.84    0.24
  -7   5  -6    1.79    0.37
  -7   5  -6    1.83    0.26
  -7   5  -6    1.42    0.38
  -7   4   8    0.95    0.59
  -7   4   8    1.52    0.38
  -7   4   7    1.67    0.36
  -7   4   7    1.57    0.62
  -7   4   6    2.99    0.40
  -7   4   6    2.82    0.39
  -7   4   5   14.01    0.83
  -7   4   5   14.61    0.57
  -7   4   4    0.65    0.48
  -7   4   4    0.74    0.49
  -7   4   3    9.91    0.46
  -7   4   3   10.73    0.46
  -7   4   2    9.50    0.45
  -7   4   2    9.00    0.44
  -7   4   1    3.30    0.52
  -7   4   1    3.33    0.52
  -7   4   0    2.72    0.29
  -7   4  -1    0.00    0.35
  -7   4  -1    0.62    0.35
   7  -4   2    0.79    0.22
  -7   4  -2    0.63    0.32
  -7   4  -2    0.01    0.19
   7  -4   3    0.01    0.09
   7  -4   3   -0.06    0.16
   7  -4   3    0.14    0.15
  -7   4  -3   -0.15    0.18
  -7   4  -3    0.01    0.29
   7  -4   4    2.89    0.39
   7  -4   4    2.48    0.19
   7  -4   4    2.66    0.19
  -7   4  -4    2.88    0.19
  -7   4  -4    2.76    0.25
  -7   4  -4    2.91    0.39
   7  -4   5    1.42    0.21
   7  -4   5    0.95    0.30
   7  -4   5    0.88    0.30
  -7   4  -5    1.23    0.30
  -7   4  -5    0.94    0.21
   7  -4   6   12.09    0.38
   7  -4   6   12.09    0.39
   7  -4   6   11.54    0.40
  -7   4  -6   12.10    0.40
  -7   4  -6   12.20    0.55
  -7   4  -6   12.01    0.38
   7  -4   7    3.79    0.25
   7  -4   7    4.12    0.47
   7  -4   7    4.50    0.32
  -7   4  -7    4.35    0.27
  -7   4  -7    4.17    0.26
  -7   4  -7    4.50    0.32
  -7   3   9    7.47    0.52
  -7   3   9    7.62    0.52
  -7   3   8    0.00    0.46
  -7   3   8    0.11    0.28
  -7   3   7    3.25    0.63
  -7   3   7    3.47    0.40
  -7   3   6    0.26    0.28
  -7   3   6    0.47    0.29
  -7   3   5   11.05    0.49
  -7   3   5   11.37    0.49
  -7   3   4    0.96    0.46
  -7   3   4    1.05    0.29
  -7   3   3    0.46    0.25
  -7   3   3    0.51    0.26
  -7   3   2   66.93    1.41
  -7   3   2   65.70    1.17
  -7   3   1    0.74    0.40
  -7   3   1    0.80    0.25
  -7   3   0   47.72    0.88
  -7   3   0   47.59    0.89
   7  -3   1   10.17    0.19
   7  -3   1   10.45    0.24
  -7   3  -1   10.92    0.55
  -7   3  -1   11.00    0.39
   7  -3   2    0.14    0.14
   7  -3   2    0.19    0.08
  -7   3  -2    0.08    0.17
  -7   3  -2    0.19    0.17
   7  -3   3    2.61    0.23
   7  -3   3    2.59    0.14
  -7   3  -3    2.59    0.36
  -7   3  -3    2.65    0.35
   7  -3   4   12.67    0.35
   7  -3   4   11.64    0.40
   7  -3   4   11.67    0.40
  -7   3  -4   12.55    0.35
  -7   3  -4   11.59    0.35
   7  -3   5   28.40    0.56
   7  -3   5   27.61    0.54
   7  -3   5   29.02    0.68
  -7   3  -5   30.05    0.58
  -7   3  -5   28.39    0.55
  -7   3  -5   28.61    0.56
   7  -3   6    0.13    0.23
   7  -3   6    0.12    0.27
   7  -3   6    0.30    0.27
  -7   3  -6   -0.08    0.26
  -7   3  -6    0.00    0.24
  -7   3  -6   -0.15    0.22
   7  -3   7   17.36    0.52
   7  -3   7   17.86    0.49
   7  -3   7   18.03    0.67
  -7   3  -7   18.69    0.50
  -7   3  -7   19.30    0.57
  -7   3  -7   17.39    0.53
   7  -3   8   35.68    0.81
   7  -3   8   37.90    1.06
  -7   3  -8   38.09    0.85
  -7   2   9    6.66    0.79
  -7   2   9    7.95    0.52
  -7   2   8    0.02    0.40
  -7   2   8   -0.03    0.40
  -7   2   7   12.66    0.56
  -7   2   7   11.46    0.85
  -7   2   6   24.47    0.71
  -7   2   6   25.93    0.72
  -7   2   5    1.03    0.28
  -7   2   5    1.07    0.30
  -7   2   4    4.08    0.53
  -7   2   4    3.88    0.53
  -7   2   3    2.58    0.30
  -7   2   3    2.94    0.30
  -7   2   2    0.01    0.16
  -7   2   2   -0.01    0.16
  -7   2   1    2.18    0.40
  -7   2   1    1.82    0.40
   7  -2   0   -0.02    0.04
   7  -2   0    0.07    0.06
  -7   2   0   -0.02    0.28
  -7   2   0   -0.06    0.17
   7  -2   1  110.45    1.39
   7  -2   1  112.50    1.41
  -7   2  -1  113.77    1.71
  -7   2  -1  116.52    1.91
   7  -2   2    0.17    0.14
   7  -2   2    0.29    0.08
  -7   2  -2    0.48    0.18
  -7   2  -2    0.27    0.18
   7  -2   3    7.00    0.29
   7  -2   3    7.25    0.29
  -7   2  -3    6.62    0.40
  -7   2  -3    7.66    0.27
   7  -2   4   18.87    0.48
   7  -2   4   19.26    0.47
  -7   2  -4   18.99    0.41
  -7   2  -4   19.71    0.42
   7  -2   5    1.55    0.28
   7  -2   5    2.11    0.27
  -7   2  -5    1.84    0.27
  -7   2  -5    2.18    0.28
   7  -2   6   15.96    0.41
   7  -2   6   16.69    0.55
  -7   2  -6   17.65    0.43
  -7   2  -6   16.67    0.47
  -7   2  -6   18.12    0.49
   7  -2   7    2.50    0.38
   7  -2   7    1.95    0.38
  -7   2  -7    2.01    0.39
  -7   2  -7    2.31    0.27
  -7   2  -7    2.32    0.26
   7  -2   8   22.38    0.77
   7  -2   8   23.82    0.60
  -7   2  -8   25.62    0.79
   7  -2   9    2.59    0.51
   7  -2   9    3.09    0.34
  -7   2  -9    3.20    0.52
   7  -2  10   23.31    1.01
  -7   2 -10   22.51    0.97
  -7   1   9    0.58    0.35
  -7   1   9    0.58    0.33
  -7   1   8    6.91    0.46
  -7   1   8    5.86    0.74
  -7   1   7   25.83    1.04
  -7   1   7   26.59    1.07
  -7   1   6   65.48    1.28
  -7   1   6   67.51    1.62
  -7   1   5   15.75    0.55
  -7   1   5   16.70    0.56
  -7   1   4    6.05    0.61
  -7   1   4    6.66    0.40
  -7   1   3    9.62    0.40
  -7   1   3    9.30    0.62
  -7   1   2    0.53    0.21
  -7   1   2    0.35    0.21
   7  -1  -1    3.09    0.07
  -7   1   1    3.47    0.40
  -7   1   1    3.08    0.25
   7  -1   0    1.10    0.10
   7  -1   0    1.14    0.06
  -7   1   0    0.87    0.19
  -7   1   0    0.86    0.19
   7  -1   1    0.25    0.12
   7  -1   1    0.15    0.11
  -7   1  -1    0.12    0.25
  -7   1  -1    0.14    0.15
   7  -1   2   23.29    0.44
   7  -1   2   23.48    0.36
  -7   1  -2   23.30    0.46
  -7   1  -2   23.49    0.46
   7  -1   3   16.61    0.31
   7  -1   3   16.78    0.31
  -7   1  -3   16.97    0.38
  -7   1  -3   16.41    0.48
   7  -1   4   12.31    0.40
   7  -1   4   12.79    0.29
  -7   1  -4   12.48    0.30
  -7   1  -4   12.51    0.41
   7  -1   5    1.94    0.29
   7  -1   5    1.85    0.17
  -7   1  -5    1.81    0.24
  -7   1  -5    1.39    0.15
   7  -1   6    0.60    0.17
   7  -1   6    0.41    0.27
  -7   1  -6    0.47    0.19
  -7   1  -6    0.46    0.12
   7  -1   7   20.18    0.65
   7  -1   7   22.28    0.50
  -7   1  -7   21.43    0.38
  -7   1  -7   21.27    0.38
   7  -1   8    3.79    0.28
   7  -1   8    3.72    0.28
  -7   1  -8    4.18    0.30
   7  -1   9    0.55    0.25
   7  -1   9    0.88    0.39
  -7   1  -9    0.66    0.25
   7  -1  10    0.19    0.25
   7  -1  10    0.23    0.25
  -7   1 -10    0.12    0.25
  -7   0  10    1.43    0.39
  -7   0   9    0.07    0.27
  -7   0   9    0.03    0.26
  -7   0   8   -0.09    0.45
  -7   0   8   -0.09    0.26
  -7   0   7    1.74    0.35
  -7   0   7    1.54    0.34
  -7   0   6    0.26    0.25
  -7   0   6   -0.04    0.25
  -7   0   5   11.59    0.73
  -7   0   5   11.21    0.46
  -7   0   4  103.37    1.71
  -7   0   4  104.82    1.99
  -7   0   3  246.95    3.71
  -7   0   3  248.77    3.74
   7   0  -2  117.00    1.33
   7   0  -2  114.63    1.27
  -7   0   2  122.18    2.11
  -7   0   2  122.51    2.13
   7   0  -1   20.11    0.25
  -7   0   1   21.79    0.51
  -7   0   1   21.80    0.53
   7   0   0    3.66    0.17
   7   0   0    3.83    0.10
  -7   0   0    4.23    0.38
  -7   0   0    3.27    0.24
   7   0   1   23.56    0.41
   7   0   1   22.96    0.39
  -7   0  -1   23.87    0.46
  -7   0  -1   24.03    0.47
   7   0   2   12.26    0.25
   7   0   2   12.01    0.30
  -7   0  -2   12.95    0.42
  -7   0  -2   12.70    0.43
   7   0   3    8.60    0.23
   7   0   3    8.23    0.21
  -7   0  -3    8.68    0.25
  -7   0  -3    8.35    0.25
   7   0   4   20.79    0.50
   7   0   4   21.33    0.48
  -7   0  -4   20.78    0.39
  -7   0  -4   20.93    0.39
   7   0   5    8.60    0.39
   7   0   5    8.81    0.27
  -7   0  -5    8.65    0.30
  -7   0  -5    8.90    0.23
   7   0   6   46.73    0.79
   7   0   6   46.83    0.91
  -7   0  -6   46.45    0.74
  -7   0  -6   47.91    0.77
   7   0   7    5.33    0.29
   7   0   7    6.32    0.29
  -7   0  -7    6.05    0.17
  -7   0  -7    6.26    0.18
   7   0   8    2.67    0.27
   7   0   8    3.05    0.41
   7   0   9    2.48    0.46
   7   0   9    2.44    0.29
   7   0  10    3.07    0.53
   7   0  10    3.92    0.52
   7   0  11    0.79    0.49
   7   0  11    1.09    0.31
   7   1 -10    0.71    0.34
  -7  -1  10    0.55    0.35
   7   1  -9    0.32    0.30
  -7  -1   9    0.40    0.51
  -7  -1   9    0.17    0.29
   7   1  -8    3.98    0.41
  -7  -1   8    4.49    0.42
  -7  -1   8    4.03    0.40
   7   1  -7   14.96    0.55
  -7  -1   7   13.90    0.56
  -7  -1   7   13.94    0.53
   7   1  -6    0.46    0.27
  -7  -1   6    0.68    0.46
  -7  -1   6    0.41    0.27
   7   1  -5   -0.02    0.05
  -7  -1   5    7.57    0.41
  -7  -1   5    8.76    0.41
   7   1  -4   17.13    0.27
   7   1  -4   18.36    0.54
  -7  -1   4   18.33    0.52
  -7  -1   4   18.68    0.54
   7   1  -3   51.36    0.94
   7   1  -3   49.44    0.63
  -7  -1   3   51.26    1.20
  -7  -1   3   51.80    1.21
   7   1  -2    3.33    0.17
   7   1  -2    3.40    0.16
  -7  -1   2    3.46    0.33
  -7  -1   2    3.26    0.33
   7   1  -1  273.49    3.59
   7   1  -1  265.41    3.47
  -7  -1   1  269.08    4.12
  -7  -1   1  261.69    4.04
   7   1   0  280.06    3.63
   7   1   0  269.31    3.58
  -7  -1   0  267.60    3.83
  -7  -1   0  270.92    3.87
   7   1   1  128.35    1.65
   7   1   1  125.36    1.68
  -7  -1  -1  124.58    1.91
  -7  -1  -1  125.17    1.77
   7   1   2   20.02    0.44
   7   1   2   19.57    0.41
  -7  -1  -2   19.39    0.50
  -7  -1  -2   18.84    0.49
   7   1   3   28.83    0.57
   7   1   3   28.50    0.54
  -7  -1  -3   28.30    0.46
  -7  -1  -3   29.32    0.48
   7   1   4   33.21    0.56
   7   1   4   34.31    0.55
  -7  -1  -4   33.73    0.52
  -7  -1  -4   34.38    0.52
   7   1   5   62.58    0.95
   7   1   5   62.08    0.93
  -7  -1  -5   62.66    0.85
  -7  -1  -5   63.29    0.95
   7   1   6    1.14    0.19
   7   1   6    1.67    0.29
  -7  -1  -6    1.56    0.10
  -7  -1  -6    1.41    0.10
   7   1   7    1.55    0.22
   7   1   7    1.39    0.20
  -7  -1  -7    1.82    0.15
  -7  -1  -7    1.42    0.14
   7   1   8   42.72    1.01
   7   1   8   43.56    0.82
   7   1   9   37.67    1.01
   7   1   9   37.80    1.00
   7   1  10    0.29    0.25
   7   1  10    0.34    0.25
   7   1  11    0.11    0.25
   7   1  11    0.15    0.25
   7   1  12    0.32    0.30
   7   1  12    0.30    0.48
   7   2 -10    0.08    0.30
  -7  -2  10   -0.08    0.31
   7   2  -9    3.58    0.42
  -7  -2   9    4.92    0.70
  -7  -2   9    3.14    0.41
   7   2  -8    0.35    0.48
  -7  -2   8    0.19    0.27
  -7  -2   8    0.01    0.45
   7   2  -7    0.44    0.48
  -7  -2   7    0.43    0.46
  -7  -2   7    0.34    0.47
   7   2  -6    4.90    0.58
   7   2  -6    3.92    0.21
  -7  -2   6    4.23    0.59
  -7  -2   6    5.37    0.38
   7   2  -5   34.73    1.01
   7   2  -5   31.65    0.53
  -7  -2   5   33.89    0.99
  -7  -2   5   33.42    0.75
  -7  -2   5   30.88    0.54
   7   2  -4   37.56    1.01
   7   2  -4   34.52    0.56
  -7  -2   4   35.35    0.96
  -7  -2   4   36.96    0.98
  -7  -2   4   34.28    0.48
   7   2  -3    7.72    0.36
   7   2  -3    7.29    0.17
  -7  -2   3    7.37    0.36
  -7  -2   3    7.09    0.24
  -7  -2   3    7.66    0.35
   7   2  -2  144.69    2.15
   7   2  -2  138.85    1.77
  -7  -2   2  139.62    2.29
  -7  -2   2  139.36    1.87
  -7  -2   2  137.81    2.05
   7   2  -1   81.40    1.14
   7   2  -1   85.67    1.52
   7   2  -1   84.26    1.19
  -7  -2   1   83.75    1.17
  -7  -2   1   80.97    1.45
  -7  -2   1   82.09    1.28
   7   2   0  109.18    1.41
   7   2   0  111.77    1.55
   7   2   0  113.89    1.63
  -7  -2   0  111.84    1.44
  -7  -2   0  106.66    1.55
  -7  -2   0  109.97    1.60
   7   2   1   42.31    0.63
   7   2   1   41.60    0.72
  -7  -2  -1   40.38    0.69
  -7  -2  -1   40.78    0.87
   7   2   2  352.68    5.00
   7   2   2  350.27    4.94
  -7  -2  -2  343.07    4.98
  -7  -2  -2  348.22    5.04
   7   2   3    0.39    0.16
   7   2   3    1.81    0.25
  -7  -2  -3    0.62    0.14
  -7  -2  -3    0.61    0.13
   7   2   4   76.18    1.11
   7   2   4   76.19    1.09
  -7  -2  -4   75.91    1.02
  -7  -2  -4   76.68    1.03
   7   2   5   12.14    0.33
   7   2   5   13.19    0.45
  -7  -2  -5   12.47    0.24
  -7  -2  -5   12.13    0.30
   7   2   6   27.72    0.54
   7   2   6   27.34    0.67
  -7  -2  -6   27.36    0.44
  -7  -2  -6   27.27    0.38
   7   2   7   17.56    0.44
   7   2   7   18.41    0.58
  -7  -2  -7   17.33    0.25
  -7  -2  -7   17.97    0.30
   7   2   8    0.04    0.30
   7   2   8   -0.10    0.17
   7   2   9   11.16    0.43
   7   2   9   11.62    0.42
   7   2  10    0.17    0.24
   7   2  10   -0.13    0.36
   7   2  11   25.22    0.71
   7   2  11   25.87    0.98
   7   2  12   19.68    0.68
   7   2  12   20.60    0.68
   7   3  -9    0.23    0.30
  -7  -3   9    0.78    0.35
   7   3  -8    0.51    0.44
   7   3  -8    0.10    0.12
  -7  -3   8    0.09    0.29
   7   3  -7    5.62    0.41
   7   3  -7    5.06    0.29
  -7  -3   7    4.85    0.30
  -7  -3   7    5.31    0.41
   7   3  -6    8.65    0.42
   7   3  -6    8.10    0.32
  -7  -3   6    7.27    0.23
  -7  -3   6    7.81    0.42
   7   3  -5   13.16    0.48
   7   3  -5   12.19    0.27
  -7  -3   5   12.60    0.37
  -7  -3   5   14.92    0.71
   7   3  -4    9.06    0.40
   7   3  -4    8.02    0.30
  -7  -3   4    8.57    0.31
  -7  -3   4    9.07    0.40
   7   3  -3    9.68    0.38
   7   3  -3    8.94    0.30
  -7  -3   3    8.87    0.22
  -7  -3   3    9.18    0.37
   7   3  -2   12.71    0.57
   7   3  -2   12.22    0.35
  -7  -3   2   12.69    0.55
  -7  -3   2   12.00    0.34
   7   3  -1    6.68    0.29
   7   3  -1    6.08    0.19
  -7  -3   1    6.35    0.28
  -7  -3   1    5.78    0.19
  -7  -3   1    5.97    0.27
   7   3   0   33.80    0.75
   7   3   0   33.74    0.63
  -7  -3   0   33.26    0.73
  -7  -3   0   34.07    0.61
  -7  -3   0   32.78    0.58
   7   3   1   25.83    0.44
   7   3   1   25.33    0.42
   7   3   1   26.62    0.48
  -7  -3  -1   26.65    0.44
  -7  -3  -1   24.36    0.59
  -7  -3  -1   25.17    0.46
   7   3   2   28.61    0.47
   7   3   2   28.62    0.49
   7   3   2   29.63    0.50
  -7  -3  -2   29.39    0.49
  -7  -3  -2   27.91    0.60
  -7  -3  -2   28.17    0.47
   7   3   3   12.89    0.34
   7   3   3   13.38    0.44
  -7  -3  -3   12.85    0.39
  -7  -3  -3   12.66    0.38
   7   3   4  191.62    2.87
   7   3   4  190.35    2.81
  -7  -3  -4  189.11    2.48
  -7  -3  -4  186.83    2.58
   7   3   5  151.64    2.17
   7   3   5  154.82    2.36
  -7  -3  -5  153.33    2.03
  -7  -3  -5  150.66    2.02
   7   3   6    0.37    0.19
   7   3   6    0.54    0.28
  -7  -3  -6    0.29    0.10
  -7  -3  -6    0.29    0.07
   7   3   7    0.30    0.31
   7   3   7    0.35    0.30
  -7  -3  -7    0.44    0.07
  -7  -3  -7    0.00    0.04
   7   3   8    5.86    0.31
   7   3   8    5.78    0.47
   7   3   9   -0.12    0.17
   7   3   9    0.27    0.27
   7   3  10    3.93    0.35
   7   3  10    3.46    0.32
   7   3  11    1.57    0.52
   7   3  11    0.85    0.30
   7   3  12    7.00    0.72
   7   3  12    6.28    0.46
   7   3  13    0.03    0.49
   7   3  13    0.25    0.48
   7   4  -9    0.45    0.32
   7   4  -9    0.38    0.27
  -7  -4   9    0.72    0.31
  -7  -4   9    0.87    0.36
   7   4  -8    1.01    0.56
   7   4  -8    0.82    0.17
  -7  -4   8    1.06    0.30
  -7  -4   8    0.95    0.57
   7   4  -7    4.02    0.41
   7   4  -7    3.68    0.32
  -7  -4   7    3.08    0.34
  -7  -4   7    3.84    0.41
   7   4  -6    1.00    0.15
   7   4  -6    1.21    0.30
  -7  -4   6    0.86    0.16
  -7  -4   6    0.90    0.49
   7   4  -5    3.21    0.19
   7   4  -5    3.29    0.34
  -7  -4   5    3.09    0.19
  -7  -4   5    3.33    0.35
   7   4  -4   13.99    0.32
   7   4  -4   14.61    0.49
  -7  -4   4   14.77    0.34
  -7  -4   4   14.74    0.49
   7   4  -3   48.17    0.74
   7   4  -3   50.33    0.92
  -7  -4   3   49.20    0.76
  -7  -4   3   50.49    1.12
   7   4  -2   53.16    0.79
   7   4  -2   55.09    0.94
  -7  -4   2   55.08    0.93
  -7  -4   2   53.71    0.92
   7   4  -1   44.22    0.79
   7   4  -1   44.32    0.76
  -7  -4   1   43.66    0.66
  -7  -4   1   43.39    0.75
   7   4   0    3.18    0.28
   7   4   0    2.63    0.33
  -7  -4   0    2.84    0.17
  -7  -4   0    2.55    0.20
   7   4   1    2.48    0.19
   7   4   1    2.37    0.19
  -7  -4  -1    1.93    0.25
  -7  -4  -1    2.10    0.28
   7   4   2   52.94    0.79
   7   4   2   53.60    0.79
   7   4   2   51.64    0.80
  -7  -4  -2   51.55    0.76
  -7  -4  -2   54.12    0.80
  -7  -4  -2   51.77    0.76
   7   4   3    4.96    0.32
   7   4   3    4.76    0.35
   7   4   3    4.94    0.18
  -7  -4  -3    5.08    0.34
  -7  -4  -3    4.66    0.18
  -7  -4  -3    4.57    0.17
   7   4   4   40.26    0.68
   7   4   4   39.71    0.77
  -7  -4  -4   40.02    0.64
  -7  -4  -4   38.10    0.62
   7   4   5    3.08    0.39
   7   4   5    4.01    0.23
  -7  -4  -5    3.52    0.19
  -7  -4  -5    3.30    0.12
   7   4   6    8.99    0.50
   7   4   6    9.27    0.32
  -7  -4  -6    8.82    0.16
  -7  -4  -6    8.70    0.20
   7   4   7    0.15    0.30
   7   4   7    0.08    0.17
  -7  -4  -7    0.07    0.04
  -7  -4  -7    0.05    0.05
   7   4   8    5.67    0.32
   7   4   8    5.66    0.33
   7   4   9    4.71    0.34
   7   4   9    5.10    0.33
   7   4  10    9.77    0.43
   7   4  10   10.03    0.43
   7   4  11    2.47    0.54
   7   4  11    2.15    0.33
   7   4  12    1.49    0.57
   7   4  12    1.38    0.55
   7   4  13    0.27    0.31
   7   4  13    0.30    0.51
   7   5  -9    1.34    0.41
   7   5  -9    1.43    0.35
  -7  -5   9    1.23    0.25
  -7  -5   9    0.77    0.67
   7   5  -8   -0.12    0.41
   7   5  -8    0.00    0.14
  -7  -5   8    0.18    0.30
  -7  -5   8    0.05    0.31
   7   5  -7    2.93    0.38
   7   5  -7    2.87    0.24
  -7  -5   7    3.14    0.25
  -7  -5   7    3.53    0.66
   7   5  -6    4.34    0.39
   7   5  -6    4.22    0.24
  -7  -5   6    4.24    0.40
  -7  -5   6    4.29    0.40
   7   5  -5    0.68    0.43
   7   5  -5    0.51    0.26
  -7  -5   5    0.46    0.17
  -7  -5   5    0.69    0.45
   7   5  -4    3.25    0.52
   7   5  -4    3.46    0.21
  -7  -5   4    3.79    0.23
  -7  -5   4    3.74    0.34
   7   5  -3   16.23    0.48
   7   5  -3   15.85    0.37
  -7  -5   3   15.41    0.38
  -7  -5   3   16.64    0.49
   7   5  -2    8.87    0.37
   7   5  -2    9.08    0.30
  -7  -5   2    9.11    0.30
  -7  -5   2    9.19    0.37
   7   5  -1    1.30    0.37
   7   5  -1    1.76    0.19
  -7  -5   1    1.38    0.30
  -7  -5   1    1.45    0.37
   7   5   0   28.21    0.54
   7   5   0   28.33    0.52
  -7  -5   0   29.49    0.65
  -7  -5   0   28.05    0.69
   7   5   1   46.24    0.73
   7   5   1   46.04    0.74
  -7  -5  -1   46.68    0.74
  -7  -5  -1   44.09    0.70
   7   5   2    5.84    0.39
   7   5   2    6.08    0.22
  -7  -5  -2    6.10    0.37
  -7  -5  -2    5.70    0.21
   7   5   3    2.35    0.35
   7   5   3    2.56    0.24
  -7  -5  -3    2.86    0.33
  -7  -5  -3    2.52    0.24
   7   5   4    0.04    0.14
   7   5   4    0.03    0.08
   7   5   4   -0.01    0.14
  -7  -5  -4    0.05    0.08
  -7  -5  -4    0.08    0.14
  -7  -5  -4    0.01    0.08
   7   5   5    4.72    0.25
   7   5   5    4.69    0.27
   7   5   5    4.68    0.14
  -7  -5  -5    4.72    0.25
  -7  -5  -5    4.42    0.19
  -7  -5  -5    4.15    0.13
   7   5   6    4.87    0.29
   7   5   6    5.18    0.41
  -7  -5  -6    4.81    0.15
  -7  -5  -6    5.16    0.16
   7   5   7    0.36    0.21
   7   5   7    0.21    0.31
  -7  -5  -7    0.52    0.05
  -7  -5  -7    0.25    0.05
   7   5   8    0.62    0.25
   7   5   8    0.64    0.37
   7   5   9    3.11    0.51
   7   5   9    3.38    0.48
   7   5  10   11.22    0.46
   7   5  10   12.11    0.68
   7   5  11    0.46    0.48
   7   5  11    0.90    0.46
   7   5  12    1.41    0.34
   7   5  12    1.17    0.53
   7   5  13    0.37    0.32
   7   5  13    0.62    0.51
   7   6  -8    0.15    0.52
   7   6  -8    0.39    0.34
  -7  -6   8    0.06    0.21
  -7  -6   8    0.22    0.31
   7   6  -7   12.22    0.57
   7   6  -7   11.25    0.57
  -7  -6   7   11.29    0.63
  -7  -6   7   12.85    0.60
   7   6  -6    1.42    0.30
   7   6  -6    0.05    0.19
  -7  -6   6    0.00    0.20
  -7  -6   6    1.20    0.49
   7   6  -5    0.73    0.46
   7   6  -5    0.63    0.30
  -7  -6   5   -0.01    0.33
  -7  -6   5    1.12    0.30
   7   6  -4   42.68    0.89
   7   6  -4   42.20    0.76
  -7  -6   4   42.96    0.96
  -7  -6   4   43.43    0.90
   7   6  -3    7.56    0.37
   7   6  -3    6.64    0.30
  -7  -6   3    7.24    0.30
  -7  -6   3    6.79    0.58
   7   6  -2   18.36    0.50
   7   6  -2   18.05    0.59
  -7  -6   2   18.75    0.44
  -7  -6   2   16.70    0.69
   7   6  -1   26.66    0.57
   7   6  -1   28.23    0.71
  -7  -6   1   26.98    0.53
  -7  -6   1   25.83    0.75
   7   6   0   27.75    0.55
   7   6   0   27.46    0.56
  -7  -6   0   28.50    0.72
  -7  -6   0   26.50    0.71
   7   6   1  106.86    1.68
   7   6   1  107.46    1.58
  -7  -6  -1  110.62    1.75
  -7  -6  -1  102.72    1.66
   7   6   2    4.61    0.21
   7   6   2    4.83    0.44
  -7  -6  -2    4.44    0.25
  -7  -6  -2    4.35    0.21
   7   6   3    4.80    0.29
   7   6   3    4.72    0.28
  -7  -6  -3    5.28    0.27
  -7  -6  -3    5.10    0.30
   7   6   4    5.16    0.25
   7   6   4    4.77    0.46
  -7  -6  -4    5.55    0.43
  -7  -6  -4    5.35    0.26
   7   6   5    3.67    0.25
   7   6   5    3.97    0.27
   7   6   5    3.48    0.14
  -7  -6  -5    3.99    0.26
  -7  -6  -5    3.63    0.14
   7   6   6   31.35    0.64
   7   6   6   29.44    0.40
   7   6   6   31.07    0.61
  -7  -6  -6   31.32    0.62
  -7  -6  -6   30.14    0.41
   7   6   7    0.48    0.24
   7   6   7    0.63    0.21
  -7  -6  -7    0.00    0.04
  -7  -6  -7    0.33    0.06
   7   6   8   36.47    0.77
   7   6   8   35.97    0.74
   7   6   9    4.57    0.57
   7   6   9    4.86    0.52
   7   6  10    1.01    0.30
   7   6  10    1.13    0.46
   7   6  11    0.04    0.41
   7   6  11    0.08    0.38
   7   6  12    2.76    0.39
   7   6  12    2.48    0.61
   7   6  13    0.45    0.33
   7   6  13    0.52    0.52
   7   7  -7    4.63    0.73
   7   7  -7    3.83    0.32
  -7  -7   7    3.93    0.56
  -7  -7   7    3.92    0.50
   7   7  -6    1.96    0.38
   7   7  -6    1.84    0.27
  -7  -7   6    2.31    0.29
  -7  -7   6    1.72    0.40
   7   7  -5    0.23    0.46
   7   7  -5    0.29    0.32
  -7  -7   5   -0.08    0.20
  -7  -7   5   -0.05    0.43
   7   7  -4    2.04    0.31
   7   7  -4    2.68    0.25
  -7  -7   4    2.86    0.27
  -7  -7   4    2.26    0.34
   7   7  -3    1.99    0.28
   7   7  -3    1.39    0.38
  -7  -7   3    0.00    0.37
  -7  -7   3    1.41    0.28
   7   7  -2    6.55    0.32
   7   7  -2    6.78    0.36
  -7  -7   2    6.25    0.51
  -7  -7   2    6.31    0.36
   7   7  -1  139.24    2.10
   7   7  -1  137.61    2.07
  -7  -7   1  144.77    2.35
  -7  -7   1  134.56    2.08
   7   7   0    1.37    0.40
   7   7   0    1.59    0.22
  -7  -7   0    1.94    0.41
  -7  -7   0    2.09    0.24
   7   7   1    5.16    0.30
   7   7   1    5.47    0.25
  -7  -7  -1    5.43    0.30
  -7  -7  -1    4.86    0.40
   7   7   2   85.35    1.55
   7   7   2   81.59    1.20
  -7  -7  -2   84.97    1.30
  -7  -7  -2   80.06    1.19
   7   7   3   10.45    0.40
   7   7   3   10.11    0.39
  -7  -7  -3   10.88    0.38
  -7  -7  -3   10.25    0.41
   7   7   4  154.77    2.54
   7   7   4  144.85    1.98
  -7  -7  -4  145.33    2.10
  -7  -7  -4  154.84    2.48
   7   7   5   44.07    0.63
   7   7   5   46.77    1.15
  -7  -7  -5   44.98    0.64
  -7  -7  -5   49.13    1.10
   7   7   6   29.94    0.63
   7   7   6   28.62    0.64
   7   7   6   27.65    0.46
  -7  -7  -6   29.44    0.63
  -7  -7  -6   28.65    0.41
   7   7   7   11.32    0.41
   7   7   7   11.13    0.22
   7   7   7   11.94    0.45
  -7  -7  -7   12.88    0.43
  -7  -7  -7   11.16    0.23
   7   7   8    4.97    0.56
   7   7   8    4.08    0.32
   7   7   9   13.02    0.50
   7   7   9   13.24    0.47
   7   7  10    6.15    0.41
   7   7  10    6.11    0.62
   7   7  11    0.90    0.33
   7   7  11    0.63    0.49
   7   7  12    0.10    0.28
   7   7  12    0.01    0.42
   7   7  13    9.33    0.55
   7   7  13   10.24    0.81
   7   8  -7    9.95    0.89
   7   8  -7    8.70    0.45
  -7  -8   7    9.73    0.74
  -7  -8   7    9.22    0.95
   7   8  -6    1.29    0.34
   7   8  -6    0.05    0.27
  -7  -8   6    0.03    0.30
  -7  -8   6    1.72    0.38
   7   8  -5    6.90    0.46
   7   8  -5    7.61    0.57
  -7  -8   5    6.96    0.41
  -7  -8   5    7.74    0.50
   7   8  -4    2.94    0.30
   7   8  -4    3.58    0.57
  -7  -8   4    3.25    0.31
  -7  -8   4    2.80    0.39
   7   8  -3    0.02    0.31
   7   8  -3   -0.11    0.22
  -7  -8   3    0.08    0.35
  -7  -8   3    0.30    0.41
   7   8  -2    5.03    0.32
   7   8  -2    5.23    0.34
  -7  -8   2    4.80    0.32
  -7  -8   2    5.43    0.56
   7   8  -1    0.85    0.25
   7   8  -1    1.29    0.24
  -7  -8   1    0.06    0.23
  -7  -8   1    0.95    0.23
   7   8   0    0.64    0.23
   7   8   0    0.13    0.32
  -7  -8   0    0.17    0.20
  -7  -8   0    0.19    0.19
   7   8   1    0.83    0.25
   7   8   1    1.12    0.32
  -7  -8  -1    0.96    0.24
  -7  -8  -1    0.90    0.20
   7   8   2   39.07    0.97
   7   8   2   37.18    0.79
  -7  -8  -2   35.74    0.63
  -7  -8  -2   37.83    0.72
   7   8   3    0.08    0.20
   7   8   3    0.05    0.13
  -7  -8  -3    0.09    0.22
  -7  -8  -3    0.25    0.20
   7   8   4    8.32    0.39
   7   8   4    8.62    0.34
  -7  -8  -4    8.00    0.35
  -7  -8  -4    9.01    0.56
   7   8   5   33.44    0.97
   7   8   5   30.50    0.48
  -7  -8  -5   31.86    0.90
  -7  -8  -5   31.11    0.60
   7   8   6   38.00    1.05
   7   8   6   35.28    0.52
   7   8   6   37.48    0.78
  -7  -8  -6   38.10    0.76
  -7  -8  -6   35.37    0.61
   7   8   7    6.41    0.37
   7   8   7    6.30    0.20
   7   8   7    6.80    0.62
  -7  -8  -7    6.38    0.37
  -7  -8  -7    6.36    0.20
   7   8   8   14.36    0.52
   7   8   8   14.85    0.48
  -7  -8  -8   14.49    0.48
   7   8   9    4.13    0.38
   7   8   9    4.10    0.35
   7   8  10    9.58    0.70
   7   8  10    9.50    0.49
   7   8  11   10.83    0.53
   7   8  11   10.61    0.74
   7   8  12    1.11    0.61
   7   8  12    1.38    0.57
   7   8  13   -0.19    0.33
   7   9  -6    9.87    0.85
   7   9  -6    9.87    0.50
  -7  -9   6   11.13    0.94
  -7  -9   6    9.85    0.52
   7   9  -5    0.36    0.45
   7   9  -5    0.43    0.32
  -7  -9   5    0.33    0.31
  -7  -9   5   -0.06    0.27
   7   9  -4    8.44    0.66
   7   9  -4    8.32    0.46
  -7  -9   4    8.19    0.52
  -7  -9   4    8.66    0.68
   7   9  -3   18.28    0.56
   7   9  -3   17.00    0.84
  -7  -9   3   17.74    0.60
  -7  -9   3   17.25    0.57
   7   9  -2    0.32    0.25
   7   9  -2    0.42    0.25
  -7  -9   2    0.42    0.25
  -7  -9   2    0.03    0.25
   7   9  -1   21.33    0.81
   7   9  -1   21.06    0.56
  -7  -9   1   20.83    0.57
  -7  -9   1   20.46    0.57
   7   9   0   15.76    0.52
   7   9   0   14.81    0.64
  -7  -9   0   14.45    0.64
  -7  -9   0   15.19    0.73
   7   9   1   31.36    0.71
   7   9   1   29.97    0.81
  -7  -9  -1   29.84    0.63
  -7  -9  -1   30.95    0.92
   7   9   2   29.27    0.74
   7   9   2   30.85    0.95
  -7  -9  -2   28.08    0.74
  -7  -9  -2   30.86    0.90
   7   9   3    2.97    0.33
   7   9   3    2.77    0.32
  -7  -9  -3    2.62    0.21
  -7  -9  -3    3.15    0.48
   7   9   4   14.92    0.51
   7   9   4   14.09    0.34
  -7  -9  -4   13.88    0.34
  -7  -9  -4   14.62    0.47
   7   9   5   38.12    0.80
   7   9   5   35.31    0.57
  -7  -9  -5   36.78    0.76
  -7  -9  -5   35.93    0.58
   7   9   6    2.08    0.33
   7   9   6    2.05    0.14
  -7  -9  -6    2.44    0.30
  -7  -9  -6    1.67    0.14
   7   9   7    5.05    0.36
   7   9   7    5.16    0.39
   7   9   7    4.73    0.14
  -7  -9  -7    5.36    0.36
  -7  -9  -7    4.66    0.22
   7   9   8    0.18    0.24
   7   9   8    0.08    0.25
  -7  -9  -8    0.07    0.24
   7   9   9    7.49    0.63
   7   9   9    6.91    0.44
  -7  -9  -9    6.26    0.40
   7   9  10    4.98    0.70
   7   9  10    6.24    0.63
   7   9  11    0.72    0.35
   7   9  11    0.56    0.51
   7   9  12    3.84    0.72
   7   9  12    4.23    0.68
   7   9  13    0.74    0.38
   7   9  13    0.93    0.35
   7  10  -4   12.28    0.52
   7  10  -4   12.00    0.58
  -7 -10   4   11.68    0.92
  -7 -10   4   11.92    0.56
   7  10  -3   10.32    0.76
   7  10  -3    9.98    0.52
  -7 -10   3   10.13    0.83
  -7 -10   3    9.96    0.52
   7  10  -2   32.05    1.06
   7  10  -2   32.03    0.80
  -7 -10   2   32.68    1.11
  -7 -10   2   32.25    0.82
   7  10  -1    2.37    0.33
   7  10  -1    2.94    0.35
  -7 -10   1    2.45    0.52
  -7 -10   1    2.33    0.56
   7  10   0    4.09    0.32
   7  10   0    4.74    0.37
  -7 -10   0    3.75    0.32
  -7 -10   0    4.39    0.57
   7  10   1   14.67    0.45
   7  10   1   14.95    0.78
  -7 -10  -1   14.19    0.46
  -7 -10  -1   15.52    0.51
   7  10   2    5.32    0.46
   7  10   2    5.94    0.41
  -7 -10  -2    5.12    0.30
  -7 -10  -2    5.10    0.38
   7  10   3   19.18    0.63
   7  10   3   21.28    0.63
  -7 -10  -3   19.11    0.63
  -7 -10  -3   20.43    0.57
   7  10   4   55.40    1.05
   7  10   4   59.31    1.13
  -7 -10  -4   56.76    1.06
  -7 -10  -4   53.04    1.03
   7  10   5    0.67    0.15
   7  10   5    0.62    0.31
  -7 -10  -5    0.53    0.28
  -7 -10  -5    0.25    0.25
   7  10   6   20.28    0.50
   7  10   6   20.67    0.65
  -7 -10  -6   20.61    0.86
  -7 -10  -6   19.45    0.40
   7  10   7   50.20    1.06
   7  10   7   45.69    0.69
  -7 -10  -7   51.35    1.29
  -7 -10  -7   46.76    0.72
   7  10   8   19.22    0.89
   7  10   8   19.47    0.65
  -7 -10  -8   19.56    0.89
   7  10   9    5.37    0.64
   7  10   9    6.14    0.72
  -7 -10  -9    4.65    0.39
   7  10  10   -0.14    0.30
   7  10  10   -0.11    0.25
   7  10  11    0.28    0.32
   7  10  11    0.30    0.30
   7  10  12    2.75    0.45
   7  10  12    3.77    0.42
   7  11  -3   -0.04    0.41
   7  11  -3    0.03    0.25
  -7 -11   3    0.33    0.53
  -7 -11   3    0.08    0.52
   7  11  -2   -0.03    0.29
   7  11  -2    0.32    0.30
  -7 -11   2    0.12    0.30
  -7 -11   2    0.09    0.30
   7  11  -1   34.80    1.12
   7  11  -1   34.96    0.89
  -7 -11   1   32.82    0.86
  -7 -11   1   34.67    1.20
   7  11   0    2.29    0.53
   7  11   0    2.67    0.64
  -7 -11   0    2.96    0.35
  -7 -11   0    2.49    0.39
   7  11   1   17.02    0.52
   7  11   1   18.15    0.90
  -7 -11  -1   15.80    0.73
  -7 -11  -1   17.38    0.60
   7  11   2    6.07    0.33
   7  11   2    6.73    0.45
  -7 -11  -2    5.47    0.33
  -7 -11  -2    5.68    0.41
   7  11   3    3.22    0.26
   7  11   3    3.59    0.39
  -7 -11  -3    3.98    0.37
  -7 -11  -3    3.40    0.27
   7  11   4   13.45    0.39
   7  11   4   14.51    0.57
  -7 -11  -4   13.06    0.51
  -7 -11  -4   13.37    0.54
   7  11   5    1.20    0.19
   7  11   5    1.47    0.35
  -7 -11  -5    1.26    0.32
  -7 -11  -5    1.18    0.30
   7  11   6    7.22    0.26
   7  11   6    7.76    0.50
  -7 -11  -6    7.44    0.44
  -7 -11  -6    6.99    0.25
   7  11   7   12.95    0.41
   7  11   7   14.04    0.60
  -7 -11  -7   14.16    0.54
  -7 -11  -7   12.36    0.41
   7  11   8    0.73    0.34
   7  11   8    0.76    0.59
  -7 -11  -8    0.79    0.33
   7  11   9    7.69    0.46
   7  11   9    6.30    0.83
  -7 -11  -9    7.33    0.48
   7  11  10   15.14    0.61
   7  11  10   16.25    0.68
  -7 -11 -10   14.60    0.59
   7  11  11    1.80    0.68
   7  11  11    1.77    0.37
   7  12  -1    0.13    0.26
   7  12  -1   -0.20    0.48
  -7 -12   1    0.08    0.27
  -7 -12   1   -0.03    0.47
   7  12   0    6.63    0.44
   7  12   0    7.10    0.51
  -7 -12   0    7.26    0.69
  -7 -12   0    7.12    0.50
   7  12   1    0.19    0.41
   7  12   1    0.14    0.32
  -7 -12  -1    0.16    0.25
  -7 -12  -1    0.13    0.30
   7  12   2   16.91    0.75
   7  12   2   18.03    0.68
  -7 -12  -2   17.72    0.64
  -7 -12  -2   16.37    0.53
   7  12   3    0.21    0.21
   7  12   3    0.19    0.33
  -7 -12  -3   -0.03    0.44
  -7 -12  -3    0.04    0.19
   7  12   4   21.40    0.53
   7  12   4   24.63    0.77
  -7 -12  -4   21.74    0.95
  -7 -12  -4   20.27    0.52
   7  12   5   11.76    0.38
   7  12   5   12.46    0.60
  -7 -12  -5   11.87    0.80
  -7 -12  -5   10.74    0.36
   7  12   6    7.32    0.29
   7  12   6    8.15    0.52
  -7 -12  -6    8.37    0.74
  -7 -12  -6    7.34    0.30
   7  12   7    0.43    0.25
   7  12   7    0.56    0.37
  -7 -12  -7    0.08    0.52
  -7 -12  -7    0.57    0.25
   7  12   8   23.43    1.15
  -7 -12  -8   22.15    1.01
   7  12   9    4.33    0.71
   7  12   9    4.58    0.51
  -7 -12  -9    4.40    0.70
   7  12  10    0.70    0.55
   7  12  10    0.55    0.37
  -7 -12 -10    0.67    0.34
   7  13   1    1.17    0.52
   7  13   1    1.82    0.41
  -7 -13  -1    1.42    0.41
  -7 -13  -1    1.30    0.35
   7  13   2    0.30    0.26
   7  13   2    0.58    0.36
  -7 -13  -2    0.23    0.33
  -7 -13  -2    0.59    0.44
   7  13   3    9.15    0.42
   7  13   3    9.81    0.59
  -7 -13  -3    9.52    0.81
  -7 -13  -3    8.78    0.42
   7  13   4    0.15    0.36
   7  13   4    0.55    0.37
  -7 -13  -4    0.34    0.54
  -7 -13  -4    0.39    0.24
   7  13   5    9.97    0.57
   7  13   5   11.54    0.64
  -7 -13  -5   10.70    0.54
  -7 -13  -5   10.39    0.40
   7  13   6    1.87    0.37
   7  13   6    1.51    0.45
  -7 -13  -6    1.32    0.40
  -7 -13  -6    1.61    0.23
   7  13   7    8.83    0.31
   7  13   7    9.83    0.95
  -7 -13  -7    9.51    0.52
  -7 -13  -7    7.62    0.30
   7  13   8   12.46    1.01
  -7 -13  -8   11.70    0.57
  -8   5   3    1.11    0.35
  -8   5   3    1.11    0.56
  -8   5   2    0.87    0.54
  -8   5   2    1.11    0.33
  -8   5   1    7.23    0.70
  -8   5   1    5.88    0.43
  -8   5   0   21.09    0.66
  -8   5   0   20.31    0.64
  -8   5  -1   25.84    0.74
  -8   5  -1   25.50    1.00
  -8   5  -2   23.33    0.69
  -8   4   5    0.00    0.29
  -8   4   5   -0.19    0.44
  -8   4   4    1.12    0.36
  -8   4   4    1.20    0.34
  -8   4   3    6.77    0.45
  -8   4   3    7.06    0.70
  -8   4   2    1.50    0.52
  -8   4   2    1.45    0.33
  -8   4   1    0.87    0.30
  -8   4   1    0.97    0.29
  -8   4   0    9.19    0.43
  -8   4   0    8.03    0.63
  -8   4  -1    0.01    0.19
  -8   4  -1    0.01    0.19
  -8   4  -2   13.19    0.50
  -8   4  -2   12.81    0.71
  -8   4  -3  102.78    1.97
  -8   4  -3  106.17    1.82
  -8   4  -4   12.06    0.44
  -8   4  -4   12.01    0.47
  -8   3   6    0.58    0.32
  -8   3   6    0.41    0.34
  -8   3   5    1.03    0.34
  -8   3   5    0.95    0.57
  -8   3   4   32.32    1.10
  -8   3   4   28.83    0.79
  -8   3   3    0.47    0.29
  -8   3   3    0.51    0.30
  -8   3   2    4.29    0.37
  -8   3   2    4.45    0.36
  -8   3   1    4.11    0.35
  -8   3   1    4.64    0.57
  -8   3   0   12.73    0.65
  -8   3   0   11.87    0.44
  -8   3  -1    8.78    0.56
  -8   3  -1    8.12    0.37
  -8   3  -2    0.01    0.35
  -8   3  -2    0.47    0.33
  -8   3  -3   41.52    0.82
  -8   3  -3   41.87    0.81
  -8   3  -4    0.08    0.19
  -8   3  -4    0.27    0.19
   8  -3   5    1.39    0.19
   8  -3   5    1.11    0.31
  -8   3  -5    0.00    0.36
  -8   3  -5    1.48    0.36
   8  -3   6  154.34    2.58
   8  -3   6  155.40    2.42
  -8   3  -6  169.01    2.81
  -8   3  -6  166.20    2.78
  -8   2   7    0.04    0.52
  -8   2   7    0.26    0.31
  -8   2   6    0.65    0.32
  -8   2   6    0.74    0.56
  -8   2   5    0.59    0.30
  -8   2   5    0.48    0.30
  -8   2   4    0.31    0.27
  -8   2   4    0.28    0.46
  -8   2   3    2.70    0.33
  -8   2   3    2.49    0.34
  -8   2   2    0.37    0.25
  -8   2   2    0.12    0.41
  -8   2   1   53.10    1.23
  -8   2   1   52.56    1.01
  -8   2   0   17.92    0.51
  -8   2   0   17.80    0.50
  -8   2  -1    0.00    0.30
  -8   2  -1   -0.12    0.19
  -8   2  -2    1.65    0.23
  -8   2  -2    0.00    0.35
   8  -2   3    4.77    0.26
   8  -2   3    4.94    0.27
  -8   2  -3    5.61    0.41
  -8   2  -3    5.24    0.27
   8  -2   4   13.50    0.31
   8  -2   4   14.30    0.44
  -8   2  -4   15.21    0.41
  -8   2  -4   14.27    0.38
   8  -2   5    0.35    0.15
   8  -2   5    0.26    0.15
  -8   2  -5    0.29    0.26
  -8   2  -5    0.31    0.25
   8  -2   6   13.95    0.39
   8  -2   6   14.96    0.41
  -8   2  -6   15.24    0.52
  -8   2  -6   14.98    0.51
   8  -2   7    0.87    0.36
   8  -2   7    0.82    0.38
   8  -2   8   -0.02    0.20
   8  -2   8    0.12    0.35
  -8   1   8   -0.17    0.34
  -8   1   8   -0.18    0.34
  -8   1   7   12.05    0.62
  -8   1   7   11.52    0.60
  -8   1   6   13.72    0.89
  -8   1   6   14.02    0.88
  -8   1   5    2.58    0.37
  -8   1   5    3.21    0.36
  -8   1   4    6.60    0.41
  -8   1   4    7.08    0.42
  -8   1   3    0.14    0.22
  -8   1   3   -0.06    0.36
  -8   1   2    3.22    0.30
  -8   1   2    3.69    0.30
  -8   1   1    1.32    0.41
  -8   1   1    1.44    0.25
  -8   1   0    0.00    0.20
  -8   1   0    0.89    0.33
  -8   1  -1   22.23    0.52
  -8   1  -1   21.84    0.68
   8  -1   2   28.25    0.52
   8  -1   2   28.97    0.51
  -8   1  -2   29.16    0.75
  -8   1  -2   30.31    0.60
   8  -1   3    8.11    0.23
   8  -1   3    8.16    0.22
  -8   1  -3    8.81    0.30
  -8   1  -3    8.44    0.30
   8  -1   4    8.30    0.35
   8  -1   4    8.76    0.25
  -8   1  -4    8.59    0.29
  -8   1  -4    9.39    0.41
   8  -1   5    0.85    0.25
   8  -1   5    0.79    0.16
  -8   1  -5    0.61    0.25
  -8   1  -5    0.77    0.25
   8  -1   6    4.36    0.25
   8  -1   6    4.65    0.25
  -8   1  -6    4.43    0.30
  -8   1  -6    4.67    0.21
   8  -1   7    3.09    0.25
   8  -1   7    3.25    0.40
   8  -1   8    0.27    0.35
   8  -1   8    0.34    0.21
   8  -1   9    0.17    0.35
   8  -1   9   -0.18    0.22
  -8   0   8    1.12    0.40
  -8   0   8    1.30    0.39
  -8   0   7   11.02    0.59
  -8   0   7   10.64    0.57
  -8   0   6   10.31    0.53
  -8   0   5    2.09    0.57
  -8   0   5    2.17    0.35
  -8   0   4    2.39    0.57
  -8   0   4    3.58    0.57
  -8   0   3   21.34    0.59
  -8   0   3   21.89    0.60
  -8   0   2    1.87    0.26
  -8   0   2    1.90    0.43
  -8   0   1    0.44    0.20
  -8   0   1    0.19    0.20
   8   0   0    5.05    0.18
   8   0   0    4.63    0.16
  -8   0   0    5.09    0.42
  -8   0   0    4.84    0.28
   8   0   1    1.28    0.10
   8   0   1    1.01    0.09
  -8   0  -1    0.95    0.19
  -8   0  -1    1.23    0.20
   8   0   2    0.09    0.15
   8   0   2    0.10    0.08
  -8   0  -2   -0.02    0.22
  -8   0  -2    0.04    0.14
   8   0   3    0.53    0.13
   8   0   3    0.55    0.19
  -8   0  -3    0.42    0.25
  -8   0  -3    0.58    0.25
   8   0   4   26.58    0.59
   8   0   4   26.73    0.57
  -8   0  -4   26.52    0.50
  -8   0  -4   26.70    0.50
   8   0   5   15.55    0.50
   8   0   5   16.28    0.37
  -8   0  -5   16.34    0.35
  -8   0  -5   15.68    0.35
   8   0   6    0.84    0.30
   8   0   6    0.99    0.29
  -8   0  -6    0.82    0.21
  -8   0  -6    1.01    0.14
   8   0   7    5.67    0.30
   8   0   7    6.52    0.44
   8   0   8    0.72    0.37
   8   0   8    0.85    0.23
   8   0   9    0.70    0.25
   8   0   9    0.54    0.41
   8   0  10    0.02    0.24
   8   0  10    0.22    0.24
  -8  -1   8    3.33    0.47
  -8  -1   8    3.41    0.46
  -8  -1   7    7.43    0.52
  -8  -1   7    7.65    0.52
  -8  -1   6   41.44    0.99
  -8  -1   5    0.66    0.32
  -8  -1   5    0.81    0.32
  -8  -1   4   23.05    0.93
  -8  -1   4   22.57    0.64
  -8  -1   3    0.11    0.41
  -8  -1   3    0.32    0.25
  -8  -1   2    2.90    0.30
  -8  -1   2    3.35    0.47
   8   1  -1   11.16    0.25
   8   1  -1   10.56    0.24
  -8  -1   1   10.93    0.39
  -8  -1   1   11.05    0.57
   8   1   0    0.46    0.14
   8   1   0    0.66    0.08
  -8  -1   0    0.52    0.19
  -8  -1   0    0.51    0.31
   8   1   1    0.46    0.16
   8   1   1    0.40    0.14
  -8  -1  -1    0.39    0.28
  -8  -1  -1    0.45    0.17
   8   1   2    3.70    0.17
   8   1   2    3.69    0.15
  -8  -1  -2    3.77    0.22
  -8  -1  -2    3.65    0.34
   8   1   3    5.60    0.21
   8   1   3    5.30    0.28
  -8  -1  -3    5.42    0.23
  -8  -1  -3    5.39    0.23
   8   1   4   24.00    0.57
   8   1   4   23.66    0.43
  -8  -1  -4   23.36    0.43
  -8  -1  -4   23.21    0.53
   8   1   5   18.40    0.55
   8   1   5   19.39    0.52
  -8  -1  -5   18.25    0.46
  -8  -1  -5   17.86    0.35
   8   1   6    0.55    0.31
   8   1   6    1.02    0.19
  -8  -1  -6    0.78    0.19
  -8  -1  -6    0.81    0.19
   8   1   7   44.77    1.01
   8   1   7   47.49    0.85
   8   1   8    7.68    0.36
   8   1   8    7.94    0.54
   8   1   9    4.99    0.56
   8   1   9    5.99    0.35
   8   1  10    3.95    0.55
   8   1  10    3.59    0.55
   8   2  -8   12.08    0.62
  -8  -2   8   12.40    0.63
  -8  -2   8   12.41    0.62
  -8  -2   7   16.27    0.98
  -8  -2   7   16.00    0.94
   8   2  -6    1.73    0.61
  -8  -2   6    1.08    0.35
  -8  -2   6    1.19    0.58
   8   2  -5   17.50    0.62
  -8  -2   5   18.31    0.90
  -8  -2   5   17.31    0.61
   8   2  -4   57.14    1.13
  -8  -2   4   55.94    1.11
  -8  -2   4   54.69    1.09
   8   2  -3   19.89    0.37
   8   2  -3   21.75    0.60
   8   2  -3   20.39    0.38
  -8  -2   3   19.20    0.37
  -8  -2   3   21.36    0.84
  -8  -2   3   21.06    0.58
   8   2  -2    1.58    0.16
   8   2  -2    1.91    0.28
   8   2  -2    1.68    0.11
  -8  -2   2    1.55    0.10
  -8  -2   2    1.45    0.27
  -8  -2   2    1.75    0.44
   8   2  -1   75.04    1.00
   8   2  -1   71.36    1.01
  -8  -2   1   74.27    1.45
  -8  -2   1   72.35    1.21
   8   2   0   25.90    0.42
   8   2   0   25.63    0.48
  -8  -2   0   25.32    0.73
  -8  -2   0   25.10    0.55
   8   2   1   16.19    0.38
   8   2   1   16.67    0.41
  -8  -2  -1   15.73    0.54
  -8  -2  -1   16.25    0.40
   8   2   2    0.26    0.17
   8   2   2    0.23    0.12
  -8  -2  -2    0.46    0.24
  -8  -2  -2    0.32    0.15
   8   2   3   25.14    0.46
   8   2   3   24.85    0.44
  -8  -2  -3   24.31    0.45
  -8  -2  -3   24.46    0.45
   8   2   4    7.45    0.38
   8   2   4    7.20    0.25
  -8  -2  -4    7.45    0.31
  -8  -2  -4    7.01    0.22
   8   2   5    0.29    0.26
   8   2   5    0.29    0.24
  -8  -2  -5    0.52    0.17
  -8  -2  -5    0.37    0.11
   8   2   6   16.10    0.57
   8   2   6   16.65    0.54
  -8  -2  -6   16.15    0.36
  -8  -2  -6   15.43    0.28
   8   2   7    2.72    0.41
   8   2   7    2.63    0.25
   8   2   8   31.16    0.69
   8   2   8   32.58    0.71
   8   2   9    5.48    0.59
   8   2   9    6.11    0.58
   8   2  10   55.75    1.14
   8   2  10   57.65    1.16
   8   2  11    0.37    0.30
   8   2  11    0.46    0.29
   8   3  -8    6.27    0.82
  -8  -3   8    5.77    0.52
  -8  -3   8    5.72    0.79
  -8  -3   7    0.52    0.53
  -8  -3   7    0.31    0.58
   8   3  -6    1.48    0.58
  -8  -3   6    1.19    0.54
  -8  -3   6    1.06    0.35
   8   3  -5    0.03    0.40
  -8  -3   5    0.06    0.41
  -8  -3   5    0.11    0.43
   8   3  -4    7.03    0.64
   8   3  -4    6.28    0.26
  -8  -3   4    5.76    0.62
  -8  -3   4    5.99    0.26
  -8  -3   4    6.87    0.41
   8   3  -3   14.32    0.49
   8   3  -3   12.97    0.27
  -8  -3   3   14.21    0.48
  -8  -3   3   14.39    0.68
   8   3  -2    6.44    0.35
   8   3  -2    6.79    0.29
  -8  -3   2    6.21    0.27
  -8  -3   2    6.51    0.53
  -8  -3   2    6.20    0.35
   8   3  -1   33.69    0.62
   8   3  -1   35.27    0.90
   8   3  -1   34.02    0.53
  -8  -3   1   33.20    0.61
  -8  -3   1   34.16    0.68
  -8  -3   1   32.99    0.87
   8   3   0   20.08    0.46
   8   3   0   20.84    0.50
   8   3   0   21.52    0.51
  -8  -3   0   20.65    0.46
  -8  -3   0   20.21    0.48
  -8  -3   0   19.61    0.47
   8   3   1    3.54    0.19
   8   3   1    3.10    0.25
  -8  -3  -1    3.59    0.24
  -8  -3  -1    3.32    0.35
   8   3   2   54.95    0.83
   8   3   2   53.82    0.79
  -8  -3  -2   54.00    0.97
  -8  -3  -2   53.49    0.96
   8   3   3    6.50    0.37
   8   3   3    6.41    0.23
  -8  -3  -3    6.99    0.33
  -8  -3  -3    6.53    0.22
   8   3   4    4.16    0.23
   8   3   4    3.77    0.21
  -8  -3  -4    3.78    0.17
  -8  -3  -4    3.51    0.25
   8   3   5   13.86    0.54
   8   3   5   14.59    0.49
  -8  -3  -5   14.37    0.35
  -8  -3  -5   14.42    0.35
   8   3   6   20.12    0.63
   8   3   6   19.60    0.60
  -8  -3  -6   20.06    0.38
  -8  -3  -6   19.86    0.38
   8   3   7   16.12    0.64
   8   3   7   16.83    0.59
   8   3   8    7.77    0.36
   8   3   8    7.79    0.35
   8   3   9   30.71    0.95
   8   3   9   32.76    0.72
   8   3  10    1.57    0.32
   8   3  10    1.40    0.32
   8   3  11   13.81    0.84
   8   3  11   14.48    0.84
   8   4  -8    0.20    0.53
  -8  -4   8    0.16    0.54
   8   4  -7    4.94    0.74
  -8  -4   7    4.53    0.46
   8   4  -6   17.85    0.63
   8   4  -6   15.98    0.48
  -8  -4   6   14.42    0.37
  -8  -4   6   17.92    0.93
   8   4  -5   14.41    0.54
   8   4  -5   12.96    0.42
  -8  -4   5   12.01    0.30
  -8  -4   5   14.47    0.56
   8   4  -4    0.85    0.29
   8   4  -4    0.79    0.22
  -8  -4   4    0.74    0.22
  -8  -4   4    1.12    0.48
   8   4  -3    6.22    0.36
   8   4  -3    6.21    0.31
  -8  -4   3    6.14    0.21
  -8  -4   3    6.09    0.36
   8   4  -2    0.93    0.42
   8   4  -2    1.69    0.25
  -8  -4   2    1.34    0.14
  -8  -4   2    1.41    0.25
   8   4  -1   23.32    0.54
   8   4  -1   22.65    0.43
  -8  -4   1   21.26    0.50
  -8  -4   1   21.46    0.41
  -8  -4   1   21.85    0.51
   8   4   0    1.66    0.22
   8   4   0    1.46    0.17
  -8  -4   0    1.88    0.21
  -8  -4   0    1.32    0.25
  -8  -4   0    1.61    0.35
   8   4   1   51.52    0.90
   8   4   1   52.56    0.82
   8   4   1   53.76    0.87
  -8  -4  -1   52.52    0.93
  -8  -4  -1   51.47    0.98
  -8  -4  -1   50.71    0.83
   8   4   2    2.27    0.28
   8   4   2    2.74    0.19
   8   4   2    2.39    0.19
  -8  -4  -2    2.41    0.29
  -8  -4  -2    2.42    0.30
  -8  -4  -2    2.36    0.18
   8   4   3   20.63    0.58
   8   4   3   20.07    0.40
  -8  -4  -3   19.73    0.38
  -8  -4  -3   19.72    0.38
   8   4   4   51.58    0.83
   8   4   4   52.95    0.86
  -8  -4  -4   50.66    0.74
  -8  -4  -4   49.45    0.82
   8   4   5    5.26    0.42
   8   4   5    5.28    0.25
  -8  -4  -5    4.77    0.16
  -8  -4  -5    4.65    0.23
   8   4   6   22.74    0.69
   8   4   6   22.84    0.49
  -8  -4  -6   22.30    0.34
  -8  -4  -6   21.30    0.33
   8   4   7    0.07    0.30
   8   4   7    0.08    0.17
   8   4   8    1.60    0.26
   8   4   8    1.08    0.25
   8   4   9   22.11    0.59
   8   4   9   22.31    0.79
   8   4  10   10.48    0.47
   8   4  10   11.21    0.69
   8   4  11    1.68    0.56
   8   4  11    1.95    0.33
   8   4  12    3.89    0.41
   8   4  12    4.00    0.41
   8   5  -7    0.44    0.26
   8   5  -7   -0.04    0.56
  -8  -5   7    0.55    0.27
  -8  -5   7   -0.09    0.34
   8   5  -6    0.21    0.25
   8   5  -6    0.34    0.30
  -8  -5   6    0.36    0.16
  -8  -5   6    0.14    0.31
   8   5  -5   -0.05    0.13
   8   5  -5    0.09    0.24
  -8  -5   5    0.06    0.24
  -8  -5   5    0.28    0.27
   8   5  -4    6.41    0.38
   8   5  -4    7.05    0.42
  -8  -5   4    6.01    0.38
  -8  -5   4    7.36    0.42
   8   5  -3   23.27    0.61
   8   5  -3   24.78    0.63
  -8  -5   3   22.66    0.59
  -8  -5   3   23.59    0.63
   8   5  -2   28.99    0.68
   8   5  -2   28.84    0.66
  -8  -5   2   28.10    0.66
  -8  -5   2   28.66    0.88
   8   5  -1    5.37    0.36
   8   5  -1    4.47    0.48
  -8  -5   1    4.79    0.34
  -8  -5   1    4.77    0.48
   8   5   0    2.31    0.38
   8   5   0    2.25    0.33
  -8  -5   0    2.37    0.30
  -8  -5   0    2.07    0.23
   8   5   1   20.51    0.45
   8   5   1   19.72    0.43
  -8  -5  -1   20.22    0.42
  -8  -5  -1   19.20    0.58
   8   5   2    5.88    0.24
   8   5   2    6.03    0.27
   8   5   2    5.74    0.25
  -8  -5  -2    5.68    0.23
  -8  -5  -2    5.72    0.25
  -8  -5  -2    5.48    0.35
   8   5   3    0.34    0.26
   8   5   3    0.09    0.12
   8   5   3    0.16    0.14
  -8  -5  -3    0.04    0.14
  -8  -5  -3    0.09    0.11
  -8  -5  -3    0.07    0.10
   8   5   4    0.13    0.16
   8   5   4    0.14    0.14
   8   5   4    0.09    0.10
  -8  -5  -4    0.07    0.16
  -8  -5  -4    0.25    0.17
  -8  -5  -4    0.12    0.10
   8   5   5   19.23    0.64
   8   5   5   19.12    0.44
  -8  -5  -5   18.78    0.40
  -8  -5  -5   18.32    0.32
   8   5   6   11.88    0.58
   8   5   6   12.03    0.53
  -8  -5  -6   11.60    0.21
  -8  -5  -6   10.94    0.26
   8   5   7   29.01    0.84
   8   5   7   29.60    0.79
   8   5   8    1.93    0.28
   8   5   8    1.53    0.26
   8   5   9    0.03    0.22
   8   5   9   -0.14    0.20
   8   5  10    2.49    0.35
   8   5  10    2.78    0.33
   8   5  11    4.19    0.64
   8   5  11    4.43    0.40
   8   5  12    0.15    0.28
   8   5  12    0.04    0.26
   8   6  -7    1.50    0.23
   8   6  -7    1.21    0.67
  -8  -6   7    1.52    0.38
  -8  -6   7    1.17    0.68
   8   6  -6   13.22    0.59
   8   6  -6   12.98    0.57
  -8  -6   6   12.58    0.41
  -8  -6   6   14.69    0.64
   8   6  -5    0.37    0.30
   8   6  -5    0.49    0.19
  -8  -6   5    0.24    0.19
  -8  -6   5    0.60    0.50
   8   6  -4    2.56    0.34
   8   6  -4    2.47    0.23
  -8  -6   4    2.10    0.36
  -8  -6   4    2.65    0.57
   8   6  -3   14.81    0.52
   8   6  -3   14.08    0.55
  -8  -6   3   14.28    0.41
  -8  -6   3   14.60    0.52
   8   6  -2    3.77    0.32
   8   6  -2    3.89    0.39
  -8  -6   2    4.00    0.25
  -8  -6   2    3.45    0.33
   8   6  -1   25.83    0.60
   8   6  -1   25.30    0.53
  -8  -6   1   24.92    0.52
  -8  -6   1   25.86    0.59
   8   6   0   30.69    0.62
   8   6   0   30.51    0.61
  -8  -6   0   29.70    0.57
  -8  -6   0   29.53    0.62
   8   6   1   20.54    0.63
   8   6   1   22.07    0.66
  -8  -6  -1   21.52    0.63
  -8  -6  -1   20.30    0.46
   8   6   2   15.96    0.43
   8   6   2   15.74    0.38
  -8  -6  -2   16.21    0.57
  -8  -6  -2   15.28    0.52
   8   6   3   11.31    0.55
   8   6   3   11.09    0.30
  -8  -6  -3   11.43    0.52
  -8  -6  -3   10.95    0.30
   8   6   4   44.11    0.77
   8   6   4   43.34    0.66
   8   6   4   44.00    0.81
  -8  -6  -4   41.10    0.63
  -8  -6  -4   45.75    0.79
  -8  -6  -4   43.65    0.76
   8   6   5    1.27    0.22
   8   6   5    1.93    0.25
   8   6   5    1.66    0.19
  -8  -6  -5    1.70    0.23
  -8  -6  -5    1.38    0.19
  -8  -6  -5    1.49    0.18
   8   6   6    5.13    0.32
   8   6   6    5.35    0.30
  -8  -6  -6    4.55    0.19
  -8  -6  -6    5.03    0.21
   8   6   7    0.02    0.19
   8   6   7   -0.05    0.17
   8   6   8   18.15    0.54
   8   6   8   17.92    0.51
   8   6   9    0.44    0.25
   8   6   9    0.07    0.23
   8   6  10    0.12    0.25
   8   6  10    0.08    0.23
   8   6  11   14.82    0.60
   8   6  11   15.12    0.57
   8   6  12   -0.11    0.28
   8   6  12    0.03    0.25
   8   7  -6    5.13    0.76
   8   7  -6    5.30    0.33
  -8  -7   6    5.38    0.52
  -8  -7   6    5.32    0.51
   8   7  -5   18.67    0.65
   8   7  -5   15.87    0.67
  -8  -7   5   16.89    0.51
  -8  -7   5   18.19    0.68
   8   7  -4    1.50    0.34
   8   7  -4    1.28    0.25
  -8  -7   4    0.12    0.23
  -8  -7   4    1.28    0.32
   8   7  -3   30.09    0.76
   8   7  -3   29.40    0.84
  -8  -7   3   29.28    0.87
  -8  -7   3   29.88    1.04
   8   7  -2   40.94    0.86
   8   7  -2   41.27    0.79
  -8  -7   2   41.54    1.00
  -8  -7   2   41.63    1.12
   8   7  -1    1.22    0.26
   8   7  -1    1.34    0.39
  -8  -7   1    1.15    0.23
  -8  -7   1    1.00    0.43
   8   7   0   29.73    0.63
   8   7   0   30.47    0.63
  -8  -7   0   29.74    0.61
  -8  -7   0   28.76    0.81
   8   7   1    1.25    0.21
   8   7   1    1.34    0.39
  -8  -7  -1    1.12    0.22
  -8  -7  -1    1.06    0.21
   8   7   2    5.73    0.41
   8   7   2    5.53    0.32
  -8  -7  -2    6.08    0.51
  -8  -7  -2    5.28    0.27
   8   7   3  110.05    1.60
   8   7   3  110.14    1.96
  -8  -7  -3  115.03    1.95
  -8  -7  -3  107.67    1.57
   8   7   4    0.36    0.23
   8   7   4    0.48    0.13
  -8  -7  -4    0.44    0.36
  -8  -7  -4    0.31    0.21
   8   7   5   14.05    0.62
   8   7   5   13.94    0.46
   8   7   5   13.20    0.28
  -8  -7  -5   12.83    0.37
  -8  -7  -5   13.91    0.63
   8   7   6   19.18    0.52
   8   7   6   20.17    0.55
   8   7   6   18.67    0.38
  -8  -7  -6   19.83    0.52
  -8  -7  -6   18.96    0.39
  -8  -7  -6   17.65    0.36
   8   7   7   20.81    0.58
   8   7   7   19.89    0.53
   8   7   8   33.91    0.79
   8   7   8   34.17    0.75
   8   7   9    7.48    0.68
   8   7   9    7.70    0.41
   8   7  10    5.74    0.44
   8   7  10    5.92    0.41
   8   7  11    3.22    0.41
   8   7  11    3.00    0.37
   8   7  12    0.30    0.34
   8   7  12    0.39    0.31
   8   8  -5    3.08    0.69
   8   8  -5    3.55    0.50
  -8  -8   5    3.91    0.34
  -8  -8   5    3.47    0.71
   8   8  -4    0.65    0.32
   8   8  -4    0.94    0.25
  -8  -8   4    0.08    0.40
  -8  -8   4    0.66    0.32
   8   8  -3    0.32    0.28
   8   8  -3    0.27    0.22
  -8  -8   3   -0.05    0.23
  -8  -8   3    0.79    0.28
   8   8  -2    0.81    0.30
   8   8  -2    0.98    0.41
  -8  -8   2    0.94    0.25
  -8  -8   2    0.83    0.30
   8   8  -1    4.25    0.52
   8   8  -1    3.19    0.30
  -8  -8   1    3.48    0.48
  -8  -8   1    3.52    0.34
   8   8   0   14.21    0.63
   8   8   0   14.45    0.67
  -8  -8   0   13.41    0.63
  -8  -8   0   12.48    0.44
   8   8   1   21.47    0.51
   8   8   1   22.10    0.57
  -8  -8  -1   21.58    0.73
  -8  -8  -1   20.48    0.68
   8   8   2    6.27    0.28
   8   8   2    6.46    0.35
  -8  -8  -2    6.33    0.51
  -8  -8  -2    6.20    0.29
   8   8   3    1.51    0.46
   8   8   3    1.57    0.29
  -8  -8  -3    0.90    0.41
  -8  -8  -3    0.99    0.29
   8   8   4    7.36    0.25
   8   8   4    6.95    0.38
  -8  -8  -4    7.33    0.36
  -8  -8  -4    7.03    0.54
   8   8   5    2.74    0.16
   8   8   5    3.00    0.31
  -8  -8  -5    2.92    0.25
  -8  -8  -5    3.11    0.47
   8   8   6    3.45    0.32
   8   8   6    4.78    0.35
   8   8   6    3.81    0.23
  -8  -8  -6    4.26    0.32
  -8  -8  -6    3.91    0.16
   8   8   7    1.88    0.30
   8   8   7    1.98    0.32
  -8  -8  -7    2.59    0.30
   8   8   8    0.34    0.27
   8   8   8    0.15    0.25
   8   8   9   14.86    0.85
   8   8   9   14.05    0.53
   8   8  10   14.32    0.59
   8   8  10   13.90    0.57
   8   8  11    7.54    0.50
   8   8  11    7.26    0.46
   8   8  12    0.08    0.30
   8   8  12    0.13    0.28
   8   9  -4    0.03    0.44
   8   9  -4    0.08    0.36
  -8  -9   4    0.02    0.25
  -8  -9   4    0.37    0.49
   8   9  -3    1.28    0.32
   8   9  -3    1.11    0.29
  -8  -9   3    0.06    0.26
  -8  -9   3    1.28    0.51
   8   9  -2   12.68    0.51
   8   9  -2   12.63    0.47
  -8  -9   2   12.46    0.71
  -8  -9   2   12.90    0.79
   8   9  -1    9.70    0.65
   8   9  -1    8.38    0.41
  -8  -9   1    9.29    0.42
  -8  -9   1    8.10    0.67
   8   9   0    3.63    0.35
   8   9   0    3.41    0.47
  -8  -9   0    3.51    0.49
  -8  -9   0    3.08    0.32
   8   9   1   -0.12    0.22
   8   9   1    0.06    0.28
  -8  -9  -1    0.08    0.19
  -8  -9  -1    0.07    0.21
   8   9   2   -0.31    0.35
   8   9   2    0.08    0.14
  -8  -9  -2   -0.01    0.27
  -8  -9  -2    0.09    0.20
   8   9   3    0.55    0.41
   8   9   3    0.19    0.16
  -8  -9  -3    0.27    0.17
  -8  -9  -3    0.29    0.23
   8   9   4    0.42    0.26
   8   9   4    0.19    0.23
  -8  -9  -4    0.26    0.14
  -8  -9  -4   -0.01    0.23
   8   9   5   11.26    0.48
   8   9   5   10.97    0.28
  -8  -9  -5   11.12    0.44
  -8  -9  -5   10.87    0.30
   8   9   6    1.44    0.29
   8   9   6    1.05    0.13
   8   9   6    1.09    0.30
  -8  -9  -6    1.08    0.28
  -8  -9  -6    0.99    0.20
   8   9   7    0.39    0.28
   8   9   7    0.29    0.25
  -8  -9  -7    0.37    0.26
   8   9   8    0.44    0.28
   8   9   8    0.58    0.30
  -8  -9  -8    0.31    0.26
   8   9   9    7.02    0.75
   8   9   9    6.90    0.43
   8   9  10    0.64    0.34
   8   9  10    0.64    0.31
   8   9  11   -0.14    0.54
   8   9  11    0.28    0.29
   8   9  12    0.14    0.30
   8   9  12   -0.05    0.29
   8  10  -3   11.32    0.77
   8  10  -3   10.43    0.80
  -8 -10   3   12.08    0.58
  -8 -10   3   10.51    0.79
   8  10  -2    0.32    0.43
   8  10  -2    0.08    0.26
  -8 -10   2    0.31    0.29
  -8 -10   2    0.10    0.27
   8  10  -1   15.38    0.56
   8  10  -1   15.53    0.52
  -8 -10   1   14.58    0.55
  -8 -10   1   14.86    0.55
   8  10   0    0.23    0.27
   8  10   0    0.26    0.23
  -8 -10   0    0.12    0.23
  -8 -10   0    0.02    0.40
   8  10   1   24.21    0.92
   8  10   1   21.84    0.56
  -8 -10  -1   21.63    0.79
  -8 -10  -1   23.87    0.90
   8  10   2    0.29    0.46
   8  10   2    0.14    0.19
  -8 -10  -2   -0.25    0.19
  -8 -10  -2    0.14    0.24
   8  10   3   12.26    0.53
   8  10   3   11.92    0.37
  -8 -10  -3   11.96    0.54
  -8 -10  -3   12.59    0.48
   8  10   4    4.28    0.40
   8  10   4    3.34    0.22
  -8 -10  -4    3.72    0.37
  -8 -10  -4    4.59    0.37
   8  10   5    0.02    0.29
   8  10   5    0.28    0.21
  -8 -10  -5    0.39    0.26
  -8 -10  -5    0.24    0.24
   8  10   6    0.15    0.26
   8  10   6    0.02    0.17
  -8 -10  -6   -0.01    0.20
  -8 -10  -6    0.00    0.09
   8  10   7    4.29    0.39
   8  10   7    3.85    0.41
  -8 -10  -7    3.15    0.37
   8  10   8    0.00    0.23
   8  10   8   -0.05    0.42
  -8 -10  -8    0.19    0.28
   8  10   9    0.71    0.31
   8  10   9    0.81    0.58
  -8 -10  -9    0.79    0.32
   8  10  10    3.96    0.48
   8  10  10    4.66    0.43
   8  10  11    0.50    0.63
   8  10  11    0.86    0.36
   8  11  -1    2.59    0.40
   8  11  -1    2.32    0.58
  -8 -11   1    1.45    0.37
  -8 -11   1    1.75    0.38
   8  11   0    9.33    0.80
   8  11   0    9.35    0.45
  -8 -11   0    8.40    0.68
  -8 -11   0    9.17    0.78
   8  11   1    0.62    0.53
   8  11   1    0.61    0.25
  -8 -11  -1    0.69    0.27
  -8 -11  -1    0.68    0.32
   8  11   2   17.52    0.65
   8  11   2   16.99    0.50
  -8 -11  -2   16.07    0.51
  -8 -11  -2   16.94    0.59
   8  11   3    2.10    0.40
   8  11   3    1.80    0.25
  -8 -11  -3    2.62    0.35
  -8 -11  -3    2.15    0.25
   8  11   4   11.68    0.55
   8  11   4    9.96    0.35
  -8 -11  -4   10.98    0.51
  -8 -11  -4   10.36    0.52
   8  11   5   14.59    0.62
   8  11   5   12.81    0.50
  -8 -11  -5   13.81    0.56
  -8 -11  -5   13.46    0.52
   8  11   6    6.51    0.51
   8  11   6    6.13    0.25
  -8 -11  -6    7.41    0.71
  -8 -11  -6    6.32    0.26
   8  11   7   -0.03    0.30
  -8 -11  -7    0.28    0.49
   8  11   8    2.91    0.63
   8  11   8    3.33    0.74
  -8 -11  -8    4.27    0.68
   8  11   9    3.59    0.68
   8  11   9    4.07    0.48
  -8 -11  -9    4.26    0.70
   8  11  10   -0.20    0.36
   8  11  10   -0.08    0.51
   8  12   1   21.19    0.76
   8  12   1   19.46    0.86
  -8 -12  -1   18.39    0.60
  -8 -12  -1   19.83    0.71
   8  12   2    5.06    0.56
   8  12   2    4.72    0.51
  -8 -12  -2    4.66    0.56
  -8 -12  -2    4.06    0.43
   8  12   3    0.80    0.39
   8  12   3    0.44    0.37
  -8 -12  -3    0.63    0.55
  -8 -12  -3    0.59    0.25
   8  12   4    2.94    0.43
   8  12   4    4.00    0.46
  -8 -12  -4    2.50    0.63
  -8 -12  -4    2.79    0.28
   8  12   5   11.77    0.61
   8  12   5   10.88    0.51
  -8 -12  -5   11.32    0.56
  -8 -12  -5   10.47    0.36
   8  12   6    2.16    0.44
   8  12   6    1.65    0.20
  -8 -12  -6    2.52    0.39
  -8 -12  -6    1.94    0.21
   8  12   7   12.20    1.00
  -8 -12  -7   11.63    0.57
   8  12   8   15.59    0.66
   8  12   8   16.78    1.10
  -8 -12  -8   14.53    0.64
   8  12   9    2.33    0.43
   8  12   9    2.17    0.47
  -8 -12  -9    2.79    0.44
  -9   3   2    1.71    0.58
  -9   3   2    2.27    0.57
  -9   3   1    0.00    0.29
  -9   3   1    0.82    0.28
  -9   3   0   16.12    0.79
  -9   3   0   16.67    0.57
  -9   3  -1    3.65    0.35
  -9   3  -1    3.43    0.35
  -9   3  -2    0.00    0.29
  -9   3  -2    2.39    0.30
  -9   2   4    2.05    0.37
  -9   2   4    1.82    0.39
  -9   2   3    0.40    0.48
  -9   2   3    0.45    0.31
  -9   2   2   21.46    0.65
  -9   2   2   21.51    0.65
  -9   2   1    4.57    0.37
  -9   2   1    4.77    0.37
  -9   2   0    0.00    0.40
  -9   2   0    0.43    0.25
  -9   2  -1    3.92    0.31
  -9   2  -1    4.49    0.49
  -9   2  -2    0.00    0.37
  -9   2  -2    1.05    0.36
  -9   2  -3    3.73    0.44
  -9   2  -3    3.79    0.29
  -9   2  -4    1.34    0.36
  -9   2  -4    1.34    0.24
  -9   2  -5    2.75    0.25
  -9   2  -5    3.18    0.40
  -9   1   5    2.37    0.64
  -9   1   5    2.61    0.66
  -9   1   4    0.26    0.27
  -9   1   4    0.02    0.28
  -9   1   3    0.06    0.41
  -9   1   2   13.98    0.53
  -9   1   2   14.29    0.55
  -9   1   1    4.22    0.56
  -9   1   1    4.67    0.58
  -9   1   0    0.00    0.24
  -9   1   0    0.83    0.38
  -9   1  -1   24.31    0.59
  -9   1  -1   24.86    0.60
  -9   1  -2    0.00    0.36
  -9   1  -2    2.32    0.38
  -9   1  -3    4.69    0.43
  -9   1  -4    7.35    0.44
  -9   1  -4    7.32    0.30
   9  -1   5    0.85    0.28
   9  -1   5    1.34    0.18
  -9   1  -5    1.24    0.30
  -9   1  -5    1.11    0.30
   9  -1   6    0.52    0.30
   9  -1   6    0.76    0.30
  -9   0   5    6.26    0.74
  -9   0   5    6.65    0.74
  -9   0   4    0.41    0.52
  -9   0   4    0.90    0.32
  -9   0   3   14.98    0.79
  -9   0   3   13.69    0.53
  -9   0   2   18.87    0.81
  -9   0   2   18.72    0.58
  -9   0   1    6.46    0.37
  -9   0   1    7.06    0.59
  -9   0   0   18.10    0.52
  -9   0   0   18.55    0.54
  -9   0  -1   46.42    0.88
  -9   0  -1   46.98    0.90
  -9   0  -2   14.34    0.43
  -9   0  -2   15.10    0.42
   9   0   3    2.08    0.25
   9   0   3    1.82    0.15
  -9   0  -3    1.67    0.22
  -9   0  -3    1.98    0.35
   9   0   4    3.37    0.30
   9   0   4    3.08    0.19
  -9   0  -4    2.97    0.34
   9   0   5    2.02    0.31
   9   0   5    2.10    0.19
  -9   0  -5    1.95    0.19
  -9   0  -5    1.92    0.29
   9   0   6    3.52    0.37
   9   0   6    3.52    0.37
   9   0   7    5.48    0.46
   9   0   7    6.30    0.46
  -9  -1   6    3.96    0.46
  -9  -1   6    3.90    0.45
  -9  -1   5    0.53    0.31
  -9  -1   4    5.84    0.43
  -9  -1   4    5.82    0.66
  -9  -1   3    0.94    0.50
  -9  -1   3    0.74    0.30
  -9  -1   2    9.66    0.44
  -9  -1   2   10.01    0.45
  -9  -1   1    0.04    0.20
  -9  -1   1    0.08    0.20
  -9  -1   0   12.99    0.62
  -9  -1   0   12.69    0.62
  -9  -1  -1   72.44    1.21
  -9  -1  -1   73.40    1.23
   9   1   2    0.34    0.13
   9   1   2    0.38    0.11
  -9  -1  -2    0.50    0.31
  -9  -1  -2    0.44    0.19
   9   1   3   21.94    0.43
   9   1   3   22.38    0.41
  -9  -1  -3   22.07    0.63
  -9  -1  -3   22.73    0.49
   9   1   4   98.85    1.61
   9   1   4   99.81    1.59
  -9  -1  -4   98.99    1.50
  -9  -1  -4   97.73    1.47
   9   1   5   11.10    0.35
   9   1   5   10.95    0.32
  -9  -1  -5   10.76    0.42
  -9  -1  -5   10.99    0.30
   9   1   6   17.21    0.45
   9   1   6   17.60    0.57
   9   1   7   -0.03    0.15
   9   1   7    0.05    0.15
   9   1   8   -0.08    0.31
   9   1   8    0.16    0.19
  -9  -2   6    3.35    0.44
  -9  -2   6    3.41    0.43
  -9  -2   5    1.85    0.37
  -9  -2   4    1.71    0.35
  -9  -2   4    1.34    0.35
  -9  -2   3   22.03    0.64
  -9  -2   3   20.84    0.88
  -9  -2   2    0.17    0.39
  -9  -2   2    0.17    0.23
  -9  -2   1    0.61    0.24
  -9  -2   1    0.79    0.24
   9   2   0    0.75    0.19
   9   2   0    0.81    0.10
  -9  -2   0    0.90    0.23
  -9  -2   0    1.00    0.23
   9   2   1    6.02    0.20
   9   2   1    5.72    0.25
  -9  -2  -1    5.19    0.46
  -9  -2  -1    6.25    0.43
   9   2   2    5.53    0.21
   9   2   2    5.44    0.19
  -9  -2  -2    5.35    0.39
  -9  -2  -2    5.37    0.41
   9   2   3   -0.02    0.11
   9   2   3    0.09    0.17
  -9  -2  -3    0.09    0.14
  -9  -2  -3   -0.01    0.22
   9   2   4   28.70    0.54
   9   2   4   27.83    0.52
  -9  -2  -4   29.05    0.65
  -9  -2  -4   27.74    0.63
   9   2   5    3.89    0.25
   9   2   5    3.64    0.23
  -9  -2  -5    4.04    0.19
  -9  -2  -5    4.00    0.19
   9   2   6    7.19    0.33
   9   2   6    7.12    0.46
   9   2   7   82.81    1.40
   9   2   7   85.67    1.42
   9   2   8    1.36    0.42
   9   2   8    1.37    0.41
   9   2   9    0.40    0.25
   9   2   9    0.60    0.24
   9   3  -6    0.95    0.36
  -9  -3   6    0.58    0.35
  -9  -3   6    0.73    0.34
   9   3  -5    0.69    0.34
  -9  -3   5    1.02    0.34
  -9  -3   5    0.63    0.32
   9   3  -4    1.52    0.34
  -9  -3   4    1.48    0.56
  -9  -3   4    1.37    0.33
   9   3  -3    0.94    0.30
  -9  -3   3    0.65    0.30
  -9  -3   3    0.93    0.28
   9   3  -2   17.02    0.53
  -9  -3   2   16.50    0.52
  -9  -3   2   16.23    0.74
   9   3  -1    4.50    0.26
   9   3  -1    4.65    0.16
  -9  -3   1    4.58    0.49
  -9  -3   1    4.30    0.30
   9   3   0    2.80    0.17
   9   3   0    2.55    0.14
  -9  -3   0    2.49    0.25
  -9  -3   0    2.92    0.40
   9   3   1   14.48    0.44
   9   3   1   14.27    0.40
  -9  -3  -1   14.57    0.40
  -9  -3  -1   13.94    0.40
   9   3   2    3.73    0.30
   9   3   2    3.62    0.28
  -9  -3  -2    3.82    0.24
  -9  -3  -2    3.99    0.24
   9   3   3    8.81    0.41
   9   3   3    8.81    0.37
  -9  -3  -3    8.55    0.28
  -9  -3  -3    8.02    0.27
   9   3   4   11.59    0.34
   9   3   4   12.48    0.32
  -9  -3  -4   11.90    0.41
  -9  -3  -4   12.26    0.41
   9   3   5    1.17    0.20
   9   3   5    1.28    0.19
  -9  -3  -5    1.19    0.21
  -9  -3  -5    0.99    0.21
   9   3   6    0.09    0.17
   9   3   6   -0.05    0.24
   9   3   7    6.75    0.35
   9   3   7    7.10    0.48
   9   3   8    0.42    0.23
   9   3   8    0.13    0.20
   9   3   9    1.50    0.50
   9   3   9    2.20    0.30
   9   3  10    5.35    0.40
   9   3  10    5.97    0.59
   9   4  -6    6.95    0.80
  -9  -4   6    6.31    0.81
  -9  -4   6    5.81    0.76
   9   4  -5    3.08    0.66
  -9  -4   5    3.74    0.43
  -9  -4   5    3.98    0.65
   9   4  -4    2.54    0.36
  -9  -4   4    1.83    0.57
  -9  -4   4    1.35    0.54
   9   4  -3   18.07    0.58
   9   4  -3   16.91    0.46
  -9  -4   3   16.66    0.56
  -9  -4   3   16.94    0.57
   9   4  -2    5.72    0.37
   9   4  -2    5.35    0.32
  -9  -4   2    4.94    0.30
  -9  -4   2    5.06    0.35
  -9  -4   2    5.52    0.35
   9   4  -1   14.05    0.41
   9   4  -1   14.98    0.68
   9   4  -1   14.32    0.33
  -9  -4   1   13.88    0.42
  -9  -4   1   14.14    0.46
  -9  -4   1   13.55    0.63
   9   4   0    2.65    0.26
   9   4   0    2.52    0.19
   9   4   0    2.47    0.26
  -9  -4   0    2.64    0.26
  -9  -4   0    3.15    0.41
  -9  -4   0    2.16    0.25
   9   4   1   -0.05    0.17
   9   4   1    0.08    0.12
   9   4   1   -0.05    0.15
  -9  -4  -1   -0.08    0.11
  -9  -4  -1    0.14    0.25
  -9  -4  -1    0.09    0.24
   9   4   2   15.29    0.37
   9   4   2   14.19    0.44
  -9  -4  -2   13.72    0.51
  -9  -4  -2   13.44    0.49
   9   4   3    2.62    0.34
   9   4   3    2.20    0.30
  -9  -4  -3    2.20    0.19
  -9  -4  -3    2.15    0.29
   9   4   4   16.72    0.42
   9   4   4   16.27    0.40
  -9  -4  -4   15.49    0.34
  -9  -4  -4   15.30    0.34
   9   4   5   17.92    0.46
   9   4   5   17.70    0.43
  -9  -4  -5   18.41    0.35
  -9  -4  -5   17.27    0.43
   9   4   6   15.73    0.63
   9   4   6   15.12    0.41
   9   4   7    4.65    0.31
   9   4   7    3.88    0.30
   9   4   8    8.92    0.42
   9   4   8    9.57    0.57
   9   4   9    7.56    0.63
   9   4   9    7.05    0.38
   9   4  10    0.49    0.28
   9   4  10    0.30    0.25
   9   5  -5    2.56    0.65
  -9  -5   5    2.30    0.41
   9   5  -4    1.28    0.56
   9   5  -4    1.32    0.17
  -9  -5   4    1.37    0.17
  -9  -5   4    1.31    0.35
   9   5  -3    0.51    0.46
   9   5  -3    0.52    0.15
  -9  -5   3    0.37    0.15
  -9  -5   3    0.70    0.46
   9   5  -2    1.56    0.30
   9   5  -2    1.09    0.28
  -9  -5   2    1.01    0.27
  -9  -5   2    0.93    0.26
  -9  -5   2    1.11    0.47
   9   5  -1    1.00    0.26
   9   5  -1    0.99    0.29
  -9  -5   1    1.03    0.25
  -9  -5   1    0.73    0.27
  -9  -5   1    0.90    0.26
   9   5   0   12.80    0.62
   9   5   0   13.18    0.51
  -9  -5   0   12.15    0.56
  -9  -5   0   12.63    0.46
  -9  -5   0   11.66    0.42
   9   5   1   30.74    0.70
   9   5   1   31.18    0.75
   9   5   1   31.70    0.63
  -9  -5  -1   31.44    0.72
  -9  -5  -1   30.09    0.62
  -9  -5  -1   29.51    0.60
   9   5   2    2.61    0.30
   9   5   2    2.02    0.22
   9   5   2    1.43    0.33
  -9  -5  -2    1.64    0.31
  -9  -5  -2    1.65    0.32
  -9  -5  -2    1.07    0.30
   9   5   3    0.90    0.32
   9   5   3    0.81    0.28
  -9  -5  -3    0.97    0.27
  -9  -5  -3    0.95    0.25
   9   5   4    1.52    0.23
   9   5   4    1.28    0.32
  -9  -5  -4    1.45    0.16
  -9  -5  -4    1.45    0.15
   9   5   5    0.53    0.35
   9   5   5    0.70    0.31
  -9  -5  -5    0.56    0.12
  -9  -5  -5    0.62    0.19
   9   5   6    2.92    0.45
   9   5   6    2.57    0.40
   9   5   7    3.44    0.49
   9   5   7    2.87    0.28
   9   5   8   -0.05    0.21
   9   5   8    0.00    0.19
   9   5   9   19.92    0.63
   9   5   9   20.43    0.60
   9   5  10    1.89    0.60
   9   5  10    2.21    0.33
   9   6  -5    9.52    0.81
   9   6  -5    8.02    0.46
  -9  -6   5    8.12    0.32
  -9  -6   5    9.21    0.83
   9   6  -4    1.17    0.57
   9   6  -4    1.46    0.31
  -9  -6   4    1.62    0.20
  -9  -6   4    1.18    0.36
   9   6  -3    2.15    0.55
   9   6  -3    2.22    0.22
  -9  -6   3    0.00    0.31
  -9  -6   3    2.32    0.33
   9   6  -2    0.15    0.41
   9   6  -2    0.33    0.28
  -9  -6   2    0.02    0.25
  -9  -6   2    0.41    0.25
   9   6  -1    9.25    0.41
   9   6  -1    9.92    0.48
  -9  -6   1    9.40    0.32
  -9  -6   1    9.71    0.41
   9   6   0    3.33    0.29
   9   6   0    3.44    0.25
  -9  -6   0    3.11    0.24
  -9  -6   0    3.62    0.29
   9   6   1   10.48    0.52
   9   6   1    9.74    0.35
  -9  -6  -1   10.17    0.34
  -9  -6  -1    9.67    0.35
   9   6   2    1.01    0.19
   9   6   2    0.87    0.35
   9   6   2    0.97    0.19
  -9  -6  -2    0.86    0.19
  -9  -6  -2    1.58    0.21
  -9  -6  -2    0.93    0.19
   9   6   3    2.01    0.23
   9   6   3    1.83    0.25
   9   6   3    2.13    0.19
  -9  -6  -3    1.99    0.24
  -9  -6  -3    2.13    0.30
  -9  -6  -3    1.96    0.19
   9   6   4    8.58    0.33
   9   6   4    9.07    0.36
   9   6   4    8.41    0.26
  -9  -6  -4    8.62    0.34
  -9  -6  -4    8.65    0.26
  -9  -6  -4    8.02    0.25
   9   6   5   15.14    0.66
   9   6   5   15.14    0.42
  -9  -6  -5   14.76    0.31
  -9  -6  -5   14.22    0.39
   9   6   6    3.88    0.51
   9   6   6    4.50    0.30
   9   6   7    0.30    0.42
   9   6   7    0.67    0.24
   9   6   8   38.83    0.87
   9   6   8   39.23    0.84
   9   6   9    2.43    0.36
   9   6   9    2.17    0.33
   9   6  10   19.35    0.96
   9   6  10   19.57    0.94
   9   6  11    0.18    0.32
   9   6  11    0.14    0.49
   9   7  -4    1.66    0.37
   9   7  -4    1.58    0.63
  -9  -7   4    1.88    0.25
  -9  -7   4    1.39    0.63
   9   7  -3    0.22    0.19
   9   7  -3    0.50    0.47
  -9  -7   3   -0.01    0.29
  -9  -7   3    0.41    0.46
   9   7  -2    5.95    0.60
   9   7  -2    5.22    0.46
  -9  -7   2    5.49    0.45
  -9  -7   2    5.20    0.40
   9   7  -1    2.15    0.25
   9   7  -1    2.01    0.49
  -9  -7   1    1.80    0.23
  -9  -7   1    1.77    0.30
   9   7   0   12.08    0.59
   9   7   0   12.00    0.43
  -9  -7   0   11.45    0.38
  -9  -7   0   11.20    0.42
   9   7   1    1.61    0.25
   9   7   1    1.80    0.24
  -9  -7  -1    1.86    0.23
  -9  -7  -1    1.28    0.38
   9   7   2    1.05    0.32
   9   7   2    1.23    0.39
  -9  -7  -2    1.60    0.23
  -9  -7  -2    1.24    0.21
   9   7   3    2.43    0.25
   9   7   3    2.36    0.20
   9   7   3    2.47    0.28
  -9  -7  -3    2.80    0.26
  -9  -7  -3    2.53    0.21
   9   7   4    4.36    0.29
   9   7   4    4.10    0.20
   9   7   4    4.77    0.31
  -9  -7  -4    4.06    0.19
  -9  -7  -4    4.63    0.30
  -9  -7  -4    4.04    0.21
   9   7   5   14.06    0.43
   9   7   5   13.32    0.68
   9   7   5   12.79    0.40
  -9  -7  -5   14.05    0.44
  -9  -7  -5   12.82    0.30
  -9  -7  -5   12.59    0.38
   9   7   6    0.02    0.40
   9   7   6    0.24    0.21
   9   7   7   12.41    0.73
   9   7   7   12.14    0.46
   9   7   8    1.87    0.35
   9   7   8    2.42    0.30
   9   7   9    2.57    0.36
   9   7   9    1.40    0.53
   9   7  10    0.49    0.53
   9   7  10    0.36    0.48
   9   7  11   37.70    1.00
   9   7  11   37.30    1.25
   9   8  -3    0.54    0.51
   9   8  -3    0.57    0.24
  -9  -8   3    0.74    0.25
  -9  -8   3    0.77    0.35
   9   8  -2    0.85    0.52
   9   8  -2    1.51    0.27
  -9  -8   2    1.12    0.41
  -9  -8   2    1.50    0.54
   9   8  -1    1.16    0.48
   9   8  -1    1.99    0.45
  -9  -8   1    1.93    0.43
  -9  -8   1    2.29    0.52
   9   8   0    3.64    0.48
   9   8   0    3.28    0.31
  -9  -8   0    3.23    0.29
  -9  -8   0    3.18    0.31
   9   8   1    4.89    0.30
   9   8   1    5.85    0.54
  -9  -8  -1    5.04    0.32
  -9  -8  -1    4.74    0.31
   9   8   2    1.55    0.22
   9   8   2    1.59    0.29
  -9  -8  -2    2.09    0.26
  -9  -8  -2    1.28    0.38
   9   8   3    0.54    0.25
   9   8   3    0.68    0.30
  -9  -8  -3    0.59    0.22
  -9  -8  -3    0.14    0.18
   9   8   4    0.62    0.24
   9   8   4    0.72    0.43
   9   8   4    0.61    0.25
  -9  -8  -4    0.33    0.25
  -9  -8  -4    0.46    0.23
   9   8   5    0.01    0.19
   9   8   5    0.16    0.37
   9   8   5    0.07    0.18
  -9  -8  -5    0.14    0.20
  -9  -8  -5    0.19    0.22
   9   8   6    2.70    0.30
   9   8   6    2.29    0.55
  -9  -8  -6    2.73    0.31
   9   8   7    7.76    0.70
   9   8   7    7.58    0.41
   9   8   8    1.40    0.35
   9   8   8    1.26    0.50
   9   8   9    4.63    0.42
   9   8   9    3.69    0.62
   9   8  10    0.74    0.56
   9   8  10    0.51    0.50
   9   9  -2   22.08    0.95
   9   9  -2   22.60    0.64
  -9  -9   2   21.18    0.62
  -9  -9   2   21.85    0.72
   9   9  -1   13.45    0.75
   9   9  -1   12.72    0.50
  -9  -9   1   13.56    0.49
  -9  -9   1   13.43    0.55
   9   9   0    6.10    0.57
   9   9   0    5.71    0.62
  -9  -9   0    5.99    0.56
  -9  -9   0    5.45    0.39
   9   9   1    3.70    0.30
   9   9   1    4.12    0.36
  -9  -9  -1    4.55    0.34
  -9  -9  -1    4.15    0.52
   9   9   2   14.48    0.44
   9   9   2   16.00    0.55
  -9  -9  -2   14.54    0.45
  -9  -9  -2   15.71    0.51
   9   9   3    7.88    0.46
   9   9   3    7.87    0.44
  -9  -9  -3    6.95    0.47
  -9  -9  -3    7.88    0.41
   9   9   4    5.83    0.25
   9   9   4    6.63    0.66
  -9  -9  -4    6.03    0.27
  -9  -9  -4    6.32    0.39
   9   9   5   19.46    0.59
   9   9   5   20.51    0.90
   9   9   5   18.29    0.52
  -9  -9  -5   19.85    0.58
  -9  -9  -5   17.75    0.40
   9   9   6    9.20    0.45
   9   9   6   11.06    0.76
  -9  -9  -6    9.52    0.46
   9   9   7   14.38    0.54
   9   9   7   15.71    0.88
  -9  -9  -7   14.55    0.55
   9   9   8    6.72    0.49
   9   9   8    6.76    0.42
   9   9   9    0.51    0.35
   9   9   9    0.77    0.32
   9   9  10   -0.24    0.51
   9   9  10    0.03    0.46
   9  10  -1    1.50    0.34
   9  10  -1    1.43    0.54
  -9 -10   1    1.29    0.54
  -9 -10   1    1.06    0.51
   9  10   0    6.59    0.41
   9  10   0    6.80    0.44
  -9 -10   0    6.12    0.64
  -9 -10   0    6.21    0.41
   9  10   1   22.14    0.59
   9  10   1   21.42    0.68
  -9 -10  -1   20.59    0.59
  -9 -10  -1   21.02    0.62
   9  10   2    5.23    0.32
   9  10   2    6.69    0.70
  -9 -10  -2    5.41    0.35
  -9 -10  -2    6.94    0.64
   9  10   3   16.80    0.46
   9  10   3   17.92    0.90
  -9 -10  -3   16.52    0.46
  -9 -10  -3   17.05    0.83
   9  10   4    5.43    0.41
   9  10   4    5.05    0.71
  -9 -10  -4    5.27    0.41
  -9 -10  -4    5.51    0.42
   9  10   5    0.02    0.13
   9  10   5    0.03    0.44
  -9 -10  -5    0.25    0.27
  -9 -10  -5    0.16    0.25
   9  10   6   16.60    0.59
   9  10   6   16.47    0.95
  -9 -10  -6   17.59    0.60
   9  10   7    0.37    0.30
   9  10   7    0.34    0.59
  -9 -10  -7    0.01    0.25
   9  10   8   32.27    0.90
   9  10   8   34.09    0.95
  -9 -10  -8   34.08    0.92
   9  10   9   52.79    1.30
   9  10   9   51.26    1.18
   9  11   1    0.08    0.44
   9  11   1   -0.05    0.20
  -9 -11  -1    0.07    0.24
  -9 -11  -1    0.12    0.43
   9  11   2    5.46    0.74
   9  11   2    4.71    0.33
  -9 -11  -2    4.56    0.55
  -9 -11  -2    4.94    0.41
   9  11   3   12.26    0.91
   9  11   3   10.46    0.39
  -9 -11  -3   10.72    0.42
  -9 -11  -3   11.92    0.55
   9  11   4   20.95    0.68
   9  11   4   22.49    0.74
  -9 -11  -4   21.65    0.68
  -9 -11  -4   19.82    0.52
   9  11   5    1.72    0.22
   9  11   5    1.72    0.71
  -9 -11  -5    1.90    0.63
  -9 -11  -5    1.94    0.23
   9  11   6   29.88    1.26
  -9 -11  -6   29.28    1.12
   9  11   7    1.56    0.65
   9  11   7    1.02    0.74
  -9 -11  -7    1.47    0.67
   9  11   8   33.37    1.30
   9  11   8   34.18    1.01
  -9 -11  -8   33.80    1.33
 -10   0   1    2.63    0.33
 -10   0   1    0.13    0.53
 -10   0   0    1.29    0.29
 -10   0   0    1.51    0.28
 -10   0  -1   11.11    0.60
 -10   0  -1   10.95    0.43
 -10   0  -2    1.14    0.39
 -10   0  -2    1.19    0.25
 -10   0  -3    0.93    0.23
 -10   0  -3    1.45    0.23
 -10  -1   2    3.06    0.38
 -10  -1   2    2.59    0.35
 -10  -1   1   25.31    0.95
 -10  -1   1   24.42    0.67
 -10  -1   0    0.08    0.35
 -10  -1   0    0.12    0.22
 -10  -1  -1    1.28    0.41
 -10  -1  -1    1.34    0.26
 -10  -1  -2    7.29    0.34
 -10  -1  -2    7.39    0.35
 -10  -1  -3    0.19    0.29
 -10  -1  -3    0.29    0.19
 -10  -1  -4    6.08    0.29
 -10  -1  -4    5.57    0.28
  10   1   5    7.34    0.30
  10   1   5    8.01    0.41
 -10  -2   3    0.42    0.30
 -10  -2   3    0.51    0.49
 -10  -2   2    0.25    0.28
 -10  -2   2    0.41    0.28
 -10  -2   1    2.53    0.53
 -10  -2   1    1.98    0.52
 -10  -2   0    6.19    0.59
 -10  -2   0    6.74    0.36
 -10  -2  -1   -0.09    0.20
 -10  -2  -1   -0.06    0.19
 -10  -2  -2   13.09    0.41
 -10  -2  -2   12.74    0.41
 -10  -2  -3    0.04    0.16
 -10  -2  -3    0.13    0.16
  10   2   4    4.61    0.25
  10   2   4    4.61    0.34
 -10  -2  -4    4.73    0.38
 -10  -2  -4    4.08    0.36
  10   2   5    1.17    0.28
  10   2   5   -0.07    0.16
  10   2   6    0.57    0.30
  10   2   6   -0.02    0.29
 -10  -3   3    0.44    0.51
 -10  -3   3    0.79    0.48
 -10  -3   2   10.07    0.48
 -10  -3   2   10.39    0.46
 -10  -3   1   10.40    0.46
 -10  -3   1    9.70    0.43
 -10  -3   0   23.83    0.84
 -10  -3   0   23.62    0.61
 -10  -3  -1    6.26    0.52
 -10  -3  -1    6.20    0.52
  10   3   2   -0.02    0.13
  10   3   2    0.10    0.18
 -10  -3  -2   -0.03    0.30
 -10  -3  -2    0.25    0.28
  10   3   3    0.26    0.16
  10   3   3    0.31    0.14
 -10  -3  -3    1.07    0.30
 -10  -3  -3    0.29    0.29
  10   3   4    0.22    0.25
  10   3   4   -0.03    0.22
 -10  -3  -4    0.25    0.15
 -10  -3  -4    0.19    0.14
  10   3   5    0.49    0.27
  10   3   5    0.02    0.15
  10   3   6    1.12    0.21
  10   3   6    0.02    0.19
  10   3   7    0.16    0.19
  10   3   7   -0.01    0.28
  10   4  -3    0.12    0.26
 -10  -4   3   -0.08    0.45
 -10  -4   3    0.18    0.25
 -10  -4   2    8.32    0.44
 -10  -4   2    7.74    0.65
 -10  -4   1    0.11    0.22
 -10  -4   1    0.12    0.21
 -10  -4   0    1.09    0.25
 -10  -4   0    1.35    0.41
  10   4   1    4.26    0.35
  10   4   1    3.74    0.30
 -10  -4  -1    3.96    0.29
 -10  -4  -1    4.17    0.29
  10   4   2   31.96    0.76
  10   4   2   31.39    0.70
 -10  -4  -2   31.33    0.64
 -10  -4  -2   31.23    0.65
  10   4   3   37.87    0.70
  10   4   3   36.23    0.66
 -10  -4  -3   34.45    0.66
 -10  -4  -3   35.98    0.68
  10   4   4    1.27    0.36
  10   4   4    1.45    0.32
 -10  -4  -4    1.06    0.29
 -10  -4  -4    1.45    0.18
  10   4   5    5.70    0.31
  10   4   5    6.00    0.42
  10   4   6    3.85    0.30
  10   4   6    3.77    0.28
  10   4   7    0.33    0.22
  10   4   7    0.14    0.20
  10   4   8    0.58    0.25
  10   4   8    0.53    0.37
  10   5  -3    4.29    0.41
 -10  -5   3    4.39    0.41
 -10  -5   3    3.25    0.39
 -10  -5   2    7.17    0.69
 -10  -5   2    7.07    0.41
  10   5  -1    3.72    0.21
  10   5  -1    4.80    0.36
  10   5  -1    3.88    0.56
 -10  -5   1    4.42    0.57
 -10  -5   1    4.08    0.53
  10   5   0    1.58    0.18
  10   5   0    0.68    0.30
  10   5   0    1.39    0.26
 -10  -5   0    1.13    0.18
 -10  -5   0    1.27    0.43
 -10  -5   0    1.24    0.25
  10   5   1    7.49    0.44
  10   5   1    7.32    0.38
 -10  -5  -1    6.75    0.52
 -10  -5  -1    7.59    0.49
  10   5   2    2.50    0.24
  10   5   2    2.59    0.31
 -10  -5  -2    2.82    0.40
 -10  -5  -2    2.59    0.37
  10   5   3    5.43    0.44
  10   5   3    5.33    0.26
 -10  -5  -3    4.96    0.26
 -10  -5  -3    5.04    0.25
  10   5   4    1.07    0.23
  10   5   4    1.21    0.20
 -10  -5  -4    0.86    0.18
 -10  -5  -4    0.90    0.26
  10   5   5   15.96    0.49
  10   5   5   16.86    0.46
  10   5   6   41.03    1.06
  10   5   6   40.18    0.97
  10   5   7    4.64    0.35
  10   5   7    4.37    0.49
  10   5   8    2.82    0.33
  10   5   8    2.48    0.31
  10   6  -2    3.49    0.39
  10   6  -2    3.40    0.25
 -10  -6   2    3.56    0.36
 -10  -6   2    3.55    0.36
 -10  -6   2    3.81    0.40
  10   6  -1    0.67    0.47
  10   6  -1    0.95    0.32
 -10  -6   1    0.65    0.44
 -10  -6   1    0.85    0.30
 -10  -6   1    1.04    0.30
  10   6   0   12.74    0.37
  10   6   0   12.94    0.46
  10   6   0   12.47    0.40
 -10  -6   0   12.87    0.37
 -10  -6   0   12.73    0.47
 -10  -6   0   11.98    0.44
  10   6   1   10.02    0.35
  10   6   1   10.37    0.40
  10   6   1   11.15    0.39
 -10  -6  -1    9.86    0.35
 -10  -6  -1   10.39    0.41
 -10  -6  -1   10.49    0.39
  10   6   2    0.93    0.19
  10   6   2    0.47    0.36
  10   6   2    0.86    0.21
 -10  -6  -2    0.90    0.19
 -10  -6  -2    0.58    0.21
 -10  -6  -2    0.69    0.19
  10   6   3   22.83    0.57
  10   6   3   20.90    0.65
 -10  -6  -3   20.77    0.63
 -10  -6  -3   21.05    0.62
  10   6   4   -0.11    0.19
  10   6   4    0.14    0.26
 -10  -6  -4   -0.02    0.15
 -10  -6  -4    0.31    0.14
  10   6   5    7.51    0.57
  10   6   5    7.17    0.50
  10   6   6    3.52    0.53
  10   6   6    3.78    0.30
  10   6   7    1.12    0.47
  10   6   7    0.80    0.26
  10   6   8   25.52    0.71
  10   6   8   25.32    0.68
  10   7  -2   11.48    0.52
  10   7  -2   10.49    0.41
 -10  -7   2    9.93    0.55
 -10  -7   2    9.99    0.53
  10   7  -1   23.93    0.95
  10   7  -1   23.45    0.79
 -10  -7   1   22.86    0.56
 -10  -7   1   24.98    0.71
  10   7   0   34.24    1.04
  10   7   0   33.73    0.74
 -10  -7   0   32.65    0.70
 -10  -7   0   33.13    0.79
  10   7   1   16.33    0.51
  10   7   1   16.87    0.71
 -10  -7  -1   14.70    0.46
 -10  -7  -1   16.22    0.66
 -10  -7  -1   15.43    0.50
  10   7   2    1.25    0.40
  10   7   2    2.53    0.40
  10   7   2    1.88    0.28
 -10  -7  -2    1.25    0.34
 -10  -7  -2    0.23    0.38
 -10  -7  -2    1.25    0.38
  10   7   3   12.70    0.60
  10   7   3   12.97    0.46
  10   7   3   12.69    0.38
 -10  -7  -3   13.83    0.63
 -10  -7  -3   12.70    0.39
 -10  -7  -3   11.99    0.36
  10   7   4   16.72    0.48
  10   7   4   17.00    0.76
  10   7   4   15.92    0.39
 -10  -7  -4   17.19    0.49
 -10  -7  -4   16.64    0.55
 -10  -7  -4   15.44    0.38
  10   7   5    3.89    0.54
  10   7   5    3.36    0.30
  10   7   6   12.09    0.74
  10   7   6   12.68    0.45
  10   7   7    0.97    0.51
  10   7   7    1.31    0.28
  10   7   8    5.35    0.66
  10   7   8    5.14    0.58
  10   8  -1    1.29    0.26
  10   8  -1    0.98    0.54
 -10  -8   1    0.02    0.21
 -10  -8   1    0.98    0.45
  10   8   0    0.09    0.35
  10   8   0   -0.01    0.39
 -10  -8   0    0.46    0.22
 -10  -8   0    0.12    0.44
  10   8   1    1.50    0.30
  10   8   1    2.45    0.31
 -10  -8  -1    1.65    0.45
 -10  -8  -1    1.72    0.48
  10   8   2   30.03    0.68
  10   8   2   31.72    0.76
 -10  -8  -2   31.49    0.95
 -10  -8  -2   29.25    0.68
  10   8   3   36.89    0.80
  10   8   3   34.46    0.69
  10   8   3   35.66    1.10
 -10  -8  -3   32.23    0.65
 -10  -8  -3   36.09    1.03
 -10  -8  -3   34.36    0.89
  10   8   4   10.04    0.42
  10   8   4   10.42    0.74
  10   8   4    9.46    0.46
 -10  -8  -4   10.45    0.45
 -10  -8  -4    9.26    0.34
 -10  -8  -4    8.61    0.44
  10   8   5    5.11    0.35
  10   8   5    5.15    0.41
 -10  -8  -5    6.14    0.38
  10   8   6   12.53    0.52
  10   8   6   12.70    0.47
  10   8   7    0.07    0.29
  10   8   7    0.35    0.25
  10   8   8    1.21    0.57
  10   8   8    1.52    0.51
  10   9   1   -0.03    0.46
  10   9   1    0.59    0.25
 -10  -9  -1   -0.04    0.21
 -10  -9  -1    0.08    0.20
  10   9   2   16.78    0.85
  10   9   2   16.14    0.51
 -10  -9  -2   16.19    0.77
 -10  -9  -2   15.85    0.70
  10   9   3    9.48    0.53
  10   9   3    9.54    0.49
 -10  -9  -3    8.63    0.37
 -10  -9  -3    9.71    0.68
  10   9   4    0.32    0.27
  10   9   4    0.25    0.18
  10   9   4    0.19    0.30
 -10  -9  -4    0.08    0.29
 -10  -9  -4    0.13    0.25
  10   9   5    7.09    0.44
  10   9   5    6.64    0.49
 -10  -9  -5    6.75    0.46
  10   9   6   28.75    0.76
  10   9   6   29.35    0.83
 -10  -9  -6   30.88    0.81
  10   9   7   19.77    0.69
  10   9   7   19.43    0.64
  10  10   4   18.92    0.71
  10  10   4   18.92    0.51
 -10 -10  -4   19.39    0.95
 -10 -10  -4   17.47    0.49
   0   0   0    0.00    0.00
;
_shelx_hkl_checksum              30880
_shelx_res_file
;
TITL 10092912
    shelxl.res
    created by SHELXL-2018/3 at 11:26:17 on 06-Nov-2018
CELL  0.71075 7.72821 10.28391 11.28281 71.98970 79.72430 69.05110
ZERR  2 0.00102 0.00138 0.00155 0.00360 0.00350 0.00320
LATT 1
SFAC C H O N CL
UNIT 32 20 12 6 2
L.S. 20
FMAP 2
PLAN 20
WPDB -2
HTAB
BOND $H
CONF
LIST 4
TEMP -83.0
ACTA
SIZE 0.380 0.350 0.300
WGHT    0.072000    0.097600
FVAR       0.58745
CL1   5   -0.212168    1.442465   -0.001663    11.00000    0.03623    0.02349 =
         0.07733    0.00154   -0.02054   -0.00733
O1    3    0.173210    0.777180    0.248678    11.00000    0.03207    0.02221 =
         0.05740   -0.00279   -0.00808   -0.00761
O2    3    0.306088    0.948331    0.209488    11.00000    0.03390    0.02735 =
         0.07650   -0.00197   -0.02342   -0.00912
O3    3    0.231074    1.231336    0.013954    11.00000    0.03151    0.04101 =
         0.06034   -0.00685   -0.00134   -0.01964
O4    3    0.125608    1.259653    0.197698    11.00000    0.04285    0.04514 =
         0.06642   -0.02403   -0.01696   -0.01356
O5    3    0.839569   -0.075713    0.455635    11.00000    0.04302    0.02355 =
         0.06792   -0.00465   -0.01769   -0.00339
O6    3    0.580649   -0.041201    0.384896    11.00000    0.04712    0.03043 =
         0.03955   -0.01320   -0.00015   -0.01961
N1    4    0.124353    1.220611    0.106889    11.00000    0.02457    0.02211 =
         0.05077   -0.00650   -0.01086   -0.00699
N2    4    0.505408    0.601869    0.313566    11.00000    0.03288    0.02042 =
         0.04169   -0.00660   -0.00786   -0.00512
N3    4    0.691850    0.003322    0.411692    11.00000    0.03684    0.02253 =
         0.03403   -0.00662   -0.00231   -0.01004
C1    1   -0.003307    1.016310    0.153449    11.00000    0.02315    0.02361 =
         0.03109   -0.00603   -0.00288   -0.00776
C2    1   -0.025697    1.163171    0.106240    11.00000    0.02171    0.02444 =
         0.03492   -0.00708   -0.00406   -0.00851
C3    1   -0.188506    1.261203    0.055104    11.00000    0.02504    0.02375 =
         0.03888   -0.00425   -0.00655   -0.00712
C4    1   -0.333918    1.213627    0.049758    11.00000    0.02202    0.03423 =
         0.04007   -0.00751   -0.00629   -0.00797
AFIX  43
H4    2   -0.445873    1.280397    0.015146    11.00000   -1.20000
AFIX   0
C5    1   -0.313444    1.068095    0.095408    11.00000    0.02547    0.03648 =
         0.03743   -0.00990   -0.00109   -0.01516
AFIX  43
H5    2   -0.411793    1.034696    0.091986    11.00000   -1.20000
AFIX   0
C6    1   -0.149517    0.970307    0.146337    11.00000    0.02730    0.02820 =
         0.03351   -0.00754    0.00083   -0.01321
AFIX  43
H6    2   -0.137031    0.870569    0.176756    11.00000   -1.20000
AFIX   0
C7    1    0.174845    0.911084    0.207371    11.00000    0.02866    0.02286 =
         0.03702   -0.00544   -0.00497   -0.00676
C8    1    0.627858    0.657737    0.327410    11.00000    0.04328    0.02276 =
         0.05064   -0.00971   -0.00974   -0.01022
AFIX  43
H8    2    0.593373    0.759863    0.309365    11.00000   -1.20000
AFIX   0
C9    1    0.806761    0.574245    0.367454    11.00000    0.04197    0.03095 =
         0.05877   -0.01217   -0.01440   -0.01565
AFIX  43
H9    2    0.890518    0.619663    0.374699    11.00000   -1.20000
AFIX   0
C10   1    0.857965    0.427274    0.395668    11.00000    0.03282    0.02935 =
         0.05179   -0.00990   -0.01440   -0.00997
AFIX  43
H10   2    0.977047    0.368770    0.424193    11.00000   -1.20000
AFIX   0
C11   1    0.730370    0.363260    0.381692    11.00000    0.02818    0.02291 =
         0.03432   -0.00707   -0.00744   -0.00784
C12   1    0.774233    0.211934    0.407302    11.00000    0.02688    0.02183 =
         0.03734   -0.00539   -0.00911   -0.00481
AFIX  43
H12   2    0.890452    0.148054    0.437393    11.00000   -1.20000
AFIX   0
C13   1    0.645084    0.160242    0.387606    11.00000    0.03033    0.02037 =
         0.03068   -0.00547   -0.00441   -0.00818
C14   1    0.470385    0.248877    0.343105    11.00000    0.02980    0.02703 =
         0.03595   -0.00547   -0.00831   -0.01148
AFIX  43
H14   2    0.385636    0.207883    0.329622    11.00000   -1.20000
AFIX   0
C15   1    0.425570    0.395217    0.319761    11.00000    0.02701    0.02579 =
         0.03853   -0.00410   -0.01027   -0.00684
AFIX  43
H15   2    0.307926    0.457014    0.290674    11.00000   -1.20000
AFIX   0
C16   1    0.554265    0.454836    0.338875    11.00000    0.02753    0.02103 =
         0.03091   -0.00532   -0.00545   -0.00638
H1    2    0.285186    0.722871    0.269565    11.00000    0.08909
HKLF 4
REM  10092912
REM wR2 = 0.1130, GooF = S = 1.069, Restrained GooF = 1.069 for all data
REM R1 = 0.0389 for 4029 Fo > 4sig(Fo) and 0.0460 for all 4622 data
REM 239 parameters refined using 0 restraints
END
WGHT      0.0720      0.0977
REM Instructions for potential hydrogen bonds
HTAB C8 O2
EQIV $1 x, y+1, z
HTAB C8 O6_$1
EQIV $2 -x+2, -y, -z+1
HTAB C12 O5_$2
EQIV $3 x, y-1, z
HTAB C14 O4_$3
HTAB O1 N2
REM Highest difference peak  0.503,  deepest hole -0.332,  1-sigma level  0.075
Q1    1  -0.0713  0.9971  0.1410  11.00000  0.05    0.50
Q2    1   0.4922  0.4200  0.3349  11.00000  0.05    0.49
Q3    1   0.5679  0.6186  0.3322  11.00000  0.05    0.48
Q4    1   0.7050  0.1871  0.4067  11.00000  0.05    0.47
Q5    1   0.0801  0.9698  0.1877  11.00000  0.05    0.45
Q6    1   0.7778  0.3912  0.3904  11.00000  0.05    0.43
Q7    1  -0.2649  1.2377  0.0590  11.00000  0.05    0.42
Q8    1  -0.0952  1.2073  0.0773  11.00000  0.05    0.41
Q9    1  -0.0211  1.0933  0.1234  11.00000  0.05    0.39
Q10   1   0.0459  1.1997  0.1063  11.00000  0.05    0.38
Q11   1  -0.1297  1.4219 -0.0468  11.00000  0.05    0.38
Q12   1   0.9005 -0.0728  0.4377  11.00000  0.05    0.36
Q13   1  -0.3113  1.1324  0.0560  11.00000  0.05    0.35
Q14   1   0.7477  0.2855  0.3987  11.00000  0.05    0.34
Q15   1   0.4588  0.3235  0.3300  11.00000  0.05    0.34
Q16   1   0.5528  0.2047  0.3738  11.00000  0.05    0.34
Q17   1   0.7032  0.6142  0.3590  11.00000  0.05    0.33
Q18   1   0.6345  0.4158  0.3691  11.00000  0.05    0.32
Q19   1  -0.2293  1.0198  0.1153  11.00000  0.05    0.31
Q20   1   0.8078  0.5058  0.3987  11.00000  0.05    0.31
;
_shelx_res_checksum              15448
loop_
_space_group_symop_operation_xyz
'x, y, z'
'-x, -y, -z'
loop_
_atom_site_type_symbol
_atom_site_label
_atom_site_fract_x
_atom_site_fract_y
_atom_site_fract_z
_atom_site_U_iso_or_equiv
_atom_site_adp_type
_atom_site_calc_flag
_atom_site_occupancy
Cl Cl1 -0.21217(4) 1.44247(3) -0.00166(3) 0.04778(11) Uani d 1
O O1 0.17321(12) 0.77718(8) 0.24868(9) 0.03883(19) Uani d 1
O O2 0.30609(12) 0.94833(9) 0.20949(10) 0.0464(2) Uani d 1
O O3 0.23107(11) 1.23134(10) 0.01395(9) 0.0439(2) Uani d 1
O O4 0.12561(13) 1.25965(10) 0.19770(10) 0.0477(2) Uani d 1
O O5 0.83957(13) -0.07571(9) 0.45563(10) 0.0469(2) Uani d 1
O O6 0.58065(12) -0.04120(8) 0.38490(8) 0.03651(18) Uani d 1
N N1 0.12435(12) 1.22061(9) 0.10689(9) 0.03234(19) Uani d 1
N N2 0.50541(13) 0.60187(9) 0.31357(9) 0.03239(19) Uani d 1
N N3 0.69185(13) 0.00332(9) 0.41169(8) 0.03128(18) Uani d 1
C C1 -0.00331(13) 1.01631(10) 0.15345(9) 0.02609(18) Uani d 1
C C2 -0.02570(12) 1.16317(10) 0.10624(9) 0.02667(18) Uani d 1
C C3 -0.18851(13) 1.26120(10) 0.05510(10) 0.0299(2) Uani d 1
C C4 -0.33392(14) 1.21363(12) 0.04976(10) 0.0325(2) Uani d 1
H H4 -0.445873 1.280397 0.015146 0.039 Uiso calc 1
C C5 -0.31344(14) 1.06810(12) 0.09541(10) 0.0318(2) Uani d 1
H H5 -0.411793 1.034696 0.091986 0.038 Uiso calc 1
C C6 -0.14952(13) 0.97031(11) 0.14634(9) 0.02906(19) Uani d 1
H H6 -0.137031 0.870569 0.176756 0.035 Uiso calc 1
C C7 0.17485(14) 0.91108(10) 0.20737(10) 0.0302(2) Uani d 1
C C8 0.62786(17) 0.65774(11) 0.32741(12) 0.0382(2) Uani d 1
H H8 0.593373 0.759863 0.309365 0.046 Uiso calc 1
C C9 0.80676(17) 0.57424(13) 0.36745(13) 0.0413(3) Uani d 1
H H9 0.890518 0.619663 0.374699 0.050 Uiso calc 1
C C10 0.85796(16) 0.42727(12) 0.39567(12) 0.0367(2) Uani d 1
H H10 0.977047 0.368770 0.424193 0.044 Uiso calc 1
C C11 0.73037(14) 0.36326(10) 0.38169(9) 0.02805(19) Uani d 1
C C12 0.77423(14) 0.21193(10) 0.40730(10) 0.02926(19) Uani d 1
H H12 0.890452 0.148054 0.437393 0.035 Uiso calc 1
C C13 0.64508(14) 0.16024(10) 0.38761(9) 0.02718(19) Uani d 1
C C14 0.47039(14) 0.24888(11) 0.34310(10) 0.0302(2) Uani d 1
H H14 0.385636 0.207883 0.329622 0.036 Uiso calc 1
C C15 0.42557(14) 0.39522(11) 0.31976(10) 0.0310(2) Uani d 1
H H15 0.307926 0.457014 0.290674 0.037 Uiso calc 1
C C16 0.55426(13) 0.45484(10) 0.33887(9) 0.02686(18) Uani d 1
H H1 0.285(3) 0.723(3) 0.270(2) 0.089(7) Uiso d 1
loop_
_atom_site_aniso_label
_atom_site_aniso_U_11
_atom_site_aniso_U_22
_atom_site_aniso_U_33
_atom_site_aniso_U_12
_atom_site_aniso_U_13
_atom_site_aniso_U_23
Cl1 0.03623(16) 0.02349(14) 0.0773(2) -0.00733(10) -0.02054(14) 0.00154(12)
O1 0.0321(4) 0.0222(3) 0.0574(5) -0.0076(3) -0.0081(3) -0.0028(3)
O2 0.0339(4) 0.0274(4) 0.0765(6) -0.0091(3) -0.0234(4) -0.0020(4)
O3 0.0315(4) 0.0410(4) 0.0603(5) -0.0196(3) -0.0013(4) -0.0068(4)
O4 0.0429(5) 0.0451(5) 0.0664(6) -0.0136(4) -0.0170(4) -0.0240(4)
O5 0.0430(4) 0.0235(4) 0.0679(6) -0.0034(3) -0.0177(4) -0.0047(4)
O6 0.0471(4) 0.0304(4) 0.0395(4) -0.0196(3) -0.0002(3) -0.0132(3)
N1 0.0246(4) 0.0221(4) 0.0508(5) -0.0070(3) -0.0109(4) -0.0065(3)
N2 0.0329(4) 0.0204(4) 0.0417(5) -0.0051(3) -0.0079(3) -0.0066(3)
N3 0.0368(4) 0.0225(4) 0.0340(4) -0.0100(3) -0.0023(3) -0.0066(3)
C1 0.0231(4) 0.0236(4) 0.0311(4) -0.0078(3) -0.0029(3) -0.0060(3)
C2 0.0217(4) 0.0244(4) 0.0349(4) -0.0085(3) -0.0041(3) -0.0071(3)
C3 0.0250(4) 0.0238(4) 0.0389(5) -0.0071(3) -0.0065(4) -0.0042(4)
C4 0.0220(4) 0.0342(5) 0.0401(5) -0.0080(4) -0.0063(4) -0.0075(4)
C5 0.0255(4) 0.0365(5) 0.0374(5) -0.0152(4) -0.0011(4) -0.0099(4)
C6 0.0273(4) 0.0282(4) 0.0335(4) -0.0132(4) 0.0008(3) -0.0075(4)
C7 0.0287(4) 0.0229(4) 0.0370(5) -0.0068(3) -0.0050(4) -0.0054(3)
C8 0.0433(6) 0.0228(4) 0.0506(6) -0.0102(4) -0.0097(5) -0.0097(4)
C9 0.0420(6) 0.0310(5) 0.0588(7) -0.0157(4) -0.0144(5) -0.0122(5)
C10 0.0328(5) 0.0294(5) 0.0518(6) -0.0100(4) -0.0144(4) -0.0099(4)
C11 0.0282(4) 0.0229(4) 0.0343(5) -0.0078(3) -0.0074(3) -0.0071(3)
C12 0.0269(4) 0.0218(4) 0.0373(5) -0.0048(3) -0.0091(4) -0.0054(3)
C13 0.0303(4) 0.0204(4) 0.0307(4) -0.0082(3) -0.0044(3) -0.0055(3)
C14 0.0298(4) 0.0270(4) 0.0359(5) -0.0115(4) -0.0083(4) -0.0055(4)
C15 0.0270(4) 0.0258(4) 0.0385(5) -0.0068(3) -0.0103(4) -0.0041(4)
C16 0.0275(4) 0.0210(4) 0.0309(4) -0.0064(3) -0.0054(3) -0.0053(3)
loop_
_atom_type_symbol
_atom_type_description
_atom_type_scat_dispersion_real
_atom_type_scat_dispersion_imag
_atom_type_scat_source
C C 0.0033 0.0016 'International Tables Vol C Tables 4.2.6.8 and 6.1.1.4'
H H 0.0000 0.0000 'International Tables Vol C Tables 4.2.6.8 and 6.1.1.4'
O O 0.0106 0.0060 'International Tables Vol C Tables 4.2.6.8 and 6.1.1.4'
N N 0.0061 0.0033 'International Tables Vol C Tables 4.2.6.8 and 6.1.1.4'
Cl Cl 0.1484 0.1585 'International Tables Vol C Tables 4.2.6.8 and 6.1.1.4'
loop_
_geom_angle_atom_site_label_1
_geom_angle_atom_site_label_2
_geom_angle_atom_site_label_3
_geom_angle
C7 O1 H1 107.0(16)
O4 N1 O3 125.19(9)
O4 N1 C2 117.34(9)
O3 N1 C2 117.37(9)
C8 N2 C16 118.54(9)
O5 N3 O6 123.52(9)
O5 N3 C13 118.83(9)
O6 N3 C13 117.64(9)
C2 C1 C6 117.80(9)
C2 C1 C7 120.79(8)
C6 C1 C7 121.39(8)
C3 C2 C1 121.41(9)
C3 C2 N1 117.24(8)
C1 C2 N1 121.35(8)
C2 C3 C4 120.06(9)
C2 C3 Cl1 120.21(7)
C4 C3 Cl1 119.73(8)
C5 C4 C3 119.26(9)
C5 C4 H4 120.4
C3 C4 H4 120.4
C4 C5 C6 120.36(9)
C4 C5 H5 119.8
C6 C5 H5 119.8
C5 C6 C1 121.10(9)
C5 C6 H6 119.4
C1 C6 H6 119.4
O2 C7 O1 124.46(9)
O2 C7 C1 122.25(9)
O1 C7 C1 113.28(9)
N2 C8 C9 123.66(10)
N2 C8 H8 118.2
C9 C8 H8 118.2
C10 C9 C8 119.08(10)
C10 C9 H9 120.5
C8 C9 H9 120.5
C9 C10 C11 118.90(10)
C9 C10 H10 120.5
C11 C10 H10 120.5
C12 C11 C16 119.20(9)
C12 C11 C10 122.22(9)
C16 C11 C10 118.57(9)
C13 C12 C11 118.16(9)
C13 C12 H12 120.9
C11 C12 H12 120.9
C12 C13 C14 123.80(9)
C12 C13 N3 118.24(9)
C14 C13 N3 117.95(8)
C15 C14 C13 118.50(9)
C15 C14 H14 120.8
C13 C14 H14 120.8
C14 C15 C16 120.10(9)
C14 C15 H15 120.0
C16 C15 H15 119.9
N2 C16 C15 118.54(9)
N2 C16 C11 121.22(9)
C15 C16 C11 120.23(9)
loop_
_geom_bond_atom_site_label_1
_geom_bond_atom_site_label_2
_geom_bond_distance
Cl1 C3 1.7257(10)
O1 C7 1.3142(12)
O1 H1 0.87(3)
O2 C7 1.2117(13)
O3 N1 1.2153(13)
O4 N1 1.2132(13)
O5 N3 1.2243(12)
O6 N3 1.2244(12)
N1 C2 1.4796(12)
N2 C8 1.3218(14)
N2 C16 1.3688(12)
N3 C13 1.4682(12)
C1 C2 1.3940(13)
C1 C6 1.3947(13)
C1 C7 1.5044(13)
C2 C3 1.3873(13)
C3 C4 1.3934(13)
C4 C5 1.3832(15)
C4 H4 0.9500
C5 C6 1.3921(14)
C5 H5 0.9500
C6 H6 0.9500
C8 C9 1.4096(16)
C8 H8 0.9500
C9 C10 1.3646(15)
C9 H9 0.9500
C10 C11 1.4193(14)
C10 H10 0.9500
C11 C12 1.4142(13)
C11 C16 1.4175(13)
C12 C13 1.3637(14)
C12 H12 0.9500
C13 C14 1.4088(13)
C14 C15 1.3671(14)
C14 H14 0.9500
C15 C16 1.4163(14)
C15 H15 0.9500
loop_
_geom_hbond_atom_site_label_D
_geom_hbond_atom_site_label_H
_geom_hbond_atom_site_label_A
_geom_hbond_site_symmetry_A
_geom_hbond_distance_DH
_geom_hbond_distance_HA
_geom_hbond_distance_DA
_geom_hbond_angle_DHA
_geom_hbond_publ_flag
O1 H1 N2 . 0.87(3) 1.76(3) 2.6310(14) 176(3) y
C8 H8 O2 . 0.95 2.53 3.2082(16) 128 y
C8 H8 O6 1_565 0.95 2.41 3.2387(15) 145 y
C14 H14 O4 1_545 0.95 2.52 3.3226(16) 142 y
C12 H12 O5 2_756 0.95 2.37 3.2526(16) 155 y
loop_
_geom_torsion_atom_site_label_1
_geom_torsion_atom_site_label_2
_geom_torsion_atom_site_label_3
_geom_torsion_atom_site_label_4
_geom_torsion
C6 C1 C2 C3 0.76(15)
C7 C1 C2 C3 179.34(9)
C6 C1 C2 N1 -178.31(9)
C7 C1 C2 N1 0.27(15)
O4 N1 C2 C3 90.22(12)
O3 N1 C2 C3 -86.34(12)
O4 N1 C2 C1 -90.67(12)
O3 N1 C2 C1 92.76(12)
C1 C2 C3 C4 -0.19(16)
N1 C2 C3 C4 178.92(9)
C1 C2 C3 Cl1 179.61(8)
N1 C2 C3 Cl1 -1.28(14)
C2 C3 C4 C5 -0.26(16)
Cl1 C3 C4 C5 179.94(8)
C3 C4 C5 C6 0.12(16)
C4 C5 C6 C1 0.48(15)
C2 C1 C6 C5 -0.90(14)
C7 C1 C6 C5 -179.48(9)
C2 C1 C7 O2 -1.69(16)
C6 C1 C7 O2 176.84(11)
C2 C1 C7 O1 179.50(9)
C6 C1 C7 O1 -1.96(14)
C16 N2 C8 C9 -0.26(18)
N2 C8 C9 C10 -1.0(2)
C8 C9 C10 C11 1.07(19)
C9 C10 C11 C12 179.07(11)
C9 C10 C11 C16 -0.01(17)
C16 C11 C12 C13 1.04(15)
C10 C11 C12 C13 -178.04(10)
C11 C12 C13 C14 0.05(16)
C11 C12 C13 N3 178.77(9)
O5 N3 C13 C12 4.41(15)
O6 N3 C13 C12 -174.69(9)
O5 N3 C13 C14 -176.79(10)
O6 N3 C13 C14 4.11(14)
C12 C13 C14 C15 -0.97(16)
N3 C13 C14 C15 -179.70(9)
C13 C14 C15 C16 0.76(15)
C8 N2 C16 C15 -177.77(10)
C8 N2 C16 C11 1.38(15)
C14 C15 C16 N2 179.46(9)
C14 C15 C16 C11 0.30(15)
C12 C11 C16 N2 179.64(9)
C10 C11 C16 N2 -1.25(15)
C12 C11 C16 C15 -1.22(15)
C10 C11 C16 C15 177.89(10)

_cod_database_fobs_code 2243115
