#------------------------------------------------------------------------------
#$Date: 2022-01-07 01:12:38 +0200 (Fri, 07 Jan 2022) $
#$Revision: 271912 $
#$URL: file:///home/coder/svn-repositories/cod/cif/2/24/39/2243993.cif $
#------------------------------------------------------------------------------
#
# This file is available in the Crystallography Open Database (COD),
# http://www.crystallography.net/. The original data for this entry
# were provided by IUCr Journals, http://journals.iucr.org/.
#
# The file may be used within the scientific community so long as
# proper attribution is given to the journal article from which the
# data were obtained.
#
data_2243993
loop_
_publ_author_name
'Konovalova, Irina S.'
'Shishkina, Svitlana V.'
'Kobzev, Dmytro'
'Semenova, Olha'
'Tatarets, Anatoliy'
_publ_section_title
;
 Crystal structures and Hirshfeld analysis of 4,6-dibromoindolenine and
 its quaternized salt
;
_journal_issue                   12
_journal_name_full               'Acta Crystallographica Section E'
_journal_page_first              1203
_journal_page_last               1207
_journal_paper_doi               10.1107/S2056989021011385
_journal_volume                  77
_journal_year                    2021
_chemical_formula_iupac          'C12 H14 Br2 N +, I -'
_chemical_formula_moiety         'C12 H14 Br2 N +, I -'
_chemical_formula_sum            'C12 H14 Br2 I N'
_chemical_formula_weight         458.96
_chemical_name_systematic
;
4,6-Dibromo-2,3,3-trimethyl-3<i>H</i>-indol-1-ium iodide
;
_space_group_crystal_system      monoclinic
_space_group_IT_number           11
_space_group_name_Hall           '-P 2yb'
_space_group_name_H-M_alt        'P 1 21/m 1'
_atom_sites_solution_hydrogens   geom
_atom_sites_solution_primary     dual
_audit_creation_method
;
Olex2 1.5
(compiled 2021.07.19 svn.r715e62df for OlexSys, GUI svn.r6383)
;
_cell_angle_alpha                90
_cell_angle_beta                 92.755(6)
_cell_angle_gamma                90
_cell_formula_units_Z            2
_cell_length_a                   8.3507(6)
_cell_length_b                   7.3719(5)
_cell_length_c                   11.7180(8)
_cell_measurement_reflns_used    1781
_cell_measurement_temperature    293(2)
_cell_measurement_theta_max      28.6260
_cell_measurement_theta_min      3.7560
_cell_volume                     720.53(9)
_computing_data_collection       'CrysAlisPro (Rigaku OD, 2018)'
_computing_data_reduction        'CrysAlisPro (Rigaku OD, 2018)'
_computing_molecular_graphics    '<i>OLEX2</i> (Dolomanov et al., 2009)'
_computing_publication_material  '<i>OLEX2</i> (Dolomanov et al., 2009)'
_computing_structure_refinement  '<i>SHELXL2016/6</i> (Sheldrick, 2015a)'
_computing_structure_solution    '<i>SHELXT2014/5</i> (Sheldrick, 2015b)'
_diffrn_ambient_temperature      293(2)
_diffrn_detector                 'CCD plate'
_diffrn_detector_area_resol_mean 16.1827
_diffrn_measured_fraction_theta_full 0.996
_diffrn_measured_fraction_theta_max 0.996
_diffrn_measurement_device       'four-circle diffractometer'
_diffrn_measurement_device_type  'Xcalibur, Sapphire3'
_diffrn_measurement_method       '\w scans'
_diffrn_radiation_monochromator  graphite
_diffrn_radiation_probe          x-ray
_diffrn_radiation_type           'Mo K\a'
_diffrn_radiation_wavelength     0.71073
_diffrn_reflns_av_R_equivalents  0.0833
_diffrn_reflns_av_unetI/netI     0.0549
_diffrn_reflns_limit_h_max       9
_diffrn_reflns_limit_h_min       -9
_diffrn_reflns_limit_k_max       8
_diffrn_reflns_limit_k_min       -8
_diffrn_reflns_limit_l_max       13
_diffrn_reflns_limit_l_min       -12
_diffrn_reflns_number            4499
_diffrn_reflns_theta_full        24.996
_diffrn_reflns_theta_max         24.996
_diffrn_reflns_theta_min         2.930
_diffrn_source                   'fine-focus sealed X-ray tube'
_exptl_absorpt_coefficient_mu    7.743
_exptl_absorpt_correction_T_max  1.00000
_exptl_absorpt_correction_T_min  0.35470
_exptl_absorpt_correction_type   multi-scan
_exptl_absorpt_process_details
;
(CrysAlisPro; Rigaku OD, 2018)
;
_exptl_crystal_colour            red
_exptl_crystal_density_diffrn    2.115
_exptl_crystal_description       needle
_exptl_crystal_F_000             432
_exptl_crystal_size_max          0.4
_exptl_crystal_size_mid          0.2
_exptl_crystal_size_min          0.1
_refine_diff_density_max         0.855
_refine_diff_density_min         -0.914
_refine_ls_extinction_method     none
_refine_ls_goodness_of_fit_ref   1.049
_refine_ls_hydrogen_treatment    constr
_refine_ls_matrix_type           full
_refine_ls_number_parameters     97
_refine_ls_number_reflns         1374
_refine_ls_number_restraints     0
_refine_ls_restrained_S_all      1.049
_refine_ls_R_factor_all          0.0493
_refine_ls_R_factor_gt           0.0457
_refine_ls_shift/su_max          0.001
_refine_ls_shift/su_mean         0.000
_refine_ls_structure_factor_coef Fsqd
_refine_ls_weighting_details
'w=1/[\s^2^(Fo^2^)+(0.0732P)^2^+0.1443P] where P=(Fo^2^+2Fc^2^)/3'
_refine_ls_weighting_scheme      calc
_refine_ls_wR_factor_gt          0.1155
_refine_ls_wR_factor_ref         0.1209
_reflns_number_gt                1242
_reflns_number_total             1374
_reflns_threshold_expression     'I > 2\s(I)'
_cod_data_source_file            zn2011sup1.cif
_cod_data_source_block           2
_cod_original_sg_symbol_H-M      P21/m
_cod_database_code               2243993
_shelx_space_group_comment
;
The symmetry employed for this shelxl refinement is uniquely defined
by the following loop, which should always be used as a source of
symmetry information in preference to the above space-group names.
They are only intended as comments.
;
_shelx_estimated_absorpt_t_min   0.148
_shelx_estimated_absorpt_t_max   0.511
_shelx_hkl_file
;
   0   0  -3 2084.81   30.52
   0   0   3 1998.74   25.50
   0   0   4  610.19   16.10
   0   0   5  977.17   22.06
   0   0   6 1263.87   27.20
   0   0   7  298.42   14.18
   0   0   7  335.10   10.45
   0   0   8  427.85   13.37
   0   0   8  831.27   25.86
   0   0   9  196.16    9.66
   0   0   9  353.45   17.70
   0   0  10    2.52    0.97
   0   0  11   97.10   11.16
   0   0  12    1.02    1.63
   0   0  13  247.45   21.31
   0   0  14   19.16    6.60
   0   0  15    4.31    3.06
   0  -1   1  344.52    8.74
   0   1   1  390.19    7.07
   0  -1  -2  125.44    7.94
   0  -1   2  142.62    5.95
   0   1   2  158.79    5.65
   0   1   2  140.09    5.47
   0   1  -2  149.89    6.84
   0  -1  -2  159.98    6.91
   0  -1   2  133.93    6.07
   0   1   2  144.99    7.08
   0   1   3 1525.98   22.15
   0  -1   3 1447.39   21.85
   0   1  -3 1375.72   26.47
   0  -1  -3 1567.99   18.00
   0  -1  -3 1448.65   35.79
   0  -1  -4  716.37   14.65
   0  -1   4  687.60   16.97
   0  -1  -5 1502.97   24.72
   0  -1   5 1467.35   27.51
   0   1   5 1440.43   27.55
   0  -1   6  569.32   18.39
   0   1   6  597.10   19.16
   0   1   7  296.78   14.61
   0  -1   7  302.20   14.53
   0   1   8  149.58   11.15
   0  -1   8  156.84   11.76
   0  -1  -8  136.22   10.57
   0   1   9  235.69   14.85
   0  -1   9  269.38   16.69
   0   1  10  130.50   11.87
   0   1  10  107.34    9.91
   0  -1 -10  107.38   10.20
   0  -1  11    0.31    0.87
   0   1  11    4.18    3.00
   0  -1  12  108.64   13.60
   0   1  12   99.41   11.87
   0  -1  13   45.75    9.58
   0   1  13   40.20    8.85
   0  -1  14   86.57   14.52
   0   1  14   70.99   12.00
   0   1  15   16.49    6.66
   0  -1  15   12.07    6.46
   0   2   0 7907.52   59.81
   0   2   0 9999.00   60.14
   0   2  -1  442.31   15.05
   0   2  -1  498.84   18.35
   0   2  -1  487.68   10.12
   0   2   1  579.55   15.37
   0  -2  -1  579.33   10.61
   0  -2   1  537.22   14.12
   0   2   1  481.35   13.29
   0   2   1  556.00    9.47
   0  -2  -1  534.98   13.89
   0  -2  -1  611.23   11.34
   0   2  -2  379.43   17.69
   0  -2   2  513.71   15.77
   0  -2  -2  426.99   12.79
   0   2   2  724.87   11.26
   0   2   2  553.02   15.29
   0   2   2  587.91   11.91
   0  -2   2  550.92   13.23
   0   2  -2  666.34   15.05
   0  -2   3  837.71   20.10
   0   2   3  761.71   16.10
   0   2   3  786.59   21.43
   0   2   3  820.93   19.26
   0  -2  -3  851.37   22.95
   0  -2   3  811.43   18.46
   0   2  -3  885.54   23.02
   0   2   3  770.71    9.74
   0  -2   4  724.11   19.70
   0  -2   4  761.82   19.91
   0   2   4  717.33   18.07
   0   2  -5 1388.86   19.16
   0  -2   5 1317.49   28.77
   0   2   6  996.20   25.42
   0  -2   6 1019.16   27.05
   0  -2   7  161.19   10.80
   0  -2   7  149.28   11.01
   0   2   7  141.11   10.67
   0   2   8  844.67   27.58
   0  -2   8  918.70   27.12
   0  -2   8  869.75   29.83
   0   2   9  225.61   14.84
   0  -2   9  230.13   13.82
   0  -2   9  252.78   17.53
   0   2  10   15.43    4.43
   0  -2  10   11.40    3.40
   0   2  11   65.08    9.28
   0  -2  11   82.84   11.77
   0   2  12    0.96    0.55
   0  -2  12    3.51    0.85
   0   2  13  202.96   19.96
   0  -2  13  236.59   23.80
   0   2  14   12.89    5.21
   0  -2  14   13.08    6.91
   0  -2  15    6.42    6.11
   0   2  15    1.41    2.74
   0   3   0    2.61    0.74
   0   3   0   -0.43    0.58
   0  -3   0    2.64    1.30
   0   3   1  597.02   21.68
   0  -3  -1  858.71   17.10
   0   3   1  842.59   13.22
   0  -3  -1  843.11   22.55
   0   3  -1  682.73   13.85
   0   3  -1  659.32   23.86
   0  -3   1  766.27   19.22
   0  -3   2  254.73   12.30
   0   3   2  261.35    8.53
   0   3   2  229.45   11.27
   0  -3  -2  273.34    8.12
   0  -3  -2  242.76   11.42
   0   3  -2  269.27   10.42
   0   3   3  444.74   16.54
   0  -3   3  504.89   16.57
   0  -3  -3  495.47   19.78
   0  -3   3  454.02   18.65
   0   3   3  534.72   14.35
   0  -3  -3  506.86   17.08
   0   3   4  185.59    9.52
   0   3   4  185.45   11.98
   0   3   4  158.49   12.16
   0  -3   4  181.00   10.45
   0  -3   5  827.69   24.01
   0   3   5  770.63   26.06
   0   3   5  770.55   27.22
   0   3   5  828.30   12.08
   0   3   6  241.83   12.93
   0  -3   6  223.60   13.22
   0   3  -6  225.98   10.54
   0  -3   6  255.71   13.70
   0   3   7  190.32   12.78
   0  -3   7  192.30   13.48
   0   3  -7  176.92    8.54
   0  -3   7  164.04   11.20
   0  -3   8  159.93   11.57
   0   3   8  159.31   12.36
   0  -3   8  165.13   13.71
   0  -3   9  116.67    9.70
   0   3   9  119.04   11.57
   0   3  10  122.82   12.34
   0  -3  10  150.58   15.83
   0   3  11    7.51    3.32
   0  -3  11   12.37    4.16
   0   3  12   63.21   10.08
   0  -3  12   82.75   13.61
   0   3  13   39.35    8.93
   0  -3  13   28.69    8.95
   0  -3  14   48.26   12.92
   0   3  14   51.05   11.08
   0  -3  15    7.31    6.17
   0  -4   0 7421.56   66.92
   0   4   0 7094.56   37.48
   0  -4  -1  199.05    9.73
   0  -4   1  184.80   11.55
   0   4  -1  167.40    7.56
   0   4   1  192.95    7.11
   0  -4  -2  174.17   11.92
   0   4   2  156.12   11.21
   0   4   2  174.03    7.56
   0  -4  -2  172.99    8.15
   0   4  -2  176.15    8.84
   0  -4   2  159.30   10.51
   0  -4   3  381.51   18.24
   0   4   3  369.80   16.79
   0  -4  -3  411.11   18.26
   0   4   4  338.43   13.78
   0  -4  -4  322.67   16.93
   0  -4   4  288.87   15.54
   0   4   4  267.90   15.03
   0  -4   4  269.06   16.34
   0  -4   5  669.05   25.08
   0   4   5  663.92   26.83
   0   4   5  689.09   21.01
   0   4   6  458.65   22.92
   0   4   6  454.58   18.99
   0  -4   6  436.98   20.99
   0   4  -6  397.46   16.60
   0   4  -7   54.46    6.25
   0   4   7   74.30    8.17
   0  -4   7   66.69    9.28
   0   4   8  454.52   22.08
   0  -4   8  505.00   26.79
   0   4   9  123.13   12.07
   0  -4   9  136.17   14.99
   0   4  10    2.87    1.53
   0  -4  10    6.52    2.62
   0  -4  11   72.31   12.62
   0   4  11   42.29    7.94
   0  -4  12   -1.65    2.31
   0   4  12    4.11    1.20
   0  -4  13   87.78   17.05
   0   4  13  114.12   16.13
   0   4  14    3.47    3.13
   0  -4  14    3.76    3.67
   0   5   0    0.31    0.47
   0   5   0    0.41    0.45
   0  -5   0    0.71    1.44
   0  -5   0    0.15    1.09
   0  -5  -1  173.07   10.62
   0   5  -1  149.19    7.10
   0   5   1  144.19   11.53
   0   5   1  155.74    6.49
   0  -5   1  212.26   13.50
   0   5  -1  201.10    7.06
   0  -5   1  159.55   11.11
   0   5   2   90.08    9.54
   0  -5  -2   69.59    6.19
   0   5   2   90.90    5.89
   0  -5   2   89.14    8.88
   0   5   3  294.69   17.08
   0  -5  -3  317.50   19.72
   0  -5   3  266.75   15.85
   0   5   3  285.64   12.12
   0   5  -3  332.05   15.78
   0   5   4  105.02   10.49
   0   5   4  110.88    8.06
   0  -5   4  111.68   11.40
   0  -5  -4  136.02   13.22
   0   5   5  352.37   20.35
   0   5   5  373.60   16.87
   0  -5   5  329.84   21.96
   0  -5  -5  407.41   23.96
   0  -5   6  146.45   15.71
   0   5   6  170.59   15.19
   0  -5   6  140.97   14.60
   0   5   6  170.09   12.41
   0  -5   7   90.21   13.96
   0  -5   7   54.27    9.76
   0   5   7   88.15    9.46
   0   5  -7   81.92    9.13
   0   5   8   37.27    6.45
   0  -5   8   25.75    7.06
   0  -5   8   30.26    8.57
   0  -5   9   46.29   10.48
   0  -5   9   77.17   14.99
   0   5   9   61.30    8.95
   0   5  10   46.46    8.26
   0  -5  10   33.21    9.39
   0  -5  11   -0.98    2.50
   0   5  11    2.09    2.08
   0  -5  12   14.39    7.35
   0   5  12   26.49    7.50
   0  -5  13   17.30    9.98
   0   5  13    9.28    4.47
   0   5  14   11.54    6.11
   0  -6   0 2254.09   47.62
   0  -6   0 2533.99   51.03
   0  -6   1   32.29    6.41
   0   6   1   22.77    5.13
   0  -6  -1   22.28    4.27
   0  -6   1   21.93    5.50
   0   6   1   15.77    2.06
   0  -6  -2   26.71    4.73
   0   6   2   29.21    6.35
   0   6   2   19.10    2.98
   0   6  -2   18.74    2.42
   0  -6   2   27.81    5.88
   0   6   3  197.83   10.70
   0   6   3  193.86   15.81
   0   6   4   81.23   10.25
   0  -6  -4  112.89   15.03
   0   6   4   79.72    7.57
   0  -6   4   92.22   11.89
   0   6   5  193.73   16.26
   0   6   5  185.93   12.52
   0  -6   5  234.56   20.09
   0  -6   6  185.82   20.71
   0  -6  -6  191.04   20.85
   0   6   6  141.53   15.36
   0   6   6  118.26   10.90
   0   6   7   27.04    6.94
   0  -6  -7   39.20    9.55
   0  -6   7   34.84    8.40
   0   6   7   22.90    4.92
   0   6   8  108.50   11.84
   0  -6   8  142.90   20.25
   0   6   9   30.50    6.67
   0  -6  -9   52.34   13.20
   0   6  10    0.23    0.79
   0  -6  10    0.33    0.76
   0  -6  11   20.83   10.33
   0  -6  12   -1.22    6.08
   0  -7   0   -0.33    2.16
   0  -7   1   64.43   10.14
   0   7   1   47.77    8.45
   0  -7  -1   39.15    7.28
   0  -7   1   35.00    7.36
   0   7   2   33.47    7.55
   0  -7   2   29.76    7.33
   0  -7   2   51.21    9.62
   0  -7  -2   28.35    6.00
   0   7   3   85.84   11.57
   0  -7   3   66.44   11.26
   0  -7   4   29.53    8.25
   0   7   4   28.74    6.96
   0  -7   5  164.99   20.37
   0  -7  -5  140.97   20.08
   0   7   5   89.02   12.53
   0  -7   5   76.37   13.41
   0  -7  -6   61.30   13.94
   0  -7   6   42.75   10.55
   0   7   6   64.75   11.16
   0  -7   7   24.36    8.34
   0  -7  -7   21.32    9.27
   0   7   7   39.81    9.15
   0  -7  -8    5.38    4.96
   0  -7   8    8.08    6.99
   0  -7  -9    7.72    5.74
   0  -7   9    8.62    5.28
   0  -7  10    6.44    5.24
   0  -7 -10    7.61    6.69
   0  -7 -11    2.66    4.23
   0  -7  11    1.18    1.89
   0  -8   0  265.64   24.46
   0   8   0  489.47   31.05
   0  -8   1    2.33    2.76
   0   8   1    6.67    3.85
   0   8   2   14.35    5.43
   0  -8   2   17.58    5.82
   0  -8   2    7.94    3.85
   0  -8   3   27.41    8.72
   0  -8   3   38.92    9.95
   0   8   3   54.85   10.44
   0  -8   4   15.48    6.40
   0  -8   4   22.77    9.16
   0   8   4   30.12    7.79
   0  -8   5   96.09   18.10
   0   8   5   72.58   12.67
   0  -8   5   41.64   12.30
   0   8   6   37.02    9.81
   0  -8   6   18.68    8.29
   0  -8   6   39.62   12.03
   0  -8   7   -2.91    5.80
   0  -8  -7    1.52    3.09
   0   8   7   -0.33    3.27
   0   8   8   42.11   11.64
   0  -8   8   41.72   16.05
   0  -8  -8   34.21   14.60
   0  -8  -9   14.20    9.08
   0  -8 -10    3.42    7.57
   0   9   0    1.14    2.72
   0   9   1   21.53    7.42
   0   9  -1   19.95    7.87
   0   9   2   18.36    6.34
   0  -9   2   11.71    6.69
   0   9   3   17.40    7.19
   0  -9   3    8.46    6.35
   0  -9   4   -1.45    1.42
   0   9   4    1.92    1.10
   0  -9   5   17.71    9.11
   0   9   5   12.18    5.52
   0  -9   6   27.52   14.25
  -1   0  15   11.93    5.41
  -1   0  14    3.66    3.31
  -1   0  13  115.60   14.24
  -1   0  12    7.25    2.83
  -1   0  11  163.04   14.13
  -1   0  10   83.29    9.53
  -1   0   9  154.10   12.33
  -1   0   8  180.33   12.33
  -1   0   7  467.22   17.68
  -1   0   6  201.86   10.81
  -1   0   5  587.52   16.38
  -1   0   4 1494.69   23.95
  -1   0   3 2802.34   26.93
  -1   0   3 2777.56   30.03
   1   0  -2 2075.75   25.31
   1   0  -2 1952.88   16.43
  -1   0   2 2096.42   22.84
   1   0  -2 2137.57   23.15
  -1   0   2 1912.23   18.00
   1   0  -1 1354.87   15.83
  -1   0  -2 3965.46   41.66
   1   0   2 3879.20   34.89
  -1   0  -2 3937.08   40.75
  -1   0  -3    4.05    1.30
  -1   0  -3    3.57    1.34
   1   0   3    2.78    0.63
   1   0   3    2.34    0.78
   1   0   4 2116.77   30.81
   1   0   4 1755.87   29.19
   1   0   5  210.66   11.09
   1   0   5  272.02   11.59
   1   0   6  676.04   20.86
   1   0   6  909.64   22.74
   1   0   7  410.92   17.60
   1   0   7  609.36   20.59
   1   0   8   28.35    4.74
   1   0   8   23.15    4.49
   1   0   9   43.61    6.75
   1   0  10  658.12   27.91
   1   0  11   29.66    6.15
   1   0  12    1.57    0.24
   1   0  13    5.53    1.58
   1   0  14   15.14    5.91
   1   0  15   34.60    9.25
  -1   1  15   20.27    7.00
  -1  -1  15   12.40    6.87
  -1   1  14   30.68    8.18
  -1  -1  14   33.07    8.92
  -1  -1  13   42.23    9.38
  -1   1  13   33.75    7.52
  -1   1  12  121.02   13.01
  -1  -1  12  150.23   15.36
  -1   1  11   92.59   10.68
  -1  -1  11  104.00   11.54
  -1   1  10  116.40   10.94
  -1  -1  10  116.88   11.63
  -1   1   9  319.11   17.52
  -1  -1   9  285.70   17.08
   1  -1  -8 2506.89   23.28
  -1  -1   8 2376.35   45.72
  -1  -1   7   15.85    3.33
  -1   1   7   17.53    3.48
  -1   1   6    3.98    1.53
  -1  -1   6    2.39    0.80
  -1  -1   6    2.95    0.91
  -1   1   5  450.85   14.68
  -1  -1   5  490.29   15.54
  -1  -1   5  453.36   14.89
  -1   1   4  524.93   10.29
  -1  -1   4  491.06   14.18
   1   1  -3 4776.81   48.37
  -1   1   3 4389.45   38.64
  -1  -1   3 4508.82   37.32
   1  -1  -3 4361.88   60.37
  -1  -1   3 3601.64   42.25
   1  -1  -3 5322.08   53.93
  -1  -1   2 1519.92   18.21
   1  -1  -2 1424.74   25.63
  -1   1   2 1458.64   19.35
  -1   1   2 1511.91   23.43
  -1  -1   2 1583.37   27.43
   1  -1  -2 1507.94   24.27
  -1  -1   2 1499.71   21.87
  -1   1   1  302.94   10.27
  -1  -1   1  302.29    8.13
  -1  -1   1  379.15    6.97
  -1  -1   1  348.33   13.13
  -1   1   1  347.20    8.78
   1   1  -1  348.96   11.45
   1   1  -1  374.96    7.77
   1  -1  -1  277.01    8.10
   1  -1  -1  276.43    8.72
   1   1  -1  324.56   10.16
   1   1   0  364.31   13.73
   1   1   0  376.19   10.20
   1   1   0  618.80   14.51
  -1   1   0  575.09   14.18
   1   1   0  538.60   10.98
   1  -1   0  643.40   13.27
  -1  -1   0  530.69   14.39
  -1  -1  -1 2688.92   26.21
  -1  -1  -1 2686.32   28.69
   1   1   1 2392.35   22.57
   1  -1   1 2223.26   26.58
   1   1   1 2703.65   31.67
   1   1   1 2323.77   34.15
  -1   1  -1 2453.20   31.20
  -1   1  -1 2227.96   31.39
  -1  -1  -1 2515.77   31.05
   1   1   1 2728.47   30.37
   1   1   1 2518.62   25.69
  -1  -1  -1 2389.66   29.27
  -1   1  -2  140.22    8.67
  -1  -1  -2  156.36   10.30
   1  -1   2  149.30    7.71
  -1  -1  -2  178.24    8.39
   1   1   2  212.00   10.33
  -1  -1  -2  210.90    9.13
   1   1   2  172.42    7.03
   1   1   2  155.77    8.81
   1   1   2  167.67    7.67
  -1  -1  -3 2234.77   32.80
  -1   1  -3 2435.00   42.08
   1  -1   3 2044.47   30.36
  -1  -1  -3 2618.38   41.70
   1   1   3 2266.68   29.82
   1   1   3 2217.89   29.40
   1   1   4   96.88    6.61
   1  -1   4   85.04    6.53
   1   1   4  100.60    6.61
  -1  -1  -4   91.36    7.55
   1  -1   5 3571.19   46.94
   1   1   5 3393.44   44.12
   1   1   6    7.06    1.88
   1  -1   6    5.57    1.98
   1   1   7   77.84    7.75
   1   1   7   85.97    7.64
   1  -1   7   79.51    8.08
   1   1   8  148.68   11.77
   1  -1   8  160.19   12.38
   1   1   8  179.63   12.01
   1   1   9   81.92    8.98
   1  -1   9   72.25    4.71
   1   1   9  106.53   10.63
   1  -1   9  114.04   11.24
   1  -1  10  465.88   24.42
   1   1  10  452.08   23.55
   1   1  11  216.58   17.30
   1  -1  11  245.85   19.03
   1  -1  12   -2.22    2.82
   1   1  12    0.66    1.28
   1   1  13   79.66   11.99
   1  -1  13   82.05   13.02
   1  -1  14   14.41    6.29
   1   1  14   16.43    6.59
   1  -1  15   10.35    5.74
   1   1  15   -1.23    1.98
  -1  -2  15   -1.19    4.21
  -1   2  15    4.05    3.99
  -1  -2  15    2.19    1.87
  -1   2  14   -1.57    1.10
  -1  -2  14    2.20    3.74
  -1  -2  13  153.86   19.55
  -1   2  13  111.40   13.98
  -1   2  12    0.86    1.33
  -1  -2  12   -0.31    2.53
  -1  -2  11  157.93   15.77
  -1   2  11  122.17   12.96
  -1   2  10  128.27   12.51
  -1  -2  10  143.61   13.53
  -1  -2   9  170.09   13.40
  -1   2   9  150.94   12.58
  -1   2   8   77.60    8.13
  -1  -2   8   79.84    8.30
  -1   2   7  541.31   20.05
  -1  -2   7  564.32   20.96
  -1  -2   6  149.38    9.94
  -1   2   6  146.80    5.18
  -1  -2   5  238.11   11.63
   1   2  -5  220.68   12.67
  -1   2   5  197.15   10.03
  -1   2   4  984.97   25.93
   1   2  -4 1013.52   23.58
  -1  -2   4 1127.78   31.70
  -1  -2   4 1173.31   23.77
  -1   2   4  892.97   15.32
  -1   2   4 1120.93   23.17
   1   2  -3 1250.03   25.80
  -1  -2   3 1196.86   20.88
  -1  -2   3 1070.61   28.52
  -1   2   3 1016.42   24.01
   1   2  -3 1068.91   22.73
  -1   2   3 1019.31   19.85
  -1  -2   2  959.26   20.85
  -1  -2   2  857.65   23.93
   1   2  -2 1119.04   17.46
  -1  -2   2  992.72   15.22
   1  -2  -2  789.52   18.14
   1   2  -2  859.56   20.03
   1  -2  -2  863.76   21.47
  -1   2   2  822.64   19.45
  -1   2   2  936.62   17.21
  -1   2   1 1669.52   21.78
   1  -2  -1 1563.96   23.86
  -1  -2   1 1617.47   23.36
  -1   2   1 1323.63   25.76
  -1   2   1 1833.44   32.44
   1  -2  -1 1661.73   27.37
   1   2  -1 1488.90   37.03
  -1  -2   1 1502.94   30.27
  -1  -2   1 1684.89   21.85
  -1  -2   0  426.80   11.01
  -1   2   0  419.77   16.06
   1   2   0  423.64    9.60
   1  -2   0  455.97   13.26
  -1  -2   0  511.25    9.18
   1   2   0  340.18   12.37
   1   2   0  430.24   19.70
   1   2   0  480.59   12.07
  -1   2   0  436.54   15.45
  -1  -2   0  386.75   14.39
  -1  -2  -1  627.55   11.09
   1   2   1  586.60   22.30
   1   2   1  545.57    9.83
   1  -2   1  537.12   14.91
  -1   2  -1  615.20   20.25
   1   2   1  699.95   13.14
  -1  -2  -1  592.40   13.35
   1   2   1  456.69   14.43
   1   2   1  603.12   16.35
   1   2   1  449.31   12.38
   1   2   2 4789.76   37.40
   1   2   2 4720.85   64.78
   1   2   2 4304.01   44.04
  -1  -2  -2 3708.36   39.47
   1   2   2 3477.11   45.51
   1  -2   2 3899.39   45.76
  -1   2  -2 3875.05   49.68
  -1  -2  -3    6.25    2.20
   1  -2   3    6.44    2.00
   1   2   3    8.48    2.34
   1   2   3    5.90    1.44
  -1   2  -3    3.61    1.37
   1  -2   3    3.24    0.24
   1  -2   4  751.32   21.76
   1   2   4  759.38   18.79
   1   2   4  715.40   27.06
   1   2   5  296.05   12.91
   1  -2   5  318.05   14.88
   1  -2   6  430.22   18.36
   1   2   6  440.05   16.78
   1  -2   7  236.65   14.64
   1   2   7  233.44   13.60
  -1  -2  -7  256.50   15.00
   1   2   8   22.30    4.34
  -1  -2  -8   20.21    4.42
   1   2   8   24.35    4.69
   1  -2   8   21.91    4.76
  -1  -2  -9   73.89    9.06
   1   2   9   75.22    9.16
   1  -2   9   75.93    9.87
   1   2   9   66.03    8.16
   1   2  10  471.69   24.77
   1  -2  10  524.58   27.79
  -1  -2 -10  468.32   23.96
   1   2  11   39.26    7.51
   1  -2  11   39.91    8.16
   1   2  12    0.52    1.43
   1  -2  12   -1.81    2.57
   1   2  13    4.01    2.58
   1  -2  13    3.54    2.37
   1  -2  14   22.15    7.99
   1   2  14   25.57    7.25
  -1  -3  15    8.93    6.07
  -1  -3  15   10.77    6.61
  -1  -3  14   10.53    6.15
  -1   3  14   13.93    5.42
  -1  -3  13   54.17   12.48
  -1   3  13   35.04    8.36
  -1  -3  12  111.78   15.88
  -1   3  12   73.70   11.01
  -1   3  11   45.59    7.93
  -1  -3  11   49.31    9.46
  -1  -3  10   93.30   11.87
  -1   3  10   84.33   10.18
  -1  -3  10   85.87   11.11
  -1   3   9  256.11   16.72
  -1  -3   9  271.79   18.79
  -1  -3   9  256.55   18.33
  -1  -3   8 1537.68   43.88
  -1   3   8 1446.02   37.19
  -1  -3   8 1584.66   42.13
  -1  -3   7   30.96    5.06
  -1   3   7   33.35    5.10
  -1  -3   7   31.88    6.05
  -1  -3   6   11.43    3.36
   1   3  -6    8.72    2.44
  -1  -3   6    6.89    0.55
  -1   3   6    5.41    1.72
  -1   3   6    5.99    1.50
  -1  -3   5  345.43   18.77
  -1   3   5  296.46   16.25
  -1  -3   5  323.84   14.27
  -1   3   5  280.52   12.54
   1   3  -5  354.30   15.73
   1   3  -4  445.86   17.41
  -1   3   4  432.81   18.33
  -1  -3   4  486.31   21.31
  -1  -3   4  497.64   16.38
  -1  -3   3 2460.23   46.73
  -1  -3   3 2886.89   34.83
  -1   3   3 2175.64   37.74
  -1   3   3 2803.18   35.49
   1   3  -3 2373.50   38.16
   1  -3  -3 2283.49   38.34
  -1  -3   2 1331.79   19.13
  -1  -3   2 1047.38   29.37
  -1   3   2 1308.08   22.25
  -1  -3   2 1418.79   28.82
   1  -3  -2 1200.61   27.63
  -1   3   2 1192.39   27.42
  -1  -3   2 1254.02   26.25
   1   3  -2 1609.51   20.36
   1  -3  -2 1095.83   28.47
   1  -3  -1   49.44    5.56
  -1  -3   1   47.80    4.21
  -1  -3   1   50.27    4.78
   1  -3  -1   41.27    4.62
  -1   3   1   51.35    4.11
  -1   3   0  290.81    9.63
  -1  -3   0  266.55   10.51
   1   3   0  264.98   11.31
   1  -3   0  264.24   11.70
   1   3   1  621.95    9.97
   1   3   1  760.13   20.67
   1  -3   1  886.10   23.82
  -1  -3  -1  712.54   10.83
   1   3   1  449.53   16.51
   1   3   1 1005.56   23.26
  -1   3  -1  719.11   22.24
  -1  -3  -1  894.69   21.93
   1   3   2  203.66   11.12
   1  -3   2  158.35   10.07
   1   3   2   77.08    6.05
  -1  -3  -2  171.92    9.33
   1   3   2  183.85    7.46
  -1  -3  -2  117.28    7.22
   1   3   2  161.00    9.82
  -1   3  -2  128.46   10.05
   1  -3   3  656.73   22.67
  -1  -3  -3  568.62   22.72
   1   3   3  697.42   20.90
   1   3   3  770.09   17.55
   1   3   3  504.64   15.09
   1   3   4   72.30    5.94
   1   3   4   73.60    7.70
   1  -3   4   68.17    7.23
   1  -3   4   61.08    7.50
   1   3   5 2257.62   36.79
   1  -3   5 2402.95   46.03
   1  -3   6    0.57    1.37
   1   3   6    0.22    0.97
   1   3   7   64.07    7.05
   1  -3   7   61.42    8.23
   1  -3   8  186.29   15.53
   1   3   8  183.44   13.43
   1   3   9   78.00    9.67
   1  -3   9   91.12   11.58
   1  -3  10  286.65   22.53
   1   3  10  248.55   18.50
   1  -3  11  212.33   20.48
   1   3  11  173.28   16.51
   1  -3  12   -0.06    1.86
   1   3  12    2.09    2.94
   1   3  13   35.38    8.51
   1  -3  13   54.57   12.59
   1   3  14   11.28    5.88
   1  -3  14   18.20    8.23
  -1   4  14   -0.88    3.33
  -1  -4  14   -2.26    3.16
  -1  -4  14    1.33    2.60
  -1   4  13   63.64   11.56
  -1  -4  13   58.51   13.57
  -1  -4  12    0.83    1.65
  -1   4  12   -1.08    3.20
  -1  -4  11   61.34   12.05
  -1   4  11   59.93    9.77
  -1   4  10   84.53   11.29
  -1  -4  10  100.07   14.05
  -1   4   9   87.59   10.53
  -1  -4   9   83.37   10.68
  -1  -4   9  100.49   12.41
  -1   4   8   41.16    6.49
  -1  -4   8   44.09    7.70
  -1  -4   8   49.94    7.81
   1   4  -7  223.29   14.70
  -1  -4   7  274.08   18.59
  -1  -4   7  264.44   17.18
  -1   4   7  285.98   16.07
  -1  -4   6   87.17    9.05
   1   4  -6   88.23    8.83
  -1  -4   6   87.45   10.18
  -1   4   6   90.97   10.20
  -1   4   6   93.06    8.31
  -1  -4   5  150.62   12.81
  -1  -4   5  153.27   10.98
   1   4  -5  145.84   11.27
   1  -4  -5  144.81   12.46
  -1   4   5  151.12   13.18
  -1   4   5  134.09    9.20
  -1   4   4  471.93   16.51
   1  -4  -4  474.17   21.84
   1   4  -4  442.58   18.80
  -1  -4   4  425.14   20.90
  -1   4   4  434.24   19.33
  -1  -4   4  460.21   17.57
  -1   4   3  589.58   17.49
  -1   4   3  470.27   19.82
   1  -4  -3  627.63   13.57
  -1  -4   3  633.48   23.19
   1  -4  -3  572.70   23.19
  -1  -4   3  550.66   21.16
   1   4  -3  698.20   18.39
  -1  -4   3  591.42   18.03
  -1  -4   2  590.07   21.25
  -1   4   2  576.46   16.21
   1  -4  -2  476.46   21.07
  -1   4   2  491.85   20.31
   1  -4  -2  609.40   16.91
   1   4  -2  621.09   10.98
  -1  -4   2  513.90   17.66
  -1  -4   1  684.40   20.37
  -1   4   1  711.56   17.19
   1  -4   0  114.84    8.71
  -1   4   0  136.58    7.25
  -1  -4   0  132.07    7.91
  -1  -4   0  115.46    7.92
   1   4   1  195.12   11.86
   1   4   1  130.50   10.31
  -1  -4  -1  211.14    9.85
  -1   4  -1  139.62   11.30
   1  -4   1  245.17   13.97
  -1  -4  -2 1995.35   39.29
   1   4   2 1511.10   22.10
   1   4   2 1687.57   35.58
   1  -4   2 1775.36   37.31
  -1   4  -2 1055.47   31.74
   1   4   3    3.95    1.92
  -1  -4  -3    3.44    1.58
   1  -4   3    3.61    0.98
   1   4   3    3.01    0.82
  -1  -4  -3    7.76    3.01
  -1  -4  -4  372.50   17.46
   1   4   4  373.06   14.23
   1  -4   4  316.47   18.32
   1   4   4  342.27   17.32
   1   4   5  142.75    9.54
   1  -4   5  126.58   12.65
   1   4   5  136.92   12.18
   1  -4   5  133.87   11.98
   1  -4   6  251.31   19.36
   1   4   6  253.11   13.88
   1  -4   6  279.50   18.20
   1  -4   7  145.81   15.59
   1   4   7  150.14   11.77
   1  -4   7  170.69   15.38
   1  -4   8   14.23    4.61
   1   4   8    9.74    2.88
   1  -4   9   37.52    9.05
   1   4   9   30.80    6.11
   1  -4  10  327.13   26.96
   1   4  10  235.55   18.68
   1   4  11   21.76    6.05
   1   4  11    9.78    4.53
   1  -4  12   -0.27    1.47
   1   4  12   -0.40    2.01
   1   4  13    3.44    0.63
   1  -4  13   -2.60    4.10
   1  -4  14    5.00    4.97
   1   4  14    2.75    4.01
  -1   5  14    4.88    3.76
  -1  -5  13    4.65    4.69
  -1   5  13   10.47    5.15
  -1   5  12   31.09    7.82
  -1  -5  12   16.07    7.42
  -1   5  11   30.90    7.40
  -1  -5  11   17.40    7.16
  -1  -5  10   16.33    6.03
  -1   5  10   31.61    7.11
  -1   5   9   74.57   10.13
  -1  -5   9   35.26    8.60
  -1   5   8  663.29   27.94
  -1  -5   8  461.71   28.97
   1   5  -7    5.08    2.51
  -1   5   7    8.40    3.07
   1  -5  -7    6.61    3.37
  -1  -5   7    3.48    1.32
  -1   5   7    5.20    3.06
  -1  -5   7    4.77    2.87
  -1  -5   6    2.23    2.57
   1  -5  -6    1.04    2.19
   1   5  -6    0.41    1.12
  -1  -5   6    0.27    0.96
  -1   5   6    0.82    1.65
  -1   5   6   -0.42    2.27
  -1   5   5  118.58   11.98
   1   5  -5  110.13   10.79
  -1  -5   5  158.44   14.71
  -1  -5   5   99.12   11.79
   1  -5  -5  139.47   14.03
  -1  -5   5   81.20    9.73
  -1   5   5  112.94    9.15
   1  -5  -4  111.87   12.52
   1   5  -4  104.24    8.64
   1   5  -4   85.18    9.27
  -1  -5   4   85.28    9.86
  -1   5   4   93.62    7.61
  -1   5   4   85.68    9.68
  -1  -5   4  124.73   12.59
   1  -5  -3  715.28   18.40
   1   5  -3  681.51   16.80
  -1   5   3 1063.44   25.97
  -1  -5   3 1200.67   37.79
  -1  -5   3  832.19   27.69
   1  -5  -3 1047.82   37.77
  -1   5   3  905.33   30.79
   1  -5  -2  278.98   13.20
  -1   5   2  290.63   12.47
  -1  -5   2  288.35   15.77
  -1  -5   2  297.70   16.87
  -1   5   2  260.80   16.97
  -1   5   1   36.87    4.44
  -1  -5   1   55.02    6.63
  -1  -5   1   48.64    5.68
  -1  -5   0  289.84   14.45
  -1  -5   0  273.18   13.19
  -1   5   0  301.74   12.01
   1  -5   0  287.06   16.12
   1  -5   1  472.11   20.61
  -1   5  -1  510.88   15.90
   1   5   1  451.45   20.44
  -1  -5  -1  451.83   16.42
   1   5   2   72.00    4.52
   1   5   2   75.87    8.65
   1  -5   2   83.20    9.50
  -1  -5  -3  502.75   23.82
   1   5   3  446.91   14.91
   1  -5   3  444.16   22.04
   1   5   3  432.10   20.86
   1  -5   4    7.94    2.62
   1   5   4    4.85    1.68
  -1  -5  -4    7.84    3.01
   1   5   4    6.22    1.93
   1   5   5  885.55   26.17
  -1  -5  -5  979.04   36.35
   1   5   5  876.16   33.77
   1  -5   5  874.33   36.95
  -1  -5  -6    0.25    0.62
   1   5   6    2.07    1.81
   1   5   6    4.25    0.97
   1  -5   6    1.42    1.83
   1   5   7   22.52    5.10
   1  -5   7   22.36    6.21
   1  -5   7   23.39    6.74
   1  -5   8   58.54   11.39
   1  -5   8   74.81   13.21
   1   5   8   70.53    9.64
   1  -5   9   21.70    6.66
   1  -5   9   37.98    9.92
   1   5   9   16.78    6.44
   1  -5  10  180.03   24.26
   1  -5  10  127.30   19.36
   1   5  10  143.42   15.00
   1   5  11   29.83    8.66
   1  -5  11   56.04   13.62
   1   5  11   60.60   10.58
   1  -5  11   79.40   17.84
   1   5  12    0.28    0.21
   1  -5  12    1.03    0.90
   1  -5  12    1.52    2.91
   1  -5  13   24.46   10.76
   1   5  13   22.18    7.63
   1  -5  13   25.62   10.99
   1  -5  14    2.89    3.41
   1   5  14    2.12    2.78
  -1  -6  13   18.41   10.77
  -1  -6  12   -2.76    5.19
   1  -6 -12   -1.27    5.13
  -1   6  12   -0.56    1.06
  -1  -6  11   22.49    9.82
  -1   6  11    5.78    3.68
  -1  -6  11    7.89    6.53
   1  -6 -11   13.43    8.63
  -1   6  10   15.32    4.89
   1  -6 -10   29.72   10.70
  -1  -6  10   19.89    9.10
  -1  -6  10   42.18   11.45
  -1   6   9    9.50    2.59
  -1  -6   9   15.80    7.62
   1  -6  -9   27.59    9.69
  -1  -6   8   35.27    9.48
   1  -6  -8   36.44   10.11
  -1   6   8   23.37    6.09
  -1  -6   8   10.70    5.16
   1  -6  -7  104.36   15.88
  -1   6   7   80.66   12.47
  -1  -6   7  106.66   15.34
  -1   6   7   64.97    8.81
  -1  -6   7   48.71   10.81
  -1   6   6   55.84    7.42
   1   6  -6   40.93    7.81
  -1  -6   6   45.43    9.97
  -1   6   6   52.19   10.06
   1  -6  -6   67.10   12.43
  -1  -6   6   76.58   12.41
  -1   6   5   94.18    9.13
  -1  -6   5  137.98   15.73
  -1   6   5   92.05   11.50
   1   6  -5   87.26   10.86
   1  -6  -5  122.99   15.87
  -1  -6   5   94.48   12.85
  -1   6   4  122.81   13.11
   1  -6  -4  183.66   19.53
  -1  -6   4  179.02   17.51
  -1   6   4  119.13    9.47
  -1  -6   4  135.94   13.91
   1   6  -4  111.08   12.05
  -1  -6   3  266.53   18.88
  -1   6   3  246.41   18.03
  -1   6   3  224.82   11.95
  -1   6   2  197.46   11.22
  -1   6   2  207.73   17.27
  -1  -6   2  218.06   15.52
  -1  -6   2  247.70   17.60
  -1  -6   1  183.07   14.19
  -1  -6   1  163.19   12.90
  -1   6   1  164.11   14.34
   1  -6  -1  163.85   13.23
  -1   6   1  182.49   10.42
  -1  -6   0   12.69    3.76
  -1   6   0    4.47    1.46
   1  -6   0   12.14    3.73
   1   6   1   51.80    8.00
   1  -6   1   52.38    7.86
  -1  -6  -1   60.72    7.05
  -1   6  -1   42.85    5.05
   1  -6   2  558.69   27.42
   1   6   2  492.09   25.15
  -1   6  -2  501.83   17.75
   1  -6   3    2.88    1.98
   1   6   3    2.83    1.36
   1  -6   4  164.16   16.41
   1   6   4  161.18   14.43
   1   6   4  148.88    9.99
  -1  -6  -4  189.92   19.40
   1   6   5   35.94    7.30
  -1  -6  -5   50.33    9.95
   1   6   5   35.11    5.48
   1  -6   5   42.32    8.56
   1   6   6  116.89   10.98
  -1  -6  -6  145.17   18.32
   1  -6   6  115.03   15.37
   1   6   6  120.63   13.84
   1   6   7   97.28   12.80
  -1  -6  -7   97.97   15.40
   1  -6   7  102.98   16.45
   1   6   7   98.09   10.88
  -1  -6  -8    2.19    2.59
   1  -6   8   -1.19    3.38
  -1  -6  -9    1.66    2.79
   1  -6   9   -1.81    1.54
   1  -6  10   84.95   18.83
  -1  -6 -10   43.74   13.37
   1  -6  11    5.97    5.50
   1   6  11    3.50    3.30
   1  -6  12    0.68    4.16
   1  -7 -11   20.77   13.21
  -1  -7  10   14.02    6.62
   1  -7 -10    8.08    7.05
  -1  -7  10    5.01    6.22
  -1  -7   9    6.21    5.24
   1  -7  -9   12.23    6.23
  -1  -7   9   24.85   10.00
   1  -7  -8  208.24   30.53
  -1   7   8  257.21   26.22
   1  -7  -7    2.86    3.78
  -1  -7   7    1.12    2.53
  -1  -7   7    2.45    2.58
  -1   7   7    2.28    0.63
   1  -7  -6    1.64    0.80
  -1  -7   6    0.46    0.70
  -1  -7   6    0.74    3.10
  -1   7   6    1.95    1.90
   1   7  -6    1.29    2.10
  -1   7   5   39.25    8.31
  -1  -7   5   65.67   12.21
   1   7  -5   37.75    8.27
  -1  -7   5   20.00    7.09
   1  -7  -5   68.22   14.31
  -1  -7   4   33.98    8.79
   1   7  -4   29.15    7.29
  -1   7   4   38.28    8.03
  -1  -7   4   52.21   10.02
  -1  -7   3  237.34   20.65
  -1   7   3  302.86   22.36
  -1  -7   2   87.82   12.03
  -1  -7   2   52.65    9.22
  -1   7   2   73.14   11.45
   1  -7  -1    6.78    2.88
  -1  -7   1   14.20    5.43
  -1   7   1   10.38    4.60
  -1  -7   1    7.28    3.23
   1  -7   0   77.83   11.61
   1   7   0   83.65   11.25
  -1  -7   0   92.40   11.15
   1  -7   1  198.08   19.01
   1  -7   1  199.40   18.58
   1   7   1  153.17   15.73
   1   7   2   27.88    6.74
   1  -7   2   30.53    7.61
   1   7   3  116.14   13.64
   1  -7   3  173.20   18.48
   1  -7   4    3.69    1.44
   1   7   4    0.29    1.70
  -1  -7  -5  138.43   20.35
   1   7   5  245.30   20.91
  -1  -7  -6    0.15    1.34
   1   7   6   -0.79    1.67
  -1  -7  -7    3.39    3.75
   1  -7   7    0.05    4.46
   1   7   7    5.15    3.06
  -1  -7  -8   11.60    6.61
   1  -7   8   18.07    8.30
   1  -7   9   11.07    7.62
  -1  -7  -9    2.54    3.18
  -1  -7 -10   49.17   16.54
   1  -7  10   26.21   12.36
   1  -7  11   16.71   10.39
   1   7  11   13.70    7.63
  -1  -7 -11   11.99    9.88
   1  -8  -9    7.77    6.30
   1  -8  -8    3.78    8.22
  -1   8   8   -0.35    3.07
  -1  -8   8   14.81    8.51
   1  -8  -7   17.75   10.88
  -1   8   7   29.22   10.39
  -1  -8   7   16.43    7.87
  -1   8   6   10.83    5.54
  -1  -8   6    8.28    6.62
   1   8  -5   10.07    4.92
  -1  -8   5   21.34    7.42
  -1   8   5   17.52    6.23
  -1   8   4   33.66    8.94
   1   8  -4   26.52    7.31
  -1  -8   4   29.93    9.57
   1   8  -3   30.55    7.97
  -1   8   3   47.00    9.99
  -1  -8   3   31.04    8.92
  -1  -8   2   21.12    7.10
  -1   8   2   44.11   10.13
  -1   8   1   87.81   13.97
  -1  -8   1   38.06    9.08
  -1  -8   0    3.77    3.33
   1  -8   0    1.86    2.58
   1   8   0    7.90    4.20
  -1   8   0    4.55    3.53
   1  -8   1   11.11    5.43
   1  -8   1   10.41    4.16
   1   8   1   25.45    7.47
   1  -8   2  104.21   17.62
   1  -8   2  104.81   16.91
   1  -8   3    2.14    2.95
   1  -8   3    3.17    3.94
   1   8   3    5.09    3.95
   1  -8   4   17.00    6.68
   1   8   4   29.44    7.49
   1   8   5   20.38    6.97
   1  -8   5   10.89    6.66
   1  -8   6   11.52    7.15
   1   8   6   32.61    9.47
   1  -8   7    9.10    6.45
  -1  -8  -7   14.29    9.59
   1   8   7   22.31    7.46
  -1  -8  -8    0.25    1.68
   1  -8   8    1.36    0.58
   1  -8   9    1.76    3.44
   1  -8  10   16.36    9.44
  -1  -9   6   -4.24    4.75
  -1  -9   5    8.12    4.94
  -1   9   5   13.17    6.91
   1   9  -4    8.05    3.49
  -1  -9   4    8.00    6.11
  -1   9   4   11.75    6.04
  -1   9   3   70.13   14.29
  -1  -9   3   39.77   12.63
   1   9  -3   60.76   12.36
   1   9  -2    9.11    3.84
  -1  -9   2   11.78    5.67
  -1   9   2   19.74    7.99
  -1  -9   1    0.96    3.21
  -1   9   1   -1.33    2.89
   1   9  -1    0.98    2.57
  -1   9   0   16.09    7.26
   1   9   0   11.55    5.64
  -1   9  -1   19.48    7.62
   1   9   1   16.10    6.78
   1  -9   2    7.24    5.91
   1   9   2    1.36    1.71
   1  -9   3   12.78    8.41
   1   9   3   29.42    9.10
   1  -9   4    3.58    4.32
   1   9   4    1.53    2.61
   1  -9   5   57.10   18.49
   1  -9   6   -7.77    4.63
   1  10  -3    5.40    4.31
   1  10  -2    5.36    4.32
  -2   0  15   30.72    8.87
  -2   0  14    0.30    2.32
  -2   0  13    7.10    4.57
  -2   0  12    4.97    3.19
  -2   0  12   -0.36    1.17
  -2   0  11  773.45   32.97
  -2   0  11  894.89   35.57
  -2   0  10   99.72   10.78
  -2   0  10  107.60   11.22
  -2   0   9   27.91    5.29
  -2   0   9   21.27    4.53
  -2   0   8  362.67   17.15
  -2   0   8  303.50   15.63
  -2   0   7  710.81   21.87
  -2   0   7  830.18   23.20
   2   0  -6  507.24   12.72
  -2   0   6  532.76   17.31
  -2   0   5 2677.76   33.73
  -2   0   5 2658.61   37.83
  -2   0   4  492.14   14.96
  -2   0   4  570.97   14.07
  -2   0   3 3012.95   33.42
   2   0  -3 2908.59   37.64
   2   0  -3 2999.95   32.64
  -2   0   2   68.33    4.67
   2   0  -2   51.77    4.52
   2   0  -2   50.45    4.95
  -2   0   2   65.49    4.49
  -2   0   1   38.83    3.36
  -2   0   1   38.41    3.81
  -2   0   1   41.97    4.14
  -2   0   0 1497.84   18.01
   2   0   0 1465.32   19.09
   2   0   1  337.88   10.45
  -2   0  -1  327.26   21.22
  -2   0  -1  366.65   13.39
  -2   0  -2 4252.27   71.19
  -2   0  -2 5137.56   63.83
  -2   0  -3 1218.52   35.71
   2   0   3 1111.35   25.23
  -2   0  -4  453.94   21.30
   2   0   4  448.84   16.56
  -2   0  -5  536.17   22.67
   2   0   5  459.64   17.52
   2   0   6  173.10   11.30
   2   0   7   21.13    4.16
   2   0   8  680.20   25.75
   2   0   8  563.43   15.62
   2   0   9   37.60    6.36
   2   0  10  320.90   20.13
   2   0  11   -1.68    1.00
   2   0  12   70.73   10.53
   2   0  13   72.89   11.71
   2   0  14    3.81    2.97
  -2   1  15   30.23    7.81
  -2  -1  15   27.25    9.50
  -2  -1  14   54.32   11.36
  -2   1  14   47.77    9.32
  -2  -1  13    3.34    3.61
  -2   1  13    0.59    0.66
  -2  -1  13   -1.14    2.35
  -2  -1  12  195.92   17.84
  -2  -1  12  174.91   18.53
  -2   1  12  159.28   15.84
  -2   1  11  103.43   11.53
  -2  -1  11  132.92   15.09
  -2  -1  11  115.25   13.27
  -2   1  11  116.11   10.57
  -2  -1  10  118.00   12.21
  -2   1  10  106.53   10.37
  -2   1  10  104.59    9.19
  -2   1   9  102.23    8.33
  -2  -1   9  113.89   11.53
  -2   1   9   78.22    8.76
  -2  -1   9   90.40    9.72
  -2  -1   8   45.22    7.64
  -2  -1   8   64.05    7.25
  -2  -1   8   73.58    8.53
  -2   1   8   54.05    5.50
  -2   1   8   50.31    6.38
  -2   1   7   72.60    5.58
  -2  -1   7   90.82    8.54
  -2  -1   7   99.61   12.25
  -2   1   7   66.54    6.30
  -2  -1   7   69.88    7.13
  -2  -1   6 2027.82   34.71
  -2   1   6 2016.89   34.13
  -2   1   5   16.19    3.27
  -2  -1   5   18.20    3.19
  -2  -1   5    8.37    3.83
  -2  -1   5   14.05    2.76
  -2  -1   4  810.91   19.25
  -2   1   4  858.31   20.30
  -2   1   3   70.22    5.39
  -2  -1   3   63.67    5.01
  -2  -1   3   71.68    5.32
   2  -1  -3   79.18    4.81
  -2  -1   3   20.97    5.53
   2   1  -3   31.03    3.87
   2  -1  -3   68.44    6.99
   2   1  -3   73.82    7.10
   2   1  -2 2165.67   31.43
  -2   1   2 2007.73   26.79
  -2  -1   2 2431.61   26.66
  -2  -1   2 1900.60   24.59
  -2  -1   2 1650.44   46.04
   2   1  -2 2175.90   34.67
  -2   1   2 2152.93   28.62
   2  -1  -2 2538.39   33.48
   2  -1  -2 2613.20   38.49
  -2   1   1 3518.65   44.11
  -2  -1   1 2761.86   31.25
   2   1  -1 2508.03   46.75
  -2  -1   1 2526.01   53.70
  -2   1   1 3271.15   29.59
   2   1  -1 3576.38   43.98
   2  -1  -1 2954.34   31.08
   2   1  -1 2877.08   34.93
  -2   1   1 2998.99   32.17
  -2  -1   1 3350.53   28.75
   2   1   0  228.48   12.33
  -2  -1   0  301.65    6.58
  -2   1   0  270.90   11.63
  -2  -1   0  225.76   16.16
  -2   1   0  268.24   12.23
  -2  -1   0  248.70   10.69
   2   1   0  255.51   12.01
   2  -1   0  229.35    9.09
   2   1   0  258.62    7.64
  -2  -1  -1 1049.78   24.13
   2   1   1  965.16   25.06
  -2  -1  -1  717.90   21.99
  -2  -1  -1 1043.10   32.55
   2   1   1 1074.22   27.58
  -2  -1  -1  872.10   23.04
   2   1   1 1133.44   19.49
   2   1   1  944.62   14.02
  -2  -1  -1  715.07   17.92
  -2   1  -1 1048.21   26.06
   2  -1   1  870.84   18.31
  -2  -1  -2 2141.00   34.42
   2   1   2 2166.30   33.27
  -2  -1  -2 2495.81   52.59
   2   1   2 2230.35   38.06
   2  -1   2 1883.60   30.65
  -2  -1  -2 2005.42   35.51
  -2  -1  -2 1589.45   36.56
  -2  -1  -2 2241.79   40.62
   2   1   3  778.67   25.64
   2   1   3  658.10   18.46
  -2  -1  -3  575.23   21.00
   2  -1   3  558.60   19.73
   2   1   3  754.05   23.06
  -2   1  -4   47.82    8.32
   2   1   4   34.75    5.48
  -2  -1  -4   25.89    4.69
   2  -1   4   32.55    4.74
   2   1   4   41.90    5.47
   2   1   4   31.84    4.25
   2   1   5   -0.37    0.96
  -2   1  -5    2.80    1.67
   2  -1   5    1.31    0.63
   2   1   5    0.67    0.34
   2   1   5    2.76    1.09
   2   1   6   33.59    5.85
   2  -1   6   52.14    6.42
  -2   1  -6   70.82    7.22
   2   1   6   64.09    7.33
   2   1   6   48.02    5.91
   2   1   7 1855.63   40.35
   2  -1   7 1830.13   41.62
   2  -1   8   12.43    3.38
   2   1   8   12.76    3.78
   2   1   8   10.81    3.55
   2   1   8   10.40    3.46
   2  -1   9   15.70    4.49
   2   1   9   16.03    4.50
   2   1   9   20.33    4.94
  -2  -1 -10   76.45   12.90
   2   1  10   75.06   10.06
   2  -1  10   70.38   10.02
   2   1  11   81.01   11.06
  -2  -1 -11   82.53   13.61
   2  -1  11   83.54   11.21
   2  -1  12   86.70   12.66
   2   1  12   71.89   11.15
   2  -1  13   52.54   10.98
   2   1  13   48.65    9.77
   2  -1  14   22.25    7.04
   2   1  14   13.97    5.93
  -2  -2  15   36.54   12.02
  -2   2  14   -3.72    3.39
  -2  -2  14   -0.85    3.00
  -2  -2  14    0.06    3.79
  -2   2  13   14.07    4.50
  -2  -2  13   21.94    7.93
  -2  -2  13   18.28    6.68
  -2  -2  12    1.97    3.49
  -2   2  12    2.59    2.91
  -2  -2  12    4.25    3.26
  -2   2  11  580.04   28.24
  -2  -2  11  643.70   32.20
  -2   2  10  109.93   11.27
  -2  -2  10  160.20   16.62
  -2  -2  10  135.79   13.36
  -2  -2   9   18.37    4.93
  -2  -2   9   19.71    5.51
  -2   2   9   18.68    4.07
  -2   2   9   15.93    2.70
  -2  -2   8  173.10   14.68
  -2  -2   8  170.61   13.15
  -2   2   8  140.13   10.89
  -2  -2   7  541.42   23.32
  -2   2   7  474.13   18.90
  -2  -2   7  508.46   19.87
  -2   2   6  642.47   20.52
  -2  -2   6  691.49   21.53
  -2  -2   5 1491.50   28.52
  -2   2   5 1436.86   29.25
  -2   2   4  228.28   12.56
  -2  -2   4  252.21   10.54
   2   2  -4  195.57   14.58
  -2   2   4  245.63   12.07
  -2  -2   4  213.36   17.10
  -2  -2   4  214.16   10.95
  -2   2   3 3078.83   37.36
  -2   2   3 2968.10   40.84
  -2  -2   3 3075.13   38.47
  -2  -2   2   40.23    6.15
  -2   2   2   51.94    5.03
  -2   2   2   57.35    4.85
   2   2  -2   59.53    4.99
   2   2  -2   52.01    6.01
  -2  -2   2   48.27    4.44
   2  -2  -2   51.03    4.97
  -2   2   1  380.49   12.56
  -2  -2   1  408.10    9.66
  -2  -2   1  312.71   10.70
   2  -2  -1  329.32   12.40
   2  -2  -1  336.75   13.08
  -2  -2   1  302.46   16.05
   2   2  -1  361.96   15.80
  -2  -2   0 1464.49   35.02
   2  -2   0 1502.92   26.68
   2   2   0 1445.26   30.06
  -2  -2  -1   33.72    4.83
   2   2   1   39.23    5.06
   2   2   1   37.10    3.94
  -2  -2  -1   43.06    3.10
   2  -2   1   36.30    4.52
  -2  -2  -1   22.63    3.27
   2   2   2 2487.76   40.61
  -2  -2  -2 2408.74   38.80
   2   2   2 2442.24   35.78
   2   2   3 1061.01   27.33
  -2  -2  -3 1054.15   27.85
   2   2   3  948.26   24.79
   2   2   3  927.36   21.82
   2  -2   4  176.77   12.39
  -2  -2  -4  195.70   12.87
   2   2   4  193.81   12.15
   2  -2   4  165.30   11.54
   2   2   4  171.56    9.94
   2   2   5  340.29   16.62
   2   2   5  310.43   14.42
   2  -2   5  323.09   17.05
   2   2   6  259.60   14.73
  -2  -2  -6  244.02   16.51
   2  -2   6  246.81   15.65
   2   2   6  228.75   13.24
  -2  -2  -7   56.67    8.51
   2   2   7   55.55    7.23
  -2   2  -7   31.47    4.47
   2   2   7   52.88    6.93
   2  -2   7   60.54    7.90
   2   2   8  670.28   26.85
  -2  -2  -8  601.48   29.74
   2  -2   8  677.48   29.14
   2   2   8  675.32   26.66
  -2  -2  -9    5.51    2.65
   2   2   9   11.59    3.85
   2  -2   9    8.86    3.54
   2   2   9   12.01    3.90
   2   2  10  272.38   19.45
   2   2  10  232.47   19.90
  -2  -2 -10  265.71   22.38
   2  -2  10  306.78   22.31
   2   2  11    5.86    3.33
   2  -2  11    6.27    2.91
   2   2  12   65.07   10.71
   2  -2  12   67.50   12.15
   2  -2  13   55.93   11.95
   2   2  13   40.15    9.26
   2   2  14    9.20    4.42
   2  -2  14    2.61    3.15
  -2  -3  15   19.09    9.19
  -2  -3  15   23.15   11.67
  -2  -3  14   38.66   12.80
  -2   3  14   23.50    7.66
  -2  -3  14   21.73    9.00
  -2   3  13    0.12    1.57
  -2  -3  13   -0.04    1.64
  -2  -3  13    0.63    1.01
  -2  -3  12  187.81   22.93
  -2  -3  12  166.76   19.95
  -2   3  12  144.11   16.23
  -2   3  11   55.01    9.05
  -2  -3  11   70.12   11.38
  -2  -3  11   59.46   12.33
  -2  -3  10   99.79   12.15
  -2  -3  10   87.94   12.70
  -2   3  10   81.56   10.08
  -2  -3  10  107.35   14.01
  -2  -3   9  129.69   15.12
  -2  -3   9  152.47   15.87
  -2  -3   9  123.92   12.02
  -2   3   9  104.18   10.80
  -2  -3   8   51.82    8.42
  -2  -3   8   48.10    8.97
  -2   3   8   41.51    6.40
  -2  -3   8   44.37    7.00
  -2  -3   7   11.47    3.73
  -2  -3   7   12.66    3.35
  -2   3   7   10.43    2.90
  -2  -3   7    9.60    4.13
  -2  -3   6 1421.64   45.33
   2   3  -6 1187.91   40.33
  -2  -3   6 1770.64   43.23
  -2   3   6 1500.09   34.34
  -2  -3   6 1747.05   36.60
  -2  -3   5    1.99    0.53
   2   3  -5    1.91    1.61
  -2   3   5    3.07    1.87
  -2  -3   5    1.97    1.56
  -2   3   5    2.66    2.03
  -2  -3   4  286.50   14.02
  -2   3   4  293.93   15.44
   2   3  -4  286.30   16.17
  -2  -3   4  273.63   18.39
  -2  -3   4  324.25   12.66
  -2   3   3    9.48    2.51
  -2  -3   3    6.54    2.56
  -2  -3   3   13.08    2.22
  -2   3   3    7.98    2.10
   2   3  -3    8.60    2.08
   2   3  -3    8.85    2.63
  -2  -3   3   10.04    2.60
   2  -3  -3    9.80    2.79
   2   3  -2  843.46   17.08
  -2   3   2  752.32   19.84
  -2  -3   2  709.63   18.80
  -2  -3   2  614.67   18.30
  -2  -3   2  811.04   14.60
   2   3  -2  618.20   22.29
  -2  -3   2  591.67   25.02
  -2   3   2  681.08   21.62
   2  -3  -2  661.04   21.85
  -2   3   1 1532.37   26.47
   2  -3  -1 1592.61   34.19
  -2  -3   1 1454.21   37.90
  -2  -3   1 1480.07   26.62
   2  -3  -1 1638.56   31.68
   2   3  -1 1563.24   34.77
  -2  -3   0   12.17    1.24
  -2  -3   0    6.91    2.61
   2   3   0   10.66    2.05
  -2  -3   0   10.65    1.45
   2  -3   0    8.47    2.35
   2   3   0    9.25    2.44
   2   3   1  732.59   21.80
  -2  -3  -1  638.05   15.39
   2  -3   1  753.77   23.18
   2   3   1  658.10   21.41
   2   3   1  801.90   14.20
  -2  -3  -2 1166.17   28.26
   2   3   2 1509.73   26.81
   2  -3   2 1343.56   30.46
   2   3   2 1408.29   31.40
  -2  -3  -2 1676.90   27.72
   2   3   2 1456.90   30.00
   2   3   3  632.88   21.55
   2  -3   3  640.22   23.23
   2   3   3  635.65   21.47
   2   3   3  649.81   18.57
   2  -3   4   40.46    6.11
   2   3   4   42.85    5.85
   2   3   4   41.01    5.16
   2   3   4   42.53    5.78
   2  -3   5   16.80    4.21
   2   3   5   19.25    4.06
  -2   3  -5   23.50    4.99
   2   3   5   19.67    3.73
   2  -3   5   22.61    4.86
   2  -3   6   58.43    8.13
   2   3   6   53.95    7.06
  -2  -3  -6   51.20    6.97
   2  -3   6   50.77    8.00
   2   3   6   50.83    6.38
  -2  -3  -7 1095.70   35.21
   2   3   7 1108.51   32.70
   2   3   7 1041.77   33.84
   2   3   8   14.32    4.09
  -2  -3  -8   14.56    4.27
   2   3   8   14.54    4.55
   2  -3   8   14.75    4.93
   2  -3   9   23.06    6.64
  -2  -3  -9    9.53    3.69
   2   3   9   13.09    4.39
   2   3   9   14.84    3.94
   2   3  10   32.55    6.76
   2  -3  10   43.54    9.14
   2   3  10   13.81    4.30
  -2  -3 -10   29.76    6.77
   2  -3  11   69.26   12.97
   2   3  11   50.05    8.79
   2  -3  12  105.57   17.07
   2   3  12   77.30   12.27
   2   3  13   26.77    7.75
   2  -3  13   26.17   10.10
   2   3  14    7.12    4.49
   2  -3  14    9.79    6.28
  -2   4  14   -1.16    1.91
  -2  -4  14   -3.24    0.23
  -2  -4  13    3.69    3.32
  -2  -4  13   12.11    5.97
  -2   4  13    8.85    5.29
  -2  -4  12    3.21    3.05
  -2   4  12    2.42    1.40
  -2  -4  12    2.25    3.06
  -2   4  11  324.93   22.88
  -2  -4  11  257.92   24.70
  -2  -4  10   56.95   10.55
  -2   4  10   48.11    8.11
  -2  -4  10   55.54   10.37
  -2  -4   9    7.41    3.03
  -2   4   9    6.16    2.34
  -2  -4   9    7.98    3.23
  -2  -4   9    5.27    4.01
  -2  -4   8   91.77   12.64
  -2  -4   8  129.06   14.30
  -2   4   8   96.32    9.89
  -2  -4   8   93.56   11.24
  -2   4   7  246.24   15.21
  -2  -4   7  287.17   21.78
   2   4  -7  226.41   18.38
  -2  -4   7  324.71   21.56
  -2  -4   7  283.06   17.48
  -2  -4   6  402.63   22.25
   2   4  -6  299.33   19.07
  -2   4   6  360.35   17.39
  -2  -4   6  359.52   18.04
  -2   4   6  339.31   20.69
  -2  -4   6  344.80   23.22
  -2  -4   5  808.07   34.61
  -2   4   5  885.27   26.25
   2   4  -5  778.00   29.83
  -2  -4   5  825.27   29.06
  -2  -4   5  756.82   24.03
  -2   4   5  834.26   31.46
   2  -4  -5  817.59   30.67
  -2  -4   4   61.67    7.41
  -2  -4   4   63.46    9.47
  -2   4   4   60.96    6.54
   2  -4  -4   62.37    7.97
   2   4  -4   57.91    7.43
  -2   4   4   53.75    6.98
  -2  -4   4   73.98    6.46
   2   4  -4   41.06    5.54
  -2  -4   3 1625.38   36.21
   2   4  -3 1659.05   28.41
  -2   4   3 1504.93   30.41
  -2  -4   3 1513.90   35.26
  -2  -4   3 1367.50   42.37
   2   4  -3 1411.05   37.53
   2  -4  -3 1571.35   40.33
  -2   4   3 1430.02   35.04
  -2  -4   3 1522.16   26.33
  -2  -4   2   12.14    1.64
   2   4  -2   22.98    4.82
  -2   4   2   27.84    3.90
  -2  -4   2   24.99    4.29
  -2  -4   2   24.00    5.58
   2  -4  -2   29.64    5.69
  -2   4   2   25.26    4.44
  -2  -4   2   28.84    4.02
  -2   4   1  119.47    8.28
  -2  -4   1   99.18    7.83
   2   4  -1   94.71    9.09
   2  -4  -1   98.63    8.58
   2   4   0  608.27   22.51
   2  -4   0  650.27   22.54
   2   4   1   25.95    4.71
   2   4   1   31.49    5.00
   2   4   1   31.83    4.07
   2  -4   1   33.41    5.21
  -2  -4  -2 1190.08   29.87
   2   4   2 1053.15   28.97
   2  -4   2 1163.31   32.98
   2   4   2 1034.91   26.46
   2   4   3  392.20   18.84
   2   4   3  422.37   18.83
  -2  -4  -3  458.56   18.66
   2  -4   3  437.50   20.18
   2   4   3  384.03   14.83
   2   4   4  111.67    8.67
  -2  -4  -4  115.24    9.59
   2   4   4  119.65   10.97
   2  -4   4  107.32   11.16
   2   4   5  200.74   14.60
   2  -4   5  171.47   14.95
   2   4   5  210.07   15.11
   2   4   5  195.04   12.07
   2   4   6  113.43   11.45
   2   4   6   98.71    9.33
   2  -4   6   94.99   12.19
   2   4   7   23.67    5.56
   2  -4   7   29.84    7.01
   2   4   7   27.03    5.45
   2  -4   7   28.50    6.91
   2  -4   8  437.40   29.88
   2   4   8  354.26   20.70
   2   4   8  351.80   22.88
   2  -4   8  380.02   27.50
   2  -4   9    4.07    2.32
   2   4   9    5.71    3.47
   2   4   9    1.21    2.85
   2  -4   9    6.97    4.42
   2  -4  10  170.85   20.82
   2   4  10  129.56   16.60
   2   4  10  147.27   15.04
   2   4  11   -0.92    2.07
   2  -4  11    7.69    4.37
   2   4  11    7.15    2.05
   2  -4  12   44.67   12.35
   2   4  12   37.40    8.66
   2   4  13   24.50    7.68
   2  -4  13   34.07   12.10
   2  -4  14    0.78    1.68
   2   4  14    2.71    0.32
  -2   5  13    4.92    2.25
  -2  -5  13   -2.60    4.69
  -2   5  12   35.64    8.55
  -2  -5  12   64.37   15.88
  -2  -5  11   59.22   14.21
  -2   5  11   42.46    8.58
  -2   5  10   25.94    5.74
  -2  -5  10   34.41    9.66
  -2  -5  10    9.99    4.93
  -2  -5   9   30.80    8.02
  -2   5   9   36.05    7.28
  -2  -5   9   58.93   11.58
  -2  -5   9   35.61    7.84
  -2   5   8   12.65    3.93
  -2  -5   8   11.04    3.98
  -2  -5   8   14.17    5.71
  -2  -5   8   21.67    6.92
   2  -5  -8   15.86    5.61
  -2   5   7   11.05    3.35
   2  -5  -7   13.79    4.35
  -2  -5   7   13.22    4.63
  -2  -5   7    9.55    3.47
  -2  -5   7   16.96    4.91
   2   5  -7    9.00    3.57
  -2   5   7   11.53    4.82
  -2  -5   6  649.78   30.40
  -2  -5   6  417.88   22.71
   2   5  -6  434.87   24.78
  -2   5   6  500.17   21.46
  -2  -5   6  573.10   31.66
   2  -5  -6  646.72   33.63
  -2   5   6  628.47   31.23
  -2  -5   6  468.28   29.47
  -2  -5   5   11.58    3.85
  -2  -5   5   13.37    4.35
   2   5  -5   15.00    4.97
  -2  -5   5   17.57    4.78
   2  -5  -5   20.45    5.22
  -2   5   5   13.58    4.39
  -2   5   5   17.32    5.62
  -2  -5   5   13.26    4.12
  -2  -5   4  231.76   16.26
   2   5  -4  211.01   11.52
   2  -5  -4   93.07    5.18
  -2  -5   4   84.35    7.98
  -2   5   4  214.43   12.92
   2   5  -4  192.51   15.57
   2  -5  -4  233.93   18.58
  -2  -5   4  217.77   15.74
  -2   5   4  195.45   15.21
  -2  -5   3   15.75    3.73
  -2   5   3   15.53    3.98
   2   5  -3   15.95    4.18
   2  -5  -3   16.73    4.85
   2  -5  -3    7.28    1.68
  -2   5   3   16.47    3.38
  -2  -5   3   18.90    4.02
  -2   5   2  426.76   16.64
   2   5  -2  380.23   20.76
  -2  -5   2  443.40   20.72
  -2  -5   2  384.38   17.89
  -2   5   2  438.03   22.63
  -2  -5   1  657.36   23.44
  -2   5   1  669.62   20.99
   2   5  -1  606.52   25.47
   2  -5  -1  631.74   24.66
  -2   5   0   27.28    4.15
   2   5   0   25.90    5.34
  -2  -5   0   30.00    4.62
   2  -5   0   32.84    5.99
   2   5   1  183.52   13.86
   2  -5   1  172.68   13.52
   2   5   1  142.70   11.10
   2   5   2  460.54   20.54
  -2  -5  -2  421.18   10.27
   2   5   3  169.58    9.89
  -2  -5  -3  185.67   11.98
   2  -5   3  213.27   16.77
  -2  -5  -3  216.30   15.54
   2   5   3  194.45   14.23
  -2  -5  -4   33.11    6.47
   2  -5   4   28.05    6.18
   2   5   4   31.18    5.79
   2   5   4   26.44    4.18
   2  -5   5    2.32    1.36
   2   5   5    1.13    0.96
  -2  -5  -5    0.35    1.29
   2   5   5    1.06    0.43
   2  -5   6   13.77    4.56
   2   5   6   17.65    5.02
   2   5   6   18.55    3.47
  -2  -5  -6   20.77    5.61
   2   5   6   17.15    4.42
   2   5   7  589.11   30.72
   2  -5   7  550.60   33.95
   2   5   7  485.35   23.64
   2   5   8   -0.44    1.77
   2   5   8    1.06    2.67
   2  -5   8   -0.19    1.41
   2  -5   9    0.47    1.62
   2   5   9    0.40    1.82
   2   5   9    4.11    1.35
   2  -5   9    0.01    3.02
   2   5  10   30.22    7.30
   2   5  10   23.27    7.70
   2  -5  10   41.74   11.05
   2  -5  10   28.92    9.95
   2   5  11   17.37    5.54
   2  -5  11   26.93   11.28
   2   5  11   12.81    6.12
   2  -5  11   33.83   11.05
   2  -5  12   16.49    7.90
   2   5  12   29.03    8.58
   2  -5  12   23.04    9.87
   2  -5  13   15.70    9.27
   2   5  13    9.59    3.11
  -2  -6  13    0.62    2.07
  -2   6  13   -0.65    1.53
  -2   6  12    5.51    1.89
  -2  -6  12   -0.10    2.82
  -2  -6  11  175.89   24.53
   2  -6 -11   71.77   18.86
  -2   6  11  131.90   16.76
  -2  -6  11   42.22   14.60
   2  -6 -10    9.92    6.25
  -2   6  10   14.47    4.42
  -2  -6  10   15.82    6.29
  -2  -6  10    3.17    3.08
  -2   6   9    8.09    3.40
  -2  -6   9    3.02    2.46
   2  -6  -9    8.42    6.84
  -2  -6   9    1.43    1.28
  -2  -6   8   84.76   13.50
   2  -6  -8   85.40   15.68
  -2   6   8   68.86    9.86
  -2   6   7  103.88   11.33
  -2   6   7  114.33   15.71
  -2  -6   7  133.25   16.23
   2  -6  -7  139.21   19.30
   2   6  -6   78.86   11.37
  -2  -6   6  124.36   14.84
   2  -6  -6  113.85   16.62
  -2   6   6   93.38    9.85
  -2  -6   6   57.04   11.16
  -2   6   6  104.61   14.75
  -2   6   5  283.20   16.39
   2  -6  -5  387.91   29.34
  -2   6   5  296.61   21.71
   2   6  -5  228.61   18.77
  -2  -6   5  357.33   24.16
  -2  -6   5  228.51   20.37
  -2   6   4   14.26    3.82
  -2  -6   4   26.03    6.00
  -2  -6   4   14.95    4.55
   2  -6  -4   26.23    7.19
  -2   6   4   21.69    6.06
   2   6  -4   22.17    5.84
   2   6  -3  397.46   24.20
  -2   6   3  423.33   18.84
  -2  -6   3  363.06   22.10
  -2   6   3  436.96   24.93
  -2  -6   2   16.52    4.61
  -2  -6   2   10.61    3.41
  -2   6   2   15.30    4.67
   2   6  -2   10.74    3.58
  -2   6   2   13.95    3.08
  -2  -6   1    7.37    2.57
   2   6  -1    7.56    3.36
  -2   6   1    7.24    2.47
  -2   6   1    7.36    2.83
  -2  -6   1    9.53    2.97
  -2   6   0  242.29   13.85
   2   6   0  231.93   16.76
   2   6   0  218.10   17.03
   2  -6   0  267.74   19.12
  -2   6  -1   38.12    5.30
   2   6   1   42.06    7.37
   2  -6   1   43.02    7.43
   2  -6   2  507.05   27.94
   2   6   2  465.47   24.21
   2   6   3  175.70   15.21
   2  -6   3  220.05   20.63
  -2  -6  -4   59.05   10.10
   2   6   4   75.90   10.22
   2  -6   4   89.23   12.83
   2   6   5   95.93   12.28
   2  -6   5   94.16   13.47
  -2  -6  -5   63.51   11.25
  -2  -6  -6   13.34    5.61
   2   6   6   26.10    6.70
   2  -6   6   20.91    6.52
  -2  -6  -7    1.84    2.12
   2   6   7    6.61    3.21
   2  -6   7    4.56    4.28
   2   6   8  146.96   18.25
   2  -6   8  151.56   21.60
  -2  -6  -9    1.33    1.43
   2  -6   9    1.73    2.86
   2   6   9    7.37    5.18
   2   6  10   50.52   12.45
  -2  -6 -10   22.66    9.80
   2  -6  10   61.70   17.06
   2   6  11    0.91    3.92
   2  -6  11    1.63    3.22
  -2  -7  10    7.73    4.41
   2  -7 -10    0.68    2.56
  -2  -7   9   25.56    9.13
   2  -7  -9   13.37    8.55
  -2   7   8    7.42    4.88
  -2  -7   8    4.55    2.20
   2  -7  -8    6.05    5.83
  -2  -7   7    3.49    4.21
   2  -7  -7    2.36    3.21
  -2   7   7    3.94    3.12
  -2  -7   6  244.92   24.58
  -2   7   6  211.79   23.05
   2   7  -5    3.32    1.44
  -2  -7   5    9.28    3.34
   2  -7  -5   10.90    6.47
  -2   7   5    5.00    1.96
   2   7  -4   53.50   10.50
  -2   7   4   69.41   11.21
  -2  -7   4   79.30   12.57
   2   7  -3    4.97    2.94
  -2  -7   3    9.92    4.44
  -2   7   3    7.50    3.65
  -2   7   2  133.95   16.55
   2   7  -2  100.52   13.25
  -2  -7   2  147.61   15.35
  -2  -7   1  239.95   18.96
   2   7  -1  191.27   17.77
   2  -7  -1  201.04   18.95
  -2   7   1  211.82   19.10
   2   7   0    2.66    2.26
   2   7   0    2.17    2.32
   2  -7   0    4.49    3.94
   2   7   1   36.08    7.53
   2  -7   1   42.39    8.65
   2   7   1   42.66    8.72
   2   7   2  157.49   15.80
   2  -7   2  190.48   19.59
   2   7   3   62.61    9.95
   2  -7   3   80.62   13.39
   2  -7   4   22.63    6.83
   2   7   4   10.84    3.86
   2  -7   5    0.78    2.43
   2   7   5    0.24    1.16
   2   7   6   10.18    4.67
  -2  -7  -6    5.67    4.60
   2  -7   6   12.98    6.75
   2   7   6   10.68    4.08
   2   7   7  187.03   20.21
   2   7   7  213.87   23.06
   2  -7   7  166.72   23.33
  -2  -7  -8   -1.61    4.43
   2   7   8   -0.59    2.28
   2  -7   8    1.66    3.99
   2   7   9   -0.83    0.51
   2  -7   9   -0.87    3.18
   2   7  10    5.83    5.71
   2  -7  10    8.35    5.96
   2   7  11    7.27    6.19
  -2  -8   8    9.95    6.05
   2  -8  -8    6.89    6.28
  -2  -8   7   15.76    7.93
   2  -8  -7   17.28   10.38
  -2   8   7   23.45   10.35
  -2  -8   6   21.52    8.60
  -2   8   6   47.52   12.01
  -2  -8   5   52.16   12.62
   2   8  -5   26.25    7.85
  -2   8   5   65.11   13.32
  -2  -8   4    2.90    1.95
   2   8  -4   -0.58    0.31
  -2   8   4   -0.30    2.04
   2   8  -3  132.10   17.27
  -2  -8   3   91.06   15.02
   2   8  -2    3.76    2.76
  -2  -8   2    0.36    2.52
  -2   8   2    3.28    1.92
   2   8  -1    8.73    3.87
   2   8  -1    9.16    3.93
  -2   8   1    8.37    3.38
   2   8   0   83.32   13.13
  -2   8   0   93.50   14.10
   2   8   0   91.75   13.89
   2  -8   1    4.07    5.07
   2   8   1    7.92    3.49
   2   8   1    6.73    3.94
   2   8   2   76.75   12.84
   2   8   2   97.42   14.00
   2  -8   2   80.81   15.76
   2  -8   3   34.46   10.39
   2   8   3   40.44    9.41
   2   8   3   29.38    7.72
   2   8   4   11.91    5.42
   2  -8   4   11.93    4.74
   2   8   4   15.02    4.94
   2  -8   5   25.17    9.73
   2   8   5   34.24    9.77
   2   8   5   29.26    8.31
   2  -8   6    8.68    6.08
   2   8   6    8.72    3.72
   2   8   6    3.99    1.32
   2  -8   7    0.51    1.85
   2   8   7    2.07    3.65
   2   8   7   -4.51    5.29
   2  -8   8   25.33   12.12
   2   8   8   27.62   10.38
   2  -8   9    0.48    1.90
  -2  -9   5    0.96    3.44
  -2  -9   4   14.06    7.53
   2   9  -4    4.66    3.53
  -2   9   4   12.25    7.77
  -2  -9   3    0.65    3.53
  -2   9   3    3.50    3.24
   2   9  -3   -1.36    2.92
  -2  -9   2    7.17    5.75
   2   9  -2   17.00    6.17
   2   9  -2   21.21    8.03
  -2   9   2   18.73    8.10
   2   9  -1   45.88   11.25
   2   9  -1   55.09   12.97
  -2   9   1   55.13   14.94
   2   9   0    0.69    1.20
  -2   9   0   -1.47    3.69
   2   9   0    5.01    4.84
  -2   9  -1    6.78    4.12
   2   9   1   11.43    5.85
   2   9   1   11.45    6.60
   2   9   2   27.59    8.81
   2  -9   2   21.31    8.75
   2   9   2   28.17    8.54
   2   9   3   32.13    9.58
   2  -9   3   14.54    8.33
   2  -9   3   21.82   10.90
   2   9   3   15.42    6.50
   2   9   4    1.03    0.59
   2  -9   4    4.08    5.16
   2   9   4   -1.16    2.80
   2  -9   5    3.43    4.77
   2  -9   6    4.67    5.61
   2  -9   7   27.40   13.49
   2  10  -3   12.69    7.00
  -3   0  14  137.30   18.03
  -3   0  13   41.03    8.70
  -3   0  12    2.57    2.72
  -3   0  12    4.97    1.93
  -3   0  11   10.57    4.15
  -3   0  11   10.67    3.44
  -3   0  10  203.71   14.79
  -3   0  10  213.79   15.92
  -3   0   9  863.61   28.20
  -3   0   9  798.79   28.40
  -3   0   8  157.99   10.82
  -3   0   8  151.80   11.50
  -3   0   7  135.50   10.10
  -3   0   7  140.55    9.30
   3   0  -7  125.83    8.28
   3   0  -6  541.56   17.83
  -3   0   6  520.96   16.81
  -3   0   6  533.26   19.33
  -3   0   5  878.78   22.98
   3   0  -5  940.38   24.64
  -3   0   4  220.18   10.67
  -3   0   3  112.82    7.33
  -3   0   3   88.76    6.42
  -3   0   2  201.85   10.65
   3   0  -2  196.42    6.84
  -3   0   1 4832.07   56.42
   3   0  -1 4780.38   36.92
  -3   0   1 4783.41   44.19
   3   0   0   11.18    1.99
  -3   0   0    6.09    2.02
  -3   0   0    7.92    1.75
  -3   0  -1   79.94    8.02
   3   0   1  115.33    6.75
   3   0   2  576.48   17.21
   3   0   3  153.19    9.81
  -3   0  -4 1727.17   30.89
   3   0   4 1521.80   35.67
   3   0   5  779.25   26.12
   3   0   6  302.11   17.57
   3   0   7  448.97   22.12
   3   0   8  204.39   15.34
   3   0   9  101.44   11.26
   3   0  10  171.59   15.90
   3   0  11    2.19    1.78
   3   0  12  276.58   22.94
   3   0  13   27.55    7.54
   3   0  14    5.73    3.71
  -3   1  14   68.71   12.40
  -3  -1  14   66.04   13.66
  -3  -1  13  192.80   20.95
  -3   1  13  165.85   17.88
  -3   1  12    4.39    2.36
  -3  -1  12    6.31    3.90
  -3  -1  12    5.16    2.70
  -3   1  11  104.63   11.98
  -3  -1  11  132.55   14.21
  -3  -1  11  122.55   14.01
  -3  -1  10  184.95   14.99
  -3  -1  10  150.48   13.95
  -3   1  10  151.51   10.88
  -3   1  10  167.62   13.67
  -3  -1   9    1.59    0.50
  -3   1   9    2.78    1.91
  -3  -1   9    2.35    1.48
  -3   1   8  267.63   14.84
  -3  -1   8  303.14   16.88
  -3  -1   8  283.04   16.18
  -3  -1   7   -0.46    0.16
  -3  -1   7    2.61    1.60
  -3   1   7    2.64    1.07
  -3  -1   6 1565.52   32.68
  -3  -1   6 1555.51   32.53
  -3  -1   5   86.64    7.13
  -3   1   5   88.66    7.87
  -3  -1   5   80.02    6.60
   3  -1  -5   79.52    8.42
  -3   1   4  876.44   21.69
  -3  -1   4 1213.63   26.53
  -3  -1   4  942.87   21.75
   3  -1  -4  894.47   25.66
   3  -1  -4 1219.41   35.92
  -3   1   4 1286.05   22.77
  -3   1   3  529.70   16.30
  -3  -1   3  512.87   15.17
   3  -1  -3  497.85   18.17
  -3   1   2  511.18   15.34
   3  -1  -2  567.45   15.93
  -3  -1   2  555.42   16.77
  -3  -1   1  755.29   17.53
  -3  -1   1  788.61   21.84
  -3   1   1  676.14   13.40
   3  -1  -1  766.89   18.73
  -3  -1   1  613.14   16.11
   3  -1  -1  721.00   18.18
  -3   1   1  606.18   16.29
   3   1   0 3855.94   31.01
  -3  -1   0 2950.10   33.84
  -3  -1   0 3790.26   51.49
   3   1   0 2540.82   57.51
  -3   1   0 2441.33   41.69
   3   1   0 3701.42   30.46
   3  -1   0 3266.70   39.54
   3  -1   1    0.65    0.63
   3   1   1   -1.38    2.49
  -3  -1  -1    1.55    1.04
  -3  -1  -1    2.28    1.19
   3   1   1    1.26    0.69
   3   1   2 1763.88   45.13
  -3  -1  -2 1407.99   35.23
   3   1   2 1531.68   25.55
   3  -1   2 1521.48   30.46
  -3  -1  -2 1788.66   38.38
  -3  -1  -3  163.72   11.03
   3   1   3  177.32   13.91
  -3  -1  -3  113.81   10.81
   3  -1   3  112.56    8.86
   3   1   4  390.95   17.77
  -3  -1  -4  426.32   16.99
   3  -1   4  436.19   18.99
   3  -1   5 1222.20   35.19
   3   1   5 1342.75   40.38
   3  -1   6    2.25    1.79
   3   1   6   -0.94    1.69
   3   1   6    4.26    2.95
   3  -1   7  185.43   14.89
  -3   1  -7  223.26   17.97
   3   1   7  184.97   16.46
   3   1   7  172.46   13.43
   3  -1   8  405.35   23.28
   3   1   8  361.90   20.81
   3  -1   9  240.85   18.56
   3   1   9  241.17   17.75
  -3  -1  -9  286.54   26.56
   3  -1  10    0.04    1.26
  -3  -1 -10    1.42    2.24
   3   1  10    0.22    1.10
   3  -1  11   31.87    7.40
  -3  -1 -11   29.51    9.45
   3   1  11   28.59    6.61
   3  -1  12    1.52    1.79
   3   1  12    2.04    1.25
   3  -1  13   71.83   13.44
   3   1  13   71.55   12.36
   3   1  14   -4.72    2.22
   3  -1  14    2.91    3.55
  -3  -2  14   72.29   15.24
  -3   2  14  101.36   15.55
  -3  -2  14   67.36   14.02
  -3  -2  13   20.53    7.17
  -3  -2  13   26.67    8.46
  -3   2  13   21.54    6.75
  -3   2  12    9.00    4.23
  -3  -2  12    8.04    3.50
  -3  -2  12    6.82    3.97
  -3  -2  11   23.84    6.57
  -3   2  11   14.08    4.18
  -3  -2  11   24.27    6.43
  -3   2  10  101.00   10.89
  -3  -2  10  137.39   14.46
  -3  -2  10  130.76   14.37
  -3  -2   9  936.19   35.01
  -3  -2   9  861.31   31.81
  -3   2   8   57.54    7.12
  -3  -2   8   64.22    8.40
  -3  -2   8   64.00    8.17
  -3  -2   7  121.91    9.78
  -3   2   7  132.48   11.12
  -3  -2   7  113.02   10.28
  -3   2   6  633.50   21.55
  -3  -2   6  642.37   20.80
  -3  -2   6  632.06   22.96
  -3  -2   5  786.96   23.84
  -3   2   5  791.81   23.75
  -3   2   4   72.48    6.42
   3  -2  -4   61.30    5.38
  -3  -2   4   77.64    6.70
  -3   2   3  179.89   10.13
  -3  -2   3  234.47   10.40
   3   2  -3  152.17   14.85
  -3  -2   3  167.06    9.14
   3  -2  -3  176.04   10.49
  -3   2   3  217.73   11.64
  -3   2   2  202.76   10.59
   3   2  -2  182.95   14.66
  -3   2   2  192.32    9.79
   3  -2  -2  199.46   10.90
   3  -2  -1 3022.68   44.99
   3   2  -1 2376.27   49.85
   3  -2  -1 2724.75   39.89
  -3  -2   1 3076.98   33.06
  -3  -2   1 2041.65   49.00
  -3  -2   1 2825.37   24.45
  -3   2   1 2492.83   36.29
   3  -2   0   15.29    2.97
  -3  -2   0   15.91    3.89
   3   2   0   15.40    3.59
  -3  -2   0   16.28    3.10
   3   2   0   19.38    2.92
   3  -2   1    2.10    1.26
   3   2   1    0.52    0.67
  -3  -2  -1    1.56    1.69
  -3  -2  -1    2.83    2.01
  -3  -2  -1    2.41    1.74
   3   2   1    0.56    0.48
  -3  -2  -2  328.26   17.08
  -3  -2  -2  292.13   16.48
   3   2   2  378.24   15.44
   3   2   2  324.87   17.11
   3  -2   2  239.83   12.55
  -3  -2  -3  241.28   14.56
   3   2   3  260.60   15.82
  -3  -2  -3  243.93   15.69
   3  -2   3  206.89   12.72
   3   2   4 1530.68   35.13
  -3  -2  -4 1601.42   43.76
   3   2   5  636.74   23.68
  -3  -2  -5  585.84   28.27
   3  -2   6  176.38   14.79
   3   2   6  173.36   13.87
  -3  -2  -6  138.76   14.48
   3  -2   6  150.57   13.14
   3   2   6  178.16   12.94
   3  -2   7  473.35   25.52
   3   2   7  493.44   24.35
   3   2   7  439.32   21.59
   3  -2   8  127.71   13.86
   3   2   8  134.13   13.78
   3   2   8  121.20   12.26
   3  -2   9   71.74   10.70
  -3  -2  -9   45.44   10.05
   3   2   9   33.73    7.73
   3   2   9   61.19    9.03
  -3  -2 -10   91.34   15.07
   3   2  10   98.52   14.64
   3   2  10  127.41   13.84
  -3  -2 -11   -1.54    3.63
   3  -2  11    7.13    4.12
   3   2  11    2.96    2.42
   3  -2  12  308.80   27.96
   3   2  12  234.84   22.16
   3  -2  13   13.12    5.92
   3   2  13   13.61    5.27
   3   2  14    5.17    5.07
   3  -2  14   -2.45    1.19
  -3  -3  15    7.58    5.80
  -3  -3  14   30.32   10.72
  -3  -3  14   53.54   14.09
  -3   3  14   26.04    8.50
  -3   3  13  115.48   15.80
  -3  -3  13  139.65   20.60
  -3  -3  13   83.36   15.26
  -3  -3  12   -0.90    1.37
  -3   3  12   -1.53    1.65
  -3  -3  12   -4.95    0.93
  -3  -3  11  114.99   15.71
  -3   3  11   95.45   12.02
  -3  -3  11  124.83   15.64
  -3  -3  10   94.44   12.50
  -3  -3  10  102.04   14.01
  -3   3  10   73.36    9.48
  -3   3   9    8.22    2.35
  -3  -3   9    8.01    3.69
  -3  -3   9    8.69    3.76
  -3   3   8  142.83   11.99
  -3  -3   8  168.59   14.95
  -3  -3   8  172.64   14.16
  -3  -3   7    6.77    2.39
  -3  -3   7    7.06    2.55
  -3   3   7    7.30    2.90
  -3  -3   6 1053.64   32.03
  -3  -3   6  969.24   27.18
  -3   3   6 1006.92   28.91
  -3  -3   5   11.17    2.88
  -3  -3   5   10.87    4.42
   3   3  -5    8.92    3.64
  -3   3   5   11.99    3.18
   3  -3  -5    6.55    1.30
  -3  -3   5   11.44    3.32
  -3   3   5   11.62    3.31
  -3  -3   4  431.71   26.23
  -3   3   4  535.23   19.02
   3   3  -4  456.48   24.74
  -3  -3   4  546.69   17.06
  -3  -3   4  490.09   19.03
   3  -3  -4  482.95   20.93
  -3   3   4  517.73   21.21
   3   3  -3  417.99   18.51
  -3   3   3  610.54   19.82
  -3  -3   3  398.02   23.65
   3   3  -3  476.14   23.71
  -3  -3   3  469.92   17.34
  -3   3   3  485.28   18.48
  -3  -3   3  675.77   18.28
   3  -3  -3  485.82   19.79
  -3   3   2  495.49   17.83
  -3  -3   2  365.49   21.85
  -3  -3   2  579.36   15.08
   3   3  -2  414.85   20.76
  -3   3   2  497.11   19.03
   3  -3  -2  468.30   19.54
  -3   3   1  233.57   12.08
  -3  -3   1  197.37   15.69
   3   3  -1  221.87   15.08
   3  -3  -1  217.67   12.20
  -3  -3   0 1964.10   42.18
  -3  -3   0 2103.42   48.64
   3   3   0 2444.25   37.97
   3   3   0 2384.76   47.92
   3  -3   0 2282.59   39.78
  -3  -3   0 2782.90   30.43
   3  -3   1    4.83    2.14
  -3  -3  -1    2.97    0.99
   3   3   1    3.07    1.55
   3   3   1    5.43    1.84
  -3  -3  -1    0.89    0.24
  -3  -3  -2  593.92   24.92
   3   3   2  671.00   24.91
   3   3   2  678.99   21.23
   3  -3   2  619.31   22.62
  -3  -3  -3   37.67    5.95
   3   3   3   39.03    6.12
   3   3   3   43.19    5.85
   3  -3   3   33.41    5.13
  -3  -3  -4  210.91   15.21
   3   3   4  193.27   12.85
   3   3   4  216.01   14.92
   3  -3   4  173.99   13.30
  -3  -3  -5  670.97   29.55
   3   3   5  631.76   26.47
   3   3   6    3.13    1.76
  -3  -3  -6    2.56    1.61
  -3   3  -6    1.33    0.93
   3   3   6    3.76    1.96
   3  -3   6    1.14    1.14
   3  -3   7  187.74   16.73
   3   3   7  188.89   16.02
  -3  -3  -7  176.10   17.85
   3  -3   7  153.21   15.10
   3   3   7  155.69   13.15
  -3  -3  -8  269.05   23.67
   3  -3   8  284.41   22.96
   3   3   8  226.52   19.07
   3  -3   8  245.10   20.13
   3   3   8  222.10   17.12
   3  -3   9  246.60   22.48
   3   3   9  220.73   21.07
  -3  -3  -9  193.34   21.38
   3  -3   9  187.74   18.22
   3   3   9  206.19   17.21
   3  -3  10    4.28    3.84
   3   3  10    0.87    1.25
   3   3  10    1.81    1.81
  -3  -3 -10    0.99    0.66
   3  -3  11   23.81    8.20
   3   3  11   11.63    4.59
   3  -3  12    0.22    0.92
   3   3  12    0.77    0.39
   3  -3  13   47.27   13.29
   3   3  13   53.45   11.99
   3   3  14    1.38    2.48
  -3  -4  14   43.89   13.52
  -3  -4  14   31.96   12.27
  -3   4  13   12.75    6.23
  -3  -4  13   10.08    5.62
  -3  -4  13    5.07    3.72
  -3  -4  12   11.46    5.94
  -3   4  12    6.67    3.15
  -3  -4  12   -0.53    2.31
  -3  -4  11    9.47    4.81
  -3   4  11    7.91    3.14
  -3  -4  11    9.99    5.30
  -3  -4  10  101.81   14.78
  -3   4  10   71.32   10.16
  -3  -4  10   64.69   10.90
  -3  -4  10   70.59   12.95
  -3  -4   9  402.19   30.76
  -3   4   9  416.95   23.32
  -3  -4   9  352.82   23.79
  -3   4   8   27.35    5.50
  -3  -4   8   28.41    7.81
  -3  -4   8   33.51    7.10
  -3  -4   8   21.55    5.55
  -3  -4   7   50.52   10.04
  -3   4   7   46.77    7.58
  -3  -4   7   56.18    8.65
  -3  -4   7   50.79    7.54
  -3  -4   6  318.98   24.82
  -3   4   6  364.40   18.57
  -3  -4   6  358.52   20.42
  -3  -4   6  327.07   17.81
   3  -4  -6  337.64   21.29
  -3   4   6  356.52   21.90
  -3  -4   5  392.61   27.40
  -3   4   5  405.51   19.34
   3   4  -5  311.42   21.30
  -3  -4   5  373.83   19.70
   3  -4  -5  422.32   22.75
  -3   4   5  392.90   21.78
  -3  -4   5  464.36   19.43
  -3  -4   4   61.62   10.56
  -3   4   4   59.06    6.92
  -3  -4   4   50.63    5.69
   3   4  -4   51.35    8.34
  -3  -4   4   55.01    7.18
   3  -4  -4   60.54    8.18
  -3   4   4   53.61    7.17
  -3  -4   3   58.72    5.31
  -3  -4   3   67.19   10.37
  -3   4   3   70.88    7.19
   3   4  -3   76.21    9.72
  -3  -4   3   70.29    7.55
   3  -4  -3   75.61    9.27
  -3   4   3   63.28    7.70
  -3  -4   3   53.32    6.59
  -3   4   2   84.02    7.88
  -3  -4   2   73.87   10.50
   3   4  -2   74.07    9.49
  -3  -4   2   42.38    3.70
  -3  -4   2   70.52    7.36
  -3   4   2   78.18    8.58
   3  -4  -2   81.96    9.58
  -3  -4   2   33.96    3.74
  -3   4   1 1402.67   30.85
  -3  -4   1  891.79   21.30
  -3  -4   1 1266.08   42.25
   3   4  -1 1365.99   38.49
   3   4  -1  838.15   22.52
   3  -4  -1 1502.33   36.35
   3   4   0   21.92    4.45
   3   4   0   24.06    4.23
  -3  -4   0   13.97    1.91
  -3  -4   0   26.30    5.72
   3  -4   0   21.87    4.42
  -3  -4   0   15.62    2.52
   3  -4   1    2.52    1.04
   3   4   1   -1.31    2.08
   3   4   1    0.96    1.39
  -3  -4  -1   -1.10    1.17
   3   4   2  215.82   15.32
   3   4   2  201.94   12.90
   3   4   2  188.33    7.28
   3  -4   2  211.07   15.06
   3   4   3  145.05   11.38
  -3  -4  -3  141.50   10.44
   3   4   3  139.97   12.58
   3  -4   3  122.54   11.21
   3  -4   4  731.47   29.66
   3   4   4  787.47   26.95
   3   4   4  835.62   31.90
   3   4   4  835.55   30.51
  -3  -4  -4  780.13   25.87
   3   4   5  299.05   17.17
   3  -4   5  275.38   19.80
   3   4   6   71.48    8.77
   3  -4   6   66.10    9.98
   3   4   6   80.51   10.86
   3   4   7  252.15   20.16
   3  -4   7  224.57   19.59
   3   4   7  208.95   15.91
   3   4   8   73.06   11.25
   3  -4   8   65.06   10.98
   3   4   8   59.42    9.47
   3   4   9   49.27    9.49
   3  -4   9   56.87   11.58
   3  -4   9   45.79   10.04
   3   4   9   37.93    7.58
   3   4  10   67.96   12.55
   3  -4  10   76.94   13.78
   3   4  10   76.65   11.79
   3  -4  11    3.10    2.25
   3  -4  11   -2.68    5.18
   3   4  11    0.27    0.68
   3  -4  12  123.88   22.75
   3  -4  12  160.56   23.40
   3   4  12  117.15   16.34
   3  -4  13    4.92    3.77
   3  -4  13    9.76    5.68
   3   4  13    1.55    3.18
   3   4  14   -0.31    1.63
  -3   5  13   35.35    9.33
  -3  -5  13   56.99   16.29
  -3   5  12   -1.82    2.17
  -3  -5  12   -0.18    1.31
  -3   5  11   42.31    9.07
  -3  -5  11   57.89   12.66
  -3  -5  10   28.60    8.87
  -3  -5  10   56.75   11.42
  -3   5  10   49.68    8.74
  -3   5   9    1.51    1.51
  -3  -5   9   -1.28    2.86
  -3  -5   9    2.49    1.29
   3  -5  -9    4.10    3.49
  -3  -5   8   84.88   14.64
  -3   5   8   69.39    9.27
  -3  -5   8   94.69   12.88
   3  -5  -8  103.78   15.19
   3   5  -7    2.31    1.54
  -3  -5   7    3.21    2.53
  -3  -5   7    4.56    2.90
   3  -5  -7    5.23    3.44
  -3  -5   7    2.64    2.37
  -3   5   7    4.23    2.35
  -3   5   7    2.23    1.13
  -3   5   6  474.09   23.15
   3   5  -6  353.87   24.84
  -3  -5   6  450.07   24.91
  -3  -5   6  417.36   30.42
  -3  -5   6  355.29   21.41
  -3   5   6  424.83   27.48
   3  -5  -6  505.50   29.66
  -3  -5   5   22.30    6.72
   3   5  -5   19.14    5.54
  -3  -5   5   27.11    6.05
  -3   5   5   27.77    5.31
   3  -5  -5   27.57    6.82
  -3  -5   5   20.67    4.57
  -3   5   5   26.23    6.33
  -3  -5   5   16.23    5.03
  -3  -5   4  245.19   21.73
  -3   5   4  285.95   16.18
   3   5  -4  242.79   19.49
  -3  -5   4  261.70   17.53
   3  -5  -4  266.04   20.35
  -3   5   4  241.86   17.54
  -3  -5   4  200.97   12.72
  -3  -5   4  183.71   14.78
  -3   5   3  177.37   12.10
  -3  -5   3  172.46   13.44
   3   5  -3  161.27   15.06
  -3   5   3  172.00   14.08
   3  -5  -3  190.53   17.16
  -3  -5   3  104.65    6.80
  -3  -5   3   78.03    7.89
  -3  -5   3  161.15   17.16
  -3   5   2  135.09   10.61
  -3  -5   2  101.16   13.26
   3   5  -2  113.63   12.24
  -3  -5   2  118.77   10.72
  -3   5   2  110.81   11.90
  -3   5   1  123.44   10.18
   3   5  -1  110.28   12.12
   3  -5  -1  127.19   11.82
  -3   5   0  810.51   26.42
   3   5   0  764.24   27.73
   3  -5   0  831.05   31.86
   3  -5   1    5.66    2.29
   3   5   1    4.96    2.69
   3   5   1    5.13    2.02
   3   5   2  373.78   21.97
   3   5   2  417.81   20.88
   3  -5   2  422.18   24.75
   3  -5   3   31.55    6.28
   3   5   3   28.38    5.80
   3   5   3   28.75    6.01
   3   5   4  113.89   12.52
   3   5   4  114.28   12.25
   3  -5   4  112.23   12.69
   3   5   5  332.39   19.20
   3   5   5  375.74   24.03
  -3  -5  -5  279.06   19.65
   3  -5   5  311.64   22.28
   3   5   5  388.57   23.33
  -3  -5  -6    2.59    2.58
   3   5   6   -1.88    2.88
   3   5   6    0.72    2.89
   3  -5   6   -0.37    2.27
   3   5   7   35.96    7.00
   3   5   7   49.66    9.66
   3  -5   7   46.70    9.83
   3   5   8  132.27   17.30
   3  -5   8  127.34   17.50
   3   5   8  111.07   12.64
   3   5   9  119.52   17.40
   3  -5   9   97.22   16.20
   3   5   9   61.34   10.00
   3   5  10   -0.86    2.01
   3   5  10    0.75    1.58
   3  -5  10   -0.52    3.79
   3   5  11    3.84    4.55
   3   5  11    4.27    3.84
   3  -5  11    9.26    6.83
   3   5  12    0.49    0.80
   3  -5  12    5.34    6.62
  -3   6  12    0.39    2.33
  -3   6  11    1.49    1.78
  -3  -6  11   -0.51    3.80
   3  -6 -11    1.98    3.40
  -3   6  10   43.39    9.11
  -3  -6  10   47.21   11.50
   3  -6 -10   21.60    8.95
  -3   6   9  131.69   14.51
  -3  -6   9  148.92   19.14
   3  -6  -9  160.58   23.69
  -3   6   8   13.21    4.56
  -3  -6   8   12.93    5.99
  -3  -6   8   17.74    5.80
   3  -6  -8   18.94    8.22
  -3   6   7   20.49    3.96
  -3  -6   7   16.73    6.56
   3  -6  -7   29.27    8.90
  -3  -6   7   22.45    6.85
  -3   6   7   23.38    7.20
  -3   6   6   85.13   11.14
   3   6  -6   81.10   12.40
  -3  -6   6  120.04   14.51
   3  -6  -6  129.05   18.31
  -3   6   6  135.12   17.27
   3  -6  -5  165.96   19.08
  -3   6   5  138.00   12.75
   3   6  -5  111.16   14.37
  -3  -6   5  148.52   15.83
  -3   6   5  142.44   16.03
  -3   6   4   55.10    7.37
   3   6  -4   46.39    9.00
  -3  -6   4   60.39    9.59
   3  -6  -4   65.41   11.54
  -3   6   4   52.53    9.31
  -3  -6   3   18.28    5.07
   3   6  -3   15.49    5.00
  -3   6   3   18.73    4.46
  -3   6   3   17.82    5.48
   3   6  -2    5.62    3.17
  -3  -6   2    4.78    2.26
  -3   6   2    9.37    3.16
  -3   6   2    5.76    2.83
  -3   6   1  620.99   24.99
   3   6  -1  596.87   30.92
  -3   6   1  687.70   31.71
   3  -6   0    6.55    3.61
  -3   6   0   11.03    3.44
   3   6   0    5.30    2.65
   3   6   0    7.69    3.15
   3  -6   1    3.49    2.39
  -3   6  -1    6.41    3.02
   3   6   1    1.12    1.65
   3   6   1    2.49    1.60
   3   6   2   99.02   12.23
   3   6   2  111.09   11.97
   3  -6   2  124.46   14.09
   3  -6   3   43.93    9.41
   3   6   3   36.47    7.31
   3   6   3   34.00    6.76
   3   6   4  260.68   20.62
   3   6   4  242.36   18.79
   3  -6   4  266.10   23.64
   3   6   5   97.13   13.26
  -3  -6  -5   80.02   14.02
   3   6   5   92.12   12.48
   3  -6   5  107.49   15.33
   3   6   6   37.12    8.52
  -3  -6  -6   27.81    8.51
   3   6   6   34.17    7.46
   3  -6   6   30.58    8.47
   3   6   7  103.88   15.24
   3  -6   7   86.57   14.73
   3   6   8   45.11   10.98
   3  -6   8   32.20    9.25
   3   6   9   22.79    8.72
   3  -6   9   27.56    9.79
   3   6  10   25.81    9.53
   3  -6  10   42.73   12.38
   3   6  11    0.63    1.39
   3  -6  11    0.47    1.10
  -3  -7   9   -1.40    1.46
   3  -7  -9    4.61    5.79
  -3  -7   8   27.07    8.56
   3  -7  -8   23.34   10.76
  -3  -7   7    3.68    3.95
   3  -7  -7    3.42    5.01
  -3   7   7    2.17    3.56
  -3  -7   6  160.64   19.65
  -3   7   6  141.50   19.72
   3  -7  -6  161.38   24.35
  -3  -7   5    6.89    3.66
   3   7  -5    4.80    4.03
  -3   7   5    5.63    3.53
   3   7  -4   59.34   11.24
  -3  -7   4   83.44   12.91
  -3   7   4   77.66   12.98
  -3  -7   3   85.87   12.11
   3   7  -3   56.01   10.57
  -3   7   3   73.54   12.45
   3   7  -2   40.60    8.65
  -3   7   2   56.33   11.50
   3   7  -1   30.71    6.99
   3   7  -1   28.02    7.37
  -3   7   1   30.98    7.88
   3   7   0  231.74   20.79
   3   7   0  255.28   21.43
   3  -7   0  283.06   23.48
   3  -7   1    5.19    3.77
   3   7   1    3.49    2.65
   3   7   1    5.14    3.33
   3   7   2  114.09   14.60
   3   7   2  120.71   14.15
   3  -7   2  149.70   18.31
   3  -7   3    9.33    4.57
   3   7   3    5.34    3.46
   3   7   3    5.34    3.50
   3  -7   4   40.05   10.13
   3   7   4   34.57    8.20
   3   7   4   28.93    7.05
   3   7   5  143.16   17.08
   3   7   5  137.20   17.71
   3  -7   5  171.29   23.52
   3  -7   6   -0.03    3.84
   3   7   6    2.79    3.74
   3   7   6    2.35    1.77
   3   7   7   12.09    6.56
   3  -7   7   14.43    6.29
   3  -7   8   31.54   11.18
   3   7   8   35.85   11.96
   3  -7   9   24.57   10.79
   3   7   9   21.71    9.50
   3   7  10   -1.43    4.18
  -3   8   8    0.02    2.90
   3  -8  -7   -1.48    2.17
  -3   8   7    3.22    5.28
  -3  -8   6   25.29    9.30
  -3   8   6   49.20   14.23
  -3  -8   5   32.07   10.01
   3   8  -5   13.95    5.48
  -3   8   5   27.06    9.01
  -3  -8   4    5.07    3.62
   3   8  -4   11.17    5.43
  -3   8   4    8.13    3.01
   3   8  -3    5.12    2.91
  -3  -8   3   12.12    6.03
  -3   8   3    9.06    4.68
   3   8  -2    1.83    1.95
   3   8  -2   -0.14    1.33
  -3   8   2    2.27    2.73
   3   8  -1  133.41   16.89
   3   8  -1  131.21   17.95
  -3   8   1  156.68   21.68
   3   8   0    4.98    4.50
  -3   8   0   12.99    6.99
   3   8   0    5.64    3.85
   3  -8   1   -3.41    2.60
   3   8   1   -1.32    2.02
   3   8   1   -1.03    2.76
   3  -8   2   41.14   10.92
   3   8   2   24.27    7.04
   3   8   2   30.80    8.09
   3  -8   3   14.71    6.02
   3   8   3   15.74    6.07
   3   8   3   20.49    6.65
   3   8   4   61.27   12.57
   3   8   4   77.63   12.89
   3  -8   4   63.67   14.99
   3  -8   5   19.51    8.13
   3   8   5   30.50    9.48
   3   8   5   23.29    7.91
   3  -8   6    4.36    5.53
   3   8   6    1.26    2.95
   3   8   6    7.95    4.84
   3  -8   7   23.67   11.01
   3   8   7   25.36   10.16
   3   8   7    4.81    2.67
   3  -8   8    4.70    7.74
  -3  -9   4    4.99    1.59
   3   9  -4   14.79    7.60
  -3   9   4   13.92    8.41
   3   9  -3   21.77    7.83
   3   9  -3   21.28    8.74
  -3   9   3   21.82    8.95
   3   9  -2   12.94    6.15
   3   9  -2   16.18    7.51
  -3   9   2   14.43    8.33
   3   9  -1   -4.86    2.84
   3   9  -1    2.89    2.96
  -3   9   1   -3.57    5.89
   3   9   0   70.74   14.66
   3   9   0   65.61   13.13
  -3   9   0   58.92   15.29
   3   9   1   -2.18    3.64
  -3   9  -1    0.63    0.66
   3   9   1    5.30    3.84
   3  -9   2   13.79    7.67
   3   9   2   21.25    8.89
   3   9   2   11.36    4.95
   3  -9   3   -1.56    4.94
   3   9   3   -0.62    2.10
   3   9   3    0.81    1.97
   3  -9   4    5.15    5.56
   3   9   4    0.22    1.71
   3  -9   5   24.49   11.03
   3  -9   6   -0.19    2.44
  -4   0  14   59.65   13.25
  -4   0  13   18.97    6.21
  -4   0  12  127.60   14.89
  -4   0  11   25.14    5.83
  -4   0  10   34.52    6.76
  -4   0   9  206.95   15.15
  -4   0   8  816.12   28.82
  -4   0   7  144.51   11.50
  -4   0   6  168.57   11.97
  -4   0   5  161.59   10.61
  -4   0   4  157.25    9.76
  -4   0   4  143.58    9.50
  -4   0   3 2123.13   39.24
   4   0  -3 2410.01   31.58
  -4   0   2   27.94    3.96
  -4   0   2   38.32    5.41
   4   0  -2   30.06    3.55
  -4   0   1  549.01   22.31
  -4   0   1  528.97   16.82
   4   0   0  185.23    9.83
   4   0   1 1741.37   33.08
  -4   0  -1 1232.68   29.49
   4   0   2    4.44    1.43
   4   0   3    5.55    2.03
  -4   0  -4  163.16   12.05
   4   0   4  106.54    9.39
  -4   0  -5 1180.73   29.93
   4   0   5  964.32   30.05
   4   0   6  124.72   12.31
   4   0   7   30.29    6.46
   4   0   8   56.44    9.04
   4   0   9  177.40   17.13
   4   0  10  161.39   17.01
   4   0  11    6.09    4.22
   4   0  12    9.29    4.31
   4   0  13   18.78    7.49
  -4  -1  14    7.21    4.57
  -4   1  14    9.38    5.23
  -4   1  13   74.83   12.49
  -4  -1  13  116.69   17.01
  -4  -1  12   51.61    9.44
  -4  -1  12   58.12   10.41
  -4   1  12   48.29    9.13
  -4  -1  11   89.35   12.39
  -4  -1  11   63.72    9.79
  -4   1  11   73.17   10.17
  -4  -1  10   78.42   10.40
  -4   1  10   70.99    9.33
  -4  -1  10   78.99   10.55
  -4   1   9  451.33   21.52
  -4  -1   9  461.46   23.88
  -4  -1   9  501.81   23.67
  -4   1   8  179.61   14.53
  -4  -1   8  202.23   14.29
  -4  -1   8  210.33   14.41
  -4   1   7    2.18    1.38
  -4  -1   7    1.92    1.41
  -4   1   6   82.78    8.24
  -4  -1   6   83.12    8.09
  -4   1   5   30.51    4.46
  -4  -1   5   38.38    5.59
  -4   1   5   46.09    4.96
  -4   1   4 2292.80   38.69
  -4  -1   4 2691.34   40.88
  -4   1   4 3214.43   46.13
  -4   1   3  734.87   21.27
  -4  -1   3  784.51   21.67
  -4   1   3  787.13   25.43
   4  -1  -3  748.70   21.18
  -4   1   2   18.55    3.28
  -4  -1   2   21.21    3.61
  -4  -1   2   28.09    4.87
   4  -1  -2   23.29    3.42
  -4  -1   1  928.96   28.48
  -4   1   1 1299.07   18.09
   4  -1  -1 1412.20   29.63
   4   1  -1 1434.74   18.86
   4   1  -1 1446.53   15.93
   4  -1  -1 1173.48   26.21
  -4  -1   1 1366.76   34.16
  -4   1   1 1185.77   25.46
  -4  -1   1 1219.99   25.17
  -4  -1   0  395.94   19.20
  -4  -1   0  321.41   15.94
   4  -1   0  326.08   14.18
   4   1   0  393.83   12.22
  -4  -1  -1 1152.37   34.39
  -4  -1  -1  841.49   23.50
  -4  -1  -1  965.77   15.90
   4  -1   1 1282.89   30.93
   4   1   1 1506.25   25.97
  -4  -1  -2 1285.28   37.95
  -4  -1  -2 1635.84   41.13
   4   1   2 1630.61   28.12
   4  -1   2 1346.02   30.26
   4   1   3   54.49    5.80
   4  -1   3   70.68    7.32
  -4  -1  -3   54.16    8.40
   4   1   4 1991.77   39.18
   4  -1   4 1991.59   42.60
  -4   1  -5   18.11    3.47
  -4  -1  -5   26.50    4.81
   4   1   5   32.31    7.65
  -4  -1  -5   20.77    5.99
   4  -1   5   23.49    4.85
   4   1   6   21.63    5.13
   4   1   6   29.11    7.07
  -4  -1  -6   21.94    7.09
   4  -1   6   19.29    4.89
   4   1   7  489.62   25.87
   4  -1   7  467.57   25.45
  -4  -1  -7  557.42   36.30
   4   1   8    5.96    2.43
  -4  -1  -8    9.93    5.52
   4  -1   8    7.24    3.55
   4   1   9  304.14   22.39
   4  -1   9  329.87   23.43
   4   1  10  228.01   20.42
   4  -1  10  229.23   20.53
   4  -1  11   -0.47    2.21
  -4  -1 -11    2.55    4.55
   4   1  11    4.65    3.46
   4  -1  12   63.77   12.38
   4   1  12   53.06   10.77
  -4  -1 -12   33.99   11.60
   4  -1  13   15.39    6.93
   4   1  13    6.06    4.46
   4   1  14    0.39    0.20
  -4  -2  14   34.43   10.31
  -4   2  14   65.06   12.48
  -4  -2  14   45.75   12.60
  -4  -2  13   15.10    6.23
  -4   2  13   18.55    6.30
  -4  -2  13   18.39    6.83
  -4  -2  12  122.05   16.14
  -4   2  12  104.61   13.04
  -4  -2  12  154.60   19.37
  -4  -2  11   51.10    9.51
  -4   2  11   38.42    7.62
  -4  -2  11   59.86   10.21
  -4   2  10   29.44    6.01
  -4  -2  10   37.45    7.83
  -4  -2  10   37.76    7.45
  -4   2   9  121.20   11.43
  -4  -2   9  117.37   12.80
  -4  -2   9  131.14   13.06
  -4   2   8  738.98   29.74
  -4  -2   8  800.07   30.64
  -4  -2   8  735.56   28.83
  -4   2   7   68.79    7.94
  -4  -2   7   71.24    8.10
  -4  -2   7   73.41    8.41
  -4   2   6   64.37    7.92
  -4  -2   6   62.84    7.67
  -4  -2   6   58.62    7.21
  -4   2   5  140.95    9.58
  -4   2   5  142.97   10.49
  -4  -2   5  121.31    9.21
  -4   2   4   45.94    5.80
  -4  -2   4   45.04    5.38
   4  -2  -4   35.23    5.34
  -4  -2   3 1453.53   28.31
  -4   2   3 1448.75   31.31
  -4  -2   2    0.44    0.78
  -4  -2   2    2.66    1.53
  -4   2   2    4.74    2.06
   4  -2  -2    2.43    1.32
  -4   2   2    0.84    0.59
  -4  -2   1  591.55   18.09
   4   2  -1  532.48   29.41
  -4   2   1  556.23   16.29
   4   2  -1  646.23   16.35
  -4  -2   1  603.57   21.70
   4  -2  -1  630.58   20.89
  -4   2   1  529.48   18.44
  -4  -2   0  192.16   16.22
   4   2   0  178.84   16.18
  -4  -2   0  214.23   14.17
   4   2   0  211.00    9.66
   4  -2   0  178.23   11.10
  -4  -2  -1 1444.22   42.47
   4   2   1 1406.25   43.64
   4   2   1 1833.74   32.77
   4  -2   1 1467.10   34.71
   4   2   1 1919.15   22.80
  -4  -2  -1 1571.40   40.13
  -4  -2  -2   17.67    4.62
   4   2   2   20.00    5.68
  -4  -2  -2   18.59    4.61
   4   2   2   15.58    2.33
   4  -2   2   19.64    4.50
  -4  -2  -3    2.82    1.83
  -4  -2  -3    3.76    2.06
   4   2   3    3.16    2.36
   4   2   3    2.09    0.94
   4  -2   3    2.20    1.56
  -4  -2  -4   37.07    6.08
   4   2   4   47.84    7.98
  -4  -2  -4   42.41    8.04
   4  -2   4   43.03    6.76
   4   2   5  739.61   28.00
   4  -2   5  679.43   28.04
   4   2   6   57.42    8.79
   4   2   6   63.81   10.06
   4  -2   6   62.97    8.90
  -4  -2  -6   37.88    8.54
   4   2   7   23.12    5.68
   4   2   7   32.47    8.04
  -4  -2  -7   10.06    4.78
   4  -2   7   21.83    5.61
   4   2   8   68.67   10.25
   4  -2   8   74.72   11.26
   4   2   8   68.53   11.63
   4  -2   8   67.63   10.22
  -4  -2  -8   32.15    8.97
   4   2   9  128.10   14.81
   4  -2   9  151.78   17.11
   4   2   9   56.36   11.98
  -4  -2  -9   83.77   15.85
   4  -2   9  118.81   14.71
   4   2  10  156.24   17.45
   4   2  10  142.72   21.47
  -4  -2 -10  117.76   19.42
   4   2  11    1.42    1.07
  -4  -2 -11   -0.68    2.60
   4  -2  11    0.17    3.36
   4   2  12    0.66    2.40
   4  -2  12   -0.93    1.84
   4  -2  13   16.07    7.89
   4   2  13    7.58    4.37
  -4  -3  14    4.55    3.49
  -4  -3  14    6.17    4.45
  -4   3  13   27.45    7.85
  -4  -3  13   52.52   12.94
  -4  -3  13   35.00   10.59
  -4   3  12   24.93    6.86
  -4  -3  12   28.14    8.46
  -4  -3  12   20.26    7.19
  -4   3  11   46.23    8.24
  -4  -3  11   58.98   11.14
  -4  -3  11   74.13   12.75
  -4  -3  10  106.88   13.92
  -4  -3  10   81.27   12.38
  -4   3  10   75.03    9.60
  -4  -3   9  366.39   23.03
  -4  -3   9  351.42   23.71
  -4   3   8  230.65   17.03
  -4  -3   8  208.40   16.80
  -4  -3   8  218.56   16.76
  -4  -3   7   11.99    2.53
  -4  -3   7   14.24    4.28
  -4   3   7   12.41    3.44
  -4   3   6   90.61    9.85
  -4  -3   6   87.50    9.34
  -4  -3   6   86.23    8.18
  -4   3   5   75.34    7.89
  -4  -3   5   91.19    8.37
  -4  -3   5   71.84    8.09
   4  -3  -5   86.60    9.72
  -4   3   4 1774.97   38.74
  -4  -3   4 1749.39   34.40
   4  -3  -4 1736.71   43.01
  -4   3   4 1681.37   39.80
  -4  -3   3  426.77   28.55
  -4   3   3  588.47   21.59
  -4  -3   3  706.67   20.81
   4   3  -3  540.35   30.99
   4  -3  -3  653.19   26.08
  -4   3   3  517.35   19.98
  -4  -3   2    3.36    1.67
   4   3  -2    4.12    2.17
  -4   3   2    2.70    1.46
  -4  -3   2    4.94    1.57
   4  -3  -2    5.21    2.47
  -4   3   2    4.79    1.85
  -4   3   1  617.48   21.85
  -4  -3   1  675.69   19.30
  -4  -3   1  453.64   26.31
   4   3  -1  546.51   27.45
   4   3  -1  577.90   18.27
   4   3  -1  550.89    8.74
   4  -3  -1  548.01   21.29
  -4  -3   0  108.45   12.70
   4   3   0  124.33   12.37
   4   3   0  133.89    9.08
   4  -3   0  133.24   10.57
  -4  -3  -1  693.16   31.06
   4   3   1  732.13   29.69
   4  -3   1  676.86   24.94
  -4  -3  -2  745.61   31.77
   4   3   2  799.93   31.69
  -4  -3  -2  710.12   28.14
   4  -3   2  753.42   27.28
  -4  -3  -3   41.12    7.59
   4   3   3   47.78    7.65
  -4  -3  -3   51.79    8.28
  -4  -3  -3   30.40    3.60
   4   3   3   48.18    4.61
   4   3   3   48.55    6.34
   4  -3   3   41.86    6.55
  -4  -3  -4 1868.48   55.64
   4   3   4 1648.14   47.10
   4   3   5    7.34    3.03
  -4  -3  -5    4.56    3.15
   4  -3   5    4.05    2.27
   4   3   6   19.14    5.55
  -4  -3  -6   21.35    6.86
   4   3   6   20.07    5.26
   4  -3   6   18.05    4.94
   4   3   7  404.67   24.08
  -4  -3  -7  367.26   29.06
   4   3   7  496.49   29.16
   4  -3   7  457.72   26.63
   4   3   8    3.31    1.02
  -4  -3  -8    4.04    4.16
   4   3   8    3.49    2.84
   4  -3   8    2.27    1.35
   4   3   9  154.23   16.72
   4   3   9  122.83   17.28
  -4  -3  -9  126.45   18.99
   4  -3   9  175.81   18.66
   4   3  10  144.46   17.06
   4  -3  10  161.60   19.15
  -4  -3 -10  111.88   19.01
   4  -3  11   -0.05    1.30
   4   3  11    3.94    3.17
  -4  -3 -11    0.40    1.68
   4  -3  11    5.41    3.80
   4   3  12   28.09    8.43
   4  -3  12   41.56   11.91
   4  -3  12   38.97   10.72
   4   3  13   -1.82    2.84
   4  -3  13    5.23    4.10
  -4  -4  14   28.38   10.92
  -4  -4  13   11.12    7.14
  -4   4  13    1.77    1.81
  -4  -4  13    8.95    6.03
  -4  -4  12   83.84   16.39
  -4   4  12   60.39   11.06
  -4   4  11   28.10    7.23
  -4  -4  11   15.90    7.09
  -4  -4  11   34.36    8.98
  -4  -4  11   13.68    5.76
  -4  -4  10    6.86    3.31
  -4   4  10   20.79    5.82
  -4  -4  10   19.73    7.50
  -4  -4  10   26.87    7.80
  -4  -4   9   47.33   11.31
  -4   4   9   51.35    8.20
  -4  -4   9   63.07   11.02
  -4  -4   9   32.61    7.83
  -4   4   8  466.31   26.29
  -4  -4   8  429.56   26.15
   4  -4  -8  389.07   27.13
  -4  -4   7   39.43   10.11
  -4   4   7   41.85    6.76
  -4  -4   7   18.52    4.86
  -4  -4   7   39.71    7.35
   4  -4  -7   40.96    8.11
  -4  -4   6   41.09    9.46
  -4  -4   6   21.78    4.41
  -4   4   6   48.74    7.51
  -4  -4   6   45.21    7.06
   4  -4  -6   48.36    9.02
  -4  -4   5   59.20   11.36
  -4   4   5   62.14    7.84
   4   4  -5   53.81   10.66
  -4  -4   5   60.70    7.77
  -4  -4   5   64.12    7.28
   4  -4  -5   67.87    9.73
  -4   4   5   65.27    9.04
  -4   4   4   31.87    5.57
  -4  -4   4   23.86    6.97
  -4  -4   4   29.57    5.14
   4   4  -4   25.55    6.43
   4  -4  -4   34.22    7.00
  -4   4   4   25.71    4.91
  -4  -4   3  583.64   33.94
  -4   4   3  726.86   26.12
  -4  -4   3  568.59   20.36
   4   4  -3  622.21   31.59
   4  -4  -3  781.70   32.65
  -4   4   3  638.52   24.69
  -4  -4   2    4.64    2.65
  -4   4   2    6.16    2.71
   4   4  -2    1.71    1.66
  -4  -4   2    2.81    1.24
  -4   4   2    5.55    2.41
  -4   4   1  309.29   16.29
  -4  -4   1  239.64   20.25
  -4  -4   1  226.45   10.90
   4   4  -1  267.40   19.34
   4   4  -1  271.87   14.27
   4   4  -1  192.17    8.05
   4  -4  -1  281.27   16.93
  -4  -4   0   73.45    6.14
  -4  -4   0   89.29   12.32
   4   4   0  101.20   11.48
   4   4   0  107.08    9.77
   4  -4   0  104.69   10.38
  -4  -4   0   68.35    9.24
  -4  -4  -1  644.86   32.49
   4   4   1  710.91   31.26
   4   4   1  702.34   24.00
   4  -4   1  662.23   26.54
   4  -4   2   14.80    4.27
   4   4   2   14.00    4.33
   4   4   2   12.95    3.28
   4  -4   3    3.02    2.35
   4   4   3    0.30    0.33
   4   4   3    0.59    1.71
   4   4   3    2.61    1.83
   4   4   4   26.10    6.30
  -4  -4  -4   14.77    3.58
   4   4   4   25.30    5.14
   4  -4   4   20.19    5.43
   4   4   5  412.27   26.18
   4  -4   5  344.90   22.12
   4   4   6   45.75    9.06
   4  -4   6   45.26    8.41
   4   4   6   34.52    6.42
   4   4   7    4.80    1.94
   4   4   7   21.55    6.97
   4  -4   7   16.91    5.05
   4   4   8   15.42    5.69
   4  -4   8   30.25    7.31
   4   4   9   65.77   11.42
   4   4   9   49.92   11.32
   4  -4   9   73.47   12.26
   4   4  10   97.59   14.50
   4  -4  10   96.78   15.85
   4   4  11    0.36    2.32
   4  -4  11    6.18    5.03
   4   4  12   -0.08    1.15
   4  -4  12    0.61    2.71
   4   4  13    2.99    4.17
  -4  -5  12    8.11    7.11
  -4   5  12   12.06    6.32
  -4   5  11   20.09    7.00
  -4  -5  11   22.67    7.97
   4  -5 -11   18.71    8.54
  -4   5  10   22.49    6.65
  -4  -5  10    8.21    5.00
  -4  -5  10   21.78    7.99
   4  -5 -10   21.78    7.59
  -4  -5   9  143.39   20.98
  -4   5   9  133.99   14.47
  -4  -5   9  168.05   19.34
   4  -5  -9  155.99   20.29
  -4  -5   8   61.58   13.71
  -4   5   8   62.76    9.73
  -4  -5   8   68.10   11.04
   4  -5  -8   81.74   13.35
  -4  -5   7    0.06    2.47
  -4  -5   7    2.42    2.47
   4  -5  -7    1.39    0.91
  -4   5   7    1.07    1.58
   4   5  -6   19.14    6.55
  -4  -5   6   31.18    9.11
  -4  -5   6   31.83    6.47
   4  -5  -6   41.01    8.86
  -4   5   6   33.46    6.69
  -4   5   6   36.20    7.95
  -4  -5   5   13.53    5.89
  -4  -5   5   13.60    3.87
   4   5  -5   14.58    5.64
  -4   5   5   19.42    4.70
   4  -5  -5   18.87    6.19
  -4   5   5   18.64    5.47
  -4  -5   4  661.02   40.02
  -4   5   4  821.04   29.53
   4   5  -4  626.04   34.60
  -4  -5   4  770.16   30.92
   4  -5  -4  826.22   38.26
  -4   5   4  726.55   32.10
  -4  -5   3  128.16   16.84
  -4   5   3  183.95   14.04
   4   5  -3  144.28   15.78
  -4   5   3  176.42   15.21
  -4  -5   2    3.98    2.99
  -4   5   2    5.35    2.44
   4   5  -2    1.46    0.21
  -4   5   2    6.04    3.04
  -4   5   1  427.33   20.92
  -4  -5   1  325.07   25.52
   4   5  -1  401.75   25.85
  -4   5   1  366.84   20.86
   4   5  -1  355.46   19.00
   4  -5  -1  369.13   21.18
  -4   5   0  119.17   10.87
  -4  -5   0   80.45   12.06
   4   5   0  108.68   11.11
   4   5   0   98.28   12.33
   4  -5   0   97.88   11.68
   4   5   1  276.90   20.54
   4   5   1  286.12   17.69
   4  -5   1  276.73   19.19
   4   5   2  465.97   26.25
   4   5   2  476.05   23.10
   4  -5   2  451.99   25.56
   4  -5   3    7.92    2.49
   4   5   3    7.95    3.52
   4   5   3    9.41    3.34
   4   5   4  636.10   32.42
   4   5   4  636.37   30.05
   4  -5   4  576.65   32.75
   4   5   5   11.52    4.79
   4   5   5    8.00    3.62
   4  -5   5    7.49    3.89
   4   5   6    3.09    2.32
   4  -5   6    2.81    2.45
   4   5   7  153.66   15.76
   4  -5   7  175.78   19.00
   4   5   8    2.10    3.02
   4   5   8   -2.79    3.87
   4  -5   8    0.41    1.41
   4   5   9   42.00    9.35
   4   5   9   72.80   15.01
   4  -5   9   99.70   16.99
   4   5  10   40.81   12.21
   4  -5  10   65.54   14.12
   4   5  11    1.57    0.80
   4  -5  11   -0.97    2.26
  -4   6  12   10.76    5.77
  -4   6  11    3.44    3.14
  -4   6  10   10.81    4.41
  -4  -6  10    7.76    4.27
   4  -6 -10   17.70    8.76
  -4   6   9   20.80    6.27
  -4  -6   9   21.47    9.10
  -4  -6   9   30.24    8.71
   4  -6  -9   28.16    9.84
  -4  -6   8  113.82   19.09
  -4   6   8  138.04   15.00
  -4  -6   8  137.83   17.25
   4  -6  -8  169.36   23.36
  -4  -6   7   22.16    8.28
  -4  -6   7   26.92    7.13
   4  -6  -7   38.84   10.22
  -4   6   7   33.21    7.30
  -4   6   7   35.32    9.83
  -4  -6   6   33.70   10.30
  -4   6   6   38.71    7.55
  -4  -6   6   42.79    8.73
   4   6  -6   24.06    7.69
   4  -6  -6   48.70   11.56
  -4   6   6   45.87   10.49
   4   6  -5   12.70    6.08
  -4  -6   5   12.31    6.26
  -4  -6   5   16.07    5.36
   4  -6  -5   17.42    6.21
  -4   6   5   15.12    3.54
  -4   6   5   15.32    5.41
  -4   6   4   12.26    3.68
  -4  -6   4   23.67    7.93
   4   6  -4   21.94    6.97
  -4   6   4   20.01    5.74
  -4  -6   3  214.07   23.03
  -4   6   3  273.07   18.05
   4   6  -3  234.90   21.66
  -4   6   3  280.33   22.56
   4   6  -2    1.03    2.22
  -4   6   2    0.07    1.87
  -4   6   1   64.95    8.40
   4   6  -1   79.28   12.30
  -4   6   1   89.17   12.04
   4   6  -1   81.32   10.30
   4  -6   0   29.26    6.81
  -4   6   0   18.57    4.30
   4   6   0   24.97    6.33
   4   6   0   28.15    6.22
   4   6   1  198.08   18.23
   4   6   1  202.96   16.70
   4  -6   1  223.96   20.01
  -4   6  -1  160.01   13.64
   4  -6   2   14.87    4.74
   4   6   2   13.29    4.36
   4   6   2   12.64    3.76
   4  -6   3    1.97    1.25
   4   6   3    2.14    2.81
   4   6   3    1.78    1.73
   4  -6   4   12.36    5.52
   4   6   4    9.76    4.49
   4   6   4   14.73    4.73
   4   6   5  179.74   19.71
   4   6   5  176.46   17.39
   4  -6   5  184.33   21.01
   4   6   6   36.90    9.08
   4  -6   6   25.46    7.00
   4   6   7    9.89    4.70
   4  -6   7    9.79    5.25
   4   6   8    2.14    3.55
   4  -6   8    4.54    2.86
   4   6   9   22.12    9.06
   4  -6   9   32.47   10.17
   4   6  10   15.70    8.03
   4  -6  10   25.50   10.85
   4   6  11    2.25    3.57
   4  -7  -9   67.74   19.35
  -4  -7   8   25.67    8.20
   4  -7  -8   31.36   11.82
  -4  -7   7    5.16    3.20
   4  -7  -7    2.34    3.82
  -4   7   7    1.88    3.42
  -4   7   7    0.82    0.46
   4   7  -6    4.38    3.23
  -4  -7   6   10.73    5.90
   4  -7  -6   11.12    6.33
  -4   7   6    6.25    3.32
  -4   7   6    8.76    6.44
  -4  -7   5    9.77    4.19
   4   7  -5    7.76    4.10
  -4   7   5    7.19    3.12
  -4   7   5   12.73    5.52
  -4   7   4  140.55   15.05
   4   7  -4  196.13   21.36
   4   7  -3   38.66    9.66
  -4   7   3   20.25    4.23
  -4   7   3   52.52   11.12
   4   7  -2    0.83    1.48
  -4   7   2   -2.79    2.25
   4   7  -2    2.60    2.19
  -4   7   2    4.96    5.21
  -4   7   1  107.20   12.66
   4   7  -1  129.70   17.01
  -4   7   1  156.66   19.37
   4   7  -1  135.75   15.49
   4  -7   0   24.71    7.42
  -4   7   0   26.13    6.40
   4   7   0   27.12    7.30
   4   7   0   25.39    6.91
  -4   7  -1   73.36   10.42
   4   7   1   97.32   14.33
   4   7   1   85.23   11.95
   4  -7   1  115.76   16.53
   4   7   2  126.43   16.28
   4   7   2  127.16   14.63
   4  -7   2  165.29   20.24
   4  -7   3    1.93    2.07
   4   7   3    0.84    2.09
   4   7   3   -0.48    1.25
   4   7   4  190.19   21.10
   4   7   4  182.79   19.27
   4  -7   4  231.52   26.05
   4  -7   5    3.14    3.75
   4   7   5    3.87    3.45
   4   7   5    6.63    4.05
   4  -7   6    0.78    3.01
   4   7   6    2.88    3.56
   4   7   6   -0.80    1.21
   4  -7   7   64.13   16.87
   4   7   7   66.31   15.04
   4   7   8    5.16    4.46
   4  -7   8    9.96    3.82
   4   7   9   20.38   10.08
  -4   8   7    2.77    6.29
  -4  -8   6   -1.89    1.16
  -4   8   6    5.31    3.98
   4   8  -5    0.82    1.22
  -4   8   5    2.65    3.48
   4   8  -4    1.44    2.22
  -4   8   4    0.28    1.32
   4   8  -3   38.38   11.47
  -4   8   3   54.11   13.94
   4   8  -2    2.04    2.04
   4   8  -2    5.41    3.17
  -4   8   2   -1.29    3.27
   4   8  -1   28.67    8.46
  -4   8   1   42.42   12.16
   4   8  -1   33.76    9.19
   4   8   0   13.31    5.38
  -4   8   0    7.91    6.59
   4   8   0   14.66    5.88
   4   8   1   84.92   15.16
   4   8   1   78.36   13.04
   4  -8   1   63.82   15.08
   4  -8   2    2.36    3.36
   4   8   2    5.31    4.60
   4   8   2    4.10    3.27
   4  -8   3    0.65    5.58
   4   8   3    1.34    2.86
   4   8   3   -0.54    1.94
   4  -8   4    0.66    0.75
   4   8   4    2.19    2.85
   4   8   4    1.32    0.97
   4  -8   5   38.18   13.86
   4   8   5   47.42   11.99
   4   8   5   28.68    8.74
   4  -8   6    5.12    5.55
   4   8   6    3.54    4.79
   4   8   6    3.78    4.34
   4   9  -4   18.51    8.10
   4   9  -3    4.06    2.75
   4   9  -3   14.61    6.13
  -4   9   3    9.80    6.41
   4   9  -2   -0.64    1.71
   4   9  -2   -0.59    3.21
  -4   9   2   -1.23    1.51
   4   9  -1    8.73    4.86
  -4   9   1   22.25   10.27
   4   9  -1   23.52    8.31
   4   9   0   -0.52    2.91
  -4   9   0    2.78    3.71
   4   9   0    1.94    2.51
  -4   9  -1   21.40   10.22
   4   9   1   12.47    4.57
   4  -9   2   14.43    8.74
   4   9   2   15.30    7.15
   4  -9   3    0.63    1.02
   4   9   3   -1.14    2.46
   4  -9   4   50.98   16.96
  -5   0  14    2.86    2.76
  -5   0  13    1.96    2.72
  -5   0  12  376.38   27.83
  -5   0  11   11.76    4.39
  -5   0  10   15.53    4.38
  -5   0   9  101.57   11.57
  -5   0   8   46.07    7.42
  -5   0   7  369.12   20.04
  -5   0   6  879.97   29.21
  -5   0   5   61.53    7.27
   5   0  -5   73.11    9.11
  -5   0   4  879.68   26.73
   5   0  -4  751.28   19.46
  -5   0   3  154.68   11.47
  -5   0   3  188.40   13.40
   5   0  -3  176.22   10.10
  -5   0   2    3.70    1.50
  -5   0   2    4.91    2.29
   5   0  -2    4.29    1.64
  -5   0   1 1065.72   34.89
  -5   0   1  977.78   26.52
   5   0   0    5.01    1.79
  -5   0   0    5.48    2.48
  -5   0  -1 1275.53   33.44
   5   0   1 1452.58   31.56
   5   0   2  721.19   23.79
   5   0   3   63.20    6.91
   5   0   4  456.48   20.61
  -5   0  -5    1.91    0.85
   5   0   5    2.74    2.31
  -5   0  -6   50.60    7.34
   5   0   6   93.96   10.67
   5   0   7  517.11   26.93
   5   0   8   10.14    4.06
   5   0   9  233.20   20.47
   5   0  10   -2.89    3.26
   5   0  11    1.70    1.64
   5   0  12   81.23   15.36
   5   0  13   -1.17    1.94
  -5   0 -13    3.56    4.60
  -5  -1  14    2.39    2.79
  -5   1  13   15.73    5.36
  -5  -1  13    9.79    5.35
  -5   1  12    1.23    0.43
  -5  -1  12    3.63    3.03
  -5   1  11  270.13   20.87
  -5  -1  11  347.07   25.41
  -5   1  10    0.13    0.63
  -5  -1  10    0.95    2.10
  -5   1   9  112.85   12.80
  -5  -1   9  103.85   11.90
  -5   1   8   22.98    5.27
  -5  -1   8   32.16    6.58
  -5   1   7  668.59   27.31
  -5  -1   7  745.54   28.85
  -5   1   6  265.55   15.72
  -5  -1   6  335.00   18.57
  -5  -1   5   20.04    3.98
  -5   1   5   23.28    4.50
  -5   1   5   19.25    4.08
   5  -1  -5   18.41    4.51
  -5   1   4  140.89   11.04
  -5  -1   4  161.87   11.21
  -5   1   4  129.27   10.91
   5  -1  -4  131.67   10.17
  -5   1   3  885.62   29.86
  -5   1   3  863.70   27.20
  -5  -1   3  930.66   26.08
   5  -1  -3  903.17   25.88
  -5  -1   2  629.52   20.63
  -5  -1   2  644.96   25.60
   5  -1  -2  602.32   20.95
   5   1  -2  564.43   14.77
  -5  -1   1   79.14    9.53
  -5   1   1   60.87    6.99
  -5  -1   1   72.51    6.67
  -5  -1   0   97.11   11.22
   5  -1   0  100.52    8.71
  -5  -1  -1  226.15   17.37
   5  -1   1  251.92   13.87
  -5  -1  -2  757.47   32.78
  -5  -1  -2  511.94   18.89
  -5  -1  -2 1303.89   37.95
   5   1   2  994.07   25.55
   5  -1   2  933.97   28.75
  -5  -1  -3   39.30    7.20
  -5  -1  -3   20.09    5.41
   5   1   3   38.27    4.93
   5  -1   3   31.32    5.10
  -5  -1  -4   28.83    5.77
  -5  -1  -4   26.97    7.05
   5   1   4   27.84    4.88
   5  -1   4   30.67    5.56
  -5  -1  -5   25.85    5.26
  -5  -1  -5   26.06    7.70
   5   1   5   28.10    5.17
   5  -1   5   30.76    5.83
   5  -1   6 1213.58   39.30
  -5  -1  -6 1123.60   52.89
  -5  -1  -7    1.43    1.81
   5  -1   7    2.82    3.10
   5   1   8    7.58    3.57
  -5  -1  -8    8.95    4.99
   5  -1   8    4.27    2.57
   5   1   9   18.60    6.03
  -5  -1  -9   21.89    8.83
   5  -1   9   15.72    5.20
   5   1  10   61.13   11.82
  -5  -1 -10   97.12   19.92
   5  -1  10   63.43   11.49
   5   1  11   61.41   12.52
   5  -1  11   60.13   11.97
  -5  -1 -11   89.02   19.89
   5  -1  11   55.86   11.42
   5  -1  12   41.13   10.34
  -5  -1 -12   49.57   15.58
   5   1  12   38.69   10.76
   5  -1  12   36.77    9.56
   5   1  13    4.61    3.76
   5  -1  13    0.44    3.79
  -5  -2  14    6.97    4.99
  -5   2  13   -1.40    0.82
  -5  -2  13    0.50    2.45
  -5  -2  12  234.21   24.59
  -5   2  12  215.67   20.01
  -5   2  11   16.13    4.96
  -5  -2  11   21.38    6.88
  -5  -2  10   10.19    4.17
  -5   2  10    8.78    2.71
  -5   2   9   48.72    8.37
  -5  -2   9   46.61    8.14
  -5  -2   8   25.83    5.75
  -5   2   8   26.98    5.49
  -5   2   7  411.71   21.87
  -5  -2   7  499.29   25.16
  -5   2   6  636.65   24.92
  -5  -2   6  681.83   25.73
  -5   2   5   14.58    3.62
  -5   2   5   20.38    4.15
  -5  -2   5   20.89    4.13
   5  -2  -5   20.21    4.28
  -5   2   4  918.37   28.58
  -5  -2   4 1009.44   28.00
   5  -2  -4  928.51   30.74
  -5   2   3   95.32    9.49
  -5  -2   3  107.83    8.61
   5  -2  -3  119.60   10.80
  -5  -2   2    1.89    1.22
  -5   2   2    5.68    1.86
  -5  -2   2    5.27    2.05
   5  -2  -2    6.41    2.85
   5   2  -2    5.89    1.22
  -5   2   2    2.24    0.51
  -5  -2   1  922.97   25.47
  -5  -2   1 1074.94   34.76
  -5   2   1 1010.71   24.38
   5   2  -1  791.48   17.85
   5  -2  -1  973.66   28.53
  -5   2   1  865.95   26.43
   5  -2   0   17.44    3.63
  -5  -2   0   21.49    5.04
   5   2   0   25.23    3.64
   5   2   1 1089.58   47.24
  -5  -2  -1 1097.13   38.56
   5  -2   1  996.62   30.31
  -5  -2  -2  521.16   28.36
   5   2   2  480.36   30.97
  -5  -2  -2  491.91   27.65
   5  -2   2  507.50   23.45
   5   2   2  438.82   15.25
  -5  -2  -3   13.95    4.49
   5   2   3   19.44    5.93
  -5  -2  -3   13.53    4.69
   5   2   3    7.67    1.82
   5  -2   3   10.56    3.15
  -5  -2  -4  338.70   21.76
   5   2   4  328.26   26.19
  -5  -2  -4  255.18   22.81
   5   2   4  278.19   14.58
   5  -2   4  260.29   16.84
  -5  -2  -5   10.89    3.47
   5   2   5   17.25    5.59
  -5  -2  -5    7.66    3.70
   5   2   5   14.25    3.52
   5  -2   5   14.45    4.05
   5   2   6  131.24   17.53
   5  -2   6  100.36   11.86
  -5  -2  -7  271.88   27.99
   5  -2   7  388.73   24.71
   5   2   8    6.12    2.04
  -5  -2  -8    1.09    1.28
   5   2   8    0.45    0.51
   5  -2   8    4.50    2.77
   5   2   9  191.38   19.47
  -5  -2  -9  148.01   23.73
   5  -2   9  177.56   18.87
   5   2  10    0.36    1.52
  -5  -2 -10    3.45    2.33
   5  -2  10    4.55    2.60
  -5  -2 -11    2.06    0.28
   5   2  11    2.31    2.33
   5  -2  11    3.57    3.37
   5   2  12   74.86   14.62
   5  -2  12   62.38   13.61
   5   2  13    1.37    2.74
   5  -2  13   -0.34    1.16
  -5  -3  14    0.02    1.13
  -5   3  13    6.48    4.62
  -5  -3  13   15.28    7.71
  -5  -3  13    4.29    2.18
  -5  -3  12    1.62    2.68
  -5   3  12    1.42    2.19
  -5  -3  12    6.51    5.17
  -5  -3  11  248.51   23.98
  -5   3  11  229.72   19.86
  -5  -3  11  172.90   20.11
  -5  -3  10    1.26    1.29
  -5   3  10   -0.37    1.35
  -5   3   9   61.11    9.86
  -5  -3   9   82.73   12.06
  -5  -3   8    3.42    2.57
  -5   3   8   -1.06    2.18
  -5   3   7  567.86   27.14
  -5  -3   7  508.40   24.66
   5  -3  -7  537.29   29.73
  -5   3   6  129.94   11.89
  -5  -3   6  133.02   12.74
  -5   3   6  104.58   10.62
   5  -3  -6  139.62   14.59
  -5   3   5   22.59    4.60
   5  -3  -5   25.54    6.21
  -5  -3   5   24.87    4.71
  -5   3   4  114.57   10.84
  -5  -3   4  123.82   10.19
   5  -3  -4  139.00   13.68
  -5   3   4   91.27   10.01
  -5   3   3  535.52   23.20
  -5  -3   3  455.43   18.46
   5  -3  -3  534.07   25.54
  -5   3   3  403.33   18.81
  -5  -3   3  485.09   19.27
  -5   3   2  377.41   18.56
  -5  -3   2  366.29   27.30
   5   3  -2  335.83   27.70
  -5   3   2  382.37   17.58
  -5  -3   2  401.44   14.12
   5  -3  -1    4.13    1.97
  -5  -3   1    4.43    2.29
  -5   3   1    5.78    2.63
  -5  -3   1    5.50    1.70
   5   3  -1    4.76    3.21
  -5   3   1    2.80    0.36
   5   3  -1    6.53    1.98
  -5  -3   0   63.39   10.88
   5   3   0   59.05   11.41
   5   3   0   69.65    6.70
   5  -3   0   57.86    7.88
  -5  -3   0   54.43    6.29
  -5  -3  -1  268.92   22.56
   5   3   1  247.42   20.40
  -5  -3  -1  235.58   17.17
   5   3   1  306.73   15.47
   5  -3   1  244.40   15.95
  -5  -3  -2  870.16   38.75
   5   3   2  817.34   37.75
  -5  -3  -2  839.61   35.40
   5  -3   2  827.14   32.05
   5  -3   3   20.94    5.03
  -5  -3  -3   21.28    5.96
   5   3   3   24.78    6.70
  -5  -3  -3   33.66    7.30
   5   3   3   17.29    2.59
  -5  -3  -4   66.68   10.51
   5   3   4   63.12   10.82
  -5  -3  -4   63.97   11.48
   5   3   4   36.15    4.71
   5  -3   4   73.27    9.22
   5   3   5    9.11    2.43
  -5  -3  -5   13.76    5.62
   5   3   5    9.42    2.80
   5  -3   5    8.97    3.70
   5   3   6  696.10   38.63
   5  -3   6  625.05   31.65
   5   3   7    8.46    4.48
  -5  -3  -7    3.12    3.40
   5  -3   7    7.61    2.52
   5   3   8    3.28    3.31
   5   3   8    2.44    1.09
  -5  -3  -8   -1.69    2.46
   5  -3   8   -0.54    3.04
   5   3   9    5.45    3.49
   5   3   9    4.49    3.55
  -5  -3  -9    3.34    3.31
   5  -3   9    7.00    3.47
   5   3  10   49.66   11.16
   5   3  10   19.87    8.76
  -5  -3 -10   26.21    9.99
   5  -3  10   39.79    9.85
  -5  -3 -11   28.27   10.99
   5   3  11   47.15   11.36
   5  -3  11   35.58    9.64
   5   3  12   25.83    8.94
   5  -3  12   12.39    6.46
   5   3  13    1.10    0.94
  -5  -4  13   -0.86    3.50
  -5  -4  12  135.40   20.92
  -5   4  12   88.86   14.29
  -5   4  11    8.37    4.03
  -5  -4  11    5.43    5.38
  -5  -4  11   10.50    6.58
  -5  -4  11    1.48    2.00
  -5   4  10    2.29    2.47
  -5  -4  10    5.60    4.76
  -5  -4  10    2.29    2.31
  -5  -4  10    0.76    1.51
  -5  -4   9   28.67   10.00
  -5  -4   9   17.68    5.90
  -5  -4   9   43.34    9.36
   5  -4  -9   35.81    9.50
  -5   4   9   46.49    9.40
  -5  -4   8   10.70    5.70
  -5  -4   8    8.75    3.95
   5  -4  -8   20.55    7.18
  -5   4   8   17.87    5.12
  -5  -4   7  140.29   20.54
  -5   4   7  207.54   17.23
  -5  -4   7  107.32   12.83
   5  -4  -7  249.80   22.16
  -5  -4   6  215.56   25.08
  -5   4   6  383.93   22.24
  -5  -4   6  248.52   17.51
   5  -4  -6  375.58   26.02
  -5  -4   5    2.55    2.69
  -5   4   5    8.70    3.44
   5  -4  -5   11.16    4.37
  -5   4   5    9.16    4.74
  -5  -4   5    5.89    2.86
  -5  -4   4  314.65   28.14
  -5   4   4  537.27   24.63
  -5  -4   4  428.22   20.79
   5   4  -4  383.56   31.85
   5  -4  -4  595.73   30.97
  -5   4   4  426.91   23.96
  -5   4   3   48.82    7.43
  -5  -4   3   28.90    8.12
  -5  -4   3   34.10    5.74
   5   4  -3   42.08    9.90
   5  -4  -3   49.89    8.96
  -5   4   3   29.89    5.66
  -5  -4   2    0.96    2.41
  -5   4   2    3.69    0.35
   5   4  -2    5.00    3.41
  -5  -4   2    1.37    1.09
  -5   4   2    1.38    1.12
  -5   4   1  457.12   22.40
  -5  -4   1  404.09   18.30
   5   4  -1  498.18   21.35
  -5  -4   1  460.53   32.25
   5   4  -1  468.45   29.58
  -5   4   1  433.44   20.77
   5  -4  -1  501.43   23.69
   5  -4   0    6.65    2.95
  -5   4   0    6.55    2.12
  -5  -4   0   10.12    4.91
  -5  -4   0    5.65    2.34
   5   4   0    5.11    2.31
   5   4   0    6.08    1.91
  -5  -4  -1  540.82   33.54
   5   4   1  531.42   29.94
   5   4   1  588.48   22.53
   5  -4   1  561.76   25.79
  -5  -4  -2  230.18   21.60
   5   4   2  219.18   19.01
   5   4   2  189.99   14.01
   5  -4   2  195.52   16.25
   5  -4   3    8.40    3.27
   5   4   3    8.50    4.21
   5   4   3   10.07    3.67
   5   4   4  227.70   20.46
   5  -4   4  184.84   16.68
   5   4   5   10.49    4.13
   5  -4   5    4.10    2.65
   5   4   6   58.38   11.02
  -5  -4  -6   27.70    7.76
   5  -4   6   43.62    8.45
   5   4   7  263.43   25.73
  -5  -4  -7  212.76   23.89
   5  -4   7  209.94   20.11
   5   4   8    3.95    3.91
  -5  -4  -8    1.35    2.20
   5  -4   8    2.72    1.63
   5   4   9   93.71   13.87
   5   4   9   66.50   14.61
  -5  -4  -9   73.21   15.67
   5  -4   9  104.17   16.03
   5   4  10    1.39    2.41
   5   4  10    1.06    1.25
  -5  -4 -10    1.36    1.91
   5  -4  10    2.76    2.23
   5   4  11   -0.45    1.87
   5  -4  11   -1.44    2.90
   5   4  12   23.16    8.81
   5   4  13   -1.73    1.99
  -5   5  12    0.67    2.68
  -5  -5  11   54.23   15.19
  -5  -5  11   61.10   14.02
  -5   5  11   46.41   10.15
  -5   5  10    0.77    0.50
  -5  -5  10    0.91    2.74
  -5  -5  10    2.45    1.53
   5  -5 -10    0.65    2.31
  -5  -5   9   32.56   11.01
  -5  -5   9   39.47    9.25
   5  -5  -9   40.96   11.47
  -5   5   9   43.98    8.99
  -5  -5   8    2.10    3.26
  -5  -5   8    0.77    1.31
   5  -5  -8    4.40    2.57
  -5   5   8   -0.21    1.52
  -5  -5   7  153.47   23.31
  -5   5   7  196.38   17.54
   5  -5  -7  227.60   23.55
  -5  -5   6   89.77   17.19
  -5   5   6  104.35   12.58
   5  -5  -6  125.05   17.24
  -5  -5   5    1.47    1.75
   5   5  -5    0.53    0.74
  -5   5   5    0.13    0.88
   5  -5  -5    2.39    1.86
  -5   5   5    2.83    3.26
  -5  -5   4   19.69    7.26
   5   5  -4   22.39    7.90
   5  -5  -4   38.00    8.84
  -5   5   4   25.83    6.00
  -5   5   4   34.25    6.61
  -5   5   3  317.75   20.63
  -5  -5   3  235.08   24.83
   5   5  -3  250.41   24.01
  -5   5   3  274.55   20.30
  -5   5   2  196.64   16.49
  -5  -5   2  140.37   18.69
   5   5  -2  162.18   18.35
   5   5  -2  156.73   12.83
  -5   5   2  183.75   16.55
   5  -5  -1   10.70    3.56
  -5  -5   1    7.75    4.61
  -5   5   1    9.80    2.70
   5   5  -1    8.66    4.08
  -5   5   1   10.21    4.33
   5   5  -1   10.78    3.70
   5  -5   0   11.01    3.79
  -5   5   0   15.53    4.07
  -5  -5   0   11.40    5.73
   5   5   0   11.52    4.69
   5   5   0   11.39    3.50
  -5  -5  -1   73.12   12.83
   5   5   1   82.38   12.18
   5   5   1   82.87    9.55
   5  -5   1   82.37   11.13
   5   5   2  267.50   21.73
   5   5   2  285.31   18.46
   5  -5   2  266.12   20.32
   5  -5   3   13.66    4.63
   5   5   3   13.92    4.99
   5   5   3   15.48    4.53
   5  -5   4   13.77    4.84
   5   5   4   19.00    6.56
   5   5   4   17.48    5.11
   5  -5   5    6.63    3.34
   5   5   5    7.02    4.89
   5   5   6  378.63   30.41
   5  -5   6  293.83   24.10
   5   5   7    4.20    3.60
   5  -5   7    3.83    0.21
   5   5   8    8.51    4.81
   5  -5   8    3.82    3.92
   5   5   9    5.46    4.25
   5  -5   9    9.54    5.58
   5   5  10    7.35    5.73
   5  -5  10   18.46    7.46
  -5   6  11   -0.22    0.64
  -5   6  10    1.41    2.86
  -5  -6  10    2.49    4.55
  -5  -6  10    3.03    2.55
  -5  -6   9   22.21    9.88
  -5  -6   9   28.81    9.15
   5  -6  -9   40.78   12.63
  -5   6   9   23.91    6.70
  -5  -6   8    3.75    3.06
   5  -6  -8    6.91    5.76
  -5   6   8    3.44    2.39
  -5  -6   7   52.52   13.91
  -5   6   7   51.11    9.21
   5  -6  -7   61.08   13.45
  -5  -6   6  111.42   19.86
  -5   6   6  134.34   14.91
   5   6  -6   71.98   15.22
   5  -6  -6  165.16   21.76
  -5   6   6   88.12   15.55
  -5  -6   5    3.72    3.85
   5   6  -5    4.19    3.82
  -5   6   5    4.85    2.48
   5  -6  -5    6.03    4.83
  -5   6   5    2.19    1.90
  -5  -6   4  138.36   20.85
  -5   6   4  170.45   15.71
   5   6  -4  130.28   18.28
  -5   6   4  110.62   15.42
  -5  -6   3   15.67    7.03
  -5   6   3   19.84    5.35
   5   6  -3   20.02    7.50
  -5   6   3   21.16    6.49
  -5  -6   2   -0.61    1.47
  -5   6   2    1.78    1.05
   5   6  -2    3.20    2.72
   5   6  -2   -0.62    1.60
  -5   6   2    1.46    2.66
  -5   6   1  184.39   16.49
   5   6  -1  178.79   19.57
  -5   6   1  219.04   20.62
   5   6  -1  191.80   17.12
   5  -6   0    0.67    2.39
  -5   6   0    3.16    2.37
   5   6   0    4.90    3.19
   5   6   0    3.52    3.35
  -5   6  -1  212.70   17.49
   5   6   1  218.23   21.20
   5   6   1  197.37   16.68
   5  -6   1  240.10   21.98
   5   6   2   88.54   13.51
   5   6   2   85.87   10.95
   5  -6   2  110.15   14.64
   5  -6   3   13.09    4.63
   5   6   3   12.79    5.12
   5   6   3   15.44    5.60
   5   6   4  105.38   15.87
   5   6   4   92.52   12.62
   5  -6   4   96.53   15.47
   5  -6   5    2.74    4.45
   5   6   5    0.13    1.05
   5  -6   6   15.26    6.38
   5   6   6   12.88    6.74
   5   6   7   91.09   17.56
   5  -6   7   82.11   15.55
   5   6   8    1.10    2.75
   5  -6   8    0.70    2.69
   5   6   9   31.49   11.10
   5  -6   9   41.23   12.13
   5   6  10   -0.87    1.87
  -5  -7   9    6.89    5.29
  -5  -7   8   -1.80    3.29
   5  -7  -8    3.73    6.02
  -5   7   8   -0.91    1.14
  -5  -7   7   62.33   15.77
  -5   7   7   38.62    9.50
  -5   7   7   27.80   10.23
  -5  -7   6   32.28   11.52
   5   7  -6   14.42    7.33
  -5   7   6   19.00    6.43
  -5   7   6   18.71    8.64
   5   7  -5   -1.38    3.46
  -5   7   5    0.15    0.52
  -5   7   5    0.89    1.24
   5   7  -4    6.05    3.93
  -5   7   4    3.72    2.10
  -5   7   4    4.89    3.85
  -5   7   3   47.85    8.61
   5   7  -3   87.42   15.53
  -5   7   3   56.49   12.82
   5   7  -3   86.82   12.22
   5   7  -2   50.72   11.50
  -5   7   2   25.98    6.22
   5   7  -2   52.50    9.77
  -5   7   2   57.66   12.56
  -5   7   1    0.33    2.41
   5   7  -1    1.89    2.54
  -5   7   1    7.79    5.77
   5   7  -1    2.37    2.96
   5  -7   0    2.43    2.36
  -5   7   0   -0.34    3.61
   5   7   0    0.75    1.83
  -5   7   0    2.88    3.74
   5   7   0    3.52    2.57
   5  -7   1   39.25    9.66
  -5   7  -1   18.83    4.95
   5   7   1   33.59    8.99
   5   7   1   34.51    7.60
  -5   7  -2   52.56    9.89
   5   7   2  103.43   16.48
   5   7   2   90.87   11.95
   5  -7   2  110.68   17.49
   5  -7   3    9.34    5.28
   5   7   3    9.80    4.94
   5   7   3    7.81    3.53
   5  -7   4    9.76    5.64
   5   7   4    6.89    4.07
   5   7   4    8.95    3.92
   5  -7   5    1.00    3.83
   5   7   5    5.13    4.36
   5   7   5    2.26    3.11
   5   7   6  121.31   21.12
   5  -7   6  126.70   22.35
   5  -7   7    4.08    6.58
   5   7   7    0.67    2.99
   5   7   8   -0.72    1.97
  -5   8   7   12.10    7.35
  -5   8   6   13.21    6.93
   5   8  -5   -0.36    2.65
  -5   8   5   -0.40    1.90
   5   8  -4   41.99   12.01
  -5   8   4   25.63    9.85
   5   8  -3   -4.03    5.30
   5   8  -3    1.46    0.89
  -5   8   3    3.08    4.21
   5   8  -2   -0.07    1.83
   5   8  -2   -0.88    1.53
  -5   8   2   -0.65    2.23
   5   8  -1   57.36   13.74
   5   8  -1   53.66   11.16
  -5   8   1   50.92   13.67
   5   8   0    3.31    2.86
  -5   8   0   -3.30    4.55
   5   8   0   -1.16    1.70
   5  -8   1   42.48   12.66
   5   8   1   28.86    8.94
   5   8   1   42.37    9.47
   5  -8   2   16.53    7.93
   5   8   2   19.66    8.05
   5   8   2   13.97    5.18
   5  -8   3    2.39    5.21
   5   8   3    0.69    1.64
   5   8   3    2.60    3.11
   5  -8   4   22.10   11.55
   5   8   4   30.61   10.15
   5   8   4   27.97    8.02
   5  -8   5    0.31    3.90
   5   8   5    8.37    4.89
   5   9  -4    1.48    4.02
   5   9  -4   -0.98    1.78
   5   9  -3   13.07    6.43
   5   9  -2    6.52    4.75
  -5   9   2   11.41    7.52
  -5   9   1    1.26    6.79
   5   9  -1   -1.89    3.48
  -5   9   0    0.64    3.70
   5   9   0    2.36    3.51
   5   9   1   10.80    6.21
   5   9   2   12.01    5.36
  -6   0  13    8.38    5.39
  -6   0  12   13.54    6.57
  -6   0  11   11.12    4.93
  -6   0  10  238.47   20.45
  -6   0   9   47.07    8.66
  -6   0   8   13.87    3.51
  -6   0   7    4.66    2.48
  -6   0   6  526.69   24.34
  -6   0   5  170.02   13.09
  -6   0   5  149.85   12.55
  -6   0   4  208.53   15.84
   6   0  -4  191.53   12.26
  -6   0   3  164.90   12.39
  -6   0   3  157.92   14.38
   6   0  -3  151.89   10.42
  -6   0   2 1529.88   36.69
  -6   0   2 1477.42   46.13
   6   0  -2 1400.80   32.55
  -6   0   1  197.39   17.06
  -6   0   1  190.50   13.22
  -6   0   0   24.78    6.13
   6   0   0   30.60    4.73
  -6   0  -1   49.92    9.43
  -6   0  -1   42.58    3.88
   6   0   1   54.07    6.67
  -6   0  -2   71.75    9.11
   6   0   2  102.50    9.61
   6   0   3  708.15   27.21
   6   0   4  155.76   12.43
  -6   0  -5   13.50    4.68
   6   0   5   14.65    4.16
  -6   0  -6   28.26    6.52
   6   0   6   32.80    6.81
   6   0   7  158.37   15.11
   6   0   8   15.43    4.98
   6   0   9  106.94   14.25
   6   0  10    1.17    0.12
   6   0  11  101.61   15.86
  -6   0 -12   -3.74    7.02
   6   0  12   -1.49    3.09
  -6   0 -13    7.60    8.58
   6   0  13    3.94    3.69
  -6   1  13   -0.19    2.10
  -6  -1  13    1.20    3.38
  -6   1  12   24.16    6.62
  -6  -1  12   17.91    6.53
  -6   1  11   75.45   11.63
  -6  -1  11   80.52   13.24
  -6  -1  10   -0.94    2.20
  -6   1  10   -1.59    0.89
  -6   1   9  406.90   25.17
  -6  -1   9  448.64   28.21
  -6   1   8    5.66    2.53
  -6  -1   8    6.97    2.82
  -6   1   7  629.68   28.49
  -6  -1   7  710.93   31.04
  -6   1   6  127.40   11.91
  -6  -1   6  121.21   12.03
  -6   1   5   78.67    8.89
  -6  -1   5   72.50    8.59
  -6   1   5   73.01    9.26
   6  -1  -5   62.23    8.16
  -6   1   4  417.96   21.50
  -6  -1   4  475.01   22.15
  -6  -1   4  413.26   21.40
   6  -1  -4  419.26   20.34
  -6   1   4  506.16   25.87
  -6   1   3   20.83    4.47
  -6  -1   3   25.01    5.01
  -6  -1   3   21.05    5.36
  -6   1   3   19.80    5.08
   6   1  -3   18.17    3.10
   6  -1  -3   20.71    4.38
  -6   1   2  352.67   18.63
  -6  -1   2  386.25   18.49
  -6  -1   2  517.14   26.66
  -6   1   2  420.52   25.63
   6  -1  -2  481.15   21.50
   6   1  -2  488.70   16.41
  -6  -1   1 1400.65   35.05
  -6   1   1 1321.15   34.55
   6  -1   0    8.26    2.57
  -6  -1   0    6.80    2.77
  -6  -1  -1  316.56   23.64
   6  -1   1  289.92   16.68
   6   1   1  355.40   16.45
   6  -1   2   -0.52    1.48
   6   1   2    1.18    1.02
  -6  -1  -2   -0.76    0.91
  -6  -1  -2    2.53    1.41
  -6  -1  -2    2.63    1.31
   6   1   3    3.71    2.08
  -6  -1  -3    1.52    2.48
  -6  -1  -3    3.17    2.64
   6   1   4  491.86   20.93
   6  -1   4  524.54   24.35
  -6  -1  -5   30.85    7.43
  -6  -1  -5   25.37    8.03
   6   1   5   18.70    4.64
   6  -1   5   22.44    5.15
   6   1   6  313.41   19.66
   6  -1   6  288.77   20.73
   6   1   7  179.58   15.65
   6  -1   7  176.82   16.94
   6   1   8   10.95    3.16
   6  -1   8   21.85    6.14
   6   1   9   36.16    7.90
   6  -1   9   31.42    7.79
  -6  -1 -10    1.38    1.62
   6   1  10    5.12    3.80
   6  -1  10   -4.29    4.11
  -6  -1 -11   10.47    8.25
   6   1  11    7.79    3.55
   6  -1  11    9.87    5.42
  -6  -1 -12   52.10   18.28
   6   1  12   58.31   12.32
   6  -1  12   35.25    9.81
   6   1  13   -0.88    2.12
  -6  -2  13   -2.54    3.22
  -6   2  12   17.14    5.71
  -6  -2  12   13.99    6.50
  -6   2  11    3.84    4.09
  -6  -2  11    1.28    2.61
  -6   2  10  303.33   24.48
  -6  -2  10  268.77   23.83
  -6  -2   9   18.29    5.63
  -6   2   9   15.09    4.65
  -6   2   8    9.64    4.03
  -6  -2   8   10.55    4.39
  -6   2   7    5.45    2.91
  -6  -2   7    7.19    3.26
  -6   2   6  423.21   22.47
  -6  -2   6  508.96   26.05
   6  -2  -6  495.57   26.96
  -6   2   5   93.72   10.25
  -6  -2   5   92.96    9.67
   6  -2  -5   92.64   11.15
  -6   2   4  195.36   15.01
  -6  -2   4  200.59   14.29
  -6   2   4  210.03   17.82
   6  -2  -4  225.23   17.09
  -6   2   3  137.80   12.55
  -6  -2   3  163.91   12.91
   6   2  -3  107.71    6.47
   6  -2  -3  170.79   14.13
   6   2  -3  132.64    7.23
  -6  -2   2  988.75   29.94
  -6  -2   2 1031.95   37.05
  -6  -2   1  184.82   12.68
  -6  -2   1  210.67   18.18
  -6   2   1  158.20   13.05
   6  -2   0    3.75    1.97
  -6  -2   0    4.58    2.42
  -6  -2  -1   40.45    9.55
  -6  -2  -1   37.16    7.95
   6  -2   1   28.61    5.61
  -6  -2  -2  150.50   17.10
  -6  -2  -2  116.25   15.15
   6  -2   2  124.63   11.78
   6   2   2  124.20    8.82
  -6  -2  -3  824.26   39.90
  -6  -2  -3  579.65   35.49
   6   2   3  731.96   24.12
   6  -2   3  663.03   30.12
  -6  -2  -4  161.63   17.19
  -6  -2  -4  113.53   16.43
   6   2   4  128.80   10.02
   6  -2   4  135.65   13.41
  -6  -2  -5   36.25    8.63
  -6  -2  -5   22.12    7.72
   6   2   5   26.79    5.13
   6  -2   5   29.19    6.39
  -6  -2  -6   27.98    9.32
   6   2   6   31.01    5.58
   6  -2   6   32.74    6.63
  -6  -2  -7  109.84   19.57
   6   2   7   92.39   11.08
   6  -2   7  104.79   13.81
  -6  -2  -8    7.27    4.41
   6   2   8   11.57    4.42
   6  -2   8    9.53    4.40
  -6  -2  -9   86.85   19.77
   6   2   9   29.51    7.34
   6  -2   9   63.28   11.98
  -6  -2 -10    6.62    5.66
   6   2  10    1.52    1.74
   6  -2  10    1.82    0.61
  -6  -2 -11  120.56   26.37
   6  -2  11  117.74   17.30
  -6  -2 -12   -0.84    3.04
   6  -2  12    1.74    2.51
  -6  -3  13    4.75    4.55
  -6   3  12   27.49    8.44
  -6  -3  12    7.77    3.33
  -6   3  11   17.78    5.68
  -6  -3  11   13.22    5.64
  -6  -3  10    0.88    1.80
  -6   3  10    1.13    2.54
  -6   3   9  220.20   19.37
   6  -3  -9  233.48   24.31
  -6  -3   8    3.30    1.71
   6  -3  -8    8.27    3.43
  -6   3   8   12.86    4.44
  -6   3   7  398.00   23.82
   6  -3  -7  488.50   31.01
  -6   3   6   49.13    8.11
  -6  -3   6   46.80    8.27
   6  -3  -6   49.01    9.25
  -6  -3   5   37.24    7.17
  -6   3   5   36.30    6.47
   6  -3  -5   45.62    9.12
  -6   3   4  394.11   21.85
  -6  -3   4  414.90   21.04
   6  -3  -4  438.30   26.06
  -6  -3   3    1.68    0.27
  -6   3   3    2.29    2.05
   6  -3  -3    2.70    1.71
   6   3  -3    1.93    0.79
  -6   3   3    2.19    1.62
  -6   3   2  217.00   15.71
  -6  -3   2  239.57   24.58
  -6  -3   2  206.19   14.39
   6   3  -2  191.80   10.80
  -6  -3   1  938.65   29.34
  -6  -3   1 1007.69   49.78
   6   3  -1  963.48   24.33
   6  -3  -1  960.35   33.14
   6  -3   0    3.52    1.58
  -6  -3   0    6.04    2.92
  -6  -3   0    8.81    4.94
  -6  -3   0    3.80    2.40
   6   3   0    6.55    4.89
   6   3   0    2.92    1.19
  -6  -3  -1  197.19   20.82
   6   3   1  155.27   19.29
  -6  -3  -1  159.55   16.14
   6  -3   1  152.17   13.72
   6  -3   2    4.78    1.94
  -6  -3  -2   12.26    5.07
   6   3   2    5.47    3.74
  -6  -3  -2    6.13    3.46
  -6  -3  -3   -0.86    1.71
   6   3   3   -0.33    0.43
  -6  -3  -3    0.69    1.17
  -6  -3  -4  396.21   28.79
   6   3   4  397.22   32.66
  -6  -3  -4  324.65   28.79
   6  -3   4  349.68   23.78
   6   3   5   10.29    5.44
  -6  -3  -5    9.27    5.06
   6  -3   5    9.68    3.50
  -6  -3  -6  155.21   21.87
   6  -3   6  203.88   18.65
  -6  -3  -7   50.22   13.07
   6  -3   7   92.72   13.10
   6   3   8   20.20    8.70
  -6  -3  -8    9.56    5.33
   6  -3   8   29.46    8.32
   6   3   9   31.60   11.64
  -6  -3  -9   24.56    9.79
   6  -3   9   42.56   10.38
  -6  -3 -10    2.84    3.50
   6  -3  10    1.32    2.70
  -6  -3 -11    3.59    5.12
   6  -3  11    6.46    5.17
  -6   4  11    7.15    4.95
  -6  -4  11    3.59    3.40
   6  -4 -11    4.15    2.55
  -6   4  10  158.53   18.77
   6  -4 -10  174.61   24.74
  -6  -4   9    6.09    5.76
   6  -4  -9   12.41    6.42
  -6   4   9   12.71    5.03
  -6  -4   8    2.07    2.69
  -6  -4   8    1.92    2.16
   6  -4  -8    5.56    3.90
  -6   4   8    6.29    2.58
  -6  -4   7    3.49    1.65
  -6  -4   7    2.25    2.19
  -6   4   7    6.88    4.22
   6  -4  -7    4.18    4.22
  -6   4   6  219.66   17.72
  -6  -4   6  183.61   16.83
  -6   4   5   54.48    8.42
  -6  -4   5   28.18    9.55
  -6  -4   5   43.23    7.83
   6  -4  -5   59.82   10.58
  -6  -4   4   66.86   14.32
  -6   4   4  114.30   12.11
  -6  -4   4   80.64   10.30
   6  -4  -4  124.02   16.07
  -6   4   4   67.64   10.40
  -6  -4   3   54.56   11.65
  -6  -4   3   55.19    8.01
   6   4  -3   59.91    6.87
  -6   4   3   38.98    7.18
  -6   4   2  582.21   27.47
  -6  -4   2  461.45   34.36
  -6  -4   2  345.79   19.76
   6   4  -2  481.62   37.08
   6   4  -2  484.11   21.43
  -6   4   2  336.97   21.08
  -6   4   1  106.10   11.59
  -6  -4   1   82.47    9.70
  -6  -4   1  103.10   16.16
   6   4  -1   92.01   15.83
  -6   4   1   66.36    9.22
   6   4  -1   83.45    8.20
   6  -4   0    1.72    1.04
  -6   4   0    0.88    0.87
  -6  -4   0    0.76    2.48
  -6  -4   0    1.35    1.01
   6   4   0    1.79    2.84
   6   4   0    1.29    0.78
   6  -4   1   27.93    6.34
  -6  -4  -1   25.95    7.63
   6   4   1   26.67    7.75
   6   4   1   29.99    5.68
  -6  -4  -2   83.92   14.72
   6   4   2   64.52   12.08
   6  -4   2   65.83    9.83
  -6  -4  -3  388.74   31.72
   6   4   3  365.53   29.49
   6  -4   3  325.40   23.22
   6   4   4   82.20   14.19
  -6  -4  -4   71.50   13.39
   6  -4   4   74.68   11.46
   6  -4   5   18.50    5.63
   6   4   5   19.12    7.03
  -6  -4  -5   18.19    6.53
   6   4   6   20.09    7.38
  -6  -4  -6   18.08    7.65
   6  -4   6   23.33    6.52
   6   4   7   82.56   16.91
  -6  -4  -7   44.10   12.29
   6  -4   7   65.64   11.44
   6   4   8    6.13    3.26
  -6  -4  -8    2.72    3.36
   6  -4   8    9.01    5.20
   6   4   9   28.41   10.69
  -6  -4  -9   21.67    9.34
   6  -4   9   26.67    8.09
   6   4  10   -0.21    2.94
  -6  -4 -10    2.32    3.50
   6  -4  10   -0.15    3.77
  -6   5  11    8.15    4.59
  -6  -5  11    7.71    6.09
  -6  -5  10   -0.24    2.63
   6  -5 -10   -0.50    2.52
  -6   5  10    4.36    2.58
  -6   5   9  123.22   16.80
   6  -5  -9  121.71   21.10
  -6  -5   8    1.50    1.76
   6  -5  -8    0.13    2.19
  -6   5   8    2.80    3.40
  -6   5   7  196.94   19.73
   6  -5  -7  215.31   25.64
  -6  -5   6   26.60   10.33
  -6   5   6   49.91    9.23
   6  -5  -6   55.48   12.30
  -6  -5   5    9.75    6.05
  -6   5   5   18.24    5.48
   6  -5  -5   20.24    6.64
  -6   5   5    7.90    4.45
  -6  -5   4  103.50   19.38
  -6   5   4  152.77   15.25
   6   5  -4  119.64   20.30
  -6  -5   3    1.92    2.39
   6   5  -3    2.45    1.19
   6   5  -3    1.52    0.89
  -6   5   3   -1.31    2.69
  -6   5   2  115.04   13.66
  -6  -5   2   87.96   15.61
   6   5  -2   87.33   15.97
   6   5  -2  101.94   11.32
  -6   5   1  403.79   23.27
  -6  -5   1  315.18   30.27
   6   5  -1  331.37   29.80
   6   5  -1  311.81   18.84
   6  -5   0   -0.17    0.86
  -6   5   0    0.36    1.18
  -6  -5   0    2.49    0.99
   6   5   0   -1.44    2.21
   6   5   0   -0.19    1.50
  -6  -5  -1  124.50   18.29
   6   5   1  107.41   15.93
   6   5   1  113.42   11.71
   6  -5   1  123.81   14.51
   6  -5   2    3.03    2.22
  -6  -5  -2    4.14    2.92
   6   5   2    1.09    1.25
   6   5   2    1.94    1.94
   6  -5   3   -1.16    1.08
   6   5   3    1.00    0.72
   6   5   4  208.38   23.23
   6  -5   4  195.95   20.64
   6  -5   5    2.46    0.92
   6   5   5    3.41    2.63
   6   5   6   96.78   17.64
   6  -5   6   82.22   14.14
   6   5   7   72.72   15.61
   6  -5   7   52.60   12.05
   6   5   8    5.79    5.58
   6  -5   8    3.20    0.94
   6   5   9    8.36    7.54
   6  -5   9   14.76    6.83
   6   5  10    0.74    2.95
  -6   6  10   23.49    7.95
  -6  -6  10   15.40    8.84
  -6  -6   9    4.04    5.19
  -6   6   9    8.66    4.69
  -6  -6   8    5.40    5.42
   6  -6  -8    4.30    3.71
  -6   6   8    3.50    3.76
  -6  -6   7    2.81    4.77
   6  -6  -7    4.01    1.28
  -6   6   7   -0.74    0.97
  -6  -6   6   61.69   15.79
  -6   6   6  107.04   14.62
   6  -6  -6  113.12   20.17
  -6  -6   5   27.73   10.97
   6   6  -5   22.69    9.54
  -6   6   5   27.64    6.89
  -6   6   5   14.30    6.39
  -6  -6   4   23.05    9.38
  -6   6   4   36.89    7.37
   6   6  -4   30.47   10.43
  -6   6   4   12.29    5.64
  -6  -6   3    9.77    5.30
  -6   6   3    8.68    5.15
   6   6  -3   10.16    5.94
   6   6  -3    8.10    3.82
  -6   6   3    5.73    3.74
  -6   6   2  288.99   22.01
  -6  -6   2  183.66   24.45
   6   6  -2  235.02   26.15
   6   6  -2  140.07   15.18
  -6   6   2  104.23   15.41
  -6  -6   1   26.04    8.89
  -6   6   1   40.51    8.12
   6   6  -1   32.65    9.96
  -6   6   1   13.86    5.30
   6   6  -1   20.49    5.46
   6  -6   0    6.91    3.03
  -6   6   0    5.22    3.26
  -6  -6   0   -0.23    2.31
   6   6   0    3.31    2.43
  -6   6   0   -0.35    0.92
   6   6   0    2.02    1.05
   6  -6   1   14.18    5.68
  -6   6  -1   16.17    5.52
   6   6   1   14.81    6.25
   6   6   1   13.53    4.76
   6  -6   2   20.50    6.72
   6   6   2   20.25    6.83
   6   6   2   12.94    3.63
   6   6   3  106.81   16.74
   6   6   3   88.69   12.50
   6  -6   3  100.91   15.07
   6  -6   4   19.20    7.12
   6   6   4   22.07    8.00
   6  -6   5    9.61    5.87
   6   6   5   11.45    5.75
   6  -6   6    9.44    4.56
   6   6   6   10.20    5.54
   6  -6   7   42.66   11.65
   6   6   7   24.05   10.22
   6  -6   8   -0.40    1.72
   6   6   8    4.89    5.09
   6   6   9   16.45   10.00
  -6   7   9   28.92    8.80
  -6  -7   8    1.39    5.48
  -6   7   8   -0.86    1.72
  -6  -7   7   19.99   10.15
  -6   7   7   41.93    9.48
  -6  -7   6   10.40    7.72
   6   7  -6    9.28    7.22
  -6   7   6    8.91    4.36
  -6  -7   5    3.81    4.22
   6   7  -5    2.21    3.22
  -6   7   5   10.05    4.41
  -6  -7   4   53.61   15.66
  -6   7   4   54.03   10.33
   6   7  -4   45.40   12.83
  -6   7   4   22.76    8.97
  -6   7   3    1.36    1.54
   6   7  -3   -0.42    2.92
  -6   7   3    1.27    2.55
  -6   7   2   10.39    4.12
   6   7  -2   26.53    9.43
   6   7  -2   12.75    4.88
  -6   7   2   12.22    6.02
  -6   7   1   73.87   12.53
  -6   7   1   58.85   13.96
   6   7  -1   59.94   10.39
  -6   7   0   -3.38    1.84
   6   7   0   -0.92    2.61
  -6   7   0    0.80    2.00
   6   7   0    2.14    2.33
  -6   7  -1   15.34    5.21
   6   7   1   23.05    8.10
   6   7   1   20.14    6.07
   6  -7   2    0.14    2.00
  -6   7  -2   -3.16    1.11
   6   7   2    2.41    2.73
   6   7   2   -1.21    2.36
   6  -7   3    5.04    3.39
   6   7   3    0.55    2.17
   6   7   3   -2.05    2.30
   6  -7   4   51.61   12.80
   6   7   4   55.04   13.76
   6   7   4   52.29   10.83
   6  -7   5   -2.33    3.51
   6   7   5   -0.29    3.35
   6   7   6   17.03    7.92
   6   8  -5    3.13    4.27
   6   8  -4    3.90    2.95
   6   8  -3    1.42    4.33
   6   8  -2   27.37   11.05
  -6   8   2   41.91   13.02
   6   8  -1    3.98    4.23
  -6   8   1    7.17    4.46
   6   8   0   -0.30    0.49
  -6   8   0   -1.71    4.36
   6  -8   1    5.33    5.62
   6   8   1    8.16    6.66
  -6   8  -1    1.00    1.80
   6   8   2    5.95    4.17
   6   8   3   18.77    6.78
   6   8   4    2.36    2.31
  -7   0  12   45.22   12.13
  -7   0  11    8.98    4.77
  -7   0  10  283.01   27.01
  -7   0   9  222.79   20.93
  -7   0   8   42.69    8.50
  -7   0   7   24.18    6.05
  -7   0   6   15.15    4.98
  -7   0   5    7.21    2.64
  -7   0   5    1.76    1.43
   7   0  -5    3.21    1.87
  -7   0   4  636.05   29.10
  -7   0   4  606.35   31.75
  -7   0   3   19.51    4.94
  -7   0   3   25.80    6.83
   7   0  -3   15.29    3.78
  -7   0   2  260.81   17.30
  -7   0   2  357.50   26.05
  -7   0   1   24.65    5.94
  -7   0   1   31.44    7.74
  -7   0   0  218.24   21.38
  -7   0  -1  376.79   28.86
   7   0   1  244.52   16.09
   7   0   2   24.27    4.94
  -7   0  -2   27.05    7.74
  -7   0  -3  122.94   18.15
   7   0   3   94.29   10.81
   7   0   4  531.22   26.43
  -7   0  -5    9.43    4.52
   7   0   5    8.36    2.90
   7   0   6    8.44    3.13
   7   0   7   10.00    4.38
   7   0   8    6.98    3.81
  -7   0  -9  320.48   41.93
   7   0   9  168.75   18.79
  -7   0 -10   42.41   16.55
   7   0  10   22.18    7.14
  -7   0 -11   22.81   12.29
   7   0  11   10.93    5.08
  -7   0 -12   21.64   13.13
   7   0  12    8.92    5.31
  -7   1  12   37.87   10.02
  -7  -1  12   38.62   11.20
  -7  -1  11    5.10    3.85
  -7   1  11    9.34    4.53
  -7   1  10   71.10   12.47
  -7  -1  10   70.29   12.60
  -7   1   9  137.90   16.13
  -7  -1   9  165.39   19.24
  -7   1   8   20.54    5.86
  -7  -1   8   23.86    6.51
  -7   1   7   36.81    7.32
   7  -1  -7   36.57    7.83
  -7  -1   7   49.32    9.79
  -7   1   6    1.77    1.71
  -7   1   6    2.14    2.29
  -7  -1   6    1.10    1.08
   7  -1  -6    2.85    2.61
  -7   1   5  681.19   30.19
   7  -1  -5  586.11   27.73
   7   1  -5  654.46   24.39
  -7   1   4   37.03    7.14
  -7  -1   4   37.83    6.63
  -7  -1   4   32.75    7.22
  -7   1   4   34.01    7.97
   7  -1  -4   36.56    6.82
   7   1  -4   31.65    5.02
  -7   1   3  155.05   13.32
  -7  -1   3  145.67   13.51
  -7  -1   3  151.42   16.90
  -7   1   3  129.39   15.18
   7  -1  -3  162.26   14.22
   7   1  -3  121.24    9.58
  -7   1   2   49.06    6.92
  -7  -1   2   40.70    6.77
  -7  -1   2   50.07    9.39
  -7   1   2   40.48    8.43
  -7   1   1   83.45    9.37
  -7  -1   1   83.05   10.23
  -7  -1   1   95.19   14.02
  -7   1   1   82.74   13.32
  -7  -1   0  151.68   18.10
   7  -1   0  141.20   12.39
  -7  -1  -1  583.42   36.53
   7  -1   1  620.84   27.56
  -7  -1  -2   56.93   11.17
   7  -1   2   62.57    8.47
   7   1   2   62.14    7.46
  -7  -1  -3  309.00   27.17
   7  -1   3  326.09   21.40
   7   1   3  256.01   16.10
   7   1   4   10.52    3.97
   7  -1   4    7.66    3.31
  -7  -1  -4   15.05    6.96
  -7  -1  -4    7.81    4.99
  -7  -1  -5   -1.67    1.14
   7   1   5    0.76    0.20
   7  -1   5    1.93    2.01
   7   1   6  151.58   14.27
   7  -1   6  150.09   15.30
  -7  -1  -7   17.14    7.71
   7   1   7   11.78    4.28
   7  -1   7   12.08    4.30
   7   1   8  114.17   14.01
   7  -1   8  193.26   19.52
   7  -1   9   52.42   10.92
   7   1   9   26.53    7.21
  -7  -1 -10    0.04    0.41
   7   1  10    1.09    1.90
   7  -1  10   -0.30    1.57
  -7  -1 -11   39.13   16.40
   7  -1  11   20.07    7.97
  -7  -1 -12    2.41    5.85
   7  -1  12    1.98    2.63
  -7  -2  12   23.62   10.15
  -7  -2  11    2.88    4.33
  -7   2  11    1.28    0.93
  -7   2  10  121.81   15.92
  -7  -2  10   89.21   14.71
  -7   2   9  148.17   16.20
  -7  -2   9  136.31   17.72
   7  -2  -9  168.01   20.82
  -7   2   8   17.35    5.58
   7  -2  -8   24.82    7.49
  -7  -2   8   30.80    8.32
  -7   2   7    9.72    3.28
   7  -2  -7   13.93    5.44
  -7  -2   7   11.74    3.61
  -7   2   6   17.89    4.99
  -7  -2   6   22.55    5.96
   7  -2  -6   27.00    7.24
  -7   2   5    5.79    3.16
  -7  -2   5    1.30    2.53
  -7   2   5    1.82    2.17
   7  -2  -5    5.35    2.74
  -7   2   4  457.96   24.40
   7  -2  -4  483.86   27.59
  -7   2   3    3.30    0.12
  -7  -2   3    4.99    2.06
  -7  -2   2  302.48   19.25
  -7  -2   2  310.06   23.37
  -7   2   1   44.66    7.43
  -7  -2   1   46.26    7.35
  -7  -2   1   50.86   10.19
  -7  -2   0  281.77   24.37
   7  -2   0  251.25   18.00
  -7  -2   0  281.10   18.87
  -7  -2  -1  285.67   25.25
   7  -2   1  263.84   19.15
  -7  -2  -2   31.45    8.62
   7  -2   2   35.12    6.82
   7   2   2   30.81    4.73
  -7  -2  -3   80.95   13.94
  -7  -2  -3   49.08   11.59
   7  -2   3   58.08    9.52
   7   2   3   53.51    6.67
   7  -2   4  393.52   25.40
   7   2   4  371.67   20.59
   7  -2   5    0.63    0.98
  -7  -2  -5    3.07    3.08
  -7  -2  -5    3.47    3.87
  -7  -2  -6   14.10    6.20
  -7  -2  -6   17.08    7.68
   7  -2   6   15.17    5.07
  -7  -2  -7    4.94    4.59
   7  -2   7    3.78    3.73
  -7  -2  -8    6.65    5.25
   7  -2   8    6.65    4.94
  -7  -2  -9  244.60   36.49
   7  -2   9  183.62   21.26
  -7  -2 -10   24.85   12.06
   7  -2  10   13.05    6.22
  -7  -2 -11    9.28    7.11
   7  -2  11    4.36    3.56
  -7  -2 -12   31.26   16.26
  -7  -3  12   20.39    8.62
  -7  -3  11    2.77    3.79
   7  -3 -11    8.87    5.45
  -7   3  11    9.79    5.02
  -7  -3  10   20.00    7.27
   7  -3 -10   49.52   13.40
  -7   3  10   49.04   10.53
  -7   3   9  120.66   15.38
   7  -3  -9  135.24   20.94
  -7   3   8    8.03    3.32
   7  -3  -8   12.26    5.15
  -7  -3   8   10.29    4.94
  -7   3   7   46.40    8.96
   7  -3  -7   50.12   10.71
  -7  -3   7   36.54    8.53
  -7   3   6    5.76    0.91
   7  -3  -6   13.98    4.89
  -7  -3   6    8.02    3.82
  -7   3   5  560.35   28.38
  -7  -3   5  365.11   24.30
  -7   3   5  337.93   28.16
   7  -3  -5  578.22   34.40
  -7   3   4   39.41    7.52
  -7  -3   4   25.56    6.24
   7  -3  -4   50.10   10.03
  -7   3   3   95.10   11.65
  -7  -3   3  101.10   12.03
  -7  -3   2   14.48    6.47
  -7   3   2   11.33    3.11
  -7  -3   2   14.94    4.96
  -7  -3   1   33.31    6.90
  -7  -3   1   33.65   10.19
  -7   3   1   25.53    6.66
  -7  -3   0  119.07   12.53
  -7  -3   0  148.20   20.29
  -7  -3   0  113.53   15.06
   7  -3   0  106.99   12.30
  -7   3   0  107.52   11.54
  -7  -3  -1  388.13   33.06
  -7  -3  -1  318.98   26.30
   7  -3   1  315.91   21.89
  -7  -3  -2   59.81   12.78
  -7  -3  -2   41.86   10.20
   7  -3   2   39.08    7.74
  -7  -3  -3  281.53   28.59
   7  -3   3  268.78   20.76
   7  -3   4   16.70    5.60
  -7  -3  -4   11.06    5.10
  -7  -3  -4   12.51    6.57
   7  -3   5    2.30    2.91
  -7  -3  -5    0.40    1.24
  -7  -3  -5    2.27    3.14
  -7  -3  -6   84.13   17.64
   7  -3   6  174.30   18.90
  -7  -3  -7    4.81    5.00
   7  -3   7    9.53    5.00
  -7  -3  -8   87.21   20.49
   7  -3   8   98.43   15.11
  -7  -3  -9   34.09   13.55
   7  -3   9   36.06    9.38
  -7  -3 -10   -0.97    1.24
   7  -3  10    0.41    1.79
  -7  -3 -11   14.66   11.29
  -7  -4  12   11.35    7.91
  -7  -4  11   -0.01    0.80
  -7  -4  10   38.85   13.99
   7  -4 -10   62.61   16.71
  -7   4  10   30.72    8.72
  -7   4   9   91.26   14.05
   7  -4  -9  104.04   19.12
  -7  -4   8    3.00    3.24
   7  -4  -8   12.05    6.03
  -7   4   8   13.89    4.99
  -7  -4   7    7.69    6.12
  -7   4   7    8.29    4.05
   7  -4  -7   17.27    8.08
  -7  -4   6    7.57    3.96
  -7   4   6    9.10    4.23
   7  -4  -6   12.49    5.02
  -7  -4   5   -0.76    1.58
  -7   4   5   -1.86    2.35
   7  -4  -5    0.93    1.61
  -7  -4   4  186.40   25.15
  -7   4   4  267.74   20.46
  -7  -4   3    1.60    1.65
  -7   4   3    0.20    1.81
  -7  -4   3    0.50    0.49
  -7   4   2  149.53   15.13
  -7  -4   2  151.59   22.07
  -7  -4   2  117.47   13.41
  -7  -4   1   32.09   10.21
  -7   4   1   27.41    6.38
  -7  -4   1   22.26    6.09
  -7  -4   0  100.03   12.03
   7  -4   0  126.79   14.46
  -7   4   0  135.96   15.04
  -7  -4  -1  198.89   25.20
   7   4   1  152.02   21.92
   7  -4   1  165.96   17.01
  -7  -4  -1  114.71   13.08
   7  -4   2   15.75    5.33
  -7  -4  -2   17.87    7.36
   7   4   2   14.47    7.17
   7  -4   3   27.95    6.96
  -7  -4  -3   34.88   10.16
   7   4   3   29.94    9.52
   7   4   4  237.44   28.88
  -7  -4  -4  192.33   23.81
   7  -4   4  220.49   21.14
   7  -4   5    2.44    2.52
   7   4   5    0.20    5.49
  -7  -4  -5   -0.44    1.15
   7  -4   6   11.50    5.53
   7   4   6   11.47    5.34
  -7  -4  -6    9.00    5.95
   7  -4   7    2.06    0.96
   7   4   7    0.77    4.93
  -7  -4  -7    1.34    1.92
   7   4   8    5.10    5.29
  -7  -4  -8    2.93    2.69
   7  -4   8    1.49    0.69
  -7  -4  -9   48.96   16.35
   7  -4   9   52.43   12.13
  -7  -4 -10    5.27    5.86
  -7  -4 -11    2.69    5.39
  -7  -5  10    5.20    5.84
  -7  -5   9   10.14    7.40
  -7   5   9   14.04    5.74
  -7  -5   8    2.81    4.31
   7  -5  -8    2.05    2.90
  -7   5   8    3.53    1.51
  -7  -5   7    6.98    5.18
  -7   5   7   19.04    6.84
   7  -5  -7   19.19    7.95
  -7  -5   6    0.77    2.42
  -7   5   6    4.39    2.54
   7  -5  -6    3.03    3.01
  -7  -5   5  137.90   23.78
  -7   5   5  244.95   20.99
  -7  -5   4    5.14    5.59
  -7   5   4    8.14    4.26
  -7  -5   3   41.63   13.46
  -7   5   3   38.75    8.85
  -7  -5   2   14.53    7.66
  -7   5   2   22.65    6.86
   7   5  -2   19.41    8.47
  -7  -5   1   25.65    9.38
  -7   5   1   24.61    7.00
   7   5  -1   19.44    8.00
   7  -5   0   39.85    8.24
  -7   5   0   43.02    8.80
  -7  -5   0   43.62   12.18
   7   5   0   35.57   10.70
  -7  -5  -1  215.79   27.64
   7   5   1  172.02   23.50
   7  -5   1  166.18   18.71
  -7   5  -1  183.75   17.68
   7  -5   2   15.85    5.64
  -7  -5  -2   15.29    6.59
   7   5   2   10.07    4.84
   7   5   3  115.36   19.43
   7  -5   3   87.65   13.86
   7  -5   4   -0.26    0.39
   7   5   4    2.96    2.61
   7  -5   5    3.20    3.62
   7   5   5    0.93    3.64
   7   5   6   70.73   17.14
   7  -5   6   62.85   13.60
   7  -5   7   -1.28    1.95
   7   5   7   -0.22    3.02
   7   5   8   37.04   14.42
   7  -5   8   75.25   15.28
   7   5   9   13.40    9.57
  -7  -6   8    1.26    1.63
  -7   6   8    2.29    4.33
  -7  -6   7    0.29    3.39
   7  -6  -7    5.66    2.13
  -7  -6   6    0.53    2.40
  -7   6   6    3.15    1.68
  -7  -6   5    0.08    1.48
  -7   6   5    3.52    3.18
  -7   6   4   82.72   12.57
  -7  -6   4   34.39   12.57
  -7  -6   3   -0.59    0.70
  -7   6   3   -2.01    2.20
   7   6  -3   -0.57    3.50
  -7   6   2   53.79   10.63
  -7  -6   2   22.24    8.75
   7   6  -2   42.04   12.53
  -7  -6   1   10.25    7.31
  -7   6   1    8.67    4.58
   7   6  -1    3.83    3.13
  -7  -6   0   47.27   13.80
  -7   6   0   39.99    8.79
   7   6   0   44.14   12.63
  -7   6  -1   79.59   12.95
   7   6   1   73.46   16.31
   7  -6   1   60.06   11.33
   7  -6   2    2.74    5.17
  -7   6  -2    0.55    1.86
   7   6   2   -3.70    2.94
   7  -6   3   12.28    5.70
   7   6   3    7.75    5.87
   7   6   4  107.16   20.03
   7  -6   4  108.21   17.09
   7  -6   5    1.40    2.70
   7   6   5    1.93    0.81
   7  -6   6    0.15    3.16
   7   6   6    9.25    6.95
  -7   7   7    0.10    1.38
  -7   7   6    1.32    1.90
  -7   7   5   52.13   11.21
  -7  -7   4    3.24    4.97
  -7   7   4    3.86    2.77
   7   7  -4   -0.90    1.98
  -7  -7   3   15.18    8.54
  -7   7   3   24.82    8.34
   7   7  -3    7.05    4.86
  -7   7   2    8.27    3.62
   7   7  -2    4.62    3.03
  -7   7   1    6.34    3.36
   7   7  -1    5.44    5.67
  -7   7   0    9.17    4.55
   7   7   0    9.29    6.18
   7  -7   1   48.74   12.06
  -7   7  -1   44.70   10.32
   7   7   1   53.95   14.23
   7  -7   2    3.51    1.72
  -7   7  -2    5.98    1.08
   7   7   2    5.84    4.53
   7  -7   3   31.96   10.31
  -7   7  -3   24.05    7.84
  -8   0  11   37.17   12.20
  -8   0  10   11.27    5.27
  -8   0   9    9.58    4.62
  -8   0   8  210.64   21.85
   8   0  -8   73.60   12.01
  -8   0   7  262.31   22.83
   8   0  -7  175.62   17.52
  -8   0   6   14.14    4.55
   8   0  -6   11.78    3.97
  -8   0   5   73.48   10.98
   8   0  -5   52.96    8.57
  -8   0   4   68.14   10.82
  -8   0   4   50.95   10.71
   8   0  -4   63.51    9.36
  -8   0   3    8.95    4.24
  -8   0   3   10.84    5.45
  -8   0   2  431.76   25.00
  -8   0   2  530.20   36.54
  -8   0   1    9.94    3.84
  -8   0   1    9.47    5.29
  -8   0   0  500.89   36.64
  -8   0   0  433.53   25.04
  -8   0  -1  110.63   17.14
   8   0   1   84.83    9.98
  -8   0  -2   63.98   13.11
   8   0   2   52.20    8.41
  -8   0  -3  142.11   20.90
   8   0   3   87.01   10.90
   8   0   4   14.00    4.65
  -8   0  -4   16.54    7.88
  -8   0  -5  218.37   27.85
   8   0   5  121.98   14.31
  -8   0  -6  430.58   43.24
   8   0   6  216.00   19.48
  -8   0  -7   35.91   13.08
   8   0   7    5.50    3.35
  -8   0  -8  179.97   30.88
   8   0   8   45.62    9.31
  -8   0  -9   14.87   11.11
   8   0   9    1.21    0.63
  -8   0 -10    1.57    5.39
  -8  -1  11   -1.20    1.66
  -8   1  10    8.94    5.98
  -8  -1  10    6.05    3.75
   8  -1  -9    4.06    2.45
  -8   1   9    5.96    3.20
  -8  -1   9    6.40    3.29
  -8   1   8   71.58   12.85
  -8  -1   8   86.31   14.36
   8  -1  -8   65.53   12.03
  -8   1   7  231.18   20.62
   8  -1  -7  207.73   20.42
  -8   1   6   60.85    9.88
  -8  -1   6   67.38   11.64
   8  -1  -6   53.07    9.88
  -8   1   5   77.57   11.23
  -8  -1   5   93.65   12.73
   8  -1  -5   71.78   10.99
  -8   1   4  369.37   24.57
  -8  -1   4  364.75   25.11
  -8  -1   4  337.42   26.87
   8  -1  -4  337.61   23.63
  -8   1   3   72.41   10.85
  -8  -1   3   80.96   11.23
  -8  -1   3   92.71   14.93
  -8   1   3   79.75   14.09
  -8   1   2    1.54    0.78
  -8  -1   2   -1.35    1.33
  -8   1   2    2.61    2.84
  -8   1   1   20.15    5.14
  -8  -1   1   15.37    4.88
  -8  -1   1   24.53    7.35
  -8   1   1   24.16    8.31
  -8   1   0   12.02    4.16
  -8  -1   0   17.43    4.97
  -8  -1   0   17.03    6.74
  -8   1   0   25.49    8.47
  -8  -1  -1  451.46   36.05
   8  -1   1  443.68   25.19
   8  -1   2   14.65    4.64
   8   1   2   16.65    4.44
  -8  -1  -2   21.56    7.79
   8  -1   3    6.34    2.34
   8   1   3    5.29    2.04
  -8  -1  -3   13.39    6.37
  -8  -1  -3    6.51    4.48
   8  -1   4   24.00    6.24
   8   1   4   24.18    5.66
  -8  -1  -4   14.97    6.38
  -8  -1  -4   36.60   10.89
  -8  -1  -5   68.63   14.87
  -8  -1  -5   89.41   18.02
   8  -1   5   68.50   11.42
  -8  -1  -6   75.36   17.51
   8  -1   6   48.71    9.87
  -8  -1  -7   50.61   14.91
   8  -1   7   27.21    7.36
  -8  -1  -8    7.98    6.45
   8  -1   8    1.76    1.16
  -8  -1  -9   24.98   12.71
   8  -1   9   19.12    6.63
  -8  -1 -10    7.41    5.51
   8  -1  10   15.63    6.18
   8  -1  11   -0.52    0.99
  -8  -2  11   14.84    6.85
   8  -2 -11    9.86    6.90
   8  -2 -10   10.37    6.40
  -8   2  10    8.22    4.33
  -8  -2  10    2.92    2.46
   8  -2  -9    8.91    5.88
  -8   2   9    4.71    2.45
  -8  -2   9    9.23    5.52
  -8   2   8  161.09   17.74
  -8  -2   8  121.69   17.35
   8  -2  -8  178.38   21.73
  -8   2   7  173.19   17.73
  -8  -2   7  159.83   19.51
   8  -2  -7  213.96   22.87
  -8   2   6    3.72    2.06
  -8  -2   6    9.15    4.41
   8  -2  -6    3.35    3.15
  -8   2   5   67.49   10.40
  -8  -2   5   89.21   12.98
  -8   2   5   55.85   12.23
   8  -2  -5   83.63   13.33
  -8   2   4   43.30    8.32
  -8  -2   4   50.21    9.90
  -8   2   4   20.44    7.17
  -8   2   3    2.98    1.38
  -8  -2   3    1.12    1.81
  -8   2   3   -1.06    1.89
  -8  -2   2  403.94   25.98
  -8  -2   2  409.04   31.06
  -8   2   2  440.76   35.79
  -8   2   1   11.56    3.77
  -8  -2   1   17.89    5.10
  -8  -2   1   17.68    6.77
  -8  -2   0  349.22   23.48
  -8  -2   0  370.54   32.39
  -8  -2  -1   83.19   17.61
  -8  -2  -1   62.09   12.95
   8  -2   1   52.26    8.97
   8  -2   2   20.88    5.84
  -8  -2  -2   21.46    8.00
  -8  -2  -3   80.07   15.65
   8  -2   3   76.02   11.31
   8  -2   4    3.71    2.23
  -8  -2  -4    1.45    0.63
  -8  -2  -4    5.86    4.96
  -8  -2  -5   71.60   15.26
  -8  -2  -5  140.54   23.72
   8  -2   5  125.73   16.15
  -8  -2  -6  305.19   37.13
   8  -2   6  285.75   24.77
  -8  -2  -7   11.28    7.95
   8  -2   7   12.45    5.80
  -8  -2  -8   97.98   24.05
   8  -2   8   68.84   12.19
  -8  -2  -9   19.50   10.44
   8  -2   9   14.78    5.92
  -8  -2 -10   -1.39    0.90
   8  -2  10   -0.35    2.43
   8  -3 -11   -6.33    6.18
  -8  -3  10    0.71    2.46
   8  -3 -10    8.86    7.71
   8  -3  -9    3.12    4.30
  -8   3   9   -0.35    1.84
  -8  -3   9   -2.53    2.98
  -8   3   8   57.44   11.36
   8  -3  -8   54.52   12.97
  -8  -3   8   21.56    8.19
  -8   3   7  118.41   15.19
   8  -3  -7  149.87   21.23
  -8   3   6   43.53    8.64
   8  -3  -6   47.10   11.12
  -8  -3   6   21.43    7.32
  -8   3   5   58.11   10.17
   8  -3  -5   80.14   14.31
  -8  -3   4  116.25   14.69
  -8   3   4   82.34   16.21
  -8   3   3   48.14    9.23
  -8  -3   3   39.04    8.42
  -8  -3   2    8.65    5.32
  -8   3   2    6.52    3.26
  -8  -3   2    7.74    4.30
  -8  -3   1   20.47    8.36
  -8   3   1   13.54    5.25
  -8  -3   1    9.83    4.52
   8  -3   0    3.29    1.48
  -8   3   0    6.60    3.08
  -8  -3   0    5.70    2.51
  -8  -3   0    5.68    3.05
  -8  -3   0    3.86    3.57
  -8  -3  -1  364.55   31.68
   8  -3   1  346.26   24.73
   8  -3   2   14.90    5.10
  -8  -3  -2   33.15   11.75
  -8  -3  -2   16.19    6.78
   8  -3   3    1.42    0.73
  -8  -3  -3    2.96    3.43
  -8  -3  -3   -1.16    1.81
   8  -3   4   20.12    6.51
  -8  -3  -4   20.24    8.83
  -8  -3  -4   14.18    6.67
   8  -3   5   36.85    9.48
  -8  -3  -5   14.81    7.27
  -8  -3  -5   22.31    9.18
   8  -3   6   30.29    8.87
  -8  -3  -6   26.22   11.92
   8  -3   7   18.14    6.86
  -8  -3  -7   12.78    8.74
  -8  -3  -8    6.89    5.60
   8  -3   8    3.52    3.45
  -8  -3  -9   17.72   13.17
   8  -3   9    3.75    3.10
  -8  -3 -10   11.00    8.19
  -8  -4   9    0.24    2.65
   8  -4  -9    8.01    6.08
  -8  -4   8   46.29   16.52
  -8   4   8   58.67   12.53
  -8  -4   7   75.05   19.87
  -8   4   7   86.03   13.81
   8  -4  -7  132.52   21.70
  -8  -4   6    1.21    3.80
  -8   4   6    1.14    0.16
   8  -4  -6    1.06    1.62
  -8  -4   5   38.99   13.25
  -8   4   5   33.56    7.99
  -8  -4   4   18.89    7.84
  -8   4   4   25.13    6.88
  -8  -4   3    1.05    1.53
  -8   4   3    1.77    2.65
  -8   4   2  198.74   20.01
  -8  -4   2  251.35   31.33
  -8  -4   1    7.90    5.11
  -8   4   1    9.86    4.11
  -8   4   0  178.43   19.00
  -8  -4   0  253.04   32.56
   8  -4   1   30.13    7.67
  -8   4  -1   27.03    6.38
  -8  -4  -1   42.61   13.47
   8  -4   2   20.31    6.51
  -8  -4  -2   29.21   10.61
  -8  -4  -3   83.94   18.86
   8  -4   3   64.84   11.84
   8  -4   4    3.40    0.93
  -8  -4  -4    1.17    1.80
  -8  -4  -4    1.28    3.64
  -8  -4  -5   34.03   11.39
   8  -4   5   75.94   13.59
  -8  -4  -6   73.93   18.44
   8  -4   6  182.37   23.31
   8  -4   7    8.72    5.17
  -8  -4  -7    1.82    2.31
   8  -4   8   14.37    6.89
  -8  -4  -8   15.46    9.11
  -8  -4  -9    6.05    6.25
   8  -5  -8   29.43   12.73
  -8  -5   7   12.90    8.57
  -8   5   7   38.62    9.32
  -8  -5   6    6.63    6.44
  -8   5   6   11.25    5.37
  -8  -5   5    4.21    4.08
  -8   5   5   16.63    6.14
  -8  -5   4  111.34   22.85
  -8   5   4  143.49   17.71
  -8  -5   3    8.06    4.43
  -8   5   3   22.17    7.39
  -8  -5   2    6.61    5.56
  -8   5   2    1.37    2.88
  -8  -5   1    8.17    6.46
  -8   5   1    7.10    3.87
  -8  -5   0    4.85    4.11
  -8   5   0    4.43    2.97
  -8   5  -1  125.16   16.64
  -8  -5  -1  177.30   28.60
   8  -5   1  132.96   17.60
   8  -5   2    4.19    3.90
  -8  -5  -2   13.95   10.04
  -8  -5  -3    0.43    1.01
   8   5   3    0.08    1.71
   8  -5   4    4.98    3.41
   8   5   4   18.77    8.65
   8  -5   5   15.33    6.87
   8   5   5   16.49   11.71
   8  -5   6    7.44    5.86
   8   5   6   23.24   13.12
  -8   6   6    3.20    4.41
  -8   6   5    6.98    4.11
  -8  -6   4    9.23    7.07
  -8   6   4    4.42    4.56
  -8  -6   3    7.93    6.26
  -8   6   3    7.77    2.11
  -8   6   2   95.63   15.42
  -8  -6   2   89.10   21.24
  -8  -6   1    1.31    2.48
  -8   6   1    2.76    3.35
  -8   6   0   66.43   13.01
  -8  -6   0   78.49   20.77
   8   6   0   37.56   12.65
   8  -6   1   14.54    6.34
  -8   6  -1   18.78    7.56
  -8  -6  -1   17.74   11.00
   8   6   1   22.19   10.49
   8  -6   2   15.91    6.75
  -8   6  -2   11.10    5.80
   8   6   2   11.53    7.43
   8  -6   3   32.20    9.92
   8   6   3   27.35   11.83
  -8   7   4   22.37    7.91
  -8   7   3    6.87    4.69
  -8   7   2   -0.24    1.68
  -8   7   1   -0.82    1.43
  -8   7   0    4.04    3.85
  -8   7  -1   18.29    8.13
  -8   7  -2   -1.84    1.17
  -8   7  -3    1.74    3.96
  -9   0   9    0.92    4.78
  -9   0   8   10.94    6.64
  -9   0   7  199.93   22.70
  -9   0   6   15.78    6.26
  -9   0   5   13.20    5.45
  -9   0   5    3.05    3.14
  -9   0   4   11.30    4.50
  -9   0   4    3.08    3.16
  -9   0   3   53.92   10.51
  -9   0   3   17.79    7.27
  -9   0   2  146.38   18.57
  -9   0   2  129.68   21.03
  -9   0   1  107.23   14.81
  -9   0   1  132.86   21.43
  -9   0   0   -0.12    0.78
  -9   0   0    1.87    2.24
  -9   0  -1   21.07    8.63
  -9   0  -2  140.85   22.86
   9   0   2   45.21    8.17
   9   0   3    4.49    3.10
  -9   0  -3   14.10    7.06
  -9   0  -4   12.91    6.43
  -9   0  -5    5.22    3.97
  -9   0  -6   44.06   14.80
  -9   0  -7    8.23    3.89
  -9   0  -8   28.37   13.48
  -9  -1  10   64.45   16.91
  -9   1   9    5.75    4.83
  -9  -1   9    3.89    3.87
  -9   1   8   41.09   10.87
  -9  -1   8   31.63    9.81
  -9   1   7   -0.69    1.65
  -9  -1   7    0.68    2.08
  -9   1   6   54.74   10.67
  -9  -1   6   64.73   12.99
  -9   1   5   79.69   13.06
  -9  -1   5   82.51   13.83
  -9   1   4   19.93    7.33
  -9  -1   4   22.60    7.24
  -9  -1   4    6.92    4.25
  -9   1   4    8.95    5.52
  -9   1   3  228.93   22.27
  -9  -1   3  168.59   23.22
  -9   1   2  290.09   23.44
  -9  -1   2  366.05   28.09
  -9  -1   2  242.76   28.92
  -9   1   2  159.56   22.99
  -9   1   1    0.30    2.12
  -9  -1   1    2.35    2.10
  -9  -1   1    3.34    4.74
  -9   1   1   -4.80    4.93
  -9  -1   0  133.86   16.79
  -9  -1   0  121.06   20.58
  -9   1   0  157.04   23.98
  -9   1   0  111.43   14.76
  -9  -1  -1    8.48    4.84
  -9   1  -1   14.03    6.81
   9  -1   2    9.21    4.12
  -9  -1  -2   17.85    8.06
  -9   1  -2   21.98    9.40
  -9  -1  -3  258.65   31.73
  -9  -1  -3  427.04   41.41
  -9   1  -3  520.50   47.33
   9  -1   3  297.25   23.19
  -9  -1  -4   31.04   10.96
  -9  -1  -4   56.18   15.46
  -9   1  -4   74.81   17.88
   9  -1   4   41.32    8.60
  -9  -1  -5  115.48   22.47
   9  -1   5   57.11   10.37
   9  -1   6   33.33    9.01
  -9  -1  -6   57.80   17.59
   9  -1   7   10.13    5.81
  -9  -1  -7   10.50    7.60
   9  -1   8   16.69    6.82
  -9  -1  -8   52.11   19.28
  -9   1  -8   58.45   20.06
   9  -2 -11   46.65   15.23
   9  -2 -10    0.81    2.79
  -9  -2  10   -0.49    1.35
   9  -2  -9    4.51    3.45
  -9  -2   9    5.80    5.50
  -9   2   8    5.67    4.75
   9  -2  -8    1.28    3.89
  -9  -2   8    2.76    2.89
  -9   2   7  141.05   18.08
  -9  -2   7  102.55   17.90
   9  -2  -7  141.90   20.42
  -9   2   6    4.47    1.16
  -9  -2   6    3.72    4.06
   9  -2  -6    8.44    5.49
  -9   2   5    8.73    4.22
  -9  -2   5    5.61    3.69
  -9   2   4   -0.66    2.80
  -9  -2   4   -0.11    2.63
  -9   2   4    0.32    1.40
  -9   2   3   21.59    6.83
  -9  -2   3   32.28    8.52
  -9   2   3   11.07    6.03
  -9   2   2  145.88   15.80
  -9  -2   2  170.41   19.25
  -9  -2   2  102.23   17.70
  -9   2   2   61.23   14.82
  -9   2   1   58.05   10.29
  -9  -2   1   72.49   12.33
  -9  -2   1   75.08   15.99
  -9   2   1   55.64   14.59
  -9   2   0   -0.45    1.86
  -9  -2   0    4.90    3.64
  -9  -2   0    1.94    2.02
   9  -2   1   16.59    5.05
  -9  -2  -1   25.19    7.54
  -9  -2  -1   27.54   10.22
  -9  -2  -2   95.57   20.29
  -9  -2  -2   78.59   17.00
   9  -2   2   89.85   13.03
   9  -2   3   10.26    4.67
  -9  -2  -3    7.02    4.86
  -9  -2  -3    6.95    4.71
   9  -2   4    9.36    4.49
  -9  -2  -4    4.02    4.02
  -9  -2  -4   10.45    6.19
   9  -2   5    3.10    2.75
  -9  -2  -5    3.67    5.98
   9  -2   6   16.03    6.46
  -9  -2  -6   22.81   10.36
   9  -2   7    6.72    5.02
  -9  -2  -7    5.38    3.79
   9  -2   8    5.52    4.15
   9  -2   9    0.28    1.42
   9  -3 -10   41.44   15.19
   9  -3  -9    5.03    6.26
   9  -3  -8   14.67    7.58
  -9   3   7    0.36    2.96
   9  -3  -7    1.17    1.24
  -9   3   6   35.53    9.18
   9  -3  -6   33.11   10.43
  -9  -3   6   16.69    7.41
  -9   3   5   64.06   11.82
  -9  -3   5   24.74    7.90
  -9   3   4    9.84    4.98
  -9  -3   4    3.06    2.82
  -9  -3   3   57.97   11.89
  -9   3   3   59.24   15.65
  -9   3   2  231.85   21.46
  -9  -3   2  348.92   41.73
  -9  -3   1    3.34    2.55
  -9   3   1    1.09    1.99
  -9  -3   1   -0.40    1.34
  -9   3   0   53.64   11.50
  -9  -3   0   26.20    7.80
  -9  -3   0   56.93   14.53
   9  -3   1    8.61    3.89
  -9   3  -1    9.64    4.49
  -9  -3  -1    3.42    2.78
  -9  -3  -1   12.80    6.77
  -9  -3  -1   10.24    6.46
   9  -3   2   16.99    5.68
  -9  -3  -2   21.21   11.25
  -9  -3  -2   17.99    8.40
  -9  -3  -3  203.75   30.56
  -9  -3  -3  153.26   24.88
   9  -3   3  193.00   21.39
   9  -3   4   28.26    8.14
  -9  -3  -4   16.61    8.67
  -9  -3  -4   22.92   10.56
  -9  -3  -5   65.96   19.42
   9  -3   5   74.20   13.57
   9  -3   6   31.90    9.28
  -9  -3  -6   25.15   13.50
   9  -3   7    6.86    6.82
  -9  -3  -7   13.14    9.70
   9  -3   8   13.16    6.38
   9  -4  -8    1.94    4.59
   9  -4  -7   62.70   17.02
  -9  -4   6    3.67    6.39
  -9   4   6    7.60    3.65
  -9  -4   5   -0.06    5.64
  -9   4   5   -1.16    2.22
  -9  -4   4    2.59    2.59
  -9   4   4    5.83    4.33
  -9  -4   3   21.83   10.91
  -9   4   3    6.21    4.75
  -9   4   2   65.91   12.81
  -9  -4   2  106.32   23.32
  -9  -4   1   51.81   16.56
  -9   4   1   26.88    7.92
  -9  -4   0   -1.31    4.40
  -9   4   0    9.29    3.22
   9  -4   1   16.39    6.00
  -9   4  -1   21.04    7.34
  -9  -4  -1   20.43   11.78
   9  -4   2   45.42   10.46
  -9  -4  -2   55.52   17.29
   9  -4   3    3.63    2.94
  -9  -4  -3    4.68    5.22
   9  -4   4    5.86    3.66
  -9  -4  -4    3.63    4.40
  -9  -4  -4    3.71    4.21
   9  -4   5   -1.68    2.07
  -9  -4  -5    1.31    3.38
   9  -4   6    3.81    3.42
  -9   5   5   14.24    6.34
  -9   5   4    2.32    2.84
  -9   5   3   52.06   12.27
  -9  -5   3   74.16   21.51
  -9   5   2   87.70   15.71
  -9  -5   2   86.01   22.53
  -9  -5   1    3.37    3.23
  -9   5   1    2.09    3.23
  -9   5   0   45.99   11.24
  -9  -5   0   81.98   22.38
   9  -5   1    4.85    3.38
  -9   5  -1    3.02    2.06
  -9  -5  -1    4.86    5.17
   9  -5   2   -0.07    1.75
  -9   5  -2    4.77    3.65
  -9  -5  -2    4.56    5.01
   9  -5   3   34.42   10.35
  -9  -5  -3   54.09   18.19
  -9   6   1   11.31    6.55
  -9   6   0    2.58    3.81
 -10   0   7    5.07    4.64
 -10   0   6   13.05    6.09
 -10   0   5  213.97   25.55
 -10   0   4   31.89    9.50
 -10   0   4   20.73    9.38
 -10   0   3   30.78    9.38
 -10   0   3   19.95    9.68
 -10   0   2   12.54    5.46
 -10   0   2    2.87    3.38
 -10   0   1    7.30    4.84
 -10   0   1    6.69    6.07
 -10   0   0  117.93   19.71
 -10   0   0  124.17   24.86
 -10   0  -1   75.18   19.51
 -10   0  -1   64.33   14.25
 -10   0  -2   53.19   16.77
 -10   0  -3  146.17   27.74
 -10   0  -4    1.90    5.38
 -10   0  -5   10.85    7.90
 -10  -1   8    0.97    1.70
 -10  -1   7   -5.59    3.60
 -10  -1   6   61.12   14.62
 -10   1   6   51.48   12.39
 -10   1   5    5.07    3.68
 -10  -1   5    1.75    2.60
 -10   1   4   26.67    9.60
 -10  -1   4   17.44    7.08
 -10  -1   4   13.86    7.31
 -10   1   4   15.84    8.38
 -10   1   3   11.60    5.51
 -10  -1   3    9.67    5.10
 -10  -1   3    2.25    2.92
 -10   1   3    2.90    3.74
 -10   1   2   26.94    8.56
 -10  -1   2   16.13    7.06
 -10  -1   2    6.43    4.83
 -10   1   2   10.92    7.38
 -10   1   1   29.85    9.35
 -10  -1   1   20.97    7.17
 -10  -1   1   20.21    9.56
 -10   1   1   19.06    9.64
 -10   1   0   54.72   12.71
 -10  -1   0   27.81    9.32
 -10  -1   0   29.17   11.69
 -10   1   0   52.41   15.69
 -10   1  -1   -1.31    2.15
 -10  -1  -1   -3.46    3.95
 -10  -1  -1    4.36    6.05
 -10   1  -1    5.76    4.83
 -10  -1  -2   12.38    8.14
 -10  -1  -2   16.12    8.96
 -10   1  -2   16.57    8.93
 -10  -1  -3   14.51    8.26
 -10  -1  -3   27.19   11.91
 -10   1  -3   12.87    7.53
 -10  -1  -4   -1.64    3.22
 -10   1  -4   -0.57    4.96
 -10  -1  -5   47.91   16.17
 -10   1  -5   49.50   16.38
 -10  -2   8    6.60    5.23
 -10  -2   7    3.08    2.46
 -10  -2   6    7.08    5.46
 -10   2   5  221.81   24.76
 -10  -2   5   98.73   17.56
 -10   2   4   26.44    8.88
 -10  -2   4    6.55    4.65
 -10   2   3   32.98    8.45
 -10  -2   3   10.78    5.70
 -10   2   3   17.61    9.62
 -10   2   2   13.66    6.27
 -10  -2   2    6.50    4.08
 -10  -2   2    4.38    3.83
 -10   2   2    8.22    6.00
 -10   2   1   11.60    5.68
 -10  -2   1    6.75    4.27
 -10  -2   1    8.74    6.62
 -10   2   1    3.45    3.34
 -10   2   0   98.96   15.82
 -10  -2   0   51.84   13.08
 -10  -2   0  109.71   25.56
 -10  -2   0   41.78   14.42
 -10   2   0   85.63   21.55
 -10  -2  -1   54.49   12.42
 -10  -2  -1   84.72   21.57
 -10  -2  -1   52.86   16.90
 -10   2  -1   52.38   16.99
 -10   2  -1   77.47   13.59
 -10  -2  -2   21.41    7.64
 -10  -2  -2   30.90   12.59
 -10  -2  -2   58.09   17.51
 -10   2  -2   33.35   13.87
  10  -2   2   42.31    9.44
 -10  -2  -3   65.05   18.78
 -10  -2  -3  106.97   23.25
  10  -2   3   98.06   15.10
  10  -2   4    4.59    2.99
 -10  -2  -4    5.94    5.66
  10  -2   5    8.66    4.33
  10  -2   6    5.83    4.27
 -10  -3   4   25.65   12.79
 -10   3   4    3.83    1.61
 -10  -3   3    4.94    6.10
 -10   3   3    5.77    2.76
 -10  -3   2   20.13   11.73
 -10   3   2   10.10    5.26
 -10   3   2   23.61   11.42
 -10  -3   1   30.09   14.23
 -10   3   1   24.21    7.45
 -10   3   1   28.03   12.91
 -10  -3   0   28.44   13.49
 -10   3   0   25.47    7.80
 -10   3  -1   -4.23    2.68
 -10  -3  -1   -0.41    1.85
 -10  -3  -1    1.54    3.66
  10  -3   2   20.92    7.35
 -10  -3  -2   15.44    9.80
 -10  -3  -2   15.85    8.42
  10  -3   3   13.96    5.77
 -10  -3  -3    9.52    7.74
 -10  -3  -3   11.60    7.94
  10  -3   4    2.19    3.78
  10  -3   5   11.37    5.86
 -10  -4   1    3.22    1.04
 -10  -4   0   67.24   23.81
 -10  -4  -1   44.64   17.73
  10  -4   2   13.47    5.88
 -10  -4  -2   30.60   13.86
  10  -4   3   36.99   10.67
 -10  -4  -3   65.46   20.58
 -10  -4  -4    0.37    0.94
 -11   0   3   30.27   12.40
 -11   0   3   28.31   13.30
 -11   0   2   -2.06    4.33
 -11   0   2    0.45    2.48
 -11   0   1   29.61   11.59
 -11   0   1   21.60   11.98
 -11   0   0   11.50    7.24
 -11   0   0   11.63   10.63
 -11   0  -1    8.05    5.35
 -11   0  -1   16.41   10.61
 -11  -1   4   19.19    8.70
 -11  -1   3    2.54    2.93
 -11  -1   3    1.76    3.78
 -11   1   3    1.13    2.75
 -11  -1   2   14.92    8.32
 -11  -1   2   41.35   15.74
 -11   1   2   32.57   14.35
 -11  -1   1    6.66    5.91
 -11  -1   1   35.86   16.96
 -11   1   1   48.91   17.53
 -11  -1   0   36.07   12.69
 -11  -1   0   79.49   23.89
 -11   1   0   88.99   25.23
 -11  -1  -1    2.75    5.19
 -11  -1  -1   -2.76    3.68
 -11   1  -1    1.34    3.77
 -11  -1  -2   -1.48    1.87
 -11  -2   5    8.46    5.84
 -11  -2   4    0.94    0.80
 -11  -2   3   22.21    8.90
 -11  -2   2    2.48    3.61
 -11   2   2    1.73    3.96
 -11  -2   1   36.94   17.61
 -11  -2   1   22.33   10.04
 -11   2   1   49.01   18.36
 -11  -2   0   10.68    9.46
 -11  -2   0    5.78    5.43
 -11   2   0   13.01    9.13
 -11  -2  -1   10.85    8.75
 -11  -2  -1    4.91    4.50
 -11  -2  -2   13.53    8.82
 -11  -2  -2   10.51    6.78
 -11  -2  -3    1.72    1.70
 -11   3   1   16.83   10.81
   0   0   0    0.00    0.00
_computing_structure_solution     'SHELXT 2014/5 (Sheldrick, 2014)'
;
_shelx_hkl_checksum              16619
_shelx_res_file
;
TITL pats11_a.res in P2(1)/m
    pats11.res
    created by SHELXL-2016/6 at 11:43:54 on 24-Sep-2021
REM Old TITL pats11 in P2(1)/m
REM SHELXT solution in P2(1)/m
REM R1 0.202, Rweak 0.027, Alpha 0.021, Orientation as input
REM Formula found by SHELXT: C12 N I1
CELL 0.71073 8.3507 7.3719 11.718 90 92.755 90
ZERR 2 0.0006 0.0005 0.0008 0 0.006 0
LATT 1
SYMM -X,0.5+Y,-Z
SFAC C H Br I N
UNIT 24 28 4 2 2
L.S. 4
PLAN  4
SIZE 0.4 0.2 0.1
CONF
BOND $H
list 4
MORE -1
fmap 2
acta
OMIT -2 50
OMIT 2 0 1
REM <olex2.extras>
REM <HklSrc "%.\\pats11.hkl">
REM </olex2.extras>
WGHT    0.073200    0.144300
FVAR       0.45269
I1    4    0.706492    0.750000    0.122146    10.50000    0.05292    0.04572 =
         0.04636    0.00000    0.00919    0.00000
BR1   3    0.575461    0.250000    0.652825    10.50000    0.04098    0.06578 =
         0.03763    0.00000    0.01557    0.00000
BR2   3    1.197559    0.250000    0.495231    10.50000    0.02818    0.05466 =
         0.05317    0.00000   -0.00248    0.00000
N1    5    0.708258    0.250000    0.212922    10.50000    0.03411    0.03764 =
         0.02753    0.00000   -0.00578    0.00000
C1    1    0.746373    0.250000    0.330478    10.50000    0.02416    0.04182 =
         0.02683    0.00000   -0.00110    0.00000
C2    1    0.642937    0.250000    0.417080    10.50000    0.02817    0.04107 =
         0.03275    0.00000    0.00425    0.00000
AFIX  43
H2    2    0.532393    0.250000    0.402939    10.50000   -1.20000
AFIX   0
C3    1    0.711308    0.250000    0.527471    10.50000    0.03583    0.04053 =
         0.03254    0.00000    0.00908    0.00000
C4    1    0.873270    0.250000    0.547186    10.50000    0.03757    0.03843 =
         0.02376    0.00000   -0.00382    0.00000
AFIX  43
H4    2    0.915491    0.250000    0.622086    10.50000   -1.20000
AFIX   0
C5    1    0.976290    0.250000    0.458491    10.50000    0.03074    0.03354 =
         0.03210    0.00000    0.00084    0.00000
C6    1    0.912956    0.250000    0.346845    10.50000    0.02882    0.03297 =
         0.03347    0.00000    0.00456    0.00000
C7    1    0.982273    0.250000    0.229114    10.50000    0.03786    0.03146 =
         0.03031    0.00000    0.01397    0.00000
C8    1    0.833694    0.250000    0.151287    10.50000    0.04024    0.03475 =
         0.02972    0.00000    0.00698    0.00000
C9    1    1.082988    0.419417    0.208428    11.00000    0.04582    0.04673 =
         0.04224    0.00703    0.01166   -0.00172
AFIX 137
H9A   2    1.017880    0.525689    0.215897    11.00000   -1.50000
H9B   2    1.122463    0.414922    0.132876    11.00000   -1.50000
H9C   2    1.171753    0.423837    0.263544    11.00000   -1.50000
AFIX   0
C10   1    0.829993    0.250000    0.026473    10.50000    0.05758    0.05200 =
         0.03576    0.00000    0.00574    0.00000
PART -1
AFIX 137
H10A  2    0.929629    0.203613    0.001073    10.50000   -1.50000
H10B  2    0.814457    0.371640   -0.001140    10.50000   -1.50000
H10C  2    0.743463    0.174747   -0.002504    10.50000   -1.50000
AFIX   0
PART 0
C11   1    0.543099    0.250000    0.165927    10.50000    0.03835    0.07018 =
         0.04541    0.00000   -0.00033    0.00000
PART -1
AFIX 137
H11A  2    0.541464    0.284350    0.086856    10.50000   -1.50000
H11B  2    0.480906    0.334906    0.207372    10.50000   -1.50000
H11C  2    0.498349    0.130744    0.172659    10.50000   -1.50000
AFIX   0
HKLF 4
REM  pats11_a.res in P2(1)/m
REM R1 =  0.0457 for    1242 Fo > 4sig(Fo)  and  0.0493 for all    1374 data
REM     97 parameters refined using      0 restraints
END
WGHT      0.0732      0.1443
REM Highest difference peak  0.855,  deepest hole -0.914,  1-sigma level  0.223
Q1    1   0.7806  0.7500  0.1806  10.50000  0.05    0.85
Q2    1   0.5000  0.5000  0.0000  10.50000  0.05    0.65
Q3    1   0.6091 -0.0602  0.1643  11.00000  0.05    0.62
Q4    1   0.4787 -0.0513  0.1638  11.00000  0.05    0.60
;
_shelx_res_checksum              55909
loop_
_space_group_symop_operation_xyz
'x, y, z'
'-x, y+1/2, -z'
'-x, -y, -z'
'x, -y-1/2, z'
loop_
_atom_site_type_symbol
_atom_site_label
_atom_site_fract_x
_atom_site_fract_y
_atom_site_fract_z
_atom_site_U_iso_or_equiv
_atom_site_adp_type
_atom_site_calc_flag
_atom_site_occupancy
_atom_site_disorder_assembly
_atom_site_disorder_group
I I1 0.70649(6) 0.750000 0.12215(4) 0.0481(3) Uani d 1 . .
Br Br1 0.57546(9) 0.250000 0.65282(7) 0.0477(3) Uani d 1 . .
Br Br2 1.19756(8) 0.250000 0.49523(7) 0.0455(3) Uani d 1 . .
N N1 0.7083(7) 0.250000 0.2129(5) 0.0333(13) Uani d 1 . .
C C1 0.7464(7) 0.250000 0.3305(5) 0.0310(15) Uani d 1 . .
C C2 0.6429(8) 0.250000 0.4171(6) 0.0339(15) Uani d 1 . .
H H2 0.532393 0.250000 0.402939 0.041 Uiso calc 1 . .
C C3 0.7113(9) 0.250000 0.5275(6) 0.0361(16) Uani d 1 . .
C C4 0.8733(8) 0.250000 0.5472(6) 0.0334(15) Uani d 1 . .
H H4 0.915491 0.250000 0.622086 0.040 Uiso calc 1 . .
C C5 0.9763(8) 0.250000 0.4585(6) 0.0321(14) Uani d 1 . .
C C6 0.9130(8) 0.250000 0.3468(6) 0.0317(15) Uani d 1 . .
C C7 0.9823(9) 0.250000 0.2291(6) 0.0328(15) Uani d 1 . .
C C8 0.8337(9) 0.250000 0.1513(6) 0.0347(16) Uani d 1 . .
C C9 1.0830(6) 0.4194(8) 0.2084(5) 0.0446(12) Uani d 1 . .
H H9A 1.017880 0.525689 0.215897 0.067 Uiso calc 1 . .
H H9B 1.122463 0.414922 0.132876 0.067 Uiso calc 1 . .
H H9C 1.171753 0.423837 0.263544 0.067 Uiso calc 1 . .
C C10 0.8300(11) 0.250000 0.0265(7) 0.0483(19) Uani d 1 . .
H H10A 0.929629 0.203613 0.001073 0.073 Uiso calc 0.5 A -1
H H10B 0.814457 0.371640 -0.001140 0.073 Uiso calc 0.5 A -1
H H10C 0.743463 0.174747 -0.002504 0.073 Uiso calc 0.5 A -1
C C11 0.5431(10) 0.250000 0.1659(8) 0.051(2) Uani d 1 . .
H H11A 0.541464 0.284350 0.086856 0.077 Uiso calc 0.5 B -1
H H11B 0.480906 0.334906 0.207372 0.077 Uiso calc 0.5 B -1
H H11C 0.498349 0.130744 0.172659 0.077 Uiso calc 0.5 B -1
loop_
_atom_site_aniso_label
_atom_site_aniso_U_11
_atom_site_aniso_U_22
_atom_site_aniso_U_33
_atom_site_aniso_U_12
_atom_site_aniso_U_13
_atom_site_aniso_U_23
I1 0.0529(4) 0.0457(4) 0.0464(4) 0.000 0.0092(3) 0.000
Br1 0.0410(5) 0.0658(6) 0.0376(5) 0.000 0.0156(4) 0.000
Br2 0.0282(5) 0.0547(5) 0.0532(5) 0.000 -0.0025(4) 0.000
N1 0.034(3) 0.038(3) 0.028(3) 0.000 -0.006(2) 0.000
C1 0.024(4) 0.042(4) 0.027(3) 0.000 -0.001(3) 0.000
C2 0.028(3) 0.041(4) 0.033(4) 0.000 0.004(3) 0.000
C3 0.036(4) 0.041(4) 0.033(4) 0.000 0.009(3) 0.000
C4 0.038(4) 0.038(4) 0.024(3) 0.000 -0.004(3) 0.000
C5 0.031(4) 0.034(3) 0.032(3) 0.000 0.001(3) 0.000
C6 0.029(4) 0.033(4) 0.033(4) 0.000 0.005(3) 0.000
C7 0.038(4) 0.031(3) 0.030(4) 0.000 0.014(3) 0.000
C8 0.040(4) 0.035(4) 0.030(4) 0.000 0.007(3) 0.000
C9 0.046(3) 0.047(3) 0.042(3) -0.002(2) 0.012(2) 0.007(2)
C10 0.058(5) 0.052(5) 0.036(4) 0.000 0.006(4) 0.000
C11 0.038(5) 0.070(6) 0.045(5) 0.000 0.000(4) 0.000
loop_
_atom_type_symbol
_atom_type_description
_atom_type_scat_dispersion_real
_atom_type_scat_dispersion_imag
_atom_type_scat_source
C C 0.0033 0.0016 'International Tables Vol C Tables 4.2.6.8 and 6.1.1.4'
H H 0.0000 0.0000 'International Tables Vol C Tables 4.2.6.8 and 6.1.1.4'
Br Br -0.2901 2.4595 'International Tables Vol C Tables 4.2.6.8 and 6.1.1.4'
I I -0.4742 1.8119 'International Tables Vol C Tables 4.2.6.8 and 6.1.1.4'
N N 0.0061 0.0033 'International Tables Vol C Tables 4.2.6.8 and 6.1.1.4'
loop_
_geom_angle_atom_site_label_1
_geom_angle_atom_site_label_2
_geom_angle_atom_site_label_3
_geom_angle_site_symmetry_1
_geom_angle_site_symmetry_3
_geom_angle
_geom_angle_publ_flag
C1 N1 C11 . . 122.5(6) ?
C8 N1 C1 . . 113.3(6) ?
C8 N1 C11 . . 124.2(7) ?
C2 C1 N1 . . 127.6(6) ?
C2 C1 C6 . . 124.1(6) ?
C6 C1 N1 . . 108.3(6) ?
C1 C2 H2 . . 121.7 ?
C1 C2 C3 . . 116.5(6) ?
C3 C2 H2 . . 121.7 ?
C2 C3 Br1 . . 119.1(5) ?
C4 C3 Br1 . . 119.6(5) ?
C4 C3 C2 . . 121.3(6) ?
C3 C4 H4 . . 119.3 ?
C3 C4 C5 . . 121.5(6) ?
C5 C4 H4 . . 119.3 ?
C4 C5 Br2 . . 118.0(5) ?
C4 C5 C6 . . 119.1(6) ?
C6 C5 Br2 . . 122.9(5) ?
C1 C6 C7 . . 107.2(6) ?
C5 C6 C1 . . 117.5(6) ?
C5 C6 C7 . . 135.3(6) ?
C6 C7 C9 . 4_565 112.3(4) ?
C6 C7 C9 . . 112.3(4) ?
C8 C7 C6 . . 102.2(5) ?
C8 C7 C9 . . 110.3(4) ?
C8 C7 C9 . 4_565 110.3(4) ?
C9 C7 C9 . 4_565 109.3(6) ?
N1 C8 C7 . . 109.0(6) ?
N1 C8 C10 . . 125.2(7) ?
C10 C8 C7 . . 125.7(6) ?
C7 C9 H9A . . 109.5 ?
C7 C9 H9B . . 109.5 ?
C7 C9 H9C . . 109.5 ?
H9A C9 H9B . . 109.5 ?
H9A C9 H9C . . 109.5 ?
H9B C9 H9C . . 109.5 ?
C8 C10 H10A . . 109.5 ?
C8 C10 H10B . . 109.5 ?
C8 C10 H10C . . 109.5 ?
H10A C10 H10B . . 109.5 ?
H10A C10 H10C . . 109.5 ?
H10B C10 H10C . . 109.5 ?
N1 C11 H11A . . 109.5 ?
N1 C11 H11B . . 109.5 ?
N1 C11 H11C . . 109.5 ?
H11A C11 H11B . . 109.5 ?
H11A C11 H11C . . 109.5 ?
H11B C11 H11C . . 109.5 ?
loop_
_geom_bond_atom_site_label_1
_geom_bond_atom_site_label_2
_geom_bond_site_symmetry_2
_geom_bond_distance
_geom_bond_publ_flag
Br1 C3 . 1.899(7) ?
Br2 C5 . 1.877(7) ?
N1 C1 . 1.399(8) ?
N1 C8 . 1.301(9) ?
N1 C11 . 1.460(10) ?
C1 C2 . 1.364(10) ?
C1 C6 . 1.395(9) ?
C2 H2 . 0.9300 ?
C2 C3 . 1.389(10) ?
C3 C4 . 1.361(10) ?
C4 H4 . 0.9300 ?
C4 C5 . 1.381(10) ?
C5 C6 . 1.387(10) ?
C6 C7 . 1.522(9) ?
C7 C8 . 1.504(10) ?
C7 C9 . 1.532(7) ?
C7 C9 4_565 1.532(7) ?
C8 C10 . 1.461(10) ?
C9 H9A . 0.9600 ?
C9 H9B . 0.9600 ?
C9 H9C . 0.9600 ?
C10 H10A . 0.9600 ?
C10 H10B . 0.9600 ?
C10 H10C . 0.9600 ?
C11 H11A . 0.9600 ?
C11 H11B . 0.9600 ?
C11 H11C . 0.9600 ?
loop_
_geom_hbond_atom_site_label_D
_geom_hbond_atom_site_label_H
_geom_hbond_atom_site_label_A
_geom_hbond_site_symmetry_A
_geom_hbond_distance_DH
_geom_hbond_distance_HA
_geom_hbond_distance_DA
_geom_hbond_angle_DHA
C2 H2 Br2 1_455 0.93 3.05 3.8720(10) 149
C5 Br2 Br1 1_655 1.877(7) 3.58 5.3970(10) 162
C3 Br1 I1 3_666 1.899(7) 3.62 5.5140(10) 176
C11 H11A I1 3_665 0.96 3.14 3.8810(10) 135
loop_
_geom_torsion_atom_site_label_1
_geom_torsion_atom_site_label_2
_geom_torsion_atom_site_label_3
_geom_torsion_atom_site_label_4
_geom_torsion_site_symmetry_1
_geom_torsion_site_symmetry_2
_geom_torsion_site_symmetry_3
_geom_torsion_site_symmetry_4
_geom_torsion
_geom_torsion_publ_flag
Br1 C3 C4 C5 . . . . 180.000(2) ?
Br2 C5 C6 C1 . . . . 180.0000(10) ?
Br2 C5 C6 C7 . . . . 0.000(2) ?
N1 C1 C2 C3 . . . . 180.0000(10) ?
N1 C1 C6 C5 . . . . 180.0000(10) ?
N1 C1 C6 C7 . . . . 0.0000(10) ?
C1 N1 C8 C7 . . . . 0.0000(10) ?
C1 N1 C8 C10 . . . . 180.000000 ?
C1 C2 C3 Br1 . . . . 180.0000(10) ?
C1 C2 C3 C4 . . . . 0.000(2) ?
C1 C6 C7 C8 . . . . 0.0000(10) ?
C1 C6 C7 C9 . . . 4_565 -118.2(4) ?
C1 C6 C7 C9 . . . . 118.2(4) ?
C2 C1 C6 C5 . . . . 0.0000(10) ?
C2 C1 C6 C7 . . . . 180.0000(10) ?
C2 C3 C4 C5 . . . . 0.000(2) ?
C3 C4 C5 Br2 . . . . 180.0000(10) ?
C3 C4 C5 C6 . . . . 0.000(2) ?
C4 C5 C6 C1 . . . . 0.0000(10) ?
C4 C5 C6 C7 . . . . 180.0000(10) ?
C5 C6 C7 C8 . . . . 180.0000(10) ?
C5 C6 C7 C9 . . . . -61.8(4) ?
C5 C6 C7 C9 . . . 4_565 61.8(4) ?
C6 C1 C2 C3 . . . . 0.0000(10) ?
C6 C7 C8 N1 . . . . 0.0000(10) ?
C6 C7 C8 C10 . . . . 180.0000(10) ?
C8 N1 C1 C2 . . . . 180.0000(10) ?
C8 N1 C1 C6 . . . . 0.0000(10) ?
C9 C7 C8 N1 4_565 . . . 119.6(4) ?
C9 C7 C8 N1 . . . . -119.6(4) ?
C9 C7 C8 C10 4_565 . . . -60.4(4) ?
C9 C7 C8 C10 . . . . 60.4(4) ?
C11 N1 C1 C2 . . . . 0.0000(10) ?
C11 N1 C1 C6 . . . . 180.0000(10) ?
C11 N1 C8 C7 . . . . 180.0000(10) ?
C11 N1 C8 C10 . . . . 0.0000(10) ?

_cod_database_fobs_code 2243993
