#------------------------------------------------------------------------------
#$Date: 2020-03-14 08:02:46 +0200 (Sat, 14 Mar 2020) $
#$Revision: 249387 $
#$URL: file:///home/coder/svn-repositories/cod/cif/2/24/33/2243317.cif $
#------------------------------------------------------------------------------
#
# This file is available in the Crystallography Open Database (COD),
# http://www.crystallography.net/. The original data for this entry
# were provided by IUCr Journals, http://journals.iucr.org/.
#
# The file may be used within the scientific community so long as
# proper attribution is given to the journal article from which the
# data were obtained.
#
data_2243317
loop_
_publ_author_name
'Assoumatine, Tokour\'e'
'Stoeckli-Evans, Helen'
_publ_section_title
;
 Silver(I) nitrate two-dimensional coordination polymers of two new
 pyrazinethiophane ligands:
 5,7-dihydro-1<i>H</i>,3<i>H</i>-dithieno[3,4-<i>b</i>:3',4'-<i>e</i>]pyrazine
 and
 3,4,8,10,11,13-hexahydro-1<i>H</i>,6<i>H</i>-bis([1,4]dithiocino)[6,7-<i>b</i>:6',7'-<i>e</i>]pyrazine
;
_journal_coeditor_code           LH5951
_journal_issue                   4
_journal_name_full               'Acta Crystallographica Section E'
_journal_page_first              539
_journal_page_last               546
_journal_paper_doi               10.1107/S205698902000362X
_journal_volume                  76
_journal_year                    2020
_chemical_formula_iupac          '[Ag (N O3) (C8 H8 N2 S2)]'
_chemical_formula_moiety         'C8 H8 N2 S2'
_chemical_formula_sum            'C8 H8 N2 S2'
_chemical_formula_weight         196.28
_chemical_name_systematic
Poly[(\m-5,7-dihydro-1<i>H</i>,3<i>H</i>-dithieno[3,4-<i>b</i>;3',4'-<i>e</i>]pyrazine-\k^2^<i>S</i>:<i>S</i>')(\m-nitrato-\k^2^<i>O</i>:<i>O</i>')silver(I)]
_space_group_crystal_system      monoclinic
_space_group_IT_number           14
_space_group_name_Hall           '-P 2yn'
_space_group_name_H-M_alt        'P 1 21/n 1'
_atom_sites_solution_hydrogens   geom
_atom_sites_solution_primary     direct
_atom_sites_solution_secondary   difmap
_audit_creation_method           SHELXL-2018/3
_cell_angle_alpha                90
_cell_angle_beta                 95.780(12)
_cell_angle_gamma                90
_cell_formula_units_Z            2
_cell_length_a                   4.1027(4)
_cell_length_b                   12.1789(18)
_cell_length_c                   8.1014(8)
_cell_measurement_reflns_used    3541
_cell_measurement_temperature    223(2)
_cell_measurement_theta_max      25.70
_cell_measurement_theta_min      3.05
_cell_volume                     402.74(8)
_computing_cell_refinement
;
CELL in IPDS1 (Stoe & Cie, 1998)
;
_computing_data_collection
;
EXPOSE in IPDS1 (Stoe & Cie, 1998)
;
_computing_data_reduction
;
INTEGRATE in IPDS1 (Stoe & Cie, 1998)
;
_computing_molecular_graphics
;
Mercury (Macrae <i>et al.</i>,  2020)
;
_computing_publication_material
;
<i>SHELXL-2018/3</i> (Sheldrick, 2015), PLATON (Spek, 2020) and
publcif (Westrip, 2010)
;
_computing_structure_refinement
;
<i>SHELXL-2018/3</i> (Sheldrick, 2015)
;
_computing_structure_solution
;
SHELXS-97 (Sheldrick, 2008)
;
_diffrn_ambient_temperature      223(2)
_diffrn_detector                 'image plate'
_diffrn_measured_fraction_theta_full 0.982
_diffrn_measured_fraction_theta_max 0.979
_diffrn_measurement_device       '1 circle goniometer'
_diffrn_measurement_device_type  'STOE IPDS 1'
_diffrn_measurement_method       '\f rotation'
_diffrn_radiation_monochromator  'plane graphite'
_diffrn_radiation_source         'fine-focus sealed tube'
_diffrn_radiation_type           MoK\a
_diffrn_radiation_wavelength     0.71073
_diffrn_reflns_av_R_equivalents  0.1590
_diffrn_reflns_av_unetI/netI     0.0983
_diffrn_reflns_limit_h_max       4
_diffrn_reflns_limit_h_min       -4
_diffrn_reflns_limit_k_max       14
_diffrn_reflns_limit_k_min       -14
_diffrn_reflns_limit_l_max       9
_diffrn_reflns_limit_l_min       -9
_diffrn_reflns_number            3025
_diffrn_reflns_theta_full        25.242
_diffrn_reflns_theta_max         25.748
_diffrn_reflns_theta_min         3.031
_exptl_absorpt_coefficient_mu    0.596
_exptl_absorpt_correction_type   none
_exptl_crystal_colour            colourless
_exptl_crystal_density_diffrn    1.619
_exptl_crystal_description       rod
_exptl_crystal_F_000             204
_exptl_crystal_size_max          0.45
_exptl_crystal_size_mid          0.13
_exptl_crystal_size_min          0.10
_refine_diff_density_max         0.770
_refine_diff_density_min         -0.546
_refine_ls_extinction_method     none
_refine_ls_goodness_of_fit_ref   1.026
_refine_ls_hydrogen_treatment    constr
_refine_ls_matrix_type           full
_refine_ls_number_parameters     55
_refine_ls_number_reflns         744
_refine_ls_number_restraints     0
_refine_ls_restrained_S_all      1.026
_refine_ls_R_factor_all          0.0849
_refine_ls_R_factor_gt           0.0736
_refine_ls_shift/su_max          0.000
_refine_ls_shift/su_mean         0.000
_refine_ls_structure_factor_coef Fsqd
_refine_ls_weighting_details
'w=1/[\s^2^(Fo^2^)+(0.1296P)^2^] where P=(Fo^2^+2Fc^2^)/3'
_refine_ls_weighting_scheme      calc
_refine_ls_wR_factor_gt          0.1719
_refine_ls_wR_factor_ref         0.1804
_reflns_number_gt                590
_reflns_number_total             744
_reflns_threshold_expression     'I > 2\s(I)'
_cod_data_source_file            lh5951sup1.cif
_cod_data_source_block           L1
_cod_original_sg_symbol_H-M      'P 21/n'
_cod_database_code               2243317
_shelx_space_group_comment
;
The symmetry employed for this shelxl refinement is uniquely defined
by the following loop, which should always be used as a source of
symmetry information in preference to the above space-group names.
They are only intended as comments.
;
_shelx_estimated_absorpt_t_min   0.775
_shelx_estimated_absorpt_t_max   0.943
_shelx_hkl_file
;
  -2   2   4   23.14    4.69   2
  -2   3   5 1563.67   12.37   2
   0   0  -4 6728.73   25.42   2
   3   6  -7    0.38    8.61   2
  -3   2   3    8.29    7.80   3
  -3   3  -7   67.35   14.99   3
  -3   5   6    7.21   10.43   3
  -1   0   1  398.15   11.27   3
  -1   4   6  233.27    9.82   3
   1   6   6  704.57   12.67   3
   2   2  -3 2280.27   16.44   3
   2   3  -6  751.11   10.86   3
   2   9   6   10.41   14.52   3
  -2   4   6   71.11    5.79   3
  -1   1   3  147.40    5.68   3
   0   1  -6  231.43    6.15   3
   1   8   7  169.51   10.01   3
   4   8  -3   50.61   17.78   3
   4   8  -2    3.33   15.77   3
  -4   4   4  115.46   11.30   4
  -4   5   5   34.13   12.45   4
  -2   2  -7  236.14   11.76   4
  -2   3  -8   36.78   12.77   4
   0   6   7   83.07    9.67   4
   2   2  -2  102.46    6.63   4
   2   4  -7    2.61    8.93   4
   2   5  -8   20.03   11.96   4
   3   5  -5   33.63    9.17   4
  -3   6   7   -8.08   10.15   4
  -2   7   8   -7.33   10.14   4
  -1   7   8   47.42    9.11   4
   0   4  -9    3.40    8.51   4
   0   8   8   11.76   10.04   4
  -4   2   0    9.37   11.47   4
  -2   0  -3    7.19    8.43   4
  -4   3   3  465.08   14.30   5
  -2   1   3   94.78    7.33   5
  -2   5   7    7.83   10.28   5
  -1   0  -4   29.07    5.99   5
  -1   1  -6 1090.85   12.99   5
  -1   4  -9   20.27   14.88   5
  -1   5   7  139.37    9.79   5
   0   0  -3    5.67    6.32   5
   0   2  -7  426.29    9.56   5
   0   2   4   98.62    6.55   5
   0   3   5  210.14    8.41   5
   1   1  -4  816.40   10.48   5
   1   2  -6   51.38    6.54   5
   1   5  -9   -1.22   13.18   5
   0   3  -8  337.71    8.23   5
   3   6  -6  325.60    9.35   5
  -3   3   5  526.01   11.07   6
  -1   2  -7    1.68    8.89   6
  -1   3  -8  732.43   13.72   6
   0   4   6   87.31    8.40   6
   1   3  -7  916.15   11.59   6
   1   4  -8   -6.49   10.36   6
   2   3  -5 1914.48   14.59   6
   2   8   6   52.54   12.47   6
   3   5  -4 1137.67   14.48   6
  -3   4   6    4.97    7.26   6
   1   7   7    0.58    7.48   6
  -4   2   1  135.10   12.67   6
   2   5   4   95.98   10.16   6
  -3   1   2   -0.14    6.96   7
  -3   2   4  228.80    9.34   7
  -2   0   1   14.86    5.98   7
  -2   1  -5  264.63    9.40   7
  -2   6   8    4.68   12.10   7
   0   7   8  165.11   13.27   7
   1   3   4  497.34   10.03   7
   1   4   5  448.33    9.60   7
   2   4   3   70.40    7.44   7
   2   6  -8    6.11   12.15   7
  -3   5   7   20.31    8.66   7
  -1   6   8  464.31   10.54   7
   0   1  -5 1044.58   10.51   7
   1   1  -3  127.53    6.05   7
   2   4  -6   46.51    5.70   7
   2   5  -7    3.85    7.25   7
   3   7   3   76.58   14.13   7
   3   5   0  150.05   11.84   7
  -4   4   5   -2.66   12.18   8
  -3   2  -5    9.32    9.31   8
  -2   2   5   58.89    6.75   8
  -2   3   6  981.27   11.68   8
  -2   4  -8   19.23   14.53   8
  -1   2   5   63.44    6.72   8
  -1   3   6 2570.62   17.00   8
   0   0  -2 1960.83   19.33   8
   0   5  -9   58.56   13.69   8
   0   5   7 2814.84   21.07   8
   1   5   6  101.06    8.29   8
   2   6   5   97.39    9.94   8
   3   5  -3  153.76    8.81   8
   3   6  -5    5.63   10.36   8
  -2   4   7    1.80    6.31   8
   0   1   3 2936.37   18.93   8
   1   2  -5   35.42    4.87   8
   2   3  -4  192.32    6.08   8
   3   7  -6    5.15    8.45   8
  -4   2   2    0.14    9.28   9
  -4   3   4  165.36   11.43   9
  -3   3  -6   54.81   12.54   9
  -2   2  -6    3.60    9.11   9
  -2   3  -7   21.70   10.64   9
  -1   0  -3  645.11   11.49   9
  -1   4   7    9.45    8.87   9
  -1   1   4  669.08    8.53   9
   0   2  -6   16.36    4.58   9
   0   4  -8    8.95    7.24   9
   1   5  -8   23.92    7.44   9
   2   7  -8   -2.18    9.99   9
  -4   3  -4   61.11   16.29   9
  -3   1  -3  148.19   13.32   9
   3   8   4   -0.54   14.72   9
  -3   1   3  330.35    9.16  10
  -2   1   4  807.04   10.42  10
  -2   5   8   19.19   11.99  10
  -1   0   2   -5.20    5.57  10
  -1   1  -5  301.72    8.41  10
  -1   4  -8   16.76   10.79  10
   0   3  -7 1615.54   14.69  10
   0   6   8   39.88   10.72  10
   1   1  -2 2130.90   18.05  10
   1   2   3   35.25    6.23  10
   1   3  -6 2368.17   16.12  10
   3   5  -2   89.71    8.52  10
   3   5  -1   10.51    7.86  10
  -3   3   6    2.90    6.41  10
  -1   5   8   35.82    7.59  10
   0   0  -1    1.29    5.28  10
   1   4  -7    3.75    6.21  10
   1   6   7  247.19    8.90  10
  -3   4   7  617.84   14.38  11
  -2   0   2 2421.04   18.27  11
  -1   2  -6 1706.07   14.90  11
  -1   3  -7  209.29   10.60  11
   0   3   6  422.33    9.99  11
   2   4  -5  271.51    9.49  11
   2   6  -7  663.49   13.31  11
   2   7   6  183.71   11.91  11
   3   6  -4  195.55   10.38  11
  -3   2   5    7.62    6.45  11
   2   3  -3  666.63    9.45  11
   2   5  -6   59.68    6.68  11
   3   8  -6   -0.19   10.05  11
  -4   2   3  209.87   11.32  12
   0   1  -4   38.10    5.99  12
   0   2   5 4749.86   21.51  12
   0   4   7   53.06    9.15  12
   1   1  -1  671.22   13.75  12
   3   7  -5   47.12   10.82  12
  -4   3   5   -5.80    8.95  12
  -2   2   6   -2.77    5.50  12
  -2   3   7    2.79    6.34  12
   1   6  -8  344.18    9.43  12
  -2   0  -2 3442.68   37.73  12
  -2   1  -4  160.99    8.12  13
  -1   2   6   46.80    6.68  13
  -1   3   7 1148.07   13.32  13
   0   5  -8   63.78   10.71  13
   1   2  -4 3680.39   19.32  13
   1   7   8  -11.31   14.31  13
  -2   4   8  612.42   10.72  13
   1   4   6   84.90    6.05  13
   1   1   0   77.20   10.34  13
  -3   1   4  316.39    9.51  14
  -2   0   3   -0.30    5.56  14
  -2   1   5  815.16   10.19  14
  -2   4  -7   87.52   11.21  14
  -1   4   8    0.10   10.31  14
  -1   5  -8 1145.49   18.74  14
   0   5   8   61.97   10.92  14
   1   3   5  511.73    9.71  14
   1   5  -7  113.54    9.53  14
   2   7  -7   22.56   10.73  14
   3   6  -3  162.08    9.32  14
  -1   0   3 5197.56   23.33  14
  -1   1   5  505.98    7.76  14
   0   1   4   40.16    4.78  14
   0   2  -5 2777.41   15.99  14
   0   4  -7   35.68    5.71  14
   1   3  -5  352.51    7.09  14
   2   4  -4   -0.95    4.45  14
  -4   2   4   69.95   11.18  15
  -3   2   6  371.92   10.68  15
  -3   3   7  132.86   11.18  15
   0   3  -6  422.57    9.71  15
   1   4  -6  208.53    9.13  15
   1   5   7    6.95    9.21  15
   1   7  -8   67.28   12.60  15
   2   3  -2    8.25    5.45  15
   2   5   5  421.48   11.05  15
   2   6  -6   10.81    9.16  15
   3   7  -4    3.04    9.17  15
   3   8  -5  349.79   13.57  15
  -2   3  -6  154.92    7.54  15
  -1   1  -4  516.22    8.45  15
   2   5  -5 1558.73   12.76  15
  -4   3   6  140.16   15.11  16
  -3   2  -4   56.45    9.73  16
  -3   4  -6    3.15   12.47  16
  -2   2  -5   15.62    7.75  16
  -1   0  -2   11.69    6.94  16
  -1   4  -7   56.21    9.64  16
  -1   5   9    0.50   14.14  16
   0   0   1    0.62    6.99  16
   0   6  -8   34.14   10.70  16
   2   6   6   27.19   10.85  16
   2   8  -7    4.72   11.99  16
   0   3   7 1386.06   13.10  16
   1   2   4   -2.04    3.81  16
   1   6   8  109.10    9.58  16
   2   4   4   46.63    9.82  16
  -3   1   5  328.16    9.28  17
  -3   3  -5   66.18   11.10  17
  -2   2   7  727.05   11.60  17
  -2   3   8   59.07   10.78  17
  -1   2  -5   33.15    6.55  17
  -1   3  -6   -2.01    7.68  17
  -1   6  -8  158.84   13.40  17
   0   2   6   23.44    6.55  17
   1   6  -7   28.15    9.19  17
   3   6  -2  533.22   11.73  17
  -4   2   5   44.55    8.02  17
  -2   0   4  221.72    6.45  17
  -1   2   7    1.39    5.46  17
   0   4   8   13.46    7.39  17
   1   2  -3   89.14    5.03  17
   1   8  -8   -2.15   10.02  17
   3   9  -5   29.90    8.93  17
  -3   0   1  588.84   13.67  17
  -3   0   2   -4.46    6.50  18
  -2   1   6  473.30    9.45  18
  -1   0   4    1.11    5.57  18
  -1   3   8   17.70    9.07  18
   0   1  -3 3200.04   20.43  18
   0   5  -7 2501.99   21.32  18
   2   3  -1  300.83    9.23  18
   2   7  -6  183.96   10.06  18
   2   7   7   46.01   13.70  18
  -2   5  -7   24.64    7.97  18
  -1   1   6  718.68    8.61  18
   0   0   2 1561.20   16.72  18
   0   7  -8  134.26    9.49  18
   2   9  -7    8.49   10.04  18
   2   3   2  251.73   14.94  18
  -4   1   2  114.28   10.10  19
  -3   0   3   11.18    6.72  19
  -3   2   7    1.04   10.55  19
  -3   3   8  594.10   16.27  19
  -1   4   9  644.08   17.27  19
   0   1   5 1753.59   13.73  19
   0   5   9   74.57   13.59  19
   1   4   7   71.22    9.38  19
   1   5  -6 3336.57   19.51  19
   2   4  -3    4.29    6.49  19
   3   7  -3    3.35    9.00  19
   3   8  -4   57.51   10.67  19
   1   3   6   -1.72    5.45  19
   2   6  -5   58.36    5.81  19
  -4   1   1    4.59   11.40  19
   3   6  -1    5.75    9.38  19
   3   8   5  218.18   19.50  19
  -4   1   3   58.76    9.92  20
  -4   2   6   46.48   12.60  20
  -3   1   6   92.68    9.45  20
  -1   5  -7   11.35    9.02  20
  -1   7  -8    2.80   13.28  20
   0   4  -6   93.40    8.25  20
   1   3  -4  908.66   10.65  20
   1   4  -5   21.61    6.30  20
   1   5   8 1273.17   17.10  20
   1   7  -7  280.60   11.76  20
   2   5  -4  169.26    7.41  20
  -2   0   5   10.90    4.77  20
   0   2  -4   63.46    4.59  20
   3   7   4    4.86   15.02  20
  -4   1   4  134.81   11.28  21
  -3   0   4    2.28    8.05  21
  -3   5  -6  112.24   13.30  21
  -2   2   8    2.99   10.36  21
  -2   4  -6   59.27    9.52  21
   0   0   3    3.53    6.36  21
   0   3  -5  169.71    7.73  21
   0   8  -8    3.59   13.46  21
   2   5   6  112.15    9.99  21
   2   8  -6  311.94   11.92  21
  -2   1   7   25.67    6.55  21
  -2   3   9  424.23   11.98  21
  -1   0   5 1007.93    9.87  21
   0   2   7  362.22    7.64  21
   0   3   8  600.87   10.46  21
   0   6  -7   46.09    6.89  21
   1   2   5   12.73    4.85  21
   3   9  -4   45.81    8.92  21
   1   1   1  622.78   28.30  21
  -4   3  -3   73.19   14.46  21
  -4   4  -4    4.99   16.28  21
  -2   6  -7  238.68   13.77  22
  -1   2   8  804.75   12.46  22
  -1   4  -6  117.88    8.92  22
   1   1   2  503.80   12.73  22
   2   6   7  194.90   13.48  22
   3   7  -2   26.93    9.02  22
  -3   2   8   10.06    8.95  22
  -1   1   7  352.36    7.20  22
  -1   3   9   -2.05    8.46  22
   0   4   9    2.29    8.52  22
   1   6  -6    1.96    5.32  22
   1   8  -7   87.33    8.05  22
   3   8  -3   12.15    6.52  22
  -3   0   0   -0.50    9.22  22
  -2   1  -3  348.34   11.65  22
   2   3   0  384.21   12.78  22
   3   6   0  311.51   13.11  22
  -4   1   5   71.66   11.05  23
  -3   0   5   75.91    7.97  23
  -2   3  -5  220.11    9.16  23
  -1   6  -7  357.42   12.42  23
   0   1   6  380.97    8.29  23
   2   4   5    4.74    7.79  23
   2   7  -5   12.60    8.90  23
   2   9  -6  212.53   13.06  23
  -3   1   7  146.39    8.16  23
  -2   0   6    4.87    5.39  23
  -1   1  -3  394.36    8.28  23
   1   2  -2  301.92    7.67  23
  -3   4  -5   49.99   10.77  24
  -2   2  -4   30.63    6.60  24
  -1   3  -5  642.03   11.06  24
   0   0   4 9999.99   30.91  24
   0   5  -6    9.33    7.53  24
   0   7  -7    9.27   10.25  24
   1   1   3  579.65   11.24  24
   1   3   7  177.85    9.89  24
   1   4   8   -2.82   10.95  24
   2   3   3   18.31    6.77  24
   2   4  -2  975.12   12.60  24
   3  10  -4   43.44   12.62  24
  -2  -1   3   53.64    4.73  24
  -1   0   6    0.23    4.65  24
   1   5  -5   54.88    5.00  24
   1   9  -7  249.66    9.97  24
   2   6  -4  230.28    7.04  24
  -3   1  -2    5.57   11.31  24
  -4   1   6  185.96   13.24  25
  -3   6  -6   86.78   14.99  25
  -2  -1   2  190.10    8.02  25
  -2   1   8  232.71   11.16  25
  -2   2   9  183.38   13.92  25
  -2   7  -7   44.72   13.83  25
  -1   2  -4   -2.47    5.39  25
   2   5  -3   29.24    6.51  25
   2  10  -6   46.05   12.55  25
  -3   0   6   -1.58    6.43  25
  -2   5  -6   93.40    7.31  25
   1   7  -6    6.85    6.42  25
   3   6   1  138.42   13.58  25
  -3   3  -4   35.20    9.34  26
  -2  -1   4  734.33   10.30  26
  -1  -1   2 2199.07   18.21  26
  -1  -1   3  247.05    7.97  26
  -1   1   8    9.23    8.99  26
  -1   2   9    1.50   11.96  26
  -1   5  -6   99.58    8.51  26
  -1   7  -7   13.10   10.37  26
   0   1  -2 1229.82   15.94  26
   0   2   8    6.78    9.16  26
   0   3   9   31.23   12.41  26
   0   4  -5  179.78    8.56  26
   1   2   6 1355.14   14.22  26
   1   3  -3  198.06    7.11  26
   1   4  -4  178.41    7.50  26
   1  10  -7   43.37   14.76  26
   2   8  -5   34.52    9.08  26
   3   9  -3  268.20   12.08  26
  -3   1   8   84.64    9.10  26
  -2   0   7    6.41    6.13  26
   0   0   5    1.16    4.75  26
   0   8  -7   -0.66    7.38  26
  -4   1   0   23.40   15.18  25
   3   7  -1    1.04   10.50  26
  -3   2  -3   94.78    9.58  27
  -1  -1   4  960.75   10.72  27
   0   1   7  674.66   10.33  27
   1   1   4  808.02   11.13  27
   2   5   7   49.32   11.03  27
   3   8  -2   13.51    9.26  27
  -2  -1   5  431.16    7.36  27
  -1   0   7   43.82    5.62  27
   0   6  -6  411.60    8.38  27
  -4   0   3    1.64    9.48  28
  -4   0   4  103.95   11.28  28
  -3   0   7  420.59   12.14  28
  -2  -1   1  361.34   10.14  28
   0   3  -4  512.77    9.59  28
   1   6  -5  676.88   10.90  28
   1   8  -6    3.82    9.09  28
   2   3   4  297.05    9.97  28
   2   4   6   48.40    9.45  28
   2   7  -4   -1.83    7.67  28
   2   9  -5  261.45   11.57  28
   3  10  -3   13.68   12.16  28
  -2   1   9   93.71    8.94  28
  -1  -1   5  500.10    7.64  28
  -1   8  -7  163.64   10.07  28
   0   2  -3  121.03    5.53  28
   0   9  -7  231.03   10.11  28
   3   7   5   78.53   18.18  28
  -4   0   5   27.19   10.85  29
  -4   5  -4   28.49   14.78  29
  -3  -1   3  394.44    9.79  29
  -3  -1   4  305.91    9.45  29
  -3   5  -5   17.71   10.86  29
  -2   4  -5   11.50    7.85  29
  -2   6  -6   38.39   10.77  29
  -1   4  -5  462.84   10.31  29
   1   3   8  642.06   13.41  29
   1   4   9   37.56   14.63  29
  -2  -1   6  263.37    6.86  29
  -2   0   8  579.92    9.75  29
   0   0   6 1051.86   10.05  29
   1   1   5  195.49    6.70  29
   1   2   7    0.57    6.42  29
  -4   0   2    9.11    9.29  30
  -4   0   6  115.12   12.71  30
  -3  -1   2   -0.09    6.61  30
  -3  -1   5  317.20    9.39  30
  -1  -1   1  740.69   14.11  30
  -1   1   9   59.90   12.31  30
  -1   6  -6  764.58   13.71  30
   0   2   9  556.16   13.90  30
   0  10  -7    0.16   14.12  30
   1   9  -6  354.98   12.40  30
   2   4  -1  111.71    7.00  30
   2   6  -3 1388.77   13.78  30
   2  10  -5   34.72   10.79  30
   3   9  -2    4.45   10.41  30
   3  11  -3  195.59   15.32  30
  -3   0   8   -5.33    8.74  30
  -1   9  -7   41.46    9.00  30
   0   1   8  270.95    7.69  30
   0   5  -5   57.56    5.17  30
   0   7  -6    1.20    6.35  30
  -3  -1   6   94.20    9.39  31
  -1  -1   6  886.07   10.51  31
  -1   0   8   -3.42    8.86  31
   1   5  -4    7.39    6.42  31
   2   3   5  185.54    9.16  31
   2   5  -2    0.02    6.33  31
   2   8  -4  114.57    9.53  31
  -2  -1   7   19.56    6.47  31
   1   7  -5    4.05    5.34  31
   1  10  -6   -4.41    8.60  31
   2  11  -5   35.00    8.96  31
   3   7   0   67.00   11.60  31
  -2   3  -4  523.45   10.44  32
  -2   7  -6  218.35   12.27  32
  -1   3  -4  576.14   12.50  32
   0   0   7    3.77    7.62  32
   1   1   6  901.13   12.17  32
   2   4   7   74.27   11.05  32
   3   8  -1  433.36   12.33  32
  -2   0   9   -7.01    8.67  32
  -3  -1   7  252.57   11.61  33
  -3   4  -4   39.35    9.36  33
  -1  -1   7  457.87    9.59  33
  -1   7  -6   50.23    9.64  33
   0   8  -6  293.56   11.04  33
   1   2  -1    0.59    5.60  33
   1   2   8  412.14   12.25  33
   1   3   9  260.95   15.25  33
   1   4  -3 1648.51   13.87  33
   1  11  -6   61.66   12.64  33
   3  10  -2  168.18   11.73  33
  -3   6  -5   11.08    8.69  33
  -2   5  -5  376.19    9.00  33
   0  -1   4   25.24    4.26  33
   2   9  -4  231.69    8.01  33
  -4   4  -3   -1.28   15.25  33
  -2  -2   4   32.02    6.92  34
  -2  -2   5   50.41    6.90  34
  -2  -1   8  228.59   11.25  34
  -1   0   9 1033.34   14.84  34
  -1   5  -5  177.97    8.94  34
   0  -1   3 3807.27   21.84  34
   0  -1   5 1807.14   14.12  34
   0   1   9    0.37   11.22  34
   0   4  -4 1218.96   12.46  34
   1   8  -5  221.05    9.24  34
   2   3   6  245.35   10.59  34
   2   7  -3    6.07    7.67  34
   0   6  -5  954.32   11.60  34
   0   9  -6  146.41    8.68  34
   1   3  -2  280.29    7.13  34
  -4  -1   5   72.75   11.27  35
  -3  -1   8  149.16   12.87  35
  -2  -2   3 2287.30   16.35  35
  -2  -2   6    6.16    7.69  35
  -2   2  -3  533.35   11.06  35
  -2   8  -6   55.82   12.65  35
  -1   2  -3   49.56    6.32  35
  -1   8  -6    9.36   10.36  35
   0   0   8  204.97    9.85  35
   1   1   7   92.08    9.00  35
   1   6  -4 2059.70   16.20  35
   3   9  -1    8.20   10.32  35
   3  11  -2   38.34   12.47  35
  -1  -1   8    4.71    6.34  35
   2  10  -4    9.40    7.38  35
   2   3   1  305.08   18.66  34
  -4  -1   4  145.50   11.40  36
  -4  -1   6  164.70   13.21  36
  -3  -2   5   13.28    7.99  36
  -1  -2   4 4399.13   20.64  36
  -1  -2   5   49.22    6.76  36
   0  -1   6  363.97    8.30  36
   0  10  -6    6.54   10.46  36
   1   9  -5  330.33   11.35  36
   2   4   8   25.84   14.09  36
  -2  -1   9   79.78    8.98  36
  -2   9  -6    7.97    9.06  36
   3   6   4  157.00   19.47  35
  -3  -1   1   64.02    9.11  36
  -3  -2   4  229.51    9.29  37
  -3  -2   6  323.88   10.50  37
  -3   7  -5  103.06   13.12  37
  -2  -2   7  615.93   11.38  37
  -2   6  -5  127.44   10.18  37
  -1  -2   3  167.91    6.95  37
  -1  -2   6   44.49    6.65  37
  -1   1  -2  801.25   13.60  37
  -1   9  -6  174.56   11.77  37
   0  -1   2 1337.03   15.98  37
   0   3  -3  674.42   10.53  37
   0   7  -5   30.90    7.95  37
   1   0   4   29.78    5.90  37
   1   2   9   13.97   12.44  37
   2   6  -2    6.85    6.36  37
   2   8  -3   35.34    7.87  37
   2  11  -4  283.99   12.71  37
   3   8   0   10.89    9.11  37
  -1   6  -5   35.24    5.86  37
   0  -1   7  524.02    8.13  37
   0  11  -6   98.84    9.21  37
   1   0   5 1418.06   12.59  37
   1  10  -5    3.42    7.46  37
  -4   0   1    0.77   12.92  37
  -4  -1   3  158.37   12.37  37
   3   7   1   27.17   11.37  37
  -3  -2   3   11.93    8.12  38
  -3  -2   7   -5.16   10.79  38
  -3   3  -3  300.84   10.96  38
  -2   1  -2  384.07   11.67  38
  -2   4  -4   61.30    8.15  38
  -1  -1   9   83.52   11.49  38
  -1   4  -4    3.20    6.38  38
   0   0   9    4.10   11.20  38
   1   1   8  176.72   11.23  38
   1   7  -4    0.07    6.28  38
   2   3   7   14.00   10.77  38
   2  12  -4   83.85   12.80  38
   3  10  -1    3.74   10.47  38
  -2  -2   8    4.79    7.36  38
  -1  -2   7    0.31    5.47  38
  -1  10  -6  113.95    9.43  38
   0   5  -4  128.77    5.80  38
   1   0   3  425.38    8.85  38
   1   5  -3   62.95    4.46  38
   3   6   5   11.43   16.78  38
  -4   3  -2    6.67   13.11  38
  -3   5  -4   22.25    9.38  39
  -2  -2   2   96.35    6.73  39
   1   0   6   54.81    8.38  39
   1  11  -5  235.12   11.82  39
   2   5  -1  873.79   12.97  39
  -3  -2   8   19.50    8.82  39
  -3   8  -5  185.84   12.22  39
  -1  11  -6    7.72    9.98  39
   0   8  -5   16.65    5.45  39
   1  12  -5   99.96    9.58  39
   2   9  -3    2.80    6.20  39
  -2   7  -5  138.77   10.34  40
  -1  -2   8  713.89   11.91  40
  -1   7  -5  391.97   10.90  40
   0  -1   8  368.52   10.52  40
   0   2  -2   33.38    6.18  40
   2   2   4   15.59    6.84  40
   2   2   5   18.16    7.97  40
   3  11  -1   56.67   12.36  40
  -2  -2   9  122.68    9.21  40
   1   0   7  563.00    8.80  40
   1   8  -4   39.33    5.64  40
  -4   5  -3   30.50   15.47  40
   2   4   0  609.05   13.53  40
  -2  -3   5 2423.87   15.98  41
  -2  -3   6  916.27   11.46  41
  -1  -2   2  540.60   10.46  41
   1   1   9  117.86   12.68  41
   2   2   6    0.49    9.45  41
   2   3   8   47.60   12.66  41
   2   7  -2   71.73    6.89  41
   2  10  -3  417.22   11.54  41
   3   9   0   54.73   11.01  41
  -4  -2   6   10.44    8.92  41
   0   9  -5  105.72    7.42  41
  -2   0  -1    0.07    9.69  40
   3   6   6   49.68   18.30  41
  -4  -2   5  108.90   11.90  42
  -2  -3   4  355.46    8.45  42
  -2  -3   7   -2.64    9.00  42
  -1  -2   9    4.45   11.94  42
   0  -2   5 4493.25   20.62  42
   0  -2   6   25.34    6.44  42
   0  -1   9   -8.45   11.41  42
   0   6  -4   23.53    6.62  42
  -3  -3   6   -1.58    6.45  42
  -2   8  -5    5.90    7.40  42
  -1   5  -4 1315.65   13.64  42
  -1   8  -5  203.81    8.29  42
   0  -2   4   69.71    4.62  42
   0  10  -5  247.69    8.74  42
   1   4  -2  128.86    5.57  42
   1   9  -4   28.43    5.61  42
   2  11  -3   26.73    7.54  42
  -4  -1   2  182.68   12.77  42
  -4  -2   4   19.11   10.81  43
  -3  -3   5  453.89   10.97  43
  -3  -3   7  126.76   11.15  43
  -3  -2   2  601.48   11.84  43
  -3   6  -4  348.40   13.22  43
  -2  -3   8   69.56   10.66  43
  -2   5  -4  115.03    8.55  43
  -1  -3   5  570.23    9.40  43
  -1  -3   6 2517.99   16.13  43
  -1   3  -3 1676.25   21.12  43
   0  -2   7  463.67    9.72  43
   0   1  -1 1073.08   19.73  43
   1   0   8   -1.19   10.54  43
   1   6  -3   -1.86    6.27  43
   2   2   7  272.09   12.26  43
   2  12  -3   -4.24   12.15  43
   0   4  -3   12.35    4.07  43
   0  11  -5    8.64    7.49  43
   2  13  -3   67.17   10.62  43
   2   2   3  479.07   15.29  43
  -3  -3   8  603.62   16.32  44
  -2   3  -3   43.57    6.89  44
  -2   9  -5  154.05   11.76  44
  -1  -3   4 1150.84   11.42  44
  -1  -3   7  862.04   11.73  44
  -1   9  -5   59.92    9.68  44
   0  12  -5   -4.50   12.30  44
   1  10  -4  518.59   12.15  44
   2   8  -2  893.17   12.82  44
   3   8   1   75.80   10.07  44
   3  10   0  170.47   11.99  44
  -3  -3   4  745.36   10.43  44
   0  -2   8    5.20    6.49  44
  -3   2  -2  223.05   12.21  44
  -4   6  -3   11.39   13.65  45
  -3   4  -3  155.26    9.45  45
  -2  -3   3 1152.45   12.81  45
  -2  -3   9  624.01   16.13  45
  -1  -3   8   13.84    9.14  45
  -1  10  -5   44.18   10.86  45
   0   7  -4  501.92   10.38  45
   1  -1   5  283.19    8.36  45
   1  -1   6 1075.09   12.89  45
   1   0   2   12.38    6.78  45
   1   0   9  195.33   12.85  45
   1  11  -4   22.30   10.45  45
   2   6  -1  377.36    9.67  45
   3  11   0   45.03   12.59  45
  -2  10  -5   45.10    9.25  45
   0  -2   3  122.55    5.56  45
   1  12  -4    8.20    7.55  45
   1  13  -4   24.10   10.20  45
  -3   7  -4    6.52   10.73  46
  -1   6  -4   64.68    7.05  46
  -1  11  -5   -0.71   12.09  46
   1  -1   7   74.08    8.79  46
   1   7  -3  322.82    8.77  46
   2   2   8    1.62   12.26  46
   2   9  -2    9.72    7.73  46
  -2   6  -4   76.16    6.36  46
  -1  -3   9    2.00    8.55  46
  -1  12  -5   35.25   10.34  46
   0  -2   9  357.09   10.09  46
  -2  -1   0  454.78   17.82  45
   3   7   2   78.30   14.03  46
  -4  -3   6  153.08   15.50  47
  -4  -2   3  248.15   11.88  47
  -2  -4   6   89.67    8.15  47
  -2  -4   7    1.02    9.08  47
  -1  -3   3  223.31    7.27  47
   0   8  -4  723.95   12.44  47
   1  -1   4 1154.14   12.38  47
   1   3  -1 1946.95   18.53  47
   1  -1   8  135.37    8.24  47
   2  10  -2    4.46    6.47  47
  -4  -3   5    0.99   12.29  48
  -3  -4   7  550.42   14.15  48
  -3  -3   3  156.74    8.79  48
  -3   8  -4   -0.79   12.17  48
  -2  -4   5  311.31    9.61  48
  -2  -4   8  793.95   13.70  48
  -2  -2   1  385.07   10.66  48
   0  -3   6  528.71    9.33  48
   0   5  -3 3927.04   22.10  48
   1   5  -2 3530.40   20.52  48
   1   8  -3 1026.56   13.16  48
   2   1   5  274.19    9.88  48
   2   1   6  226.24   10.78  48
   3   9   1  230.47   12.51  48
  -3  -4   6    3.06    7.30  48
  -3  -4   8    5.78   10.18  48
  -1   7  -4  289.12    8.38  48
   0  -3   7 1118.15   11.49  48
   0   9  -4   67.74    6.14  48
   2  11  -2   26.20    7.61  48
  -4   2  -1  187.98   18.31  47
  -4   4  -2  272.35   15.83  48
  -2   7  -4  455.67   12.19  49
  -1  -4   6  237.93    9.19  49
  -1  -4   7   12.89    8.86  49
  -1   4  -3    0.98    5.50  49
   0  -3   5  210.27    7.64  49
   0  -1   1 1250.56   20.52  49
   1  -1   9  109.29   12.47  49
   2   1   7  490.02   13.39  49
   2   7  -1  197.53    8.23  49
   2  12  -2  178.14   11.56  49
   2  13  -2   49.80   13.55  49
  -3  -4   5   79.93    6.98  49
  -3   9  -4    6.95    8.71  49
  -1  -4   8    5.61    7.25  49
   0  -3   8  453.66    8.94  49
   0   3  -2 2994.72   20.20  49
   0  10  -4   42.90    6.82  49
   1   9  -3   37.66    5.68  49
   3   5   6  111.54   18.46  49
  -3   5  -3  119.19   10.16  50
  -2  -4   4   -1.82    6.27  50
  -2   4  -3  133.55    7.66  50
  -1  -4   5   17.65    6.35  50
  -1   2  -2 2447.84   20.85  50
   0  11  -4    3.75    8.83  50
   2   1   8    6.55   12.20  50
   2   5   0  344.64   10.42  50
   3  10   1    2.13   10.72  50
  -1   8  -4    8.55    5.40  50
   0  12  -4   83.41    8.35  50
   0  13  -4   82.17    9.36  50
   3   5   5   13.69   15.00  50
  -4  -3   4  144.06   11.81  51
  -2  -3   2    4.13    5.51  51
  -2   8  -4  470.57   13.07  51
  -1  -4   9  752.10   14.96  51
   0  -3   4  638.86    9.60  51
   0  -3   9   35.75   12.30  51
   1  -1   3  793.86   11.73  51
   1  10  -3   34.06    7.83  51
   2   1   4  164.19    8.53  51
   3  11   1   93.70   13.05  51
   0   6  -3    1.74    4.55  51
   1  -2   6 1427.88   12.45  51
   1  -2   7   -0.49    6.34  51
   1  11  -3    2.39    6.46  51
   1  12  -3  129.41    8.28  51
   1  13  -3   70.33    8.94  51
  -3  -4   4  133.10    9.05  52
  -2   2  -2  597.20   11.98  52
  -2   9  -4  209.41   12.11  52
  -1  -4   4  209.28    7.66  52
  -1  -2   1    0.60    5.52  52
  -1   9  -4  475.70   12.41  52
   0  -2   2   42.40    6.18  52
   1  -2   8  581.04   12.68  52
   1   6  -2  245.29    7.58  52
   2   8  -1   10.74    7.66  52
  -2  -5   7   -5.34    7.42  52
  -2  -5   8    8.75    8.59  52
  -1  10  -4   33.32    6.61  52
   1  -2   5   26.41    4.72  52
   3   8   2   65.98   12.04  52
  -3  -5   7   29.74   12.25  53
  -2  -5   6  115.47    9.41  53
  -2  10  -4    0.25   10.58  53
  -1   5  -3  450.44   10.34  53
  -1  11  -4  250.31   12.63  53
  -1  12  -4   10.81   11.76  53
  -1  13  -4   44.00   14.75  53
  -3   6  -3    6.69    6.48  53
  -2  11  -4   82.37    9.73  53
   0  -4   7   44.93    5.91  53
   1  -2   9   14.86    8.70  53
   2   9  -1  162.38    6.92  53
  -4   5  -2   61.09   11.92  54
  -3  -5   6    8.60   10.49  54
  -3   3  -2  431.18   12.11  54
  -2  -4   3   10.86    6.42  54
  -2   5  -3   28.82    6.81  54
  -1  -5   7  134.27    9.63  54
  -1  -3   2  489.49    9.64  54
   0  -4   6  124.31    8.33  54
   0  -4   8    6.02   10.43  54
   0   7  -3  595.38   10.87  54
   2   0   6  572.45   12.15  54
   2   0   7    7.06   10.95  54
  -4  -4   5   -7.49    8.73  54
  -2  -5   5 1540.64   12.92  54
  -1  -5   6 2469.72   16.54  54
  -1  -5   8   26.47    7.45  54
   2  10  -1  142.07    7.42  54
  -4  -2   2    2.70    9.38  55
  -3  -3   2  568.58   11.74  55
  -1  -5   9  -13.48   13.24  55
   0  -4   9    0.76   11.97  55
   1  -2   4    0.48    5.25  55
   1   7  -2  484.19    9.84  55
   2   0   8  365.66   13.79  55
   2  11  -1  179.84   10.47  55
   2  12  -1    9.60   10.36  55
   2  13  -1   54.27   12.77  55
   0  -4   5  147.46    5.82  55
   0  -3   3  441.68    8.13  55
   0   4  -2  388.80    7.99  55
   0   8  -3   -0.19    4.37  55
   1   4  -1  699.04   10.47  55
  -3  -2   1   43.68    9.14  55
   3   9   2    3.36   13.00  55
  -4  -3   3  515.43   14.31  56
  -3  -5   5   32.75    9.21  56
  -3   7  -3  104.04   10.41  56
  -1  -5   5  105.27    6.88  56
  -1   6  -3  420.85   10.46  56
   0  14  -3    0.29   14.12  56
   1   2   0 2166.91   27.36  56
   2   0   5    3.98    7.84  56
   2   6   0  570.72   11.49  56
  -1  -4   3  958.95   10.60  56
   0   9  -3  493.00    9.57  56
   1  -3   7  227.79    7.75  56
   1   8  -2   -0.98    4.45  56
  -1  -1   0  120.62   11.58  56
   3   4   6    4.25   15.11  56
   3  10   2   29.16   15.22  56
  -4   6  -2   58.89   13.03  57
  -3  -4   3    0.93    7.68  57
  -3   8  -3  332.55   13.91  57
  -2  -6   8    5.09   12.09  57
  -2  -5   4  183.78    7.65  57
  -2   6  -3  870.48   14.61  57
   0  10  -3    2.16    7.57  57
   0  11  -3  431.08   12.15  57
   0  12  -3    6.09   10.30  57
   0  13  -3   84.69   12.85  57
   1  -3   6   -2.79    7.66  57
   1  -3   8  806.73   14.01  57
   1  14  -2   12.94   13.22  57
   3  11   2  101.01   15.24  57
  -2  -6   7  472.84    9.82  57
   1   9  -2  361.06    8.26  57
   1  13  -2   71.07    8.06  57
  -3   1  -1  181.76   12.68  57
  -4  -4   4  100.07   11.33  58
  -3  -6   7   10.10   13.20  58
  -3   9  -3   -5.39   12.34  58
  -1   3  -2   25.70    6.12  58
  -1   7  -3 1160.37   14.93  58
   1  -3   9  313.13   15.56  58
   1  10  -2  127.74    8.54  58
   1  11  -2  375.16   11.76  58
   1  12  -2    5.62    9.78  58
  -3  10  -3   73.15    9.72  58
  -2  -6   6    9.23    6.43  58
   0  -5   7 2186.58   16.42  58
   0  -5   8   57.45    7.77  58
   0  -4   4  918.65   10.55  58
  -4  -1   1   15.72   14.95  57
  -4   7  -2    7.45   12.13  59
  -3  -5   4 1240.45   15.08  59
  -2   7  -3   70.56    8.49  59
  -1  -6   7   33.75    9.04  59
  -1  -6   8  571.07   13.97  59
  -1  -5   4    7.59    6.37  59
   0  -5   9   67.65   13.68  59
   1  -3   5  756.24   11.19  59
   2  -1   7  517.72   13.30  59
   2   7   0  261.58    8.93  59
  -3  -6   6  332.54    9.45  59
  -1   8  -3  332.40    8.70  59
  -1  13  -3   55.37    9.34  59
   0  -5   6    3.47    5.38  59
   0   5  -2 1327.35   13.15  59
   2  -1   8   -1.45    8.73  59
   2   4   1   44.18    8.41  59
   3   7   3   69.15   14.07  59
  -4   3  -1   25.88   15.34  59
   2   1   3  319.99   12.39  59
  -3   4  -2    5.35    7.93  60
  -2   3  -2  672.16   12.89  60
  -2   8  -3   10.84    7.76  60
  -1  -6   6   -0.28    7.64  60
  -1   9  -3  573.66   12.46  60
  -1  12  -3  117.97   11.61  60
   0   2  -1 6145.04   36.83  60
   1   5  -1 1625.18   15.51  60
   2  -1   6  228.95   10.65  60
  -2  -6   5   61.67    5.86  60
  -2   9  -3    4.49    6.32  60
  -2  12  -3   61.19    9.17  60
  -1  10  -3    0.65    6.47  60
  -1  11  -3  222.45    9.07  60
   2  13   0   63.24    9.22  60
   2   0   4  544.70   12.59  60
  -4  -5   5   35.98   12.70  61
  -2  10  -3   78.86   10.94  61
  -2  11  -3  137.95   12.13  61
   1  -2   3   65.30    6.36  61
   2   8   0   92.86    8.37  61
   2  12   0   10.98   10.69  61
  -2  -7   8   -8.34   10.02  61
   0  -5   5   54.97    5.07  61
   1  -4   7   36.63    7.60  61
   1  -4   8    4.43    7.72  61
   3   4   5   41.10   15.53  61
   3   3   7   92.46   18.50  61
  -3  -6   5    4.46   10.39  62
  -2  -7   7   29.62   10.62  62
  -2  -5   3   33.18    6.54  62
  -2  -4   2  999.65   12.94  62
  -1  -6   5  672.07   11.17  62
   0   6  -2 1127.71   13.53  62
   0  14  -2    1.18   12.25  62
   1  -4   9   42.35   14.68  62
   1  -1   2 1083.85   15.42  62
   2   9   0  618.47   12.04  62
   2  10   0    5.76    9.10  62
   2  11   0  307.10   11.20  62
   1  -4   6  104.35    7.22  62
   1  14  -1   -0.85    8.73  62
   3   8   3  242.46   15.61  62
  -3   5  -2   67.65    8.56  63
  -1  -7   8   74.01   12.62  63
  -1   4  -2  521.18   10.60  63
   0  -6   8   35.79   10.78  63
   0  13  -2  136.68   11.84  63
   1  -3   4  830.37   12.02  63
   1   6  -1 1307.31   13.93  63
   2  -1   5  358.00   10.32  63
  -2  -7   6  125.04    7.29  63
   0  -6   7   62.57    6.96  63
   0  -4   3   12.91    4.13  63
   3   3   6   53.41   15.46  63
   3   9   3    6.77   14.72  63
   3  10   3   82.98   15.94  63
  -2  -6   4  390.20    9.88  64
  -2  -3   1  343.76    9.76  64
  -2   4  -2 1080.06   15.12  64
  -1  -7   7  280.10   11.58  64
  -1  -5   3  114.41    6.37  64
  -1  -4   2  254.58    7.96  64
  -1   1  -1  780.21   16.99  64
   0  -3   2 4326.16   24.83  64
   0   7  -2 2076.00   16.93  64
   0  12  -2   47.26    9.49  64
   1  13  -1  158.36   11.49  64
   2  -2   7  359.70   12.70  64
   2  -2   8    0.35   12.16  64
   0   8  -2   76.22    5.54  64
   0  11  -2  420.13    9.75  64
   1  12  -1   -2.92    6.54  64
  -4  -5   4    5.08   12.19  65
  -4  -4   3   47.78   11.62  65
  -4   4  -1   42.33   11.18  65
  -3  -7   6    4.41   12.09  65
  -3  -5   3  163.00    8.93  65
  -3  -4   2    2.12    7.94  65
  -3   6  -2  106.54   10.20  65
  -1  -7   6   21.87    8.86  65
  -1  14  -2  440.78   17.55  65
   0  -6   6  581.20   11.16  65
   0  -5   4  184.69    7.81  65
   0   9  -2  988.90   13.69  65
   0  10  -2   17.16    7.67  65
   1  -4   5  396.32   12.00  65
   1   7  -1 1232.43   13.95  65
  -1  -6   4 1395.47   13.27  65
   1  -5   8  840.60   18.33  65
   1  11  -1  368.91    9.29  65
  -3  -6   4  213.63   10.25  66
  -3   7  -2  128.37   10.65  66
  -3  11  -2  134.08   15.45  66
  -2  -7   5   13.70    8.90  66
  -1   5  -2   18.76    5.70  66
  -1  13  -2   -3.38   12.02  66
   1  -5   7    4.94    9.17  66
   1   8  -1    5.95    6.39  66
   1   9  -1 1068.30   13.78  66
   1  10  -1   22.04    7.73  66
   2  -2   6    5.15    9.20  66
   2  13   1   61.37   13.08  66
  -2  13  -2    7.70   10.19  66
  -4  -3   2   59.14   11.83  66
   2   5   1   63.67    8.56  66
   3   2   7   -0.20   17.87  66
  -4  -6   5  249.95   15.68  67
  -3   8  -2   88.23   10.39  67
  -3   9  -2    1.24   10.65  67
  -3  10  -2   37.49   12.47  67
  -2  -8   7    4.79   12.02  67
  -2   5  -2  203.17    8.99  67
  -1  -3   1 2258.59   20.04  67
  -1  12  -2   53.52   10.62  67
   0  -7   8  182.82   13.33  67
   0  -6   5 1573.50   16.02  67
  -3  -7   5   43.39    7.58  67
  -2  12  -2   38.86    8.86  67
  -1  -8   8   -0.04    9.93  67
  -1   6  -2 1230.05   14.12  67
   2  12   1   -0.04    7.47  67
  -4   5  -1   32.95   11.23  68
  -2   1  -1   -3.93    6.21  68
  -1  -7   5    5.50    7.49  68
  -1  11  -2  415.43   12.30  68
   0  -7   7   -1.00   10.34  68
   0  -2   1 6650.89   37.28  68
   0   3  -1   64.18    6.82  68
   0  14  -1  407.15   15.47  68
   1  -5   6   88.99    8.70  68
   2  -3   8   60.65   12.84  68
   2  -1   4  192.68    8.58  68
  -2  -8   6  223.02    8.98  68
  -2   6  -2   24.95    4.94  68
  -2  11  -2   95.58    8.29  68
  -1  -8   7   88.81    8.20  68
  -1   7  -2  236.86    7.44  68
  -1  10  -2   51.97    5.97  68
   1  14   0  182.35    9.92  68
  -3   2  -1    0.09    7.96  68
  -4   6  -1  218.73   13.28  69
  -2   7  -2  123.77    8.91  69
  -2  10  -2  299.34   12.03  69
  -1   8  -2   43.96    6.67  69
  -1   9  -2   -5.17    7.59  69
   1  -4   4    5.11    6.49  69
   1  -3   3 2370.22   20.45  69
   1   3   0  605.64   12.65  69
   2  -3   7   27.32   10.75  69
   2  -2   5   27.10    7.90  69
   2  11   1  323.13   12.38  69
  -2  -6   3  865.19   10.55  69
  -2   8  -2  817.79   12.69  69
  -2   9  -2   -0.36    6.38  69
   0  -7   6    0.73    6.36  69
   0  13  -1   19.57    7.52  69
  -4   1   0  206.61   18.22  68
   2   6   1  399.23   11.79  69
   3   2   6   25.49   13.38  69
  -4   7  -1   11.15   12.48  70
  -4   8  -1    1.68   14.48  70
  -3  -8   6    5.35   14.20  70
  -2  -7   4    3.89    7.48  70
  -1  -8   6    6.88    8.93  70
   1  -6   8  168.37   13.26  70
   1  13   0   74.41   11.09  70
   2  10   1   21.90    9.24  70
  -2  -5   2    1.55    4.50  70
   1  -6   7  297.64    9.63  70
   1  -5   5  142.36    6.81  70
   2  -3   6  244.50    8.68  70
   2   9   1    5.04    5.36  70
  -3  -3   1    6.70    8.07  70
  -1  -6   3   -1.95    6.30  71
  -1  14  -1   33.16   12.73  71
   0  -6   4   25.81    6.51  71
   0  -5   3 3729.11   21.87  71
   0  12  -1   23.48    9.10  71
   2   0   3    7.88    7.22  71
   2   7   1  247.64    9.06  71
   2   8   1  111.08    8.61  71
   3   1   7  106.65   14.95  71
  -2  -9   7    6.44   10.16  71
  -2  -8   5   15.99    6.58  71
  -1  -7   4    0.00    4.49  71
   0  -8   8    7.19   10.07  71
   1  12   0    2.03    6.46  71
   3   3   5   84.33   15.69  71
  -4  -6   4    3.54   12.30  72
  -3  -7   4    0.71    9.18  72
  -3  -6   3  175.67   10.15  72
   0   4  -1 2050.05   17.91  72
   0  11  -1  649.68   12.42  72
   2  -4   8   20.80   14.39  72
   2  13   2    0.06   14.39  72
  -1  -5   2 2061.37   16.10  72
  -1  13  -1   -8.22    7.54  72
   0  -8   7   -8.02    7.41  72
   0  -7   5   26.91    5.60  72
   0  -4   2  395.78    8.09  72
   1  -6   6  649.31   11.09  72
  -4  -5   3  467.70   16.48  72
   3   9   4    7.15   15.10  72
  -3  -8   5  359.90   14.14  73
  -3   3  -1  152.26    9.81  73
  -2  13  -1   67.22   13.04  73
  -1  -9   7  360.06   13.87  73
  -1  -8   5  225.88    9.01  73
   0  10  -1   23.36    7.80  73
   1  -2   2 3504.04   25.00  73
   1  11   0  574.43   12.48  73
   2  -4   7   84.65   11.33  73
  -2  -9   6  129.54    9.33  73
   3   6   4  234.06   20.39  72
   3   8   4    4.47   14.68  73
  -3  -5   2  101.91    8.63  74
  -3  11  -1  110.26   13.43  74
  -1   2  -1 2421.14   31.13  74
  -1  12  -1   83.11    9.87  74
   0  -8   6  339.48   11.03  74
   0   5  -1   10.61    5.93  74
   0   9  -1   -2.00    6.24  74
   0  14   0   51.77   12.98  74
   1  -7   8    3.35   14.13  74
   1   4   0  683.02   12.22  74
   1  10   0   -0.24    7.55  74
   1  14   1   41.37   12.79  74
   2  -3   5  236.56   10.18  74
   2  12   2   36.17   12.40  74
  -2  12  -1    4.13    7.40  74
   0   8  -1  127.67    6.32  74
   3   7   4    5.61   15.05  74
   3   1   6   92.14   14.02  74
  -3  10  -1   11.09   10.59  75
  -1  -9   6  338.03   12.18  75
   0   6  -1 2128.52   17.50  75
   0   7  -1  670.85   10.89  75
   1  -7   7   -7.70   10.59  75
   1  -5   4 1618.56   17.80  75
   1   9   0    5.80    6.33  75
   2  -4   6   74.25    9.65  75
   2  -2   4   30.71    6.95  75
   3   0   7   99.86   14.72  75
  -2  -8   4   78.30    6.79  75
  -1  11  -1   50.08    6.61  75
   1  -6   5   51.95    5.83  75
  -3   4  -1  539.82   14.29  76
  -3   9  -1  317.13   13.92  76
  -2  -7   3   11.30    7.59  76
  -2  -4   1  156.72    7.56  76
  -2   2  -1 1364.69   19.05  76
  -2  11  -1  334.54   12.74  76
   0  13   0   -3.14   10.31  76
   1  -4   3   -0.07    5.40  76
   1   5   0   30.06    6.03  76
   1   8   0  225.03    8.49  76
   1  13   1   -1.44   10.57  76
   2  11   2   96.28   11.30  76
  -3   8  -1  114.53    8.14  76
  -2  -9   5  159.14    8.44  76
   0  -9   7  252.41   10.14  76
   0  -7   4  356.42    7.58  76
   1   7   0  303.79    7.87  76
  -3   5  -1  275.69   11.62  77
  -3   6  -1  264.21   10.99  77
  -3   7  -1   46.55    9.61  77
  -2  10  -1   29.53    9.26  77
  -1 -10   7   53.04   14.70  77
  -1  -8   4   55.53    7.98  77
  -1  -7   3  364.60    9.16  77
  -1  10  -1  606.68   12.39  77
  -1  14   0  239.94   14.03  77
   0  -8   5   16.85    7.85  77
   0  -6   3    2.00    6.38  77
   1  -7   6   83.43    9.56  77
   1   6   0 1001.05   13.04  77
   2  -5   7   53.68   11.16  77
  -3  -8   4   41.48    7.77  77
  -1  -9   5  246.99    8.35  77
  -4  -4   2   13.39   13.16  77
  -4   2   0   45.96   12.40  77
  -4  -7   4   20.29   14.40  78
  -3  -9   5   63.50   12.75  78
  -3  -7   3    4.26    9.07  78
  -2 -10   6   45.34   12.59  78
  -2  -6   2    6.49    6.31  78
  -1  -4   1 1159.87   14.51  78
  -1   3  -1  449.63   13.09  78
  -1   9  -1   -1.87    6.35  78
   0  12   0  133.20   10.16  78
   1  12   1   93.06    9.93  78
   2  10   2  259.95   11.17  78
  -2   9  -1    0.42    5.63  78
   0  -9   6  155.72    8.60  78
   3   2   5   14.42   13.56  78
  -2   3  -1  818.37   14.66  79
  -1 -10   6   11.23   11.33  79
  -1  -6   2  266.40    7.86  79
  -1   8  -1 1977.03   18.55  79
  -1  13   0   57.91   11.20  79
   1  -8   7  254.77   13.58  79
   1  14   2  421.64   17.78  79
   2  -4   5   10.57    7.88  79
   2  -1   3  403.49   11.53  79
   2   9   2   -1.13    9.07  79
   3  -1   7   91.46   15.94  79
   3   0   6   -0.42   10.66  79
  -2   8  -1  116.59    6.89  79
  -2  13   0   74.96    9.43  79
   0  -5   2 1226.67   13.41  79
   0  -3   1   36.72    4.84  79
   0  11   0   -0.17    5.30  79
   0  14   1  263.18   11.18  79
   2  -5   6  120.40    7.67  79
  -4  -6   3  170.82   13.66  80
  -4   8   0  187.59   14.58  80
  -1   4  -1 3434.53   24.62  80
  -1   7  -1   54.40    7.02  80
   1  -7   5  446.01   10.89  80
   1  -6   4   55.38    7.01  80
   1  11   1   59.82    9.29  80
   2  -3   4  564.69   12.14  80
   2  12   3   53.32   12.78  80
  -2  -9   4  257.13    8.46  80
  -2   7  -1  255.39    7.94  80
  -1   5  -1   85.29    5.40  80
  -1   6  -1   26.23    4.27  80
   0 -10   7   -0.69    9.92  80
   1  -3   2   19.35    4.64  80
  -4   3   0   18.12   12.01  80
  -4   6   0    1.54   10.66  81
  -4   7   0    0.10   12.26  81
  -3  -6   2  588.59   13.51  81
  -3  11   0   58.86   12.84  81
  -2 -10   5   35.43   10.78  81
  -2  -8   3   42.79    7.91  81
  -2   4  -1   52.98    6.49  81
  -2   5  -1   76.37    7.53  81
  -2   6  -1  452.71   11.23  81
  -1  12   0   -7.92    9.19  81
   0  -8   4  744.09   12.36  81
   1  -8   6   -2.81   10.37  81
   2  -6   7  231.00   14.03  81
   2   8   2  790.96   14.76  81
  -2  12   0    8.70    7.59  81
  -1  -9   4   32.15    5.74  81
   0  -9   5  135.04    7.44  81
   0  10   0  511.84    9.68  81
   1  -5   3  379.52    8.28  81
  -4   4   0  169.30   14.12  81
  -4   5   0   12.67   10.87  82
  -1 -10   5    8.02   10.61  82
   0  -7   3  636.45   10.93  82
   0  13   1   22.56   10.81  82
   1  10   1  634.35   12.53  82
   1  13   2    1.60   12.08  82
   2  11   3  129.35   12.24  82
  -3  -9   4   57.76    9.03  82
  -1  -8   3  603.68    9.22  82
  -1  14   1   -2.68    8.68  82
   0 -10   6    5.18    7.50  82
   1  -9   7   52.94    8.91  82
  -2  -2   0   -0.35    9.01  82
  -3  -4   1  474.32   14.73  82
  -3  10   0  209.86   12.57  83
  -1 -11   6   68.63   12.68  83
  -1  11   0  608.10   13.28  83
   0   9   0    0.33    6.26  83
   2  -6   6   41.54   10.79  83
   2  -5   5  590.82   12.68  83
   2   7   2   93.31    8.80  83
   3  -2   7    9.53   14.40  83
   3  -1   6   91.04   11.77  83
  -2  11   0  220.95    8.93  83
   3   1   5   32.03   12.02  83
   3   8   5  213.88   20.05  83
  -3  -8   3   32.86    9.31  84
  -2  -7   2   76.84    7.10  84
  -2  -5   1 1093.55   15.10  84
   1  -8   5  292.93   11.05  84
   1   9   1    0.39    6.34  84
   1  12   2   38.12   10.88  84
  -3   9   0   76.79    8.33  84
   0  12   1   21.40    6.50  84
   1  -7   4  270.26    7.92  84
   2  -7   7   52.23    9.14  84
   2   6   2   25.16    8.27  84
  -2 -10   4   17.05   10.53  85
  -1  -7   2  523.66   10.40  85
  -1  -5   1 1718.09   16.68  85
  -1  -2   0 2957.59   32.96  85
  -1  10   0    0.02    7.52  85
  -1  13   1  139.02   11.91  85
   0  -6   2 1167.25   13.34  85
   0   8   0 2634.82   19.39  85
   0  14   2    0.55   12.14  85
   1  -9   6  181.64   11.77  85
   2  -4   4   66.01    8.34  85
   2  -2   3  659.08   15.13  85
   2  10   3   63.80   11.05  85
  -2 -11   5   39.96    8.90  85
  -2  10   0    3.65    6.59  85
  -2  13   1   40.50    9.22  85
   0 -10   5  270.62    8.70  85
   0  -9   4   76.98    6.07  85
  -4  -5   2   96.51   14.17  85
  -4  -7   3    6.36   12.21  86
  -3   8   0    9.79    9.36  86
  -2  -9   3   -0.14    8.94  86
  -1 -11   5  270.22   12.41  86
  -1 -10   4  588.55   12.62  86
   1  -6   3  462.91   10.36  86
   1  -4   2  564.82   12.62  86
   1   8   1 1892.63   18.54  86
   2   5   2  123.38    8.71  86
   3  -3   7  100.56   15.63  86
   0 -11   6  110.76    9.48  86
   0  -8   3   -0.79    4.46  86
   0  -4   1 1340.86   14.40  86
   0   7   0   -0.26    3.76  86
   3  -2   6   34.26   13.42  86
   3   7   5   69.57   16.30  86
  -3 -10   4   62.67   12.91  87
  -2   9   0  680.91   13.81  87
  -1  -9   3   72.26    7.93  87
  -1   9   0    7.55    6.34  87
   0  11   1  565.66   12.04  87
   1  11   2  429.48   12.33  87
   1  13   3   74.65   12.94  87
   2  -7   6  223.58   12.31  87
   2  -6   5  142.46   10.19  87
  -1  12   1   -2.66    6.44  87
   2   4   2  722.98   18.42  87
   3   0   5  211.30   15.07  87
  -3  -7   2   28.56    9.30  88
  -3   7   0   80.36    9.50  88
  -3  11   1   52.00   12.65  88
  -2  12   1   -1.87   10.64  88
  -1  14   2    8.46   13.14  88
   0  13   2  113.49   11.63  88
   1  -9   5   64.08    9.73  88
   1  -1   1 1325.70   22.16  88
   2   9   3    3.07    9.09  88
   2  11   4  101.12   13.31  88
   0   6   0    9.46    4.08  88
   1 -10   6  119.15    9.37  88
   1  -8   4    1.99    5.47  88
   1   7   1   26.66    4.90  88
   2  -5   4   88.56    6.62  88
   2   3   2  427.63   18.84  88
  -4   8   1   14.12   12.44  89
  -3  -9   3  305.80   12.89  89
  -3   6   0  422.05   12.87  89
  -2  -8   2 1051.88   14.37  89
  -2   8   0  105.16    8.86  89
  -1   8   0  248.59    8.81  89
   2  -3   3   47.74    7.06  89
  -2 -11   4  198.63   10.08  89
  -1  -8   2   -2.06    4.46  89
   0 -11   5   14.77    7.47  89
   0 -10   4   54.68    6.76  89
   0  -7   2 1434.71   14.44  89
   0  10   1   17.98    5.44  89
   0  14   3    0.71   10.03  89
  -3  -5   1   18.41    8.02  90
  -3  10   1   -3.22   10.57  90
  -2  -6   1  494.83   11.31  90
  -2  11   1  179.70   10.92  90
  -1 -12   5  169.91   13.43  90
  -1 -11   4   13.15   10.64  90
  -1  11   1  566.14   13.36  90
   0   5   0    1.48    5.88  90
   1  -7   3 1266.17   14.74  90
   1  10   2   61.90    8.11  90
   1  12   3  112.58   11.54  90
   3  -3   6   72.56   12.90  90
  -4   7   1   18.89    9.01  90
  -1  -6   1  787.37   11.28  90
  -1  13   2   82.43    8.24  90
   0  12   2   29.74    6.76  90
   1  -5   2   14.51    4.07  90
   2  -8   6   40.64    9.06  90
   2  -7   5  125.00    7.71  90
   3   6   5   18.14   16.48  90
   3  -1   5   18.24   12.42  90
  -4  -8   3   38.15   15.01  91
  -3   5   0  310.19   11.62  91
  -2 -10   3  400.02   11.75  91
  -2   7   0  338.09   10.11  91
  -2  13   2   41.95   12.64  91
  -1 -10   3   36.52    7.92  91
  -1   7   0  635.04   11.50  91
   0  -9   3  701.71   11.97  91
   1   6   1   31.67    5.87  91
   2   8   3    5.13    7.80  91
   0  -5   1    5.43    4.26  91
   1 -10   5   47.92    7.76  91
  -4   6   1  194.63   13.13  92
  -3   4   0  110.64    9.51  92
   0   4   0 4622.19   27.06  92
   0   9   1   -3.04    6.33  92
   1 -11   6    7.33   14.22  92
   1  -9   4  546.31   12.59  92
   1  13   4   38.72   14.80  92
   2  -6   4  110.30    8.85  92
   2  10   4   -2.54   10.69  92
  -3   9   1   -7.07    7.52  92
  -1  10   1   15.65    5.51  92
  -3   0   0  -15.44   10.58  92
  -4  -6   2   45.03   13.64  92
  -3  -8   2   16.03    9.35  93
  -3   3   0  182.72   10.31  93
  -2  10   1  242.37   11.34  93
   0 -12   5   17.82   12.07  93
   0 -11   4    0.65    9.01  93
   0  13   3   93.30   12.80  93
   1   9   2    0.83    7.52  93
   1  11   3  316.09   12.01  93
   2  -4   3  127.17    8.19  93
   3  -4   6    9.08   12.28  93
   3  -2   5   17.43    9.60  93
  -3 -10   3    9.23    8.74  93
  -2 -12   4   64.69    9.16  93
  -2   6   0  648.30   11.06  93
  -2  12   2  123.53    8.82  93
  -1   6   0 1001.84   12.50  93
  -1  12   2   -4.89    7.36  93
   0   3   0   -0.92    4.57  93
   0  11   2  368.90    9.92  93
   1   5   1   49.81    5.02  93
   2  -9   6   14.40    8.89  93
  -4   5   1   95.03   12.21  94
  -3   1   0   89.99    9.58  94
  -3   2   0  473.12   14.80  94
  -3  11   2   42.50   12.58  94
  -2  -9   2    9.76    7.84  94
  -1 -12   4    9.20   11.46  94
  -1  -9   2  618.14   11.65  94
  -1  -3   0  849.91   15.75  94
   0  -8   2  115.63    7.26  94
   1  -8   3  476.94   11.08  94
   1  -2   1 2840.59   27.98  94
   2  -8   5   12.25   10.44  94
   0 -10   3    1.58    5.40  94
   1  -6   2 1380.49   14.25  94
  -2  -3   0  626.96   18.27  94
   2   7   3   71.13   10.28  94
  -3   8   1  563.51   14.29  95
  -2 -11   3   34.28   10.84  95
  -2  -7   1  263.37    9.28  95
  -1 -11   3   14.44    9.13  95
  -1  -7   1 1346.98   15.06  95
   0   2   0 5037.00   37.11  95
   0   8   1  203.56    8.36  95
   1 -11   5   -3.67   12.27  95
   1  12   4   -7.49   12.19  95
   2  -7   4  504.87   12.34  95
   2   9   4  174.10   12.55  95
   3  -5   6  127.33   13.75  95
  -2   5   0  583.12   11.02  95
  -2   9   1  252.31    8.47  95
  -2  13   3   69.16   10.87  95
  -1   9   1  757.24   11.43  95
  -1  13   3   66.06    9.20  95
   1 -10   4   30.69    6.61  95
   3   5   5   17.79   15.42  95
   3  -3   5  128.86   13.74  95
  -4   4   1  -14.13   10.31  96
  -3  -6   1    2.96    7.79  96
  -1   5   0   32.47    6.24  96
   0  -6   1 2154.35   17.86  96
   0  12   3    9.84   10.26  96
   1   8   2   30.60    6.79  96
   2  -5   3   33.79    6.84  96
  -4   8   2    7.33    8.57  96
  -2  11   2   37.57    7.81  96
  -1  11   2  253.12    8.90  96
   0  10   2   10.47    5.45  96
  -3  -9   2   -3.15   10.61  97
  -3  10   2  178.74   12.47  97
   0 -12   4  133.29   11.29  97
   0  13   4   94.54   13.05  97
   1  -9   3  640.43   12.25  97
   1  -3   1  677.94   12.45  97
   1   4   1 2584.01   23.83  97
   1  10   3    9.91    8.91  97
   2  -9   5  145.33   11.79  97
   2  10   5   49.58   13.01  97
  -3   7   1    0.84    6.41  97
  -1 -13   4   26.63   10.33  97
   0  -9   2  669.62   10.22  97
  -4   3   1  374.35   18.96  97
  -4  -7   2    5.39   12.20  98
  -3 -11   3  181.31   15.86  98
  -2 -10   2    2.71    9.22  98
  -2   4   0  959.54   14.74  98
  -2   8   1    8.67    7.81  98
  -1 -10   2  114.43    8.53  98
   0 -11   3  458.06   12.30  98
   0   7   1  673.18   11.05  98
   1 -12   5   53.26   14.37  98
   1  -7   2  317.62    9.18  98
   2  -8   4  528.31   13.21  98
   3  -6   6   68.44   15.37  98
   3  -4   5   64.23   11.33  98
  -1   4   0  732.73   10.93  98
  -1   8   1    8.56    4.51  98
   1 -11   4  224.19    9.47  98
   2   0   2 8901.12   75.13  98
  -4   2   1  181.65   13.30  99
  -4   7   2    2.88   12.19  99
  -2 -12   3    3.78   12.16  99
  -2  -8   1    8.73    7.86  99
  -2  12   3    3.47   12.10  99
  -1 -12   3  185.24   11.77  99
  -1  -8   1    8.74    6.32  99
  -1  -4   0  821.59   14.11  99
  -1  12   3  168.05   11.90  99
   1  11   4  256.76   12.62  99
   2  -6   3  875.88   14.14  99
   2   6   3  600.21   15.11  99
  -3  11   3  164.98   11.70  99
  -2  10   2    9.47    6.47  99
  -1  10   2   69.42    6.48  99
   0  -7   1  421.92    8.15  99
   0  11   3  272.15    9.16  99
   1  12   5   28.88   10.15  99
   2  -1   2  784.95   20.05  99
  -3   6   1    5.47    7.73 100
  -3   9   2    4.60   10.42 100
  -2   3   0  765.28   14.26 100
  -1  13   4   27.59   13.59 100
   0 -13   4  121.60   13.06 100
   0   9   2  990.08   13.94 100
   1  -4   1 3692.15   24.05 100
   1   7   2  283.23    9.48 100
   2 -10   5   64.00   12.86 100
   2   8   4  326.51   12.86 100
   3  -5   5   25.32   10.84 100
   0 -10   2   12.31    5.48 100
   1 -10   3    6.20    6.32 100
   1   9   3  322.47    9.43 100
  -4   1   1    8.96   11.61 100
  -2  -4   0  902.56   18.91 100
   2  -2   2  782.48   17.04 100
  -3  -7   1    0.42    9.13 101
  -1 -11   2  405.43   12.11 101
   0  12   4  108.19   11.46 101
   1  -8   2   45.44    6.64 101
   1   3   1  436.33   12.32 101
   2  -9   4  239.46   12.27 101
  -2 -11   2   35.45    7.64 101
  -2   7   1  194.82    7.05 101
   0 -12   3   -0.94    7.37 101
   2  -7   3   56.64    6.15 101
   3   6   6   62.71   18.78 101
  -4   6   2   35.65   11.27 102
  -3 -10   2  150.89   12.31 102
  -2 -13   3  115.83   15.43 102
  -2  11   3   36.59   10.70 102
  -1 -13   3   98.91   12.96 102
  -1   3   0  989.84   13.70 102
  -1   7   1 1359.21   14.66 102
  -1  11   3   11.52    9.13 102
   0  -2   0 5230.55   37.60 102
   0   6   1 2088.47   17.56 102
   1 -12   4    6.51   11.97 102
   2  -3   2  742.30   14.31 102
   2   9   5  108.84   11.83 102
   3  -6   5   18.34   11.77 102
  -1  -9   1  702.93   10.58 102
  -1  -5   0   21.56    4.40 102
   0  -8   1  142.00    6.23 102
   1  -5   1   84.30    5.21 102
  -4   0   1    0.54   13.25 102
   3  -2   4  130.63   13.68 102
   3  -1   4  130.59   13.26 102
  -4  -8   2    4.72   12.32 103
  -4   8   3   53.30   14.74 103
  -3   5   1   24.03    7.97 103
  -3   8   2   12.70    9.29 103
  -3  10   3    7.42   12.21 103
  -2  -9   1  368.81   11.08 103
  -2   9   2   11.63    7.71 103
  -1   9   2  606.78   12.20 103
   0  10   3    4.37    7.57 103
   1  10   4   33.71    9.19 103
  -2  12   4   69.25    9.14 103
  -1  12   4    4.44    7.51 103
   1 -11   3  237.62    8.33 103
   1  -9   2   -0.76    5.33 103
   1  11   5   -4.23    8.54 103
   3   4   5   52.86   18.14 102
  -4  -1   1  146.17   16.26 103
   3   0   4    0.92   11.28 103
   3  -3   4   52.35   11.90 103
  -2  -5   0  636.45   14.63 104
  -2   2   0    1.59    5.63 104
   0 -11   2  611.46   12.82 104
   0  -3   0   -0.31    6.19 104
   0   8   2  116.62    7.54 104
   2 -10   4    6.97   10.51 104
   2  -8   3    7.46    7.72 104
   2  -4   2 1043.97   15.33 104
   2   5   3   25.34    6.96 104
   2   7   4  366.07   13.23 104
   3  -7   5   95.40   13.34 104
  -1 -12   2    3.01    7.33 104
   0 -13   3   80.47    9.22 104
   1 -13   4   45.46   10.47 104
   1   6   2  823.03   13.48 104
  -4   5   2   94.34   11.71 105
  -3 -11   2   41.97   12.83 105
  -3  -8   1  512.02   15.31 105
  -2 -12   2  156.98   12.92 105
  -2   6   1  544.95   11.15 105
   0  11   4    3.57    9.04 105
   0  12   5    4.86   12.16 105
   1  -6   1   37.37    5.87 105
   1   8   3  417.78   11.30 105
   3  -4   4   38.85    9.59 105
  -2  10   3  288.92    9.46 105
  -1 -10   1   16.36    5.55 105
  -1  -6   0  753.13   11.53 105
   0  -9   1    0.52    4.40 105
   0  -4   0 3432.55   23.51 105
   2  -5   2  152.74    6.58 105
  -4   7   3   -3.82   12.42 106
  -3   4   1  646.36   13.80 106
  -3   7   2   26.24    9.37 106
  -3   9   3  297.31   13.11 106
  -1   2   0 5360.85   33.48 106
  -1   6   1 1396.52   14.25 106
  -1  10   3   34.24    7.78 106
   0   5   1   10.13    5.92 106
   1 -12   3  126.61   11.48 106
   1 -10   2   73.71    8.14 106
   2 -11   4  115.10   13.16 106
   2  -9   3   -2.06    9.03 106
   3  -8   5  313.78   16.92 106
   3  -5   4   28.33    9.45 106
  -2 -10   1  173.43    8.22 106
  -2   8   2  726.46   11.33 106
  -2  -6   0  790.66   15.39 107
  -2  11   4  273.72   13.47 107
  -1   8   2    2.00    6.25 107
  -1  11   4   24.17   10.52 107
   0 -12   2   57.29    9.32 107
   1  -7   1   52.98    6.87 107
   1   9   4  489.16   12.82 107
   1  11   6   14.39   14.22 107
   2  -6   2   31.71    6.70 107
   2   8   5    4.67   10.52 107
   2   9   6   16.79   12.51 107
  -1 -13   2   78.95    8.30 107
  -1  12   5   87.89    9.54 107
   0 -14   3    7.47    9.90 107
   0  -5   0    0.70    4.17 107
   0   9   3  391.48    9.39 107
  -2   1   0  967.11   18.86 107
  -4   4   2    2.10   11.01 108
  -3  10   4   63.18   12.56 108
  -2 -13   2   48.87   13.73 108
  -1  -7   0  573.48   11.46 108
   0 -10   1   27.73    7.73 108
   1  10   5   44.17   10.92 108
   3  -6   4  350.89   13.52 108
  -2   5   1 1120.71   13.51 108
  -1 -11   1  397.78   10.10 108
   0   7   2 1243.02   14.28 108
   2 -10   3   62.08    7.94 108
  -3  -9   1   -5.78   12.90 108
   3   5   6   98.80   17.11 108
   0  -6   0   17.83    5.72 109
   0  10   4   53.97    9.29 109
   0  11   5   17.50   10.50 109
   1 -13   3   75.62   12.72 109
   1 -11   2  457.21   12.21 109
   1  -8   1 2083.49   18.06 109
   2  -7   2  140.79    8.67 109
   3  -7   4    7.86   10.69 109
  -4   6   3  180.12   10.55 109
  -3   6   2  553.65   10.98 109
  -3   8   3   17.83    6.74 109
  -2 -11   1  120.94    8.10 109
  -2   9   3    2.05    6.14 109
   0 -13   2  114.08    8.44 109
   1   2   1 2650.76   43.70 109
  -3   3   1   10.05    6.64 110
  -2  -7   0  305.97   10.49 110
  -2   7   2   90.73    7.23 110
  -1  -8   0  250.00    8.83 110
  -1   5   1 2076.33   16.86 110
  -1   9   3   48.48    8.07 110
   1   5   2   16.80    5.59 110
   1   7   3 1049.68   14.97 110
   2   6   4   84.19    9.13 110
  -2  10   4    8.35    7.48 110
  -1 -14   2   15.78    9.73 110
   0 -11   1  452.35    9.74 110
   2  -8   2  804.50   11.77 110
  -4   3   2   70.38   10.10 111
  -3   9   4   66.77   12.27 111
  -2  11   5   43.57   12.60 111
  -1 -12   1   10.83    8.96 111
  -1  10   4  530.23   12.71 111
  -1  11   5  223.41   12.44 111
   0  -7   0    2.52    5.17 111
   1 -12   2   52.71   10.79 111
   1  -9   1    0.17    6.93 111
   2 -11   3  170.80   11.83 111
   3  -8   4    6.05   12.12 111
  -1   7   2  359.13    8.32 111
   2   4   3  107.93   10.27 111
  -4   7   4   -0.12   14.44 112
  -3 -10   1    1.71   10.66 112
  -2 -12   1    9.40   10.45 112
  -2  -8   0  109.01    9.19 112
   0 -14   2   14.06   11.92 112
   0   4   1 1856.68   17.61 112
   0   8   3   -1.72    6.33 112
   1   8   4    5.15    7.75 112
   1  10   6  101.71   13.05 112
   2   7   5  114.08   10.66 112
   2   8   6   48.13   12.59 112
  -1  -9   0    4.22    4.46 112
   0  -8   0 1807.10   16.26 112
   0  11   6   87.05    9.30 112
   1   9   5   35.83    6.94 112
   2  -9   2    1.19    6.37 112
   3  -9   4    0.90    8.73 112
  -4   5   3  435.24   14.88 113
  -3   7   3    9.97    8.86 113
  -2   4   1  258.80    8.20 113
  -2   8   3   27.64    7.91 113
  -1   1   0  278.33   10.82 113
   0 -12   1   21.52    9.18 113
   0   9   4   92.85    8.44 113
   1 -10   1  677.11   12.50 113
   2 -12   3   47.94   12.73 113
  -3   5   2   94.90    6.48 113
   0   6   2  755.51   10.83 113
   0  10   5  181.85    8.42 113
   1 -13   2    2.02    8.53 113
  -3 -11   1   46.00   12.99 114
  -3   2   1   64.35    7.39 114
  -2  -9   0  686.70   14.77 114
  -1 -13   1  156.30   11.87 114
  -1   8   3 1029.53   13.90 114
   2 -10   2  368.14   11.75 114
   3  -5   3  122.47   10.34 114
   3  -4   3  168.23    9.96 114
  -2   6   2    4.34    4.52 114
  -2   9   4  270.74    9.16 114
  -2  10   5   29.84    7.71 114
  -1 -10   0    1.47    5.40 114
  -1  11   6   44.50    9.09 114
   0  -9   0   -0.94    4.43 114
   3  -6   3    5.97    6.52 114
   3   3   5   98.28   16.81 114
  -2   0   0   49.52    8.85 114
   3  -3   3  445.14   15.10 114
  -4   2   2  127.39   10.15 115
  -3   8   4   67.11   10.98 115
  -2 -13   1   62.34   13.06 115
   0 -13   1   31.30   10.73 115
   1 -11   1   59.43    9.44 115
   3  -7   3  119.25   10.32 115
  -3   9   5   50.02    9.05 115
  -1   4   1 1274.07   13.14 115
  -1   9   4   26.49    5.68 115
  -1  10   5   11.02    7.36 115
   1   6   3  264.43    8.30 115
  -4   6   4   -5.72   12.16 116
  -1   6   2  274.96    8.03 116
   0 -10   0  869.99   13.41 116
   1 -14   2  470.11   17.54 116
   2 -11   2  113.06   11.45 116
   3  -8   3  395.94   13.56 116
  -2 -10   0    7.55    6.47 116
  -1 -14   1    8.85    8.54 116
  -1 -11   0  404.06   10.56 116
   1  -6   0  994.82   12.42 116
   1  -5   0   27.59    4.44 116
   1   9   6   99.74    8.72 116
   2  -5   1   58.74    5.37 116
   3  -2   3  190.47   14.77 116
   3   4   6    4.71   15.21 116
  -4   4   3  214.17   13.08 117
  -3   6   3  212.31   10.17 117
   0   7   3  603.35   11.21 117
   0  10   6    3.59   10.58 117
   1 -12   1   92.84   10.00 117
   1  -7   0  677.24   11.40 117
   1  -4   0  941.78   12.72 117
   1   4   2  436.30   11.69 117
   2  -7   1  389.23    9.78 117
   2  -6   1  450.82   10.22 117
   2  -4   1   67.80    6.89 117
   2   5   4   87.10    9.14 117
   2   7   6  186.52   12.77 117
  -2   7   3    6.01    5.42 117
   0 -14   1  297.00   11.60 117
   1   7   4  227.38    8.29 117
   1   8   5  161.74    8.51 117
   2 -12   2   23.83    8.95 117
   3  -9   3   -1.73    8.73 117
  -3   4   2    5.83    7.86 118
  -2  10   6   34.54   12.50 118
   0 -11   0    2.96    7.40 118
   0   8   4  709.89   12.66 118
   0   9   5  153.04   10.06 118
   1  -8   0  263.28    8.71 118
   2  -8   1  162.02    8.86 118
   2  -3   1  939.97   14.02 118
   2   6   5  108.70   10.36 118
  -2 -11   0  200.23    9.49 118
  -2   3   1  408.90    8.37 118
  -2   8   4   85.51    7.09 118
  -2   9   5  181.50    8.91 118
  -1  10   6    2.15    7.51 118
   1  -3   0  725.82   11.27 118
  -4  -6   1  166.16   22.41 117
  -3  -6   0  367.51   17.32 118
  -4   1   2  217.41   11.60 119
  -3   7   4    3.83    9.11 119
  -3   8   5  379.76   14.89 119
  -1 -12   0    5.32    9.06 119
  -1   7   3  375.99    9.33 119
   0  10   7   -0.10   14.10 119
   1 -13   1   -0.33   10.54 119
   1  -9   0    6.16    6.33 119
   1   9   7   44.58   12.83 119
   2  -9   1    9.71    7.75 119
   3 -10   3   99.78   14.01 119
  -4   5   4    7.91    8.56 119
  -2   5   2   -2.51    4.55 119
  -1   9   5  218.62    8.94 119
   0   3   1   45.84    5.05 119
   0   5   2 1332.62   13.55 119
   2 -13   2    2.88   10.18 119
  -4  -5   1   80.01   23.42 117
  -4  -7   1   21.86   17.86 119
  -3  -5   0  279.09   17.59 119
  -3  -7   0   77.89   12.83 119
  -3   1   1   59.20    7.83 120
  -1   8   4   63.78    8.03 120
   0 -12   0  148.03   10.19 120
   2 -10   1   39.88    9.22 120
  -4   6   5  215.86   11.93 120
   1 -10   0    2.25    5.32 120
  -4  -8   1    8.93   15.31 120
  -3  -8   0   21.28   11.38 120
  -4   3   3  740.42   17.41 121
  -2 -12   0   15.15   10.71 121
  -1 -13   0   60.09   11.18 121
  -1  10   7   47.35   14.62 121
   1 -14   1   55.78   13.73 121
   2   7   7   39.11   12.83 121
  -3   5   3  150.63    6.94 121
   0 -13   0   -2.40    7.26 121
   0   9   6  112.88    8.64 121
   1   8   6    3.32    7.31 121
   2 -11   1  302.06    9.68 121
  -3  -9   0   72.88   11.89 122
  -2   6   3 1805.66   15.91 122
  -2   9   6  200.72   12.68 122
  -1  -7  -1   50.25    6.95 122
  -1  -6  -1   37.01    5.97 122
  -1   5   2 3971.95   21.79 122
   1 -11   0  629.79   13.31 122
   2  -2   1 1182.22   16.87 122
   3  -7   2  167.42   10.41 122
   3  -6   2  117.11   10.17 122
  -3   8   6    4.95    8.67 122
  -1  -8  -1 1343.46   15.60 122
  -1   3   1 2069.21   16.89 122
   1  -2   0 3165.78   24.81 122
   1   5   3  288.28    8.26 122
   3  -8   2   76.78    7.33 122
   3  -1   3  464.98   20.34 122
   2   3   3   40.78    8.64 122
  -3   3   2  781.48   12.85 123
  -3   6   4  261.00   11.05 123
  -3   7   5   61.41   10.90 123
  -2 -13   0   89.98   13.42 123
  -2   7   4   -0.76    7.58 123
  -2   8   5   24.39    9.18 123
  -1 -14   0  233.62   14.42 123
  -1  -9  -1    0.86    6.33 123
  -1  -5  -1   98.94    7.12 123
  -1   9   6  348.68   12.68 123
   0  -7  -1  675.62   11.22 123
   0   6   3    3.50    5.78 123
   0   8   5   17.86    7.79 123
   1 -12   0    5.62    9.13 123
   1   7   5  386.78   11.40 123
   2 -12   1    3.33   10.56 123
   2   6   6   31.13   10.77 123
   3  -9   2    8.44   10.48 123
   3  -5   2   65.96    8.55 123
  -4   4   4   86.43    8.46 123
   0 -14   0   58.86    9.14 123
   0  -8  -1  148.38    6.31 123
   0  -6  -1 1557.97   15.62 123
   0   7   4  300.44    8.37 123
  -4   0   2  152.18   12.38 123
  -3 -10   0  199.42   15.81 123
  -2   9   7   20.10   14.15 124
  -1 -10  -1  646.65   13.00 124
   0  -9  -1   -1.02    6.33 124
   0   9   7  247.93   14.09 124
   1   6   4   46.10    7.10 124
   1   8   7  225.37   14.02 124
   3 -10   2   44.08   12.40 124
  -4   5   5   32.70    8.78 124
  -1   6   3   -1.16    4.51 124
  -1   8   5  132.76    6.94 124
   0  -5  -1    7.00    4.17 124
   1 -13   0   56.38    7.93 124
   2 -13   1   70.03    9.16 124
   3  -4   2    3.71    9.83 124
  -4   2   3  363.40   12.36 125
  -3 -11   0   56.41   13.09 125
  -2   2   1  771.12   11.84 125
  -2   4   2 1461.24   14.36 125
  -1   7   4    1.70    6.30 125
  -1   9   7  306.19   14.44 125
   0 -10  -1   26.76    7.65 125
   2   5   5  446.17   12.90 125
   3 -11   2  145.46   15.58 125
  -1 -11  -1   43.32    6.73 125
  -3  -4   0   86.55   17.67 123
  -3   4   3    2.80    7.61 126
  -2   8   6  376.56   12.49 126
  -1  -4  -1 2953.35   36.79 126
   0 -11  -1  646.34   12.59 126
   0   8   6  305.73   11.34 126
   1 -14   0  257.49   14.31 126
   2  -8   0  131.45    8.58 126
   2  -7   0  393.26    9.68 126
   2   4   4   51.72    8.32 126
  -3   7   6    4.09    8.52 126
   2  -9   0  589.21   10.20 126
   3   3   6   67.60   15.89 126
  -3   0   1  928.28   15.86 127
  -2  -9  -1    8.09    7.82 127
  -2  -8  -1  118.71    9.47 127
  -2  -7  -1  275.70   11.17 127
  -1 -12  -1   94.97   10.08 127
   0 -12  -1   22.32    9.32 127
   0  -4  -1 2145.85   19.43 127
   0   4   2  416.72   13.14 127
   1   7   6   70.32    9.57 127
   2 -10   0    9.35    9.18 127
   2  -6   0  900.18   12.70 127
   2   6   7  211.82   14.05 127
  -3   5   4 1013.66   12.74 127
  -3   6   5    2.92    7.27 127
  -2   5   3   24.47    4.78 127
  -2   7   5    7.85    6.40 127
  -1   8   6    2.22    6.37 127
   3  -3   2  560.45   15.01 127
  -4   3   4  182.91   11.88 128
  -3   2   2 1077.30   13.89 128
  -2 -10  -1   26.83    9.41 128
  -2  -6  -1  384.20   12.33 128
  -2   6   4  491.30   10.39 128
  -1 -13  -1    5.94   10.41 128
   0   7   5   40.88    7.83 128
   1  -9  -1 1138.46   14.21 128
   1  -8  -1    7.45    6.35 128
   1  -7  -1 1415.24   14.89 128
   1   3   2   19.98    6.19 128
   2 -11   0  353.99   11.71 128
   2  -5   0  809.12   12.36 128
  -4   4   5    4.49    8.48 128
  -2   8   7    8.72    8.32 128
  -1   4   2  198.37    6.10 128
   0 -13  -1   20.50    7.61 128
   0   8   7   -0.40    7.33 128
   1 -10  -1   18.36    5.51 128
   2 -12   0    6.51    7.61 128
  -2 -11  -1  282.85   13.91 129
   1 -11  -1  654.64   13.47 129
   1  -6  -1 1466.74   14.72 129
   3  -9   1  402.12   13.45 129
   3  -8   1  165.18   10.41 129
   4  -5   4   37.65   14.65 129
  -1   7   5    0.55    5.30 129
   0   5   3 2703.90   18.67 129
   0   6   4   22.33    4.69 129
   1   6   5   40.24    5.83 129
   1   7   7    7.94    7.24 129
   3 -10   1    2.03    7.57 129
   3   2   5   15.44   13.50 129
  -4  -1   2  243.62   13.78 129
   2  -1   1    7.71    8.10 129
  -4   1   3   85.92    9.96 130
  -2 -12  -1   -2.21   10.63 130
  -1 -14  -1   51.83   13.79 130
  -1   8   7  123.04   11.27 130
   0 -14  -1  399.22   15.49 130
   0   8   8    5.71   13.44 130
   1 -12  -1    4.85    8.91 130
   2 -13   0  102.50   13.24 130
   2   5   6  114.26   10.39 130
   3 -11   1  133.31   13.28 130
   3  -7   1   48.00    9.36 130
  -2   7   6  123.24    7.62 130
  -1   5   3   78.34    4.85 130
  -1   6   4 1599.39   14.08 130
   1  -5  -1 1341.59   14.28 130
  -3   6   6  559.47   13.63 131
  -2 -13  -1   74.15   13.30 131
  -2  -5  -1   62.79    7.72 131
  -1   8   8   -5.59   13.24 131
   1 -13  -1  156.62   11.97 131
   1   4   3    2.28    5.26 131
   1   5   4 1541.60   17.05 131
   1   7   8    4.25   13.13 131
   2  -4   0  870.16   12.33 131
   3  -6   1  275.19   10.26 131
  -3   3   3  144.97    6.61 131
  -2   3   2    6.16    3.87 131
   0  -3  -1   47.76    5.02 131
   0   7   6    7.13    6.29 131
  -2  -1   0  651.26   21.29 130
  -1   0   0   -0.39    7.89 131
   3   3   7  103.65   18.91 131
  -4   2   4   18.34   10.77 132
  -4   4   6  196.01   15.90 132
  -3   5   5   31.43    9.28 132
  -1  -3  -1  415.33   12.00 132
  -1   2   1   -0.48    5.55 132
   0   2   1 7645.89   43.99 132
   1 -14  -1    5.26   12.17 132
   1  -1   0  211.02    9.82 132
  -3   4   4  113.85    6.69 132
  -2   6   5   65.49    6.13 132
  -1   7   6    8.85    6.44 132
   4  -4   4   12.14   16.07 132
  -4   3   5   51.30   12.47 133
  -3   6   7   -2.20   12.25 133
  -2   7   7   21.50   10.70 133
   1   6   6  753.52   14.16 133
   2   5   7   52.89   11.09 133
   3  -5   1  267.85   10.17 133
  -2   4   3    8.67    4.59 133
  -2   5   4  126.89    5.67 133
   1  -4  -1 1187.13   12.98 133
   3  -2   2  257.05   12.68 133
  -2   1   1  563.43   11.16 134
  -2   7   8   -3.46   14.14 134
   0 -11  -2  608.33   13.58 134
   0 -10  -2   17.13    7.64 134
   0  -9  -2 1045.58   14.07 134
   0   6   5 1540.66   16.12 134
   0   7   7    7.97    9.57 134
   2 -10  -1  320.37   11.07 134
   2  -9  -1  406.91   10.55 134
   2   4   5    9.77    7.71 134
   4  -6   3   18.77   13.42 134
  -1 -10  -2   52.75    6.02 134
  -1   7   7  176.47    8.80 134
   0  -8  -2   78.37    5.65 134
   2 -11  -1  151.62    7.69 134
   2  -8  -1    6.81    5.43 134
   2   5   8   10.56   10.33 134
  -4   0   3   37.51    9.58 135
  -3   1   2   -2.79    6.86 135
  -3   5   6   13.25   10.39 135
  -1 -11  -2  418.88   12.77 135
  -1  -9  -2   -2.07    7.57 135
  -1  -8  -2   41.29    6.81 135
  -1   6   5  644.61   10.96 135
   0 -12  -2   44.97    9.46 135
   0   7   8  167.11   13.16 135
   1   6   7  321.50   12.63 135
   2 -12  -1   11.71   10.39 135
   2  -3   0  715.80   11.70 135
  -2   6   6   10.68    6.29 135
  -1 -12  -2   36.69    7.78 135
  -1   7   8   65.82    8.87 135
   0 -13  -2  113.07    8.68 135
   0  -7  -2 1548.19   15.32 135
   2 -13  -1   64.70    9.01 135
   2  -7  -1  191.55    6.55 135
   3 -10   0  168.94    8.97 135
  -4   3   6  146.46   15.11 136
  -1 -13  -2    1.57   11.93 136
   1   6   8  143.06   13.27 136
   3 -11   0   64.88   12.56 136
   3  -9   0  103.68   11.02 136
   3  -8   0   16.26    9.14 136
   3  -4   1  481.47   11.94 136
  -1   5   4    9.07    4.46 136
   0 -14  -2   -8.80    8.71 136
   0   5   4  120.67    5.62 136
   1 -11  -2  280.97    9.00 136
   1 -10  -2   82.76    6.36 136
   1  -9  -2  437.02    9.48 136
   1   5   5  130.24    6.64 136
  -4  -2   2   30.14   12.06 136
  -3  -1   1   78.92    9.48 136
   4  -5   3   28.96   15.25 136
  -4   1   4  226.95   11.85 137
  -4   2   5  148.40   12.21 137
  -3 -11  -1   96.44   13.74 137
  -3 -10  -1    4.04   10.83 137
  -3   4   5  141.59    9.84 137
  -3   5   7   35.63   12.42 137
  -2   6   7  863.76   14.01 137
  -1 -14  -2  427.24   18.02 137
  -1  -7  -2  286.28    9.63 137
  -1   3   2  622.82   10.16 137
   0   6   6  588.09   11.54 137
   1 -12  -2    3.02   10.31 137
   2  -6  -1  602.99   10.79 137
   2   3   4  413.57   11.22 137
  -3   2   3    8.24    5.54 137
  -2   5   5 1996.47   14.87 137
  -1   4   3 1330.20   12.38 137
  -1   6   6   -0.28    5.41 137
   0  -6  -2  841.26   11.46 137
   0   3   2 2806.18   21.28 137
   1 -13  -2   81.55    8.20 137
   1  -8  -2    1.74    4.43 137
   3  -7   0   65.13    6.99 137
   3   2   6   27.54   13.38 137
  -3  -9  -1  267.54   14.63 138
  -3   3   4 1543.67   15.05 138
  -2   6   8   14.61   12.02 138
   0   4   3   16.63    5.75 138
   1 -14  -2   26.08   13.80 138
   2   4   6   60.03    9.61 138
   4  -7   2    3.17   12.10 138
   1  -7  -2  425.15    8.69 138
   1  -3  -1 1903.45   16.21 138
  -2  -4  -1   49.30    8.47 138
   2   2   3  432.97   14.28 138
  -2 -11  -2  109.73   11.75 139
  -2 -10  -2  287.05   12.49 139
  -2   2   2  155.80    6.79 139
  -2   4   4    1.23    6.22 139
  -1  -6  -2 1684.40   17.72 139
   0   6   7   91.20    9.51 139
   3  -6   0  532.10   11.47 139
  -3   4   6   -3.57    7.41 139
  -2 -12  -2   22.84    9.14 139
  -1   6   7   19.17    6.49 139
   1   4   4    3.22    4.52 139
   1   5   6   59.68    6.21 139
   1   1   1  568.63   33.67 139
   4  -3   4  161.88   20.20 139
  -3  -8  -1  130.68   13.33 139
  -4   2   6   51.34   12.56 140
  -2 -13  -2   -2.97   14.63 140
  -2  -9  -2    2.12    9.12 140
  -2   3   3 1510.74   13.67 140
  -2   5   6  128.08    9.42 140
  -1   6   8  569.43   13.48 140
   0   6   8   38.46   10.68 140
   0   6   9  234.28   15.84 140
   2  -5  -1 1334.71   14.10 140
   2   4   7   78.80   11.20 140
  -1   5   5   75.50    5.07 140
  -1   6   9    5.72    9.91 140
   0  -5  -2 1108.03   19.60 140
   0   5   5   48.83    5.13 140
   1  -6  -2  186.39    6.30 140
   3   2   7   -3.44   17.98 140
   4  -6   2   59.61   15.56 140
  -4  -1   3  272.29   11.33 141
   1   5   7    6.20    9.13 141
   2 -12  -2  197.07   12.50 141
   2 -11  -2   56.51   10.67 141
   2 -10  -2    9.65    9.16 141
   2   4   8   19.68   14.33 141
   3  -3   1  138.09    9.06 141
   4  -4   3   -5.39   12.54 141
  -3   4   7  347.03   10.51 141
   2 -13  -2   33.92   10.21 141
   3 -11  -1   42.85    9.11 141
  -4   0   4  241.89   11.65 142
  -4   1   5   79.32   10.94 142
  -3   3   5  483.80   11.24 142
  -2  -8  -2  841.97   16.65 142
  -2   5   7    4.80    9.63 142
   1   3   3 1476.89   16.16 142
   1   5   8 1193.67   19.28 142
   2  -9  -2   16.13    7.60 142
   2  -2   0    3.10    5.56 142
   3 -10  -1   -5.09   10.55 142
   3  -5   0  330.92   10.27 142
  -3   4   8   11.25   10.19 142
  -2   5   8   18.11    8.40 142
   0 -12  -3    9.90    7.18 142
   0 -11  -3  306.35    9.68 142
   3  -9  -1   -0.03    7.30 142
  -3   0   2   -4.78    6.43 143
  -2   4   5  350.90    9.70 143
  -1  -5  -2   15.71    5.64 143
  -1   5   6 3655.17   20.92 143
   0 -14  -3   -4.26   14.03 143
   0 -13  -3  107.80   12.85 143
   0 -10  -3   -1.12    7.51 143
   0   5   6    6.34    7.57 143
   2  -8  -2 1060.96   13.61 143
   2   3   5  171.57    9.22 143
   4  -8   1   16.11   14.10 143
  -3   2   4  173.80    6.91 143
  -1   4   4  143.15    5.67 143
   0  -9  -3  499.92   10.28 143
   1  -5  -2 2819.05   19.02 143
   2  -4  -1  151.12    5.65 143
   3  -8  -1  445.25    9.62 143
  -4  -5   1   91.66   24.70 140
  -3  -7  -1   41.21   11.58 143
  -3   1   3  473.10   10.13 144
  -2  -7  -2  103.82    9.09 144
  -1 -13  -3   71.48   12.93 144
  -1 -12  -3  126.81   11.69 144
  -1 -11  -3  298.38   12.32 144
   0   4   4  953.61   16.31 144
   1 -13  -3  106.92   12.66 144
   1 -12  -3  189.27   12.03 144
   1 -11  -3    3.53    9.12 144
   1   2   2 1577.64   19.64 144
   1   4   5  434.12   10.04 144
   4  -5   2   66.07   11.57 144
  -4   1   6  147.27    9.52 144
  -3   3   6    8.61    6.35 144
  -1   5   7   97.68    6.96 144
   0   5   7 1855.13   16.62 144
   0   5   9   43.28    9.11 144
   1 -10  -3   21.54    5.66 144
   2  -7  -2   59.69    5.07 144
  -4  -3   2   59.99   12.20 144
  -1 -10  -3   11.56    8.97 145
  -1   5   8   44.71   10.67 145
  -1   5   9    0.66   13.13 145
   0  -8  -3   -1.00    6.32 145
   0   5   8   71.14   10.84 145
   1  -9  -3   60.05    8.10 145
   3  -7  -1   -2.36    8.33 145
   4  -7   1   13.20   12.25 145
  -2   3   4  257.86    6.52 145
  -2   4   6   60.83    5.74 145
   0  -4  -2  516.41    9.12 145
   3   1   5   25.75   11.69 145
  -4   0   5   47.18   10.81 146
  -3   3   7  101.93   11.12 146
  -1  -9  -3  555.37   12.88 146
  -1   3   3  216.27    7.22 146
   2   3   6  243.67   10.74 146
   3  -4   0   96.24    8.73 146
  -3   3   8  351.70   11.69 146
  -2   4   7   -5.56    6.44 146
   1  -8  -3  749.55   11.11 146
  -3   2   5    7.91    7.80 147
  -2   0   1   14.25    6.05 147
  -2   4   8  811.04   13.64 147
  -2   4   9   -5.95   14.37 147
  -1   1   1  884.66   14.21 147
  -1   4   5   21.11    6.37 147
   0  -7  -3  614.60   11.54 147
   1  -2  -1   -0.30    5.52 147
   1   4   6   89.68    9.45 147
   1   4   9   29.87   14.72 147
   2 -13  -3  105.45   15.06 147
   2 -12  -3    3.32   12.17 147
   2  -6  -2    5.78    6.31 147
   2   3   7   17.61   10.63 147
   2   3   8   52.45   12.71 147
   4  -6   1  228.70   12.36 147
  -2   2   3 1754.47   13.47 147
  -1  -8  -3  312.88    8.87 147
  -1   2   2  392.09    8.02 147
   0   3   3  510.93   10.90 147
   1   4   7   42.32    6.80 147
   1   4   8    5.88    7.55 147
   2 -11  -3   38.57    7.62 147
   3 -11  -2   40.10    8.80 147
  -4  -2   3  590.63   17.83 147
  -4  -1   4  148.06   11.40 148
   0   4   5  174.32    8.23 148
   1  -4  -2  300.55    8.00 148
   2 -10  -3  477.41   12.21 148
   3 -10  -2  218.18   12.04 148
   3  -6  -1    4.44    7.72 148
   1  -7  -3  239.80    7.32 148
  -3  -2   1   43.89    9.19 148
  -1  -2  -1 1950.79   27.63 148
  -4   0   6  203.93   13.12 149
  -3   2   6  370.30   10.63 149
  -2 -12  -3   53.19   13.02 149
  -2  -6  -2   23.22    6.77 149
  -2   1   2  117.23    6.89 149
  -2   3   5 2347.35   15.83 149
  -1   4   6  237.30    9.25 149
  -1   4   9  638.69   17.68 149
   2  -9  -3   -2.74    8.83 149
   2  -3  -1  533.10    9.71 149
   3  -9  -2    9.49   10.29 149
   3   1   6   63.67   11.39 149
   4  -8   0  225.37   13.70 149
  -3   1   4  211.34    7.12 149
   0   4   6   57.49    6.24 149
   0   4   9    0.12    8.45 149
   1   3   4  348.05    7.93 149
   3   1   7  115.71   18.26 149
   4  -4   2  246.60   15.26 149
  -3 -11  -2  116.07   15.89 150
  -3   2   7    2.03   10.55 150
  -2 -11  -3  149.40   12.46 150
  -1  -7  -3 1221.98   15.29 150
  -1  -4  -2  445.97   10.20 150
  -1   4   7   -1.61    8.95 150
  -1   4   8    6.45   10.15 150
   0 -13  -4  101.58   12.98 150
   0 -12  -4  107.48   11.41 150
   0  -6  -3    9.81    6.20 150
   0   4   7   43.20    8.42 150
   0   4   8   16.92   10.29 150
   2  -5  -2   -1.44    6.34 150
   2   2   4   19.46    6.87 150
  -3   2   8   30.41    8.59 150
  -2   3   6  622.67    8.93 150
   0 -11  -4   -0.13    6.33 150
   1 -13  -4   37.61   10.16 150
   1 -12  -4    3.08    7.53 150
   2  -8  -3   30.63    5.55 150
   3  -8  -2   17.55    6.54 150
   3  -1   2   16.51   12.55 149
   4  -3   3  172.53   17.84 150
   3  -2   1    0.76    7.92 150
  -4  -1   5  147.01   11.42 151
  -3   0   3   17.34    6.70 151
  -2 -10  -3   61.06   11.22 151
  -2   3   9  587.17   16.35 151
  -1   3   4 1066.79   11.43 151
   0   2   2   34.21    6.37 151
   1 -11  -4   30.57   10.45 151
   1  -6  -3    1.16    6.25 151
   3  -5  -1   24.81    7.95 151
   4  -7   0    3.64   12.04 151
  -2   3   7   -4.04    6.47 151
  -2   3   8   24.71    7.64 151
   0 -10  -4   49.88    6.83 151
  -3 -10  -2   32.76   15.43 151
   4  -5   1   52.00   13.18 151
  -3  -1   2    1.53    6.74 152
  -1 -13  -4   46.94   14.80 152
   1 -10  -4  566.57   12.80 152
   1   3   9  277.13   14.50 152
  -3   1   5  224.90    6.91 152
  -2   2   4   25.75    4.67 152
  -1 -12  -4    0.39    8.49 152
   3  -7  -2   19.83    6.68 152
  -3  -6  -1  196.50   14.62 152
  -4  -4   2   12.43   13.05 152
  -4  -2   4  101.12   11.49 153
  -4  -1   6  174.17   13.16 153
  -2  -9  -3    1.13    9.02 153
  -1 -11  -4  250.37   12.89 153
   0  -9  -4   86.75    8.49 153
   0  -3  -2 6122.13   29.10 153
   0   3   4  562.85   10.80 153
   1  -9  -4   44.33    7.84 153
   1   3   5  523.85   10.52 153
   2  -7  -3    7.50    7.61 153
   3 -11  -3  239.67   15.47 153
   3  -3   0  168.10    8.38 153
  -1   3   5  416.89    7.35 153
  -1   3   9    4.62    8.51 153
   1   3   8  407.40   10.21 153
   2 -12  -4   72.82    9.22 153
  -4  -3   3  570.13   15.09 154
  -3   1   6   85.32    9.46 154
  -1 -10  -4   32.90    9.36 154
  -1  -6  -3  425.55   10.30 154
   0  -5  -3 2901.15   30.69 154
   0   1   1 1308.08   21.46 154
   0   3   9   37.14   12.31 154
   1   3   6   -1.15    7.64 154
   1   3   7  184.09   10.10 154
   2 -11  -4  322.99   13.26 154
   2   2   5   19.33    7.92 154
   2   2   8   -3.80   12.27 154
   3 -10  -3    7.88   12.20 154
   4  -6   0    2.86   10.56 154
  -3   1   7  153.37    8.33 154
  -3   1   8   95.12    9.13 154
  -1   3   8    0.78    6.51 154
   1  -3  -2  379.95    7.65 154
   2  -4  -2  854.38   10.26 154
   4  -8  -1    5.21    8.76 154
  -3  -9  -2    2.20   12.94 154
  -2   2   5   54.82    6.76 155
  -2   2   9  172.10   12.92 155
  -1   2   3  170.38    7.06 155
  -1   3   6 2354.83   15.86 155
  -1   3   7  931.84   13.11 155
   0  -8  -4  688.05   12.88 155
   1  -8  -4   69.19    8.05 155
   1  -5  -3  105.97    6.42 155
   2 -10  -4   18.83   10.51 155
   2   2   6   -0.76    9.38 155
   2   2   7  281.64   12.18 155
   3  -9  -3  368.96   12.68 155
   3  -6  -2  803.46   12.45 155
   0   3   5  137.74    6.41 155
   0   3   8  548.55   10.17 155
   2  -6  -3 1064.97   11.67 155
  -2  -8  -3    4.03    9.57 155
  -4  -2   5  108.33   11.92 156
  -3   0   4    2.72    8.08 156
  -2   1   3  101.88    7.13 156
  -2   2   6    2.32    7.66 156
  -2   2   8    0.47   10.37 156
  -1  -9  -4  495.89   12.94 156
   0   3   6  392.82   10.17 156
   0   3   7 1667.43   16.30 156
   1   2   3   35.77    6.10 156
   2  -9  -4  459.13   12.07 156
   2  -1   0  507.52   11.97 156
   3  -4  -1  521.22   10.98 156
  -2   2   7  397.25    8.35 156
  -2  -5  -2  172.72   10.00 156
   1   2   9   15.65   12.20 157
   3  -8  -3   35.70    9.29 157
   4  -7  -1   23.79   12.38 157
  -4  -2   6   23.24    9.28 157
   0 -12  -5    7.31    8.62 157
   0  -7  -4  327.15    8.37 157
   1 -12  -5   99.21    9.68 157
   1  -7  -4   -0.08    4.43 157
   4  -4   1   38.32   13.89 157
  -3   0   5   72.05    8.10 158
  -1  -8  -4    6.39    7.71 158
  -1   2   9   -3.08   12.02 158
   1 -11  -5  266.55   12.42 158
   2  -8  -4  138.63    9.68 158
   2  -2  -1  571.66   10.38 158
   4  -5   0    2.16   10.96 158
  -3   0   8   -8.96    8.96 158
   0 -11  -5    8.71    7.50 158
  -4  -3   4  151.70   11.55 159
  -3  -1   3  389.90    9.42 159
  -3   0   6    3.04    8.97 159
  -3   0   7  419.40   11.87 159
  -2   1   9   94.85   12.75 159
  -1  -5  -3  399.55    9.72 159
  -1   2   4 4726.55   21.31 159
   0   2   3  232.33    8.00 159
   0   2   9  538.77   13.77 159
   1 -10  -5    3.81   10.53 159
   1   2   8  402.84   12.20 159
   2  -5  -3   38.85    6.50 159
   3  -7  -3    0.09    8.97 159
   3  -5  -2  127.15    8.47 159
   3   0   7  105.72   14.16 159
  -2   0   2 1675.56   15.00 159
  -2   1   4  496.61    7.92 159
  -1   2   8  471.31    9.06 159
   0 -10  -5  250.23    9.07 159
   1  -4  -3 1372.86   12.22 159
  -4  -6   1  182.31   19.32 158
   3   0   4    1.45   11.11 159
  -3  -8  -2   79.08   13.69 159
  -2 -11  -4  106.18   13.53 160
  -2  -7  -3   59.67    8.36 160
  -1   1   2 2483.64   18.68 160
   0  -4  -3   16.98    5.83 160
   2 -11  -5   35.74   12.66 160
   2   1   8    8.07   12.14 160
   3 -10  -4   68.28   12.48 160
   4  -8  -2   10.46   12.18 160
   4  -6  -1  229.88   11.98 160
  -2   1   8  122.04    7.95 160
  -1 -12  -5   25.43   10.44 160
  -1   2   5   37.66    4.87 160
  -1   2   7   -4.01    5.52 160
   0  -1  -1 1079.08   18.31 160
   1  -6  -4 1430.79   14.46 160
   1   2   4    0.11    3.74 160
   2  -7  -4    1.07    5.31 160
   2  -3  -2    3.72    3.86 160
   4  -3   2   10.95   14.91 160
  -4  -4   3   51.43   14.29 160
   2   1   3  262.26   11.68 160
   3   0   6    3.38   12.98 160
  -4  -3   5   -1.38   12.09 161
  -2   1   5  796.58   10.16 161
  -1  -3  -2   20.58    5.98 161
  -1   2   6   45.85    6.53 161
   0  -9  -5  159.84   10.39 161
   0  -6  -4   35.46    6.46 161
   0   2   8    2.18    9.21 161
   1  -9  -5  331.73   11.67 161
   1  -1  -1  952.38   14.49 161
   1   2   7    5.06    9.03 161
  -4  -3   6   70.12   11.06 161
  -2 -10  -4   -0.46    7.54 161
  -2   1   6  280.04    6.86 161
  -2   1   7   18.42    6.46 161
  -1 -11  -5    3.51    8.59 161
  -1  -7  -4  264.01    7.82 161
   2 -10  -5   39.53    7.66 161
   3  -9  -4   85.17    8.77 161
   2   0   1   -3.91   10.78 159
  -4  -5   2   87.25   13.81 161
  -3  -2   2  902.15   14.73 161
   3   0   5  174.98   12.92 161
  -3  -1   4  311.08    9.55 162
   0   2   4  101.04    6.37 162
   0   2   7  442.45    9.71 162
   1   1   9   75.53   12.53 162
   1   2   5   27.99    6.63 162
   1   2   6 1449.52   14.37 162
   2   1   7  405.22   12.80 162
   3  -6  -3  221.86    9.66 162
   3  -3  -1    8.79    6.42 162
  -3  -1   8   64.94    9.19 162
  -1   1   9   34.17    7.69 162
   3  -2   0  460.14   12.07 162
  -2   0   9   -3.79   12.20 163
  -1 -10  -5   57.00   10.96 163
   0   2   5 4632.16   21.85 163
   0   2   6   22.20    6.48 163
   1  -8  -5  211.17    9.32 163
   1  -2  -2  684.24   10.89 163
   2  -9  -5  269.23   11.96 163
   2  -6  -4  500.47   10.19 163
   3  -8  -4   64.98   10.89 163
   4  -7  -2   -3.93   12.15 163
  -3  -1   5  196.06    6.88 163
  -3  -1   7  150.43    8.15 163
   0  -8  -5   10.46    5.64 163
   0   1   9   -2.49    7.34 163
  -3  -4   0   74.99   16.33 161
  -3  -3   1    8.29    8.05 163
  -2  -1   1  515.19   12.25 163
  -4  -4   4   90.21   11.32 164
  -3  -1   6  169.55    9.97 164
  -2  -9  -4  196.57   12.04 164
   0  -2  -2   48.68    6.20 164
   1  -5  -4    9.07    6.37 164
   2  -4  -3   12.09    6.45 164
   2   1   6  194.79   10.39 164
   3  -4  -2  -15.32    8.44 164
  -1   1   8   -0.21    6.40 164
  -2  -3  -1  517.57   22.92 162
   1   0   0    1.50    7.68 164
   4  -4   0  187.89   13.12 164
  -4  -4   5   -4.15   12.04 165
  -3 -10  -3   86.23   14.05 165
  -2   0   3   -1.87    5.62 165
  -2   0   8  757.36   12.89 165
  -1  -9  -5   67.27    9.61 165
   0  -5  -4  174.62    8.85 165
   1 -11  -6   69.97   12.65 165
   1   1   8  159.21   11.05 165
   2  -8  -5   25.20    9.18 165
   2   1   4  151.68    8.19 165
   2   1   5  255.23    9.52 165
   4  -5  -1   99.41   11.21 165
  -1   1   3  132.55    5.50 165
   0 -11  -6   89.92    9.67 165
   1  -7  -5    0.34    5.25 165
   4  -8  -3   46.85   10.10 165
  -4  -4   6  159.38   15.23 166
  -3  -2   8  -17.53   13.23 166
  -2  -6  -3  616.96   13.09 166
  -2   0   7   -5.96    8.86 166
  -1  -6  -4   63.35    6.96 166
  -1   1   7  449.01    9.45 166
   0  -7  -5   40.88    7.77 166
   0   1   8  370.09   10.37 166
   1 -10  -6    6.54   11.18 166
   1  -3  -3  241.70    7.28 166
   2   0   8  272.51   13.49 166
   3  -7  -4    7.25    9.11 166
   3  -5  -3  211.69    8.91 166
   4  -6  -2   48.43   10.81 166
  -1   0   9  695.28   10.63 166
  -4  -5   3  341.38   13.24 167
  -3  -2   3  -20.84    8.80 167
  -2  -1   9   99.55   12.58 167
  -2   0   4  397.45    8.87 167
  -2   0   6    9.67    7.53 167
  -1  -4  -3   -0.69    5.39 167
  -1   1   6  993.55   10.90 167
   0 -10  -6    1.56   10.55 167
   0  -3  -3  962.49   11.74 167
   1   0   9  137.25   12.74 167
   1   1   7   60.41    9.01 167
   2  -7  -5   12.96    9.02 167
   2  -5  -4  192.13    7.57 167
   3  -9  -5   62.21   12.56 167
   3  -1   7   78.42   15.11 167
  -3  -2   7    2.60    7.54 167
  -2   0   5    6.12    4.78 167
  -1   0   1  259.55    8.75 167
  -1   1   4  598.72    8.12 167
   2 -10  -6   37.94    8.85 167
   4  -3   1  196.96   13.83 167
  -2  -8  -4  417.07   12.57 168
  -1  -8  -5  283.60   11.21 168
  -1   1   5  659.94    9.63 168
   0   0   9    8.78   10.25 168
   0   1   2 1274.44   15.98 168
   0   1   7  677.18   10.40 168
   1  -9  -6  351.95   12.64 168
   1   1   2  583.31   13.38 168
   4  -7  -3    6.84   12.20 168
  -3  -2   4  136.37    6.92 168
  -3  -2   6  199.03    7.59 168
   1  -6  -5  467.64    8.93 168
   3  -6  -4  150.76    7.61 168
  -3  -7  -2  114.55   14.31 168
  -4  -5   4    3.49   12.08 169
  -3  -2   5  -16.74    8.46 169
  -2  -1   8  192.40   11.07 169
  -1   0   8    1.07    8.84 169
   0  -9  -6  198.53   11.87 169
   1  -4  -4  229.27    7.79 169
   2  -9  -6  238.95   13.34 169
   2  -2  -2  120.01    6.52 169
   3  -8  -5  421.73   14.29 169
  -1 -11  -6    0.92   10.21 169
   1   1   6  563.39    9.11 169
   2  -3  -3  859.88    9.90 169
   2   0   7    2.97    7.73 169
  -2  -2   0   -4.77    9.09 169
   3  -1   1  170.28   12.12 169
  -4  -6   2   41.15   13.24 169
  -3  -9  -3   -2.93   15.03 169
  -4  -5   5   22.56   12.49 170
  -3  -3   8  492.22   15.94 170
   0  -6  -5 1462.55   18.87 170
   0   1   6  375.04    8.31 170
   1  -8  -6   -1.02    8.99 170
   2  -6  -5  123.84    8.32 170
   2  -1  -1  453.97   10.49 170
   3  -3  -2  726.43   11.26 170
   4  -5  -2   93.51   11.18 170
   4  -4  -1  256.92   11.52 170
  -2  -2   9  106.63    9.28 170
   0  -4  -4 1229.71   13.03 170
   1   0   8   -1.73    7.40 170
  -2  -4  -2  657.90   15.82 170
  -2 -10  -5   61.43   12.88 171
  -2  -1   7   35.72    8.98 171
  -1 -10  -6  138.54   13.32 171
  -1  -7  -5  405.93   10.42 171
  -1  -5  -4 1467.84   14.46 171
  -1  -1   9   55.85   11.63 171
  -1   0   7   65.24    7.76 171
   0  -8  -6  304.85   11.42 171
   0   0   8  191.00    9.70 171
   1   1   5  237.91    8.86 171
   2  -8  -6  385.49   12.66 171
   3  -4  -3  -11.56    7.85 171
   3  -2  -1   47.35    6.76 171
   3  -1   6   74.02   11.19 171
   4  -6  -3  233.01   13.46 171
  -3  -3   7   71.41    7.93 171
  -2  -1   2  104.29    5.74 171
   0   1   3 2932.58   19.04 171
   0   1   5 1347.30   11.39 171
   2  -4  -4   -0.71    4.37 171
   3  -7  -5   40.45    7.67 171
  -4  -7   1   24.24   17.33 171
  -3  -3   2  735.27   13.63 171
  -2  -7  -4  373.99   11.87 172
   0   1   4   51.07    6.45 172
   1  -5  -5   83.65    7.31 172
   1  -1   9   84.41   12.68 172
   1   1   3  508.24   10.73 172
   1   1   4  628.28   10.21 172
   2  -1   8   -2.65   12.22 172
   3  -5  -4 1518.61   15.21 172
  -2  -1   6  258.35    6.79 172
   0  -1   9    1.02    7.53 172
   1 -10  -7   35.23   10.59 172
   1  -7  -6   11.76    6.37 172
  -4  -6   3  173.93   13.28 173
  -3  -3   6   -5.43    9.16 173
  -2  -2   8   -1.04   10.43 173
  -1   0   6    5.12    6.46 173
   2   0   6  528.58   11.56 173
   4  -7  -4    8.03   14.30 173
   4  -3   0   24.83    9.58 173
  -1  -9  -6  111.35    8.71 173
  -1  -1   8   10.64    6.19 173
   2  -7  -6  131.93    7.69 173
   2  -5  -5 1814.55   14.73 173
  -4  -6   4   -0.60   12.15 174
  -4  -6   5  237.49   15.53 174
  -3  -3   3  161.11    8.75 174
  -3  -3   5  448.76   11.02 174
  -2  -9  -5  130.59   11.84 174
  -2  -3   9  561.41   16.11 174
  -2  -1   3  107.28    6.74 174
  -2  -1   5  681.20    9.64 174
   0 -10  -7   -6.57   14.14 174
   0  -7  -6    7.74    8.93 174
   0  -5  -5   62.88    7.04 174
   0   0   7   -0.10    7.60 174
   1  -9  -7  334.70   14.44 174
   1  -2  -3  177.42    7.02 174
   1   0   7  849.78   11.36 174
  -2  -1   4  458.21    7.73 174
  -1  -2   9   -5.75    8.54 174
   3  -8  -6   12.50    8.43 174
   3  -6  -5    1.62    7.28 174
  -2  -5  -3   29.38    8.16 174
  -3  -3   4 1277.76   14.26 175
  -1   0   2   -2.10    5.41 175
  -1   0   5 1436.82   12.47 175
   1  -3  -4 1162.08   11.54 175
   1  -1  -2 2641.75   19.09 175
   2  -9  -7   -0.31   14.33 175
   3  -2   7    8.53   14.38 175
   3  -1   5   25.35    9.47 175
   4  -5  -3  432.64   13.02 175
   4  -4  -2    6.15   10.53 175
  -3  -4   7  295.76   10.04 175
  -2  -2   7  391.14    8.16 175
  -1  -6  -5   39.46    5.78 175
   1  -6  -6    3.53    5.30 175
  -1  -8  -6   -0.17   10.37 176
  -1   0   4   -0.71    5.52 176
   0  -9  -7  275.02   14.14 176
   0  -1   8  364.61   10.29 176
   1  -1   8  181.17   11.05 176
   2   0   5    5.29    7.67 176
   3  -3  -3  192.76    8.68 176
   4  -6  -4   13.68   11.92 176
  -1  -1   7  286.79    7.00 176
  -1   0   3 4957.68   22.90 176
   1  -8  -7   96.99    8.28 176
   1  -4  -5   14.29    4.51 176
   1  -2   9   19.48    8.51 176
   2  -6  -6   11.36    6.31 176
   2  -3  -4  218.59    6.27 176
   2  -2  -3 1533.61   12.62 176
   2  -1   7  278.67    9.26 176
   3  -4  -4   88.20    6.55 176
  -3  -8  -3  262.06   15.84 176
  -4  -7   2    0.21   12.19 177
  -2  -3   8   50.30   10.64 177
  -1  -3  -3 1467.76   15.40 177
   0  -2  -3  250.34    7.88 177
   0  -2   9  530.63   13.68 177
   0   0   6 1504.03   12.45 177
   1   0   6   46.12    8.20 177
   2  -8  -7    6.41   12.01 177
   3  -7  -6   -3.04   12.10 177
  -3  -4   6   -3.00    7.28 177
   0  -6  -6  452.65    9.22 177
   0  -3  -4  577.03    8.35 177
   3  -1   0   81.54    9.10 177
  -3  -4   1  328.07   11.37 178
  -2  -8  -5    7.74   10.53 178
  -2  -2   6    5.74    7.63 178
  -1  -4  -4    2.04    6.40 178
  -1  -2  -2 1406.14   18.42 178
  -1  -2   8  664.42   11.67 178
   0  -8  -7    9.09   10.34 178
   2  -4  -5  326.33    9.70 178
   2  -2   8    1.60   12.05 178
   3  -5  -5   37.82    9.16 178
   3  -2  -2  794.54   11.80 178
   4  -3  -1  417.34   13.73 178
  -1  -3   9    0.16    8.54 178
  -4  -7   3    0.22   15.01 178
  -2  -6  -4  101.35   10.35 178
  -4  -7   4    5.64   14.32 179
  -3  -5   7   28.63   12.30 179
  -3  -4   5  135.26    9.62 179
  -1  -1   6  924.84   10.64 179
   0  -4  -5  272.14    8.21 179
   1  -7  -7  300.67   12.15 179
   1  -5  -6 4044.93   24.87 179
   2  -1  -2  111.13    6.87 179
  -1  -7  -6   47.42    6.85 179
   0  -1  -2 1074.99   13.82 179
   0  -1   7  513.87    7.99 179
   0   0   5    3.95    4.53 179
   2  -7  -7   17.48    7.56 179
  -2  -3   7    0.21    8.87 180
  -2  -2   5   46.05    6.79 180
   1  -1   7   54.95    8.01 180
   2  -5  -6  125.65    9.34 180
   2   0   4  345.41    9.84 180
   3  -6  -6  595.06   13.23 180
   4  -5  -4  -12.65   12.49 180
   4  -4  -3  392.01   13.88 180
  -2  -4   8  462.95    9.96 180
   0  -3   9   41.05    8.54 180
   1   0   5 1274.92   11.97 180
  -4  -8   1    7.49   15.13 180
   3  -2   6   43.00   13.00 180
   3  -1   4   96.36   10.68 180
  -3  -4   2    4.62    7.66 181
  -3  -4   4  112.76    9.09 181
  -1  -9  -7   53.79   12.77 181
  -1  -5  -5  168.48    8.84 181
   0  -7  -7   10.05   10.22 181
   0  -2   8    9.72    8.93 181
   1  -3   9  293.56   14.62 181
   1  -2   8  534.15   12.54 181
   2  -1   6  197.55   10.11 181
   4  -6  -5  289.38   15.41 181
  -3  -5   6   -1.07    7.53 181
  -3  -4   3    1.07    5.40 181
  -1  -4   9  557.44   11.19 181
  -1  -2   7    4.74    5.35 181
   0  -5  -6   -1.41    5.40 181
   1  -2  -4 3403.75   17.66 181
   2   0   0   27.00    7.64 181
  -3  -6   7   13.32   13.08 182
  -2  -7  -5  111.20   10.10 182
  -2  -2   1  417.83   10.90 182
  -2  -2   4   29.16    6.85 182
  -1  -3   8    9.77    9.02 182
  -1  -1   5  688.10    9.82 182
   1  -6  -7   29.69    9.14 182
   1  -3  -5  601.64    9.49 182
   2  -6  -7  876.28   14.14 182
   3  -4  -5  116.92   10.45 182
   3  -3  -4 1399.17   14.20 182
   3  -3   7   96.73   14.87 182
   4  -3  -2   55.26    9.64 182
  -2  -3   6  501.36    8.23 182
   0   0   4 6932.98   25.53 182
   1  -8  -8    4.20    9.90 182
  -3  -9  -4    2.53   15.16 182
  -4  -8   2    6.16   12.18 183
  -4  -8   3   28.06   14.82 183
  -2  -9  -6   21.60   13.51 183
  -2  -2   3 2235.48   16.13 183
   0  -1   6  368.11    8.29 183
   1  -4  -6  311.03    9.72 183
   1   0  -1  400.38   11.13 183
   2  -3  -5 2178.08   15.08 183
   2  -3   8   59.18   12.45 183
   2  -2  -4   37.12    6.56 183
   2  -2   7  281.59   11.85 183
   3  -5  -6   -3.80   10.48 183
   3  -2  -3    6.59    7.78 183
   3  -1  -1   44.90    7.03 183
  -1  -8  -7  172.18    9.80 183
  -1  -6  -6  511.84    9.76 183
   1  -1  -3  150.49    5.54 183
   2  -4  -6   68.67    5.84 183
   2   0   3    3.79    8.54 183
  -3  -5   5   31.25    9.04 184
  -2  -5   8   19.02   11.87 184
  -2  -4   7    3.21    8.87 184
  -2  -2   2   91.08    6.79 184
   0  -4   9   10.12   11.80 184
   1  -1   6  860.80   12.40 184
   1   0   4   23.82    5.79 184
   4  -5  -5   28.85   12.27 184
   4  -4  -4   56.79   12.51 184
  -1  -1   4  592.70    8.14 184
   0  -6  -7   60.85    6.95 184
   1  -4   9   19.98   10.43 184
  -3  -6   6  545.42   13.03 185
  -1  -5   9    2.86   13.15 185
  -1  -2   6   39.26    6.66 185
   0  -8  -8   14.04   13.32 185
   0  -3  -5  249.64    7.85 185
   0  -3   8  831.04   12.32 185
   0  -2   7  455.04    9.58 185
   0   0   3    2.98    6.31 185
   1  -7  -8   75.34   12.68 185
   1  -5  -7  115.70    9.90 185
   2  -7  -8   -3.00   14.11 185
   2  -1  -3  142.75    7.82 185
   3  -6  -7   14.61   13.09 185
  -2  -3   5 1314.27   11.44 185
   0  -2  -4   86.11    4.68 185
   1  -3   8  424.61    9.83 185
   1  -2   7    2.40    6.29 185
   2  -5  -7    4.66    7.23 185
  -3  -5   4 1123.75   14.40 186
  -2  -8  -6   43.99   12.59 186
  -1  -4   8  -10.10   10.36 186
  -1  -3   7  873.36   11.53 186
   0  -4  -6  133.14    8.38 186
   2  -1   5  268.38    9.40 186
   4  -3  -3  787.52   15.47 186
  -2  -6   8   13.42    8.42 186
   3  -3  -5  301.07    7.99 186
   4  -2   0   53.78   13.38 186
  -2  -5  -4   90.63   10.25 186
  -2  -4  -3   74.91    7.55 187
  -2  -4   6   90.89    7.97 187
  -1  -7  -7    4.98   10.57 187
  -1  -4  -5  463.94    9.49 187
  -1  -3  -4  496.13    9.93 187
   3  -4  -6   -0.76   10.21 187
   3  -2   5   15.72    9.31 187
   3  -1  -2   10.10    6.75 187
  -2  -5   7    4.52    7.29 187
  -1  -6   9   11.86    9.85 187
  -1  -1   3  136.11    5.69 187
   0  -7  -8  138.27    9.50 187
   0  -5   9   34.48    9.17 187
   0  -1   5 1129.34   10.69 187
   1  -6  -8  453.88   10.53 187
   2  -6  -8   17.44    8.44 187
   3  -2  -4  135.54    6.81 187
   4  -2   1  231.68   19.00 186
   3  -1   3  367.35   16.96 187
   4  -3   4  150.16   20.52 187
  -3  -5   0  175.52   12.24 187
   2   0  -1   18.26    7.27 187
  -3  -7   6    0.42   12.04 188
  -3  -6   5    6.11   10.32 188
  -3  -5   3  152.07    8.79 188
  -2  -6  -5  101.63    9.88 188
  -1  -5  -6   94.58    8.18 188
   0  -5  -7 2873.80   25.59 188
   0   0   2 2023.57   19.50 188
   1  -3  -6 2610.17   16.72 188
   1  -2  -5   59.37    6.57 188
   2  -4   8   31.16   13.18 188
   2  -3  -6  938.69   11.53 188
   2  -2  -5   54.59    6.85 188
   3  -5  -7   26.08   12.40 188
   3  -3   6   58.63   12.50 188
   4  -2  -1  166.99   10.56 188
  -2  -3   4  202.76    6.07 188
  -1  -2   5   35.69    4.83 188
   0  -1  -3 3124.15   19.30 188
   2  -2   6    3.01    6.38 188
   4  -4  -5   -4.02    8.58 188
  -3  -7  -3   69.79   14.55 188
  -3  -5   2   72.07    8.43 189
  -1  -5   8   57.25   10.48 189
  -1  -2  -3   25.43    6.42 189
   0  -4   8   22.00   10.24 189
   0  -2   6   20.76    6.40 189
   1  -4  -7    9.71    8.82 189
   1  -1   5  246.36    8.11 189
   1   0   3  632.71   11.11 189
   2  -4  -7    4.76    8.85 189
   2  -3   7   24.42   10.51 189
  -2  -7   8    7.19    9.90 189
   0  -3   7 1496.44   12.11 189
   1  -1  -4  663.78    8.54 189
   4  -3  -4  107.68    8.28 189
  -3  -5   1   16.68    7.77 190
  -1  -4   7    5.66    8.82 190
  -1  -3   6 2352.27   15.96 190
  -1  -1   2 2050.68   17.56 190
   1  -4   8   10.89   10.70 190
   1   0  -2    5.11    5.58 190
   2  -1  -4  745.04   10.26 190
   4  -2  -2  121.39    9.78 190
  -2  -6   7  455.45    9.86 190
  -2  -4   5  160.26    6.82 190
  -1  -6  -7  244.31    8.81 190
   0  -6  -8   28.35    7.64 190
   0  -6   9  188.02   11.39 190
   0   0   1   -0.06    5.39 190
   2  -5  -8    4.22    8.56 190
  -3  -8  -4    0.30   17.08 190
   2   0   2 5846.93   48.22 190
  -3  -8   6   19.52   13.04 191
  -3  -6   4  201.42   10.16 191
  -2  -7  -6  177.34   11.98 191
  -2  -5   6  108.49    9.38 191
   1  -5  -8   54.83   10.61 191
   1  -3   7  264.85   10.09 191
   1  -2   6 1722.74   14.55 191
   2   0  -2 2437.50   18.40 191
   3  -4  -7  620.09   14.11 191
   3  -3  -6  -19.89    9.51 191
   3  -1  -3  396.74    9.49 191
  -3  -7   5   32.91    7.63 191
  -2  -3   3  686.34    9.54 191
   0  -3  -6  420.36    7.34 191
  -1  -6   8  581.17   13.18 192
  -1  -1   1  690.85   13.74 192
   0  -4  -7   55.51    9.27 192
   0  -2  -5 4948.71   21.19 192
   0  -1   4   38.80    5.87 192
   2  -5   8   22.46   14.47 192
   3  -2  -5   18.87    8.80 192
   4  -4  -6  154.39   16.03 192
  -1  -2   4 2902.51   16.20 192
   0  -5   8   39.85    7.88 192
  -1  -7  -8    6.23   13.30 193
   1  -3  -7 1305.08   12.78 193
   1  -2  -6   41.76    6.64 193
   2  -3  -7    1.71    8.93 193
   2  -2  -6    4.54    7.66 193
   2  -1   4  165.14    8.06 193
   4  -3  -5   63.75   12.37 193
   4  -2  -3  318.73   11.41 193
  -2  -7   7   19.29    7.59 193
  -1  -5   7   92.00    6.85 193
  -1  -4  -6   82.96    6.07 193
   1  -5   8  849.51   15.04 193
   2  -4  -8  589.21   10.55 193
  -3  -6   3  157.74    9.81 194
  -1  -3  -5  501.45    9.63 194
   0  -5  -8   63.08   11.15 194
   0  -4   7   65.72    8.41 194
   1  -4  -8   12.12   10.20 194
   2  -4   7   94.28   11.05 194
   2  -1  -5  796.28   10.08 194
   3  -1  -4  321.87    9.46 194
  -2  -4   4   -1.88    4.40 194
  -2  -3   2    2.94    3.83 194
  -1  -4   6  157.66    6.68 194
  -1  -3   5  357.36    6.86 194
   0  -3   6  395.65    7.18 194
   0  -2   5 3035.19   16.25 194
   0  -1  -4   42.06    4.83 194
   1  -1  -5  480.21    7.55 194
   1   0  -3 4973.10   22.94 194
   2   0  -3   -0.82    3.91 194
  -1  -1   0  122.81   11.68 194
   3  -2   4  114.46   12.05 194
  -3  -8   5  333.83   13.65 195
  -3  -7   4    5.90    9.04 195
  -2  -6   6   12.78    8.99 195
  -2  -5  -5  430.44   11.09 195
  -2  -5   5 2692.11   17.34 195
  -1  -7   8   84.51   12.30 195
  -1  -5  -7    6.52    9.23 195
   1  -4   7   62.12    9.54 195
   1  -1   4  801.13   10.71 195
   1   0   2   15.78    6.72 195
   2  -3   6  309.49   10.63 195
   2  -2   5   22.10    7.82 195
   3  -4   6    7.20   12.36 195
   3  -3  -7  127.26   11.16 195
   4  -2  -4   93.16   11.01 195
   0  -6   8   29.84    7.53 195
   3  -4  -8    1.17   10.32 195
   3  -2  -6  207.74    7.59 195
  -3  -6   2  416.08   11.34 196
  -2  -8   7   -5.81   12.04 196
  -2  -6  -6   33.88   10.73 196
  -1  -2  -4   -4.27    5.80 196
   0   0  -1    0.60    7.04 196
   1  -5  -9   12.70   14.01 196
   3  -3   5   90.12   10.52 196
   4  -3  -6  140.90   14.84 196
  -1  -6  -8  121.39    9.46 196
   0  -3  -7 1459.94   11.99 196
   1  -6   8  102.44    9.39 196
   1  -3   6    5.08    5.33 196
  -2  -4  -4   48.24    9.79 196
  -1  -8   8   -4.49   14.05 197
  -1  -6   7   25.59    9.16 197
  -1  -2   3  160.79    6.98 197
   0  -2  -6   22.01    6.41 197
   1  -2   5   28.82    6.55 197
   2  -3  -8   62.58   10.67 197
   2  -2  -7  722.78   11.51 197
  -3  -9   5   33.78    8.98 197
   0  -4  -8   15.40    7.34 197
   0  -1   3 3002.61   18.77 197
   3  -1  -5  182.93    6.72 197
  -3  -7   3    3.99    8.94 198
  -2  -9   7   12.66   14.26 198
  -2  -7  -7   48.81   13.70 198
  -2  -7   6  179.35   10.00 198
  -2  -3   1  327.18    9.46 198
   0  -7   8  153.22   13.28 198
   0  -5   7 3161.07   21.81 198
   1  -3  -8   13.55    9.11 198
   1  -2  -7   -7.50    7.69 198
   1   0  -4    8.37    5.46 198
   2  -5   7   58.04   10.95 198
   2  -1  -6  455.60    9.49 198
   2   0  -4  368.91    8.59 198
   4  -2  -5  164.68   11.91 198
  -3  -8   4   33.74    7.63 198
  -1  -5   6 2306.64   15.88 198
   0   0  -2 1625.58   17.08 198
   1  -1  -6  700.99    8.51 198
  -2  -3  -2  394.02   17.76 197
   3   0  -2   -1.48    8.13 198
  -3  -6   1    1.60    7.74 199
  -2  -6   5  111.26    8.28 199
  -2  -4   3    5.52    6.50 199
  -1  -4  -7   65.16    9.41 199
  -1  -3  -6   -9.51    8.03 199
   0  -5  -9   57.23   13.87 199
   0  -1  -5 1781.31   13.77 199
   1  -4  -9  909.84   16.54 199
   3  -3  -8  568.45   16.11 199
   3  -2  -7   -5.24   10.64 199
   3   0  -1  673.92   13.10 199
  -1  -4   5   13.99    4.50 199
  -1  -3   4  669.72    8.58 199
   0  -4   6   91.17    5.95 199
   1  -7   8    9.98    8.35 199
   1  -5   7    7.81    6.39 199
;
_shelx_hkl_checksum              3980
_shelx_res_file
;
TITL TA5   IPDS  -50DEGC
    H:\TA5\ta5\TA5.res
    created by SHELXL-2018/3 at 12:37:51 on 27-Jan-2020
CELL  0.71073  4.10270 12.17890  8.10140 90.00000 95.78000 90.00000
ZERR 2  0.00040  0.00180  0.00080  0.00000  0.01200  0.00000
LATT 1
SYMM -X+ 0.50000, Y+ 0.50000, -Z+ 0.50000
SFAC C H N S
UNIT 16 16 4 4
TEMP -50
size 0.45 0.13 0.10
L.S. 11
PLAN 30
FMAP 2
BOND $H
CONF
ACTA
HTAB
WGHT    0.129600
FVAR       1.51930
S1    4    0.112553    0.624372    0.348044    11.00000    0.04772    0.04077 =
         0.02189   -0.00113    0.01060    0.00414
N1    3    0.471731    0.394504    0.071331    11.00000    0.04117    0.03333 =
         0.02193    0.00189    0.00488    0.00069
C1    1    0.367022    0.486046    0.141107    11.00000    0.03436    0.03538 =
         0.01970    0.00119    0.00624   -0.00106
C2    1    0.397089    0.590196    0.070788    11.00000    0.03938    0.03486 =
         0.01612   -0.00314    0.00072    0.00136
C3    1    0.214698    0.482436    0.300945    11.00000    0.04776    0.03629 =
         0.01867    0.00314    0.00610    0.00232
AFIX  23
H3A   2    0.368695    0.451919    0.389472    11.00000   -1.20000
H3B   2    0.016898    0.436835    0.289632    11.00000   -1.20000
AFIX   0
C4    1    0.272150    0.684432    0.167301    11.00000    0.04848    0.03283 =
         0.02675    0.00096    0.00965    0.00122
AFIX  23
H4A   2    0.098963    0.724060    0.099563    11.00000   -1.20000
H4B   2    0.450057    0.735867    0.201262    11.00000   -1.20000
AFIX   0
HKLF 4
REM  TA5   IPDS  -50DEGC
REM wR2 = 0.1804, GooF = S = 1.026, Restrained GooF = 1.026 for all data
REM R1 = 0.0736 for 590 Fo > 4sig(Fo) and 0.0849 for all 744 data
REM 55 parameters refined using 0 restraints
END
WGHT      0.1296      0.0000
REM No hydrogen bonds found for HTAB generation
REM Highest difference peak  0.770,  deepest hole -0.546,  1-sigma level  0.138
Q1    1  -0.0993  0.5989  0.3526  11.00000  0.05    0.77
Q2    1   0.3555  0.6226  0.3373  11.00000  0.05    0.75
Q3    1   0.6038  0.4713  0.1154  11.00000  0.05    0.36
Q4    1   0.5093  0.4170  0.0772  11.00000  0.05    0.31
Q5    1   0.6220  0.6607  0.3536  11.00000  0.05    0.31
Q6    1   0.6704  0.3974  0.0594  11.00000  0.05    0.31
Q7    1   0.2332  0.3844  0.0716  11.00000  0.05    0.30
Q8    1   0.4541  0.5374  0.3065  11.00000  0.05    0.30
Q9    1   0.7686  0.4398  0.0852  11.00000  0.05    0.29
Q10   1   0.1511  0.6326  0.2048  11.00000  0.05    0.27
Q11   1   0.3731  0.5844 -0.0054  11.00000  0.05    0.25
Q12   1   0.5333  0.5324  0.1334  11.00000  0.05    0.25
Q13   1   0.0692  0.4840  0.1242  11.00000  0.05    0.25
Q14   1   0.0444  0.6620  0.1417  11.00000  0.05    0.25
Q15   1   0.5997  0.7756  0.3529  11.00000  0.05    0.25
Q16   1   0.6057  0.5776  0.3666  11.00000  0.05    0.24
Q17   1   0.2146  0.5431  0.0851  11.00000  0.05    0.24
Q18   1   0.3983  0.6275  0.1337  11.00000  0.05    0.24
Q19   1  -0.0317  0.6343  0.1355  11.00000  0.05    0.24
Q20   1   0.2042  0.6129  0.0612  11.00000  0.05    0.24
Q21   1   0.0185  0.6199  0.4782  11.00000  0.05    0.24
Q22   1   0.6574  0.6294  0.0693  11.00000  0.05    0.23
Q23   1   0.6597  0.2791  0.1648  11.00000  0.05    0.21
Q24   1   0.0303  0.7371  0.1730  11.00000  0.05    0.20
Q25   1   0.4257  0.7013  0.1731  11.00000  0.05    0.19
Q26   1   0.4184  0.3727  0.3546  11.00000  0.05    0.18
Q27   1   0.2466  0.3034  0.0541  11.00000  0.05    0.18
Q28   1   0.1014  0.8216  0.0769  11.00000  0.05    0.16
Q29   1   0.5184  0.6868  0.0387  11.00000  0.05    0.15
Q30   1  -0.0379  0.7808  0.2162  11.00000  0.05    0.15
;
_shelx_res_checksum              86417
loop_
_space_group_symop_operation_xyz
'x, y, z'
'-x+1/2, y+1/2, -z+1/2'
'-x, -y, -z'
'x-1/2, -y-1/2, z-1/2'
loop_
_atom_site_type_symbol
_atom_site_label
_atom_site_fract_x
_atom_site_fract_y
_atom_site_fract_z
_atom_site_U_iso_or_equiv
_atom_site_adp_type
_atom_site_calc_flag
_atom_site_occupancy
_atom_site_disorder_assembly
_atom_site_disorder_group
S S1 0.1126(2) 0.62437(7) 0.34804(9) 0.0363(5) Uani d 1 . .
N N1 0.4717(8) 0.3945(2) 0.0713(4) 0.0320(7) Uani d 1 . .
C C1 0.3670(8) 0.4860(3) 0.1411(3) 0.0296(9) Uani d 1 . .
C C2 0.3971(9) 0.5902(3) 0.0708(4) 0.0303(8) Uani d 1 . .
C C3 0.2147(9) 0.4824(3) 0.3009(3) 0.0341(9) Uani d 1 . .
H H3A 0.368695 0.451919 0.389472 0.041 Uiso calc 1 . .
H H3B 0.016898 0.436835 0.289632 0.041 Uiso calc 1 . .
C C4 0.2721(10) 0.6844(3) 0.1673(4) 0.0356(9) Uani d 1 . .
H H4A 0.098963 0.724060 0.099563 0.043 Uiso calc 1 . .
H H4B 0.450057 0.735867 0.201262 0.043 Uiso calc 1 . .
loop_
_atom_site_aniso_label
_atom_site_aniso_U_11
_atom_site_aniso_U_22
_atom_site_aniso_U_33
_atom_site_aniso_U_12
_atom_site_aniso_U_13
_atom_site_aniso_U_23
S1 0.0477(8) 0.0408(6) 0.0219(6) 0.0041(3) 0.0106(4) -0.0011(3)
N1 0.0412(18) 0.0333(14) 0.0219(15) 0.0007(11) 0.0049(11) 0.0019(10)
C1 0.034(2) 0.0354(18) 0.0197(17) -0.0011(12) 0.0062(13) 0.0012(11)
C2 0.039(2) 0.0349(17) 0.0161(15) 0.0014(14) 0.0007(12) -0.0031(12)
C3 0.048(2) 0.0363(17) 0.0187(18) 0.0023(14) 0.0061(15) 0.0031(12)
C4 0.048(2) 0.0328(17) 0.0268(16) 0.0012(14) 0.0096(15) 0.0010(12)
loop_
_atom_type_symbol
_atom_type_description
_atom_type_scat_dispersion_real
_atom_type_scat_dispersion_imag
_atom_type_scat_source
C C 0.0033 0.0016 'International Tables Vol C Tables 4.2.6.8 and 6.1.1.4'
H H 0.0000 0.0000 'International Tables Vol C Tables 4.2.6.8 and 6.1.1.4'
N N 0.0061 0.0033 'International Tables Vol C Tables 4.2.6.8 and 6.1.1.4'
S S 0.1246 0.1234 'International Tables Vol C Tables 4.2.6.8 and 6.1.1.4'
loop_
_geom_angle_atom_site_label_1
_geom_angle_atom_site_label_2
_geom_angle_atom_site_label_3
_geom_angle_site_symmetry_1
_geom_angle_site_symmetry_3
_geom_angle
_geom_angle_publ_flag
C4 S1 C3 . . 95.95(14) ?
C2 N1 C1 3_665 . 115.0(3) ?
N1 C1 C2 . . 122.5(3) ?
N1 C1 C3 . . 121.4(3) ?
C2 C1 C3 . . 116.1(3) ?
N1 C2 C1 3_665 . 122.5(3) ?
N1 C2 C4 3_665 . 122.0(3) ?
C1 C2 C4 . . 115.5(3) ?
C1 C3 S1 . . 106.1(2) ?
C1 C3 H3A . . 110.5 ?
S1 C3 H3A . . 110.5 ?
C1 C3 H3B . . 110.5 ?
S1 C3 H3B . . 110.5 ?
H3A C3 H3B . . 108.7 ?
C2 C4 S1 . . 106.3(2) ?
C2 C4 H4A . . 110.5 ?
S1 C4 H4A . . 110.5 ?
C2 C4 H4B . . 110.5 ?
S1 C4 H4B . . 110.5 ?
H4A C4 H4B . . 108.7 ?
loop_
_geom_bond_atom_site_label_1
_geom_bond_atom_site_label_2
_geom_bond_site_symmetry_2
_geom_bond_distance
_geom_bond_publ_flag
S1 C4 . 1.817(4) ?
S1 C3 . 1.828(3) ?
N1 C2 3_665 1.332(4) ?
N1 C1 . 1.340(4) ?
C1 C2 . 1.401(5) ?
C1 C3 . 1.494(4) ?
C2 C4 . 1.507(5) ?
C3 H3A . 0.9800 ?
C3 H3B . 0.9800 ?
C4 H4A . 0.9800 ?
C4 H4B . 0.9800 ?
loop_
_geom_torsion_atom_site_label_1
_geom_torsion_atom_site_label_2
_geom_torsion_atom_site_label_3
_geom_torsion_atom_site_label_4
_geom_torsion_site_symmetry_1
_geom_torsion_site_symmetry_2
_geom_torsion_site_symmetry_3
_geom_torsion_site_symmetry_4
_geom_torsion
_geom_torsion_publ_flag
C2 N1 C1 C2 3_665 . . . -0.8(5) ?
C2 N1 C1 C3 3_665 . . . -179.9(3) ?
N1 C1 C2 N1 . . . 3_665 0.8(6) ?
C3 C1 C2 N1 . . . 3_665 180.0(3) ?
N1 C1 C2 C4 . . . . -178.9(3) ?
C3 C1 C2 C4 . . . . 0.3(5) ?
N1 C1 C3 S1 . . . . 179.8(3) ?
C2 C1 C3 S1 . . . . 0.7(4) ?
C4 S1 C3 C1 . . . . -1.1(3) ?
N1 C2 C4 S1 3_665 . . . 179.2(3) ?
C1 C2 C4 S1 . . . . -1.0(4) ?
C3 S1 C4 C2 . . . . 1.2(3) ?

_cod_database_fobs_code 2243317
