#------------------------------------------------------------------------------
#$Date: 2021-07-10 07:41:05 +0300 (Sat, 10 Jul 2021) $
#$Revision: 267456 $
#$URL: file:///home/coder/svn-repositories/cod/cif/2/24/38/2243865.cif $
#------------------------------------------------------------------------------
#
# This file is available in the Crystallography Open Database (COD),
# http://www.crystallography.net/. The original data for this entry
# were provided by IUCr Journals, http://journals.iucr.org/.
#
# The file may be used within the scientific community so long as
# proper attribution is given to the journal article from which the
# data were obtained.
#
data_2243865
loop_
_publ_author_name
'Purandara, H.'
'Foro, Sabine'
'Thimme Gowda, B.'
_publ_section_title
;
 Crystal structures of three <i>N</i>-acylhydrazone isomers
;
_journal_coeditor_code           MW2177
_journal_issue                   8
_journal_name_full               'Acta Crystallographica Section E'
_journal_page_first              780
_journal_page_last               784
_journal_paper_doi               10.1107/S2056989021006885
_journal_volume                  77
_journal_year                    2021
_chemical_formula_iupac          'C15 H13 Cl2 N3 O3 S'
_chemical_formula_moiety         'C15 H13 Cl2 N3 O3 S'
_chemical_formula_sum            'C15 H13 Cl2 N3 O3 S'
_chemical_formula_weight         386.24
_chemical_name_systematic
(<i>E</i>)-4-Chloro-<i>N</i>-{2-[2-(4-chlorobenzylidene)hydrazinyl]-2-oxoethyl}benzenesulfonamide
_space_group_crystal_system      triclinic
_space_group_IT_number           2
_space_group_name_Hall           '-P 1'
_space_group_name_H-M_alt        'P -1'
_atom_sites_solution_hydrogens   mixed
_atom_sites_solution_primary     direct
_atom_sites_solution_secondary   difmap
_audit_creation_method           <i>SHELXL2014/6</i>
_cell_angle_alpha                74.980(10)
_cell_angle_beta                 87.110(10)
_cell_angle_gamma                75.340(10)
_cell_formula_units_Z            2
_cell_length_a                   6.7234(9)
_cell_length_b                   10.2810(10)
_cell_length_c                   13.611(2)
_cell_measurement_reflns_used    1746
_cell_measurement_temperature    293(2)
_cell_measurement_theta_max      27.93
_cell_measurement_theta_min      2.92
_cell_volume                     879.0(2)
_computing_cell_refinement
;
CrysAlis RED (Oxford Diffraction, 2009)
;
_computing_data_collection
;
CrysAlis CCD (Oxford Diffraction, 2009)
;
_computing_data_reduction
;
CrysAlis RED (Oxford Diffraction, 2009)
;
_computing_molecular_graphics
;
PLATON (Spek, 2020)
;
_computing_publication_material
;
<i>SHELXL2014/6</i> (Sheldrick, 2015)
;
_computing_structure_refinement
;
<i>SHELXL2014/6</i> (Sheldrick, 2015)
;
_computing_structure_solution
;
<i>SHELXS2013/1</i> (Sheldrick, 2008)
;
_diffrn_ambient_temperature      293(2)
_diffrn_measured_fraction_theta_full 0.999
_diffrn_measured_fraction_theta_max 0.998
_diffrn_measurement_device_type
;
Oxford Diffraction Xcalibur with Sapphire CCD
;
_diffrn_measurement_method
;
Rotation method data acquisition using omega scans.
;
_diffrn_radiation_type           'Mo K\a'
_diffrn_radiation_wavelength     0.71073
_diffrn_reflns_av_R_equivalents  0.0187
_diffrn_reflns_av_unetI/netI     0.0292
_diffrn_reflns_limit_h_max       8
_diffrn_reflns_limit_h_min       -8
_diffrn_reflns_limit_k_max       12
_diffrn_reflns_limit_k_min       -12
_diffrn_reflns_limit_l_max       16
_diffrn_reflns_limit_l_min       -13
_diffrn_reflns_number            5737
_diffrn_reflns_theta_full        25.242
_diffrn_reflns_theta_max         26.372
_diffrn_reflns_theta_min         2.926
_diffrn_source                   'fine-focus sealed tube'
_exptl_absorpt_coefficient_mu    0.506
_exptl_absorpt_correction_T_max  0.9055
_exptl_absorpt_correction_T_min  0.8005
_exptl_absorpt_correction_type   multi-scan
_exptl_absorpt_process_details
;
(CrysAlis RED, Oxford Diffraction, 2009)
;
_exptl_crystal_colour            colourless
_exptl_crystal_density_diffrn    1.459
_exptl_crystal_density_method    'not measured'
_exptl_crystal_description       rod
_exptl_crystal_F_000             396
_exptl_crystal_size_max          0.460
_exptl_crystal_size_mid          0.420
_exptl_crystal_size_min          0.200
_refine_diff_density_max         0.334
_refine_diff_density_min         -0.299
_refine_ls_extinction_method     none
_refine_ls_goodness_of_fit_ref   1.035
_refine_ls_hydrogen_treatment    mixed
_refine_ls_matrix_type           full
_refine_ls_number_parameters     223
_refine_ls_number_reflns         3598
_refine_ls_number_restraints     2
_refine_ls_restrained_S_all      1.036
_refine_ls_R_factor_all          0.0731
_refine_ls_R_factor_gt           0.0480
_refine_ls_shift/su_max          0.000
_refine_ls_shift/su_mean         0.000
_refine_ls_structure_factor_coef Fsqd
_refine_ls_weighting_details
'w=1/[\s^2^(Fo^2^)+(0.0407P)^2^+0.5495P] where P=(Fo^2^+2Fc^2^)/3'
_refine_ls_weighting_scheme      calc
_refine_ls_wR_factor_gt          0.1059
_refine_ls_wR_factor_ref         0.1198
_reflns_number_gt                2600
_reflns_number_total             3598
_reflns_threshold_expression     'I > 2\s(I)'
_cod_data_source_file            mw2177sup1.cif
_cod_data_source_block           III
_cod_database_code               2243865
_shelx_space_group_comment
;
The symmetry employed for this shelxl refinement is uniquely defined
by the following loop, which should always be used as a source of
symmetry information in preference to the above space-group names.
They are only intended as comments.
;
_shelx_estimated_absorpt_t_min   0.801
_shelx_estimated_absorpt_t_max   0.906
_shelx_hkl_file
;
   0   0   2 3094.13 40.8436   1
   0   0   3 1589.78 36.9716   1
   0   0   4 15301.4 127.339   1
   0   0   5 22771.0 174.827   1
   0   0   6 1907.49 60.6690   1
   0   0   7 1534.79 62.3229   1
   0   0   8 14047.3 183.872   1
   0   0   9 526.255 63.1039   1
   0   0  10 17345.4 246.943   1
   0   0  11 24455.7 313.852   1
   0   0  12 111.909 82.4585   1
   0   0  13 479.389 89.7076   1
   0   0  14 99.8112 93.0903   1
   0   0  15 1393.64 143.821   1
   0   0  16 53.8818 119.912   1
   0   0  17 246.063 115.335   1
   0  -1  16-202.869 133.882   0
   0  -1  15 1051.82 136.333   0
   0  -1  14 632.699 109.062   1
   0  -1  13 590.719 95.1064   1
   0  -1  12 537.776 85.7047   1
   0  -1  11-36.2153 76.6528   1
   0  -1  10 1663.79 101.613   1
   0  -1   9 10007.8 171.040   1
   0  -1   8 3307.72 96.0346   1
   0  -1   7 893.907 52.8304   1
   0  -1   6 123.448 29.6072   1
   0  -1   5 38206.9 224.970   1
   0  -1   4 22408.4 152.785   1
   0  -1   3 98956.8 271.989   1
   0  -1   2 5075.42 83.8013   0
   0  -1   1 2765.06 52.2296   0
   0   1   2 37865.5 147.534   1
   0   1   2 36994.8 155.987   4
   0  -1  -2 38042.9 185.666   0
   0   1   3 5456.85 68.1429   4
   0   1   3 5604.47 69.2958   1
   0   1   4 25104.1 159.881   4
   0   1   4 24656.4 163.612   1
   0   1   5 28033.6 187.513   4
   0   1   5 28113.7 197.130   1
   0   1   6 19.7116 26.8805   1
   0   1   6 12.6219 23.9132   4
   0   1   7 3343.82 87.5896   1
   0   1   7 3106.14 76.0980   4
   0   1   8 230.796 35.2175   4
   0   1   8 194.463 48.6824   1
   0   1   9 284.184 54.6397   1
   0   1   9 191.460 31.9325   4
   0   1  10 1174.34 88.7095   1
   0   1  11 3215.59 133.736   1
   0   1  12 1935.92 123.899   1
   0   1  13 1519.46 113.095   1
   0   1  14 351.010 99.5246   1
   0   1  15 4575.08 196.368   1
   0   1  16 61.7731 117.540   1
   0   1  17 736.027 142.577   1
   0  -2  15 47.4299 126.165   0
   0  -2  14 235.832 130.059   0
   0  -2  13-40.7756 116.668   0
   0  -2  12 80.7114 58.4025   1
   0  -2  12-215.451 111.278   0
   0  -2  11 5999.16 228.214   0
   0  -2  11 7162.44 175.673   1
   0  -2  10-20.2561 116.478   0
   0  -2  10-62.7378 66.7760   1
   0  -2   9 30357.3 435.004   0
   0  -2   9 35478.8 311.182   1
   0  -2   8 14.0716 41.7195   1
   0  -2   8 42.0615 65.4087   0
   0  -2   7 20793.8 310.124   0
   0  -2   7 22067.8 206.586   1
   0  -2   6 25174.0 201.706   1
   0  -2   6 24045.0 308.394   0
   0  -2   5-19.7811 53.7620   0
   0  -2   5 6.13087 22.0156   1
   0  -2   4 27878.7 281.533   0
   0  -2   4 28158.4 169.716   1
   0  -2   3 3782.07 54.6675   1
   0  -2   3 3620.10 97.9427   0
   0   2  -2 1381.07 37.1151   5
   0  -2   2 1506.22 61.4486   0
   0  -2   1 22430.0 142.007   2
   0  -2   1 22019.7 187.018   0
   0  -2   0 345185. 689.107   0
   0  -2  -1 241894. 588.884   0
   0  -2  -2 499764. 3397.66   0
   0   2   2 470282. 2319.64   1
   0   2   3 8199.58 91.6028   1
   0  -2  -3 7466.47 113.057   0
   0  -2  -4 279548. 709.358   0
   0   2   4 272314. 587.502   1
   0   2   5 646.640 42.1823   1
   0   2   5 626.015 39.1297   4
   0  -2  -5 719.995 52.1832   0
   0   2   6 271.788 33.6168   4
   0   2   6 331.076 38.8672   1
   0   2   7 854.858 55.0955   1
   0   2   7 748.819 44.2257   4
   0   2   8-7.40397 28.7473   4
   0   2   8 9.99016 40.6084   1
   0   2   9 2064.44 78.3252   4
   0   2   9 2231.45 97.1187   1
   0   2  10 35.0364 61.2815   1
   0   2  11 1787.52 110.767   1
   0   2  12 8289.89 207.954   1
   0   2  13 1385.75 108.447   1
   0   2  14 311.324 98.5320   1
   0   2  15 2254.59 152.587   1
   0   2  16 145.736 114.296   1
   0   2  17 478.434 142.010   1
   0  -3  14 92.1183 132.714   0
   0  -3  13 163.226 113.238   0
   0  -3  12 55.3674 111.090   0
   0  -3  11 4067.07 209.217   0
   0  -3  10 689.918 137.106   0
   0  -3   9 12827.3 310.506   0
   0  -3   8 2180.19 147.034   0
   0  -3   8 1932.14 76.2478   1
   0  -3   7 531.557 89.6071   0
   0  -3   7 648.972 47.5816   1
   0  -3   6 1423.49 110.053   0
   0  -3   6 1939.80 63.1489   1
   0  -3   5 994.862 44.0315   1
   0  -3   5 910.939 83.6321   0
   0  -3   4 13095.7 115.582   1
   0  -3   4 13333.6 221.294   0
   0  -3   3 14992.9 215.024   0
   0   3  -3 15281.9 143.745   5
   0   3  -2 5361.03 83.8322   5
   0  -3   2 5271.59 122.883   0
   0  -3   1 50087.2 255.530   2
   0  -3   1 50951.0 338.663   0
   0  -3   0 518.118 32.6616   2
   0  -3   0 517.359 54.5352   0
   0  -3  -1 113201. 494.882   0
   0   3   1 112459. 282.548   1
   0  -3  -1 113887. 332.013   2
   0   3   2 88419.3 284.955   1
   0  -3  -2 85716.2 434.491   0
   0  -3  -2 87713.6 294.223   2
   0   3   3 15627.1 132.850   1
   0  -3  -3 14557.1 184.330   0
   0   3   4 21309.3 170.852   1
   0  -3  -4 20383.7 224.150   0
   0  -3  -5 46875.8 346.779   0
   0   3   5 47383.3 279.097   1
   0  -3  -6 2638.44 96.1015   0
   0   3   6 2779.14 81.8000   1
   0   3   7 24414.4 238.152   1
   0   3   8 492.432 54.9484   1
   0   3   9 15474.7 220.524   1
   0   3  10 1204.58 89.7013   1
   0   3  11 35.8809 80.6672   1
   0   3  12 7580.92 196.350   1
   0   3  13 808.762 102.874   1
   0   3  14 103.344 81.6790   1
   0   3  15 79.4697 105.710   1
   0   3  16 357.437 122.459   1
   0   3  17 2223.20 174.608   1
   0  -4  14 147.587 134.773   0
   0  -4  13 552.955 135.322   0
   0  -4  12 1502.76 176.198   0
   0  -4  11 2.19585 122.576   0
   0  -4  10-63.0093 102.765   0
   0  -4   9 14205.8 349.010   0
   0  -4   8 2163.99 165.513   0
   0  -4   7 1673.73 141.351   0
   0  -4   6 11883.3 264.551   0
   0  -4   5 20907.5 329.452   0
   0  -4   4 1045.18 92.1632   0
   0   4  -4 1103.17 54.8828   5
   0  -4   4 1013.48 34.8474   1
   0  -4   3 21256.6 225.622   2
   0  -4   3 20275.3 279.574   0
   0  -4   2 6688.69 156.436   0
   0   4  -2 6380.44 107.122   5
   0  -4   2 6196.54 114.684   2
   0  -4   1 2244.53 67.7065   2
   0  -4   1 2181.97 92.2230   0
   0  -4   0 6080.33 96.3570   2
   0  -4   0 6484.98 145.325   0
   0   4   1 1787.75 46.6968   1
   0  -4  -1 1616.47 85.8750   0
   0  -4  -1 1529.09 56.3625   2
   0   4   2 193944. 466.819   1
   0  -4  -2 194646. 745.774   0
   0  -4  -2 194689. 496.113   2
   0   4   3 75828.3 317.797   1
   0  -4  -3 75243.7 470.605   0
   0   4   4 60950.4 308.563   1
   0  -4  -4 64241.2 439.667   0
   0   4   5 8135.05 124.844   1
   0  -4  -5 8226.44 168.908   0
   0   4   6 56735.5 342.854   1
   0  -4  -6 54151.2 428.177   0
   0  -4  -7 16242.2 243.013   0
   0   4   7 15984.7 201.191   1
   0   4   8 7792.83 154.926   1
   0  -4  -8 8584.55 190.829   0
   0   4   9 5407.21 143.457   1
   0   4  10 727.778 80.5848   1
   0   4  11 970.835 101.073   1
   0   4  12 10255.7 230.086   1
   0   4  13 358.777 100.628   1
   0   4  14 400.332 104.975   1
   0   4  15 126.801 107.784   1
   0   4  16 119.487 99.4199   1
   0  -5  13 222.451 112.386   0
   0  -5  12 161.578 115.740   0
   0  -5  11 313.028 117.362   0
   0  -5  10 2483.52 195.460   0
   0  -5   9 1340.96 157.873   0
   0  -5   8 8582.76 286.803   0
   0  -5   7 1249.19 143.261   0
   0  -5   6 165.368 99.4267   0
   0  -5   5 25729.8 316.644   2
   0  -5   5 24159.6 374.421   0
   0  -5   4 13911.5 222.634   2
   0   5  -4 13012.9 176.430   5
   0  -5   4 13090.9 275.143   0
   0   5  -3 93.8113 34.7859   5
   0  -5   3 103.604 40.8653   2
   0  -5   2 879.056 85.2444   0
   0  -5   2 819.716 55.6018   2
   0   5  -2 820.744 54.6582   5
   0  -5   1 4006.54 97.2535   2
   0  -5   1 3851.48 137.563   0
   0  -5   0 1577.42 60.9321   2
   0  -5   0 1583.38 95.5575   0
   0  -5  -1 195.740 35.4769   2
   0  -5  -1 222.870 61.2107   0
   0   5   1 163.476 25.6194   1
   0  -5  -2 889.491 47.8806   2
   0   5   2 898.864 44.7436   1
   0  -5  -2 955.610 84.2766   0
   0  -5  -3 128782. 693.614   0
   0   5   3 124425. 442.149   1
   0   5   4 1396.06 68.2096   1
   0  -5  -4 1158.98 94.6923   0
   0   5   5 462.319 49.7554   1
   0  -5  -5 446.851 69.8465   0
   0  -5  -6 34.8351 60.5171   0
   0   5   6 59.8507 44.5465   1
   0  -5  -7 380.200 69.2878   0
   0   5   7 483.803 57.4348   1
   0   5   8 3147.57 108.089   1
   0  -5  -8 3357.09 135.149   0
   0  -5  -9 5153.36 170.717   0
   0   5   9 4697.68 139.060   1
   0   5  10 3044.75 126.280   1
   0   5  11 270.270 86.8361   1
   0   5  12 53.2752 84.7789   1
   0   5  13 2297.43 141.221   1
   0   5  14 300.987 107.178   1
   0   5  15 305.312 120.853   1
   0   5  16 227.117 131.375   1
   0  -6  13-176.670 126.364   2
   0  -6  12 77.8810 130.223   0
   0  -6  12-330.777 141.212   2
   0  -6  11 11.9101 121.354   2
   0  -6  11 212.343 131.246   0
   0  -6  10 133.006 108.849   0
   0  -6  10-124.971 105.658   2
   0  -6   9 276.661 90.9366   2
   0  -6   9 306.327 116.973   0
   0  -6   8 1694.41 127.461   2
   0  -6   8 1443.74 157.507   0
   0  -6   7 2224.26 183.298   0
   0  -6   7 2211.29 135.688   2
   0  -6   6 2944.08 142.948   2
   0  -6   6 2430.35 179.994   0
   0  -6   5 1660.58 153.030   0
   0  -6   5 1837.66 108.063   2
   0   6  -4 7010.46 144.856   5
   0  -6   4 6880.68 228.379   0
   0  -6   4 6973.10 173.633   2
   0   6  -3 909.923 62.8553   5
   0  -6   3 838.399 70.9395   2
   0  -6   3 973.588 112.776   0
   0  -6   2 4189.04 165.168   0
   0   6  -2 4111.80 111.871   5
   0  -6   1 4887.11 115.199   2
   0  -6   1 6877.95 195.489   0
   0  -6   0 336.994 35.5799   2
   0  -6   0 489.402 82.3149   0
   0  -6  -1 171.098 78.6067   0
   0  -6  -1 180.034 35.1921   2
   0   6   2 107.404 32.5559   1
   0  -6  -2 75.5810 76.3989   0
   0  -6  -2 60.2747 27.5902   2
   0  -6  -3 14129.0 262.025   0
   0   6   3 13792.7 159.260   1
   0   6   4 2710.32 83.9650   1
   0  -6  -4 2742.76 129.688   0
   0  -6  -5 46.0056 78.0210   0
   0   6   5 73.7240 45.7497   1
   0  -6  -6 22080.5 327.128   0
   0   6   6 22073.8 243.112   1
   0   6   7 3945.94 114.998   1
   0  -6  -7 4060.38 157.490   0
   0   6   8 3564.35 119.914   1
   0  -6  -8 3791.38 153.010   0
   0  -6  -9 2937.66 140.260   0
   0   6   9 2670.39 115.693   1
   0  -6 -10 3828.40 162.129   0
   0   6  10 3216.77 132.128   1
   0   6  11 1131.53 103.128   1
   0   6  12 515.588 95.6414   1
   0   6  13 968.051 121.890   1
   0   6  14 696.499 109.571   1
   0   6  15 176.265 116.017   1
   0   6  16 119.692 128.776   1
   0  -7  11-168.265 166.348   0
   0  -7  10-70.1994 120.497   0
   0  -7   9-55.3577 128.770   0
   0  -7   8-195.356 134.260   0
   0  -7   7 578.182 140.361   0
   0  -7   6 4424.13 229.780   0
   0  -7   5 2750.00 187.121   0
   0  -7   4 7003.46 246.529   0
   0   7  -3 2086.79 91.0900   5
   0  -7   3 2222.54 165.624   0
   0   7  -2 4020.88 122.048   5
   0  -7   2 4336.60 191.927   0
   0   7  -1 3628.36 116.652   5
   0  -7   1 3624.40 168.874   0
   0  -7   0 2682.88 145.516   0
   0  -7  -1 965.053 110.345   0
   0  -7  -2 1774.83 128.148   0
   0  -7  -3 4459.66 173.337   0
   0  -7  -4 1112.47 105.656   0
   0   7   5 915.863 64.6241   1
   0  -7  -5 1263.27 111.052   0
   0   7   6 351.361 58.1908   1
   0  -7  -6 458.897 89.2435   0
   0   7   7 3781.24 120.734   1
   0  -7  -7 4121.54 169.979   0
   0   7   8 179.931 65.0725   1
   0  -7  -8 59.8327 78.5326   0
   0  -7  -9 35.7115 68.7045   0
   0   7   9 43.6163 59.9034   1
   0   7  10 63.4977 71.6050   1
   0  -7 -10 33.3089 64.0659   0
   0  -7 -11 2919.24 159.141   0
   0   7  11 2687.90 139.802   1
   0   7  12 324.056 96.3753   1
   0   7  13 371.913 111.618   1
   0   7  14 51.7174 108.880   1
   0   7  15 88.6231 107.538   1
   0   7  16 225.113 130.664   1
   0  -8   9-19.8430 140.385   0
   0  -8   8 79.1590 106.848   0
   0  -8   7 269.608 149.909   0
   0  -8   6 2904.13 211.836   0
   0  -8   5-35.9005 121.988   0
   0  -8   4 1129.19 157.748   0
   0   8  -3 6934.28 163.709   5
   0  -8   3 8428.89 280.827   0
   0  -8   2 2780.15 182.038   0
   0   8  -2 2590.66 112.775   5
   0  -8   1 904.672 131.854   0
   0   8  -1 1009.52 83.4885   5
   0  -8   0 1810.10 149.495   0
   0  -8  -1-42.7153 94.4398   0
   0  -8  -2-10.6551 95.0402   0
   0  -8  -3 7055.93 227.099   0
   0  -8  -4 7276.40 227.289   0
   0  -8  -5 326.193 97.6635   0
   0  -8  -6 673.340 110.775   0
   0  -8  -7 1090.48 111.238   0
   0  -8  -8 20.7691 75.7236   0
   0   8   8-27.5945 62.1580   1
   0  -8  -9 110.818 81.8181   0
   0   8   9 87.0811 68.0732   1
   0   8  10 12.3121 79.0893   1
   0  -8 -10-80.9024 79.7013   0
   0  -8 -11 99.4979 78.0100   0
   0   8  11 46.0868 95.0583   1
   0   8  12 2505.25 150.410   1
   0  -8 -12 2747.02 167.420   0
   0   8  13 2582.96 167.648   1
   0   8  14 140.811 123.701   1
   0   8  15 107.568 113.191   1
   0  -9   8 28.0140 163.600   0
   0  -9   7 219.636 133.088   0
   0  -9   6 1470.33 188.962   0
   0  -9   5 487.644 151.791   0
   0  -9   4-11.7168 126.964   0
   0  -9   3 2426.53 192.177   0
   0  -9   2 7224.39 280.543   0
   0   9  -2 6236.35 176.058   5
   0  -9   1 8736.20 292.202   0
   0   9  -1 7939.40 191.701   5
   0   9   0 12671.8 235.847   5
   0  -9   0 13332.1 349.200   0
   0  -9  -1 731.779 144.657   0
   0  -9  -2 3126.49 193.048   0
   0  -9  -3 479.702 115.470   0
   0  -9  -4 359.184 88.8730   0
   0  -9  -5 56.9090 77.1778   0
   0  -9  -6-42.4599 80.8418   0
   0  -9  -7 1067.57 119.384   0
   0  -9  -8 102.140 81.4909   0
   0  -9  -9-143.087 75.8525   0
   0  -9 -10-117.087 89.3252   0
   0  -9 -11 874.191 115.158   0
   0   9  12 567.306 93.9923   1
   0  -9 -12 930.557 125.995   0
   0  -9 -13 93.7959 100.201   0
   0   9  13-82.4374 109.031   1
   0   9  14 145.362 106.549   1
   0   9  15 1023.66 150.446   1
   0 -10   6 546.233 170.684   0
   0 -10   5 787.294 170.523   0
   0 -10   4 134.472 130.788   0
   0 -10   3 78.7664 143.792   0
   0 -10   2 854.798 169.752   0
   0 -10   1 84.6784 138.282   0
   0  10  -1 72.7818 67.7765   5
   0 -10   0 1635.60 162.128   0
   0  10   0 1592.01 108.660   5
   0 -10  -1 174.480 134.356   0
   0  10   1 275.522 72.2216   5
   0 -10  -2 1044.61 151.628   0
   0 -10  -3 17.6357 103.438   0
   0 -10  -4 1072.45 132.524   0
   0 -10  -5 9.12181 93.1735   0
   0 -10  -6 104.385 100.972   0
   0 -10  -7 95.5040 100.914   0
   0 -10  -8 65.5444 101.070   0
   0 -10  -9-160.709 88.5634   0
   0 -10 -10 38.7240 91.9112   0
   0 -10 -11 159.767 104.357   0
   0 -10 -12 1619.24 151.808   0
   0 -10 -13 1394.58 142.517   0
   0 -11   3 416.193 155.813   0
   0 -11   2 578.141 159.673   0
   0 -11   1-36.1676 127.752   0
   0  11  -1-43.0035 69.3425   5
   0  11   0-88.1176 69.6468   5
   0 -11   0-106.436 133.825   0
   0 -11  -1 168.352 137.459   0
   0  11   1 262.816 73.9622   5
   0 -11  -2 2917.94 201.372   0
   0  11   2 3043.08 140.033   5
   0 -11  -3 2991.84 191.976   0
   0 -11  -4 368.640 114.278   0
   0 -11  -5-62.7299 95.8690   0
   0 -11  -6 740.889 117.600   0
   0 -11  -7 190.866 108.309   0
   0 -11  -8 108.307 111.550   0
   0 -11  -9 242.514 118.338   0
   0 -11 -10-277.009 104.765   0
   0 -11 -11-81.2760 100.082   0
   0 -12   0 155.244 153.734   0
   0  12   0 158.902 64.4088   5
   0 -12  -1-328.044 155.785   0
   0  12   1-7.64700 68.5760   5
   0 -12  -2-115.351 122.936   0
   0  12   2-206.722 63.5633   5
   0 -12  -3-9.46614 118.332   0
   0  12   3-135.479 77.3135   5
   0 -12  -4 131.135 107.983   0
   0 -12  -5 324.461 132.689   0
   0 -12  -6 276.580 115.641   0
   0 -12  -7 588.107 124.194   0
   0 -12  -8 585.345 117.768   0
   1 -12  -7-22.8284 131.179   0
   1 -12  -6 0.00000 116.173   0
   1 -12  -5 1703.04 168.671   0
  -1  12   4 2126.14 145.247   5
   1 -12  -4 2030.13 184.476   0
   1 -12  -3 613.778 134.932   0
  -1  12   3 621.515 96.6285   5
   1 -12  -2-359.400 140.676   0
  -1  12   2-153.589 84.9942   5
  -1  12   1 5.55852 68.7481   5
  -1  12   0 102.945 74.0536   5
   1 -11 -11-73.1504 130.597   0
   1 -11 -10 200.837 118.755   0
   1 -11  -9-11.2481 102.065   0
   1 -11  -8 924.879 132.567   0
   1 -11  -7 2238.98 185.041   0
   1 -11  -6 565.604 131.631   0
  -1  11   5-37.0456 84.0600   5
   1 -11  -5-107.498 106.569   0
  -1  11   4 967.596 108.139   5
   1 -11  -4 821.168 134.364   0
   1 -11  -3 392.883 127.261   0
  -1  11   3 356.645 101.593   5
   1 -11  -2-302.950 127.764   0
  -1  11   2-4.44152 68.2979   5
   1 -11  -1 149.711 119.694   0
  -1  11   1 109.868 67.0162   5
  -1  11   0 345.817 76.1556   5
   1 -11   0 389.694 134.366   0
   1 -11   1 114.453 143.379   0
  -1  11  -1 403.381 82.1820   5
   1 -11   2 393.369 137.419   0
   1 -10 -13 922.872 126.513   0
   1 -10 -12 592.368 110.421   0
   1 -10 -11 197.617 90.5914   0
   1 -10 -10-221.176 98.6372   0
   1 -10  -9 204.196 92.2096   0
   1 -10  -8 235.386 91.4360   0
   1 -10  -7-83.3365 80.8305   0
   1 -10  -6 476.295 114.232   0
   1 -10  -5 3257.37 191.578   0
   1 -10  -4 3272.44 203.381   0
  -1  10   3 38.6872 73.1706   5
   1 -10  -3-187.883 103.503   0
  -1  10   2 132.688 75.9159   5
   1 -10  -2 6.08216 97.6073   0
   1 -10  -1 503.256 126.070   0
  -1  10   1 429.186 86.7865   5
  -1  10   0 1102.00 96.3764   5
   1 -10   0 1209.02 172.763   0
  -1  10  -1 749.469 85.8328   5
   1 -10   1 1011.51 147.634   0
  -1  10  -2 324.266 83.1488   5
   1 -10   2 219.586 123.569   0
   1 -10   3 63.8135 128.246   0
   1 -10   4 450.141 170.208   0
   1 -10   5 382.594 188.617   0
  -1   9  14 161.086 102.288   1
   1  -9 -13 1171.66 123.014   0
  -1   9  13 536.623 105.110   1
   1  -9 -12 363.587 100.768   0
  -1   9  12 110.442 81.4764   1
   1  -9 -11 38.8437 82.0569   0
   1  -9 -10 117.048 89.1855   0
   1  -9  -9-87.6594 71.5208   0
   1  -9  -8-243.625 77.1866   0
   1  -9  -7 234.008 97.5764   0
   1  -9  -6 203.558 90.9835   0
   1  -9  -5 1426.02 137.047   0
   1  -9  -4 2494.34 165.137   0
   1  -9  -3 5028.05 215.667   0
  -1   9   2-2.33936 73.3444   5
   1  -9  -2-70.0659 107.343   0
   1  -9  -1 800.851 125.953   0
  -1   9   1 637.653 87.2119   5
   1  -9   0 227.595 106.212   0
  -1   9   0 164.497 70.6287   5
  -1   9  -1 29.9949 64.8180   5
   1  -9   1 31.1230 116.664   0
   1  -9   2 48.4018 122.706   0
  -1   9  -2-49.0196 64.1091   5
   1  -9   3 152.301 130.000   0
  -1   9  -3 287.830 89.6160   5
   1  -9   4 998.348 159.864   0
   1  -9   5 345.435 157.462   0
   1  -9   6 597.551 150.122   0
   1  -9   7 655.383 151.285   0
  -1   8  15-122.135 124.257   1
  -1   8  14 502.476 115.198   1
  -1   8  13 1289.41 147.056   1
  -1   8  12-107.105 93.0035   1
   1  -8 -12 463.068 89.9484   0
   1  -8 -11 156.954 65.3964   0
  -1   8  11 6.25099 76.0343   1
   1  -8 -10 838.639 101.920   0
  -1   8  10 668.136 97.8762   1
   1  -8  -9 165.579 81.7026   0
  -1   8   9 197.234 78.2003   1
   1  -8  -8 455.436 86.3147   0
  -1   8   8 346.797 68.7399   1
   1  -8  -7 654.765 97.5630   0
   1  -8  -6 72.7864 89.1466   0
   1  -8  -5 3301.43 164.543   0
   1  -8  -4 942.297 119.592   0
   1  -8  -3 12636.7 302.968   0
   1  -8  -2 27640.9 437.914   0
  -1   8   2 27562.8 342.221   5
   1  -8  -1 10621.5 297.793   0
  -1   8   1 10421.3 218.392   5
   1  -8   0 7229.44 254.532   0
  -1   8   0 7052.18 184.067   5
  -1   8  -1 766.929 83.6051   5
   1  -8   1 779.597 139.053   0
  -1   8  -2 307.892 74.9162   5
   1  -8   2 417.762 132.672   0
  -1   8  -3 1692.42 122.549   5
   1  -8   3 1854.48 161.947   0
   1  -8   4 3201.15 195.321   0
   1  -8   5 1442.93 165.430   0
   1  -8   6 105.006 129.635   0
   1  -8   7 672.080 167.793   0
   1  -8   8 148.113 144.376   0
   1  -8   9-123.011 157.253   0
  -1   7  15 48.7349 106.127   1
  -1   7  14-34.4382 108.014   1
  -1   7  13 1073.32 126.600   1
  -1   7  12-59.1789 100.140   1
  -1   7  11-325.587 88.5456   1
   1  -7 -11 182.313 85.2159   0
  -1   7  10 563.896 98.6031   1
   1  -7 -10 1005.65 97.3387   0
  -1   7   9 1222.30 102.990   1
   1  -7  -9 1320.26 116.821   0
   1  -7  -8 628.430 90.3397   0
  -1   7   8 450.454 82.0113   1
   1  -7  -7 459.085 99.4800   0
  -1   7   7 329.272 73.9066   1
   1  -7  -6 3718.69 168.140   0
  -1   7   6 3608.77 125.554   1
  -1   7   5 904.471 76.4241   1
   1  -7  -5 872.058 106.141   0
   1  -7  -4 1819.09 128.758   0
   1  -7  -3 27156.8 395.417   0
   1  -7  -2 4642.53 188.538   0
   1  -7  -1 9877.57 256.135   0
  -1   7   1 9860.99 199.674   5
  -1   7   0 12933.3 225.372   5
   1  -7   0 13150.1 294.268   0
   1  -7   1 5701.48 215.268   0
  -1   7  -1 5557.27 152.052   5
  -1   7  -2-1.33127 62.8345   5
   1  -7   2 70.2083 88.8189   0
  -1   7  -3 2443.24 116.897   5
   1  -7   3 2517.02 155.860   0
   1  -7   4 4118.95 198.913   0
   1  -7   5 3181.10 186.681   0
   1  -7   6 152.670 131.609   0
   1  -7   7-7.66894 128.615   0
   1  -7   8 1484.75 165.758   0
   1  -7   9-139.018 130.051   0
   1  -7  10-139.729 136.850   0
  -1   6  16-43.2153 113.985   1
  -1   6  15-0.44794 119.533   1
  -1   6  14 340.564 127.879   1
  -1   6  13 2813.62 170.180   1
  -1   6  12 475.284 116.879   1
  -1   6  11 760.988 102.054   1
   1  -6 -10 3501.49 156.920   0
  -1   6  10 2858.75 134.466   1
   1  -6  -9 1751.32 116.218   0
  -1   6   9 1700.89 111.703   1
  -1   6   8 378.634 73.8093   1
   1  -6  -8 355.052 75.7830   0
   1  -6  -7-4.41216 67.0754   0
  -1   6   7 68.4554 57.8567   1
  -1   6   6 500.418 63.8302   1
   1  -6  -6 6.56154 63.4179   0
  -1   6   5 7926.78 161.247   1
   1  -6  -5 8473.87 212.945   0
  -1   6   4 14324.1 205.312   1
   1  -6  -4 14498.3 265.374   0
   1  -6  -3 3277.62 144.711   0
  -1   6   3 3183.48 105.987   1
  -1   6   2 13967.1 192.699   1
   1  -6  -2 14206.6 269.440   0
   1  -6  -1 10018.9 232.257   0
  -1   6   1 10351.9 185.236   5
  -1   6   0 1080.90 81.3831   5
   1  -6   0 926.491 103.778   0
   1  -6   1 11200.8 248.840   0
  -1   6  -1 10784.9 187.907   5
   1  -6   2 6999.40 205.754   0
  -1   6  -2 6903.83 152.687   5
   1  -6   3 7108.57 215.316   0
  -1   6  -3 7443.78 169.313   5
   1  -6   4 2928.32 158.328   0
   1  -6   5 4197.57 194.475   0
   1  -6   6 116.297 113.009   0
   1  -6   7-63.9301 113.234   0
   1  -6   8 1240.53 152.965   0
   1  -6   9 21.3564 129.443   0
   1  -6  10 15.1804 117.185   0
   1  -6  11 154.527 122.744   0
  -1   5  16-28.4267 131.898   1
  -1   5  15 127.062 124.729   1
  -1   5  14 1092.70 140.877   1
  -1   5  13 23.9307 104.621   1
  -1   5  12 541.422 113.624   1
  -1   5  11 6823.71 208.003   1
  -1   5  10 775.913 100.536   1
  -1   5   9 13424.0 238.987   1
   1  -5  -9 13760.8 262.544   0
  -1   5   8 240.817 73.0178   1
   1  -5  -8 294.311 61.5417   0
   1  -5  -7 331.434 68.5206   0
  -1   5   7 360.121 65.8062   1
  -1   5   6 2816.98 106.973   1
   1  -5  -6 3046.19 124.408   0
  -1   5   5 5580.75 131.085   1
   1  -5  -5 5354.04 157.296   0
  -1   5   4 188.664 47.7856   1
   1  -5  -4 263.200 61.3297   0
  -1   5   3 11725.7 172.755   1
   1  -5  -3 11307.1 214.108   0
   1  -5  -2 4569.02 151.234   0
  -1   5   2 4448.42 109.224   1
   1  -5  -1 61067.4 483.349   0
  -1   5   0 30.7615 52.1339   5
   1  -5   0 39.6685 76.1798   0
   1  -5   1 26464.4 335.701   0
  -1   5  -1 25387.2 259.164   5
   1  -5   2 120.780 71.6899   0
   1  -5   2 108.351 27.5541   2
  -1   5  -2 140.351 49.6611   5
   1  -5   3 4774.65 164.757   0
  -1   5  -3 4719.79 131.871   5
   1  -5   4 1960.28 129.840   0
   1  -5   5 645.848 102.421   0
   1  -5   6 1706.50 136.553   0
   1  -5   7 198.210 112.771   0
   1  -5   8 2578.90 182.429   0
   1  -5   9 290.106 119.063   0
   1  -5  10 1498.19 174.340   0
   1  -5  11 53.6362 106.546   0
   1  -5  12 985.664 155.679   0
  -1   4  16 412.972 131.825   1
  -1   4  15 100.674 102.030   1
  -1   4  14-31.7513 90.3625   1
  -1   4  13-30.4553 86.1631   1
  -1   4  12 577.437 116.015   1
  -1   4  11 6445.60 193.897   1
  -1   4  10 2592.13 131.267   1
  -1   4   9 796.732 93.2687   1
  -1   4   8 862.796 88.5610   1
   1  -4  -8 908.402 79.1328   0
  -1   4   7 1951.52 97.4665   1
   1  -4  -7 1722.51 93.9672   0
  -1   4   6 47390.9 356.856   1
   1  -4  -6 48181.6 396.684   0
   1  -4  -5 6612.39 152.446   0
  -1   4   5 6340.86 98.7494   3
  -1   4   5 6310.74 136.874   1
   1  -4  -4 28536.7 300.460   0
  -1   4   4 28666.3 255.791   1
   1  -4  -3 880.206 65.3268   0
  -1   4   3 913.732 59.3793   1
  -1   4   2 13647.6 170.255   1
   1  -4  -2 14073.4 212.878   0
   1  -4  -1 46439.1 373.434   0
  -1   4   0 2.19281 43.0117   5
   1  -4   0 29.2742 52.6986   0
  -1   4  -1 36271.7 274.467   5
   1  -4   1 36108.3 340.282   0
  -1   4  -2 64778.4 388.120   5
   1  -4   2 62960.2 474.448   0
   1  -4   3 32.5881 34.7515   1
   1  -4   3-32.9423 64.5874   0
  -1   4  -3 8.77321 45.4686   5
   1  -4   4 79.0881 25.8217   1
   1  -4   4 47.0555 68.4676   0
   1  -4   5 9042.19 127.411   1
   1  -4   5 11908.6 257.341   0
   1  -4   6 708.535 113.830   0
   1  -4   7 16097.0 330.679   0
   1  -4   8 2747.48 177.801   0
   1  -4   9 634.403 127.916   0
   1  -4  10 708.813 137.892   0
   1  -4  11 796.193 138.613   0
   1  -4  12 800.314 155.755   0
   1  -4  13 180.177 138.218   0
  -1   3  16 210.672 128.581   1
  -1   3  15 2236.51 172.560   1
  -1   3  14 3.01893 93.3403   1
  -1   3  13 148.489 82.1784   1
  -1   3  12 1527.16 120.210   1
  -1   3  11 7204.81 194.668   1
  -1   3  10 11963.7 229.674   1
  -1   3   9 14994.8 241.172   1
  -1   3   8 26.9648 68.6701   1
  -1   3   7 54121.7 393.672   1
   1  -3  -7 55182.5 413.408   0
  -1   3   6 20180.6 241.049   1
   1  -3  -6 18980.2 235.565   0
  -1   3   5 90316.4 445.860   1
   1  -3  -5 88388.2 470.677   0
  -1   3   5 91080.0 329.898   3
  -1   3   4 44663.4 305.015   1
  -1   3   4 44019.1 233.774   3
   1  -3  -4 43479.3 323.960   0
   1  -3  -3 5996.68 120.773   0
  -1   3   3 6007.27 108.936   1
   1  -3  -2 5603.06 121.650   0
  -1   3   2 5396.63 102.210   1
   1  -3  -1 186717. 643.784   0
  -1   3   1 185391. 554.171   1
  -1   3   0 21244.1 195.932   5
   1  -3   0 20552.7 219.222   0
  -1   3  -1 13540.3 155.239   5
   1  -3   1 13835.0 188.342   0
  -1   3  -2 18382.7 202.795   5
   1  -3   2 16934.6 220.429   0
   1  -3   3 51190.2 402.094   0
   1  -3   3 50356.5 281.263   1
   1  -3   4 324.804 67.6730   0
   1  -3   4 287.837 36.2168   1
   1  -3   5 257.434 70.7807   0
   1  -3   5 124.263 33.6745   1
   1  -3   6 9398.72 137.295   1
   1  -3   6 8511.77 218.319   0
   1  -3   7 10449.7 156.308   1
   1  -3   7 9582.13 245.339   0
   1  -3   8 166.101 43.4835   1
   1  -3   8-13.5907 92.2782   0
   1  -3   9 10945.5 182.387   1
   1  -3   9 14057.7 326.503   0
   1  -3  10 2068.89 163.303   0
   1  -3  11 1119.84 143.092   0
   1  -3  12 672.419 136.920   0
   1  -3  13 418.619 122.754   0
   1  -3  14-233.107 131.616   0
  -1   2  17-19.0523 118.628   1
  -1   2  16 437.348 129.443   1
  -1   2  15 1292.12 142.574   1
  -1   2  14 145.017 105.722   1
  -1   2  13 927.804 104.415   1
  -1   2  12 18.5795 71.5989   1
  -1   2  11 63.8087 80.3068   1
  -1   2  10 28874.1 337.134   1
  -1   2   9 785.225 84.9239   1
  -1   2   8 11387.4 192.258   1
  -1   2   8 8489.88 130.830   6
  -1   2   7 1839.28 67.3292   6
  -1   2   7 1957.28 90.7643   1
  -1   2   6 2718.27 90.5845   1
  -1   2   5 11190.4 161.290   1
   1  -2  -5 10460.6 151.915   0
  -1   2   4 10505.7 140.905   1
   1  -2  -4 9771.56 135.395   0
  -1   2   3 1988.00 62.9967   1
   1  -2  -3 2014.84 61.0433   0
  -1   2   3 2018.45 50.9899   3
  -1   2   2 24936.4 166.998   3
  -1   2   2 24417.0 192.584   1
   1  -2  -2 24375.7 193.303   0
  -1   2   1 5536.95 92.2515   1
  -1   2   1 5444.13 89.0235   5
   1  -2  -1 5577.09 97.5693   0
  -1   2   0 221404. 540.457   5
   1  -2   0 222385. 573.734   0
  -1   2  -1 42618.5 256.849   5
   1  -2   1 39457.7 265.195   0
   1  -2   2 4765.14 106.347   0
   1  -2   2 4611.93 82.9086   1
   1  -2   3 1148.88 47.1718   1
   1  -2   3 1182.89 68.1729   0
   1  -2   4 7697.86 109.474   1
   1  -2   4 7326.59 155.149   0
   1  -2   5 15290.9 160.568   1
   1  -2   5 14486.7 231.873   0
   1  -2   6 5897.34 163.727   0
   1  -2   6 6458.50 114.484   1
   1  -2   7 7959.05 136.503   1
   1  -2   7 7166.09 200.221   0
   1  -2   8 40872.8 317.164   1
   1  -2   8 39276.4 463.186   0
   1  -2   9 3.34248 92.2715   0
   1  -2   9 27.2313 62.1382   1
   1  -2  10 224.670 122.474   0
   1  -2  10 352.328 72.9235   1
   1  -2  11 323.643 109.610   0
   1  -2  11 471.253 76.5381   1
   1  -2  12 191.397 113.602   0
   1  -2  12 264.165 67.8538   1
   1  -2  13 146.657 105.139   0
   1  -2  14 3.03747 104.608   0
   1  -2  15-109.135 105.426   0
  -1   1  17 190.117 164.308   1
  -1   1  16 42.9254 125.088   1
  -1   1  15 811.898 122.283   1
  -1   1  14 798.857 114.909   1
  -1   1  13 16.9875 79.3510   1
  -1   1  12 1203.78 101.529   1
  -1   1  11 1529.88 109.716   1
  -1   1  10 11332.5 215.745   1
  -1   1   9 87.6952 61.0158   1
  -1   1   8 2265.01 95.1352   1
  -1   1   7 133344. 574.971   1
  -1   1   7 132725. 464.800   6
  -1   1   6 7845.28 112.414   6
  -1   1   6 8028.60 137.575   1
  -1   1   5 23807.3 213.810   1
  -1   1   5 23063.4 186.379   6
  -1   1   4 12834.2 151.257   1
  -1   1   4 11836.8 129.092   6
  -1   1   3 110249. 401.228   1
  -1   1   3 109086. 373.576   6
   1  -1  -3 110402. 358.722   0
   1  -1  -2 7123.23 80.7282   0
  -1   1   2 7292.72 85.8931   3
  -1   1   2 7216.72 98.2552   1
  -1   1   1 6724.08 84.0614   3
  -1   1   1 6510.46 78.5909   5
  -1   1   1 6476.25 91.0570   1
  -1   1   0 200307. 462.150   3
  -1   1   0 199294. 477.703   5
   1  -1   1 195698. 461.119   0
   1  -1   2 3656.62 71.3773   1
   1  -1   2 3753.39 78.2884   0
   1  -1   3 109115. 382.478   1
   1  -1   3 113224. 471.083   0
   1  -1   4 51379.4 271.463   1
   1  -1   5 2247.15 64.9044   1
   1  -1   6 13511.1 160.207   1
   1  -1   7 408.656 46.9120   1
   1  -1   8 8156.05 146.408   1
   1  -1   9 22.3572 60.7533   1
   1  -1  10 559.611 77.4895   1
   1  -1  11 10489.4 202.856   1
   1  -1  12 955.591 90.0370   1
   1  -1  13 1877.10 113.093   1
   1  -1  14 0.32473 71.9681   1
   1  -1  14 83.3335 114.122   0
   1  -1  15-226.945 120.772   0
  -1   0  17 149.439 128.187   1
  -1   0  16 892.929 156.580   1
  -1   0  15 282.643 115.971   1
  -1   0  14 572.899 116.882   1
  -1   0  13 79.8495 91.5637   1
  -1   0  12 195.029 78.5297   1
  -1   0  11 177.466 74.7589   1
  -1   0  10 3787.02 134.254   1
  -1   0   9 2572.92 105.128   1
  -1   0   8 11000.3 179.421   1
  -1   0   7 6451.63 130.815   1
  -1   0   7 4599.44 86.2481   6
  -1   0   6 14838.7 149.569   6
  -1   0   6 14689.4 176.784   1
  -1   0   5 22539.5 176.776   6
  -1   0   5 22270.2 199.450   1
  -1   0   4 19333.6 159.557   6
  -1   0   4 21258.9 182.188   1
  -1   0   3 52322.6 250.940   6
  -1   0   3 52990.6 260.745   1
  -1   0   2 38241.0 202.139   1
  -1   0   2 37685.6 206.179   6
  -1   0   1 11937.0 110.072   1
  -1   0   1 11852.7 110.627   6
  -1   0   0 1360.95 39.1596   6
  -1   0  -1 95245.2 305.850   3
  -1   0  -1 92688.0 285.065   6
  -1   0  -1 93393.2 268.561   2
  -1   0  -2 176474. 414.879   3
   1   0   2 174339. 438.636   1
   1   0   3 2553.35 59.3905   1
   1   0   4 9494.15 114.724   1
   1   0   5 8130.86 115.391   1
   1   0   6 2504.30 72.6536   1
   1   0   7 5460.88 112.694   1
   1   0   8 32283.3 281.545   1
   1   0   9 797.666 68.2836   1
   1   0  10 5091.79 141.673   1
   1   0  11 3283.26 130.185   1
   1   0  12 9115.95 200.176   1
   1   0  13-15.8086 67.1120   1
   1   0  14 385.411 89.6095   1
   1   0  15-14.9789 81.2742   1
   1   0  16 300.141 103.206   1
   1   0  17 141.425 94.6028   1
  -1  -1  16 974.997 167.390   0
  -1  -1  15 30.9758 101.673   0
  -1  -1  14 3403.52 164.035   1
  -1  -1  13 971.936 114.368   1
  -1  -1  12 72.8695 70.5324   1
  -1  -1  11 1027.47 91.8065   1
  -1  -1  10 954.169 85.7224   1
  -1  -1   9 5408.11 139.833   1
  -1  -1   8 8447.15 156.444   1
  -1  -1   7 3409.12 98.5658   1
  -1  -1   6 35242.3 262.902   1
  -1  -1   5 61865.7 322.478   1
  -1  -1   4 28121.3 199.000   1
  -1  -1   3 999999. 4315.17   1
  -1  -1   2 223024. 560.068   2
  -1  -1   2 226790. 498.518   0
  -1  -1   2 225054. 502.886   6
  -1  -1   2 222718. 457.599   1
  -1  -1   1 805.642 34.6603   6
  -1  -1   1 763.095 37.4171   2
  -1  -1   0 29888.0 181.620   2
  -1  -1   0 30708.5 174.185   6
   1   1   1 2156.05 45.3841   1
  -1  -1  -1 2102.25 45.5038   6
  -1  -1  -1 2134.77 52.7518   2
   1   1   2 215458. 461.138   1
  -1  -1  -2 217658. 457.168   0
   1   1   3 18891.2 142.352   1
  -1  -1  -4 46387.8 218.763   3
   1   1   4 45684.5 242.302   1
  -1  -1  -5 74883.2 289.930   3
   1   1   5 75898.5 340.100   1
   1   1   6 17587.4 180.083   1
  -1  -1  -6 16963.5 143.213   3
   1   1   7 7820.92 133.583   1
  -1  -1  -7 7652.44 103.587   3
   1   1   8 10447.8 164.229   1
   1   1   9 332.538 55.3546   1
   1   1  10 230.184 67.3676   1
   1   1  11 717.067 84.4369   1
   1   1  12 2191.12 121.059   1
   1   1  13 368.697 84.9950   1
   1   1  14 816.911 98.7403   1
   1   1  15 4269.48 184.892   1
   1   1  16 847.505 120.564   1
   1   1  17 432.800 103.219   1
  -1  -2  15 98.9795 134.067   0
  -1  -2  14-217.725 113.236   0
  -1  -2  13 98.0190 133.642   0
  -1  -2  12 690.089 121.099   0
  -1  -2  11 1726.20 102.285   1
  -1  -2  11 1338.72 124.757   0
  -1  -2  10-27.1585 56.4974   1
  -1  -2  10-53.8902 84.4179   0
  -1  -2   9 9831.80 179.935   1
  -1  -2   9 9148.42 239.192   0
  -1  -2   8 14833.3 202.318   1
  -1  -2   8 15159.5 283.359   0
  -1  -2   7 4605.33 110.204   1
  -1  -2   7 4649.19 151.111   0
  -1  -2   6 54925.9 321.917   1
  -1  -2   6 55678.0 460.061   0
  -1  -2   5 57.1091 35.3092   1
  -1  -2   5 11.2567 51.9618   0
  -1  -2   4 47421.9 250.034   1
  -1  -2   4 47574.4 355.206   0
  -1  -2   3 66609.3 264.328   1
  -1  -2   3 66355.5 372.850   0
  -1  -2   2 20183.5 125.400   1
  -1  -2   2 19095.3 185.129   0
  -1  -2   2 19180.8 187.195   2
  -1  -2   1 269095. 645.842   2
  -1  -2   1 269838. 606.840   0
  -1  -2   0 28.9829 23.6903   0
   1   2   0 64.6172 15.8158   4
  -1  -2   0 27.9213 25.4228   2
   1   2   1 80257.9 228.929   1
  -1  -2  -1 79333.5 325.393   0
   1   2   1 79430.7 287.267   4
  -1  -2  -1 77869.9 335.639   2
  -1  -2  -2 144697. 455.115   2
  -1  -2  -2 145542. 447.811   0
   1   2   2 144897. 336.573   1
   1   2   2 144682. 429.925   4
  -1  -2  -3 2670.73 68.8603   0
   1   2   3 2645.67 54.5948   1
  -1  -2  -4 38665.5 275.090   0
   1   2   4 41336.1 229.036   1
   1   2   5 21.1217 30.4336   1
   1   2   6 910.332 50.5364   1
   1   2   7 5745.97 114.842   1
   1   2   8 113.612 45.2164   1
   1   2   8 46.3187 39.5525   4
   1   2   9 4385.07 120.251   1
   1   2   9 4008.24 120.316   4
   1   2  10 14884.9 226.092   4
   1   2  10 15587.9 226.162   1
   1   2  11 39.0379 47.0496   4
   1   2  11 132.150 73.6836   1
   1   2  12 21190.6 298.397   1
   1   2  13 137.160 84.4421   1
   1   2  14 3087.43 157.814   1
   1   2  15 1473.67 133.687   1
   1   2  16 316.612 104.679   1
   1   2  17 355.897 122.540   1
  -1  -3  15 207.953 133.795   0
  -1  -3  14 255.556 115.533   0
  -1  -3  13-67.5770 121.314   0
  -1  -3  12 4508.86 229.213   0
  -1  -3  11 179.391 102.536   0
  -1  -3  10 3392.49 187.021   0
  -1  -3   9 9.76373 88.4431   0
  -1  -3   8 280.269 50.5058   1
  -1  -3   8 191.969 99.1346   0
  -1  -3   7 12071.7 167.797   1
  -1  -3   7 12595.1 262.887   0
  -1  -3   6 1883.68 112.221   0
  -1  -3   6 1634.56 63.6040   1
  -1  -3   5 1333.81 98.4441   0
  -1  -3   5 1665.63 60.3911   1
  -1  -3   4 2305.49 101.357   0
   1   3  -4 2026.74 43.0557   5
  -1  -3   4 1821.99 81.8076   2
  -1  -3   4 2249.63 56.8886   1
  -1  -3   3 33240.8 301.281   0
  -1  -3   3 33437.0 290.213   2
  -1  -3   2 56877.3 358.624   2
  -1  -3   2 58113.6 374.276   0
  -1  -3   1 166749. 573.656   2
  -1  -3   1 165715. 587.151   0
  -1  -3   0 31077.3 250.875   0
  -1  -3   0 30109.3 237.022   2
   1   3   1 105888. 373.641   4
  -1  -3  -1 105385. 463.976   0
  -1  -3  -1 103658. 436.530   2
  -1  -3  -2 58316.9 344.918   0
   1   3   2 55870.6 201.354   1
   1   3   2 57353.8 293.034   4
  -1  -3  -2 56526.4 321.038   2
  -1  -3  -3 607.082 46.2169   2
  -1  -3  -3 450.581 48.7493   0
   1   3   3 498.397 27.0949   1
   1   3   3 504.004 40.7319   4
   1   3   4 13706.4 164.370   4
   1   3   4 13741.6 131.752   1
  -1  -3  -4 13560.0 181.637   0
  -1  -3  -5 89.9052 41.9776   0
   1   3   5 89.8202 34.7802   4
   1   3   5 97.5647 31.1233   1
  -1  -3  -6 1158.23 75.1410   0
   1   3   6 1256.16 69.3041   4
   1   3   6 1282.34 58.5641   1
   1   3   7 7746.42 132.825   1
   1   3   7 7046.97 142.456   4
   1   3   8 52.9390 40.5465   1
   1   3   8 26.4708 40.8512   4
   1   3   9 268.169 55.8171   1
   1   3   9 262.483 55.7685   4
   1   3  10 1819.09 93.8067   4
   1   3  10 1657.17 90.9282   1
   1   3  11 1883.26 108.327   1
   1   3  11 1632.68 93.1275   4
   1   3  12 1728.07 121.315   1
   1   3  13 1435.77 127.519   1
   1   3  14 3118.40 162.714   1
   1   3  15 398.323 109.546   1
   1   3  16 372.838 103.974   1
   1   3  17-25.5673 102.223   1
  -1  -4  14 345.503 158.995   0
  -1  -4  13 302.791 130.131   0
  -1  -4  12 941.402 156.024   0
  -1  -4  11 320.624 135.511   0
  -1  -4  10 110.689 98.9753   0
  -1  -4   9-34.9524 100.125   0
  -1  -4   8 63.6767 92.9380   0
  -1  -4   7 16857.7 326.707   0
  -1  -4   6 102.029 65.8197   2
  -1  -4   6 33.5747 83.2363   0
  -1  -4   5 17284.2 267.641   2
  -1  -4   5 16668.8 283.489   0
  -1  -4   4 58737.3 472.458   0
   1   4  -4 52827.1 240.400   5
  -1  -4   4 62375.4 458.472   2
  -1  -4   3 63.4296 49.3226   2
  -1  -4   3 34.4731 60.7680   0
  -1  -4   2 408.962 58.7238   0
  -1  -4   2 539.069 53.3671   2
  -1  -4   1 1878.39 84.8519   0
  -1  -4   1 1869.31 75.4061   2
  -1  -4   0 1194.07 75.6222   0
  -1  -4   0 1278.68 61.7699   2
  -1  -4  -1 6585.37 145.795   0
  -1  -4  -1 6913.99 130.402   2
  -1  -4  -2 44747.7 307.541   2
  -1  -4  -2 45663.6 357.611   0
   1   4   2 43639.8 174.836   1
  -1  -4  -3 27237.9 283.072   0
  -1  -4  -3 28019.3 244.633   2
   1   4   3 26969.9 163.719   1
   1   4   4 33580.7 272.326   4
  -1  -4  -4 32872.2 314.788   0
   1   4   4 32912.3 204.226   1
  -1  -4  -5 613.222 64.0257   0
   1   4   5 647.529 55.1497   4
   1   4   5 689.420 44.1236   1
  -1  -4  -6 53809.2 429.439   0
   1   4   6 53092.0 374.765   4
   1   4   6 54545.8 314.232   1
  -1  -4  -7 1154.92 90.5806   0
   1   4   7 1413.68 66.1605   1
   1   4   7 1116.05 72.1257   4
  -1  -4  -8 199.243 67.0681   0
   1   4   8 315.874 50.4055   1
   1   4   8 282.678 55.3372   4
   1   4   9 412.011 58.9345   4
   1   4   9 438.825 58.8422   1
   1   4  10 2748.78 110.922   1
   1   4  10 2589.96 113.313   4
   1   4  11 1953.13 105.613   4
   1   4  11 2187.86 115.881   1
   1   4  12 144.080 70.8834   4
   1   4  12 141.602 92.2787   1
   1   4  13 22.7946 95.7200   1
   1   4  14 12151.1 271.028   1
   1   4  15 4384.31 189.455   1
   1   4  16 2937.35 173.627   1
  -1  -5  13 43.3519 116.722   2
  -1  -5  13 254.329 153.040   0
  -1  -5  12 1735.44 165.802   2
  -1  -5  12 1595.89 181.165   0
  -1  -5  11 1029.66 167.330   0
  -1  -5  11 937.709 126.502   2
  -1  -5  10 133.333 116.006   0
  -1  -5  10-3.26659 91.9964   2
  -1  -5   9 1109.38 118.039   2
  -1  -5   9 1285.48 156.642   0
  -1  -5   8 2959.57 183.903   0
  -1  -5   8 2945.48 156.304   2
  -1  -5   7 6295.37 219.461   0
  -1  -5   7 7026.77 213.491   2
  -1  -5   6 5558.87 205.496   0
  -1  -5   6 6723.30 199.665   2
  -1  -5   5 914.129 93.6715   2
  -1  -5   5 740.958 104.366   0
  -1  -5   4 3110.90 145.432   0
  -1  -5   4 3236.30 133.618   2
   1   5  -4 2856.35 72.6947   5
  -1  -5   3 147.970 58.0994   2
  -1  -5   3 113.256 74.7522   0
  -1  -5   2 1266.70 92.6290   0
  -1  -5   2 1444.74 79.7420   2
  -1  -5   1 35627.6 369.926   0
  -1  -5   1 35938.5 322.327   2
  -1  -5   0 5160.27 124.011   2
  -1  -5   0 5382.10 151.578   0
  -1  -5  -1 31885.8 287.883   2
  -1  -5  -1 31718.8 341.057   0
  -1  -5  -2 16515.4 249.781   0
  -1  -5  -2 16082.9 203.798   2
   1   5   2 17261.8 117.607   1
   1   5   3 17222.5 139.563   1
  -1  -5  -3 16581.1 206.508   2
  -1  -5  -4 37802.5 378.217   0
   1   5   4 37245.4 222.355   1
  -1  -5  -4 39008.1 313.737   2
   1   5   5 8582.61 119.947   1
  -1  -5  -5 8660.58 193.425   0
  -1  -5  -6 26947.3 342.308   0
   1   5   6 27545.4 229.828   1
  -1  -5  -7 2853.04 129.436   0
   1   5   7 2957.51 90.8875   1
  -1  -5  -8 3523.97 144.762   0
   1   5   8 3646.24 106.378   1
   1   5   9 1477.03 83.9762   1
  -1  -5  -9 1594.11 110.826   0
   1   5  10 193.531 68.1084   1
   1   5  11 9549.32 212.090   1
   1   5  12 3080.29 146.159   1
   1   5  13 113.641 94.1670   1
   1   5  14 448.025 99.1599   1
   1   5  15 95.8185 103.733   1
   1   5  16 731.643 115.247   1
  -1  -6  13 909.957 157.046   2
  -1  -6  12-99.2502 151.136   2
  -1  -6  12 36.9441 141.105   0
  -1  -6  11 927.198 143.656   2
  -1  -6  11 1023.14 171.124   0
  -1  -6  10-169.445 97.1834   2
  -1  -6  10-27.5972 121.398   0
  -1  -6   9-27.5875 100.811   2
  -1  -6   9 3.82747 101.581   0
  -1  -6   8 2474.74 159.241   2
  -1  -6   8 2243.69 178.935   0
  -1  -6   7 6113.94 246.512   0
  -1  -6   7 6355.20 215.776   2
  -1  -6   6 3023.80 149.798   2
  -1  -6   6 2759.47 173.626   0
  -1  -6   5-17.3112 66.8935   2
  -1  -6   5-12.7002 89.3454   0
  -1  -6   4 649.451 82.0103   2
  -1  -6   4 569.099 99.7356   0
  -1  -6   3 10998.9 223.226   2
  -1  -6   3 10683.8 252.876   0
   1   6  -3 11097.3 156.689   5
  -1  -6   2 2367.19 106.884   2
  -1  -6   2 1825.77 121.667   0
  -1  -6   1 194.652 80.5123   0
  -1  -6   1 106.599 54.3361   2
  -1  -6   0 11234.7 234.991   0
  -1  -6   0 11606.1 192.403   2
  -1  -6  -1 3303.25 143.784   0
  -1  -6  -1 3220.87 107.822   2
  -1  -6  -2 143.253 51.1625   2
  -1  -6  -2 96.2612 73.6507   0
  -1  -6  -3 10634.1 175.727   2
  -1  -6  -3 10033.9 221.490   0
   1   6   3 10522.9 115.250   1
   1   6   4 1805.25 60.6076   1
  -1  -6  -4 1819.13 84.0231   2
  -1  -6  -4 1574.66 114.617   0
   1   6   5 5745.53 105.824   1
  -1  -6  -5 5656.22 175.685   0
  -1  -6  -6 12669.8 253.926   0
   1   6   6 13056.4 169.204   1
  -1  -6  -7 14041.1 272.623   0
   1   6   7 14012.1 188.804   1
  -1  -6  -8 829.871 99.2360   0
   1   6   8 831.704 72.1687   1
  -1  -6  -9 776.190 98.4984   0
   1   6   9 1004.51 83.4366   1
  -1  -6 -10 1965.58 124.048   0
   1   6  10 1530.30 102.959   1
   1   6  11 7876.74 194.960   1
   1   6  12 2253.60 129.190   1
   1   6  13 5.31213 92.5367   1
   1   6  14 844.112 122.353   1
   1   6  15 38.4592 114.411   1
   1   6  16 269.423 105.171   1
  -1  -7  12-313.059 168.491   2
  -1  -7  11 20.6368 159.852   0
  -1  -7  11 166.680 131.047   2
  -1  -7  10 168.534 134.863   2
  -1  -7  10-93.7250 140.652   0
  -1  -7   9 115.528 103.637   2
  -1  -7   9 205.113 139.295   0
  -1  -7   8 220.764 100.199   2
  -1  -7   8 165.697 135.908   0
  -1  -7   7 475.359 113.332   2
  -1  -7   7 277.186 122.373   0
  -1  -7   6 269.572 96.0748   2
  -1  -7   6 348.612 124.895   0
  -1  -7   5 451.834 94.5227   2
  -1  -7   5 294.265 117.304   0
  -1  -7   4 1973.03 125.295   2
  -1  -7   4 2049.48 153.772   0
  -1  -7   3 7741.89 198.583   2
  -1  -7   3 8097.61 242.171   0
  -1  -7   2 32.3787 96.2076   0
  -1  -7   2-11.6235 54.0537   2
  -1  -7   1 37.1908 51.3566   2
  -1  -7   1-27.6650 82.7390   0
  -1  -7   0 90.0476 49.4057   2
  -1  -7   0 65.6035 87.8032   0
  -1  -7  -1 2997.51 117.558   2
  -1  -7  -1 2654.30 142.821   0
  -1  -7  -2 2334.46 137.310   0
  -1  -7  -2 2361.39 104.422   2
  -1  -7  -3 4791.29 177.799   0
  -1  -7  -3 5129.37 137.105   2
  -1  -7  -4 2819.13 106.117   2
  -1  -7  -4 2890.10 147.069   0
  -1  -7  -5 5950.31 198.902   0
   1   7   5 6136.21 114.276   1
   1   7   6 4952.56 112.665   1
  -1  -7  -6 4987.16 186.709   0
   1   7   7 9302.65 160.435   1
  -1  -7  -7 9445.20 245.000   0
  -1  -7  -8 1708.39 128.119   0
   1   7   8 1798.43 87.9733   1
   1   7   9 35.1729 56.3023   1
  -1  -7  -9-14.5579 69.4233   0
   1   7  10 821.186 83.9123   1
  -1  -7 -10 787.202 102.083   0
   1   7  11 192.575 80.0695   1
  -1  -7 -11 430.585 101.845   0
   1   7  12 1512.71 115.724   1
   1   7  13 93.0133 98.2696   1
   1   7  14 64.1289 103.374   1
   1   7  15 477.482 122.045   1
   1   7  16 357.528 132.840   1
  -1  -8  10-106.095 135.966   0
  -1  -8   9 283.789 140.977   0
  -1  -8   8 461.559 138.600   0
  -1  -8   7 1775.50 185.839   0
  -1  -8   6 118.009 140.233   0
  -1  -8   5 1722.98 164.518   0
  -1  -8   4 1881.78 170.810   0
  -1  -8   3 3201.35 191.435   0
  -1  -8   2 510.125 114.403   0
  -1  -8   1 1475.89 133.521   0
  -1  -8   0 147.049 94.6962   0
  -1  -8  -1 575.910 106.843   0
  -1  -8  -2 389.322 101.718   0
  -1  -8  -3 426.650 98.4701   0
  -1  -8  -4 71.0034 97.3625   0
  -1  -8  -5 1675.32 128.729   0
  -1  -8  -6 273.627 91.7414   0
  -1  -8  -7 978.574 107.221   0
  -1  -8  -8 2074.92 150.878   0
   1   8   8 2217.90 99.9882   1
   1   8   9 854.761 80.8524   1
  -1  -8  -9 651.861 107.948   0
  -1  -8 -10-2.71075 86.5261   0
   1   8  10 178.250 72.5951   1
  -1  -8 -11 1584.98 148.258   0
   1   8  11 1921.23 122.187   1
   1   8  12 592.876 100.187   1
  -1  -8 -12 434.488 100.070   0
   1   8  13 505.862 97.5342   1
   1   8  14 703.270 129.687   1
   1   8  15 45.5781 112.696   1
  -1  -9   8-1.56274 160.580   0
  -1  -9   7 13.4724 118.390   0
  -1  -9   6 498.682 140.176   0
  -1  -9   5 347.130 138.764   0
  -1  -9   4 1051.43 162.819   0
  -1  -9   3 154.395 142.736   0
  -1  -9   2 557.039 140.908   0
  -1  -9   1 231.644 123.300   0
  -1  -9   0 1251.80 153.099   0
  -1  -9  -1 3177.51 191.032   0
  -1  -9  -2 1997.55 157.624   0
  -1  -9  -3 681.524 119.550   0
  -1  -9  -4 37.9964 93.6351   0
  -1  -9  -5 152.691 88.6381   0
  -1  -9  -6 1504.42 132.886   0
  -1  -9  -7 345.483 97.8835   0
  -1  -9  -8-91.7615 84.7772   0
  -1  -9  -9 3038.86 186.665   0
  -1  -9 -10 4673.43 219.669   0
  -1  -9 -11 1210.48 143.563   0
   1   9  12 182.773 83.1427   1
  -1  -9 -12 340.600 103.037   0
   1   9  13 570.541 112.241   1
  -1  -9 -13 566.492 119.794   0
   1   9  14 1855.50 143.815   1
   1   9  15 449.604 139.876   1
  -1 -10   6 72.9378 137.904   0
  -1 -10   5 1277.43 183.936   0
  -1 -10   4 3438.54 229.836   0
  -1 -10   3 5348.79 274.451   0
  -1 -10   2 1931.37 201.623   0
  -1 -10   1 1615.94 175.861   0
  -1 -10   0 722.247 164.447   0
  -1 -10  -1 23.0801 130.059   0
  -1 -10  -2 891.918 149.606   0
  -1 -10  -3 1684.28 161.764   0
  -1 -10  -4-68.5008 91.0191   0
  -1 -10  -5 936.470 127.156   0
  -1 -10  -6 597.036 108.038   0
  -1 -10  -7 158.553 98.0663   0
  -1 -10  -8 407.572 101.455   0
  -1 -10  -9 863.354 138.874   0
  -1 -10 -10-116.710 88.3774   0
  -1 -10 -11-113.409 94.2243   0
  -1 -10 -12 177.173 118.645   0
  -1 -10 -13 1010.75 141.806   0
  -1 -11   4 48.2193 186.997   0
  -1 -11   3 20.7132 151.729   0
  -1 -11   2-11.9464 172.918   0
  -1 -11   1 613.490 172.003   0
  -1 -11   0-53.4571 162.448   0
  -1 -11  -1 408.015 138.600   0
  -1 -11  -2 433.375 149.377   0
  -1 -11  -3 253.309 119.122   0
  -1 -11  -4-9.69900 96.1485   0
  -1 -11  -5 476.464 116.439   0
  -1 -11  -6 495.740 114.587   0
  -1 -11  -7-8.04012 94.4408   0
  -1 -11  -8 141.908 91.8113   0
  -1 -11  -9 1418.72 151.510   0
  -1 -11 -10 2308.74 189.571   0
  -1 -11 -11 692.407 144.192   0
  -1 -11 -12 217.209 110.389   0
  -1 -12   1 1312.50 204.759   0
  -1 -12   0 2035.38 213.277   0
  -1 -12  -1 80.6195 135.982   0
  -1 -12  -2-13.6329 118.695   0
  -1 -12  -3-257.355 125.053   0
  -1 -12  -4 10.3025 96.4558   0
  -1 -12  -5 213.147 109.672   0
  -1 -12  -6 38.3399 114.458   0
  -1 -12  -7 190.847 124.010   0
  -1 -12  -8 320.116 115.047   0
  -1 -12  -9 405.365 125.420   0
   2 -11  -8 385.523 126.615   0
   2 -11  -7 1809.28 161.599   0
  -2  11   7 1614.33 142.489   5
  -2  11   6 1316.17 125.290   5
   2 -11  -6 1664.96 159.966   0
  -2  11   5 637.381 110.374   5
   2 -11  -5 794.622 141.204   0
  -2  11   4 58.9390 98.3076   5
   2 -11  -4 244.682 119.719   0
  -2  11   3-178.995 84.4404   5
   2 -11  -3-138.527 108.665   0
  -2  11   2 328.457 84.4129   5
   2 -11  -2 397.505 123.210   0
   2 -11  -1 98.3162 132.193   0
  -2  11   1 544.217 98.2968   5
  -2  11   0 27.0380 78.4339   5
   2 -11   0-35.3969 141.649   0
  -2  11  -1 610.857 96.9176   5
   2 -11   1 399.918 150.148   0
   2 -10 -10 2557.01 175.784   0
   2 -10  -9 819.351 140.473   0
   2 -10  -8-127.157 88.1451   0
  -2  10   8 18.8688 83.6080   5
   2 -10  -7 14.1832 107.441   0
  -2  10   7-21.2940 87.7806   5
  -2  10   6 678.957 99.3151   5
   2 -10  -6 641.760 110.049   0
  -2  10   5 1036.95 121.228   5
   2 -10  -5 1193.04 148.991   0
  -2  10   4 236.287 96.9309   5
   2 -10  -4 289.808 100.431   0
   2 -10  -3 1666.48 151.660   0
  -2  10   3 1479.20 121.288   5
  -2  10   2 1951.70 125.632   5
   2 -10  -2 2313.47 185.428   0
  -2  10   1 622.641 104.139   5
   2 -10  -1 858.422 156.758   0
   2 -10   0 87.1219 113.375   0
  -2  10   0 155.459 91.5735   5
  -2  10  -1 162.498 94.5682   5
   2 -10   1-123.101 137.482   0
   2 -10   2 546.520 150.608   0
  -2  10  -2 350.457 93.0041   5
   2 -10   3 523.086 154.454   0
   2 -10   4 38.8943 132.042   0
  -2   9  13 317.271 106.417   1
  -2   9  12 554.088 115.075   1
   2  -9 -11 674.366 114.232   0
   2  -9 -10 67.9403 86.3004   0
   2  -9  -9-59.7372 88.3136   0
   2  -9  -8 959.757 118.249   0
   2  -9  -7 1224.85 127.277   0
  -2   9   7 844.218 96.1632   5
  -2   9   6 37.0641 69.1284   5
   2  -9  -6 93.5982 92.5868   0
   2  -9  -5 92.6704 97.1065   0
  -2   9   5 53.0942 77.4857   5
   2  -9  -4 72.5537 89.5783   0
  -2   9   4 16.3589 76.8690   5
  -2   9   3 1383.93 115.673   5
   2  -9  -3 1672.18 143.142   0
  -2   9   2 4519.61 171.438   5
   2  -9  -2 3944.25 199.846   0
   2  -9  -1 637.362 142.253   0
  -2   9   1 629.375 94.1343   5
   2  -9   0-77.4462 125.844   0
  -2   9   0-77.2001 75.2412   5
   2  -9   1 664.346 150.955   0
  -2   9  -1 590.302 98.3901   5
   2  -9   2 426.242 134.154   0
  -2   9  -2 301.757 88.3754   5
   2  -9   3 134.598 124.460   0
   2  -9   4 220.454 129.247   0
   2  -9   5 82.4706 131.426   0
   2  -9   6 141.237 126.076   0
  -2   8  14 72.8066 91.0628   1
  -2   8  13 194.490 101.748   1
   2  -8 -12 524.149 93.7160   0
  -2   8  12 51.7308 92.5621   1
   2  -8 -11 507.094 101.016   0
  -2   8  11 264.210 100.032   1
   2  -8 -10 1716.75 135.337   0
  -2   8  10 1550.53 126.225   1
  -2   8   9 432.764 94.0088   1
   2  -8  -9 241.705 94.3259   0
   2  -8  -8 72.7258 81.5416   0
  -2   8   8 244.266 79.2638   1
   2  -8  -7 350.970 88.3541   0
   2  -8  -6 5576.87 211.743   0
  -2   8   6 5549.82 177.235   5
   2  -8  -5 1821.52 134.812   0
  -2   8   5 2003.24 116.450   5
   2  -8  -4-65.1916 89.4469   0
  -2   8   4 1.16990 75.5843   5
  -2   8   3 158.875 79.9207   5
   2  -8  -3 148.028 82.1952   0
   2  -8  -2 2447.86 157.755   0
  -2   8   2 2438.81 129.775   5
  -2   8   1 31.9231 70.9543   5
   2  -8  -1-132.973 97.4843   0
   2  -8   0 160.760 97.7391   0
  -2   8   0 114.694 73.4567   5
  -2   8  -1 3322.52 152.662   5
   2  -8   1 3052.99 177.776   0
  -2   8  -2 1507.94 112.684   5
   2  -8   2 1454.35 144.573   0
   2  -8   3 961.205 142.644   0
   2  -8   4 152.050 126.731   0
   2  -8   5 647.579 130.902   0
   2  -8   6 690.977 146.225   0
   2  -8   7 250.198 128.737   0
   2  -8   8 3.04999 148.772   0
  -2   7  14 20.5101 107.131   1
  -2   7  13 66.1222 97.0712   1
  -2   7  12 480.286 114.439   1
   2  -7 -11 2405.40 149.986   0
  -2   7  11 2161.46 140.173   1
   2  -7 -10 937.343 101.846   0
  -2   7  10 829.560 111.624   1
  -2   7   9 390.531 96.1814   1
   2  -7  -9 426.502 83.4230   0
  -2   7   8 3110.87 144.642   1
   2  -7  -8 3655.17 165.798   0
  -2   7   7 794.565 97.5921   1
   2  -7  -7 571.650 89.7939   0
   2  -7  -6 10512.8 256.181   0
  -2   7   6 10138.4 228.650   1
  -2   7   5 12957.6 247.890   1
  -2   7   5 13085.2 242.688   5
   2  -7  -5 13501.6 288.032   0
  -2   7   4 5712.84 174.146   5
   2  -7  -4 6021.94 207.428   0
   2  -7  -3 6028.25 206.074   0
  -2   7   3 5947.16 178.078   5
  -2   7   2 8872.80 206.076   5
   2  -7  -2 9470.35 249.562   0
   2  -7  -1-52.2186 103.688   0
  -2   7   1-10.8030 76.4004   5
  -2   7   0 5849.88 172.527   5
   2  -7   0 5470.10 205.880   0
   2  -7   1 7187.33 233.717   0
  -2   7  -1 7389.44 202.924   5
   2  -7   2 5781.61 218.773   0
  -2   7  -2 5522.88 179.304   5
   2  -7   3 494.552 110.339   0
   2  -7   4 117.966 97.5338   0
   2  -7   5-58.2478 103.206   0
   2  -7   6 295.549 109.903   0
   2  -7   7-8.69009 122.444   0
   2  -7   8 30.6920 138.365   0
   2  -7   9 524.779 162.270   0
  -2   6  15-374.270 119.842   1
  -2   6  14 20.2851 94.1344   1
  -2   6  13 11.8464 102.986   1
  -2   6  12 386.336 97.0110   1
  -2   6  11 3358.57 162.965   1
   2  -6 -10 51.9553 70.3228   0
  -2   6  10 18.1680 85.2712   1
   2  -6  -9 641.568 84.7336   0
  -2   6   9 585.026 97.5288   1
   2  -6  -8 5154.52 177.321   0
  -2   6   8 4828.69 171.422   1
   2  -6  -7 474.120 89.9266   0
  -2   6   7 463.600 96.0501   1
   2  -6  -6 17895.5 300.766   0
  -2   6   6 17364.1 278.674   1
  -2   6   5 1391.47 104.943   1
  -2   6   5 1258.73 77.2734   3
   2  -6  -5 1458.25 111.767   0
  -2   6   4 6227.33 164.365   5
  -2   6   4 6609.33 152.832   3
   2  -6  -4 6058.37 183.682   0
  -2   6   4 6241.94 168.946   1
  -2   6   3 14864.2 242.044   5
   2  -6  -3 15712.3 284.276   0
   2  -6  -2 19029.8 314.614   0
  -2   6   2 18817.1 270.050   5
   2  -6  -1 3797.33 164.538   0
  -2   6   1 3817.13 135.881   5
  -2   6   0 4514.36 146.192   5
   2  -6   0 4463.79 176.614   0
   2  -6   1 8083.21 222.455   0
  -2   6  -1 8433.08 197.662   5
   2  -6   2 13489.9 286.054   0
  -2   6  -2 13525.5 247.715   5
   2  -6   3 526.308 101.086   0
   2  -6   4 506.459 97.6339   0
   2  -6   5 352.448 104.487   0
   2  -6   6 415.468 113.696   0
   2  -6   7 944.179 133.732   0
   2  -6   8 242.814 132.206   0
   2  -6   9 3824.04 233.674   0
   2  -6  10 1300.68 189.105   0
   2  -6  11 23.9600 126.129   0
  -2   5  15-146.882 120.195   1
  -2   5  14-322.650 115.116   1
  -2   5  13 18.3194 98.8336   1
  -2   5  12 48.4236 106.729   1
  -2   5  11 4075.46 175.621   1
  -2   5  10 172.139 99.7219   1
   2  -5  -9 405.744 85.9300   0
  -2   5   9 429.256 94.7763   1
   2  -5  -8 9340.23 210.202   0
  -2   5   8 8402.15 204.503   1
   2  -5  -7 24534.7 325.871   0
  -2   5   7 23438.4 318.792   1
   2  -5  -6-18.0271 69.7691   0
  -2   5   6 94.5704 70.3239   1
  -2   5   5 3648.41 107.115   3
   2  -5  -5 3710.72 129.092   0
  -2   5   5 3663.41 130.201   1
   2  -5  -4 21.4908 53.1081   0
  -2   5   4 79.4370 59.5026   1
  -2   5   4 74.8630 53.3103   5
  -2   5   4 118.320 42.9226   3
  -2   5   3 1183.35 84.4158   1
  -2   5   3 1357.51 83.3684   5
  -2   5   3 1494.57 78.6617   3
   2  -5  -3 1372.61 89.9612   0
  -2   5   2 5775.71 145.722   5
   2  -5  -2 5767.45 162.331   0
   2  -5  -1 141.679 74.8563   0
  -2   5   1 145.007 59.2481   5
  -2   5   0 15163.1 230.147   5
   2  -5   0 15497.2 261.924   0
   2  -5   1 7222.74 188.454   0
  -2   5  -1 7212.57 173.245   5
  -2   5  -2 14303.4 233.690   5
   2  -5   2 12675.6 249.564   0
   2  -5   3 1552.74 114.894   0
   2  -5   4 115.406 82.9024   0
   2  -5   5-54.7603 85.4234   0
   2  -5   6 110.910 90.9919   0
   2  -5   7 1462.11 138.085   0
   2  -5   8 468.466 115.372   0
   2  -5   9 1668.59 160.140   0
   2  -5  10 238.367 126.334   0
   2  -5  11 792.928 178.371   0
   2  -5  12 338.577 164.431   0
  -2   4  15-78.8617 123.035   1
  -2   4  14 372.847 110.880   1
  -2   4  13 11.0702 91.3073   1
  -2   4  12 606.683 118.497   1
  -2   4  11 2839.20 154.815   1
  -2   4  10 1021.21 114.443   1
  -2   4   9 1256.58 81.2246   6
  -2   4   9 1700.75 118.409   1
   2  -4  -8 7569.91 182.165   0
  -2   4   8 7652.51 191.832   1
  -2   4   7 5924.65 163.780   1
   2  -4  -7 6067.47 152.411   0
  -2   4   6 53.3083 58.4792   1
   2  -4  -6 65.1722 44.6025   0
   2  -4  -5 44.8796 45.0391   0
  -2   4   5-10.5974 58.9104   1
  -2   4   5 12.3434 38.8612   3
   2  -4  -4 21690.4 262.012   0
  -2   4   4 21938.6 274.016   1
  -2   4   4 21953.8 235.662   3
  -2   4   4 21528.8 244.291   5
   2  -4  -3 5004.89 133.119   0
  -2   4   3 4784.68 123.840   5
  -2   4   3 4611.24 131.928   1
  -2   4   3 4681.63 116.109   3
  -2   4   2 39961.0 329.640   3
   2  -4  -2 39424.7 354.299   0
  -2   4   1 15743.5 207.945   5
   2  -4  -1 17217.6 242.284   0
  -2   4   0 6584.84 148.183   5
   2  -4   0 6323.85 157.063   0
  -2   4  -1 3494.19 122.888   5
   2  -4   1 3348.67 117.531   0
   2  -4   2 2874.67 118.607   0
   2  -4   3 3220.74 132.113   0
   2  -4   3 3032.56 102.739   1
   2  -4   4 4771.54 120.440   1
   2  -4   4 4546.84 159.665   0
   2  -4   5 1307.77 99.5384   0
   2  -4   5 986.046 64.0143   1
   2  -4   6 577.089 98.3556   0
   2  -4   7 2.06066 93.5047   0
   2  -4   8 1012.56 127.182   0
   2  -4   9 907.954 128.482   0
   2  -4  10 1311.83 165.996   0
   2  -4  11 1307.27 154.033   0
   2  -4  12 460.192 134.272   0
   2  -4  13 1437.85 181.596   0
  -2   3  16-156.497 137.987   1
  -2   3  15-346.626 107.157   1
  -2   3  14 666.619 132.921   1
  -2   3  13 521.812 110.214   1
  -2   3  12 113.661 91.6173   1
  -2   3  11-69.6848 83.3624   1
  -2   3  10 696.420 105.877   1
  -2   3   9 13052.8 210.890   6
  -2   3   9 17729.7 291.038   1
  -2   3   8 1939.22 114.503   1
  -2   3   8 1911.41 92.5159   6
  -2   3   7 58792.9 466.268   1
  -2   3   7 58973.5 423.791   6
   2  -3  -6 167.003 41.6556   0
  -2   3   6 86.7535 63.7782   1
  -2   3   5 73.4887 54.2524   1
   2  -3  -5 39.2157 30.7487   0
  -2   3   4 638.946 49.3823   3
   2  -3  -4 787.357 51.5847   0
  -2   3   4 747.023 56.7767   5
  -2   3   4 663.947 33.1787   2
  -2   3   4 714.686 68.7033   1
  -2   3   3 2581.92 49.1030   2
  -2   3   3 2805.86 100.339   1
  -2   3   3 2984.53 91.0958   5
   2  -3  -3 2789.92 85.4778   0
  -2   3   3 2978.81 89.8090   3
  -2   3   2 4914.01 125.098   1
   2  -3  -2 4604.02 113.159   0
  -2   3   2 4533.14 107.751   3
  -2   3   2 4387.20 106.452   5
  -2   3   1 50415.5 344.363   5
   2  -3  -1 49591.1 348.306   0
  -2   3   0 7703.29 152.960   5
   2  -3   0 7083.91 138.598   0
   2  -3   1 885.919 64.0973   0
   2  -3   2 30757.6 310.339   0
   2  -3   3 196.834 52.5641   1
   2  -3   3 240.331 61.7562   0
   2  -3   4 44712.5 422.712   0
   2  -3   4 44479.3 344.212   1
   2  -3   5 9325.42 162.473   1
   2  -3   5 9136.50 213.520   0
   2  -3   6 96.2827 72.3541   0
   2  -3   6-25.0783 47.4505   1
   2  -3   7 1649.90 123.996   0
   2  -3   7 1791.45 82.1758   1
   2  -3   8 761.048 112.381   0
   2  -3   8 544.473 60.2771   1
   2  -3   9 3707.88 193.890   0
   2  -3   9 2735.95 107.263   1
   2  -3  10 106.136 112.081   0
   2  -3  11 3059.15 195.200   0
   2  -3  12-14.7772 118.275   0
   2  -3  13-53.8861 136.595   0
   2  -3  14 144.274 133.857   0
  -2   2  16-8.59170 118.471   1
  -2   2  15-49.5160 108.546   1
  -2   2  14 613.027 126.173   1
  -2   2  13 1933.95 142.877   1
  -2   2  12 2963.70 154.184   1
  -2   2  11 423.784 96.6348   1
  -2   2  10 1579.41 119.470   1
  -2   2   9 8629.18 206.984   1
  -2   2   8 16532.0 258.136   1
  -2   2   8 16497.2 222.801   6
  -2   2   7 51556.1 428.698   1
  -2   2   7 53764.0 393.113   6
  -2   2   6 454.079 71.0752   1
  -2   2   6 411.364 51.5152   6
   2  -2  -5 2537.56 76.4791   0
  -2   2   5 2509.94 75.5104   5
  -2   2   5 2438.19 96.5288   1
  -2   2   5 2453.41 90.0210   6
  -2   2   4 44260.3 351.256   1
  -2   2   4 43644.1 253.331   2
   2  -2  -4 43769.6 278.420   0
  -2   2   4 45766.8 342.592   6
  -2   2   4 44777.3 292.427   5
  -2   2   3 10259.5 113.677   2
  -2   2   3 11057.5 177.387   1
   2  -2  -3 10801.3 132.268   0
  -2   2   3 10434.2 151.889   3
  -2   2   3 10375.2 142.770   5
  -2   2   2 473.242 27.3830   2
   2  -2  -2 491.503 34.3660   0
  -2   2   2 441.496 51.4324   1
  -2   2   2 502.411 42.7450   5
  -2   2   2 406.792 48.2176   3
   2  -2  -1-4.53001 27.6178   0
  -2   2   1 18.7070 34.5102   5
  -2   2   1 10.5763 32.8435   3
   2  -2   0 39081.1 259.748   0
  -2   2   0 40174.7 297.134   3
   2  -2   1 24702.5 220.843   0
  -2   2  -1 25400.1 243.827   3
   2  -2   2 299.241 40.3083   0
   2  -2   3 27.7586 42.6485   1
   2  -2   3 71.2001 41.0427   0
   2  -2   4 49379.0 403.864   0
   2  -2   4 48735.6 348.188   1
   2  -2   5 73.0548 48.8942   1
   2  -2   5-3.57619 66.1007   0
   2  -2   6 14111.8 259.115   0
   2  -2   6 14437.1 194.449   1
   2  -2   7 541.867 82.8495   0
   2  -2   7 508.990 58.1157   1
   2  -2   8 39.6277 74.4197   0
   2  -2   8 40.7126 49.5015   1
   2  -2   9 2663.76 157.249   0
   2  -2   9 3235.58 116.669   1
   2  -2  10 5820.00 154.879   1
   2  -2  10 5284.16 214.749   0
   2  -2  11 271.229 104.533   0
   2  -2  11 280.099 68.9239   1
   2  -2  12 727.367 84.8953   1
   2  -2  12 446.910 128.401   0
   2  -2  13 1.16949 99.5282   0
   2  -2  14 975.967 166.093   0
  -2   1  16 1690.30 185.680   1
  -2   1  15-87.8660 126.156   1
  -2   1  14-83.5798 97.8499   1
  -2   1  13 3460.31 177.973   1
  -2   1  12-66.7524 86.7040   1
  -2   1  11 1862.73 124.085   1
  -2   1  10 5063.92 168.846   1
  -2   1   9 155.207 76.6250   1
  -2   1   8 6012.81 134.064   6
  -2   1   8 6321.69 163.532   1
  -2   1   7 65.0961 38.8789   6
  -2   1   7 35.9047 61.0735   1
  -2   1   6 9570.89 177.931   1
  -2   1   6 9564.74 119.344   5
  -2   1   6 9510.45 160.157   6
  -2   1   5 87720.0 354.698   5
  -2   1   5 88712.7 463.397   6
  -2   1   4 1555.46 59.3567   2
  -2   1   4 1479.17 51.4101   5
  -2   1   4 1584.18 77.8496   1
  -2   1   4 1664.81 71.0037   6
  -2   1   3 61088.6 303.730   5
   2  -1  -3 59193.7 257.386   0
  -2   1   3 58873.6 382.016   1
  -2   1   3 60488.8 371.771   6
  -2   1   3 58007.6 304.932   2
  -2   1   2 16307.9 151.775   2
   2  -1  -2 16331.6 119.656   0
  -2   1   2 17249.8 202.600   1
  -2   1   2 16789.2 193.961   6
  -2   1   1 6252.47 90.4370   2
  -2   1   1 6179.82 116.790   6
  -2   1   1 6150.66 113.777   3
  -2   1   0 4311.13 101.918   3
   2  -1   0 3844.46 62.3865   0
  -2   1   0 4154.49 96.2802   6
  -2   1   0 3953.91 69.2646   2
   2  -1   1 1891.06 52.4578   0
  -2   1  -1 2003.46 70.7109   3
  -2   1  -1 2008.69 68.6548   6
   2  -1   2 7555.45 116.308   0
  -2   1  -2 7697.05 132.737   3
  -2   1  -2 7742.10 124.150   6
  -2   1  -3 7584.97 121.279   6
  -2   1  -3 7628.90 134.889   3
   2  -1   3 7259.13 131.515   1
   2  -1   3 7561.73 130.267   0
  -2   1  -4 4152.20 108.278   3
   2  -1   4 4399.53 114.862   0
  -2   1  -4 4068.93 90.0585   6
   2  -1   4 4336.81 108.222   1
  -2   1  -5 134387. 605.888   3
  -2   1  -5 134333. 492.877   6
   2  -1   5 135890. 567.643   1
   2  -1   6 1344.11 69.7641   1
  -2   1  -6 1379.59 53.6732   6
   2  -1   7 545.354 59.8695   1
   2  -1   8 5406.15 130.777   1
   2  -1   9 3972.73 123.118   1
   2  -1  10 1697.35 102.264   1
   2  -1  11 3207.98 127.372   1
   2  -1  12 186.551 73.2950   1
   2  -1  13 71.6606 97.3003   0
   2  -1  13 134.612 69.4803   1
   2  -1  14 80.1083 69.8499   1
   2  -1  14-53.4440 97.6610   0
   2  -1  15 851.702 151.783   0
   2  -1  15 979.311 88.4511   1
  -2   0  16 860.241 178.264   1
  -2   0  15-303.911 122.110   1
  -2   0  14-11.4068 104.482   1
  -2   0  13 1818.65 148.882   1
  -2   0  12 77.1487 73.9799   1
  -2   0  11 2301.82 127.584   1
  -2   0  10 15792.1 270.942   1
  -2   0   9 328.800 74.0148   1
  -2   0   8 7494.59 171.263   1
  -2   0   8 5243.08 125.040   6
  -2   0   7 710.507 56.3748   6
  -2   0   7 679.854 70.1850   1
  -2   0   6 60.8750 15.4652   5
  -2   0   6 89.7771 38.8679   6
  -2   0   5 85400.2 463.815   1
  -2   0   5 82266.9 434.972   6
  -2   0   4 8663.15 143.692   6
  -2   0   4 8929.55 143.234   2
  -2   0   4 8584.72 146.930   1
  -2   0   3 18518.2 203.319   6
  -2   0   3 18083.7 203.624   1
  -2   0   3 17923.6 189.385   2
  -2   0   2 75893.2 362.577   2
  -2   0   2 75331.7 395.658   1
  -2   0   2 76327.5 404.181   6
  -2   0   1 33772.1 235.509   2
  -2   0   1 33691.6 263.340   6
  -2   0   0 108333. 454.614   6
  -2   0   0 106400. 407.843   2
  -2   0  -1 20396.5 194.202   6
  -2   0  -1 20572.8 201.499   3
  -2   0  -1 20134.3 172.983   2
  -2   0  -2 2130.79 65.1632   6
  -2   0  -2 1998.40 68.1937   3
   2   0   3 169.775 39.8343   1
  -2   0  -3 186.627 28.0093   6
  -2   0  -3 173.489 34.9329   3
  -2   0  -4 17.1971 29.2777   3
  -2   0  -4 30.0916 23.2922   6
   2   0   4 30.0871 38.7294   1
  -2   0  -5 7210.57 107.469   6
   2   0   5 7426.23 134.345   1
  -2   0  -5 7495.99 136.719   3
  -2   0  -6 5016.65 84.7444   6
   2   0   6 5212.50 118.527   1
  -2   0  -6 5353.76 120.138   3
   2   0   7 10168.9 166.492   1
  -2   0  -7 9465.71 161.661   3
   2   0   8 9190.78 164.248   1
  -2   0  -8 8264.18 157.197   3
   2   0   9 1352.30 84.4782   1
   2   0  10 9512.16 191.161   1
   2   0  11-39.7367 71.0940   1
   2   0  12 130.697 73.2698   1
   2   0  13 262.996 78.0047   1
   2   0  14 377.140 79.8056   1
   2   0  15 35.7622 74.8355   1
   2   0  16-188.419 96.3120   1
  -2  -1  16-198.875 143.176   0
  -2  -1  15 64.1868 119.515   0
  -2  -1  14 353.825 104.418   0
  -2  -1  14 115.482 112.584   1
  -2  -1  13 401.762 112.202   1
  -2  -1  12 641.459 102.373   1
  -2  -1  11 491.173 83.1065   1
  -2  -1  10 1339.32 101.373   1
  -2  -1   9 172.477 68.9414   1
  -2  -1   8 2075.13 100.074   1
  -2  -1   7 4072.37 125.399   1
  -2  -1   6 33126.5 303.109   1
  -2  -1   6 31913.8 285.492   6
  -2  -1   5 27093.4 260.512   1
  -2  -1   5 26398.9 254.524   6
  -2  -1   5 26699.8 281.252   2
  -2  -1   4 33598.3 294.245   2
  -2  -1   4 34399.2 279.597   1
  -2  -1   4 35290.7 287.124   6
  -2  -1   3 26630.1 244.478   6
  -2  -1   3 26538.2 251.422   2
  -2  -1   3 26653.3 235.278   1
  -2  -1   3 26500.6 196.200   0
  -2  -1   2 12919.8 158.800   1
  -2  -1   2 13038.6 109.555   0
  -2  -1   2 13027.7 168.722   6
  -2  -1   2 12795.2 167.336   2
  -2  -1   1 43492.8 292.837   2
  -2  -1   1 44007.0 297.637   6
  -2  -1   0 39893.6 278.308   2
  -2  -1   0 41249.6 281.788   6
  -2  -1  -1 14865.3 164.868   6
  -2  -1  -1 15219.5 169.901   2
  -2  -1  -2 20461.7 190.285   6
  -2  -1  -2 20952.6 195.944   2
   2   1   3 3319.10 84.8738   1
  -2  -1  -3 3159.09 74.3935   6
  -2  -1  -4 49739.0 274.864   6
   2   1   4 50323.0 319.996   1
  -2  -1  -4 48290.3 312.579   3
   2   1   5 97910.6 449.608   1
  -2  -1  -5 96410.0 362.686   6
  -2  -1  -5 95904.7 450.742   3
  -2  -1  -6 751.736 53.1591   3
   2   1   6 618.683 56.0390   1
  -2  -1  -7 37004.4 305.673   3
   2   1   7 37362.2 306.796   1
   2   1   8 108.958 49.2109   1
  -2  -1  -8 89.4967 35.9615   3
   2   1   9 15851.5 227.432   1
   2   1  10 7851.05 174.390   1
   2   1  11-18.3072 83.4107   1
   2   1  12 96.7351 83.4631   1
   2   1  13 1176.27 109.557   1
   2   1  14-37.3819 86.9384   1
   2   1  15 511.310 93.0223   1
   2   1  16 355.515 96.7506   1
  -2  -2  15 17.4953 137.395   0
  -2  -2  14 1325.58 166.463   0
  -2  -2  13-79.0423 101.523   0
  -2  -2  12 1133.73 129.397   0
  -2  -2  11 25.1342 87.4729   0
  -2  -2  11 153.856 70.5474   1
  -2  -2  10 376.458 88.7980   0
  -2  -2  10 451.018 75.3980   1
  -2  -2   9 8031.90 221.443   0
  -2  -2   9 7868.41 183.992   1
  -2  -2   8 6071.02 183.319   0
  -2  -2   8 6005.11 155.009   1
  -2  -2   7 40.0205 65.1528   0
  -2  -2   7 49.6963 59.5434   1
  -2  -2   6 144710. 710.151   0
  -2  -2   6 147852. 628.350   1
  -2  -2   5 58784.5 427.044   0
  -2  -2   5 58441.7 365.557   1
  -2  -2   4 36604.0 340.023   2
  -2  -2   4 36877.8 279.316   1
  -2  -2   4 37442.9 302.625   0
  -2  -2   3 2399.19 92.7592   2
  -2  -2   3 2306.23 75.2901   1
  -2  -2   3 2386.33 75.0094   0
  -2  -2   2 372.169 38.8645   1
  -2  -2   2 418.615 52.4982   2
  -2  -2   2 425.079 35.7824   0
  -2  -2   1 35205.0 209.314   0
  -2  -2   1 35614.7 289.871   2
  -2  -2   0 28702.0 257.706   2
  -2  -2   0 29509.3 188.002   0
  -2  -2  -1 111893. 364.379   0
  -2  -2  -1 115028. 509.462   2
  -2  -2  -2 22581.0 174.052   0
   2   2   2 22417.0 194.387   1
  -2  -2  -2 23002.1 228.952   2
  -2  -2  -3 39182.1 257.300   0
   2   2   3 40324.8 265.827   1
  -2  -2  -3 39605.3 296.652   2
   2   2   4 12388.1 152.760   1
   2   2   5 2897.25 81.1828   1
   2   2   6 1523.47 71.9205   1
   2   2   7 11764.2 173.699   1
   2   2   8 929.317 69.4837   1
   2   2   9 7502.62 159.588   1
   2   2  10 258.535 68.7504   1
   2   2  11 5168.18 159.586   1
   2   2  12 8774.87 207.624   1
   2   2  13 2218.49 133.655   1
   2   2  14 2651.86 139.260   1
   2   2  15 377.681 100.932   1
   2   2  16-307.267 93.9094   1
  -2  -3  15 294.328 131.017   0
  -2  -3  14 1257.78 165.848   0
  -2  -3  13 102.529 115.425   0
  -2  -3  12 1407.97 144.033   0
  -2  -3  11 1288.98 136.925   0
  -2  -3  10 189.384 82.0907   0
  -2  -3   9 7652.02 236.150   0
  -2  -3   8 1808.35 124.924   2
  -2  -3   8 1959.65 126.471   0
  -2  -3   7-31.1898 53.8719   1
  -2  -3   7 73.5917 72.7082   0
  -2  -3   7-8.76797 83.5494   2
  -2  -3   6 5573.08 129.446   1
  -2  -3   6 5269.21 167.085   0
  -2  -3   6 5427.13 175.504   2
  -2  -3   5 28080.9 339.371   2
  -2  -3   5 27535.8 249.233   1
  -2  -3   5 26736.6 323.843   0
  -2  -3   4 186545. 823.196   2
  -2  -3   4 183253. 750.722   0
  -2  -3   4 186520. 596.536   1
  -2  -3   3-29.6905 36.3104   1
  -2  -3   3 27.7779 54.7636   2
  -2  -3   3 64.6036 46.6616   0
  -2  -3   2 4131.70 120.512   2
  -2  -3   2 4339.98 103.766   0
   2   3  -2 4622.27 69.5303   4
  -2  -3   1 10912.8 177.200   2
   2   3  -1 11077.7 118.121   4
  -2  -3   1 10703.3 150.134   0
  -2  -3   0 332.257 45.0951   2
   2   3   0 372.354 33.0927   4
  -2  -3   0 309.022 39.1924   0
   2   3   1 63320.4 291.401   1
  -2  -3  -1 62386.2 409.090   2
  -2  -3  -1 63095.6 350.256   0
  -2  -3  -2 12063.6 157.812   0
  -2  -3  -2 11645.0 180.028   2
   2   3   2 12141.9 134.676   1
  -2  -3  -3 3740.88 94.7819   0
   2   3   3 3853.32 81.2467   1
  -2  -3  -3 3788.05 106.031   2
  -2  -3  -4 252.693 48.0340   2
   2   3   4 354.750 35.6658   1
  -2  -3  -4 288.601 42.2148   0
   2   3   5 2.22137 32.8536   1
  -2  -3  -5 23.4864 42.7565   0
   2   3   6 53655.5 334.547   1
   2   3   7 35963.1 295.944   1
   2   3   8 151.842 49.8714   1
   2   3   9 22590.2 265.752   1
   2   3  10 8187.75 179.425   1
   2   3  10 8427.27 203.044   4
   2   3  11 4965.90 154.708   1
   2   3  11 4381.45 163.868   4
   2   3  12 4533.09 171.078   4
   2   3  12 4788.52 165.997   1
   2   3  13 1071.50 109.087   1
   2   3  14 1652.11 125.331   1
   2   3  15 861.864 115.478   1
   2   3  16-15.2678 100.919   1
  -2  -4  14 194.037 134.799   2
  -2  -4  14 283.133 150.220   0
  -2  -4  13 1367.54 179.068   2
  -2  -4  13 1065.73 162.615   0
  -2  -4  12-140.744 110.134   0
  -2  -4  12-260.867 110.432   2
  -2  -4  11-138.994 107.860   0
  -2  -4  11-44.8340 111.415   2
  -2  -4  10 1156.95 138.646   0
  -2  -4  10 1073.52 132.800   2
  -2  -4   9 802.452 123.372   2
  -2  -4   9 1096.89 127.305   0
  -2  -4   8 474.556 108.817   0
  -2  -4   8 377.415 114.882   2
  -2  -4   7 2565.99 141.039   2
  -2  -4   7 2341.50 138.835   0
  -2  -4   6 2235.83 126.699   0
  -2  -4   6 2507.36 132.073   2
  -2  -4   5 13548.9 247.231   0
  -2  -4   5 14589.3 272.613   2
  -2  -4   4 13979.1 252.234   2
  -2  -4   4 13751.2 237.585   0
  -2  -4   3 14843.1 243.662   2
  -2  -4   3 14916.2 230.767   0
  -2  -4   2 38131.2 364.548   2
  -2  -4   2 37077.7 335.127   0
  -2  -4   1 10978.9 190.995   2
  -2  -4   1 10729.3 179.541   0
  -2  -4   0 495.484 60.9768   2
  -2  -4   0 392.910 51.1289   0
   2   4   0 522.693 38.2159   4
   2   4   0 497.583 30.7588   1
   2   4   1 31880.4 246.290   4
   2   4   1 31082.2 190.239   1
  -2  -4  -1 30516.3 288.845   0
  -2  -4  -1 31344.6 311.492   2
  -2  -4  -2 322.789 49.7244   2
  -2  -4  -2 327.223 51.7432   0
   2   4   2 437.431 31.9269   1
   2   4   2 327.055 44.0828   4
  -2  -4  -3 4474.87 122.749   2
   2   4   3 4618.28 82.2046   1
   2   4   3 4715.95 111.648   4
  -2  -4  -4 2132.75 90.6004   0
   2   4   4 2264.80 89.7472   4
   2   4   4 2228.23 63.7545   1
  -2  -4  -4 2116.27 88.3459   2
  -2  -4  -5 4095.88 121.614   0
   2   4   5 4565.97 94.6653   1
   2   4   5 4061.06 119.484   4
   2   4   6 1671.28 89.2289   4
   2   4   6 1843.40 72.1749   1
  -2  -4  -6 1642.50 89.1697   0
  -2  -4  -7 6202.78 161.598   0
   2   4   7 6647.21 131.093   1
   2   4   7 6495.54 162.124   4
   2   4   8 998.136 72.6444   1
   2   4   8 1008.93 87.7102   4
   2   4   9 430.204 63.9335   1
   2   4   9 422.651 76.0653   4
   2   4  10 1754.32 101.951   1
   2   4  10 1591.77 108.969   4
   2   4  11 18077.5 302.939   4
   2   4  11 20057.4 282.384   1
   2   4  12 181.985 92.6572   1
   2   4  12 68.2185 84.0570   4
   2   4  13 2044.65 125.048   1
   2   4  13 2271.94 141.155   4
   2   4  14-43.9038 81.0655   1
   2   4  15-92.0767 95.1974   1
   2   4  16 37.3700 110.736   1
  -2  -5  13 657.013 146.166   2
  -2  -5  13 529.741 161.469   0
  -2  -5  12 59.3876 126.529   2
  -2  -5  12 63.1693 120.575   0
  -2  -5  11-166.580 104.559   2
  -2  -5  11-32.2362 127.785   0
  -2  -5  10 2450.19 177.703   2
  -2  -5  10 2515.31 178.602   0
  -2  -5   9 36.1411 89.7051   2
  -2  -5   9 128.571 100.362   0
  -2  -5   8 4718.35 209.173   2
  -2  -5   8 4875.45 206.138   0
  -2  -5   7 4929.08 194.011   0
  -2  -5   7 5756.28 215.120   2
  -2  -5   6 30.9715 79.6754   0
  -2  -5   6 8.08035 78.2464   2
  -2  -5   5 268.292 80.1942   0
  -2  -5   5 284.466 84.9760   2
  -2  -5   4 6348.37 186.233   2
  -2  -5   4 5519.76 177.027   0
  -2  -5   3 24608.5 334.463   2
  -2  -5   3 24249.6 325.839   0
  -2  -5   2 1660.58 104.633   2
  -2  -5   2 1369.45 101.499   0
  -2  -5   1 16648.6 252.821   2
  -2  -5   1 16623.9 253.110   0
  -2  -5   0 7211.43 166.216   2
  -2  -5   0 7068.84 166.219   0
   2   5   1 1486.49 37.5510   1
  -2  -5  -1 1422.03 90.7134   0
  -2  -5  -1 1487.45 89.7367   2
  -2  -5  -2 400.555 67.2395   0
  -2  -5  -2 383.598 68.1105   2
   2   5   2 460.731 28.8878   1
   2   5   2 434.417 52.4999   4
   2   5   3 37863.4 315.161   4
   2   5   3 36935.4 215.700   1
  -2  -5  -3 37217.9 350.481   2
  -2  -5  -3 36306.8 359.192   0
  -2  -5  -4 3817.84 131.784   0
   2   5   4 4161.61 84.8132   1
   2   5   4 4154.50 116.868   4
  -2  -5  -4 3823.15 124.713   2
  -2  -5  -5 2403.97 111.318   0
   2   5   5 2249.88 69.7974   1
   2   5   5 2377.05 98.3884   4
  -2  -5  -6 4805.12 150.305   0
   2   5   6 4943.79 139.026   4
   2   5   6 5123.32 108.204   1
  -2  -5  -7 1419.97 98.7714   0
   2   5   7 1215.87 67.8238   1
   2   5   7 1281.87 87.9409   4
  -2  -5  -8 4346.93 156.965   0
   2   5   8 4581.97 121.563   1
   2   5   8 4163.78 142.295   4
   2   5   9 187.356 59.4488   1
   2   5   9 156.841 68.1959   4
   2   5  10 4906.46 142.938   1
   2   5  10 4402.08 160.987   4
   2   5  11 17793.1 267.194   1
   2   5  11 16528.5 293.864   4
   2   5  12 15310.5 262.583   1
   2   5  12 13952.6 280.171   4
   2   5  13 6213.76 203.396   4
   2   5  13 7338.00 200.249   1
   2   5  14 789.930 101.009   1
   2   5  15-276.076 88.5402   1
   2   5  16 120.521 93.7303   1
  -2  -6  12-174.715 127.085   2
  -2  -6  12-14.5759 145.844   0
  -2  -6  11 820.251 143.087   2
  -2  -6  11 763.995 154.055   0
  -2  -6  10 1558.21 159.291   2
  -2  -6  10 1147.39 150.260   0
  -2  -6   9 1247.01 145.249   2
  -2  -6   9 1216.55 149.471   0
  -2  -6   8 812.615 121.409   2
  -2  -6   8 758.253 140.873   0
  -2  -6   7 16.3498 102.980   2
  -2  -6   7 13.3616 105.449   0
  -2  -6   6 197.459 100.901   2
  -2  -6   6 113.447 91.2967   0
  -2  -6   5 3335.54 166.368   2
  -2  -6   5 2786.77 158.727   0
  -2  -6   4 2002.53 131.695   2
  -2  -6   4 1699.20 130.604   0
  -2  -6   3 249.279 72.8349   2
  -2  -6   3 161.643 78.9265   0
  -2  -6   2 6586.37 183.944   2
  -2  -6   2 6575.20 190.596   0
  -2  -6   1 4490.99 158.536   0
  -2  -6   1 4746.54 154.610   2
  -2  -6   0 5289.08 157.204   2
  -2  -6   0 4901.30 163.037   0
  -2  -6  -1 10850.5 226.112   0
  -2  -6  -1 10637.0 212.964   2
  -2  -6  -2-22.9825 69.3725   2
  -2  -6  -2-28.5750 73.0724   0
   2   6   3 22573.9 163.733   1
  -2  -6  -3 23190.5 324.525   0
  -2  -6  -3 23843.0 298.183   2
   2   6   4 7663.98 109.729   1
  -2  -6  -4 7779.30 180.132   2
  -2  -6  -4 7634.63 199.582   0
  -2  -6  -5 24558.1 336.761   0
   2   6   5 23694.2 286.628   4
   2   6   5 23508.7 205.279   1
  -2  -6  -5 25143.9 307.596   2
   2   6   6 33.5390 40.5723   1
   2   6   6 42.0873 60.0028   4
  -2  -6  -6 38.7634 70.1934   0
   2   6   7 443.660 55.5730   1
  -2  -6  -7 400.560 81.7150   0
   2   6   7 466.050 79.9488   4
   2   6   8 16033.1 213.538   1
  -2  -6  -8 15840.8 296.201   0
   2   6   8 15353.9 264.920   4
  -2  -6  -9 11281.2 269.971   0
   2   6   9 11594.7 242.487   4
   2   6   9 11803.4 196.870   1
   2   6  10 1819.63 103.229   1
  -2  -6 -10 1944.53 143.101   0
   2   6  10 1853.34 125.578   4
   2   6  11 4941.17 153.790   1
   2   6  11 4553.08 172.307   4
   2   6  12 193.782 79.7959   1
   2   6  12 115.105 85.1288   4
   2   6  13 4949.19 170.428   1
   2   6  13 4577.03 188.758   4
   2   6  14 198.206 97.0779   1
   2   6  14 159.211 90.6490   4
   2   6  15 568.490 119.560   1
   2   6  16 140.650 93.8350   1
  -2  -7  11 273.433 162.323   0
  -2  -7  11 230.734 131.270   2
  -2  -7  10 477.833 151.651   2
  -2  -7  10 714.517 170.121   0
  -2  -7   9 1055.76 139.822   2
  -2  -7   9 1159.43 169.913   0
  -2  -7   8 157.303 106.630   2
  -2  -7   8-180.107 113.793   0
  -2  -7   7 248.823 104.798   2
  -2  -7   7 189.546 135.787   0
  -2  -7   6 1844.73 154.641   2
  -2  -7   6 1454.52 153.280   0
  -2  -7   5 155.644 101.455   0
  -2  -7   5 104.333 97.1692   2
  -2  -7   4 2214.47 138.180   2
  -2  -7   4 1877.27 143.311   0
  -2  -7   3 49.3255 95.8613   0
  -2  -7   3-41.0351 72.6126   2
  -2  -7   2 899.445 97.4880   2
  -2  -7   2 1100.94 113.642   0
  -2  -7   1 455.162 77.0494   2
  -2  -7   1 459.089 94.1252   0
  -2  -7   0 3597.80 142.378   2
  -2  -7   0 3447.02 158.302   0
  -2  -7  -1 8360.00 225.076   0
  -2  -7  -1 8928.80 209.550   2
  -2  -7  -2 97.7751 67.5512   2
  -2  -7  -2 145.211 86.8924   0
  -2  -7  -3 8177.94 220.951   0
  -2  -7  -3 7823.09 188.908   2
  -2  -7  -4 18631.0 279.145   2
  -2  -7  -4 18038.9 317.957   0
  -2  -7  -5 1616.91 123.939   0
  -2  -7  -5 1702.37 104.049   2
  -2  -7  -6 1258.14 115.515   0
   2   7   6 1366.67 65.1988   1
   2   7   7 2068.14 84.1803   1
  -2  -7  -7 2141.98 145.965   0
  -2  -7  -8 12498.6 292.617   0
   2   7   8 12952.3 194.928   1
   2   7   9 5140.95 139.201   1
  -2  -7  -9 5023.12 201.724   0
  -2  -7 -10 4509.86 199.696   0
   2   7  10 4455.39 139.278   1
  -2  -7 -11-37.4078 103.673   0
   2   7  11-31.5579 68.8282   1
   2   7  12 631.788 90.1273   1
   2   7  13 749.064 97.6053   1
   2   7  14 202.991 95.5795   1
   2   7  15 1994.28 137.077   1
   2   7  16 1852.39 149.546   1
  -2  -8  11 262.794 169.819   2
  -2  -8  10 214.571 183.639   2
  -2  -8  10 26.0446 135.526   0
  -2  -8   9 101.701 161.363   2
  -2  -8   9 139.533 117.162   0
  -2  -8   8 139.275 130.078   2
  -2  -8   8 21.6082 134.338   0
  -2  -8   7 33.8703 123.033   2
  -2  -8   7-1.24448 111.810   0
  -2  -8   6 1549.59 154.806   2
  -2  -8   6 1242.16 149.594   0
  -2  -8   5 467.012 125.793   0
  -2  -8   5 448.003 113.593   2
  -2  -8   4 1698.47 142.639   2
  -2  -8   4 1511.93 158.807   0
  -2  -8   3 319.133 110.051   0
  -2  -8   3 298.384 87.3123   2
  -2  -8   2 1683.85 124.636   2
  -2  -8   2 1779.02 150.694   0
  -2  -8   1 3039.47 142.521   2
  -2  -8   1 3264.79 172.217   0
  -2  -8   0 374.061 82.1890   2
  -2  -8   0 226.572 105.739   0
  -2  -8  -1 282.749 105.391   0
  -2  -8  -1 587.208 86.7852   2
  -2  -8  -2 47.5779 66.8729   2
  -2  -8  -2 39.3039 87.8915   0
  -2  -8  -3 1064.23 127.712   0
  -2  -8  -3 1258.75 99.5078   2
  -2  -8  -4 9183.16 254.601   0
  -2  -8  -4 9409.34 214.385   2
  -2  -8  -5 6397.05 180.759   2
  -2  -8  -5 5943.21 212.558   0
  -2  -8  -6 1161.68 124.455   0
  -2  -8  -7 2841.70 169.978   0
  -2  -8  -8 1520.65 151.450   0
  -2  -8  -9 2576.76 171.782   0
   2   8   9 2734.02 114.524   1
   2   8  10 355.217 70.4156   1
  -2  -8 -10 370.796 115.008   0
  -2  -8 -11 239.558 112.856   0
   2   8  11 52.7538 61.2592   1
  -2  -8 -12 968.250 128.093   0
   2   8  12 955.176 98.7783   1
   2   8  13 3006.18 149.112   1
   2   8  14 602.587 98.2305   1
   2   8  15 146.827 97.5235   1
  -2  -9   9-133.587 170.875   0
  -2  -9   8 296.981 154.627   0
  -2  -9   7 352.835 146.397   0
  -2  -9   6 508.418 147.301   0
  -2  -9   5 635.047 155.378   0
  -2  -9   4 289.807 127.507   0
  -2  -9   3 97.7106 109.646   0
  -2  -9   2 878.852 141.579   0
  -2  -9   1 1197.76 137.508   0
  -2  -9   0 545.599 116.543   0
  -2  -9  -1 345.288 109.577   0
  -2  -9  -2-7.94009 103.393   0
  -2  -9  -3 211.633 96.8480   0
  -2  -9  -4 3481.48 177.180   0
  -2  -9  -5 0.43010 90.5593   0
  -2  -9  -6 131.595 93.7452   0
  -2  -9  -7 895.005 119.032   0
  -2  -9  -8 3434.21 194.162   0
  -2  -9  -9 929.361 137.241   0
  -2  -9 -10 117.938 108.850   0
  -2  -9 -11 341.171 118.871   0
   2   9  12 258.687 78.9761   1
  -2  -9 -12 376.970 136.646   0
   2   9  13 4.08154 98.6609   1
  -2  -9 -13-12.5398 143.444   0
   2   9  14-46.1791 101.696   1
   2   9  15 1275.44 140.603   1
  -2 -10   7 153.508 152.532   0
  -2 -10   6 191.195 142.745   0
  -2 -10   5 404.227 142.637   0
  -2 -10   4 235.239 155.846   0
  -2 -10   3 146.410 119.654   0
  -2 -10   2 2184.14 188.289   0
  -2 -10   1 2575.48 204.379   0
  -2 -10   0 1796.12 170.444   0
  -2 -10  -1 197.955 119.535   0
  -2 -10  -2-70.2469 104.273   0
  -2 -10  -3 539.435 122.840   0
  -2 -10  -4 2457.38 174.630   0
  -2 -10  -5 780.690 127.591   0
  -2 -10  -6 756.319 128.924   0
  -2 -10  -7 7838.00 277.185   0
  -2 -10  -8 4249.59 215.564   0
  -2 -10  -9 188.884 111.932   0
  -2 -10 -10 179.919 118.248   0
  -2 -10 -11 895.961 141.478   0
  -2 -10 -12 1204.67 185.841   0
  -2 -10 -13 608.011 164.775   0
  -2 -11   5 738.002 196.857   0
  -2 -11   4-69.8294 185.797   0
  -2 -11   3 103.019 148.513   0
  -2 -11   2 391.298 172.993   0
  -2 -11   1 778.081 180.644   0
  -2 -11   0 1619.78 184.941   0
  -2 -11  -1-121.219 138.114   0
  -2 -11  -2 102.387 115.783   0
  -2 -11  -3 375.036 122.975   0
  -2 -11  -4 1012.24 149.318   0
  -2 -11  -5 285.941 122.936   0
  -2 -11  -6 70.4210 101.599   0
  -2 -11  -7 131.969 110.852   0
  -2 -11  -8 263.776 127.117   0
  -2 -11  -9-13.3679 117.063   0
  -2 -11 -10 984.328 175.866   0
  -2 -11 -11 1154.66 177.673   0
  -2 -11 -12 1559.75 208.515   0
  -2 -12   2 349.899 177.878   0
  -2 -12   1 857.561 169.163   0
  -2 -12   0-5.05400 145.048   0
  -2 -12  -1-25.0090 125.221   0
  -2 -12  -2 7.36782 124.736   0
  -2 -12  -3 467.445 133.960   0
  -2 -12  -4 229.055 123.813   0
  -2 -12  -5 132.538 106.302   0
  -2 -12  -6 298.047 128.047   0
  -2 -12  -7 2860.53 211.651   0
  -2 -12  -8 2150.33 201.207   0
  -2 -12  -9 101.598 161.860   0
  -3  11   2 359.724 85.1079   3
  -3  10   9 1802.49 142.833   5
  -3  10   8 592.022 104.239   5
  -3  10   7-21.2993 96.0909   5
  -3  10   6 22.7465 94.8935   5
  -3  10   5 67.2618 85.7298   5
  -3  10   4 872.206 110.832   5
  -3  10   3 407.833 106.679   5
  -3  10   3 670.220 93.3790   3
  -3  10   2 298.992 92.5242   3
  -3  10   2 120.394 93.4672   5
  -3  10   1 548.554 127.509   5
  -3  10   1 626.597 111.380   3
  -3  10   0 459.163 107.504   5
  -3   9  12 1281.76 141.969   1
  -3   9  11 160.550 100.356   5
  -3   9  10 33.0514 79.6621   5
  -3   9   9 697.655 105.836   5
  -3   9   8 1269.23 127.645   5
  -3   9   7 178.051 83.5722   5
  -3   9   6 377.183 94.2333   5
  -3   9   5 1363.02 115.899   5
  -3   9   4 1096.76 118.999   5
  -3   9   3 1115.70 125.686   5
  -3   9   3 1473.82 114.564   3
  -3   9   2 454.475 102.936   5
  -3   9   2 808.887 110.187   3
  -3   9   1 230.806 105.725   5
  -3   9   0 964.415 120.034   5
   3  -9   1 244.349 135.927   0
   3  -9   2 591.763 143.892   0
   3  -9   3 588.788 144.115   0
   3  -9   4 194.153 120.283   0
   3  -9   5 712.217 166.090   0
  -3   8  13 53.4538 117.929   1
  -3   8  12 392.069 113.804   1
  -3   8  11 127.482 119.524   1
  -3   8  10 108.926 69.4065   5
  -3   8  10 479.999 123.877   1
  -3   8   9 394.844 86.0060   5
  -3   8   9 259.268 97.9636   1
  -3   8   8 671.530 106.970   1
  -3   8   8 540.178 96.9793   5
  -3   8   7 167.640 79.8080   5
  -3   8   6 410.179 85.3864   5
  -3   8   5 668.755 92.8250   5
  -3   8   4 1459.11 109.115   3
  -3   8   4 1310.81 114.005   5
  -3   8   3 340.722 85.4619   5
  -3   8   3 545.520 80.0970   3
  -3   8   2-18.3483 79.7378   5
  -3   8   2 144.490 65.2033   3
  -3   8   1 785.345 101.584   3
   3  -8  -1 651.809 119.797   0
  -3   8   1 646.742 114.947   5
   3  -8   0 153.237 107.609   0
  -3   8   0 323.286 103.083   5
   3  -8   1 356.637 114.882   0
   3  -8   2 655.736 132.182   0
   3  -8   3 229.745 125.008   0
   3  -8   4 429.634 121.229   0
   3  -8   5 208.304 125.983   0
   3  -8   6 12.2952 128.604   0
   3  -8   7 126.870 147.167   0
  -3   7  13 609.874 115.181   1
  -3   7  12 976.129 128.776   1
  -3   7  11 669.641 125.871   1
  -3   7  10 120.731 71.1082   5
  -3   7  10 374.918 113.161   1
  -3   7   9 3453.13 178.431   1
  -3   7   9 2830.23 139.212   5
  -3   7   8 5218.20 203.608   1
  -3   7   8 5094.58 174.029   5
  -3   7   7 70.4687 74.7651   5
  -3   7   7-66.6902 90.8332   1
  -3   7   6 195.988 78.0650   1
  -3   7   6 195.453 81.8966   5
  -3   7   5 334.117 83.4104   5
  -3   7   4-40.9662 65.9226   5
  -3   7   4 43.1046 66.2543   3
  -3   7   3 174.276 77.7786   3
  -3   7   3 22.8216 74.6251   5
  -3   7   2 1505.61 116.478   5
   3  -7  -2 1554.69 131.069   0
  -3   7   2 1561.53 107.711   3
  -3   7   1 2663.42 147.087   5
   3  -7  -1 2464.58 152.058   0
  -3   7   1 2577.14 134.138   3
   3  -7   0 4627.05 195.537   0
  -3   7   0 4669.38 180.868   5
   3  -7   1 1480.00 136.302   0
   3  -7   2 622.302 123.656   0
   3  -7   3 1768.00 149.756   0
   3  -7   4 55.0769 100.669   0
   3  -7   5-3.80332 109.457   0
   3  -7   6 439.191 120.233   0
   3  -7   7 107.563 111.817   0
   3  -7   8 342.108 128.360   0
   3  -7   9 114.464 131.958   0
  -3   6  14 525.605 117.097   1
  -3   6  13 155.641 115.171   1
  -3   6  12 334.383 112.636   1
  -3   6  11-35.7377 87.6548   1
  -3   6  10 636.445 98.4947   6
  -3   6  10 655.384 120.558   1
  -3   6   9 2291.56 152.015   1
  -3   6   9 2086.86 117.920   5
  -3   6   8 2043.06 141.262   1
  -3   6   8 1893.56 115.841   5
  -3   6   7 1997.55 137.366   1
  -3   6   7 1786.05 115.535   5
  -3   6   6 5699.73 196.826   1
  -3   6   6 5580.27 170.779   5
  -3   6   5 2606.86 145.139   1
  -3   6   5 2325.59 121.823   5
  -3   6   5 2117.57 107.520   3
  -3   6   4 234.547 63.4442   3
  -3   6   4 69.2936 68.5213   5
  -3   6   3 1234.24 103.161   5
   3  -6  -3 1342.96 100.670   0
  -3   6   3 1477.51 101.328   3
   3  -6  -2 5917.38 189.762   0
  -3   6   2 5213.56 174.378   5
  -3   6   2 5827.51 175.133   3
   3  -6  -1 4950.56 183.508   0
  -3   6   1 5695.70 194.109   5
  -3   6   1 5377.35 171.413   3
   3  -6   0 4269.63 169.891   0
  -3   6   0 4683.53 176.153   5
  -3   6   0 4670.14 163.779   3
   3  -6   1 21.2265 77.1431   0
   3  -6   2 706.871 99.4458   0
   3  -6   3 949.158 116.371   0
   3  -6   4 1028.21 121.039   0
   3  -6   5 687.384 124.695   0
   3  -6   6 3088.35 182.957   0
   3  -6   7 505.162 111.099   0
   3  -6   8 700.103 144.481   0
   3  -6   9-17.0739 106.123   0
   3  -6  10 178.050 115.235   0
  -3   5  14 534.912 116.117   1
  -3   5  13 13.0683 106.558   1
  -3   5  12-65.5661 109.900   1
  -3   5  11 605.957 123.155   1
  -3   5  10 63.3867 63.2761   6
  -3   5  10 286.078 102.749   1
  -3   5   9 10749.0 241.581   6
  -3   5   9 10171.3 258.784   1
  -3   5   8 7381.96 223.092   1
  -3   5   8 7607.60 205.850   6
  -3   5   8 7126.12 180.309   5
  -3   5   7 650.227 81.6203   5
  -3   5   7 492.881 111.006   1
  -3   5   6 19579.7 326.324   1
  -3   5   6 19004.8 277.003   5
  -3   5   5 8786.01 189.503   5
  -3   5   5 8896.05 196.839   3
  -3   5   4 2666.90 136.893   1
  -3   5   4 2923.65 121.946   3
  -3   5   4 2537.03 113.534   5
   3  -5  -4 2787.49 118.032   0
  -3   5   3-42.6611 67.6221   5
   3  -5  -3 2.04933 51.6842   0
   3  -5  -2 2095.06 115.503   0
  -3   5   2 2225.00 110.805   3
  -3   5   2 2160.20 124.207   5
   3  -5  -1 17155.6 283.451   0
  -3   5   1 17079.8 274.561   3
   3  -5   0 3856.85 147.782   0
  -3   5   0 4358.06 162.005   5
  -3   5   0 4160.56 146.424   3
   3  -5   1 4905.38 167.021   0
  -3   5  -1 4944.27 165.111   3
   3  -5   2 50.2209 68.6990   0
   3  -5   3 1957.52 127.076   0
   3  -5   4 1714.76 126.290   0
   3  -5   5 1018.65 121.588   0
   3  -5   6 2725.39 169.258   0
   3  -5   7 1297.31 145.754   0
   3  -5   8 219.457 100.955   0
   3  -5   9-45.8153 115.011   0
   3  -5  10 149.500 124.963   0
   3  -5  11-151.174 120.758   0
  -3   5 -11 220.561 69.7461   3
  -3   4  15-14.0822 114.756   1
  -3   4  14 724.899 135.623   1
  -3   4  13 120.709 99.1707   1
  -3   4  12 367.543 119.069   1
  -3   4  11 980.007 130.370   1
  -3   4  10 7271.81 227.758   1
  -3   4   9 2533.44 127.499   6
  -3   4   9 2588.96 152.594   1
  -3   4   8 1092.55 118.932   1
  -3   4   8 1295.61 97.0030   6
  -3   4   7 5236.91 165.685   6
  -3   4   7 4895.43 176.889   1
  -3   4   7 5084.89 139.961   5
  -3   4   6 2369.43 139.489   1
  -3   4   6 2869.52 128.587   6
  -3   4   6 2504.96 106.191   5
  -3   4   5 1675.38 121.029   1
  -3   4   5 1723.18 89.6359   5
  -3   4   5 1797.48 92.2300   3
   3  -4  -4 682.639 52.5616   0
  -3   4   4 624.862 65.6191   3
  -3   4   4 599.116 66.9861   5
  -3   4   4 534.078 78.7961   1
  -3   4   3 2301.81 104.416   5
  -3   4   3 2407.68 108.018   3
   3  -4  -3 2280.41 88.9796   0
  -3   4   2 665.472 77.3095   5
   3  -4  -2 554.168 66.8383   0
  -3   4   2 619.296 69.3526   3
  -3   4   1 10398.2 205.649   3
  -3   4   1 10579.4 213.054   5
   3  -4  -1 9942.99 192.775   0
   3  -4   0 5409.27 147.274   0
  -3   4   0 5433.92 156.849   3
   3  -4   1 1006.16 75.9044   0
  -3   4  -1 1051.09 85.1727   3
  -3   4  -2 5.33642 61.5277   3
   3  -4   2 12.9277 58.6538   0
   3  -4   3-59.0046 60.0715   0
  -3   4  -3 34.7436 65.5952   3
   3  -4   4 9094.45 226.755   0
   3  -4   4 9551.35 202.527   1
   3  -4   5 515.314 76.4565   1
   3  -4   5 600.046 97.9534   0
   3  -4   6 6268.25 210.289   0
   3  -4   6 4969.64 147.359   1
   3  -4   7 3675.60 182.514   0
   3  -4   8 3231.65 186.191   0
   3  -4   9 4571.21 223.126   0
  -3   4  -9 4423.38 171.794   3
   3  -4  10 329.353 115.302   0
  -3   4 -10 560.318 74.8519   3
   3  -4  11 117.456 121.408   0
   3  -4  12 57.1369 139.206   0
  -3   3  15 276.235 129.150   1
  -3   3  14 207.099 109.970   1
  -3   3  13 145.976 119.687   1
  -3   3  12 107.274 96.8324   1
  -3   3  11 1520.51 136.777   1
  -3   3  10 455.375 109.397   1
  -3   3   9 745.981 79.4629   6
  -3   3   9 682.183 99.5103   1
  -3   3   8 2309.68 137.835   1
  -3   3   8 2299.39 117.651   6
  -3   3   7 2091.25 127.591   1
  -3   3   7 2052.71 108.007   6
  -3   3   7 1991.74 89.9025   5
  -3   3   6 12783.2 255.927   1
  -3   3   6 13010.3 237.696   6
   3  -3  -5 28968.6 268.440   0
  -3   3   5 29753.4 368.172   1
  -3   3   5 28362.9 289.971   5
  -3   3   5 29353.4 345.867   6
   3  -3  -4 8513.55 145.380   0
  -3   3   4 8555.74 202.695   1
  -3   3   4 9135.71 194.791   6
  -3   3   4 8440.53 167.434   5
  -3   3   3 766.453 87.5370   1
  -3   3   3 837.244 75.1285   5
  -3   3   3 880.580 73.7082   3
   3  -3  -3 815.592 51.2385   0
  -3   3   2 1122.97 83.9714   5
  -3   3   2 1100.06 79.7184   3
   3  -3  -2 955.667 57.0103   0
   3  -3  -1 4775.08 117.252   0
  -3   3   1 4745.35 140.652   3
  -3   3   0 1335.69 87.1859   3
   3  -3   0 1419.76 73.3592   0
   3  -3   1 851.218 59.9319   0
  -3   3  -1 846.669 73.9514   3
   3  -3   2 293.572 53.0539   0
  -3   3  -2 313.571 58.8710   3
   3  -3   3 2831.50 115.583   0
  -3   3  -3 2629.98 116.859   3
   3  -3   4 218.745 62.2552   1
   3  -3   4 283.732 69.6711   0
  -3   3  -4 254.394 69.5399   3
   3  -3   5 5381.89 175.302   0
   3  -3   5 5935.81 158.605   1
   3  -3   6 68.5818 60.7990   1
   3  -3   6 14.0165 76.7710   0
  -3   3  -6-43.1102 71.1109   3
   3  -3   7 4409.50 187.325   0
  -3   3  -7 4070.99 154.946   3
   3  -3   8 3815.13 191.233   0
   3  -3   8 3637.81 134.461   1
  -3   3  -8 3428.63 145.031   3
   3  -3   9 324.989 77.5191   1
   3  -3   9 254.068 116.181   0
  -3   3  -9 541.938 86.4590   3
   3  -3  10 1631.50 160.210   0
  -3   3 -10 1683.50 110.451   3
   3  -3  11 923.183 134.369   0
   3  -3  12 293.564 115.556   0
   3  -3  13 11.4994 118.466   0
  -3   2  15 655.202 146.495   1
  -3   2  14-120.897 116.008   1
  -3   2  13 171.208 107.211   1
  -3   2  12 2083.86 146.076   1
  -3   2  11 15.2164 87.8015   1
  -3   2  10 11756.4 269.900   1
  -3   2   9 957.057 78.4064   6
  -3   2   9 1356.52 119.501   1
  -3   2   8-51.8026 85.1809   1
  -3   2   8 13.6076 56.6187   6
  -3   2   8-17.6394 53.0538   2
  -3   2   7 92.9028 41.8139   2
  -3   2   7-12.6896 54.3393   6
  -3   2   7 4.13541 31.3143   5
  -3   2   7 41.3719 74.4966   1
  -3   2   6 770.820 56.9713   2
  -3   2   6 810.044 77.0085   6
  -3   2   6 739.501 58.9685   5
  -3   2   6 626.048 90.3848   1
  -3   2   5 9391.18 155.729   2
  -3   2   5 10229.3 221.069   1
  -3   2   5 9858.83 199.748   6
  -3   2   5 10432.8 173.769   5
  -3   2   4 23776.5 232.277   2
   3  -2  -4 23357.4 198.100   0
  -3   2   4 25087.4 316.986   1
  -3   2   4 24771.1 306.274   6
  -3   2   3 11206.3 150.994   2
   3  -2  -3 10999.3 133.861   0
  -3   2   3 11389.4 218.482   1
  -3   2   3 11693.7 209.983   6
  -3   2   2 4104.74 123.220   3
  -3   2   2 4189.87 127.460   6
   3  -2  -2 3844.20 80.2958   0
  -3   2   2 4191.49 92.2097   2
  -3   2   1 22684.5 280.694   6
   3  -2  -1 22185.4 198.202   0
  -3   2   1 22104.7 274.637   3
  -3   2   1 21646.6 178.317   2
  -3   2   0 438.940 56.9000   6
   3  -2   0 412.028 42.3793   0
  -3   2   0 428.996 62.4725   3
  -3   2  -1 20203.7 263.069   6
  -3   2  -1 20158.7 274.163   3
  -3   2  -2 13192.1 224.432   3
   3  -2   2 12767.0 183.692   0
  -3   2  -2 12471.7 204.158   6
   3  -2   3 641.823 60.2977   0
  -3   2  -3 551.936 57.0218   6
  -3   2  -3 673.682 69.2438   3
   3  -2   4 7135.55 165.887   0
  -3   2  -4 6897.66 151.726   6
   3  -2   4 6843.37 164.841   1
  -3   2  -4 6841.97 170.328   3
   3  -2   5 45.1973 56.4654   1
   3  -2   5 95.6680 59.5742   0
  -3   2  -5 122.618 46.9195   6
  -3   2  -5 74.3585 61.9354   3
   3  -2   6 10079.6 226.684   0
   3  -2   6 10337.0 198.569   1
   3  -2   7 271.361 67.2406   1
   3  -2   7 318.748 81.0850   0
  -3   2  -7 315.042 72.5105   3
   3  -2   8 14350.2 304.161   0
   3  -2   8 14063.7 231.492   1
   3  -2   9 4875.11 200.712   0
   3  -2   9 4890.68 150.707   1
  -3   2  -9 4311.28 157.672   3
   3  -2  10 1202.08 136.584   0
   3  -2  10 1226.00 100.441   1
  -3   2 -10 1220.03 100.920   3
   3  -2  11 447.299 82.3697   1
   3  -2  11 250.707 115.042   0
   3  -2  12 2495.04 181.437   0
   3  -2  12 3040.79 135.561   1
   3  -2  13 879.580 151.867   0
   3  -2  14 270.257 123.866   0
  -3   1  16-379.764 142.731   1
  -3   1  15 1500.68 163.028   1
  -3   1  14 326.600 116.155   1
  -3   1  13-44.4062 91.1818   1
  -3   1  12 1088.09 133.595   1
  -3   1  11 1622.71 123.243   1
  -3   1  10 11253.3 256.667   1
  -3   1   9-1.37987 60.8142   2
  -3   1   9 15.0209 81.1776   1
  -3   1   8 1756.54 96.5297   2
  -3   1   8 1527.64 111.300   1
  -3   1   8 1631.45 92.6322   6
  -3   1   7 12098.9 214.007   2
  -3   1   7 11681.0 238.500   1
  -3   1   7 12422.1 222.384   6
  -3   1   6 1944.17 88.3800   2
  -3   1   6 1966.18 110.909   1
  -3   1   6 1909.09 97.8631   6
  -3   1   6 1517.77 67.0010   5
  -3   1   5 9378.34 168.144   2
  -3   1   5 9891.70 205.777   1
  -3   1   5 9465.07 191.773   6
  -3   1   4 1919.96 79.0643   2
  -3   1   4 1994.26 108.099   1
  -3   1   4 1752.71 91.0361   6
  -3   1   3 9010.13 150.666   2
  -3   1   3 9324.74 190.332   1
  -3   1   3 9553.15 185.430   6
  -3   1   2 17893.7 198.974   2
  -3   1   2 18296.3 252.690   6
  -3   1   1 159.497 39.2586   2
  -3   1   1 217.037 51.0389   6
  -3   1   0 26002.7 292.562   6
   3  -1   0 24176.4 167.315   0
  -3   1   0 25046.2 281.918   3
  -3   1   0 24375.3 214.643   2
  -3   1  -1 36482.1 341.811   6
   3  -1   1 34272.5 226.860   0
  -3   1  -1 35908.0 341.885   3
  -3   1  -1 34836.4 245.596   2
   3  -1   2 2294.89 72.6748   0
  -3   1  -2 2622.69 97.2793   6
  -3   1  -2 2760.41 108.377   3
   3  -1   3 27067.4 257.161   0
  -3   1  -3 27245.5 291.375   6
  -3   1  -3 28103.4 318.948   3
   3  -1   4 77.4271 56.8154   1
   3  -1   4 106.137 40.0978   0
  -3   1  -4 79.6101 40.9824   6
  -3   1  -4 48.8745 47.9185   3
   3  -1   5 0.20628 52.4837   1
   3  -1   5-30.4519 50.8718   0
  -3   1  -5-43.8705 34.7253   6
  -3   1  -5 27.7053 50.3521   3
   3  -1   6 1023.23 83.9256   0
  -3   1  -6 1063.46 83.8536   3
   3  -1   6 1173.93 85.6543   1
   3  -1   7 16478.6 284.321   0
   3  -1   7 16174.5 241.512   1
  -3   1  -7 16207.6 264.821   3
   3  -1   8 4818.17 173.571   0
  -3   1  -8 4190.18 145.669   3
   3  -1   8 4598.77 141.570   1
   3  -1   9 4161.88 181.302   0
   3  -1   9 4092.64 139.305   1
  -3   1  -9 3582.75 140.782   3
   3  -1  10 3856.12 186.070   0
   3  -1  10 4566.77 151.749   1
   3  -1  11 3851.91 196.943   0
   3  -1  11 4532.17 158.652   1
   3  -1  12 456.210 92.2611   1
   3  -1  12 238.757 104.585   0
   3  -1  13 110.014 68.6165   1
   3  -1  13 41.6099 117.802   0
   3  -1  14 241.123 87.4547   1
   3  -1  14-407.240 125.722   0
   3  -1  15 185.762 80.9724   1
  -3   0  16-54.8574 141.483   1
  -3   0  15 0.56679 101.869   2
  -3   0  15 248.521 120.269   1
  -3   0  14 1095.58 140.698   1
  -3   0  13 773.302 111.599   1
  -3   0  12 103.410 92.1644   1
  -3   0  11 725.039 105.981   1
  -3   0  10 16.1371 67.4815   2
  -3   0  10 26.2547 80.0065   1
  -3   0   9 3323.71 145.792   2
  -3   0   9 2965.35 140.196   1
  -3   0   8 5391.18 165.976   2
  -3   0   8 5538.66 173.755   1
  -3   0   8 5602.14 155.083   6
  -3   0   7-10.4146 48.6822   6
  -3   0   7-22.0212 48.6706   2
  -3   0   7 14.9273 66.5901   1
  -3   0   6 7560.84 172.722   2
  -3   0   6 7568.94 181.455   1
  -3   0   6 7204.34 166.389   6
  -3   0   5 29990.9 316.095   2
  -3   0   5 28568.5 313.652   6
  -3   0   5 30017.1 336.349   1
  -3   0   4 650.334 63.6821   2
  -3   0   4 620.409 77.3734   1
  -3   0   4 687.169 69.5715   6
  -3   0   3 793.051 60.6729   2
  -3   0   3 590.116 69.0146   1
  -3   0   3 671.029 69.4712   6
  -3   0   2 6990.07 138.934   2
  -3   0   2 6939.65 153.271   6
  -3   0   1 2558.36 85.9954   2
  -3   0   1 2471.57 97.4076   6
  -3   0   0 529.463 59.3467   6
  -3   0   0 570.777 51.7211   2
   3   0   1 4010.63 62.8094   0
  -3   0  -1 4338.63 121.541   6
  -3   0  -1 4182.99 102.400   2
   3   0   2 81649.8 340.574   0
  -3   0  -2 80340.7 481.666   6
  -3   0  -2 81071.3 418.151   2
  -3   0  -3 3945.82 110.582   6
  -3   0  -3 3980.97 119.880   3
  -3   0  -4 1646.91 75.8708   6
   3   0   4 1455.98 83.6160   1
  -3   0  -4 1434.63 81.9926   3
  -3   0  -5 19832.4 229.921   6
   3   0   5 20579.3 257.856   1
  -3   0  -5 20995.2 282.033   3
  -3   0  -6 7727.59 182.255   3
   3   0   6 7817.15 165.753   1
   3   0   7 1233.16 85.2925   1
  -3   0  -7 1411.77 87.4772   3
   3   0   8 12938.5 218.371   1
  -3   0  -8 13538.8 244.114   3
   3   0   9 4264.54 141.024   1
  -3   0  -9 3984.63 142.565   3
   3   0  10 274.421 71.5368   1
   3   0  11-1.85450 70.2073   1
   3   0  12 6824.54 193.822   1
   3   0  13 1918.66 119.993   1
   3   0  14 430.032 97.5643   1
   3   0  15 190.108 93.2177   1
   3   0  15-175.812 112.606   0
  -3  -1  15-293.831 110.858   2
  -3  -1  14 2596.43 162.400   2
  -3  -1  14 2490.52 180.440   1
  -3  -1  13 1946.57 147.843   2
  -3  -1  13 1931.80 154.754   1
  -3  -1  12-16.1465 78.9899   2
  -3  -1  12 28.0860 93.3070   1
  -3  -1  11 819.748 104.060   2
  -3  -1  11 612.048 89.1319   1
  -3  -1  10-85.5906 71.5864   2
  -3  -1  10 106.508 71.6385   1
  -3  -1   9 536.910 92.6283   2
  -3  -1   9 515.872 90.8311   1
  -3  -1   8 8893.89 225.810   2
  -3  -1   8 8607.19 204.404   1
  -3  -1   7 417.799 69.1683   2
  -3  -1   7 409.296 59.6160   6
  -3  -1   7 369.324 71.3053   1
  -3  -1   6 12604.6 233.456   2
  -3  -1   6 12222.5 189.948   0
  -3  -1   6 11971.5 221.490   1
  -3  -1   6 12413.7 216.919   6
  -3  -1   5 20957.8 283.016   2
  -3  -1   5 21615.7 225.058   0
  -3  -1   5 21541.1 278.648   1
  -3  -1   5 20521.1 273.783   6
  -3  -1   4 24044.8 288.047   2
  -3  -1   4 23887.7 284.672   1
  -3  -1   4 24383.5 205.383   0
  -3  -1   4 24664.0 289.218   6
  -3  -1   3 29971.6 311.692   2
  -3  -1   3 30503.0 186.257   0
  -3  -1   3 31463.1 315.712   1
  -3  -1   3 30433.0 315.283   6
  -3  -1   2 402.489 52.1250   2
  -3  -1   2 389.567 53.5944   6
  -3  -1   1 1600.65 76.4843   2
  -3  -1   1 1508.66 76.9050   6
  -3  -1   0 13580.1 202.796   6
  -3  -1   0 14146.0 202.309   2
  -3  -1  -1 8749.62 163.069   6
  -3  -1  -1 8827.10 158.077   2
  -3  -1  -2 3098.01 101.812   6
  -3  -1  -2 2920.37 95.3714   2
  -3  -1  -3 8465.36 154.915   6
   3   1   3 8235.98 158.496   1
  -3  -1  -3 8658.80 155.000   2
  -3  -1  -4 65526.4 413.550   6
   3   1   4 66877.9 437.192   1
  -3  -1  -5 8647.93 149.007   6
   3   1   5 9187.20 170.448   1
  -3  -1  -6 2869.05 86.9341   6
   3   1   6 3015.22 105.543   1
  -3  -1  -6 3225.58 112.451   3
   3   1   7 8153.29 166.777   1
  -3  -1  -7 8270.48 175.438   3
   3   1   8 1242.84 85.2737   1
  -3  -1  -8 1387.69 83.7247   3
   3   1   9 1339.96 94.2030   1
   3   1  10 4114.64 137.887   1
   3   1  11 2860.99 133.157   1
   3   1  12 1497.19 113.492   1
   3   1  13 214.993 91.5131   1
   3   1  14 389.582 98.1246   1
   3   1  15 498.025 96.7156   1
   3   1  16 83.2085 86.8504   1
  -3  -2  14 148.343 123.012   2
  -3  -2  13-148.815 104.488   2
  -3  -2  12-100.276 89.0103   2
  -3  -2  11 1146.20 119.419   2
  -3  -2  11 1226.40 108.083   1
  -3  -2  10 316.428 93.3431   2
  -3  -2  10 112.027 72.3068   0
  -3  -2  10 221.797 87.4866   1
  -3  -2   9 6432.49 214.252   2
  -3  -2   9 5635.95 175.012   1
  -3  -2   8 1353.84 113.111   2
  -3  -2   8 1198.67 101.138   1
  -3  -2   8 1341.81 104.955   0
  -3  -2   7 1342.43 102.230   2
  -3  -2   7 1334.02 93.5274   1
  -3  -2   7 1191.19 90.0611   0
  -3  -2   6-10.3037 55.6117   1
  -3  -2   6-27.2665 55.5394   2
  -3  -2   6-86.9708 48.7664   0
  -3  -2   5 589.393 82.5440   2
  -3  -2   5 592.122 62.4854   0
  -3  -2   5 617.691 65.1645   6
  -3  -2   5 510.994 77.2495   1
  -3  -2   4 1671.02 93.8535   2
  -3  -2   4 1590.68 68.3579   0
  -3  -2   4 1413.52 82.0924   1
  -3  -2   4 1564.25 86.4330   6
  -3  -2   3 30402.6 334.814   2
  -3  -2   3 30121.8 319.745   6
  -3  -2   3 30006.9 296.536   1
  -3  -2   3 28501.9 222.498   0
  -3  -2   2 4274.81 127.847   2
  -3  -2   2 4680.69 128.627   6
  -3  -2   2 4274.62 76.2907   0
  -3  -2   1 48769.2 397.963   2
  -3  -2   1 48363.0 388.018   6
  -3  -2   1 48013.4 225.046   0
  -3  -2   0-36.2941 63.2240   2
  -3  -2   0 10.7581 14.4334   0
  -3  -2   0-5.48668 41.2065   6
  -3  -2  -1 85243.5 293.055   0
  -3  -2  -1 87365.7 504.403   6
  -3  -2  -1 87616.6 511.421   2
  -3  -2  -2 76111.0 463.333   6
  -3  -2  -2 76280.7 479.769   2
  -3  -2  -3 21107.6 240.230   6
   3   2   3 20559.6 235.128   1
  -3  -2  -3 20738.0 252.242   2
  -3  -2  -4 19898.6 227.424   6
   3   2   4 20574.7 239.028   1
  -3  -2  -5 544.789 46.9172   6
   3   2   5 452.115 58.2147   1
   3   2   6 10281.4 175.989   1
   3   2   7 20197.3 247.457   1
   3   2   8 292.197 66.5913   1
   3   2   9 8246.49 179.343   1
   3   2  10 4792.49 148.311   1
   3   2  11 44.8631 72.3164   1
   3   2  12 3575.11 150.379   1
   3   2  13 10.6543 93.5215   1
   3   2  14 2375.09 142.563   1
   3   2  15 424.483 104.363   1
   3   2  16 1062.44 114.333   1
  -3  -3  14-336.495 126.902   2
  -3  -3  13-118.783 113.866   2
  -3  -3  12 2546.79 184.519   2
  -3  -3  11 200.546 85.4403   2
  -3  -3  11 318.514 91.7951   0
  -3  -3  10 105.850 83.2246   2
  -3  -3  10 122.760 82.2955   0
  -3  -3   9 10666.8 286.017   2
  -3  -3   9 8110.14 240.313   0
  -3  -3   8 6541.42 222.004   2
  -3  -3   8 5753.91 198.085   0
  -3  -3   7 3492.70 167.286   2
  -3  -3   7 2940.31 122.374   1
  -3  -3   7 3217.94 143.751   0
  -3  -3   6 300.587 79.1638   2
  -3  -3   6 368.931 65.4746   0
  -3  -3   6 331.785 63.6385   1
  -3  -3   5 347.844 78.0338   2
  -3  -3   5 453.410 60.2031   0
  -3  -3   5 400.842 64.3101   1
  -3  -3   4 4985.77 166.702   2
  -3  -3   4 5436.08 136.409   1
  -3  -3   4 5130.31 126.599   0
  -3  -3   3 3532.83 137.693   2
  -3  -3   3 3175.67 93.7560   0
   3   3  -3 3337.52 67.1878   4
  -3  -3   2 46852.2 423.953   2
  -3  -3   2 44874.9 305.849   0
  -3  -3   1 0.22822 50.1830   2
  -3  -3   1 13.2578 30.9237   0
  -3  -3   0 32360.0 340.355   2
  -3  -3   0 30781.4 238.129   0
  -3  -3  -1 746.581 78.0977   2
  -3  -3  -1 708.398 45.1050   0
  -3  -3  -2 1918.42 67.6438   0
   3   3   2 1658.29 74.0510   1
  -3  -3  -2 2019.08 101.580   2
  -3  -3  -3 3477.68 90.3553   0
   3   3   3 3345.09 102.676   1
  -3  -3  -3 3553.55 125.663   2
  -3  -3  -4 89030.0 453.827   0
   3   3   4 88341.1 473.724   1
  -3  -3  -4 90883.2 546.364   2
   3   3   5 15959.0 208.343   1
   3   3   6 1689.17 80.1806   1
   3   3   7 4105.17 119.152   1
   3   3   8 8179.52 171.401   1
   3   3   9 2760.53 110.933   1
   3   3  10 2602.28 117.905   1
   3   3  11 7707.77 188.758   1
   3   3  12 5849.42 176.544   1
   3   3  13 89.6387 90.1239   1
   3   3  14 35.6362 95.7164   1
   3   3  15 1856.69 137.617   1
   3   3  16 938.911 111.742   1
  -3  -4  13-103.828 124.188   2
  -3  -4  12 1499.48 174.946   2
  -3  -4  11 458.946 128.913   2
  -3  -4  11 443.267 117.829   0
  -3  -4  10 959.761 132.635   2
  -3  -4  10 738.911 114.972   0
  -3  -4   9 837.307 134.965   2
  -3  -4   9 884.225 113.662   0
  -3  -4   8 8610.94 270.228   2
  -3  -4   8 8037.94 241.342   0
  -3  -4   7 27934.7 439.841   2
  -3  -4   7 26092.6 379.933   0
  -3  -4   6 1918.49 136.380   2
  -3  -4   6 1835.12 113.897   0
  -3  -4   5 8684.60 231.524   2
  -3  -4   5 8343.68 195.829   0
  -3  -4   4 2029.71 129.509   2
  -3  -4   4 2118.84 102.547   0
  -3  -4   3 127.449 71.0818   2
  -3  -4   3 126.028 44.6966   0
  -3  -4   2 14944.4 259.405   2
  -3  -4   2 14556.4 207.861   0
   3   4  -2 14940.4 155.632   4
  -3  -4   1 8773.72 199.006   2
  -3  -4   1 9159.73 160.810   0
   3   4  -1 9385.64 135.473   4
  -3  -4   0 10556.5 210.042   2
   3   4   0 11407.6 159.729   4
  -3  -4   0 10863.8 173.943   0
  -3  -4  -1 1845.46 77.1910   0
  -3  -4  -1 1671.26 99.9119   2
  -3  -4  -2 187.562 70.0429   2
   3   4   2 154.643 44.9231   1
  -3  -4  -2 209.608 44.2886   0
  -3  -4  -3 116797. 557.641   0
   3   4   3 116005. 506.686   1
  -3  -4  -3 115050. 652.178   2
  -3  -4  -4 7255.44 151.822   0
   3   4   4 7361.71 137.525   1
  -3  -4  -4 7223.77 176.502   2
  -3  -4  -5 873.183 72.2645   0
   3   4   5 814.597 59.6920   1
  -3  -4  -5 677.799 77.7106   2
  -3  -4  -6 21513.9 275.070   0
   3   4   6 23698.0 250.087   1
   3   4   7 18808.3 234.325   1
   3   4   8 6732.30 153.850   1
   3   4   9 2898.57 117.367   1
   3   4  10 842.978 86.1006   1
   3   4  11 6142.65 172.681   1
   3   4  11 6174.59 208.471   4
   3   4  12 3109.71 145.531   1
   3   4  12 2952.93 166.743   4
   3   4  13 2774.63 151.281   1
   3   4  13 2365.14 152.745   4
   3   4  14 3217.55 155.536   1
   3   4  14 3169.49 173.964   4
   3   4  15 164.116 98.2426   1
   3   4  16 670.385 112.953   1
  -3  -5  12 262.625 117.863   2
  -3  -5  12 407.768 141.281   0
  -3  -5  11 316.581 137.908   2
  -3  -5  11 198.422 112.293   0
  -3  -5  10 701.253 123.735   2
  -3  -5  10 650.757 115.516   0
  -3  -5   9-24.8031 100.913   2
  -3  -5   9-7.93855 94.6835   0
  -3  -5   8 1639.59 162.849   2
  -3  -5   8 1296.10 121.709   0
  -3  -5   7 1304.03 152.193   2
  -3  -5   7 1393.53 133.486   0
  -3  -5   6 3896.52 191.116   2
  -3  -5   6 3191.50 160.232   0
  -3  -5   5-7.73369 93.1063   2
  -3  -5   5-106.248 73.3906   0
  -3  -5   4 1698.52 123.946   2
  -3  -5   4 1545.00 106.545   0
  -3  -5   3 24.4607 58.9867   0
  -3  -5   3-25.4074 71.7790   2
  -3  -5   2 6982.85 196.608   2
  -3  -5   2 6290.61 160.705   0
  -3  -5   1 361.112 80.2495   2
  -3  -5   1 426.075 62.6108   0
   3   5  -1 467.458 44.2265   4
  -3  -5   0 2837.82 125.457   2
   3   5   0 3181.30 91.6643   4
  -3  -5   0 3338.14 119.533   0
   3   5   1 1186.79 65.4233   4
   3   5   1 1084.49 53.7271   1
  -3  -5  -1 975.397 75.9135   0
  -3  -5  -1 1031.75 94.5072   2
   3   5   2 2634.58 77.2924   1
   3   5   2 2874.50 100.497   4
  -3  -5  -2 2508.19 104.398   0
  -3  -5  -2 2512.54 122.590   2
  -3  -5  -3 12009.0 209.488   0
   3   5   3 12655.1 160.902   1
   3   5   3 12714.2 205.648   4
  -3  -5  -3 12229.7 234.011   2
  -3  -5  -4 14413.8 232.810   0
   3   5   4 14322.8 175.575   1
   3   5   4 14402.1 230.974   4
  -3  -5  -4 13960.7 246.800   2
  -3  -5  -5 2311.21 107.877   0
   3   5   5 2403.77 83.2678   1
   3   5   5 2410.98 113.820   4
  -3  -5  -5 2363.96 117.910   2
  -3  -5  -6 5689.05 158.756   0
   3   5   6 6199.46 132.487   1
   3   5   6 6229.19 170.549   4
   3   5   7 259.531 60.4200   1
  -3  -5  -7 263.013 78.3494   0
   3   5   7 253.159 82.1090   4
   3   5   8 24169.8 276.807   1
   3   5   8 22141.2 336.997   4
   3   5   9 6068.01 157.420   1
   3   5   9 6137.22 198.775   4
   3   5  10 1026.14 117.309   4
   3   5  10 1203.17 89.9832   1
   3   5  11 1422.42 130.554   4
   3   5  11 1645.28 114.131   1
   3   5  12 261.731 91.6859   1
   3   5  12 289.150 89.2504   4
   3   5  13 347.235 92.7631   1
   3   5  13 310.336 109.661   4
   3   5  14 864.404 110.044   1
   3   5  14 755.863 117.647   4
   3   5  15 1734.40 138.594   1
   3   5  16 1230.15 122.456   1
  -3  -6  12-60.2153 143.678   2
  -3  -6  12 117.237 157.196   0
  -3  -6  11 1790.09 209.903   2
  -3  -6  11 1076.29 146.952   0
  -3  -6  10 391.617 111.257   2
  -3  -6  10 138.484 123.533   0
  -3  -6   9 119.540 105.832   2
  -3  -6   9 50.8621 101.971   0
  -3  -6   8 253.501 117.464   2
  -3  -6   8 282.921 113.320   0
  -3  -6   7 1125.50 148.831   2
  -3  -6   7 1080.01 132.137   0
  -3  -6   6 12841.3 334.296   2
  -3  -6   6 11582.6 292.482   0
  -3  -6   5 419.437 119.236   2
  -3  -6   5 327.579 100.175   0
  -3  -6   4 3189.47 170.924   2
  -3  -6   4 2897.05 147.167   0
  -3  -6   3 6640.38 212.316   2
  -3  -6   3 6368.40 192.082   0
  -3  -6   2 2.35235 71.0205   0
  -3  -6   2 25.7077 79.0135   2
  -3  -6   1 901.547 96.8378   2
  -3  -6   1 824.146 88.8376   0
  -3  -6   0 5068.36 170.541   2
  -3  -6   0 4894.27 160.897   0
   3   6   1 3751.94 111.598   4
  -3  -6  -1 3308.96 134.776   0
  -3  -6  -1 3639.75 153.677   2
  -3  -6  -2 1751.19 106.261   0
  -3  -6  -2 1544.75 109.965   2
   3   6   3 15606.8 164.788   1
   3   6   3 15616.8 231.581   4
  -3  -6  -3 14604.7 265.753   2
  -3  -6  -3 14427.3 253.255   0
  -3  -6  -4 741.438 85.1173   0
  -3  -6  -4 447.758 80.7022   2
   3   6   4 579.711 48.0615   1
   3   6   4 634.403 72.0805   4
  -3  -6  -5 3501.76 142.004   0
   3   6   5 3698.97 95.2926   1
   3   6   5 3723.91 135.750   4
  -3  -6  -5 3419.99 138.499   2
  -3  -6  -6 1722.65 112.088   0
   3   6   6 1831.60 81.1046   1
   3   6   6 1994.68 119.251   4
  -3  -6  -7 19459.5 319.321   0
   3   6   7 19443.9 308.937   4
   3   6   7 20269.3 240.304   1
  -3  -6  -8 17961.9 321.784   0
   3   6   8 19053.7 245.479   1
   3   6   8 17720.2 308.495   4
  -3  -6  -9 24924.5 379.402   0
   3   6   9 25743.9 376.053   4
   3   6  10 3652.39 135.695   1
   3   6  10 3676.40 167.420   4
   3   6  11 3187.24 133.110   1
   3   6  11 3097.92 160.370   4
   3   6  12 312.745 81.1501   1
   3   6  12 439.060 98.5673   4
   3   6  13 90.8990 85.2428   1
   3   6  13 59.6758 107.344   4
   3   6  14 1549.47 125.804   1
   3   6  14 1386.34 144.616   4
   3   6  15 971.297 123.778   1
   3   6  15 764.841 118.415   4
  -3  -7  11 583.957 185.510   2
  -3  -7  11 176.548 170.885   0
  -3  -7  10 247.051 147.722   2
  -3  -7  10-134.739 153.244   0
  -3  -7   9 315.699 132.438   2
  -3  -7   9 151.320 132.362   0
  -3  -7   8 1295.60 172.573   2
  -3  -7   8 949.227 147.102   0
  -3  -7   7 181.313 111.324   2
  -3  -7   7-97.6834 105.134   0
  -3  -7   6 403.458 129.587   2
  -3  -7   6 216.946 113.008   0
  -3  -7   5 113.581 97.1973   2
  -3  -7   5-12.5302 101.263   0
  -3  -7   4-33.0738 88.7293   0
  -3  -7   4-67.3625 106.977   2
  -3  -7   3 338.870 92.2909   0
  -3  -7   3 324.549 91.9222   2
  -3  -7   2 1782.63 133.689   2
  -3  -7   2 1507.48 124.631   0
  -3  -7   1 64.3308 79.3102   2
  -3  -7   1 6.38658 81.9094   0
  -3  -7   0 3863.30 162.731   2
  -3  -7   0 4005.90 165.390   0
  -3  -7  -1 2356.96 128.083   0
  -3  -7  -1 2264.61 141.774   2
  -3  -7  -2 14337.4 278.801   0
  -3  -7  -2 13629.3 269.334   2
  -3  -7  -3 2947.10 145.347   0
  -3  -7  -3 2749.71 141.583   2
  -3  -7  -4 539.954 90.6865   2
  -3  -7  -4 629.147 92.5439   0
   3   7   4 702.841 81.9473   4
  -3  -7  -5 11331.5 256.305   0
   3   7   5 11818.4 235.473   4
  -3  -7  -5 12460.0 255.395   2
  -3  -7  -6 24979.3 383.385   0
   3   7   6 24750.7 243.802   1
   3   7   6 24467.2 340.286   4
  -3  -7  -6 26293.3 364.575   2
  -3  -7  -7 12365.6 279.759   0
   3   7   7 12527.4 191.477   1
   3   7   7 12855.3 263.283   4
   3   7   8 4736.40 184.497   4
  -3  -7  -8 4844.90 201.533   0
   3   7   8 4972.12 136.536   1
  -3  -7  -9 1970.25 149.081   0
   3   7   9 2163.82 103.651   1
   3   7   9 2026.16 139.777   4
  -3  -7 -10 3528.86 179.798   0
   3   7  10 3172.67 124.899   1
   3   7  10 3164.40 161.432   4
   3   7  11 3451.30 135.959   1
   3   7  11 2903.26 159.138   4
   3   7  12 3821.14 183.760   4
   3   7  12 3916.93 149.226   1
   3   7  13 414.336 91.0448   1
   3   7  13 306.594 105.729   4
   3   7  14 248.840 85.6682   1
   3   7  14 360.031 112.262   4
   3   7  15 857.885 110.232   1
   3   7  15 859.115 137.147   4
  -3  -8  10 799.856 204.067   2
  -3  -8  10-78.4742 140.757   0
  -3  -8   9 445.656 172.138   2
  -3  -8   9 179.010 132.681   0
  -3  -8   8 134.533 131.469   2
  -3  -8   8-68.4604 139.224   0
  -3  -8   7 749.703 144.410   2
  -3  -8   7 498.907 137.949   0
  -3  -8   6 836.260 144.989   0
  -3  -8   6 1123.62 148.971   2
  -3  -8   5 47.0721 105.764   0
  -3  -8   5 33.4958 102.281   2
  -3  -8   4 13.2610 105.120   0
  -3  -8   4-44.0212 104.903   2
  -3  -8   3 3804.86 195.132   2
  -3  -8   3 3836.24 193.569   0
  -3  -8   2 8732.26 256.311   2
  -3  -8   2 8364.53 257.507   0
  -3  -8   1 212.798 94.5537   2
  -3  -8   1 213.440 106.689   0
  -3  -8   0 1201.61 125.592   0
  -3  -8   0 1213.81 122.047   2
  -3  -8  -1 5578.31 207.084   0
  -3  -8  -1 5736.65 201.717   2
  -3  -8  -2 2140.56 140.325   0
  -3  -8  -2 1977.74 137.307   2
  -3  -8  -3 2204.34 148.395   0
  -3  -8  -3 2254.86 141.151   2
  -3  -8  -4 137.504 89.2180   2
  -3  -8  -4 225.111 90.9548   0
  -3  -8  -5 8565.82 244.087   0
  -3  -8  -5 8012.25 217.131   2
  -3  -8  -6 7299.51 229.985   0
  -3  -8  -6 7901.06 218.909   2
  -3  -8  -7 17932.3 357.952   0
  -3  -8  -8 285.474 103.819   0
   3   8   8 254.120 100.978   4
  -3  -8  -9 3593.25 180.960   0
   3   8   9 3885.12 125.343   1
   3   8   9 3578.35 168.793   4
   3   8  10 43.9384 56.1499   1
   3   8  10-35.5447 83.0720   4
  -3  -8 -10 57.6764 95.9605   0
   3   8  11-1.29793 53.7756   1
  -3  -8 -11-39.1600 109.299   0
   3   8  11-70.2492 85.9141   4
   3   8  12 387.539 80.0898   1
   3   8  12 396.201 108.247   4
   3   8  13 1655.80 113.249   1
   3   8  13 1089.08 130.943   4
   3   8  14 281.399 87.8260   1
   3   8  15 374.132 79.4208   1
  -3  -9   9 266.241 161.308   2
  -3  -9   9 205.288 167.929   0
  -3  -9   8 300.820 164.630   0
  -3  -9   8 172.439 186.390   2
  -3  -9   7 570.077 150.728   0
  -3  -9   7 819.751 133.484   2
  -3  -9   6 318.677 136.381   0
  -3  -9   6 131.707 121.529   2
  -3  -9   5 1110.78 161.581   0
  -3  -9   5 1109.27 151.496   2
  -3  -9   4 203.496 135.390   0
  -3  -9   4 195.189 114.953   2
  -3  -9   3 462.459 114.487   2
  -3  -9   3 331.585 125.591   0
  -3  -9   2 929.024 132.534   2
  -3  -9   2 828.760 138.276   0
  -3  -9   1 41.7441 94.4669   2
  -3  -9   1 0.48290 102.911   0
  -3  -9   0 4.55691 98.7143   2
  -3  -9   0-3.72396 103.844   0
  -3  -9  -1 1941.08 147.816   0
  -3  -9  -1 2137.46 150.438   2
  -3  -9  -2 2548.27 165.011   0
  -3  -9  -2 2700.04 154.810   2
  -3  -9  -3 1638.00 143.258   0
  -3  -9  -3 1561.40 132.259   2
  -3  -9  -4-83.2478 85.3378   2
  -3  -9  -4-34.2306 107.347   0
  -3  -9  -5 1216.28 139.198   0
  -3  -9  -5 901.441 109.517   2
  -3  -9  -6 5092.03 209.623   0
  -3  -9  -6 4796.64 186.092   2
  -3  -9  -7 2578.01 168.113   0
  -3  -9  -8 262.531 101.035   0
  -3  -9  -9 2081.62 162.456   0
  -3  -9 -10 3111.56 187.163   0
  -3  -9 -11 392.053 114.272   0
  -3  -9 -12 1087.76 141.470   0
   3   9  13 1051.29 105.408   1
   3   9  14-13.8879 70.2288   1
   3   9  15 371.732 92.0790   1
  -3 -10   7 268.260 151.098   0
  -3 -10   6-62.1155 138.509   0
  -3 -10   5 169.890 134.244   0
  -3 -10   4 97.3640 142.595   0
  -3 -10   3 511.764 152.684   0
  -3 -10   2 2351.07 194.823   0
  -3 -10   1-40.3270 108.248   0
  -3 -10   0 427.056 128.153   0
  -3 -10  -1 1603.97 153.138   0
  -3 -10  -2 138.789 103.445   0
  -3 -10  -3-25.7082 93.4486   0
  -3 -10  -4-21.0256 106.626   0
  -3 -10  -5 1281.73 136.155   0
  -3 -10  -6 2863.79 185.797   0
  -3 -10  -7 519.430 104.132   0
  -3 -10  -8-2.66224 122.867   0
  -3 -10  -9 1837.63 166.645   0
  -3 -10 -10 70.7890 103.573   0
  -3 -10 -11-184.534 89.1946   0
  -3 -10 -12 406.225 136.387   0
  -3 -10 -13 817.299 158.518   0
  -3 -11   5 464.514 169.424   0
  -3 -11   4 707.503 180.568   0
  -3 -11   3 1024.79 156.881   0
  -3 -11   2 1321.01 190.867   0
  -3 -11   1-0.65637 136.523   0
  -3 -11   0 702.681 143.134   0
  -3 -11  -1 1296.12 169.198   0
  -3 -11  -2 970.015 157.936   0
  -3 -11  -3-132.436 135.060   0
  -3 -11  -4 1807.54 183.734   0
  -3 -11  -5 1905.13 178.588   0
  -3 -11  -6 719.575 143.218   0
  -3 -11  -7-46.7499 119.304   0
  -3 -11  -8 74.4642 123.402   0
  -3 -11  -9 2458.03 190.410   0
  -3 -11 -10 1631.17 177.658   0
  -3 -11 -11-207.579 125.465   0
  -3 -11 -12 413.428 168.369   0
  -3 -12   2 397.410 164.079   0
  -3 -12   1-55.4971 146.426   0
  -3 -12   0 624.792 171.234   0
  -3 -12  -1 533.097 132.641   0
  -3 -12  -2 415.606 137.491   0
  -3 -12  -3-21.7744 112.187   0
  -3 -12  -4 313.702 123.483   0
  -3 -12  -5 100.154 109.101   0
  -3 -12  -6 138.260 101.540   0
  -3 -12  -7 105.159 113.160   0
  -3 -12  -8 398.037 132.393   0
  -3 -12  -9 1932.45 201.092   0
  -4   9   9 199.307 90.8840   5
  -4   9   8 15.9876 86.7064   5
  -4   9   7 1219.87 131.344   5
  -4   9   6 454.858 108.084   5
  -4   9   5 45.7761 103.412   5
  -4   9   4 59.1737 96.7336   5
  -4   9   3 134.974 104.996   5
  -4   9   3 210.833 105.687   3
  -4   9   2 398.648 98.2932   3
  -4   9   1 284.480 91.0419   3
  -4   9   0 24.4299 84.1187   3
  -4   9  -1 80.5880 87.8008   3
  -4   8  11 228.718 115.689   1
  -4   8  10 1455.86 135.684   6
  -4   8  10 433.355 109.539   1
  -4   8   9 434.952 114.485   6
  -4   8   9 42.4934 92.5614   5
  -4   8   8 356.938 107.571   5
  -4   8   7 1325.96 130.767   5
  -4   8   6 1003.79 136.528   5
  -4   8   5 363.885 103.182   5
  -4   8   4-5.26568 100.520   5
  -4   8   3 124.125 117.036   5
  -4   8   3 159.982 88.8956   3
  -4   8   2 701.953 115.718   3
  -4   8   1 113.960 88.8504   3
  -4   8   0-12.9417 82.5010   3
  -4   8  -1 215.344 85.7352   3
  -4   8  -2 985.957 117.962   3
  -4   8  -3 577.920 114.722   3
  -4   8  -4 210.741 93.2484   3
  -4   7  12-425.328 114.111   1
  -4   7  11 32.3998 118.696   1
  -4   7  10 38.4444 87.8851   6
  -4   7  10-310.598 107.909   1
  -4   7   9-4.57531 83.1973   5
  -4   7   9-216.216 101.772   1
  -4   7   8-58.5230 81.3682   5
  -4   7   8 155.421 91.5380   6
  -4   7   7 1103.89 117.141   5
  -4   7   6 952.744 114.870   5
  -4   7   5 32.6242 82.3794   5
  -4   7   4 56.8209 99.4345   5
  -4   7   4 32.4996 75.2781   3
  -4   7   3 26.0272 96.1093   5
  -4   7   3-44.8695 79.2553   3
  -4   7   2 648.574 101.991   3
  -4   7   1 2420.68 149.181   3
  -4   7   0 385.398 101.038   3
  -4   7  -1 236.459 87.3884   3
  -4   7  -2 487.296 98.4344   3
  -4   7  -3 282.578 88.8955   3
  -4   7  -4 120.837 83.4597   3
  -4   7  -5 132.508 79.1411   3
  -4   7  -6 469.321 95.6075   3
  -4   6  12 768.834 145.696   1
  -4   6  11 1945.08 162.461   1
  -4   6  10 274.940 83.1165   6
  -4   6  10 200.348 107.895   1
  -4   6   9 355.057 97.0400   6
  -4   6   9 247.887 101.255   1
  -4   6   8 195.116 92.2719   6
  -4   6   8-15.4706 77.3087   5
  -4   6   8 43.5165 104.494   1
  -4   6   7 118.251 82.4551   6
  -4   6   7 5.85552 83.3432   5
  -4   6   6 302.617 99.8157   6
  -4   6   6 271.793 90.3909   5
  -4   6   5 1011.82 117.030   5
  -4   6   5 640.539 90.0747   3
  -4   6   4 1675.86 129.087   5
  -4   6   4 1459.38 120.240   3
  -4   6   3 1721.88 130.203   5
  -4   6   3 1562.60 131.632   3
  -4   6   2 2813.19 149.697   3
  -4   6   1 29.5939 88.6840   3
  -4   6   0 553.704 100.307   3
  -4   6  -1 65.7958 79.3356   3
  -4   6  -2 247.489 79.5908   3
  -4   6  -3 50.1765 71.9947   3
  -4   6  -4 107.736 85.6472   3
  -4   6  -5 347.215 82.6574   3
  -4   6  -6 485.655 90.0987   3
  -4   6  -7 314.690 86.5303   3
  -4   6  -8 353.282 90.2483   3
  -4   5  13 214.125 118.918   1
  -4   5  12 661.951 142.164   1
  -4   5  11 527.887 127.272   1
  -4   5  10 57.9889 79.9048   6
  -4   5  10 315.408 118.761   1
  -4   5   9 55.7266 77.5327   6
  -4   5   9 36.4666 104.852   1
  -4   5   8 678.297 102.897   6
  -4   5   8 560.996 86.3921   5
  -4   5   8 539.176 114.494   1
  -4   5   7 308.030 92.5000   6
  -4   5   7 347.976 85.5965   5
  -4   5   7 175.609 93.1088   1
  -4   5   6-23.4651 82.5153   6
  -4   5   6 13.1341 82.2782   5
  -4   5   5 2856.53 150.049   5
  -4   5   5 2728.20 149.797   6
  -4   5   4 2606.72 147.942   6
  -4   5   4 2585.09 142.456   5
  -4   5   4 2502.70 131.148   3
  -4   5   3 2375.63 135.167   3
  -4   5   2-32.8605 87.1234   3
  -4   5   1 3446.89 162.453   3
  -4   5   0 100.420 80.8586   3
  -4   5  -1 2277.26 141.560   3
  -4   5  -2 5160.03 200.243   3
  -4   5  -3 7617.27 232.724   3
  -4   5  -4 1693.09 125.882   3
  -4   5  -5 139.614 79.1291   3
  -4   5  -6 71.4448 71.0823   3
  -4   5  -7 229.391 75.9520   3
  -4   5  -8 271.546 84.8986   3
  -4   5  -9 271.634 75.9260   3
  -4   5 -10 988.651 104.874   3
  -4   4  13 62.6963 120.575   1
  -4   4  12 2015.37 172.581   1
  -4   4  11 4079.44 210.598   1
  -4   4  10-85.2444 88.9327   6
  -4   4  10 9.46822 104.242   1
  -4   4   9 3368.24 182.871   1
  -4   4   9 3251.87 163.228   6
  -4   4   8 3204.27 179.580   1
  -4   4   8 3307.40 158.951   6
  -4   4   7 4484.98 194.743   1
  -4   4   7 4251.08 173.014   6
  -4   4   7 4356.37 162.297   5
  -4   4   6 1309.53 115.889   6
  -4   4   6 1270.01 116.637   5
  -4   4   6 1065.77 123.439   1
  -4   4   5-27.8574 72.8533   6
  -4   4   5-59.2867 85.2413   5
  -4   4   4 7924.89 221.558   6
  -4   4   4 8059.00 210.058   5
  -4   4   3 2010.97 128.323   6
  -4   4   3 1935.47 118.741   3
  -4   4   2 3901.38 160.678   6
  -4   4   2 3693.93 159.713   3
  -4   4   1 2636.94 136.700   6
  -4   4   1 2995.52 153.326   3
  -4   4   0 1039.33 99.6741   6
  -4   4   0 1179.24 109.861   3
  -4   4  -1 717.066 98.6064   6
  -4   4  -1 673.116 102.250   3
  -4   4  -2 4351.80 163.923   6
  -4   4  -2 4976.33 184.655   3
  -4   4  -3-5.54983 77.1081   6
  -4   4  -3 5.45926 77.2142   3
  -4   4  -4 1489.41 108.719   6
   4  -4   4 1506.42 127.455   1
  -4   4  -4 1585.50 122.614   3
   4  -4   5 962.600 108.653   1
  -4   4  -5 970.845 107.750   3
   4  -4   6 84.5374 71.1179   1
  -4   4  -6 164.561 76.3416   3
  -4   4  -7 171.320 79.1437   3
  -4   4  -8 87.5539 61.5253   3
   4  -4   9 428.860 114.620   0
  -4   4  -9 675.224 91.9508   3
   4  -4  10 1318.97 146.607   0
  -4   4 -10 1154.46 98.8888   3
   4  -4  11 148.252 125.589   0
  -4   3  14 344.135 140.710   1
  -4   3  13 1241.89 149.683   1
  -4   3  12 947.095 134.820   1
  -4   3  11 461.554 121.014   1
  -4   3  10 3146.67 185.632   1
  -4   3   9 22.7688 85.6256   6
  -4   3   9 36.6024 111.491   1
  -4   3   8 1063.09 132.969   1
  -4   3   8 1143.53 110.202   6
  -4   3   7 1205.95 131.530   1
  -4   3   7 1299.88 108.608   6
  -4   3   6-18.5851 66.5486   6
  -4   3   6-25.2301 68.4862   5
  -4   3   5 27.0822 64.5306   6
  -4   3   5-427.780 86.7502   1
  -4   3   4 1330.53 104.035   6
  -4   3   3 1341.04 106.123   6
  -4   3   2 1610.26 108.986   6
  -4   3   2 1476.45 105.592   3
  -4   3   1 905.500 89.8629   6
  -4   3   1 603.913 84.5878   3
  -4   3   0 6048.25 184.832   6
  -4   3   0 6286.90 191.661   3
  -4   3  -1 10138.9 233.632   6
  -4   3  -1 11165.1 260.076   3
  -4   3  -2 373.830 77.1494   6
  -4   3  -2 332.512 91.1393   3
  -4   3  -3 15271.6 279.948   6
  -4   3  -3 15222.7 304.296   3
  -4   3  -4 7857.34 204.319   6
   4  -3   4 7901.01 214.559   1
  -4   3  -4 7532.96 226.355   3
  -4   3  -5 7052.05 192.791   6
  -4   3  -5 6766.12 216.676   3
   4  -3   6 9339.14 224.429   1
  -4   3  -6 7844.09 233.637   3
   4  -3   7 3303.17 164.379   0
   4  -3   7 3324.79 147.089   1
   4  -3   8 729.348 88.9990   1
   4  -3   8 661.830 105.458   0
  -4   3  -8 678.357 97.7958   3
   4  -3   9 38.2438 76.8807   1
   4  -3   9 122.211 95.0514   0
  -4   3  -9 41.3632 73.8609   3
   4  -3  10 72.9070 97.1380   0
  -4   3 -10 66.4786 69.0386   3
   4  -3  11 1450.76 165.772   0
   4  -3  12 267.043 140.208   0
  -4   2  14-28.2629 121.932   1
  -4   2  13 140.909 121.016   1
  -4   2  12 57.4698 101.013   1
  -4   2  11 959.421 132.491   1
  -4   2  10 35.1233 107.543   1
  -4   2   9 3808.85 190.100   1
  -4   2   9 3892.18 158.518   6
  -4   2   8 4174.49 194.408   1
  -4   2   8 4152.81 164.714   6
  -4   2   7 10494.1 242.968   6
  -4   2   7 10341.5 261.620   1
  -4   2   6 116.653 60.8518   6
  -4   2   6 27.0242 94.9354   1
  -4   2   5 429.054 74.0464   6
  -4   2   5 377.400 92.5378   1
  -4   2   4 1658.51 110.330   6
  -4   2   3 318.087 75.9225   6
  -4   2   2 85.1472 59.7136   6
  -4   2   1 797.883 85.0409   6
  -4   2   0 25.0417 53.5758   6
  -4   2   0 26.4679 61.4283   3
  -4   2  -1 998.354 91.7601   6
  -4   2  -1 877.709 89.7734   3
  -4   2  -2 7283.47 191.732   6
  -4   2  -2 7517.47 206.696   3
  -4   2  -3 10229.3 223.139   6
  -4   2  -3 11130.1 258.913   3
  -4   2  -4 12406.2 244.615   6
   4  -2   4 12801.2 257.646   1
  -4   2  -4 12848.0 279.247   3
  -4   2  -5 2011.81 114.681   6
   4  -2   5 2107.57 133.294   1
  -4   2  -5 1822.97 131.733   3
   4  -2   6 4057.95 159.068   0
   4  -2   6 4024.25 158.590   1
  -4   2  -6 3534.09 165.039   3
   4  -2   7 666.350 101.322   0
   4  -2   7 919.624 103.346   1
  -4   2  -7 834.468 93.1497   3
   4  -2   8 122.130 70.0826   1
   4  -2   8-57.2875 93.8709   0
  -4   2  -8 41.6033 62.4671   3
   4  -2   9-8.40737 87.4965   0
  -4   2  -9 8.61168 69.5149   3
   4  -2  10 983.491 126.930   0
   4  -2  10 940.259 94.5478   1
  -4   2 -10 781.754 95.6928   3
   4  -2  11 64.1659 114.033   0
   4  -2  11 113.211 74.2181   1
   4  -2  12 94.9679 84.7778   1
   4  -2  12-105.264 121.875   0
   4  -2  13 9.82668 107.972   0
  -4   1  15-115.636 142.655   1
  -4   1  14 21.5309 110.564   2
  -4   1  14-104.620 131.394   1
  -4   1  13 2491.76 149.385   2
  -4   1  13 2655.25 185.746   1
  -4   1  12 925.544 95.6470   2
  -4   1  12 619.946 130.347   1
  -4   1  11-168.692 74.8813   2
  -4   1  11 94.8820 109.801   1
  -4   1  10-93.1141 59.4748   2
  -4   1  10 91.1603 88.0540   1
  -4   1   9 84.8393 59.7239   2
  -4   1   9 32.5276 70.8489   6
  -4   1   9 133.072 102.450   1
  -4   1   8 2983.55 134.783   2
  -4   1   8 3100.06 173.317   1
  -4   1   8 2835.59 139.061   6
  -4   1   7 595.675 74.4403   2
  -4   1   7 541.047 81.5336   6
  -4   1   7 403.157 102.722   1
  -4   1   6 14052.9 241.704   2
  -4   1   6 14226.4 290.113   1
  -4   1   6 14469.0 274.773   6
  -4   1   5 349.871 56.2311   2
  -4   1   5 360.039 74.9995   6
  -4   1   5 337.459 90.4865   1
  -4   1   4 6239.24 152.506   2
  -4   1   4 6383.31 184.577   6
  -4   1   3 113.135 43.3174   2
  -4   1   3 105.777 58.5574   6
  -4   1   2 807.134 81.0834   6
  -4   1   2 727.891 63.5174   2
  -4   1   1 4573.28 153.679   6
  -4   1   1 4582.97 118.469   2
  -4   1   0 1947.23 105.899   6
  -4   1   0 1939.78 79.3154   2
  -4   1  -1 6477.28 175.510   6
  -4   1  -1 6351.18 128.198   2
  -4   1  -2 2581.71 119.067   6
  -4   1  -2 2637.57 124.798   3
  -4   1  -3 7423.06 184.032   6
  -4   1  -3 7414.12 198.862   3
  -4   1  -4 2811.40 120.035   6
   4  -1   4 2836.77 139.355   1
  -4   1  -4 2553.66 131.902   3
   4  -1   5 34433.8 367.387   0
  -4   1  -5 34790.6 377.783   6
   4  -1   5 36607.0 403.945   1
  -4   1  -5 36704.7 441.293   3
   4  -1   6 17603.1 282.926   0
   4  -1   6 17886.6 292.306   1
  -4   1  -6 18822.2 333.620   3
   4  -1   7 1915.54 120.525   0
   4  -1   7 2268.92 128.131   1
  -4   1  -7 1999.88 133.354   3
   4  -1   8 742.085 98.1432   0
   4  -1   8 857.814 97.9063   1
  -4   1  -8 841.905 101.977   3
   4  -1   9 6025.29 209.782   0
   4  -1   9 6399.24 184.305   1
  -4   1  -9 6418.86 217.465   3
   4  -1  10 2195.41 149.860   0
   4  -1  10 2336.18 129.682   1
   4  -1  11 3121.21 184.948   0
   4  -1  11 3259.85 144.013   1
   4  -1  12 243.195 71.3757   1
   4  -1  12 258.470 113.042   0
   4  -1  13 702.603 94.5397   1
   4  -1  13 536.488 126.476   0
   4  -1  14 136.799 100.019   1
   4  -1  14-292.902 111.090   0
  -4   0  15-478.873 142.968   2
  -4   0  15 269.734 158.071   1
  -4   0  14-136.377 119.516   2
  -4   0  14 19.7912 133.007   1
  -4   0  13 2401.41 155.197   2
  -4   0  13 2458.68 181.263   1
  -4   0  12 27.1410 83.2844   2
  -4   0  12-3.74578 113.622   1
  -4   0  11 1152.03 104.760   2
  -4   0  11 1238.72 138.893   1
  -4   0  10 952.305 103.480   2
  -4   0  10 1159.08 131.270   1
  -4   0   9 250.779 75.1541   2
  -4   0   9 234.712 60.7128   6
  -4   0   9 253.832 96.9477   1
  -4   0   8 2390.89 134.625   2
  -4   0   8 2467.31 133.034   6
  -4   0   8 2722.62 160.083   1
  -4   0   7 1392.68 102.080   2
  -4   0   7 1446.09 122.498   1
  -4   0   7 1449.73 102.539   6
  -4   0   6 2764.28 125.006   2
  -4   0   6 2739.95 143.948   1
  -4   0   6 2409.87 126.857   6
  -4   0   5 16828.0 268.194   2
  -4   0   5 17264.3 301.403   1
  -4   0   5 16637.0 278.928   6
  -4   0   4 813.682 75.9184   2
  -4   0   4 732.469 82.8527   6
  -4   0   3 12707.1 219.589   2
  -4   0   3 12730.1 243.972   6
  -4   0   2 5210.74 142.459   2
  -4   0   2 5224.49 164.204   6
  -4   0   1 8125.39 196.604   6
  -4   0   1 8145.55 171.786   2
  -4   0   0 3174.17 128.544   6
  -4   0   0 3295.08 109.976   2
  -4   0  -1 56.1911 45.4926   2
  -4   0  -1 56.4266 54.8585   6
  -4   0  -2 3892.59 138.825   6
  -4   0  -2 4267.28 116.482   2
  -4   0  -3 2715.61 114.523   6
  -4   0  -4 15786.9 251.545   6
   4   0   4 14931.0 258.402   1
   4   0   5 34759.5 336.117   0
  -4   0  -5 35529.6 369.634   6
   4   0   5 35882.1 391.753   1
  -4   0  -5 36032.0 416.401   3
   4   0   6 3447.10 147.813   1
  -4   0  -6 3657.14 148.965   3
   4   0   7 9158.54 209.525   1
  -4   0  -7 8820.11 224.501   3
   4   0   8 605.950 84.4534   1
  -4   0  -8 530.841 81.0277   3
   4   0   9 1729.44 112.414   1
  -4   0  -9 1603.90 120.315   3
   4   0  10 26.8030 80.2555   1
   4   0  11 479.458 82.0713   1
   4   0  12 132.876 65.3387   1
   4   0  12-269.505 94.6381   0
   4   0  13 117.342 83.0548   1
   4   0  13-97.4875 103.237   0
   4   0  14 1413.51 164.643   0
   4   0  14 1372.06 116.022   1
  -4  -1  14-155.202 131.777   2
  -4  -1  13 14.5299 99.8907   2
  -4  -1  13-1.01439 120.746   1
  -4  -1  12 954.898 114.834   2
  -4  -1  12 1085.00 135.926   1
  -4  -1  11-3.42379 74.5105   2
  -4  -1  11 115.762 83.9087   1
  -4  -1  10-114.326 76.8410   2
  -4  -1  10 18.1941 76.3264   1
  -4  -1   9 129.134 67.8286   2
  -4  -1   9 269.753 94.8100   1
  -4  -1   8 8651.61 236.401   2
  -4  -1   8 9036.44 244.192   1
  -4  -1   8 9000.32 222.942   6
  -4  -1   7-14.8815 70.9614   2
  -4  -1   7-96.1176 58.4525   6
  -4  -1   7 7.03679 86.3619   1
  -4  -1   6 5184.98 171.560   2
  -4  -1   6 5294.97 179.452   1
  -4  -1   6 5021.40 167.573   6
  -4  -1   5 935.868 90.4514   2
  -4  -1   5 690.936 92.4801   1
  -4  -1   5 733.637 88.3761   6
  -4  -1   4 2190.55 115.053   2
  -4  -1   4 2146.66 118.526   6
  -4  -1   3 76.0253 61.1733   2
  -4  -1   3 105.202 57.4436   6
  -4  -1   2 9051.54 194.378   2
  -4  -1   2 8854.52 202.272   6
  -4  -1   1 4374.08 144.623   6
  -4  -1   1 4281.25 140.653   2
  -4  -1   0 1805.41 101.868   6
  -4  -1   0 1980.00 99.3704   2
  -4  -1  -1 26.4222 54.0209   2
  -4  -1  -1 112.935 53.7719   6
  -4  -1  -2 57282.1 474.538   6
  -4  -1  -2 57692.6 439.923   2
  -4  -1  -3 2020.58 100.597   6
  -4  -1  -3 1826.88 96.5922   2
   4   1   4 27.1294 68.7182   1
  -4  -1  -4 54.0303 53.1307   6
  -4  -1  -5 24767.1 301.342   6
   4   1   5 24982.6 321.528   1
  -4  -1  -6 21965.7 278.717   6
   4   1   6 21804.3 303.100   1
   4   1   7 4509.25 154.443   1
   4   1   8 709.620 86.5878   1
   4   1   9 5404.41 166.369   1
   4   1  10 12893.2 247.382   1
   4   1  11 1358.53 113.532   1
   4   1  12 2368.71 132.798   1
   4   1  13 1099.34 100.073   1
   4   1  14 59.1174 82.6147   1
   4   1  15 417.177 102.060   1
  -4  -2  14-10.4919 127.113   2
  -4  -2  13 100.700 119.885   2
  -4  -2  12 340.235 103.841   2
  -4  -2  11 665.175 108.336   2
  -4  -2  11 664.916 109.608   1
  -4  -2  10 192.777 84.8175   2
  -4  -2  10 138.470 92.3563   1
  -4  -2   9 1882.66 133.851   2
  -4  -2   9 1955.18 135.348   1
  -4  -2   8 3535.12 169.533   2
  -4  -2   8 3103.34 151.227   1
  -4  -2   7 5714.82 202.300   2
  -4  -2   7 5755.48 189.453   1
  -4  -2   7 5582.49 175.322   6
  -4  -2   6 35.1064 76.7811   2
  -4  -2   6-21.7856 63.1957   6
  -4  -2   6-27.5645 72.5843   1
  -4  -2   5 94.2315 75.4029   2
  -4  -2   5-59.4352 67.4866   6
  -4  -2   5 25.5477 65.4497   1
  -4  -2   4 16405.7 288.330   2
  -4  -2   4 15730.1 272.952   6
  -4  -2   3 1458.61 99.6585   2
  -4  -2   3 1594.09 101.151   6
  -4  -2   2 3119.50 129.778   2
  -4  -2   2 2770.33 125.835   6
  -4  -2   1 1016.54 86.5920   2
  -4  -2   1 780.942 82.2075   6
  -4  -2   0 8168.20 192.593   6
  -4  -2   0 8228.72 193.992   2
  -4  -2  -1 35160.2 380.656   6
  -4  -2  -1 35193.4 374.887   2
  -4  -2  -2 666.940 80.0793   2
  -4  -2  -2 579.947 77.8005   6
  -4  -2  -3 10076.2 200.875   6
  -4  -2  -3 10532.9 202.782   2
  -4  -2  -4 1068.09 74.3459   6
   4   2   4 1069.01 86.0203   1
  -4  -2  -4 1175.46 84.7830   2
  -4  -2  -5 10739.3 199.571   6
   4   2   5 10491.3 208.035   1
  -4  -2  -6 6795.80 162.980   6
   4   2   6 7311.76 180.415   1
   4   2   7 2661.80 122.781   1
   4   2   8 2629.94 119.933   1
   4   2   9 1228.92 99.8597   1
   4   2  10 6.61974 71.1397   1
   4   2  11 3204.77 140.510   1
   4   2  12 57.4255 76.2605   1
   4   2  13 339.230 86.3958   1
   4   2  14 301.968 81.9600   1
   4   2  15 214.290 94.6341   1
  -4  -3  13-16.2756 110.854   2
  -4  -3  12 1416.97 157.329   2
  -4  -3  11-28.0829 98.4284   2
  -4  -3  10 20.7951 81.7321   2
  -4  -3   9 12.9593 90.7704   2
  -4  -3   8 99.5527 90.7802   2
  -4  -3   7 350.799 96.0132   2
  -4  -3   7 254.018 75.0167   1
  -4  -3   6 5794.14 208.284   2
  -4  -3   6 5551.70 178.401   1
  -4  -3   5 219.678 105.660   2
  -4  -3   4 49738.4 522.391   2
  -4  -3   3 16.1082 83.6844   2
  -4  -3   2 12198.5 251.498   2
  -4  -3   2 12221.4 233.660   6
  -4  -3   1 8506.03 209.924   2
  -4  -3   1 8432.13 195.585   6
  -4  -3   0 19089.9 283.404   6
  -4  -3   0 18710.8 302.247   2
  -4  -3  -1 3910.60 135.584   6
  -4  -3  -1 3755.36 148.109   2
  -4  -3  -2 180.005 70.3272   2
  -4  -3  -2 251.163 59.0745   6
   4   3   3 1480.67 90.0996   1
  -4  -3  -3 1785.33 108.116   2
   4   3   4 23858.6 290.522   1
  -4  -3  -4 23839.8 315.670   2
   4   3   5 1941.36 100.192   1
   4   3   6 37659.9 367.169   1
   4   3   7 12637.9 219.948   1
   4   3   8 1847.16 106.575   1
   4   3   9-16.5320 69.9182   1
   4   3  10 2050.38 112.980   1
   4   3  11 1559.27 109.840   1
   4   3  12 353.898 90.0404   1
   4   3  13 2187.55 124.671   1
   4   3  14 1659.02 123.307   1
   4   3  15 204.467 89.1688   1
  -4  -4  12 715.842 141.994   2
  -4  -4  11 426.361 113.661   2
  -4  -4  10 586.623 109.278   2
  -4  -4   9 182.034 97.1513   2
  -4  -4   8 201.669 95.1038   2
  -4  -4   7 21.2564 90.4157   2
  -4  -4   6 39.5170 98.1445   2
  -4  -4   5 3225.98 180.256   2
  -4  -4   4 8114.61 244.384   2
  -4  -4   3 19216.2 339.376   2
  -4  -4   2 181.428 79.7431   2
  -4  -4   1 1590.77 117.773   2
  -4  -4   0 476.022 111.535   2
  -4  -4  -1 62762.0 555.560   2
  -4  -4  -2 36147.4 294.634   0
   4   4   2 34666.7 326.293   1
  -4  -4  -2 36253.6 419.321   2
  -4  -4  -3 7930.72 145.667   0
   4   4   3 7652.47 162.434   1
  -4  -4  -3 7978.35 211.688   2
  -4  -4  -4 2128.34 85.1520   0
   4   4   4 2027.38 95.3656   1
  -4  -4  -4 1921.37 114.617   2
   4   4   5 9139.08 181.759   1
  -4  -4  -5 9254.96 215.079   2
   4   4   6 1738.83 91.8614   1
   4   4   7 1634.82 101.434   1
   4   4   8 16693.2 251.426   1
   4   4   9 7741.14 184.426   1
   4   4  10-1.53249 61.4169   1
   4   4  11 1980.84 116.753   1
   4   4  12 1340.19 111.743   1
   4   4  13 2018.79 130.219   1
   4   4  14 880.910 120.417   1
   4   4  14 440.195 123.125   4
   4   4  15 1317.46 132.303   1
  -4  -5  12 223.411 167.840   2
  -4  -5  11 2233.17 211.997   2
  -4  -5  10 3417.19 230.973   2
  -4  -5   9 1098.83 154.989   2
  -4  -5   8 3320.89 195.930   2
  -4  -5   7-37.8300 99.3978   2
  -4  -5   6 481.369 116.319   2
  -4  -5   5 1023.72 138.681   2
  -4  -5   4 4663.67 207.863   2
  -4  -5   3 21010.1 376.002   2
  -4  -5   2 1794.42 139.585   2
  -4  -5   1 143.810 90.7376   2
   4   5  -1 178.810 43.7197   4
   4   5   0 42439.3 350.065   4
  -4  -5   0 41613.1 368.311   0
  -4  -5   0 42163.8 489.521   2
  -4  -5  -1 0.39219 52.1553   0
  -4  -5  -1 110.776 85.4431   2
   4   5   1 28.2796 51.1189   4
  -4  -5  -2 86.1738 83.7517   2
   4   5   2 82.2982 47.6542   1
  -4  -5  -2 56.6983 48.3165   0
  -4  -5  -3-7.85630 81.1166   2
   4   5   3 31.1566 45.5135   1
  -4  -5  -3 58.9138 50.1016   0
  -4  -5  -4 10907.6 195.986   0
   4   5   4 10511.3 185.355   1
  -4  -5  -4 10064.4 235.872   2
  -4  -5  -5 208.154 83.6317   2
   4   5   5 122.973 51.2301   1
  -4  -5  -5 92.1392 55.8257   0
  -4  -5  -6-16.4114 67.3953   0
   4   5   6-97.5731 68.0663   1
   4   5   7-79.4149 69.0576   1
   4   5   8 20723.2 278.999   1
   4   5   9 1151.05 93.2527   1
   4   5  10 3038.50 129.048   1
   4   5  11 1112.86 99.8996   1
   4   5  11 1116.91 127.797   4
   4   5  12 376.119 90.3271   1
   4   5  12 325.865 101.061   4
   4   5  13 124.681 86.6501   1
   4   5  13 25.5091 115.237   4
   4   5  14 1968.69 137.763   1
   4   5  14 1839.62 168.240   4
   4   5  15 47.8490 85.2344   1
   4   5  15 16.9619 116.375   4
  -4  -6  11 544.652 174.696   2
  -4  -6  10 424.617 164.291   2
  -4  -6   9 466.431 158.261   2
  -4  -6   8 289.014 121.778   2
  -4  -6   7 30.9773 96.4455   2
  -4  -6   6 716.194 137.586   2
  -4  -6   5 594.136 119.831   2
  -4  -6   4 41.8310 104.630   2
  -4  -6   3 10282.1 285.570   2
  -4  -6   2 280.980 108.053   2
  -4  -6   1 4080.77 180.058   2
  -4  -6   1 4456.39 152.611   0
   4   6   0 2046.83 93.2516   4
  -4  -6   0 2112.82 114.143   0
  -4  -6   0 2133.33 147.458   2
   4   6   1 5715.93 146.010   4
  -4  -6  -1 5748.39 165.325   0
  -4  -6  -1 5854.39 208.521   2
   4   6   2 5667.51 150.727   4
  -4  -6  -2 5365.90 195.552   2
  -4  -6  -2 5477.15 156.753   0
  -4  -6  -3 1670.63 95.9640   0
   4   6   3 1845.74 81.0488   1
   4   6   3 1734.86 99.4382   4
  -4  -6  -3 1723.32 133.649   2
  -4  -6  -4-14.6877 96.9623   2
   4   6   4 149.831 46.7130   1
   4   6   4 29.5430 70.1454   4
  -4  -6  -4 9.00975 64.5666   0
  -4  -6  -5 25748.2 336.891   0
   4   6   5 26801.5 279.571   1
   4   6   5 27498.5 364.123   4
  -4  -6  -5 25863.6 378.673   2
  -4  -6  -6 19755.7 305.934   0
   4   6   6 19735.5 249.722   1
   4   6   6 20320.2 332.298   4
  -4  -6  -6 19675.5 338.120   2
  -4  -6  -7 281.704 91.0323   0
   4   6   7 246.286 68.0050   1
   4   6   7 166.374 105.959   4
  -4  -6  -8 8773.01 226.325   0
   4   6   8 8772.41 186.123   1
   4   6   8 8461.46 246.741   4
   4   6   9 962.401 84.1597   1
   4   6   9 823.062 123.468   4
   4   6  10 2634.12 163.333   4
   4   6  10 2573.70 120.439   1
   4   6  11 142.444 69.3759   1
   4   6  11 3.89308 99.0178   4
   4   6  12 1133.43 106.984   1
   4   6  12 984.421 142.236   4
   4   6  13 3148.06 146.848   1
   4   6  13 3209.45 193.272   4
   4   6  14 170.412 98.9301   1
   4   6  14 316.620 110.693   4
   4   6  15 1079.16 112.284   1
   4   6  15 1212.12 160.896   4
   4   6  16 162.385 122.114   4
  -4  -7  10 199.088 148.205   2
  -4  -7   9 4098.84 262.466   2
  -4  -7   8 67.2399 141.351   2
  -4  -7   7 709.991 152.637   2
  -4  -7   6 343.437 125.995   2
  -4  -7   5 55.4354 96.2459   2
  -4  -7   4 226.654 97.3211   2
  -4  -7   3 1300.74 139.905   2
  -4  -7   2 567.387 124.209   2
  -4  -7   2 306.271 89.5692   0
  -4  -7   1 5127.39 206.856   2
  -4  -7   1 4165.98 168.343   0
  -4  -7   0 3913.37 160.555   0
  -4  -7   0 4123.67 200.518   2
  -4  -7  -1 718.603 128.677   2
   4   7   1 933.353 77.1322   4
  -4  -7  -1 824.032 92.0362   0
   4   7   2 2462.93 110.829   4
  -4  -7  -2 2390.12 125.896   0
  -4  -7  -2 2456.43 157.557   2
   4   7   3 460.662 73.1264   4
  -4  -7  -3 502.829 118.704   2
  -4  -7  -3 376.405 80.9596   0
  -4  -7  -4 8303.77 210.970   0
   4   7   4 8552.60 204.663   4
  -4  -7  -4 8367.08 241.611   2
  -4  -7  -5 946.298 106.543   0
   4   7   5 1117.87 109.135   4
  -4  -7  -5 911.104 123.285   2
  -4  -7  -6 16472.0 303.452   0
   4   7   6 16265.7 222.367   1
   4   7   6 16728.6 301.993   4
  -4  -7  -6 15939.9 316.450   2
  -4  -7  -7 717.016 103.763   0
   4   7   7 984.445 78.5263   1
   4   7   7 821.648 115.009   4
  -4  -7  -8 5354.14 202.045   0
   4   7   8 6209.98 157.014   1
   4   7   8 5806.79 205.781   4
   4   7   9 3303.11 126.039   1
   4   7   9 2966.26 167.113   4
   4   7  10 74.6344 62.6137   1
   4   7  10-13.6439 93.0298   4
   4   7  11 989.020 91.4934   1
   4   7  11 854.618 124.370   4
   4   7  12 1149.41 108.233   1
   4   7  12 1101.92 133.788   4
   4   7  13 83.8867 73.8231   1
   4   7  13 20.9436 116.501   4
   4   7  14 637.989 91.8429   1
   4   7  14 710.587 135.488   4
   4   7  15 45.8089 81.6832   1
   4   7  15 76.9266 125.999   4
  -4  -8   9 318.787 154.476   2
  -4  -8   8 277.992 164.445   2
  -4  -8   7 221.982 116.668   2
  -4  -8   6 0.00000 112.650   2
  -4  -8   5 79.0178 120.168   2
  -4  -8   4-0.55763 107.511   2
  -4  -8   3 40.3569 110.951   2
  -4  -8   3 134.283 88.6088   0
  -4  -8   2 44.0560 99.4799   2
  -4  -8   2-145.538 77.2859   0
  -4  -8   1 12617.7 316.515   2
  -4  -8   1 9458.90 264.890   0
  -4  -8   0 1513.91 135.814   0
  -4  -8   0 1727.87 172.780   2
  -4  -8  -1 190.851 132.490   2
  -4  -8  -1 189.037 94.7248   0
  -4  -8  -2 3173.04 167.895   0
  -4  -8  -2 3428.35 192.086   2
   4   8   3 13239.7 247.207   4
  -4  -8  -3 13055.5 305.616   2
  -4  -8  -3 12263.1 279.380   0
  -4  -8  -4 6279.44 212.815   0
   4   8   4 6570.48 188.376   4
  -4  -8  -4 5956.43 218.761   2
  -4  -8  -5 7256.46 222.038   0
  -4  -8  -5 6817.72 234.864   2
  -4  -8  -6 10301.9 269.418   0
   4   8   6 10618.1 248.082   4
  -4  -8  -6 10738.2 277.791   2
  -4  -8  -7 523.747 105.537   0
   4   8   7 922.522 108.786   4
  -4  -8  -8 9791.02 268.315   0
   4   8   8 9699.47 254.426   4
  -4  -8  -9 11935.7 301.847   0
   4   8   9 11403.1 212.810   1
   4   8   9 11896.5 288.547   4
   4   8  10 287.276 70.2261   1
  -4  -8 -10 234.447 109.136   0
   4   8  10 315.331 115.447   4
   4   8  11 125.341 64.9505   1
   4   8  11 63.9566 95.0446   4
   4   8  12 137.971 68.5666   1
   4   8  12 146.903 108.525   4
   4   8  13 453.655 76.9459   1
   4   8  13 257.474 103.869   4
   4   8  14 3.23903 65.5202   1
   4   8  14-54.9411 105.637   4
  -4  -9   8-44.2105 186.274   2
  -4  -9   7-113.633 155.327   2
  -4  -9   6 505.673 143.980   2
  -4  -9   5 1758.52 179.825   2
  -4  -9   4 731.621 130.794   2
  -4  -9   3 74.2476 104.169   2
  -4  -9   3-121.550 101.646   0
  -4  -9   2 148.896 102.315   2
  -4  -9   2-11.5412 100.150   0
  -4  -9   1 3542.70 201.065   2
  -4  -9   1 3772.40 199.245   0
  -4  -9   0 2557.13 169.114   0
  -4  -9   0 2524.46 179.924   2
  -4  -9  -1-9.05121 133.187   2
  -4  -9  -1 110.708 99.5754   0
  -4  -9  -2 1663.90 145.337   0
  -4  -9  -2 1604.38 156.113   2
  -4  -9  -3 2651.97 165.778   0
  -4  -9  -3 2759.28 168.714   2
  -4  -9  -4 6895.70 234.499   2
  -4  -9  -4 7171.65 238.898   0
  -4  -9  -5 2304.50 152.752   0
  -4  -9  -5 2655.43 162.384   2
  -4  -9  -6 84.1372 95.8348   2
  -4  -9  -6 120.484 95.4348   0
  -4  -9  -7-134.541 113.192   0
   4   9   7 91.2619 83.4713   4
  -4  -9  -8 75.0609 92.9653   0
   4   9   8 33.4719 90.0952   4
  -4  -9  -9 410.364 123.439   0
   4   9   9 344.038 100.927   4
   4   9  10 1004.43 127.944   4
  -4  -9 -10 961.419 146.611   0
  -4  -9 -11 725.908 142.651   0
   4   9  11 589.424 112.442   4
   4   9  12 99.2368 118.542   4
   4   9  13 41.9857 67.9888   1
   4   9  13-208.748 103.399   4
   4   9  14 158.303 85.3381   1
  -4 -10   6-32.7456 178.921   2
  -4 -10   5 366.081 134.808   2
  -4 -10   4 450.817 157.598   2
  -4 -10   4 104.464 113.899   0
  -4 -10   3 525.973 136.042   2
  -4 -10   3 169.257 111.551   0
  -4 -10   2 96.9288 127.642   2
  -4 -10   2-138.263 112.779   0
  -4 -10   1 1559.99 169.203   0
  -4 -10   1 1763.87 169.655   2
  -4 -10   0 2728.46 182.555   0
  -4 -10   0 2606.45 174.460   2
  -4 -10  -1-353.292 103.778   2
  -4 -10  -1-78.5628 112.499   0
  -4 -10  -2 337.320 139.694   2
  -4 -10  -2 292.151 108.226   0
  -4 -10  -3 2380.31 172.604   0
  -4 -10  -3 2106.14 160.079   2
  -4 -10  -4 341.207 122.233   2
  -4 -10  -4 605.430 128.964   0
  -4 -10  -5 41.8375 105.599   2
  -4 -10  -5 189.251 85.7493   0
  -4 -10  -6-36.4988 92.8849   2
  -4 -10  -6-135.982 106.478   0
  -4 -10  -7 1286.26 136.382   0
  -4 -10  -8 1991.85 166.435   0
  -4 -10  -9 3648.14 212.713   0
  -4 -10 -10 1629.08 167.385   0
  -4 -10 -11-24.7428 122.306   0
  -4 -10 -12 159.230 103.952   0
  -4 -11   4 134.098 169.906   0
  -4 -11   3-189.816 148.070   0
  -4 -11   2 26.6415 121.814   0
  -4 -11   1 114.217 120.948   0
  -4 -11   0 665.588 142.698   0
  -4 -11  -1 58.2296 97.6125   2
  -4 -11  -1-159.282 110.991   0
  -4 -11  -2 302.721 110.431   2
  -4 -11  -2 340.911 105.296   0
  -4 -11  -3 1436.81 147.489   0
  -4 -11  -4 343.363 117.001   0
  -4 -11  -5 94.1130 90.0926   0
  -4 -11  -6 252.827 91.6964   0
  -4 -11  -7-71.9246 103.342   0
  -4 -11  -8 188.931 110.011   0
  -4 -11  -9-17.8473 103.379   0
  -4 -11 -10 181.232 101.652   0
  -4 -11 -11 251.602 128.003   0
  -4 -12   2-69.4531 145.887   0
  -4 -12   1 170.120 148.728   0
  -4 -12   0 248.733 133.766   0
  -4 -12  -1 58.6380 123.794   0
  -4 -12  -2 1068.71 158.181   0
  -4 -12  -3 723.104 134.005   0
  -4 -12  -4 244.666 134.132   0
  -4 -12  -5-94.2126 134.251   0
  -4 -12  -6 225.164 115.580   0
  -4 -12  -7 469.754 120.908   0
  -4 -12  -8-77.5570 142.971   0
  -4 -12  -9-198.584 149.061   0
  -5   8   8 227.893 123.778   5
  -5   8   3 192.776 76.7020   6
  -5   8   3-224.001 100.606   3
  -5   8   2 336.318 94.2436   6
  -5   8   2-132.354 98.1381   3
  -5   8   1 281.846 95.9675   6
  -5   8   1-151.995 119.304   3
  -5   8   0 371.400 102.492   6
  -5   8   0 13.9974 104.642   3
  -5   8  -1 442.016 100.658   6
  -5   8  -2 140.630 79.7681   6
  -5   7  10-151.219 112.424   6
  -5   7   9 110.354 98.1920   6
  -5   7   8 919.919 125.609   6
  -5   7   8 1006.63 121.213   5
  -5   7   7 534.368 114.981   6
  -5   7   6-16.9867 105.460   6
  -5   7   5 761.017 113.550   6
  -5   7   4 339.000 104.415   6
  -5   7   4-115.406 97.2079   3
  -5   7   3 14.6259 86.9080   6
  -5   7   3-185.363 100.263   3
  -5   7   2 97.3451 74.6278   6
  -5   7   2-227.532 106.037   3
  -5   7   1 177.142 86.1610   6
  -5   7   1-4.45172 115.616   3
  -5   7   0 306.664 85.4166   6
  -5   7   0 242.288 94.2034   3
  -5   7  -1 706.521 96.3372   6
  -5   7  -1 368.143 124.619   3
  -5   7  -2 256.249 71.4112   6
  -5   7  -2 75.6566 115.796   3
  -5   7  -3 446.645 90.3520   6
  -5   7  -3-53.4863 108.305   3
  -5   6  10-366.703 119.632   6
  -5   6   9 2.19953 111.261   6
  -5   6   8 326.964 110.506   6
  -5   6   7 67.3865 80.2967   6
  -5   6   6-53.1954 92.1227   6
  -5   6   5 217.686 105.999   6
  -5   6   4 1428.32 133.019   6
  -5   6   4 1752.03 138.902   3
  -5   6   3 503.165 105.829   6
  -5   6   3 562.057 104.522   3
  -5   6   2 142.391 91.1278   6
  -5   6   2-132.056 86.7395   3
  -5   6   1 117.564 87.4019   6
  -5   6   1 34.6394 89.4506   3
  -5   6   0 660.414 99.2104   6
  -5   6   0 615.094 122.828   3
  -5   6  -1 851.415 95.8355   6
  -5   6  -1 716.840 116.908   3
  -5   6  -2 1750.66 132.661   6
  -5   6  -2 1279.02 144.571   3
  -5   6  -3 313.327 84.1928   6
  -5   6  -3 70.1773 99.0687   3
  -5   6  -4 1777.57 140.105   3
  -5   6  -5 124.241 96.7225   3
  -5   5  11-364.922 105.750   1
  -5   5  10-199.666 85.6352   6
  -5   5  10-467.030 113.549   1
  -5   5   9-24.6443 90.7693   6
  -5   5   8-419.393 90.5380   1
  -5   5   8-186.814 91.5135   6
  -5   5   7 118.875 81.3437   6
  -5   5   6 1406.90 140.735   6
  -5   5   5 1600.97 134.768   6
  -5   5   4 266.657 105.876   6
  -5   5   3 238.836 89.8528   6
  -5   5   3 280.926 92.2240   3
  -5   5   2 35.6315 85.5455   6
  -5   5   2 257.965 91.7923   3
  -5   5   1-4.13403 77.4522   6
  -5   5   1-45.1770 93.8494   3
  -5   5   0 252.128 90.0911   6
  -5   5   0 71.0256 94.4570   3
  -5   5  -1 413.561 91.9974   6
  -5   5  -1 388.675 96.0604   3
  -5   5  -2 180.832 63.7535   6
  -5   5  -2-55.2504 95.4393   3
  -5   5  -3 323.652 80.9070   6
  -5   5  -3 116.474 93.4218   3
  -5   5  -4 595.421 94.0049   6
  -5   5  -4 498.295 116.753   3
  -5   5  -5 381.508 87.5582   3
  -5   5  -6 11.6683 93.1653   3
  -5   5  -7-84.0687 103.019   3
  -5   5  -8 86.4526 107.467   3
  -5   4  12-467.390 109.179   1
  -5   4  11-153.025 120.480   1
  -5   4  10 39.3040 89.6626   6
  -5   4  10-354.249 93.8729   1
  -5   4   9-148.020 91.7518   6
  -5   4   9-353.300 97.8418   1
  -5   4   8 276.882 109.993   6
  -5   4   8 77.1529 109.056   1
  -5   4   7 242.927 96.2009   6
  -5   4   6 2062.41 149.199   6
  -5   4   5 345.847 111.144   6
  -5   4   4 1779.41 141.365   6
  -5   4   3 808.596 108.540   6
  -5   4   2 2265.81 153.664   6
  -5   4   1 3971.56 184.423   6
  -5   4   1 4307.21 188.785   3
  -5   4   0 7371.95 237.704   6
  -5   4   0 7148.97 238.446   3
  -5   4  -1 6849.26 228.393   6
  -5   4  -1 6946.69 244.090   3
  -5   4  -2 767.235 99.4837   6
  -5   4  -2 666.709 107.807   3
  -5   4  -3 459.474 93.5371   6
  -5   4  -3 365.600 102.557   3
  -5   4  -4 3543.45 165.960   6
  -5   4  -4 3953.03 202.802   3
   5  -4   5 311.677 102.464   1
  -5   4  -5 233.222 80.7215   3
   5  -4   6 66.1538 93.3213   1
  -5   4  -6-39.2283 86.1919   3
  -5   4  -7 111.877 94.3425   3
  -5   4  -8 741.939 116.882   3
  -5   4  -9-209.522 113.308   3
  -5   4 -10 288.904 95.6385   3
  -5   3  12 614.307 135.656   1
  -5   3  11 504.291 145.096   1
  -5   3  10 1044.15 111.519   6
  -5   3  10 732.825 140.061   1
  -5   3   9 687.832 113.262   6
  -5   3   9 493.464 129.125   1
  -5   3   8 302.758 88.7023   6
  -5   3   8 155.113 110.227   1
  -5   3   7-521.382 115.944   1
  -5   3   7 157.946 74.3251   6
  -5   3   6 775.276 109.902   6
  -5   3   5 6729.34 233.751   6
  -5   3   4 2424.74 158.181   6
  -5   3   3 403.088 98.6524   6
  -5   3   2 53.5735 89.1434   6
  -5   3   1 1360.72 126.928   6
  -5   3   0 520.210 94.5615   6
  -5   3   0 455.412 98.4580   3
  -5   3  -1 244.896 90.4616   6
  -5   3  -1 126.426 91.6024   3
  -5   3  -2 3752.18 176.354   6
  -5   3  -2 3327.20 179.446   3
  -5   3  -3 818.992 97.8497   6
  -5   3  -3 786.840 114.495   3
  -5   3  -4 2188.66 135.097   6
  -5   3  -4 2251.75 160.392   3
   5  -3   5 1561.61 139.091   1
  -5   3  -5 1163.11 131.401   3
   5  -3   6 942.725 124.886   1
  -5   3  -6 664.201 112.050   3
   5  -3   7 1648.41 136.586   1
  -5   3  -7 1129.26 135.660   3
   5  -3   8 18.8758 85.2942   1
  -5   3  -8-120.770 92.0983   3
   5  -3   9 706.462 95.7585   1
  -5   3  -9 463.451 103.587   3
  -5   3 -10-177.910 91.2165   3
  -5   2  13 1233.89 184.003   1
  -5   2  12 120.589 128.741   1
  -5   2  11 25.6574 136.331   1
  -5   2  10 183.483 114.574   1
  -5   2   9 206.520 86.5651   6
  -5   2   9 35.6752 105.498   1
  -5   2   8 528.246 102.721   6
  -5   2   8 245.146 105.813   1
  -5   2   7 876.556 108.738   6
  -5   2   7 505.837 124.764   1
  -5   2   6 254.340 91.3121   6
  -5   2   5 9624.16 264.001   6
  -5   2   4 128.556 85.0170   6
  -5   2   3 5727.25 205.102   6
  -5   2   2 2112.83 137.308   6
  -5   2   1 935.805 109.224   6
  -5   2   0 5037.25 195.796   6
  -5   2  -1 16040.4 321.141   6
  -5   2  -2 2239.78 139.608   6
  -5   2  -2 1998.21 142.354   3
  -5   2  -3 9916.02 253.488   6
  -5   2  -3 10719.5 279.000   3
  -5   2  -4 9924.37 247.396   6
  -5   2  -4 9876.53 275.052   3
   5  -2   5 8941.96 249.379   1
  -5   2  -5 8410.61 255.818   3
   5  -2   6 51.3901 83.7374   1
  -5   2  -6 72.4415 78.0807   3
   5  -2   7 441.057 95.3534   1
  -5   2  -7 294.680 91.2609   3
   5  -2   8 1436.85 131.670   1
  -5   2  -8 1078.58 120.629   3
   5  -2   9 47.2650 72.5913   1
  -5   2  -9-392.209 91.9406   3
   5  -2  10-101.047 84.7107   1
  -5   2 -10-158.974 93.1787   3
   5  -2  11-286.301 93.6036   1
   5  -2  12 989.608 103.708   1
  -5   1  13 446.916 128.789   1
  -5   1  12 592.564 146.369   1
  -5   1  11 605.653 124.812   1
  -5   1  10 1680.77 161.484   1
  -5   1   9 33.3218 84.1609   6
  -5   1   9 106.780 106.340   1
  -5   1   8 892.105 113.994   6
  -5   1   8 553.783 118.841   1
  -5   1   7 94.9372 72.8716   6
  -5   1   7 12.0274 101.956   1
  -5   1   6 1761.76 124.487   6
  -5   1   5 6349.24 219.566   6
  -5   1   4 2380.31 145.297   6
  -5   1   3-41.2378 80.0395   6
  -5   1   2 315.921 81.9948   6
  -5   1   1 1295.38 109.695   6
  -5   1   0 8393.88 233.368   6
  -5   1  -1 5085.76 188.153   6
  -5   1  -2 4287.46 176.973   6
  -5   1  -3 7172.04 217.670   6
  -5   1  -4-5.59923 74.5389   6
  -5   1  -5 3612.51 157.558   6
   5  -1   5 3752.69 176.655   1
  -5   1  -5 3850.33 181.182   3
   5  -1   6 53.2971 98.3212   1
  -5   1  -6 52.4041 84.0846   3
   5  -1   7 5168.73 190.405   1
  -5   1  -7 4614.73 195.036   3
   5  -1   8-5.17966 81.4581   1
  -5   1  -8-10.9736 73.3458   3
   5  -1   9-48.8825 80.7108   1
  -5   1  -9-90.2967 71.1755   3
   5  -1  10-132.150 70.1233   1
   5  -1  11 1148.73 107.680   1
   5  -1  12 64.6049 75.7537   1
  -5   0  13 304.852 134.873   1
  -5   0  12 277.353 117.558   1
  -5   0  11 673.262 100.331   2
  -5   0  11 526.088 131.087   1
  -5   0  10 44.8751 80.5908   2
  -5   0  10-5.52339 110.882   1
  -5   0   9 2838.55 149.207   2
  -5   0   9 3008.10 182.964   1
  -5   0   9 3091.48 165.860   6
  -5   0   8 1125.19 101.916   2
  -5   0   8 1134.92 118.372   6
  -5   0   8 1000.37 128.742   1
  -5   0   7 1418.29 110.527   2
  -5   0   7 1359.53 108.966   6
  -5   0   7 1502.50 133.918   1
  -5   0   6 1431.28 106.671   2
  -5   0   6 1725.45 123.680   6
  -5   0   5 4879.70 172.221   2
  -5   0   5 4850.48 186.463   6
  -5   0   4 1420.89 105.164   2
  -5   0   4 1238.27 130.074   6
  -5   0   3 169.794 69.8235   2
  -5   0   3 73.2657 93.5572   6
  -5   0   2 775.719 101.532   6
  -5   0   2 824.640 91.2952   2
  -5   0   1 4015.02 170.206   6
  -5   0   1 3682.03 137.735   2
  -5   0   0 7036.90 210.920   6
  -5   0   0 6954.78 174.753   2
  -5   0  -1 2729.79 142.170   6
  -5   0  -1 2669.64 115.414   2
  -5   0  -2 6608.30 206.624   6
  -5   0  -2 6720.83 162.247   2
  -5   0  -3 35180.9 436.691   6
  -5   0  -4 4690.84 168.935   6
  -5   0  -5 7608.28 205.725   6
   5   0   5 7802.40 224.472   1
   5   0   6 9181.32 243.170   1
   5   0   7 13120.9 275.792   1
   5   0   8 3790.83 167.481   1
   5   0   9 2593.58 135.040   1
   5   0  10 548.761 86.8804   1
   5   0  11 54.9513 68.9946   1
   5   0  12 579.592 89.7211   1
   5   0  13 206.893 95.5748   1
  -5  -1  13 21.2077 140.051   2
  -5  -1  13 184.943 153.338   1
  -5  -1  12 418.167 125.986   2
  -5  -1  12-310.328 140.110   1
  -5  -1  11 1326.61 132.466   2
  -5  -1  11 1039.90 169.390   1
  -5  -1  10 363.336 79.9855   2
  -5  -1  10 222.431 96.2910   1
  -5  -1   9 1202.90 117.669   2
  -5  -1   9 946.064 106.630   6
  -5  -1   9 821.428 131.855   1
  -5  -1   8 2171.89 140.105   2
  -5  -1   8 2179.28 155.503   1
  -5  -1   8 2092.64 141.730   6
  -5  -1   7 33.9239 70.9403   2
  -5  -1   7 23.7701 91.8726   1
  -5  -1   7 82.0869 69.1137   6
  -5  -1   6 1644.47 125.444   2
  -5  -1   6 1353.79 118.233   6
  -5  -1   5-44.0336 79.2650   2
  -5  -1   5-69.1933 83.4617   6
  -5  -1   4 24495.7 367.659   2
  -5  -1   4 23819.8 380.989   6
  -5  -1   3 5273.67 178.877   2
  -5  -1   3 4956.10 188.165   6
  -5  -1   2 830.911 104.722   2
  -5  -1   2 974.822 110.331   6
  -5  -1   1 2496.96 144.437   6
  -5  -1   1 2890.88 137.187   2
  -5  -1   0 5820.50 191.061   6
  -5  -1   0 5811.07 173.287   2
  -5  -1  -1 5866.26 189.629   6
  -5  -1  -1 5661.69 169.872   2
  -5  -1  -2 21426.8 340.509   6
  -5  -1  -2 21153.1 300.562   2
  -5  -1  -3 713.345 99.4304   6
  -5  -1  -3 663.164 80.5140   2
  -5  -1  -4 16738.1 298.379   6
   5   1   4 17153.9 305.884   1
  -5  -1  -5 2115.01 122.873   6
   5   1   5 2032.58 133.967   1
   5   1   6 4484.47 180.725   1
   5   1   7 3519.74 164.823   1
   5   1   8 1533.34 121.520   1
   5   1   9-20.6773 86.8206   1
   5   1  10 463.345 90.5690   1
   5   1  11 1259.95 106.445   1
   5   1  12 364.969 88.0624   1
   5   1  13-10.1607 77.5299   1
  -5  -2  13 182.774 155.190   2
  -5  -2  12 311.390 115.025   2
  -5  -2  11 1734.77 152.021   2
  -5  -2  10 560.573 98.7348   2
  -5  -2  10 49.9028 102.984   1
  -5  -2   9 674.538 106.373   2
  -5  -2   9 594.042 109.031   1
  -5  -2   8 514.692 107.225   2
  -5  -2   8 518.420 85.8010   6
  -5  -2   8 273.855 92.3314   1
  -5  -2   7 155.792 82.5775   2
  -5  -2   7 37.9193 81.9860   6
  -5  -2   6 522.351 95.1667   2
  -5  -2   6 506.604 93.6582   6
  -5  -2   5 2871.22 156.497   2
  -5  -2   5 2785.04 141.190   6
  -5  -2   4 13572.1 294.115   2
  -5  -2   4 13366.0 293.149   6
  -5  -2   3 3557.01 166.279   2
  -5  -2   3 3292.90 159.330   6
  -5  -2   2 1284.96 118.169   2
  -5  -2   2 954.074 105.128   6
  -5  -2   1 25608.8 382.153   6
  -5  -2   1 26625.5 379.879   2
  -5  -2   0 88.1539 80.6838   2
  -5  -2   0 32.2628 76.5560   6
  -5  -2  -1-40.4254 82.5390   2
  -5  -2  -1 67.6104 67.9115   6
  -5  -2  -2 804.579 103.565   6
  -5  -2  -2 817.287 98.0073   2
  -5  -2  -3 16751.5 299.484   6
  -5  -2  -3 16779.9 281.428   2
   5   2   4-62.2814 85.5065   1
  -5  -2  -4-114.877 82.0613   6
  -5  -2  -4-23.0833 68.2246   2
  -5  -2  -5 1006.09 94.8027   6
   5   2   5 1306.83 111.574   1
   5   2   6 445.547 101.935   1
  -5  -2  -6 342.698 72.7271   6
   5   2   7 42565.6 467.013   1
   5   2   8 3631.04 160.299   1
   5   2   9 2534.04 137.124   1
   5   2  10 419.216 90.1786   1
   5   2  11-94.7663 74.7574   1
   5   2  12 0.34302 65.7554   1
   5   2  13 1187.43 124.804   1
  -5  -3  12 464.392 138.364   2
  -5  -3  11 894.637 117.717   2
  -5  -3  10 2372.44 187.549   2
  -5  -3   9 219.387 98.3117   2
  -5  -3   8 28.0920 92.1128   2
  -5  -3   7 1933.77 152.535   2
  -5  -3   6 349.394 93.1516   2
  -5  -3   5 166.547 88.8283   2
  -5  -3   4 7288.01 234.099   2
  -5  -3   4 6182.84 205.550   6
  -5  -3   3 2925.63 162.391   2
  -5  -3   3 2900.21 158.996   6
  -5  -3   2 31528.5 436.799   2
  -5  -3   2 30769.7 423.809   6
  -5  -3   1 734.617 105.890   6
  -5  -3   1 995.977 119.081   2
  -5  -3   0 6346.05 200.018   6
  -5  -3   0 6149.71 200.482   2
  -5  -3  -1 2.31074 86.6477   2
  -5  -3  -1 47.1878 67.5901   6
  -5  -3  -2 4946.83 174.143   6
  -5  -3  -2 5040.53 182.265   2
  -5  -3  -3 345.331 83.7379   2
  -5  -3  -3 325.611 82.9536   6
  -5  -3  -4 7384.14 195.032   6
   5   3   4 7855.33 199.055   1
  -5  -3  -4 8224.49 211.361   2
   5   3   5 30.7425 75.0331   1
   5   3   6 813.706 97.5246   1
   5   3   7 346.047 93.5522   1
   5   3   8 11050.4 235.130   1
   5   3   9 68.8569 68.3473   1
   5   3  10 737.038 89.6701   1
   5   3  11-141.700 84.3219   1
   5   3  12 206.196 74.7105   1
   5   3  13 1616.71 127.161   1
   5   3  14 236.384 85.8373   1
  -5  -4  11 404.987 144.501   2
  -5  -4  10 1518.69 160.487   2
  -5  -4   9 1375.18 152.852   2
  -5  -4   8-3.50349 112.001   2
  -5  -4   7 5235.61 238.916   2
  -5  -4   6 123.622 96.5688   2
  -5  -4   5 1609.85 139.744   2
  -5  -4   4-140.600 98.4681   2
  -5  -4   3 954.388 131.455   2
  -5  -4   2 9680.61 267.056   2
  -5  -4   1 404.893 113.999   2
  -5  -4   0 3710.48 181.921   2
  -5  -4  -1 11693.0 273.369   2
  -5  -4  -2 592.688 111.100   2
   5   4   3 13466.5 241.612   1
  -5  -4  -3 14492.9 294.906   2
   5   4   4 1389.38 97.1875   1
  -5  -4  -4 1278.68 116.538   2
  -5  -4  -5 262.352 88.9381   2
   5   4   5 285.092 73.4442   1
   5   4   6 1936.79 114.369   1
   5   4   7 4790.09 160.205   1
   5   4   8 421.764 87.4174   1
   5   4   9 3229.79 139.376   1
   5   4  10 2679.92 134.151   1
   5   4  11 4496.22 165.739   1
   5   4  12 61.7635 67.3507   1
   5   4  13 955.461 103.459   1
   5   4  14 155.165 85.3723   1
  -5  -5  10 281.556 135.588   2
  -5  -5   9 117.563 144.033   2
  -5  -5   8 610.344 163.839   2
  -5  -5   7 1058.41 162.107   2
  -5  -5   6 3080.57 201.747   2
  -5  -5   5 69.9203 109.118   2
  -5  -5   4 3.38094 95.6432   2
  -5  -5   3 1726.97 155.688   2
  -5  -5   2 38517.1 520.966   2
  -5  -5   1 27765.8 442.316   2
  -5  -5   0 2353.70 162.561   2
  -5  -5  -1-8.51928 110.524   2
   5   5   2 4741.74 146.184   1
  -5  -5  -2 5047.86 199.092   2
  -5  -5  -3 530.550 114.843   2
   5   5   3 551.953 72.6278   1
  -5  -5  -4-8.01768 83.9682   2
   5   5   4-16.7460 59.1816   1
  -5  -5  -5 681.228 109.046   2
   5   5   5 603.473 79.2795   1
   5   5   6 8150.04 189.426   1
  -5  -5  -6 8719.09 240.907   2
   5   5   7 137.259 67.6473   1
   5   5   8 7447.59 187.815   1
   5   5   9 300.621 77.3610   1
   5   5  10 4145.79 157.200   1
   5   5  11 375.326 87.9445   1
   5   5  12 3065.76 149.612   1
   5   5  13 356.133 96.7299   1
   5   5  14 714.490 100.688   1
   5   5  14 569.571 141.386   4
  -5  -6  10 156.565 130.721   2
  -5  -6   9 648.598 167.670   2
  -5  -6   8 621.218 147.240   2
  -5  -6   7 375.848 136.544   2
  -5  -6   6 3202.15 199.698   2
  -5  -6   5-306.914 113.673   2
  -5  -6   4 116.459 104.209   2
  -5  -6   3 2969.25 180.249   2
  -5  -6   2 2169.43 157.204   2
  -5  -6   1 2445.57 177.458   2
  -5  -6   0 56.7745 114.871   2
   5   6   1 1822.55 102.094   4
  -5  -6  -1 1928.41 154.912   2
   5   6   2 1628.83 105.336   4
  -5  -6  -2 1500.39 141.383   2
  -5  -6  -3 13.2896 97.8883   2
   5   6   3 52.9840 58.8875   1
   5   6   3-21.9513 83.8577   4
  -5  -6  -4 31.4242 86.7674   2
   5   6   4 99.2101 62.0528   1
   5   6   5 2701.61 111.761   1
  -5  -6  -5 2801.49 158.939   2
  -5  -6  -6 16.7519 88.3681   2
   5   6   6-43.6564 64.0077   1
   5   6   7 2610.13 118.608   1
   5   6   8 721.494 82.8761   1
   5   6   9 256.959 71.5669   1
   5   6  10 396.015 79.3337   1
   5   6  10 508.828 118.567   4
   5   6  11 2395.41 127.852   1
   5   6  11 2447.97 175.396   4
   5   6  12 204.555 73.6507   1
   5   6  12-28.0011 102.979   4
   5   6  13 485.496 95.5981   1
   5   6  13 420.336 138.584   4
   5   6  14 960.610 112.806   1
   5   6  14 657.462 144.854   4
  -5  -7   9 507.667 174.755   2
  -5  -7   8 389.631 148.444   2
  -5  -7   7 135.560 145.723   2
  -5  -7   6 1095.37 163.285   2
  -5  -7   5-14.9147 119.159   2
  -5  -7   4 418.983 111.344   2
  -5  -7   3 32.5702 96.7630   2
  -5  -7   2 1191.90 142.179   2
  -5  -7   1 13833.4 357.470   2
  -5  -7   0 531.408 145.590   2
  -5  -7  -1 230.493 145.788   2
   5   7   1 257.815 69.3049   4
   5   7   2 13740.0 251.681   4
  -5  -7  -2 13075.2 327.983   2
   5   7   3 10183.0 231.572   4
  -5  -7  -3 9522.38 284.759   2
  -5  -7  -4 103.496 121.105   2
   5   7   4 229.104 92.1356   4
  -5  -7  -5 322.180 92.8804   2
   5   7   5 352.407 95.5578   4
  -5  -7  -6 39.2655 85.1491   2
   5   7   6-5.84489 56.1516   1
   5   7   6 0.37281 84.2774   4
   5   7   7 451.182 65.3449   1
   5   7   7 458.746 104.645   4
   5   7   8 56.6605 54.8899   1
   5   7   8-9.36604 98.5837   4
   5   7   9 50.4660 65.6234   1
   5   7   9 12.2347 103.707   4
   5   7  10 6858.29 189.104   1
   5   7  10 5906.34 240.973   4
   5   7  11 613.361 92.3802   1
   5   7  11 241.033 106.535   4
   5   7  12 1724.93 115.173   1
   5   7  12 1423.36 158.516   4
   5   7  13 227.707 88.2294   1
   5   7  13 133.504 113.127   4
   5   7  14 742.704 93.1941   1
   5   7  14 766.873 142.733   4
  -5  -8   7 776.732 172.997   2
  -5  -8   6-87.1942 150.920   2
  -5  -8   5 55.7542 108.724   2
  -5  -8   4 135.900 124.886   2
  -5  -8   3 401.592 130.884   2
  -5  -8   2 354.724 109.516   2
  -5  -8   1 7.02690 144.313   2
  -5  -8   0 90.5508 151.613   2
  -5  -8  -1 3140.39 208.599   2
  -5  -8  -2 216.213 129.632   2
   5   8   2 433.454 87.6568   4
   5   8   3 4781.81 166.875   4
  -5  -8  -3 4508.96 229.508   2
   5   8   4 2004.27 128.307   4
  -5  -8  -4 1413.09 168.234   2
  -5  -8  -5 184.192 111.105   2
   5   8   5 395.257 97.1541   4
  -5  -8  -6 241.448 105.066   2
   5   8   6 369.037 95.8911   4
   5   8   7 892.285 109.286   4
  -5  -8  -7 835.968 130.638   2
   5   8   8 19.3550 89.1509   4
   5   8   9 343.746 118.308   4
   5   8  10 346.136 76.4410   1
   5   8  10 272.758 117.975   4
   5   8  11 1037.69 98.2995   1
   5   8  11 891.806 132.816   4
   5   8  12 218.937 73.3105   1
   5   8  12 129.387 129.315   4
   5   8  13 364.786 83.0551   1
   5   8  13 53.3770 124.943   4
  -5  -9   6 95.0755 157.950   2
  -5  -9   5-43.7552 122.312   2
  -5  -9   4 1798.65 192.550   2
  -5  -9   3 264.876 129.786   2
  -5  -9   2 14.1615 140.570   2
  -5  -9   1-106.171 151.429   2
  -5  -9   0 1352.29 196.600   2
  -5  -9  -1 4064.12 241.540   2
  -5  -9  -2 3755.11 228.568   2
   5   9   3 8238.74 214.245   4
  -5  -9  -3 8285.08 284.914   2
  -5  -9  -4 58.8314 147.184   2
   5   9   4 407.292 93.2900   4
   5   9   5 5717.00 196.845   4
  -5  -9  -5 5116.58 229.360   2
   5   9   6 5228.74 196.226   4
  -5  -9  -6 4750.75 225.783   2
   5   9   7 1605.00 125.754   4
  -5  -9  -7 1221.73 138.106   2
   5   9   8 1092.04 128.773   4
   5   9   9 308.121 94.3157   4
  -5  -9  -9 328.566 102.656   0
  -5  -9 -10 783.608 107.567   0
   5   9  10 674.176 121.835   4
   5   9  11-66.1899 124.833   4
   5   9  12-140.974 120.141   4
  -5 -10   5 374.159 188.108   2
  -5 -10   4 562.965 175.789   2
  -5 -10   3 636.124 156.908   2
  -5 -10   2 323.794 136.701   2
  -5 -10   1-50.4974 154.878   2
  -5 -10   0 27.8223 131.339   2
  -5 -10  -1 3025.07 221.703   2
  -5 -10  -2 2696.81 211.393   2
  -5 -10  -3-13.1570 145.842   2
  -5 -10  -4-32.5956 130.345   2
  -5 -10  -5 46.6321 98.1447   2
  -5 -10  -6 218.781 120.732   2
   5  10   7-106.801 87.3559   4
  -5 -10  -7 12.3457 103.048   2
   5  10   8-32.0807 82.5968   4
  -5 -10  -9-1.56024 96.2553   0
   5  10   9-61.2632 99.8411   4
  -5 -10 -10-0.56359 103.993   0
   5  10  10-3.63388 112.089   4
  -5 -10 -11 966.486 130.972   0
   5  10  11 893.937 136.241   4
  -5 -11   3 913.214 202.429   2
  -5 -11   2 102.434 179.055   2
  -5 -11   1 107.304 165.966   2
  -5 -11   0 444.081 159.368   2
  -5 -11  -1 393.945 132.249   2
  -5 -11  -2 296.784 147.194   2
  -5 -11  -3 62.6384 144.637   2
  -5 -11  -4 31.8764 137.056   2
  -5 -11  -5 1449.79 170.363   2
  -5 -11  -6 1288.34 150.586   2
  -5 -11  -7 1150.26 130.194   2
  -5 -11  -8 433.166 124.072   0
  -5 -11  -9 24.3888 133.772   0
  -5 -11 -10 134.469 118.785   0
  -5 -11 -11 268.203 146.562   0
  -5 -12  -1-79.1170 132.250   2
  -5 -12  -2 314.260 161.143   2
  -5 -12  -3-375.816 129.223   2
  -5 -12  -4 164.016 123.109   2
  -5 -12  -8 63.3632 137.242   0
  -5 -12  -9 136.857 156.842   0
  -6   6   5 15.1812 124.753   6
  -6   6   4-176.290 117.412   6
  -6   6   3 278.132 85.3548   6
  -6   6   2 342.685 105.987   6
  -6   6   1 334.998 100.109   6
  -6   6   1 333.962 98.0891   3
  -6   6   0-188.332 101.548   6
  -6   6   0-47.9718 119.898   3
  -6   6  -1-253.162 108.375   6
  -6   6  -1-196.403 109.370   3
  -6   6  -2 248.370 98.4228   6
  -6   6  -3 373.464 114.643   6
  -6   5   9 29.2482 100.362   6
  -6   5   8-107.418 110.106   6
  -6   5   7-113.853 116.726   6
  -6   5   6 1837.56 173.381   6
  -6   5   5 191.409 96.4343   6
  -6   5   4-194.880 94.0614   6
  -6   5   3 660.860 116.241   6
  -6   5   2 1011.58 126.986   6
  -6   5   1 813.153 126.875   6
  -6   5   0-97.2417 96.1030   6
  -6   5   0 107.652 107.268   3
  -6   5  -1 271.596 97.2455   6
  -6   5  -1 488.964 117.365   3
  -6   5  -2 37.6750 84.7643   6
  -6   5  -2-150.710 112.723   3
  -6   5  -3 245.542 105.968   6
  -6   5  -3 37.0619 115.504   3
  -6   5  -4 751.654 134.863   3
  -6   4  10-115.033 137.328   6
  -6   4   9 29.5270 124.851   6
  -6   4   8 265.039 116.033   6
  -6   4   7 48.3955 93.5924   6
  -6   4   6 98.9088 106.792   6
  -6   4   5 1114.02 139.127   6
  -6   4   4-37.0845 87.2251   6
  -6   4   3 165.261 102.811   6
  -6   4   2 1052.47 129.477   6
  -6   4   1 62.9590 96.3314   6
  -6   4   0-118.916 81.7928   6
  -6   4  -1-71.7143 84.3685   6
  -6   4  -2 180.208 92.1790   6
  -6   4  -2 450.391 119.011   3
  -6   4  -3 1216.99 117.855   6
  -6   4  -3 1044.36 138.302   3
   6  -4   4 756.051 140.222   1
  -6   4  -4 633.485 126.625   3
   6  -4   5-23.1821 125.115   1
  -6   4  -5-233.216 96.0999   3
  -6   4  -6-148.932 108.831   3
  -6   3  10 28.0165 117.722   6
  -6   3   9 228.323 113.200   6
  -6   3   8 172.555 112.458   6
  -6   3   7 225.938 97.6049   6
  -6   3   6 1472.47 140.943   6
  -6   3   5 432.618 112.880   6
  -6   3   4 4515.89 219.696   6
  -6   3   3 4567.45 214.272   6
  -6   3   2 7455.11 261.094   6
  -6   3   1 941.715 118.446   6
  -6   3   0 341.092 103.773   6
  -6   3  -1 1250.49 126.434   6
  -6   3  -2 826.322 108.553   6
  -6   3  -3-70.9212 85.0544   6
   6  -3   4 289.023 113.593   1
  -6   3  -4 332.213 97.2074   6
  -6   3  -4 336.864 95.2320   3
   6  -3   5 314.219 127.403   1
  -6   3  -5 477.267 107.701   3
   6  -3   6 1109.57 139.121   1
  -6   3  -6 714.698 123.286   3
   6  -3   7 611.796 141.370   1
  -6   3  -7 252.255 101.808   3
   6  -3   8 331.397 115.773   1
  -6   3  -8-181.817 100.864   3
  -6   2  10 316.204 114.687   6
  -6   2   9 51.8198 84.5378   6
  -6   2   8 1252.91 137.017   6
  -6   2   7 799.111 114.918   6
  -6   2   6 329.526 116.902   6
  -6   2   5 2636.65 177.043   6
  -6   2   4 207.670 100.731   6
  -6   2   3 1767.78 149.951   6
  -6   2   2 1952.94 156.157   6
  -6   2   1 4095.14 202.746   6
  -6   2   0 221.113 97.5384   6
  -6   2  -1 693.964 104.859   6
  -6   2  -2 470.183 90.4559   6
  -6   2  -3 642.980 104.446   6
   6  -2   4-52.0856 106.593   1
  -6   2  -4 306.194 93.3461   6
   6  -2   5 36.9792 118.676   1
   6  -2   6 2724.25 184.697   1
   6  -2   7 829.531 140.827   1
   6  -2   8 324.211 94.3170   1
  -6   2  -8 81.9485 100.666   3
   6  -2   9-43.8111 92.7578   1
  -6   2  -9-177.376 114.948   3
   6  -2  10 1355.76 129.587   1
  -6   2 -10 830.447 100.261   3
  -6   1  11 1144.30 174.611   1
  -6   1  10-347.622 130.010   1
  -6   1   9 193.374 92.6263   6
  -6   1   8 1285.16 132.084   6
  -6   1   7 3.41956 84.1309   6
  -6   1   6 1975.16 148.139   6
  -6   1   5 1506.16 138.003   6
  -6   1   4 286.654 111.023   6
  -6   1   3 5175.25 223.567   6
  -6   1   2 8464.82 271.173   6
  -6   1   1-19.8499 124.161   6
  -6   1   0 10644.2 297.032   6
  -6   1  -1 5457.12 219.554   6
  -6   1  -2 5861.91 224.074   6
  -6   1  -3 498.371 102.905   6
  -6   1  -4 1946.63 137.172   6
   6  -1   5-219.048 119.907   1
   6  -1   6 1605.42 141.033   1
   6  -1   7 15.5141 98.2320   1
   6  -1   8 114.047 102.107   1
   6  -1   9 2499.95 159.416   1
   6  -1  10 680.576 106.636   1
  -6   0  11 991.231 163.142   1
  -6   0  10-404.363 134.403   1
  -6   0   9-84.1198 92.3562   6
  -6   0   8 782.181 122.971   6
  -6   0   7 1249.09 133.249   6
  -6   0   6-9.46028 80.5090   6
  -6   0   5 276.326 110.972   6
  -6   0   4 1133.51 131.147   6
  -6   0   3 9910.90 286.455   6
  -6   0   2 534.063 121.321   6
  -6   0   1 2559.13 169.202   6
  -6   0   0 2774.52 180.623   6
  -6   0  -1 44.8531 100.661   6
  -6   0  -2 638.302 101.969   6
  -6   0  -3 658.897 110.657   6
  -6   0  -4 1076.68 117.175   6
   6   0   5-111.330 111.949   1
  -6   0  -5-49.8261 85.8749   6
   6   0   6 22.8611 95.8788   1
   6   0   7 3782.44 185.336   1
   6   0   8 1855.06 146.268   1
   6   0   9 14.1799 94.2207   1
   6   0  10 163.258 91.9202   1
   6   0  11 1301.20 123.931   1
  -6  -1  12 137.578 169.837   1
  -6  -1  11 586.145 160.727   1
  -6  -1  10 443.394 138.711   1
  -6  -1   9 66.7964 91.3501   6
  -6  -1   8 873.946 132.045   6
  -6  -1   7 473.062 113.839   6
  -6  -1   6 72.9994 82.3195   2
  -6  -1   6-12.6275 71.3608   6
  -6  -1   5 137.378 76.2603   2
  -6  -1   5 28.5005 90.6670   6
  -6  -1   4 203.515 80.4270   2
  -6  -1   4 46.6077 91.1118   6
  -6  -1   3-85.9369 96.7366   2
  -6  -1   3-43.2735 103.684   6
  -6  -1   2 2210.79 163.237   6
  -6  -1   2 2457.20 156.959   2
  -6  -1   1-24.6543 96.1806   2
  -6  -1   1 158.657 107.696   6
  -6  -1   0 28736.0 454.486   6
  -6  -1   0 28273.1 395.776   2
  -6  -1  -1 8537.40 262.063   6
  -6  -1  -1 7913.17 216.109   2
  -6  -1  -2 534.406 93.5950   2
  -6  -1  -2 744.148 109.858   6
  -6  -1  -3 5450.74 206.033   6
  -6  -1  -4 5483.46 202.366   6
   6   1   4 5621.52 209.392   1
  -6  -1  -5 2898.57 154.371   6
   6   1   5 2986.56 169.216   1
   6   1   6 7935.06 241.423   1
   6   1   7 295.412 97.1740   1
   6   1   8 459.848 103.643   1
   6   1   9 92.2416 77.6740   1
   6   1  10 1564.51 123.148   1
   6   1  11 263.447 99.1178   1
  -6  -2  11 62.7749 129.900   2
  -6  -2  10 393.591 134.813   2
  -6  -2   9 1580.38 152.740   2
  -6  -2   8-388.684 104.459   2
  -6  -2   8 66.4235 82.7969   6
  -6  -2   7 3662.53 191.858   2
  -6  -2   7 3747.11 187.095   6
  -6  -2   6 187.930 96.5770   2
  -6  -2   6 16.6075 86.0893   6
  -6  -2   5 460.539 95.9897   2
  -6  -2   5 261.883 90.1660   6
  -6  -2   4 28.7289 71.0340   2
  -6  -2   4-236.921 95.6091   6
  -6  -2   3 5086.07 214.430   6
  -6  -2   3 5336.86 218.009   2
  -6  -2   2 877.396 130.840   2
  -6  -2   2 815.129 132.633   6
  -6  -2   1 9900.22 279.299   6
  -6  -2   1 10065.7 268.888   2
  -6  -2   0-40.8967 99.6969   2
  -6  -2   0-17.0608 96.9654   6
  -6  -2  -1 14500.3 330.739   6
  -6  -2  -1 15402.5 312.816   2
  -6  -2  -2 1884.68 140.482   6
  -6  -2  -2 1999.37 138.571   2
  -6  -2  -3 2713.55 154.234   6
  -6  -2  -3 2624.45 140.982   2
   6   2   4 32.9066 96.8312   1
  -6  -2  -4 42.4074 83.4955   6
  -6  -2  -5 2270.28 134.080   6
   6   2   5 2187.14 150.060   1
   6   2   6-22.5881 93.9004   1
   6   2   7 4511.59 183.673   1
   6   2   8 119.348 88.7068   1
   6   2   9 1967.09 132.346   1
   6   2  10-101.102 87.8414   1
   6   2  11 2830.67 155.433   1
   6   2  12 113.236 77.7718   1
  -6  -3  11 243.673 154.770   2
  -6  -3  10 332.368 140.833   2
  -6  -3   9 1619.14 182.158   2
  -6  -3   8 1096.71 154.855   2
  -6  -3   7 2374.19 174.847   2
  -6  -3   6 94.5620 111.256   2
  -6  -3   5 33.2056 84.8943   2
  -6  -3   5 77.5610 75.4471   6
  -6  -3   4 4839.48 209.758   2
  -6  -3   4 4263.60 186.175   6
  -6  -3   3 302.922 97.2485   2
  -6  -3   3 10.9375 83.0044   6
  -6  -3   2 4187.31 192.750   6
  -6  -3   2 4530.34 205.444   2
  -6  -3   1 713.760 122.106   2
  -6  -3   1 610.100 117.757   6
  -6  -3   0 4310.06 196.539   6
  -6  -3   0 4344.73 193.160   2
  -6  -3  -1 4550.12 208.605   6
  -6  -3  -1 4762.02 198.542   2
  -6  -3  -2-102.060 104.583   2
  -6  -3  -2-179.163 82.7935   6
  -6  -3  -3 676.404 103.313   2
  -6  -3  -3 584.217 103.224   6
  -6  -3  -4 16644.0 329.909   6
   6   3   4 15955.6 307.166   1
  -6  -3  -4 17266.7 326.051   2
  -6  -3  -5 1242.21 106.361   6
   6   3   5 1408.42 124.573   1
   6   3   6 4678.28 182.195   1
   6   3   7 228.631 95.8772   1
   6   3   8 308.777 90.9168   1
   6   3   9 59.5912 73.2614   1
   6   3  10 2729.75 145.991   1
   6   3  11-14.6269 86.1470   1
   6   3  12-8.84032 82.4728   1
  -6  -4  10-419.307 157.122   2
  -6  -4   9 172.504 120.909   2
  -6  -4   8 672.199 142.609   2
  -6  -4   7 102.378 99.5165   2
  -6  -4   6 620.499 145.939   2
  -6  -4   5 3943.86 218.100   2
  -6  -4   4 588.197 114.812   2
  -6  -4   3 1339.84 141.928   2
  -6  -4   2 3583.70 202.027   2
  -6  -4   1 1290.76 144.410   2
  -6  -4   0 58.6495 109.989   2
  -6  -4  -1 5503.10 219.626   2
  -6  -4  -2 1702.24 147.591   2
   6   4   3 2724.22 138.508   1
  -6  -4  -3 2667.71 154.950   2
  -6  -4  -4 367.610 95.2707   2
   6   4   4 292.108 80.8300   1
   6   4   5 2111.32 135.149   1
  -6  -4  -5 2321.43 150.813   2
   6   4   6 933.764 104.279   1
   6   4   7 2179.94 138.344   1
   6   4   8 2475.46 134.004   1
   6   4   9 982.457 104.346   1
   6   4  10 711.228 98.6412   1
   6   4  11 115.546 70.4842   1
   6   4  12-136.349 70.3887   1
  -6  -5   9-5.34664 133.368   2
  -6  -5   8 2157.83 213.786   2
  -6  -5   7-250.500 127.707   2
  -6  -5   6 76.5014 110.869   2
  -6  -5   5 2079.93 180.758   2
  -6  -5   4 509.193 133.475   2
  -6  -5   3 1353.88 155.406   2
  -6  -5   2 429.238 123.150   2
  -6  -5   1 162.673 116.635   2
  -6  -5   0 5167.17 230.530   2
  -6  -5  -1 280.631 113.747   2
  -6  -5  -2 379.139 119.576   2
   6   5   2 318.075 81.1189   1
  -6  -5  -3 125.699 115.607   2
   6   5   3 58.9353 67.3338   1
  -6  -5  -4 927.141 123.000   2
   6   5   4 1080.08 101.964   1
  -6  -5  -5 2.94452 94.1140   2
   6   5   5 101.696 71.8710   1
   6   5   6 1522.80 111.784   1
   6   5   7 427.681 80.2118   1
   6   5   8 3174.31 147.894   1
   6   5   9-54.0454 70.7219   1
   6   5  10 1817.10 126.781   1
   6   5  11 573.721 97.2698   1
   6   5  12 312.600 81.2590   1
  -6  -6   8 923.968 180.240   2
  -6  -6   7-378.475 146.331   2
  -6  -6   6-38.3961 127.262   2
  -6  -6   5 4503.51 254.921   2
  -6  -6   4 5924.20 266.555   2
  -6  -6   3 887.350 159.495   2
  -6  -6   2 229.751 126.958   2
  -6  -6   1 23.5039 129.807   2
  -6  -6   0 1261.26 163.385   2
  -6  -6  -1 396.092 123.694   2
  -6  -6  -2 1522.64 163.149   2
   6   6   3 5627.33 176.662   1
  -6  -6  -3 5444.95 228.694   2
  -6  -6  -4 753.905 123.497   2
   6   6   4 837.977 88.6307   1
  -6  -6  -5 404.858 112.341   2
   6   6   5 679.920 85.8675   1
  -6  -6  -6 165.252 89.5913   2
   6   6   6 261.991 74.0751   1
   6   6   7 343.878 70.9577   1
   6   6   8-84.6083 80.1704   1
   6   6   9 2848.03 137.686   1
   6   6  10 306.426 73.6235   1
   6   6  11 142.375 73.2694   1
   6   6  12 225.390 75.1330   1
   6   6  12 65.9474 116.680   4
  -6  -7   7 589.139 151.664   2
  -6  -7   6 1273.94 176.452   2
  -6  -7   5 538.839 164.589   2
  -6  -7   4 409.334 131.529   2
  -6  -7   3 273.056 122.920   2
  -6  -7   2-21.7630 132.151   2
  -6  -7   1 91.5356 135.582   2
  -6  -7   0 218.904 126.845   2
  -6  -7  -1 1004.82 147.093   2
  -6  -7  -2-17.7811 112.540   2
   6   7   2-24.5626 79.1257   4
  -6  -7  -3-26.6965 96.2575   2
   6   7   3 40.6856 73.3650   4
   6   7   4 1858.95 132.107   4
  -6  -7  -4 1925.16 152.591   2
  -6  -7  -5 294.394 97.0581   2
   6   7   5 188.444 99.5376   4
   6   7   6-274.252 63.6185   1
   6   7   6-170.377 83.8902   4
   6   7   7 339.673 67.4659   1
   6   7   7 594.854 108.125   4
   6   7   8 529.703 77.0064   1
   6   7   8 649.793 113.574   4
   6   7   9 369.848 75.1637   1
   6   7   9 664.694 136.273   4
   6   7  10 857.041 87.8846   1
   6   7  10 690.606 121.762   4
   6   7  11 2106.63 125.492   1
   6   7  11 1812.03 178.697   4
   6   7  12 422.072 83.5620   1
  -6  -8   6 297.739 172.375   2
  -6  -8   5 499.123 163.903   2
  -6  -8   4 2141.64 190.089   2
  -6  -8   3 366.790 132.528   2
  -6  -8   2 16.4353 133.289   2
  -6  -8   1 1902.82 195.747   2
  -6  -8   0 3319.97 220.639   2
  -6  -8  -1 1507.40 175.048   2
  -6  -8  -2 48.7074 135.248   2
  -6  -8  -3-520.237 137.285   2
   6   8   3 28.2209 80.3772   4
  -6  -8  -4 151.580 113.684   2
   6   8   4 123.975 76.1675   4
  -6  -8  -5-113.042 82.0914   2
   6   8   5 4.85473 78.3704   4
  -6  -8  -6 166.716 110.305   2
   6   8   6 94.9919 87.0750   4
   6   8   7 749.402 118.822   4
  -6  -8  -7 794.125 133.778   2
   6   8   8 150.103 107.323   4
   6   8   9 1480.72 152.533   4
   6   8  10 991.105 101.198   1
   6   8  10 820.487 137.298   4
   6   8  11 161.285 64.2365   1
   6   8  11 160.229 140.785   4
   6   8  12 378.612 85.4218   1
  -6  -9   4 223.076 173.415   2
  -6  -9   3-207.317 135.231   2
  -6  -9   2 12.1629 143.539   2
  -6  -9   1 166.849 129.109   2
  -6  -9   0 908.150 172.669   2
  -6  -9  -1 173.719 134.514   2
  -6  -9  -2-60.1961 148.371   2
  -6  -9  -3-153.361 148.814   2
  -6  -9  -4 1070.29 166.104   2
   6   9   4 1469.27 124.065   4
  -6  -9  -5 407.137 133.862   2
   6   9   5 358.722 93.7536   4
  -6  -9  -6 149.562 111.989   2
   6   9   6 84.6193 89.0978   4
   6   9   7 192.978 107.724   4
  -6  -9  -7 214.626 101.344   2
   6   9   8 217.032 116.849   4
   6   9   9 576.634 130.177   4
   6   9  10 296.906 131.409   4
  -6 -10   2 654.249 207.006   2
  -6 -10   1 975.953 194.594   2
  -6 -10   0 2574.20 237.339   2
  -6 -10  -1 61.5905 166.850   2
  -6 -10  -2 869.582 167.895   2
  -6 -10  -3 1792.88 176.920   2
  -6 -10  -4 1502.39 177.017   2
  -6 -10  -5 976.460 161.665   2
   6  10   5 995.354 121.889   4
  -6 -10  -6 154.773 138.806   2
   6  10   6 441.490 103.663   4
  -6 -10  -7 111.764 130.990   2
   6  10   7-30.8354 96.1034   4
   6  10   8 54.2649 96.0834   4
   6  10   9 374.807 129.199   4
  -6 -11  -1-63.6316 145.283   2
  -6 -11  -2 558.198 162.527   2
  -6 -11  -3-343.540 146.071   2
  -6 -11  -4-204.354 140.748   2
  -6 -11  -5 370.435 114.447   2
  -6 -11  -6 161.179 120.674   2
  -6 -11  -7-78.0387 140.285   2
  -7   4   3 1121.35 130.168   6
  -7   4   2 244.752 118.906   6
  -7   4   1 438.506 106.871   6
  -7   4   0 682.127 105.280   6
  -7   4  -1 831.527 117.021   6
  -7   4  -2 168.745 118.561   6
  -7   4  -3 432.683 120.135   6
  -7   3   6 171.622 128.437   6
  -7   3   5 158.074 128.807   6
  -7   3   4 932.888 160.755   6
  -7   3   3 160.153 102.874   6
  -7   3   2 478.395 124.805   6
  -7   3   1 455.184 112.682   6
  -7   3   0 2970.17 185.205   6
  -7   3  -1 341.654 102.776   6
  -7   3  -2 374.350 114.996   6
  -7   3  -3 135.353 103.222   6
   7  -3   4-85.7959 145.294   1
   7  -3   5-369.069 150.521   1
  -7   2   8 120.699 131.968   6
  -7   2   7 759.636 130.343   6
  -7   2   6 815.866 156.781   6
  -7   2   5 1623.91 172.385   6
  -7   2   4 1101.28 162.554   6
  -7   2   3 1189.71 162.466   6
  -7   2   2 270.677 106.504   6
  -7   2   1 1569.78 165.796   6
  -7   2   0 721.102 144.181   6
  -7   2  -1 237.857 119.248   6
  -7   2  -2 259.294 106.357   6
  -7   2  -3 333.736 111.137   6
   7  -2   4-16.9760 152.076   1
   7  -2   5 147.686 143.184   1
   7  -2   6 890.461 171.156   1
  -7   1  10 499.812 124.504   6
  -7   1   9 175.032 125.833   6
  -7   1   8 241.119 120.863   6
  -7   1   7-14.4533 111.028   6
  -7   1   6 375.774 115.350   6
  -7   1   5 563.616 144.430   6
  -7   1   4 1758.58 189.464   6
  -7   1   3 1077.64 147.781   6
  -7   1   2 82.0968 101.546   6
  -7   1   1 69.2355 114.288   6
  -7   1   0 3687.87 213.466   6
  -7   1  -1 195.765 111.231   6
  -7   1  -2 125.129 94.6640   6
  -7   1  -3 506.775 122.714   6
   7  -1   4 355.201 126.466   1
  -7   1  -4 797.163 127.657   6
   7  -1   5-242.969 107.530   1
   7  -1   6 668.987 125.940   1
   7  -1   7 328.462 116.701   1
  -7   0   9 1827.37 182.973   6
  -7   0   8 411.977 130.614   6
  -7   0   7-116.635 88.8937   6
  -7   0   6 671.292 140.864   6
  -7   0   5 1734.08 166.801   6
  -7   0   4 3.41963 110.479   6
  -7   0   3 1016.61 149.946   6
  -7   0   2 1097.73 148.711   6
  -7   0   1 2435.89 182.425   6
  -7   0   0 1904.87 158.429   6
  -7   0  -1 2276.61 168.353   6
  -7   0  -2 259.046 105.778   6
  -7   0  -3 724.157 114.560   6
   7   0   4 9.68617 108.921   1
  -7   0  -4 225.759 94.1554   6
   7   0   5 664.470 127.243   1
   7   0   6 197.423 107.357   1
   7   0   7 690.158 110.324   1
   7   0   8 462.576 127.994   1
  -7  -1   9 1069.84 158.445   6
  -7  -1   8-32.5924 125.897   6
  -7  -1   7 101.909 100.923   6
  -7  -1   6 1075.08 141.475   6
  -7  -1   5 19.7723 112.998   6
  -7  -1   4 897.356 139.518   6
  -7  -1   3 2604.87 191.979   6
  -7  -1   2 194.235 122.042   6
  -7  -1   1 125.851 106.770   6
  -7  -1   0 1039.85 134.501   6
  -7  -1  -1 270.242 91.6298   6
  -7  -1  -2 1042.36 143.855   6
  -7  -1  -3 134.121 88.0420   6
  -7  -1  -4 1804.38 143.074   6
   7   1   4 1370.51 157.633   1
   7   1   5-312.884 110.897   1
   7   1   6 53.0576 101.268   1
   7   1   7 60.1223 106.806   1
   7   1   8 2770.41 173.401   1
  -7  -2   8 262.816 103.868   6
  -7  -2   7 31.3940 111.072   6
  -7  -2   6-143.896 95.5075   6
  -7  -2   5 280.697 122.564   6
  -7  -2   4 94.1764 118.369   6
  -7  -2   3 5928.64 259.111   6
  -7  -2   2 1957.28 165.432   6
  -7  -2   1-31.9168 122.496   6
  -7  -2   0 1685.27 161.194   6
  -7  -2  -1 402.442 117.318   6
  -7  -2  -2 2570.56 177.474   6
  -7  -2  -3 8212.74 271.717   6
   7   2   4-44.4396 111.416   1
  -7  -2  -4 36.2526 83.9300   6
   7   2   5 317.623 115.232   1
  -7  -2  -5 123.289 83.0802   6
   7   2   6 651.646 117.395   1
   7   2   7 1944.97 145.458   1
   7   2   8 465.981 114.990   1
   7   2   9 62.2617 95.0589   1
  -7  -3   9-232.852 156.219   2
  -7  -3   8 480.181 138.977   2
  -7  -3   7 440.529 121.240   2
  -7  -3   6 944.461 133.325   2
  -7  -3   5 822.593 121.277   2
  -7  -3   5 554.378 117.963   6
  -7  -3   4 1349.07 131.378   6
  -7  -3   4 1211.75 166.555   2
  -7  -3   3 63.7548 113.206   2
  -7  -3   3-9.60290 108.504   6
  -7  -3   2 1397.18 152.835   6
  -7  -3   2 1441.19 150.493   2
  -7  -3   1 2152.07 163.735   6
  -7  -3   1 2254.91 177.332   2
  -7  -3   0 2711.88 172.342   6
  -7  -3   0 2573.84 177.643   2
  -7  -3  -1 1810.81 142.914   6
  -7  -3  -1 1888.28 169.779   2
  -7  -3  -2 1251.82 135.049   6
  -7  -3  -2 1145.26 136.707   2
  -7  -3  -3 821.623 110.105   2
  -7  -3  -3 707.862 119.351   6
  -7  -3  -4 1670.66 141.389   6
   7   3   4 1421.76 134.021   1
  -7  -3  -4 1826.12 139.578   2
   7   3   5 476.433 117.023   1
  -7  -3  -5 608.502 93.8346   6
   7   3   6 415.471 115.989   1
   7   3   7 339.346 94.3310   1
   7   3   8 4029.25 184.797   1
   7   3   9 108.079 102.062   1
  -7  -4   8 862.320 159.015   2
  -7  -4   7 2106.93 187.432   2
  -7  -4   6 160.423 122.043   2
  -7  -4   5 810.773 131.152   2
  -7  -4   4 1054.51 149.697   2
  -7  -4   3 152.413 139.190   2
  -7  -4   2 2466.41 192.692   2
  -7  -4   1 191.571 120.860   2
  -7  -4   0-119.087 123.038   2
  -7  -4  -1 2186.16 165.348   2
  -7  -4  -2-81.9377 117.288   2
   7   4   3 4405.90 186.271   1
  -7  -4  -3 4413.13 197.413   2
  -7  -4  -4 427.847 119.827   2
   7   4   4 188.355 92.4084   1
   7   4   5-13.1941 97.3945   1
   7   4   6 1560.26 135.251   1
   7   4   7 1338.42 132.448   1
   7   4   8 1147.38 125.306   1
   7   4   9 169.852 91.7708   1
   7   4  10 948.357 105.805   1
  -7  -5   7 500.401 139.319   2
  -7  -5   6 1141.32 151.673   2
  -7  -5   5 1118.85 164.011   2
  -7  -5   4 339.302 153.844   2
  -7  -5   3 52.1723 137.132   2
  -7  -5   2 886.275 159.038   2
  -7  -5   1 1059.25 143.932   2
  -7  -5   0-26.0548 106.946   2
  -7  -5  -1 776.987 124.147   2
  -7  -5  -2-365.742 113.724   2
   7   5   2 10.9019 73.6344   1
   7   5   3 2367.65 145.108   1
  -7  -5  -3 2430.75 177.723   2
   7   5   4 1815.38 135.243   1
  -7  -5  -4 1631.65 144.074   2
   7   5   5 1861.00 132.795   1
  -7  -5  -5 1995.96 164.272   2
   7   5   6 203.966 95.1434   1
   7   5   7 607.704 103.218   1
   7   5   8 382.666 99.9378   1
   7   5   9 684.950 101.523   1
   7   5  10 167.745 65.1910   1
  -7  -6   6 1848.53 197.157   2
  -7  -6   5 320.825 132.259   2
  -7  -6   4 68.4142 150.897   2
  -7  -6   3 434.016 162.007   2
  -7  -6   2 507.086 162.914   2
  -7  -6   1 662.609 153.174   2
  -7  -6   0 617.822 138.855   2
  -7  -6  -1-38.3614 129.479   2
  -7  -6  -2 49.0317 124.312   2
  -7  -6  -3 113.980 106.307   2
   7   6   3 184.270 76.2294   1
  -7  -6  -4-72.1507 94.7479   2
   7   6   4 118.822 83.1291   1
   7   6   5 2011.48 130.371   1
  -7  -6  -5 2301.55 177.988   2
   7   6   6 99.3639 86.0980   1
  -7  -6  -6 217.604 108.188   2
   7   6   7 359.169 92.3825   1
   7   6   8 1269.04 109.238   1
   7   6   9-183.867 67.9382   1
   7   6  10-214.115 73.3074   1
  -7  -7   4-23.5148 159.622   2
  -7  -7   3 251.838 169.768   2
  -7  -7   2 525.128 177.293   2
  -7  -7   1 1946.28 194.180   2
  -7  -7   0 398.330 161.621   2
  -7  -7  -1-233.377 117.245   2
  -7  -7  -2-2.95930 137.899   2
  -7  -7  -3-7.44728 136.347   2
  -7  -7  -4 80.7729 120.050   2
   7   7   4 118.992 99.5543   4
  -7  -7  -5 56.7920 111.567   2
  -7  -7  -6 1459.86 153.898   2
   7   7   7 469.644 83.7197   1
   7   7   8-98.4284 66.6169   1
   7   7   9 592.219 86.9059   1
   7   7   9 815.754 148.890   4
   7   7  10 528.125 80.7137   1
  -7  -8   3-34.7764 159.251   2
  -7  -8   2 525.584 157.482   2
  -7  -8   1 299.177 139.135   2
  -7  -8   0 513.877 161.470   2
  -7  -8  -1-28.7718 148.140   2
  -7  -8  -2 224.791 138.795   2
  -7  -8  -3 54.5263 113.247   2
  -7  -8  -4 974.610 142.649   2
   7   8   4 1032.74 115.282   4
  -7  -8  -5-189.803 120.879   2
   7   8   5-41.0789 76.0332   4
  -7  -8  -6 339.694 130.342   2
   7   8   6 49.5405 99.1150   4
   7   8   7 390.464 106.165   4
   7   8   8 2137.23 171.940   4
  -7  -9   0 134.658 182.488   2
  -7  -9  -1 0.00000 152.499   2
  -7  -9  -2-286.365 141.705   2
  -7  -9  -3-250.511 146.664   2
  -7  -9  -4-282.649 136.374   2
  -7  -9  -5-185.467 112.313   2
   7   9   5-0.92341 76.6343   4
  -7  -9  -6 460.692 133.328   2
   7   9   6 616.537 112.239   4
   7   9   7 796.755 121.773   4
   7  10   6 370.698 90.1922   4
  -8   1   0 160.123 129.393   6
  -8   1  -1 184.499 106.531   6
  -8   1  -2 620.616 128.968   6
  -8   1  -3 413.917 126.150   6
  -8   0   2 342.753 120.410   6
  -8   0   1-20.4222 121.946   6
  -8   0   0 246.891 117.514   6
  -8   0  -1 434.044 124.743   6
  -8   0  -2 96.8395 91.2671   6
  -8   0  -3 482.839 136.872   6
  -8  -1   4-27.2440 152.423   6
  -8  -1   3 479.913 140.601   6
  -8  -1   2 765.338 150.673   6
  -8  -1   1 25.9415 112.276   6
  -8  -1   0-32.9604 105.880   6
  -8  -1  -1 158.417 100.639   6
  -8  -1  -2 842.859 136.999   6
  -8  -1  -3-124.240 108.538   6
   8   1   4 95.7927 109.948   1
  -8  -1  -4 114.088 115.613   6
  -8  -2   4 54.1618 113.543   6
  -8  -2   3-54.4732 128.416   6
  -8  -2   2 459.187 127.211   6
  -8  -2   1-425.502 129.670   6
  -8  -2   0 10.8868 123.244   6
  -8  -2  -1 177.215 114.491   6
  -8  -2  -2-4.36141 104.292   6
   8   2   3-187.945 129.970   1
  -8  -2  -3-186.025 109.954   6
   8   2   4 203.948 127.758   1
  -8  -2  -4 334.763 100.969   6
   8   2   5 1109.90 151.550   1
  -8  -3   4-227.476 94.7479   6
  -8  -3   3 398.558 130.043   6
  -8  -3   2-28.9356 119.888   6
  -8  -3   1 126.386 109.581   6
  -8  -3   0 2057.56 164.982   6
  -8  -3  -1 528.494 112.307   6
  -8  -3  -2 272.433 115.804   6
   8   3   3 907.989 141.589   1
  -8  -3  -3 907.640 115.722   6
   8   3   4 693.023 138.295   1
  -8  -3  -4 876.594 110.469   6
   8   3   5-21.7603 124.572   1
  -8  -4   6 67.3413 158.309   2
  -8  -4   5 177.430 160.606   2
  -8  -4   4 645.800 175.394   2
  -8  -4   3 879.982 178.485   2
  -8  -4   2 1204.99 164.195   2
  -8  -4   1 56.2199 153.821   2
  -8  -4   0-347.870 143.126   2
  -8  -4  -1 914.252 147.118   2
  -8  -4  -2 1182.83 147.478   2
  -8  -4  -3-45.0118 121.259   2
   8   4   3-284.277 91.2057   1
  -8  -4  -4 218.119 122.949   2
   8   4   4 2.47289 112.459   1
   8   4   5 1318.82 143.979   1
   8   4   6 1258.97 135.891   1
  -8  -5   4 240.727 173.708   2
  -8  -5   3 224.458 168.661   2
  -8  -5   2 123.057 151.903   2
  -8  -5   1 193.633 128.064   2
  -8  -5   0 328.351 150.372   2
  -8  -5  -1 53.6647 127.633   2
  -8  -5  -2 73.1400 92.5768   2
   8   5   2 188.844 94.6563   1
  -8  -5  -3 840.735 125.045   2
   8   5   3 616.980 117.002   1
  -8  -5  -4 493.650 119.282   2
   8   5   4 109.707 110.345   1
   8   5   5 1037.46 133.152   1
  -8  -5  -5 1050.31 140.142   2
   8   5   6 362.848 103.358   1
  -8  -6   2 502.303 194.309   2
  -8  -6   1 212.259 164.468   2
  -8  -6   0 197.911 159.422   2
  -8  -6  -1 613.775 184.285   2
  -8  -6  -2 2340.56 214.024   2
  -8  -6  -3-9.14398 122.554   2
  -8  -6  -4-47.5788 124.273   2
   8   6   4 87.4443 85.3901   1
  -8  -6  -5 144.893 143.607   2
   8   6   5 262.628 99.4094   1
   8   6   6 969.711 129.286   1
   8   6   7-59.8926 97.9080   1
  -8  -7  -1-298.835 151.021   2
  -8  -7  -2-336.492 129.534   2
  -8  -7  -3-3.88501 128.919   2
;
_shelx_hkl_checksum              25742
_shelx_res_file
;
TITL GSH10 P-1
    III.res
    created by SHELXL-2018/3 at 09:46:34 on 02-Jul-2021
CELL  0.71073  6.72340 10.28100 13.61100 74.98000 87.11000 75.34000
ZERR 2  0.00090  0.00100  0.00200  0.01000  0.01000  0.01000
LATT 1
SFAC C H CL N O S
UNIT 30 26 4 6 6 2
LIST 4
PLAN 30
FMAP 2
SHEL 14 0.8
SIZE 0.46 0.42 0.20
L.S. 14
OMIT -1 -1 3
MPLA 5 S1 N1 C7 C8 O3
MPLA 6 C1 C2 C3 C4 C5 C6
MPLA 6 C10 C11 C12 C13 C14 C15
MPLA 5 C9 N3 N2 C8 O3
DFIX 0.86 0.02 N1 H1N N2 H2N
BOND $H
HTAB N1 O2_$1
HTAB N2 O3_$2
EQIV $1 -x-1, -y+2, -z
EQIV $2 -x, -y+1, -z
HTAB
CONF
ACTA
WGHT    0.040700    0.549500
FVAR       6.42182
CL1   3   -0.753700    0.815344    0.504743    11.00000    0.12250    0.17211 =
         0.08620   -0.01301    0.03749   -0.05627
CL2   3    1.202476    0.427105    0.398379    11.00000    0.07373    0.18479 =
         0.07794   -0.01849   -0.02473   -0.04389
S1    6   -0.279688    1.019926    0.113212    11.00000    0.04598    0.04783 =
         0.05652   -0.01812   -0.00338   -0.01235
O1    5   -0.103087    1.054614    0.142900    11.00000    0.05160    0.06290 =
         0.07995   -0.03030   -0.00164   -0.02247
O2    5   -0.424070    1.121322    0.041192    11.00000    0.06161    0.05183 =
         0.06946   -0.00761   -0.01113   -0.00973
O3    5   -0.144138    0.664400    0.003067    11.00000    0.05203    0.06077 =
         0.07416   -0.03291   -0.01653   -0.00634
N1    4   -0.198239    0.889875    0.065918    11.00000    0.04540    0.05724 =
         0.05905   -0.02767   -0.00704   -0.00923
H1N   2   -0.284821    0.867944    0.037891    11.00000   -1.20000
N2    4    0.171847    0.563582    0.070845    11.00000    0.05003    0.05293 =
         0.06036   -0.02575   -0.01225   -0.00697
H2N   2    0.179223    0.490409    0.049868    11.00000   -1.20000
N3    4    0.325666    0.566077    0.133261    11.00000    0.04726    0.05242 =
         0.04955   -0.01606   -0.00768   -0.01147
C1    1   -0.415439    0.967368    0.224692    11.00000    0.04376    0.04870 =
         0.05656   -0.02145   -0.00116   -0.00783
C2    1   -0.328576    0.943569    0.318857    11.00000    0.05520    0.10348 =
         0.06057   -0.03024   -0.00053   -0.02257
AFIX  43
H2    2   -0.199533    0.958848    0.324412    11.00000   -1.20000
AFIX   0
C3    1   -0.432952    0.897072    0.404930    11.00000    0.07558    0.11910 =
         0.05410   -0.02123   -0.00188   -0.01896
AFIX  43
H3    2   -0.374571    0.880441    0.468907    11.00000   -1.20000
AFIX   0
C4    1   -0.623114    0.875363    0.396080    11.00000    0.07196    0.08976 =
         0.06558   -0.01565    0.01962   -0.02300
C5    1   -0.708983    0.898993    0.302599    11.00000    0.06116    0.13931 =
         0.07956   -0.02340    0.00821   -0.04424
AFIX  43
H5    2   -0.837854    0.883342    0.297257    11.00000   -1.20000
AFIX   0
C6    1   -0.606597    0.945650    0.216487    11.00000    0.05771    0.11815 =
         0.06171   -0.01990   -0.00151   -0.03488
AFIX  43
H6    2   -0.666116    0.962570    0.152735    11.00000   -1.20000
AFIX   0
C7    1   -0.014905    0.782071    0.105255    11.00000    0.04554    0.05161 =
         0.04752   -0.01687   -0.00299   -0.01290
AFIX  23
H7A   2   -0.022691    0.748572    0.178490    11.00000   -1.20000
H7B   2    0.105960    0.818535    0.089975    11.00000   -1.20000
AFIX   0
C8    1   -0.001579    0.665877    0.055553    11.00000    0.04616    0.05107 =
         0.04547   -0.01450   -0.00292   -0.01417
C9    1    0.482483    0.463250    0.145039    11.00000    0.05333    0.05267 =
         0.05483   -0.02004   -0.00413   -0.01390
AFIX  43
H9    2    0.486624    0.393537    0.112435    11.00000   -1.20000
AFIX   0
C10   1    0.656767    0.453547    0.209506    11.00000    0.04688    0.04830 =
         0.04826   -0.01097   -0.00320   -0.01153
C11   1    0.649041    0.547866    0.267510    11.00000    0.05805    0.05829 =
         0.06471   -0.02000   -0.00998   -0.00685
AFIX  43
H11   2    0.530130    0.618121    0.266545    11.00000   -1.20000
AFIX   0
C12   1    0.815231    0.538541    0.326348    11.00000    0.07518    0.07689 =
         0.06059   -0.02438   -0.01069   -0.02383
AFIX  43
H12   2    0.808568    0.601525    0.365387    11.00000   -1.20000
AFIX   0
C13   1    0.990645    0.435433    0.326787    11.00000    0.05570    0.08915 =
         0.04807   -0.00563   -0.00765   -0.02610
C14   1    1.001786    0.340649    0.271857    11.00000    0.04991    0.07465 =
         0.06884   -0.00552   -0.00391   -0.00252
AFIX  43
H14   2    1.120998    0.270324    0.273761    11.00000   -1.20000
AFIX   0
C15   1    0.833419    0.349704    0.212776    11.00000    0.05838    0.05570 =
         0.06436   -0.01831   -0.00188   -0.01005
AFIX  43
H15   2    0.840415    0.284985    0.175185    11.00000   -1.20000
AFIX   0
HKLF 4
REM  GSH10 P-1
REM wR2 = 0.119801, GooF = S = 1.03547, Restrained GooF = 1.03581 for all data
REM R1 = 0.048020 for 2600 Fo > 4sig(Fo) and 0.073106 for all 3598 data
REM 223 parameters refined using 2 restraints
END
WGHT      0.0407      0.5495
REM Instructions for potential hydrogen bonds
HTAB N1 O2_$1
HTAB N2 O3_$2
REM Highest difference peak  0.333,  deepest hole -0.298,  1-sigma level  0.044
Q1    1   1.2349  0.3541  0.3610  11.00000  0.05    0.33
Q2    1  -0.6970  0.8165  0.5625  11.00000  0.05    0.23
Q3    1  -0.7912  0.9057  0.4756  11.00000  0.05    0.18
Q4    1  -0.2247  1.0451  0.1607  11.00000  0.05    0.18
Q5    1  -0.3754  0.9901  0.1619  11.00000  0.05    0.18
Q6    1  -0.7407  0.9891  0.3231  11.00000  0.05    0.17
Q7    1  -0.1070  0.5771 -0.0165  11.00000  0.05    0.17
Q8    1  -0.2196  0.9408  0.0903  11.00000  0.05    0.16
Q9    1   1.1251  0.3703  0.4479  11.00000  0.05    0.16
Q10   1  -0.1239  1.0489  0.1000  11.00000  0.05    0.15
Q11   1  -0.5276  1.1333  0.0602  11.00000  0.05    0.15
Q12   1  -0.3313  0.9681  0.1756  11.00000  0.05    0.15
Q13   1   0.7673  0.5733  0.2587  11.00000  0.05    0.15
Q14   1   0.4992  0.6803  0.2322  11.00000  0.05    0.15
Q15   1   0.5976  0.4735  0.1595  11.00000  0.05    0.15
Q16   1  -0.0761  0.9867  0.1206  11.00000  0.05    0.15
Q17   1   0.5768  0.4620  0.1817  11.00000  0.05    0.14
Q18   1   0.0070  1.0756  0.1016  11.00000  0.05    0.14
Q19   1  -0.2038  0.7544 -0.0164  11.00000  0.05    0.14
Q20   1  -0.0604  0.9858  0.2044  11.00000  0.05    0.14
Q21   1  -0.1789  0.8246  0.1154  11.00000  0.05    0.14
Q22   1  -0.3438  0.9214  0.2617  11.00000  0.05    0.14
Q23   1   0.8889  0.3158  0.2701  11.00000  0.05    0.13
Q24   1  -0.2371  0.8854  0.0111  11.00000  0.05    0.13
Q25   1  -0.4411  1.1580  0.0132  11.00000  0.05    0.13
Q26   1   0.9956  0.4076  0.2822  11.00000  0.05    0.13
Q27   1   1.1664  0.4831  0.3787  11.00000  0.05    0.13
Q28   1  -0.6995  0.7329  0.4770  11.00000  0.05    0.13
Q29   1  -0.1976  0.7837  0.2810  11.00000  0.05    0.13
Q30   1   1.3567  0.5002  0.3837  11.00000  0.05    0.13
;
_shelx_res_checksum              25286
_shelxl_version_number           2014/6
loop_
_space_group_symop_operation_xyz
'x, y, z'
'-x, -y, -z'
loop_
_atom_site_type_symbol
_atom_site_label
_atom_site_fract_x
_atom_site_fract_y
_atom_site_fract_z
_atom_site_U_iso_or_equiv
_atom_site_adp_type
_atom_site_calc_flag
_atom_site_occupancy
_atom_site_disorder_assembly
_atom_site_disorder_group
Cl Cl1 -0.75370(19) 0.81534(16) 0.50474(9) 0.1284(5) Uani d 1 . .
Cl Cl2 1.20248(15) 0.42711(14) 0.39838(7) 0.1119(4) Uani d 1 . .
S S1 -0.27969(10) 1.01993(7) 0.11321(5) 0.04891(19) Uani d 1 . .
O O1 -0.1031(3) 1.05461(19) 0.14290(15) 0.0609(5) Uani d 1 . .
O O2 -0.4241(3) 1.12132(19) 0.04119(15) 0.0628(5) Uani d 1 . .
O O3 -0.1441(3) 0.66440(19) 0.00307(15) 0.0601(5) Uani d 1 . .
N N1 -0.1982(3) 0.8899(2) 0.06592(17) 0.0518(5) Uani d 1 . .
H H1N -0.285(4) 0.868(3) 0.038(2) 0.062 Uiso d 1 . .
N N2 0.1718(3) 0.5636(2) 0.07085(17) 0.0529(5) Uani d 1 . .
H H2N 0.179(4) 0.490(2) 0.050(2) 0.063 Uiso d 1 . .
N N3 0.3257(3) 0.5661(2) 0.13326(15) 0.0490(5) Uani d 1 . .
C C1 -0.4154(4) 0.9674(3) 0.2247(2) 0.0487(6) Uani d 1 . .
C C2 -0.3286(5) 0.9436(4) 0.3189(2) 0.0707(8) Uani d 1 . .
H H2 -0.199533 0.958848 0.324412 0.085 Uiso calc 1 . .
C C3 -0.4330(5) 0.8971(4) 0.4049(2) 0.0840(10) Uani d 1 . .
H H3 -0.374571 0.880441 0.468907 0.101 Uiso calc 1 . .
C C4 -0.6231(5) 0.8754(4) 0.3961(3) 0.0767(9) Uani d 1 . .
C C5 -0.7090(5) 0.8990(4) 0.3026(3) 0.0909(11) Uani d 1 . .
H H5 -0.837854 0.883342 0.297257 0.109 Uiso calc 1 . .
C C6 -0.6066(5) 0.9456(4) 0.2165(2) 0.0773(9) Uani d 1 . .
H H6 -0.666116 0.962570 0.152735 0.093 Uiso calc 1 . .
C C7 -0.0149(4) 0.7821(3) 0.10526(19) 0.0471(6) Uani d 1 . .
H H7A -0.022691 0.748572 0.178490 0.057 Uiso calc 1 . .
H H7B 0.105960 0.818535 0.089975 0.057 Uiso calc 1 . .
C C8 -0.0016(4) 0.6659(3) 0.05555(18) 0.0466(6) Uani d 1 . .
C C9 0.4825(4) 0.4633(3) 0.1450(2) 0.0521(6) Uani d 1 . .
H H9 0.486624 0.393537 0.112435 0.063 Uiso calc 1 . .
C C10 0.6568(4) 0.4535(3) 0.20951(19) 0.0480(6) Uani d 1 . .
C C11 0.6490(4) 0.5479(3) 0.2675(2) 0.0606(7) Uani d 1 . .
H H11 0.530130 0.618121 0.266545 0.073 Uiso calc 1 . .
C C12 0.8152(5) 0.5385(3) 0.3263(2) 0.0682(8) Uani d 1 . .
H H12 0.808568 0.601525 0.365387 0.082 Uiso calc 1 . .
C C13 0.9906(4) 0.4354(4) 0.3268(2) 0.0648(8) Uani d 1 . .
C C14 1.0018(4) 0.3406(3) 0.2719(2) 0.0692(8) Uani d 1 . .
H H14 1.120998 0.270324 0.273761 0.083 Uiso calc 1 . .
C C15 0.8334(4) 0.3497(3) 0.2128(2) 0.0596(7) Uani d 1 . .
H H15 0.840415 0.284985 0.175185 0.071 Uiso calc 1 . .
loop_
_atom_site_aniso_label
_atom_site_aniso_U_11
_atom_site_aniso_U_22
_atom_site_aniso_U_33
_atom_site_aniso_U_12
_atom_site_aniso_U_13
_atom_site_aniso_U_23
Cl1 0.1225(9) 0.1721(12) 0.0862(7) -0.0563(9) 0.0375(7) -0.0130(8)
Cl2 0.0737(6) 0.1848(12) 0.0779(6) -0.0439(7) -0.0247(5) -0.0185(7)
S1 0.0460(3) 0.0478(4) 0.0565(4) -0.0123(3) -0.0034(3) -0.0181(3)
O1 0.0516(10) 0.0629(12) 0.0799(13) -0.0225(9) -0.0016(9) -0.0303(10)
O2 0.0616(12) 0.0518(11) 0.0695(13) -0.0097(9) -0.0111(9) -0.0076(9)
O3 0.0520(10) 0.0608(11) 0.0742(13) -0.0063(9) -0.0165(9) -0.0329(10)
N1 0.0454(12) 0.0572(13) 0.0591(14) -0.0092(10) -0.0070(10) -0.0277(11)
N2 0.0500(12) 0.0529(13) 0.0604(14) -0.0070(10) -0.0122(10) -0.0258(11)
N3 0.0473(12) 0.0524(13) 0.0495(12) -0.0115(10) -0.0077(9) -0.0161(10)
C1 0.0438(13) 0.0487(14) 0.0566(15) -0.0078(11) -0.0012(11) -0.0215(12)
C2 0.0552(17) 0.103(3) 0.0606(18) -0.0226(16) -0.0005(14) -0.0302(18)
C3 0.076(2) 0.119(3) 0.0541(19) -0.019(2) -0.0019(16) -0.0212(19)
C4 0.072(2) 0.090(2) 0.066(2) -0.0230(18) 0.0196(16) -0.0157(18)
C5 0.061(2) 0.139(3) 0.080(2) -0.044(2) 0.0082(17) -0.023(2)
C6 0.0577(18) 0.118(3) 0.0617(19) -0.0349(18) -0.0015(15) -0.0199(19)
C7 0.0455(13) 0.0516(14) 0.0475(14) -0.0129(11) -0.0030(11) -0.0169(12)
C8 0.0462(13) 0.0511(14) 0.0455(14) -0.0142(11) -0.0029(11) -0.0145(11)
C9 0.0533(15) 0.0527(15) 0.0548(15) -0.0139(12) -0.0041(12) -0.0200(12)
C10 0.0469(13) 0.0483(14) 0.0483(14) -0.0115(11) -0.0032(11) -0.0110(11)
C11 0.0581(16) 0.0583(17) 0.0647(18) -0.0068(13) -0.0100(13) -0.0200(14)
C12 0.075(2) 0.077(2) 0.0606(18) -0.0238(17) -0.0107(15) -0.0244(16)
C13 0.0557(17) 0.089(2) 0.0481(16) -0.0261(16) -0.0076(13) -0.0056(15)
C14 0.0499(16) 0.075(2) 0.0688(19) -0.0025(14) -0.0039(14) -0.0055(16)
C15 0.0584(16) 0.0557(16) 0.0644(18) -0.0101(13) -0.0019(13) -0.0183(14)
loop_
_atom_type_symbol
_atom_type_description
_atom_type_scat_dispersion_real
_atom_type_scat_dispersion_imag
_atom_type_scat_source
C C 0.0033 0.0016 'International Tables Vol C Tables 4.2.6.8 and 6.1.1.4'
H H 0.0000 0.0000 'International Tables Vol C Tables 4.2.6.8 and 6.1.1.4'
Cl Cl 0.1484 0.1585 'International Tables Vol C Tables 4.2.6.8 and 6.1.1.4'
N N 0.0061 0.0033 'International Tables Vol C Tables 4.2.6.8 and 6.1.1.4'
O O 0.0106 0.0060 'International Tables Vol C Tables 4.2.6.8 and 6.1.1.4'
S S 0.1246 0.1234 'International Tables Vol C Tables 4.2.6.8 and 6.1.1.4'
loop_
_geom_angle_atom_site_label_1
_geom_angle_atom_site_label_2
_geom_angle_atom_site_label_3
_geom_angle_site_symmetry_1
_geom_angle_site_symmetry_3
_geom_angle
_geom_angle_publ_flag
O1 S1 O2 . . 119.70(12) ?
O1 S1 N1 . . 107.02(11) ?
O2 S1 N1 . . 106.60(12) ?
O1 S1 C1 . . 107.38(12) ?
O2 S1 C1 . . 107.41(12) ?
N1 S1 C1 . . 108.32(12) ?
C7 N1 S1 . . 121.73(16) ?
C7 N1 H1N . . 117(2) ?
S1 N1 H1N . . 116(2) ?
C8 N2 N3 . . 119.7(2) ?
C8 N2 H2N . . 119.9(19) ?
N3 N2 H2N . . 119.6(19) ?
C9 N3 N2 . . 115.3(2) ?
C2 C1 C6 . . 120.1(3) ?
C2 C1 S1 . . 120.5(2) ?
C6 C1 S1 . . 119.3(2) ?
C1 C2 C3 . . 119.8(3) ?
C1 C2 H2 . . 120.1 ?
C3 C2 H2 . . 120.1 ?
C4 C3 C2 . . 119.7(3) ?
C4 C3 H3 . . 120.1 ?
C2 C3 H3 . . 120.1 ?
C5 C4 C3 . . 120.4(3) ?
C5 C4 Cl1 . . 119.9(3) ?
C3 C4 Cl1 . . 119.7(3) ?
C4 C5 C6 . . 120.3(3) ?
C4 C5 H5 . . 119.8 ?
C6 C5 H5 . . 119.8 ?
C5 C6 C1 . . 119.7(3) ?
C5 C6 H6 . . 120.2 ?
C1 C6 H6 . . 120.2 ?
N1 C7 C8 . . 107.76(19) ?
N1 C7 H7A . . 110.2 ?
C8 C7 H7A . . 110.2 ?
N1 C7 H7B . . 110.2 ?
C8 C7 H7B . . 110.2 ?
H7A C7 H7B . . 108.5 ?
O3 C8 N2 . . 121.3(2) ?
O3 C8 C7 . . 121.3(2) ?
N2 C8 C7 . . 117.4(2) ?
N3 C9 C10 . . 120.7(2) ?
N3 C9 H9 . . 119.7 ?
C10 C9 H9 . . 119.7 ?
C15 C10 C11 . . 118.6(2) ?
C15 C10 C9 . . 119.8(2) ?
C11 C10 C9 . . 121.6(2) ?
C12 C11 C10 . . 120.8(3) ?
C12 C11 H11 . . 119.6 ?
C10 C11 H11 . . 119.6 ?
C13 C12 C11 . . 119.3(3) ?
C13 C12 H12 . . 120.3 ?
C11 C12 H12 . . 120.3 ?
C14 C13 C12 . . 121.2(3) ?
C14 C13 Cl2 . . 119.7(3) ?
C12 C13 Cl2 . . 119.1(2) ?
C13 C14 C15 . . 119.5(3) ?
C13 C14 H14 . . 120.3 ?
C15 C14 H14 . . 120.3 ?
C10 C15 C14 . . 120.6(3) ?
C10 C15 H15 . . 119.7 ?
C14 C15 H15 . . 119.7 ?
loop_
_geom_bond_atom_site_label_1
_geom_bond_atom_site_label_2
_geom_bond_site_symmetry_2
_geom_bond_distance
_geom_bond_publ_flag
Cl1 C4 . 1.735(3) ?
Cl2 C13 . 1.738(3) ?
S1 O1 . 1.4275(18) ?
S1 O2 . 1.4297(19) ?
S1 N1 . 1.594(2) ?
S1 C1 . 1.764(3) ?
O3 C8 . 1.229(3) ?
N1 C7 . 1.450(3) ?
N1 H1N . 0.818(17) ?
N2 C8 . 1.341(3) ?
N2 N3 . 1.380(3) ?
N2 H2N . 0.861(17) ?
N3 C9 . 1.273(3) ?
C1 C2 . 1.373(4) ?
C1 C6 . 1.374(4) ?
C2 C3 . 1.375(4) ?
C2 H2 . 0.9300 ?
C3 C4 . 1.369(5) ?
C3 H3 . 0.9300 ?
C4 C5 . 1.362(5) ?
C5 C6 . 1.368(4) ?
C5 H5 . 0.9300 ?
C6 H6 . 0.9300 ?
C7 C8 . 1.500(3) ?
C7 H7A . 0.9700 ?
C7 H7B . 0.9700 ?
C9 C10 . 1.467(3) ?
C9 H9 . 0.9300 ?
C10 C15 . 1.375(4) ?
C10 C11 . 1.390(4) ?
C11 C12 . 1.377(4) ?
C11 H11 . 0.9300 ?
C12 C13 . 1.371(4) ?
C12 H12 . 0.9300 ?
C13 C14 . 1.360(4) ?
C14 C15 . 1.392(4) ?
C14 H14 . 0.9300 ?
C15 H15 . 0.9300 ?
loop_
_geom_hbond_atom_site_label_D
_geom_hbond_atom_site_label_H
_geom_hbond_atom_site_label_A
_geom_hbond_site_symmetry_A
_geom_hbond_distance_DH
_geom_hbond_distance_HA
_geom_hbond_distance_DA
_geom_hbond_angle_DHA
_geom_hbond_publ_flag
N1 H1N O2 2_475 0.818(17) 2.246(19) 3.032(3) 162(3) yes
N1 H1N O3 1_555 0.815(17) 2.23(3) 2.609(3) 109(2) y
N2 H2N O3 2_565 0.861(17) 1.977(18) 2.829(3) 170(3) yes
C15 H15 O1 1_645 0.93 2.45 3.330(3) 157 y
loop_
_geom_torsion_atom_site_label_1
_geom_torsion_atom_site_label_2
_geom_torsion_atom_site_label_3
_geom_torsion_atom_site_label_4
_geom_torsion_site_symmetry_1
_geom_torsion_site_symmetry_2
_geom_torsion_site_symmetry_3
_geom_torsion_site_symmetry_4
_geom_torsion
_geom_torsion_publ_flag
O1 S1 N1 C7 . . . . 35.4(2) ?
O2 S1 N1 C7 . . . . 164.6(2) ?
C1 S1 N1 C7 . . . . -80.1(2) ?
C8 N2 N3 C9 . . . . 178.5(2) ?
O1 S1 C1 C2 . . . . -10.8(3) ?
O2 S1 C1 C2 . . . . -140.8(2) ?
N1 S1 C1 C2 . . . . 104.5(2) ?
O1 S1 C1 C6 . . . . 171.5(2) ?
O2 S1 C1 C6 . . . . 41.5(3) ?
N1 S1 C1 C6 . . . . -73.3(3) ?
C6 C1 C2 C3 . . . . 0.4(5) ?
S1 C1 C2 C3 . . . . -177.3(3) ?
C1 C2 C3 C4 . . . . -0.2(5) ?
C2 C3 C4 C5 . . . . 0.3(6) ?
C2 C3 C4 Cl1 . . . . 179.5(3) ?
C3 C4 C5 C6 . . . . -0.5(6) ?
Cl1 C4 C5 C6 . . . . -179.7(3) ?
C4 C5 C6 C1 . . . . 0.6(6) ?
C2 C1 C6 C5 . . . . -0.6(5) ?
S1 C1 C6 C5 . . . . 177.1(3) ?
S1 N1 C7 C8 . . . . 171.09(18) ?
N3 N2 C8 O3 . . . . -177.6(2) ?
N3 N2 C8 C7 . . . . 2.2(4) ?
N1 C7 C8 O3 . . . . -9.0(3) ?
N1 C7 C8 N2 . . . . 171.1(2) ?
N2 N3 C9 C10 . . . . 180.0(2) ?
N3 C9 C10 C15 . . . . -173.1(3) ?
N3 C9 C10 C11 . . . . 6.4(4) ?
C15 C10 C11 C12 . . . . 0.6(4) ?
C9 C10 C11 C12 . . . . -179.0(3) ?
C10 C11 C12 C13 . . . . 0.5(5) ?
C11 C12 C13 C14 . . . . -1.4(5) ?
C11 C12 C13 Cl2 . . . . 178.2(2) ?
C12 C13 C14 C15 . . . . 1.1(5) ?
Cl2 C13 C14 C15 . . . . -178.5(2) ?
C11 C10 C15 C14 . . . . -0.9(4) ?
C9 C10 C15 C14 . . . . 178.7(3) ?
C13 C14 C15 C10 . . . . 0.1(5) ?

_cod_database_fobs_code 2243865
