#------------------------------------------------------------------------------
#$Date: 2019-07-31 07:41:55 +0300 (Wed, 31 Jul 2019) $
#$Revision: 217324 $
#$URL: file:///home/coder/svn-repositories/cod/cif/2/24/30/2243039.cif $
#------------------------------------------------------------------------------
#
# This file is available in the Crystallography Open Database (COD),
# http://www.crystallography.net/. The original data for this entry
# were provided by IUCr Journals, http://journals.iucr.org/.
#
# The file may be used within the scientific community so long as
# proper attribution is given to the journal article from which the
# data were obtained.
#
data_2243039
loop_
_publ_author_name
'Lynch, Sheridan'
'Lynch, Genevieve'
'Lynch, Will E.'
'Padgett, Clifford W.'
_publ_section_title
;
 Crystal structures of four dimeric manganese(II) bromide coordination
 complexes with various derivatives of pyridine <i>N</i>-oxide
;
_journal_coeditor_code           SU5505
_journal_issue                   8
_journal_name_full               'Acta Crystallographica Section E'
_journal_page_first              1284
_journal_page_last               1290
_journal_paper_doi               10.1107/S2056989019010557
_journal_volume                  75
_journal_year                    2019
_chemical_formula_iupac          '[Mn2 Br4 (C6 H7 N O)4 (H2 O)2]'
_chemical_formula_moiety         'C24 H32 Br4 Mn2 N4 O6'
_chemical_formula_sum            'C24 H32 Br4 Mn2 N4 O6'
_chemical_formula_weight         902.05
_chemical_name_systematic
;
Bis(\m-3-methylpyridine <i>N</i>-oxide)bis[aquadibromido(3-methylpyridine
<i>N</i>-oxide)manganese(II)]
;
_space_group_crystal_system      triclinic
_space_group_IT_number           2
_space_group_name_Hall           '-P 1'
_space_group_name_H-M_alt        'P -1'
_symmetry_space_group_name_Hall  '-P 1'
_symmetry_space_group_name_H-M   'P -1'
_atom_sites_solution_hydrogens   mixed
_atom_sites_solution_primary     dual
_audit_creation_method
;
Olex2 1.2
(compiled 2018.05.29 svn.r3508 for OlexSys, GUI svn.r5506)
;
_cell_angle_alpha                111.980(7)
_cell_angle_beta                 100.360(6)
_cell_angle_gamma                97.737(6)
_cell_formula_units_Z            1
_cell_length_a                   7.6354(5)
_cell_length_b                   9.9700(8)
_cell_length_c                   11.8980(10)
_cell_measurement_reflns_used    4991
_cell_measurement_temperature    170
_cell_measurement_theta_max      33.1210
_cell_measurement_theta_min      2.2340
_cell_volume                     805.71(12)
_computing_cell_refinement
;
CrysAlisPro (Rigaku Oxford Diffraction, 2018)
;
_computing_data_collection
;
CrysAlisPro (Rigaku Oxford Diffraction, 2018)
;
_computing_data_reduction
;
CrysAlisPro (Rigaku Oxford Diffraction, 2018)
;
_computing_molecular_graphics
;
<i>OLEX2</i> (Dolomanov <i>et al.</i>,  2009) and Mercury (Macrae <i>et
al.</i>,  2008)
;
_computing_publication_material
;
<i>OLEX2</i> (Dolomanov <i>et al.</i>,  2009)
;
_computing_structure_refinement
;
ShelXL (Sheldrick, 2015b)
;
_computing_structure_solution
;
ShelXT (Sheldrick, 2015a)
;
_diffrn_ambient_temperature      170
_diffrn_detector                 'Rigaku XtaLAB area detector'
_diffrn_detector_area_resol_mean 13.6612
_diffrn_measured_fraction_theta_full 1.000
_diffrn_measured_fraction_theta_max 0.999
_diffrn_measurement_device       'abstract diffractometer'
_diffrn_measurement_device_type  'Rigaku XtaLAB mini'
_diffrn_measurement_method       'profile data from \w-scans'
_diffrn_radiation_monochromator  'Graphite Monochromator'
_diffrn_radiation_probe          x-ray
_diffrn_radiation_type           MoK\a
_diffrn_radiation_wavelength     0.71073
_diffrn_reflns_av_R_equivalents  0.0361
_diffrn_reflns_av_unetI/netI     0.0467
_diffrn_reflns_limit_h_max       9
_diffrn_reflns_limit_h_min       -9
_diffrn_reflns_limit_k_max       12
_diffrn_reflns_limit_k_min       -12
_diffrn_reflns_limit_l_max       15
_diffrn_reflns_limit_l_min       -15
_diffrn_reflns_number            8460
_diffrn_reflns_theta_full        25.242
_diffrn_reflns_theta_max         27.483
_diffrn_reflns_theta_min         1.907
_diffrn_source                   'fine-focus sealed X-ray tube'
_exptl_absorpt_coefficient_mu    5.785
_exptl_absorpt_correction_T_max  1.00000
_exptl_absorpt_correction_T_min  0.31906
_exptl_absorpt_correction_type   multi-scan
_exptl_absorpt_process_details
;
(CrysAlisPro; Rigaku Oxford Diffraction, 2018)
;
_exptl_crystal_colour            'clear light yellow'
_exptl_crystal_density_diffrn    1.859
_exptl_crystal_density_method    'not measured'
_exptl_crystal_description       plate
_exptl_crystal_F_000             442
_exptl_crystal_size_max          0.45
_exptl_crystal_size_mid          0.4
_exptl_crystal_size_min          0.2
_refine_diff_density_max         1.657
_refine_diff_density_min         -0.844
_refine_ls_extinction_method     none
_refine_ls_goodness_of_fit_ref   1.015
_refine_ls_hydrogen_treatment    mixed
_refine_ls_matrix_type           full
_refine_ls_number_parameters     191
_refine_ls_number_reflns         3672
_refine_ls_number_restraints     2
_refine_ls_restrained_S_all      1.015
_refine_ls_R_factor_all          0.0580
_refine_ls_R_factor_gt           0.0399
_refine_ls_shift/su_max          0.000
_refine_ls_shift/su_mean         0.000
_refine_ls_structure_factor_coef Fsqd
_refine_ls_weighting_details
'w=1/[\s^2^(Fo^2^)+(0.0461P)^2^+0.5922P] where P=(Fo^2^+2Fc^2^)/3'
_refine_ls_weighting_scheme      calc
_refine_ls_wR_factor_gt          0.0900
_refine_ls_wR_factor_ref         0.0977
_reflns_number_gt                2875
_reflns_number_total             3672
_reflns_threshold_expression     'I > 2\s(I)'
_cod_data_source_file            su5505sup1.cif
_cod_data_source_block           III
_cod_database_code               2243039
_shelx_space_group_comment
;
The symmetry employed for this shelxl refinement is uniquely defined
by the following loop, which should always be used as a source of
symmetry information in preference to the above space-group names.
They are only intended as comments.
;
_shelx_estimated_absorpt_t_min   0.181
_shelx_estimated_absorpt_t_max   0.391
_shelx_hkl_file
;
   0   0   1  455.45    8.61
   0   0  -1  748.48    8.48
   0   0   2  500.53   11.84
   0   0  -2  429.67    9.71
   0   0   3 6612.46   51.08
   0   0  -3 6354.72   46.83
   0   0  -4 1091.71   22.63
   0   0   4 1160.89   11.96
   0   0   4 1097.34   24.45
   0   0   5  255.71   13.84
   0   0  -5  261.85   12.85
   0   0   5  245.45    5.29
   0   0   6   12.13    1.37
   0   0   6   11.25    4.66
   0   0  -7 1079.73   31.05
   0   0   7 1013.51   32.83
   0   0   8  527.58   25.52
   0   0  -8  569.20   24.51
   0   0  -9  171.80   15.48
   0   0   9  178.20   16.45
   0   0  10  516.74   29.92
   0   0 -10  489.40   26.22
   0   0  11  136.25   17.69
   0   0 -11  171.92   17.26
   0   0 -12  206.40   20.29
   0   0  12  169.13   20.57
   0   0  13    9.16   11.93
   0   0 -13   15.94   10.88
   0  -1  14   -9.03   11.28
   0   1 -14    1.62   10.45
   0  -1  13   34.83   12.76
   0   1 -13   41.19   12.51
   0  -1  12   41.26   12.16
   0   1 -12   15.91    9.37
   0  -1  11    4.41    8.79
   0   1 -11   18.85    8.84
   0  -1  10  751.07   32.64
   0   1 -10  720.87   29.48
   0   1  -9 1054.73   33.01
   0  -1   9 1037.26   37.08
   0  -1   8   68.24    4.90
   0  -1   8   71.79    9.59
   0   1  -8   83.89    9.37
   0   1  -7 2833.85   46.00
   0  -1   7 2721.45   30.92
   0  -1   7 2808.83   50.28
   0   1  -6  656.12   20.11
   0  -1   6  716.19   17.11
   0  -1   6  658.05   22.32
   0  -1   5   59.78    7.10
   0  -1   5   71.72    5.79
   0   1  -5   61.26    6.05
   0  -1   4   40.45    4.80
   0  -1   4   44.59    4.93
   0   1  -4   36.81    4.27
   0   1  -3  193.15    7.46
   0  -1   3  200.19    8.19
   0  -1   2 1021.41   14.21
   0   1  -2 1037.36   13.00
   0   1  -1   61.46    2.66
   0  -1   1   65.33    5.75
   0  -1   1   71.56    2.64
   0   1  -1   73.05    2.59
   0   1  -1   72.50    2.84
   0  -1   0 3884.16   31.24
   0   1   0 3668.58   29.94
   0   1   0 3729.25   22.74
   0  -1  -1 1629.04   20.79
   0   1   1 1634.81   22.51
   0   1   2  786.36   18.35
   0  -1  -2  781.67   16.88
   0  -1  -3 4519.10   45.70
   0   1   3 4577.87   50.40
   0  -1  -4  598.24   18.53
   0   1   4  646.06   22.07
   0  -1  -5  229.60   12.43
   0   1   5  277.77   16.32
   0   1   6    3.20    4.67
   0  -1  -6    6.33    4.56
   0   1   7   24.04    7.23
   0  -1  -7   18.77    6.52
   0   1   8  228.53   18.81
   0  -1  -8  222.19   16.65
   0  -1  -9   45.60   10.71
   0   1   9   63.34   11.96
   0   1  10  176.55   19.90
   0  -1 -10  165.24   17.58
   0  -1 -11  193.61   20.13
   0   1  11  159.66   20.06
   0   1  12   80.24   17.40
   0  -1 -12   60.73   14.42
   0  -1 -13    4.27   10.67
   0   1  13    2.01   11.76
   0  -2  14   38.75   14.35
   0   2 -14   70.27   14.47
   0  -2  13   77.04   14.91
   0   2 -13   67.12   14.02
   0  -2  12    6.69    8.03
   0   2 -12   21.52    9.42
   0   2 -11   87.09   12.42
   0  -2  11   79.79   12.67
   0  -2  10  417.87   23.97
   0   2 -10  421.09   22.06
   0  -2   9  754.38   28.58
   0   2  -9  809.16   27.84
   0  -2   9  724.38   20.35
   0  -2   8    3.96    3.34
   0   2  -8    2.07    4.44
   0  -2   8    2.31    4.76
   0  -2   7 4755.97   59.82
   0  -2   7 4671.32   56.44
   0   2  -7 4587.16   55.57
   0  -2   6 4828.65   55.58
   0   2  -6 4749.01   52.22
   0   2  -5   55.59    5.49
   0  -2   5   65.25    7.87
   0  -2   5   56.17    5.77
   0  -2   4 2256.83   29.80
   0   2  -4 2185.57   27.69
   0  -2   4 2307.59   42.57
   0  -2   3 2850.62   47.33
   0  -2   3 2886.09   28.76
   0   2  -3 2854.84   27.00
   0  -2   2 1953.17   38.01
   0   2  -2 1901.52   19.09
   0   2  -2 1938.36   20.86
   0   2  -1   46.67    3.41
   0   2  -1   47.07    4.28
   0   2   0   14.31    3.79
   0   2   0   10.52    2.44
   0  -2   0   21.60    4.76
   0   2   1 9575.94   71.36
   0   2   1 9528.33   64.93
   0  -2  -2   11.38    3.36
   0   2   2   12.78    4.37
   0  -2  -2   21.92    2.77
   0  -2  -3 2750.26   41.82
   0  -2  -3 2731.82   20.25
   0   2   3 2830.92   46.14
   0   2   4 1700.54   39.27
   0  -2  -4 1711.52   35.54
   0  -2  -5  124.46   11.05
   0   2   5  144.56   13.27
   0   2   6  406.19   24.67
   0  -2  -6  315.31   16.79
   0  -2  -7   38.31    9.37
   0   2   7   14.96    7.99
   0   2   8   16.69    8.04
   0  -2  -8   18.21    7.97
   0   2   9   24.87    9.33
   0  -2  -9   42.80   11.09
   0   2  10    5.87    9.30
   0  -2 -10    9.80    9.04
   0  -2 -11   53.11   11.66
   0   2  11   20.47   13.24
   0   2  12   16.44   13.87
   0  -2 -12   15.32   14.22
   0   3 -14  154.35   17.80
   0  -3  14  149.68   19.54
   0  -3  13  155.66   18.89
   0   3 -13  178.37   17.82
   0   3 -12   32.74   10.01
   0  -3  12   29.38    7.93
   0  -3  11    6.10    7.13
   0   3 -11   -5.45    5.91
   0   3 -10    2.76    6.46
   0  -3  10   11.43    6.43
   0  -3  10   13.23    5.21
   0   3  -9  301.75   16.58
   0  -3   9  338.26   19.43
   0  -3   8  437.94   20.84
   0  -3   8  408.10   19.38
   0   3  -8  410.79   18.02
   0  -3   7  391.86   17.22
   0   3  -7  387.85   15.92
   0  -3   7  393.47   19.83
   0  -3   6 4167.89   65.67
   0  -3   6 4177.86   49.28
   0   3  -6 4132.69   47.00
   0  -3   5  263.43   17.08
   0  -3   5  237.58   11.08
   0   3  -5  254.44   10.70
   0  -3   4 2535.21   31.28
   0  -3   4 2550.90   51.55
   0   3  -3 2340.26   25.97
   0   3  -3 2349.85   28.31
   0   3  -2  231.16    8.25
   0   3  -2  216.36    9.02
   0   3  -1   58.17    4.87
   0   3  -1   75.52    6.73
   0  -3   1   57.49    7.80
   0   3   0  843.63   20.11
   0  -3   0  906.63   26.80
   0   3   0  848.28   24.70
   0   3   1 1109.02   29.70
   0   3   1 1181.10   27.33
   0   3   2  737.87   25.49
   0  -3  -2  691.22   22.94
   0  -3  -2  729.43   19.16
   0   3   3   20.34    6.26
   0  -3  -3   21.83    5.44
   0  -3  -3   18.76    3.15
   0   3   4  622.57   27.01
   0  -3  -4  606.39   24.12
   0  -3  -4  551.03   10.66
   0   3   5   59.92   10.59
   0  -3  -5   53.17    8.68
   0   3   6   92.57   13.02
   0  -3  -6  111.77   12.35
   0   3   7   48.85   13.23
   0  -3  -7   69.08   11.41
   0  -3  -8  112.87   14.62
   0   3   8   70.96   15.21
   0   3   9   -5.79   10.83
   0  -3  -9   -0.99    8.35
   0  -3 -10  108.00   18.44
   0   3  10   65.29   16.47
   0   3  11   25.38   13.95
   0  -3 -11   19.60   13.69
   0   3  12   16.52   15.07
   0  -3 -12    6.61   12.26
   0   4 -15   54.66   13.61
   0  -4  15   42.30   13.83
   0  -4  14   58.01   14.05
   0   4 -14   66.37   13.37
   0  -4  13  409.07   26.49
   0   4 -13  443.02   26.74
   0   4 -12  217.95   18.25
   0  -4  12  204.80   19.09
   0   4 -11  200.81   15.89
   0  -4  11  162.50   15.47
   0  -4  11  177.44   14.27
   0  -4  10   12.17    5.66
   0   4 -10    4.71    6.07
   0  -4  10   15.44    6.89
   0  -4   9   58.63    9.35
   0  -4   9   51.58    9.54
   0   4  -9   54.46    7.72
   0   4  -8  575.32   21.51
   0  -4   8  599.51   27.69
   0  -4   8  561.83   21.73
   0   4  -7  157.58   10.84
   0  -4   7  164.52   15.58
   0  -4   7  142.86   10.43
   0  -4   6 1215.36   40.03
   0   4  -6 1240.94   25.72
   0  -4   6 1165.69   27.49
   0  -4   5 2522.90   57.57
   0   4  -5 2498.91   33.70
   0   4  -4 1060.72   22.15
   0   4  -4 1029.45   20.18
   0   4  -3 1149.63   20.81
   0  -4   3 1194.12   38.39
   0   4  -3 1147.43   22.98
   0   4  -2   94.88    7.69
   0   4  -2   96.21    6.85
   0   4  -1   79.41    7.15
   0  -4   1   86.17   10.58
   0   4  -1   90.12    8.80
   0  -4   0   64.01    8.83
   0   4   0   52.69    7.95
   0   4   0   53.21    6.75
   0   4   1  208.34   15.66
   0   4   1  217.67   13.55
   0  -4  -1  213.72   13.77
   0  -4  -2  150.46   13.02
   0   4   2  123.26   12.95
   0  -4  -2  132.46   10.81
   0   4   3  185.22   15.81
   0  -4  -3  146.83   10.04
   0  -4  -3  167.12   13.46
   0  -4  -4  200.35    9.00
   0  -4  -4  263.85   17.72
   0   4   4  246.32   19.19
   0  -4  -5  237.99   18.88
   0   4   5  256.17   21.67
   0   4   6    6.70    9.06
   0  -4  -6   11.28    7.70
   0  -4  -7   60.43   10.71
   0   4   7   94.45   17.46
   0   4   8   78.08   17.36
   0  -4  -8   69.55   13.71
   0  -4  -9   10.02   10.93
   0   4   9   -4.60   10.63
   0  -4 -10   43.72   14.30
   0   4  10   34.83   14.66
   0  -4 -11   57.11   16.68
   0   4  11   43.43   18.43
   0  -5  15  138.97   18.05
   0   5 -15  143.11   18.22
   0   5 -14   14.01    8.87
   0  -5  14   26.36   10.28
   0   5 -13  479.07   26.56
   0  -5  13  418.91   26.60
   0   5 -12  418.49   24.97
   0  -5  12  416.57   24.92
   0  -5  12  453.03   25.32
   0   5 -11   93.23   12.43
   0  -5  11  106.78   13.69
   0  -5  11   99.30   12.02
   0   5 -10  274.85   17.26
   0  -5  10  253.02   20.04
   0  -5  10  237.67   17.46
   0  -5   9  100.74   10.59
   0   5  -9  100.50   10.56
   0  -5   9   99.50   13.41
   0  -5   8   86.48    9.21
   0  -5   8  115.04   14.48
   0   5  -8   95.76    9.98
   0  -5   7  337.74   23.23
   0   5  -7  393.08   16.13
   0  -5   7  381.75   16.70
   0  -5   6    5.44    6.26
   0   5  -6   16.79    4.69
   0   5  -6   16.07    4.23
   0   5  -5 1792.23   33.31
   0   5  -5 1853.83   30.98
   0  -5   5 1832.45   52.12
   0   5  -4  227.45   10.61
   0   5  -4  202.29   11.43
   0  -5   4  232.96   19.52
   0   5  -3  453.38   15.76
   0   5  -3  432.91   17.20
   0  -5   3  459.78   26.17
   0   5  -2  998.10   24.75
   0   5  -2 1002.55   29.09
   0   5  -1   68.73    7.35
   0   5  -1   76.71    9.98
   0  -5   1   64.00   10.49
   0   5   0   16.22    6.54
   0  -5   0   12.81    5.90
   0   5   0   15.65    5.83
   0   5   1 1080.80   33.18
   0   5   1 1022.37   36.23
   0  -5  -1 1091.62   32.59
   0  -5  -2   24.63    7.09
   0   5   2   31.80    8.14
   0  -5  -2   33.68    6.93
   0  -5  -3  468.97   24.85
   0   5   3  481.22   27.68
   0  -5  -3  433.70   18.94
   0  -5  -4  140.63   14.20
   0   5   4  142.84   16.68
   0  -5  -4  119.39    8.65
   0   5   5   24.82    9.05
   0  -5  -5   12.94    7.49
   0   5   6   35.62   12.27
   0  -5  -6   25.86    9.68
   0   5   7   24.97   12.43
   0  -5  -7    9.31    7.66
   0  -5  -8   13.05   10.75
   0   5   8   14.61   14.67
   0   5   9   34.34   13.53
   0  -5  -9  -18.08   12.07
   0   5  10    0.84   13.36
   0  -5 -10   28.39   14.07
   0   6 -15   97.53   14.82
   0  -6  15  101.98   16.70
   0  -6  14  111.32   15.99
   0   6 -14  121.20   14.75
   0   6 -13    6.84    7.32
   0  -6  13   14.84    8.01
   0  -6  13   -0.18    7.79
   0   6 -12  377.35   22.97
   0  -6  12  393.52   23.96
   0  -6  12  373.33   25.75
   0   6 -11   53.98   10.97
   0  -6  11   56.92   10.54
   0  -6  11   72.67   13.44
   0  -6  10  252.69   22.07
   0  -6  10  265.14   17.77
   0   6 -10  269.00   16.91
   0  -6   9  136.48   12.88
   0  -6   9  136.53   16.50
   0   6  -9  140.29   11.82
   0   6  -8   46.18    8.21
   0   6  -8   47.64    7.49
   0  -6   8   55.72   12.04
   0   6  -7  118.12   10.87
   0  -6   7  121.30   15.16
   0   6  -7  112.97   10.18
   0   6  -6  543.04   20.66
   0   6  -6  532.87   18.83
   0  -6   6  544.81   30.57
   0  -6   5   12.39    8.64
   0   6  -5   17.82    4.46
   0   6  -5   14.22    4.72
   0   6  -4 1711.67   32.17
   0  -6   4 1639.70   51.22
   0   6  -4 1603.67   36.40
   0  -6   3    3.81    7.91
   0   6  -3    5.67    3.90
   0   6  -3    4.41    4.56
   0   6  -2  477.66   20.09
   0   6  -2  470.33   22.69
   0  -6   2  486.91   26.35
   0   6  -1   21.78    6.18
   0  -6   1   12.40    7.34
   0   6  -1   10.71    6.43
   0  -6   0   57.98    9.95
   0   6   0   78.01   12.53
   0   6   0   68.00   10.08
   0   6   1  231.76   18.63
   0  -6  -1  254.65   18.27
   0   6   1  240.07   18.55
   0  -6  -2  191.90   15.69
   0   6   2  204.45   19.18
   0  -6  -2  217.86   17.75
   0  -6  -3   76.93   12.04
   0  -6  -3   65.41    9.27
   0   6   3   60.51   13.21
   0  -6  -4  507.10   29.46
   0   6   4  524.85   32.26
   0  -6  -5   74.10   13.79
   0   6   5   82.68   16.62
   0   6   6   21.71   12.35
   0  -6  -6   21.90    9.78
   0   6   7    7.36   11.88
   0  -6  -7   14.01   11.26
   0   6   8  -12.92   12.50
   0  -6  -8   -5.95   10.53
   0  -6  -9  -18.58   14.51
   0   6   9   11.81   12.59
   0   7 -15   26.45   10.80
   0  -7  15   19.87   10.95
   0  -7  14   29.36   12.39
   0   7 -14   35.94   10.43
   0  -7  13   58.00   12.46
   0  -7  13   46.31   11.94
   0   7 -13   63.84   11.93
   0   7 -12  171.37   16.23
   0  -7  12  222.88   23.38
   0  -7  12  184.01   17.55
   0  -7  11  485.85   32.32
   0   7 -11  499.69   24.26
   0   7 -11  506.65   28.15
   0   7 -10   85.73   11.11
   0  -7  10   67.55   15.30
   0   7 -10   92.54   11.54
   0  -7   9  374.37   27.23
   0   7  -9  394.09   22.45
   0   7  -9  380.22   19.82
   0  -7   8   13.15    8.49
   0   7  -8   13.59    5.40
   0   7  -8    3.27    5.66
   0  -7   7   95.58   15.84
   0   7  -7   79.65    8.77
   0   7  -7   70.72   10.11
   0  -7   6  235.87   21.92
   0   7  -6  221.04   15.39
   0   7  -6  218.14   13.02
   0   7  -5  429.57   20.58
   0   7  -5  415.25   17.61
   0  -7   5  407.15   27.13
   0   7  -4  215.49   16.09
   0  -7   4  234.53   20.74
   0   7  -4  190.82   12.56
   0   7  -3  176.95   15.42
   0   7  -3  171.11   12.96
   0  -7   3  145.61   17.01
   0   7  -2   -4.31    4.32
   0   7  -2   -1.97    6.35
   0  -7   2   -6.23    7.18
   0   7  -1  102.42   13.58
   0   7  -1   84.71   11.39
   0  -7   1   65.43   13.24
   0  -7   0   61.93   10.96
   0   7   0   69.13   10.84
   0   7   0   67.25   12.82
   0  -7  -1   37.65    9.20
   0   7   1   52.70   12.00
   0  -7  -2   57.99   10.54
   0   7   2   56.83   12.37
   0   7   3   51.68   14.56
   0  -7  -3   39.40   11.00
   0  -7  -3   49.99    9.02
   0   7   4  274.31   25.97
   0  -7  -4  273.00   23.37
   0  -7  -5  161.29   19.48
   0   7   5  154.10   22.12
   0  -7  -6   11.20   11.00
   0   7   6   -4.17   12.17
   0  -7  -7   66.29   15.07
   0   7   7   83.31   20.62
   0  -7  -8  -19.69   14.11
   0   7   8    9.86   13.58
   0  -8  14    6.98   11.21
   0   8 -14   -6.54   11.37
   0   8 -14   14.37   11.27
   0  -8  13   91.20   16.53
   0   8 -13   86.62   13.88
   0   8 -12    8.91    7.63
   0  -8  12    5.99   11.05
   0   8 -12   19.19    9.35
   0   8 -11  303.03   22.24
   0   8 -11  299.94   20.04
   0  -8  11  264.63   26.33
   0  -8  10   89.45   16.31
   0   8 -10   98.96   12.08
   0   8 -10  106.82   13.44
   0  -8   9   67.86   15.25
   0   8  -9   48.62    8.70
   0   8  -9   55.32    9.31
   0   8  -8   90.43   11.20
   0   8  -8   78.82   10.13
   0  -8   8   80.80   17.07
   0  -8   7   18.71    8.32
   0   8  -7   26.21    7.22
   0   8  -7   21.43    6.33
   0  -8   6   45.08   12.00
   0   8  -6   48.07    7.58
   0   8  -6   69.52   10.30
   0   8  -5  695.91   28.58
   0   8  -5  669.62   24.49
   0  -8   5  700.60   36.45
   0   8  -4   45.48    8.77
   0  -8   4   35.25   11.38
   0   8  -4   56.17    9.28
   0  -8   3 1090.46   43.59
   0   8  -3 1130.27   41.29
   0  -8   2  974.81   42.46
   0   8  -2 1036.07   35.79
   0   8  -1   -7.85    8.20
   0  -8   1    4.66    8.65
   0   8   0   27.50   10.95
   0  -8   0   20.05   10.06
   0   8   0   27.64    9.92
   0  -8  -1    6.02    6.95
   0   8   1   10.13    9.47
   0  -8  -1    1.78    7.35
   0   8   2  122.96   18.27
   0  -8  -2  104.11   15.93
   0  -8  -2  108.27   14.44
   0  -8  -3  120.54   16.26
   0   8   3  154.65   19.98
   0   8   4   42.70   15.48
   0  -8  -4   25.91   10.75
   0   8   5  157.63   24.44
   0  -8  -5  190.36   21.35
   0   8   6   22.77   15.49
   0  -8  -6   38.49   13.99
   0  -9  14   37.25   12.85
   0   9 -14   16.65   10.59
   0  -9  13   -5.12   11.11
   0   9 -13   -6.04    9.06
   0  -9  12  237.31   26.31
   0   9 -12  254.24   22.66
   0   9 -12  272.78   21.70
   0  -9  11   24.32   12.27
   0   9 -11   25.65    9.76
   0   9 -11   54.71   11.51
   0  -9  10   98.55   19.07
   0   9 -10  119.78   13.51
   0   9 -10  109.18   14.15
   0   9  -9   32.78    7.78
   0  -9   9   28.76   12.14
   0   9  -9   25.38    8.94
   0   9  -8   31.68    7.90
   0   9  -8   36.37    8.70
   0  -9   8   48.86   14.19
   0   9  -7  164.09   16.04
   0   9  -7  154.85   13.83
   0  -9   7  137.08   20.34
   0   9  -6  271.55   17.24
   0  -9   6  321.25   27.09
   0   9  -6  295.48   21.26
   0  -9   5   35.93   12.84
   0   9  -5   43.33    9.09
   0   9  -5   65.20   12.70
   0  -9   4  443.00   30.14
   0   9  -4  500.68   29.27
   0   9  -4  445.09   23.28
   0   9  -3   15.60    6.97
   0  -9   3   46.17   12.42
   0  -9   2  427.98   30.05
   0   9  -2  457.79   25.95
   0   9  -2  464.22   30.35
   0  -9   1   54.88   12.71
   0   9  -1   76.74   12.67
   0   9  -1   78.18   15.27
   0   9   0   66.70   14.03
   0  -9   0   38.01   11.46
   0  -9  -1   38.42   10.71
   0  -9  -1   42.19   11.68
   0   9   1   42.20   12.86
   0  -9  -2   -1.84    5.97
   0  -9  -2   37.57   12.21
   0   9   2   23.26   12.38
   0   9   3   10.10   11.53
   0  -9  -3   16.10    9.37
   0   9   4   27.88   11.72
   0  -9  -4    9.35   11.45
   0   9   5   43.83   17.50
   0  -9  -5   83.57   17.52
   0 -10  13   43.00   15.59
   0 -10  12  159.29   25.52
   0  10 -12  196.89   21.97
   0 -10  11  208.25   25.17
   0  10 -11  195.14   19.96
   0  10 -10  163.94   17.60
   0 -10  10  157.43   24.13
   0  10  -9  645.73   31.63
   0 -10   9  602.13   40.82
   0  10  -9  584.49   27.63
   0  10  -8  165.79   18.34
   0  10  -8  145.70   14.12
   0 -10   8  144.50   21.01
   0 -10   7   -6.89   10.06
   0  10  -7    2.98    5.86
   0  10  -7    5.53    8.12
   0  10  -6   14.30    9.28
   0 -10   6   10.91   10.58
   0  10  -6   -0.17    6.43
   0  10  -5  123.40   17.02
   0 -10   5  111.95   18.29
   0  10  -5   87.80   12.01
   0 -10   4  481.11   34.87
   0  10  -4  506.02   26.41
   0  10  -3   76.81   13.35
   0  10  -3   78.86   13.11
   0 -10   3   37.45   13.23
   0  10  -2  289.76   25.82
   0 -10   2  271.41   25.72
   0  10  -2  294.44   23.71
   0  10  -1  487.71   31.16
   0  10  -1  555.77   34.78
   0 -10   1  450.59   31.18
   0 -10   0   -5.89    7.92
   0  10   0    2.48   10.78
   0 -10   0   -1.55    8.63
   0 -10  -1  169.13   19.72
   0 -10  -1  152.75   18.81
   0  10   1  187.10   22.98
   0  10   2   43.87   15.18
   0 -10  -2   35.61   12.33
   0 -10  -3   -0.52   10.23
   0  10   3   -3.26   13.02
   0 -11  12    6.55   15.63
   0 -11  11  260.54   29.69
   0 -11  10   48.34   16.67
   0  11  -9  151.18   18.36
   0 -11   9  142.91   22.56
   0  11  -8  349.98   26.38
   0 -11   8  342.79   32.64
   0  11  -7   -0.08    7.24
   0  11  -7    6.97    8.81
   0 -11   7    1.12   12.95
   0  11  -6   22.29   11.30
   0  11  -6    3.52    6.81
   0 -11   6    7.00   13.10
   0  11  -5   29.48   12.54
   0  11  -5   29.48    9.99
   0 -11   5   20.95   13.31
   0 -11   4  136.45   19.97
   0  11  -4  102.74   14.85
   0  11  -4  111.15   18.72
   0  11  -3  209.39   23.51
   0  11  -3  195.35   20.45
   0 -11   3  180.33   23.91
   0  11  -2   15.53   10.28
   0 -11   2   15.68   10.50
   0  11  -2   23.72   11.93
   0  11  -1  449.53   34.69
   0 -11   1  394.25   29.13
   0 -11   1  427.23   27.73
   0  11   0   82.65   18.73
   0 -11   0   56.30   13.22
   0 -11   0   47.82   12.97
   0  11   1   49.82   16.55
   0 -11  -1   37.91   12.54
   0 -12  10  301.12   33.65
   0 -12   9   17.75   12.57
   0 -12   8  478.69   39.00
   0 -12   7  107.30   21.83
   0 -12   6   55.82   18.20
   0 -12   5   65.36   17.06
   0  12  -4   24.45   13.84
   0 -12   4   22.28   13.70
   0  12  -3   47.36   15.26
   0 -12   3   13.31   11.36
   0 -12   2   -0.06    9.84
   0  12  -2   12.45   10.84
   0 -12   1   65.93   15.55
   0  12  -1   92.93   19.54
   1 -12   1   29.29   12.85
  -1  12  -1   19.48   14.93
  -1  12  -2   39.02   15.87
   1 -12   2   49.28   16.21
   1 -12   3   12.97   13.14
  -1  12  -3   54.87   16.53
   1 -12   4    3.53   11.20
  -1  12  -4   27.71   14.42
   1 -12   5   66.49   16.59
  -1  12  -5   37.00   16.46
   1 -12   6   11.69   14.58
  -1  12  -6    4.13   12.40
   1 -12   7   -5.38   13.36
  -1  12  -7   31.45   15.13
   1 -12   8   17.22   13.57
  -1  12  -8   47.07   14.88
   1 -12   9   15.00   14.80
  -1  12  -9   14.69   12.18
   1 -12  10  169.06   26.12
  -1  11   2    1.68   12.42
   1 -11  -2  -12.94   11.65
  -1  11   1   14.66   15.11
   1 -11  -1    5.79    8.83
   1 -11   0    6.39    8.74
   1 -11   0   -3.07   10.44
  -1  11   0   15.78   12.31
  -1  11  -1   63.76   16.43
   1 -11   1   47.12   11.79
   1 -11   1   55.19   14.16
   1 -11   2   38.99   12.19
  -1  11  -2   35.96   14.18
  -1  11  -3  238.36   26.55
   1 -11   3  279.43   26.84
   1 -11   4   48.33   13.69
  -1  11  -4   85.68   16.98
  -1  11  -5  197.02   22.20
   1 -11   5  165.52   22.23
  -1  11  -6  131.13   18.56
   1 -11   6  133.22   21.35
   1 -11   7   27.91   12.55
  -1  11  -7    2.78    9.10
  -1  11  -8  -16.26   10.54
   1 -11   8    2.36   10.87
   1 -11   9    0.99   11.76
  -1  11  -9   -6.11   11.60
   1 -11  10  130.68   23.23
  -1  11 -10  103.50   17.15
  -1  11 -11  160.77   20.88
   1 -11  11  152.63   24.25
   1 -11  12   42.46   16.63
  -1  11 -12   59.25   15.15
  -1  10   4   68.43   21.18
   1 -10  -4   41.06   13.67
   1 -10  -3   15.52   11.68
  -1  10   3    6.78   13.59
   1 -10  -2   21.75   10.13
  -1  10   2    1.24   12.38
  -1  10   1   28.48   14.20
   1 -10  -1   12.26    9.32
   1 -10  -1   -0.46    8.41
   1 -10   0    9.91    9.36
   1 -10   0  -10.38    8.72
   1 -10   1   30.87   11.50
   1 -10   1   42.91   10.88
  -1  10  -1   25.05   13.42
  -1  10  -2    9.83    7.97
   1 -10   2    0.33   10.18
  -1  10  -2   24.22   12.34
  -1  10  -3  438.62   24.54
   1 -10   3  436.43   31.64
  -1  10  -3  460.07   31.97
  -1  10  -4  524.01   32.58
  -1  10  -4  434.88   23.44
   1 -10   4  467.61   33.75
   1 -10   5  143.38   19.89
  -1  10  -5  117.80   17.32
  -1  10  -5  125.67   12.18
   1 -10   6 1166.05   54.49
  -1  10  -6 1140.85   45.19
   1 -10   7  402.03   33.47
  -1  10  -7  413.00   27.82
   1 -10   8   12.28   13.15
  -1  10  -8   23.98   11.21
   1 -10   9    3.95   11.56
  -1  10  -9   18.45    9.89
  -1  10 -10  131.59   17.04
   1 -10  10  104.86   20.20
  -1  10 -11  309.26   25.45
   1 -10  11  282.90   29.87
   1 -10  12   14.05   13.82
  -1  10 -12   39.84   14.50
   1 -10  13  311.09   30.31
  -1  10 -13  348.33   29.26
  -1   9   5   -5.13   14.19
   1  -9  -5   -6.09    8.67
  -1   9   4   43.77   14.89
   1  -9  -4   59.86   13.91
   1  -9  -3  211.77   21.03
  -1   9   3  208.40   26.04
  -1   9   2   32.12   14.01
   1  -9  -2   33.14    9.99
   1  -9  -2    6.82    8.64
   1  -9  -1   50.48   11.21
  -1   9   1   76.73   15.80
   1  -9  -1   60.06   12.32
   1  -9   0   39.88   10.94
  -1   9   0   44.78   13.19
   1  -9   0   49.91   10.81
   1  -9   1   39.23   11.23
  -1   9  -1   37.28   12.21
   1  -9   2  229.14   22.17
  -1   9  -2  259.39   18.83
  -1   9  -2  259.21   24.40
  -1   9  -3   16.04   10.31
   1  -9   3   28.99   10.98
  -1   9  -3   40.45    8.96
  -1   9  -4  579.04   31.62
  -1   9  -4  550.38   22.88
   1  -9   5   66.29   15.14
  -1   9  -5   54.23   11.23
  -1   9  -5   56.63    8.74
  -1   9  -6  856.36   26.88
  -1   9  -6  971.94   38.24
   1  -9   6  986.58   47.29
  -1   9  -7  942.59   36.54
   1  -9   7  918.86   47.46
  -1   9  -7  805.80   25.78
  -1   9  -8   33.44   11.25
   1  -9   8   23.95   13.39
  -1   9  -8   21.83    5.95
  -1   9  -9  275.30   22.01
   1  -9   9  292.41   27.28
   1  -9  10  177.52   22.19
  -1   9 -10  139.90   16.25
  -1   9 -11  102.65   14.95
   1  -9  11   65.48   14.03
  -1   9 -12   49.38   12.54
   1  -9  12   38.07   13.25
  -1   9 -13   39.22   13.68
   1  -9  13   16.42   13.35
  -1   8   7    8.23   14.16
   1  -8  -7    3.22   11.63
   1  -8  -6   19.37   10.93
  -1   8   6    9.78   14.05
  -1   8   5   30.20   15.16
   1  -8  -5   33.61   11.92
   1  -8  -4   68.28   14.14
  -1   8   4   80.23   17.54
   1  -8  -3  696.63   33.97
  -1   8   3  699.69   40.53
   1  -8  -2   14.35    8.97
  -1   8   2   10.19    9.17
   1  -8  -2   16.67    8.14
  -1   8   1  994.51   44.01
   1  -8  -1  950.49   35.54
  -1   8   0 1297.29   49.96
   1  -8   0 1197.85   43.67
   1  -8   0 1291.65   39.22
   1  -8   1  104.61   14.55
  -1   8  -1  103.34   12.01
  -1   8  -1  109.15   15.50
  -1   8  -2   -3.23    9.87
   1  -8   2   -4.00    8.94
  -1   8  -2    4.01    5.61
   1  -8   3  325.96   26.29
  -1   8  -3  301.15   16.72
  -1   8  -3  367.14   24.08
  -1   8  -4 1090.95   39.60
  -1   8  -4 1046.63   28.62
   1  -8   4 1080.38   49.46
  -1   8  -5  746.79   23.16
  -1   8  -5  826.39   32.82
   1  -8   5  879.42   42.96
   1  -8   6  262.91   25.09
  -1   8  -6  240.71   18.01
  -1   8  -6  225.88   12.88
  -1   8  -7 2054.39   50.26
   1  -8   7 2155.89   70.11
  -1   8  -8  376.60   23.17
   1  -8   8  356.11   29.66
  -1   8  -8  314.99   16.17
  -1   8  -9  459.93   26.41
  -1   8  -9  461.66   20.31
   1  -8   9  471.80   33.07
  -1   8 -10  477.26   27.85
   1  -8  10  457.41   32.16
  -1   8 -10  499.39   22.98
  -1   8 -11   28.11    9.22
   1  -8  11   -6.12   10.33
  -1   8 -11    8.33    8.91
  -1   8 -12   23.77    9.37
   1  -8  12    0.78   10.57
  -1   8 -12    6.96    8.31
  -1   8 -13   14.21   10.36
   1  -8  13   27.92   12.42
  -1   8 -13   17.71    9.45
  -1   8 -14  123.03   19.02
   1  -7  -8   18.76   12.63
  -1   7   8  -16.08   12.54
  -1   7   7   19.74   13.52
   1  -7  -7   39.65   13.13
   1  -7  -6   39.55   11.54
  -1   7   6   24.31   12.93
  -1   7   5  216.77   24.23
   1  -7  -5  195.03   20.34
  -1   7   4   74.58   15.23
   1  -7  -4   71.00   12.80
   1  -7  -3  357.70   23.10
  -1   7   3  373.99   28.46
  -1   7   2  350.93   26.75
   1  -7  -2  412.00   23.97
   1  -7  -2  335.76   20.82
   1  -7  -1   29.16    7.76
   1  -7  -1   38.53    8.98
  -1   7   1   21.52   10.49
   1  -7   0 1024.47   32.43
   1  -7   0  956.11   35.76
  -1   7   0  980.06   41.37
  -1   7  -1  318.91   23.47
  -1   7  -1  297.81   17.48
   1  -7   1  316.45   23.38
  -1   7  -2  414.76   24.56
  -1   7  -2  381.44   18.05
   1  -7   2  395.55   26.99
  -1   7  -3  102.38    8.70
  -1   7  -3  123.19   13.73
  -1   7  -4  198.54   15.39
   1  -7   4  194.12   20.36
  -1   7  -4  184.07   11.06
  -1   7  -5  584.91   18.48
  -1   7  -5  609.79   25.05
   1  -7   5  617.47   34.35
  -1   7  -6   83.38   10.78
   1  -7   6   86.12   15.05
  -1   7  -6   77.31    7.35
   1  -7   7 1033.56   46.17
  -1   7  -7 1059.73   33.40
  -1   7  -7  993.75   25.49
  -1   7  -8 1404.38   32.64
  -1   7  -8 1460.76   41.97
   1  -7   8 1432.58   53.14
  -1   7  -9  174.06   15.19
  -1   7  -9  185.88   13.01
   1  -7   9  139.37   17.77
  -1   7 -10  466.86   26.96
  -1   7 -10  480.99   22.25
   1  -7  10  450.58   30.39
  -1   7 -11   36.36    8.34
  -1   7 -11   44.31   11.63
   1  -7  11   39.42   11.83
   1  -7  12   -1.94    7.03
   1  -7  12   27.63   10.95
  -1   7 -12   19.42    8.54
  -1   7 -13    1.17    7.13
   1  -7  13   -1.80    8.22
  -1   7 -14   20.41    8.90
   1  -7  14    8.56    9.93
  -1   6   9   46.77   18.40
   1  -6  -9   52.79   13.84
  -1   6   8    5.82   12.50
   1  -6  -8   16.02   11.75
  -1   6   7  240.15   26.74
   1  -6  -7  224.39   23.15
  -1   6   6  133.28   20.59
   1  -6  -6  103.24   15.71
   1  -6  -5   23.13    9.65
  -1   6   5   39.56   13.35
   1  -6  -4    9.89    4.41
  -1   6   4   19.97    8.94
  -1   6   3  314.81   25.21
   1  -6  -3  286.97   15.94
   1  -6  -3  358.30   21.66
   1  -6  -2 1119.58   37.07
   1  -6  -2 1166.31   33.25
  -1   6   2 1160.93   44.95
  -1   6   1  135.18   16.74
   1  -6  -1  174.46   13.80
   1  -6  -1  136.02   13.45
  -1   6   0 2165.19   56.52
   1  -6   0 2204.01   50.76
  -1   6  -1 2117.66   51.61
   1  -6   1 2035.50   52.67
  -1   6  -1 2034.53   39.51
  -1   6  -2  311.70   14.18
   1  -6   2  256.89   21.41
  -1   6  -2  281.22   17.85
  -1   6  -3  802.30   20.52
   1  -6   3  797.57   35.21
  -1   6  -3  790.75   27.62
  -1   6  -4  183.48    9.63
  -1   6  -4  204.32   13.22
   1  -6   4  183.45   18.60
  -1   6  -5   60.13    8.45
  -1   6  -5   52.32    5.42
   1  -6   5   51.56   10.91
  -1   6  -6  162.60   12.86
  -1   6  -6  154.92    9.83
   1  -6   6  160.36   17.56
  -1   6  -7   49.12    6.31
  -1   6  -7   49.09    8.39
   1  -6   7   55.11   12.12
   1  -6   8  996.74   41.05
  -1   6  -8 1005.97   33.92
  -1   6  -8  961.34   26.26
   1  -6   9   12.55    9.11
   1  -6   9   12.03    6.13
  -1   6  -9   13.92    5.71
   1  -6  10  295.81   19.30
  -1   6 -10  278.11   17.31
   1  -6  10  290.16   22.29
  -1   6 -11  407.16   22.64
   1  -6  11  399.89   24.86
   1  -6  11  334.66   22.59
   1  -6  12   55.93   11.13
   1  -6  12   59.33   11.91
  -1   6 -12   45.97   10.45
  -1   6 -13   50.31   10.82
   1  -6  13   37.82   11.26
   1  -6  14   27.00   11.41
  -1   6 -14   48.53   11.36
   1  -5 -10   14.98   11.45
  -1   5  10    2.11   13.64
   1  -5  -9  265.80   25.60
  -1   5   9  253.11   29.41
   1  -5  -8   55.88   13.62
  -1   5   8   52.64   17.33
  -1   5   7  122.41   18.97
   1  -5  -7  142.55   16.91
  -1   5   6  226.72   22.72
   1  -5  -6  233.56   18.92
  -1   5   5   -8.33    8.67
   1  -5  -5    0.29    6.83
   1  -5  -4   34.45    5.24
   1  -5  -4   38.82    8.03
  -1   5   4   54.87   12.36
  -1   5   3   28.08    9.42
   1  -5  -3   30.88    7.49
   1  -5  -3   25.38    4.86
  -1   5   2 1067.70   39.04
   1  -5  -2 1019.58   28.38
  -1   5   1  636.11   29.77
   1  -5  -1  652.82   22.59
   1  -5  -1  633.49   23.39
  -1   5   0  107.68   12.42
   1  -5   0  100.82   10.94
  -1   5   0  138.39   10.48
   1  -5   1 2008.74   46.83
  -1   5  -1 1922.74   44.21
  -1   5  -1 2037.63   34.01
  -1   5  -2  518.29   21.14
   1  -5   2  527.09   25.63
  -1   5  -2  496.99   15.09
  -1   5  -3  731.48   16.22
  -1   5  -3  697.69   22.71
  -1   5  -4  352.79   15.90
   1  -5   4  365.70   22.46
  -1   5  -4  357.72   11.17
  -1   5  -5   10.75    4.35
  -1   5  -5    6.06    2.49
   1  -5   5    5.49    5.85
  -1   5  -6  176.05   12.92
  -1   5  -6  128.10    9.08
   1  -5   6  174.42   17.16
   1  -5   7  558.75   21.94
  -1   5  -7  603.36   19.52
  -1   5  -8    1.89    4.22
   1  -5   8    5.64    5.09
  -1   5  -9  787.22   26.35
   1  -5   9  744.85   29.50
   1  -5   9  821.18   32.63
  -1   5 -10   16.26    6.67
   1  -5  10    6.90    5.60
   1  -5  10    2.40    6.21
   1  -5  11  108.36   12.26
  -1   5 -11  105.99   12.57
   1  -5  11  124.79   14.44
   1  -5  12    9.41    7.49
  -1   5 -12   12.38    7.83
   1  -5  12    8.40    6.13
  -1   5 -13   54.18   11.82
   1  -5  13   38.47   10.49
  -1   5 -14    8.13    8.89
   1  -5  14    7.47    9.08
  -1   4  11   25.14   12.98
   1  -4 -11   28.46   14.09
  -1   4  10   12.23   14.11
   1  -4 -10    8.82   10.50
   1  -4  -9  265.35   24.07
  -1   4   9  265.16   29.72
   1  -4  -8  289.05   23.13
  -1   4   8  263.46   25.91
   1  -4  -7   33.33    9.29
  -1   4   7   35.50   10.92
  -1   4   6  512.95   31.01
   1  -4  -6  481.84   26.01
   1  -4  -5   81.16   10.19
   1  -4  -5   96.35    5.72
  -1   4   5   95.20   14.16
   1  -4  -4  230.74   15.51
   1  -4  -4  233.88    9.68
  -1   4   4  240.23   19.21
  -1   4   3   -4.01    6.45
   1  -4  -3   -2.46    4.77
   1  -4  -3    3.13    2.95
  -1   4   2  340.01   20.99
   1  -4  -2  374.82   16.99
   1  -4  -2  351.96   14.30
   1  -4  -1   98.06    8.71
  -1   4   1  115.96   12.63
  -1   4   0 1019.44   23.04
   1  -4   0 1037.35   28.09
  -1   4   0 1027.28   31.38
  -1   4  -1  981.61   27.43
  -1   4  -1 1051.58   20.22
   1  -4   1 1020.08   29.34
  -1   4  -2 1602.97   21.42
  -1   4  -2 1640.98   31.09
  -1   4  -3  653.19   12.56
  -1   4  -3  623.16   18.66
  -1   4  -4 1606.45   21.68
  -1   4  -4 1624.00   31.18
   1  -4   5   21.45    6.25
  -1   4  -5   22.51    3.90
   1  -4   5   10.50    3.59
   1  -4   6  222.91   15.66
  -1   4  -6  198.95   10.44
   1  -4   7  129.34   10.75
  -1   4  -7  108.06    8.64
   1  -4   7  103.59   11.58
   1  -4   8  314.97   18.21
   1  -4   8  370.49   19.59
  -1   4  -8  319.40   15.53
   1  -4   9  576.41   23.81
   1  -4   9  552.60   24.98
  -1   4  -9  610.47   22.96
   1  -4  10   91.12   11.56
  -1   4 -10   95.42   11.03
   1  -4  10  101.42   10.58
  -1   4 -11   52.74   10.30
   1  -4  11   47.17   10.83
   1  -4  11   39.59    8.00
  -1   4 -12   60.03   10.41
   1  -4  12   69.46   13.46
   1  -4  13   22.32    9.82
  -1   4 -13   31.94   10.30
  -1   4 -14   18.08    8.41
   1  -4  14   12.51   11.82
   1  -3 -12   12.13   13.46
  -1   3  12   32.04   15.06
   1  -3 -11    7.45    9.34
  -1   3  11   -6.59   10.57
  -1   3  10    1.29   11.08
   1  -3 -10   -1.16    8.95
   1  -3  -9   49.00   11.84
  -1   3   9   57.28   14.51
  -1   3   8  507.66   32.85
   1  -3  -8  534.65   28.54
   1  -3  -7   88.27   12.54
  -1   3   7   76.33   13.07
  -1   3   6  541.02   28.86
   1  -3  -6  485.37   24.03
  -1   3   5  867.84   33.85
   1  -3  -5  784.50   12.60
   1  -3  -5  878.21   28.06
   1  -3  -4    7.16    2.02
  -1   3   4    6.92    5.81
   1  -3  -4    3.43    3.93
   1  -3  -3  975.05   17.77
  -1   3   3  993.86   32.86
   1  -3  -3  964.18   25.60
   1  -3  -2  227.78    9.99
   1  -3  -2  217.62   11.04
  -1   3   2  214.85   15.01
  -1   3   1  507.29   21.74
   1  -3  -1  494.11   14.87
  -1   3   0 2535.18   42.65
   1  -3   0 2535.12   36.31
   1  -3   0 2472.75   28.78
  -1   3  -1  356.40   13.55
  -1   3  -1  329.34    8.34
  -1   3  -2 2273.00   17.69
  -1   3  -2 2260.90   31.17
  -1   3  -3 1366.27   16.15
  -1   3  -3 1297.29   24.47
   1  -3   3 1327.41   30.56
  -1   3  -4   65.26    4.79
   1  -3   4   75.39    6.30
   1  -3   4   78.08    7.99
   1  -3   5   13.02    3.90
   1  -3   5   10.31    4.01
  -1   3  -5   10.60    2.96
   1  -3   6  191.81   12.28
  -1   3  -6  224.93   11.01
   1  -3   6  192.73   12.15
   1  -3   7    3.92    5.32
  -1   3  -7    3.49    4.24
   1  -3   7   -2.44    3.96
   1  -3   8  432.28   20.62
   1  -3   8  467.16   18.26
  -1   3  -8  473.30   19.17
   1  -3   9   45.99    6.92
   1  -3   9   36.62    7.82
   1  -3  10  325.00   21.24
   1  -3  10  354.14   15.52
  -1   3 -11  378.33   22.37
   1  -3  11  304.14   22.01
   1  -3  12   27.72   10.66
  -1   3 -12   26.36    8.79
   1  -3  13   -1.71    7.93
  -1   3 -13   -6.12    7.67
   1  -3  14   -1.87    9.88
  -1   3 -14    9.11   10.08
   1  -2 -13   18.23   11.95
  -1   2  13   24.29   14.64
   1  -2 -12   98.34   17.63
  -1   2  12   81.11   18.67
  -1   2  11    1.67   11.74
   1  -2 -11    7.69    9.70
  -1   2  10    8.40    9.28
   1  -2 -10  -17.94   10.25
  -1   2   9   -5.08    8.71
   1  -2  -9   29.95    9.76
   1  -2  -8  177.82   15.81
  -1   2   8  156.50   18.90
  -1   2   7  586.68   30.14
   1  -2  -7  559.48   25.17
   1  -2  -6    5.69    4.67
  -1   2   6    8.62    5.96
  -1   2   5 1229.56   36.45
   1  -2  -5 1178.46   30.53
  -1   2   4  363.96   19.14
   1  -2  -4  361.88    8.23
   1  -2  -3 1883.35   19.92
  -1   2   3 1881.60   39.59
   1  -2  -2  360.82    9.33
  -1   2   2  357.65   16.48
   1  -2  -1 1056.16   17.06
   1  -2  -1 1060.03   16.55
   1  -2   0   90.78    3.77
   1  -2   0   87.46    5.52
  -1   2   0   85.15    7.12
  -1   2  -1 2743.48   30.31
   1  -2   1 2745.07   31.70
   1  -2   2  159.51    8.01
  -1   2  -2  156.16    7.60
  -1   2  -2  158.08    4.15
  -1   2  -3 3215.21   26.27
   1  -2   3 3207.76   37.17
   1  -2   3 3241.78   36.06
  -1   2  -4  637.03   15.00
   1  -2   4  649.44   17.31
   1  -2   5    8.56    3.25
  -1   2  -5   11.39    3.48
   1  -2   5   12.71    3.39
  -1   2  -6   44.38    5.82
   1  -2   6   38.00    6.12
   1  -2   6   39.76    4.88
  -1   2  -7  226.33   12.89
   1  -2   7  226.89   10.51
   1  -2   7  191.93   13.88
   1  -2   8  125.24   12.77
  -1   2  -8  126.19   10.70
   1  -2   8  126.83    7.93
   1  -2   9  866.27   33.10
   1  -2   9  864.99   19.63
  -1   2  -9  921.18   30.28
   1  -2  10  144.88   15.50
  -1   2 -10  147.49   13.83
   1  -2  11  200.47   19.73
  -1   2 -11  266.01   19.92
   1  -2  12   91.67   15.68
  -1   2 -12   76.88   13.08
  -1   2 -13   56.02   12.16
   1  -2  13   63.31   14.42
  -1   2 -14   24.01   10.25
   1  -2  14   15.74   11.76
  -1   1  13   40.72   14.91
   1  -1 -13   52.41   14.64
   1  -1 -12   99.15   15.88
  -1   1  12  117.57   19.50
  -1   1  11    3.48   10.57
   1  -1 -11   21.82   10.16
   1  -1 -10   89.81   13.38
  -1   1  10  104.22   14.84
   1  -1  -9   -1.23    6.49
  -1   1   9    2.47    6.91
   1  -1  -8    1.89    5.59
  -1   1   8   10.31    7.66
   1  -1  -7  231.31   15.03
  -1   1   7  235.69   18.61
   1  -1  -6  226.09   14.12
  -1   1   6  228.53    7.81
  -1   1   6  243.60   16.42
  -1   1   5  158.48    6.16
  -1   1   5  167.92   12.37
   1  -1  -5  164.70   11.10
   1  -1  -4  338.44   13.47
  -1   1   4  331.87   15.63
  -1   1   4  318.44    8.56
   1  -1  -3   37.33    2.66
  -1   1   3   35.44    5.26
   1  -1  -3   42.09    4.67
   1  -1  -2 1447.14   15.39
  -1   1   2 1465.59   27.13
   1  -1  -2 1417.05   20.09
   1  -1  -1 1265.06   14.56
  -1   1   1 1233.62   23.57
   1  -1   0 2453.24   21.39
  -1   1   0 2472.66   24.26
   1  -1   1  247.16    7.39
   1  -1   1  221.79    6.80
   1  -1   2 1565.59   18.72
  -1   1  -2 1571.12   17.56
   1  -1   2 1557.64   21.99
   1  -1   3 1657.58   20.04
   1  -1   3 1716.60   25.86
  -1   1  -4 1653.35   25.50
   1  -1   4 1703.70   30.36
   1  -1   4 1716.47   21.07
   1  -1   5   59.64    7.02
   1  -1   5   61.15    4.39
  -1   1  -5   69.81    6.78
   1  -1   6   56.64    7.57
  -1   1  -6   53.80    6.76
   1  -1   6   53.70    4.14
   1  -1   7   50.88    4.08
  -1   1  -7   45.89    7.14
   1  -1   7   48.38    7.98
   1  -1   8   73.89   10.17
  -1   1  -8   68.88    9.14
  -1   1  -9  691.52   27.91
   1  -1   9  672.65   29.74
  -1   1 -10   90.45   11.85
   1  -1  10   85.45   12.85
  -1   1 -11   92.22   13.01
   1  -1  11  114.67   15.42
   1  -1  12  264.05   25.90
  -1   1 -12  299.80   23.01
  -1   1 -13   -0.16    9.30
   1  -1  13    4.39   10.45
  -1   0  14   77.82   17.90
   1   0 -14  112.80   19.24
  -1   0  13   -5.09   11.12
   1   0 -13    4.81    9.45
   1   0 -12   27.69    9.99
  -1   0  12   17.37   11.65
   1   0 -11  161.53   17.66
  -1   0  11  150.65   18.61
  -1   0  10   47.22   10.26
   1   0 -10   58.23   11.44
   1   0  -9  129.73   13.14
  -1   0   9  125.05   14.23
   1   0  -8   28.90    7.31
  -1   0   8   44.48    8.25
  -1   0   7   42.70    6.26
   1   0  -7   22.85    6.02
  -1   0   7   28.29    6.83
   1   0  -6  688.46   21.76
  -1   0   6  704.50   19.05
  -1   0   6  714.19   24.78
  -1   0   5  543.36   19.90
   1   0  -5  520.02   17.18
  -1   0   5  553.84   14.75
  -1   0   4 3136.96   40.25
  -1   0   4 3047.64   30.73
  -1   0   3 5139.20   35.73
   1   0  -3 5170.96   41.10
  -1   0   3 5082.42   44.83
  -1   0   2   78.74    5.05
   1   0  -2   73.10    4.28
   1   0  -1 2163.83   17.65
  -1   0   1 2116.66   21.05
   1   0  -1 2148.79   18.41
   1   0  -1 2112.49   21.11
   1   0   0  367.21    6.36
  -1   0   0  359.87    6.46
   1   0   0  360.54    7.54
   1   0   0  370.98    7.54
   1   0   1   71.35    3.51
   1   0   1   68.53    4.43
   1   0   2 5003.34   41.20
  -1   0  -2 4984.40   42.11
   1   0   2 5054.67   27.54
   1   0   3 1538.13   15.44
   1   0   3 1515.56   26.96
  -1   0  -3 1502.24   25.80
   1   0   4 1325.06   28.81
   1   0   4 1374.88   14.82
  -1   0  -4 1288.06   26.92
   1   0   5  882.62   11.94
   1   0   5  864.36   25.90
   1   0   6  106.08    4.09
   1   0   6   83.00   10.01
  -1   0  -6   79.13    8.39
   1   0   7  151.83   14.78
  -1   0  -7  157.47   12.93
   1   0   8   28.57    7.80
  -1   0  -8   20.61    6.81
  -1   0  -9  146.26   14.90
   1   0   9  116.06   14.49
   1   0  10  313.10   24.94
  -1   0 -10  334.68   22.86
  -1   0 -11   28.47   10.32
   1   0  11   16.21   10.07
   1   0  12  341.64   27.92
  -1   0 -12  344.25   26.02
   1   0  13   20.87   12.71
  -1   0 -13   40.08   14.70
  -1  -1  14   -4.03   10.02
   1   1 -14   -0.71    9.82
   1   1 -13   71.66   13.34
  -1  -1  13   44.58   12.96
   1   1 -12    4.95    8.10
  -1  -1  12    4.72    8.59
  -1  -1  11   52.41   11.66
   1   1 -11   56.59   11.87
   1   1 -10   18.14    7.91
  -1  -1  10   18.17    8.46
   1   1  -9  283.63   17.68
  -1  -1   9  251.99   17.86
  -1  -1   9  244.02   12.62
   1   1  -8  239.51   15.03
  -1  -1   8  234.94   14.26
  -1  -1   8  237.38   15.80
   1   1  -7 2167.99   40.75
  -1  -1   7 2184.91   42.08
   1   1  -6  340.79   14.68
  -1  -1   6  342.51   16.46
  -1  -1   6  332.54   15.03
  -1  -1   5  847.35   22.97
  -1  -1   5  787.49   20.80
   1   1  -5  809.12   19.98
   1   1  -4  107.38    6.77
  -1  -1   4  118.29    7.95
  -1  -1   4   97.56    6.51
  -1  -1   3   71.02    5.50
  -1  -1   3   78.44    4.39
   1   1  -3   68.19    5.05
  -1  -1   2   68.21    5.22
  -1  -1   2   64.85    2.82
   1   1  -2   56.30    3.10
   1   1  -1  119.81    5.38
  -1  -1   1  131.33    6.11
  -1  -1   0  237.76    7.75
   1   1   0  239.70    6.16
  -1  -1   0  227.92    6.31
   1   1   0  255.69    9.15
  -1  -1  -1  412.13    9.59
   1   1   1  382.42   12.96
   1   1   1  380.18   10.82
   1   1   2 2215.79   31.19
  -1  -1  -2 2265.43   21.41
   1   1   2 2190.78   35.03
  -1  -1  -3 5443.95   57.91
  -1  -1  -3 5472.11   31.59
   1   1   4   22.39    5.12
  -1  -1  -4   22.63    2.22
  -1  -1  -4   17.05    5.15
  -1  -1  -5 2315.45   44.20
   1   1   5 2273.34   45.57
  -1  -1  -6  946.84   29.85
   1   1   6  959.46   32.59
   1   1   7  148.67   15.70
  -1  -1  -7  163.81   13.34
  -1  -1  -8   55.54   10.62
   1   1   8   64.46   12.22
   1   1   9   64.07   13.32
  -1  -1  -9   75.39   12.16
  -1  -1 -10  170.64   18.39
   1   1  10  167.46   21.52
   1   1  11  -17.08   12.43
  -1  -1 -11   -6.31   10.38
  -1  -1 -12   69.65   15.15
   1   1  12   79.94   18.41
   1   2 -14   29.30   10.60
  -1  -2  14   50.09   14.41
   1   2 -13   41.99   12.02
  -1  -2  13   38.18   10.54
  -1  -2  12   55.99   12.11
   1   2 -12   60.61   11.98
  -1  -2  11   14.23    7.47
   1   2 -11   17.59    7.32
   1   2 -10  312.55   18.86
  -1  -2  10  295.14   19.81
  -1  -2  10  244.94   14.69
  -1  -2   9   62.83    9.14
  -1  -2   9   76.00   10.13
   1   2  -9   81.11    9.75
  -1  -2   8   15.99    5.25
   1   2  -8   25.02    5.47
   1   2  -7 1129.09   28.00
  -1  -2   7 1100.75   28.51
   1   2  -6    1.22    3.17
  -1  -2   6   -0.86    5.51
  -1  -2   6    3.18    2.81
  -1  -2   5 1661.20   26.93
   1   2  -5 1701.78   28.92
  -1  -2   4 8180.55   75.20
   1   2  -4 8091.37   57.03
  -1  -2   4 8207.75   48.93
   1   2  -3  111.11    6.26
  -1  -2   3  120.86    4.73
  -1  -2   3  117.53    8.64
   1   2  -2 4653.45   37.95
   1   2  -2 4608.10   22.45
  -1  -2   2 4633.81   48.91
   1   2  -2 4612.53   23.52
  -1  -2   1  842.27   19.89
   1   2  -1  837.36   17.32
   1   2  -1  848.10   14.25
   1   2   0   19.36    4.24
  -1  -2   0   14.64    3.32
   1   2   0   16.76    2.94
  -1  -2  -1  114.25    7.38
   1   2   1  121.59    9.41
   1   2   2  571.68   20.97
  -1  -2  -2  604.47   15.17
   1   2   2  604.49   19.41
  -1  -2  -3 2807.95   48.11
  -1  -2  -3 2789.38   31.61
  -1  -2  -4  577.24   14.03
  -1  -2  -4  521.09   21.72
   1   2   4  559.69   23.46
  -1  -2  -5 1609.12   40.88
   1   2   5 1605.80   42.21
  -1  -2  -6 1032.39   34.19
   1   2   6 1077.51   36.51
   1   2   7   -1.64    7.51
  -1  -2  -7   -4.65    6.73
  -1  -2  -8  463.27   25.24
   1   2   8  511.92   29.91
  -1  -2  -9  184.53   18.74
   1   2   9  145.76   18.80
  -1  -2 -10   13.50    8.95
   1   2  10    9.58   10.60
  -1  -2 -11   -5.80    9.84
   1   2  11   12.30   12.64
   1   2  12   34.44   13.95
  -1  -2 -12   18.77   12.51
  -1  -3  15   18.54   11.50
   1   3 -15   -6.42   11.06
   1   3 -14  202.48   20.74
  -1  -3  14  227.68   21.76
  -1  -3  13  113.61   15.92
   1   3 -13  120.66   15.66
  -1  -3  12   39.79    8.95
   1   3 -12   76.91   11.97
   1   3 -11  442.08   23.49
  -1  -3  11  414.80   23.44
  -1  -3  11  412.30   20.96
   1   3 -10    1.28    5.30
  -1  -3  10   -3.57    5.61
  -1  -3  10    5.70    5.18
   1   3  -9  106.00   11.00
  -1  -3   9   89.68   10.66
  -1  -3   9   96.35   13.21
  -1  -3   8    4.16    6.19
   1   3  -8    1.81    4.22
  -1  -3   8    4.64    3.95
  -1  -3   7  302.37   14.31
   1   3  -7  307.12   15.15
   1   3  -6 1096.67   25.91
  -1  -3   6 1059.48   23.30
  -1  -3   6 1134.71   37.71
   1   3  -5  284.87   12.01
  -1  -3   5  285.09   10.58
   1   3  -4 9784.76   65.04
  -1  -3   4 9735.74   96.16
  -1  -3   4 9999.00   52.20
   1   3  -3 2387.66   31.20
  -1  -3   3 2396.50   44.44
   1   3  -3 2391.87   23.87
   1   3  -2 2864.22   34.98
   1   3  -2 2807.36   31.98
  -1  -3   2 2928.68   46.42
   1   3  -1 4594.79   48.65
  -1  -3   1 4614.68   56.28
   1   3  -1 4444.99   47.84
   1   3   0 1225.38   26.33
   1   3   0 1248.80   28.56
  -1  -3   0 1262.49   29.06
   1   3   1   52.95    7.66
   1   3   1   66.94    7.46
  -1  -3  -1   68.63    7.36
  -1  -3  -2  552.78   19.96
   1   3   2  572.79   23.35
   1   3   2  601.01   22.17
   1   3   3 1447.82   38.15
  -1  -3  -3 1466.61   38.50
  -1  -3  -4 1440.35   25.38
  -1  -3  -4 1484.69   40.51
   1   3   5   45.46   10.61
  -1  -3  -5   49.79    9.79
   1   3   6 1014.69   38.39
  -1  -3  -6  882.25   35.16
  -1  -3  -7  359.93   23.51
   1   3   7  352.25   24.58
  -1  -3  -8  197.23   17.38
   1   3   8  223.09   22.94
   1   3   9  138.53   21.26
  -1  -3  -9  176.21   18.52
   1   3  10   -4.43   11.79
  -1  -3 -10   -7.98   10.78
   1   3  11   -0.47   12.19
  -1  -3 -11   21.44   12.81
   1   4 -15    6.91   10.11
  -1  -4  15   -2.86    8.95
   1   4 -14  102.31   15.72
  -1  -4  14   88.28   14.18
   1   4 -13  272.35   20.81
  -1  -4  13  235.73   20.12
   1   4 -12   53.43   10.56
  -1  -4  12   32.28    7.75
  -1  -4  12   61.45   10.87
  -1  -4  11 1200.71   40.60
  -1  -4  11 1211.36   37.41
   1   4 -11 1290.37   39.08
   1   4 -10  292.37   18.33
  -1  -4  10  278.32   21.30
  -1  -4  10  290.59   17.30
  -1  -4   9  313.81   17.41
   1   4  -9  357.61   18.81
  -1  -4   9  306.10   22.93
   1   4  -8  698.57   24.21
  -1  -4   8  668.28   34.23
  -1  -4   7   59.81    6.60
   1   4  -7   66.11    7.43
   1   4  -6  458.23   16.84
  -1  -4   6  449.82   15.24
   1   4  -5  159.25    8.58
   1   4  -5  164.49    9.94
   1   4  -4 2321.11   34.71
  -1  -4   4 2421.56   54.20
  -1  -4   3 3341.63   60.46
   1   4  -3 3224.48   40.96
  -1  -4   2  266.52   16.99
   1   4  -2  245.89   12.21
   1   4  -2  225.13   12.24
   1   4  -1 4133.44   55.62
  -1  -4   1 4302.22   65.15
   1   4  -1 4220.21   54.51
   1   4   0  860.02   25.96
   1   4   0  866.61   26.31
  -1  -4   0  940.64   30.28
   1   4   1 1409.86   36.04
   1   4   1 1376.51   37.29
   1   4   2  914.80   30.81
   1   4   2  863.04   32.18
  -1  -4  -3  132.83   13.55
   1   4   3  123.67   13.21
  -1  -4  -3  127.65   10.61
  -1  -4  -4  128.10   14.02
   1   4   4  145.24   15.43
  -1  -4  -4  103.65    8.31
   1   4   5   13.78    9.01
  -1  -4  -5    3.35    7.22
  -1  -4  -6  561.14   30.35
   1   4   6  552.89   32.75
  -1  -4  -7  372.05   26.26
   1   4   7  467.40   30.47
   1   4   8    3.39    9.44
  -1  -4  -8   22.67   10.50
  -1  -4  -9  127.33   18.63
   1   4   9  121.22   20.46
   1   4  10   31.71   14.41
  -1  -4 -10    0.07   10.92
   1   5 -15  -12.72   10.32
  -1  -5  15   -0.25    8.73
  -1  -5  14    2.76    7.77
   1   5 -14   46.22   12.19
  -1  -5  13  174.03   17.02
  -1  -5  13  208.85   19.46
   1   5 -13  207.44   18.70
  -1  -5  12    5.00    6.96
   1   5 -12   -0.53    7.25
  -1  -5  12    9.79    6.92
   1   5 -11  832.87   30.87
  -1  -5  11  789.66   30.28
  -1  -5  11  791.51   36.30
  -1  -5  10 1437.35   37.41
   1   5 -10 1527.41   39.27
  -1  -5  10 1413.24   49.43
   1   5  -9   34.48    7.00
  -1  -5   9   20.04   10.46
  -1  -5   9   17.68    5.87
  -1  -5   8 1806.37   35.63
   1   5  -8 1867.44   39.53
  -1  -5   8 1833.96   57.80
   1   5  -7  727.24   23.37
  -1  -5   7  689.58   36.10
  -1  -5   6   11.83    8.40
   1   5  -6   11.69    4.51
   1   5  -6    7.66    3.52
   1   5  -5  128.22    9.69
   1   5  -5  135.08    8.35
  -1  -5   5  136.94   17.46
   1   5  -4  450.33   15.72
   1   5  -4  458.24   17.38
   1   5  -3 4325.90   54.91
   1   5  -3 4453.37   55.00
   1   5  -2  940.12   27.43
   1   5  -2  988.06   29.18
   1   5  -1 1907.79   42.70
   1   5  -1 1843.82   41.22
   1   5   0 2776.32   53.75
   1   5   0 2788.14   52.74
   1   5   1   13.30    6.61
   1   5   1   12.67    6.82
  -1  -5  -1   30.31    7.75
   1   5   2  326.25   22.06
  -1  -5  -2  316.41   18.53
   1   5   2  298.54   20.77
  -1  -5  -3   86.38   12.95
  -1  -5  -3   65.61    9.01
   1   5   3  101.21   13.75
  -1  -5  -4   -4.89    4.23
   1   5   4   11.12    8.11
  -1  -5  -4    3.06    6.89
   1   5   5   10.04    8.35
  -1  -5  -5   24.76   10.23
   1   5   6   51.58   14.03
  -1  -5  -6   19.33    9.44
  -1  -5  -7   79.34   13.78
   1   5   7   93.06   17.00
   1   5   8   28.18   12.14
  -1  -5  -8   34.01   12.57
  -1  -5  -9   30.95   14.47
   1   5   9   33.94   16.12
   1   6 -15   41.36   12.77
  -1  -6  15   44.10   12.58
   1   6 -14   14.92    8.60
  -1  -6  14    3.83    7.40
  -1  -6  13   60.22   10.83
   1   6 -13   82.27   13.30
  -1  -6  13   66.32   14.05
  -1  -6  12   97.34   12.98
  -1  -6  12  118.89   17.05
   1   6 -12   82.55   12.32
  -1  -6  11   79.63   10.78
  -1  -6  11   64.72   13.02
   1   6 -11   74.69   10.48
   1   6 -10 1772.02   44.01
  -1  -6  10 1804.16   40.83
   1   6  -9  434.54   21.02
  -1  -6   9  430.32   30.41
   1   6  -8 1145.45   32.27
   1   6  -8 1178.69   30.19
   1   6  -7 1520.39   35.65
   1   6  -7 1533.58   32.63
  -1  -6   7 1425.88   52.35
   1   6  -6   25.20    5.19
  -1  -6   6   23.65   10.46
   1   6  -6   29.70    6.64
   1   6  -5  290.93   15.25
   1   6  -5  284.15   14.16
  -1  -6   5  318.42   24.36
  -1  -6   4   49.34   10.79
   1   6  -4   56.74    7.65
   1   6  -4   60.77    7.73
   1   6  -3  466.30   21.30
   1   6  -3  434.11   19.51
  -1  -6   3  494.78   29.69
   1   6  -2  461.88   23.19
   1   6  -2  413.75   19.97
  -1  -6   2  408.95   25.99
   1   6  -1  171.79   14.74
  -1  -6   1  162.63   17.12
   1   6  -1  150.16   13.32
   1   6   0 1288.73   40.79
  -1  -6   0 1279.99   41.21
   1   6   0 1305.74   41.00
   1   6   1  299.50   21.76
   1   6   1  305.00   21.48
  -1  -6  -1  261.47   18.24
   1   6   2  218.84   20.22
  -1  -6  -2  188.79   15.25
   1   6   2  209.95   18.51
  -1  -6  -3  165.03   17.40
  -1  -6  -3  141.03   12.50
   1   6   3  165.89   18.39
  -1  -6  -4   43.55   11.02
   1   6   4   45.10   12.72
  -1  -6  -5   21.39    9.80
   1   6   5    6.90   11.75
   1   6   6   40.11   16.13
  -1  -6  -6   16.85   11.04
   1   6   7    0.51   12.86
  -1  -6  -7    8.99   10.28
   1   6   8   45.26   16.70
  -1  -6  -8   36.49   12.88
   1   7 -15   81.92   15.05
  -1  -7  15   73.58   13.75
  -1  -7  14   75.28   12.98
  -1  -7  14   83.83   17.51
   1   7 -14  101.15   15.18
  -1  -7  13    8.72    6.65
  -1  -7  13   15.31   10.99
   1   7 -13   18.58   10.09
  -1  -7  12   17.07   10.82
   1   7 -12   29.74   10.33
  -1  -7  12    8.61    6.53
   1   7 -11    5.84    6.76
  -1  -7  11   17.65    9.92
   1   7 -11    8.81    8.08
   1   7 -10  827.80   30.95
  -1  -7  10  769.46   40.80
   1   7 -10  790.04   29.90
   1   7  -9  937.58   32.25
   1   7  -9  972.28   31.23
  -1  -7   9  882.87   42.89
  -1  -7   8   16.20    8.76
   1   7  -8   12.79    5.80
   1   7  -8   21.07    5.42
   1   7  -7 1554.63   35.45
   1   7  -7 1618.42   38.99
  -1  -7   7 1527.72   55.43
   1   7  -6  240.71   15.24
  -1  -7   6  219.48   22.26
   1   7  -6  237.18   14.12
   1   7  -5   99.11   10.40
   1   7  -5  111.40   10.90
  -1  -7   5  113.20   16.55
   1   7  -4  121.56   11.46
   1   7  -4  131.32   12.76
  -1  -7   4   96.03   13.48
   1   7  -3   33.85    7.43
   1   7  -3   27.07    7.77
  -1  -7   3   28.80   10.69
   1   7  -2   44.80    9.19
  -1  -7   2   44.03   12.20
   1   7  -2   36.36    8.89
   1   7  -1  100.65   11.75
   1   7  -1  108.63   13.84
  -1  -7   1   71.82   13.11
   1   7   0  167.19   17.11
   1   7   0  171.99   16.53
  -1  -7   0  161.94   16.50
  -1  -7  -1  649.65   30.24
   1   7   1  732.42   35.01
   1   7   1  645.54   34.36
  -1  -7  -2   24.06    8.53
   1   7   2    7.29    8.28
  -1  -7  -3   83.70   14.06
   1   7   3   80.24   14.39
  -1  -7  -3   95.86   12.37
  -1  -7  -4   22.99   10.30
   1   7   4    6.51   10.33
   1   7   5   46.38   14.67
  -1  -7  -5   25.04   11.60
  -1  -7  -6   -0.61   11.03
   1   7   6   23.02   15.44
   1   7   7   17.56   13.66
  -1  -7  -7   37.80   14.96
   1   8 -14  216.98   20.50
  -1  -8  14  221.76   24.95
   1   8 -13   54.16   11.26
   1   8 -13   64.02   13.18
  -1  -8  13   64.92   15.26
  -1  -8  12    5.18   11.61
   1   8 -12    2.80    7.23
   1   8 -12    9.88    7.97
   1   8 -11    5.01    6.43
   1   8 -11    8.67    8.47
  -1  -8  11    2.10    9.68
   1   8 -10   68.01    9.57
   1   8 -10   71.22   11.82
  -1  -8  10   51.17   13.42
  -1  -8   9  785.01   42.09
   1   8  -9  841.69   29.49
   1   8  -9  805.50   31.08
   1   8  -8  323.98   18.12
  -1  -8   8  285.56   25.79
   1   8  -8  328.22   20.02
  -1  -8   7  575.73   34.68
   1   8  -7  612.48   25.23
   1   8  -7  627.80   26.02
   1   8  -6 1274.01   37.01
   1   8  -6 1317.60   37.39
  -1  -8   6 1208.19   49.56
   1   8  -5   16.73    6.54
   1   8  -5   28.04    8.57
  -1  -8   5   18.16    9.94
   1   8  -4  176.36   15.49
  -1  -8   4  147.87   18.03
   1   8  -4  197.19   17.14
   1   8  -3   56.28   10.30
  -1  -8   3   53.43   12.00
   1   8  -3   63.05   11.28
   1   8  -2   34.63   10.08
   1   8  -2   24.73    7.78
  -1  -8   2   39.28   10.55
  -1  -8   1  133.95   16.13
   1   8  -1  159.39   16.77
   1   8  -1  135.93   16.86
   1   8   0   47.44   11.27
   1   8   0   48.43   11.48
   1   8   1   97.38   15.88
  -1  -8  -1   66.60   11.24
   1   8   1  104.69   15.57
  -1  -8  -2   42.66   12.22
   1   8   2   48.52   14.09
  -1  -8  -2   40.85    9.96
   1   8   3   -2.03   10.64
  -1  -8  -3    5.59    8.66
   1   8   4   15.51   12.74
  -1  -8  -4   45.76   14.02
   1   8   5   -3.05   12.33
  -1  -8  -5    2.77   10.32
   1   8   6   10.81   13.34
  -1  -8  -6   16.66   12.39
  -1  -9  14   85.97   18.80
   1   9 -14  101.91   15.84
   1   9 -13  150.66   18.25
  -1  -9  13  156.14   22.59
  -1  -9  12    6.09   10.44
   1   9 -12   21.21    9.73
   1   9 -11   36.13   10.71
   1   9 -11   44.96    9.67
  -1  -9  10  113.64   17.72
   1   9 -10  115.72   13.10
   1   9 -10  115.39   13.90
   1   9  -9    0.78    6.78
   1   9  -9    4.24    6.57
  -1  -9   9   15.20   10.33
  -1  -9   8  123.08   19.32
   1   9  -8  145.66   14.28
   1   9  -8  162.14   15.33
   1   9  -7    2.54    6.80
   1   9  -7    0.07    6.49
  -1  -9   7  -15.89   11.16
   1   9  -6  572.36   27.05
   1   9  -6  564.86   27.22
  -1  -9   6  494.17   33.03
   1   9  -5  117.03   13.71
  -1  -9   5   94.33   16.08
   1   9  -5  146.76   16.11
   1   9  -4  116.12   14.54
   1   9  -4  127.00   15.15
  -1  -9   4   98.15   15.80
   1   9  -3   29.85   11.00
  -1  -9   3   10.34    8.29
  -1  -9   2   18.62    8.86
   1   9  -2   33.94   11.68
   1   9  -2   35.18   11.16
  -1  -9   1    7.88    7.71
   1   9  -1   -8.17    9.12
   1   9  -1    9.58    8.40
   1   9   0  148.94   18.98
  -1  -9   0  120.62   16.64
  -1  -9  -1   45.13   11.46
   1   9   1   33.42   12.05
  -1  -9  -2  109.35   18.48
   1   9   2   52.52   14.68
  -1  -9  -3   18.04   10.17
   1   9   3   38.39   14.45
   1   9   4    1.04   12.22
  -1  -9  -4   12.52   11.31
  -1 -10  13  417.66   35.64
   1  10 -13  476.28   31.11
  -1 -10  12  146.96   22.31
   1  10 -12  170.61   19.09
  -1 -10  11   -0.14   11.97
   1  10 -11    3.65    8.81
  -1 -10  10  -13.61   11.91
   1  10 -10   -4.67    8.14
   1  10  -9   18.22    8.58
  -1 -10   9    9.71   12.11
  -1 -10   8   62.49   13.96
   1  10  -8   83.00   13.24
   1  10  -7  237.11   19.00
   1  10  -7  220.91   19.77
  -1 -10   6   17.03    9.59
   1  10  -6   18.87    9.65
   1  10  -6   20.87    8.11
   1  10  -5  185.66   18.18
   1  10  -5  208.94   20.98
  -1 -10   5  191.52   20.49
  -1 -10   4    4.52    8.43
   1  10  -4   11.85   10.32
   1  10  -4    3.37    7.05
  -1 -10   3   75.42   13.77
   1  10  -3   42.63   11.25
   1  10  -3   66.51   14.66
  -1 -10   2    2.50    8.06
   1  10  -2   -6.40    8.66
   1  10  -2    9.73    8.45
  -1 -10   1   55.06   12.53
   1  10  -1   87.03   15.32
   1  10  -1   60.07   14.46
   1  10   0   34.08   12.52
  -1 -10   0   31.96   11.13
   1  10   0   19.94   11.96
  -1 -10  -1  104.66   17.48
   1  10   1  126.87   20.91
   1  10   2   13.16   13.93
  -1 -10  -2   27.11   11.78
  -1 -10  -3   23.62   11.89
   1  10   3   27.12   15.84
  -1 -11  12   90.83   19.39
  -1 -11  11    3.22   11.53
  -1 -11  10   72.75   19.24
   1  11 -10   37.75   10.88
  -1 -11   9   61.65   15.76
   1  11  -9   53.93   11.96
   1  11  -8   37.34   11.46
  -1 -11   8   33.40   13.87
   1  11  -7  107.40   14.99
  -1 -11   7  102.76   18.55
   1  11  -6  174.18   18.43
  -1 -11   6  136.46   20.21
  -1 -11   5   -4.88    8.95
   1  11  -5   11.19    9.16
   1  11  -4   92.36   15.30
  -1 -11   4   83.22   15.71
   1  11  -3    3.52    9.19
  -1 -11   3    0.98    9.20
   1  11  -3   16.26   12.15
   1  11  -2    2.38    9.61
  -1 -11   2   19.65   11.38
   1  11  -2   13.76   10.05
   1  11  -1   18.04   12.46
   1  11  -1   21.66   12.77
  -1 -11   1   16.66   10.79
  -1 -11   0   11.61   10.00
   1  11   0  -10.23   11.84
  -1 -12  10   46.72   17.97
  -1 -12   9   11.87   12.43
  -1 -12   8   67.47   16.64
  -1 -12   7    9.23   11.39
   1  12  -6  138.21   17.94
  -1 -12   6  114.44   20.00
   1  12  -5   48.92   12.37
  -1 -12   5   27.67   14.53
   1  12  -4   11.17   11.44
  -1 -12   4   40.32   14.98
   1  12  -3   -4.52   12.43
  -1 -12   3   18.64   10.85
  -2  12   0   -2.58   13.16
   2 -12   0    9.00   10.28
  -2  12  -1   89.23   19.77
   2 -12   1   83.14   17.09
  -2  12  -2    5.01   12.82
   2 -12   2  -13.98   11.92
   2 -12   3    5.26   12.05
  -2  12  -3   31.38   16.10
   2 -12   4   21.22   13.07
  -2  12  -4   20.99   14.54
  -2  12  -5   -5.39   11.83
   2 -12   5   -6.77   11.13
  -2  12  -6  101.00   20.74
   2 -12   6   50.12   16.01
   2 -12   7   17.08   12.44
  -2  12  -7   17.58   14.22
   2 -12   8   28.62   14.71
  -2  12  -8   86.94   18.87
   2 -12   9  105.06   22.13
  -2  12  -9  163.96   23.07
   2 -12  10   -5.14   15.18
  -2  12 -10  -19.77   14.86
  -2  11   2   11.81   13.43
  -2  11   1  166.18   26.50
   2 -11  -1  171.35   20.48
   2 -11   0   28.38   12.27
  -2  11   0   13.64   12.76
  -2  11  -1   42.51   14.59
   2 -11   1   50.90   14.04
   2 -11   2  136.19   20.92
  -2  11  -2  156.03   23.01
   2 -11   3   -6.60   10.59
  -2  11  -3   -4.83   13.16
   2 -11   4   19.20   12.73
  -2  11  -4    5.56   11.53
  -2  11  -5   12.87   10.88
   2 -11   5    8.14   11.55
   2 -11   6   16.62   13.73
  -2  11  -6  -14.31   13.03
   2 -11   7   91.16   18.60
  -2  11  -7  123.15   19.69
  -2  11  -8   57.34   15.29
   2 -11   8   63.02   17.02
   2 -11   9  130.49   22.90
  -2  11  -9  131.77   19.21
   2 -11  10   84.68   21.30
  -2  11 -10  158.34   20.96
  -2  11 -11    6.45   10.54
   2 -11  11    7.15   13.99
   2 -10  -4    2.44    9.65
  -2  10   4   -0.34   14.03
  -2  10   3   18.94   13.52
   2 -10  -3    8.54    8.75
   2 -10  -2  -30.02   10.87
   2 -10  -2    4.12    8.08
  -2  10   2   -3.85   12.32
   2 -10  -1   22.94    9.29
   2 -10  -1    0.79    8.52
  -2  10   1   26.29   14.40
   2 -10   0  103.84   15.34
   2 -10   0   85.73   12.66
  -2  10  -1  -17.93   13.16
   2 -10   1   -9.28   10.57
  -2  10  -2  246.04   26.91
   2 -10   2  193.15   21.70
   2 -10   3   26.57   11.98
  -2  10  -3   47.60   12.24
   2 -10   4   14.72   11.12
  -2  10  -4   29.55   11.44
  -2  10  -5   41.94   12.86
   2 -10   5   24.92   12.14
  -2  10  -6  219.05   21.71
   2 -10   6  174.71   22.13
   2 -10   7   19.78   12.45
  -2  10  -7   14.56    8.42
  -2  10  -8  375.37   27.49
   2 -10   8  312.33   30.60
   2 -10   9    5.62   11.00
  -2  10  -9   22.76   11.38
  -2  10 -10  139.30   19.38
   2 -10  10  118.83   20.88
  -2  10 -11   38.03   13.00
   2 -10  11   36.68   15.32
   2 -10  12    5.97   10.47
  -2  10 -12   17.68   12.21
   2  -9  -6    6.41   11.47
  -2   9   6  -23.32   17.20
   2  -9  -5   31.70   12.19
  -2   9   5   18.68   14.88
   2  -9  -4   -8.77    9.15
  -2   9   4    2.31   12.84
  -2   9   3   28.34   15.50
   2  -9  -3   52.11   11.37
  -2   9   2   26.86   11.64
   2  -9  -2   34.98    9.92
   2  -9  -2   23.25    8.79
   2  -9  -1   93.67   13.96
   2  -9  -1   94.86   14.40
  -2   9   1  120.97   18.74
  -2   9   0   35.31   13.59
   2  -9   0   19.50    7.87
   2  -9   0   31.31   10.08
   2  -9   1   63.06    9.11
   2  -9   1   62.85   13.16
  -2   9  -1   43.27   13.09
   2  -9   2   23.18   10.64
   2  -9   2   32.97    7.29
  -2   9  -3  178.57   20.40
   2  -9   3  154.23   20.07
   2  -9   4   11.44    9.82
  -2   9  -4    4.40    8.64
   2  -9   5   20.53   11.29
  -2   9  -5   18.43   10.16
   2  -9   6  157.31   21.95
  -2   9  -6  237.46   20.88
   2  -9   7    5.03   10.17
  -2   9  -7    7.32    7.24
  -2   9  -8  229.07   20.78
   2  -9   8  217.80   25.37
  -2   9  -9  700.34   35.84
   2  -9   9  630.79   39.00
   2  -9  10    0.60   10.56
  -2   9 -10   18.46   10.14
  -2   9 -11  298.13   25.12
   2  -9  11  244.84   25.93
  -2   9 -12   45.43   12.92
   2  -9  12   33.46   13.32
   2  -9  13   11.93   11.55
  -2   9 -13   10.25   10.90
   2  -8  -7   68.54   16.09
  -2   8   7   11.65   16.71
  -2   8   6   18.14   13.51
   2  -8  -6   25.38   12.08
   2  -8  -5   66.67   14.59
  -2   8   5   98.11   18.23
   2  -8  -4   72.15   13.24
  -2   8   4   72.90   17.58
   2  -8  -3   -4.48    7.83
   2  -8  -3    6.88    6.88
   2  -8  -2    1.82    6.46
   2  -8  -2   13.51    7.13
  -2   8   1  200.65   22.54
   2  -8  -1  191.95   16.20
   2  -8  -1  183.20   17.80
   2  -8   0   26.16    8.92
   2  -8   0   18.79    7.70
  -2   8   0   19.17   10.57
  -2   8  -1  309.59   25.08
   2  -8   1  244.41   16.10
   2  -8   1  294.00   22.18
  -2   8  -2  480.26   28.94
   2  -8   2  494.50   20.26
   2  -8   2  467.28   29.27
   2  -8   3   16.84    9.08
  -2   8  -3   11.72    5.14
  -2   8  -3    1.11    7.36
   2  -8   4  130.99   18.47
  -2   8  -4  143.75   16.15
  -2   8  -5    8.39    7.83
   2  -8   5   -1.68    8.21
  -2   8  -6   79.22   12.42
   2  -8   6  100.38   15.58
   2  -8   7  202.94   21.85
  -2   8  -7  191.42   17.59
   2  -8   8   13.56    9.61
  -2   8  -8   21.24    8.94
   2  -8   9 1436.87   53.92
  -2   8  -9 1495.20   48.95
   2  -8  10  166.61   21.05
  -2   8 -10  223.59   20.16
  -2   8 -11  245.98   23.02
   2  -8  11  269.44   24.00
  -2   8 -12  374.62   27.97
   2  -8  12  292.51   25.03
   2  -8  13    9.53    9.75
  -2   8 -13   14.50   12.26
   2  -7  -8   90.08   17.74
  -2   7   8   70.11   18.16
   2  -7  -7   57.03   13.42
  -2   7   7   51.04   17.38
  -2   7   6   -0.88   11.79
   2  -7  -6   14.69   10.81
  -2   7   5    8.19   11.26
   2  -7  -5   -0.93    7.96
   2  -7  -4   -0.48    6.70
  -2   7   4   17.62    9.63
   2  -7  -4   24.08    6.64
   2  -7  -3    2.88    4.63
  -2   7   3    6.25    8.89
   2  -7  -3   -2.39    5.56
  -2   7   2  187.47   21.02
   2  -7  -2  141.70   14.10
   2  -7  -2  146.35   13.86
   2  -7  -1   94.19   12.13
   2  -7  -1  111.57   13.34
   2  -7   0  787.84   32.01
   2  -7   0  737.65   25.18
  -2   7   0  769.70   38.13
  -2   7  -1   29.80    9.66
   2  -7   1   29.19    6.26
   2  -7   1   39.98    9.97
  -2   7  -2 1598.50   47.66
   2  -7   2 1604.91   48.78
   2  -7   3  615.63   31.96
  -2   7  -3  563.49   17.90
  -2   7  -3  594.59   28.79
   2  -7   4  276.72   22.05
  -2   7  -4  307.58   19.18
  -2   7  -5  339.69   11.60
   2  -7   5  353.20   26.09
  -2   7  -6   73.30    5.94
  -2   7  -6   88.47   11.74
   2  -7   6   79.47   14.20
  -2   7  -7  402.18   14.58
  -2   7  -7  409.11   22.97
   2  -7   7  428.28   27.84
   2  -7   8   11.23    8.75
  -2   7  -8   13.79    5.02
  -2   7  -8   -8.73    7.73
  -2   7  -9  750.53   32.19
  -2   7  -9  699.84   23.26
   2  -7   9  683.38   34.68
   2  -7  10 1074.19   42.86
  -2   7 -10 1064.15   31.46
  -2   7 -11   15.52   10.64
   2  -7  11   -3.41    8.30
  -2   7 -11    1.78    6.24
  -2   7 -12  531.22   25.32
   2  -7  12  483.88   29.11
   2  -7  13  180.61   21.00
   2  -7  13  162.00   17.11
   2  -7  14    1.28   10.59
  -2   6   9   15.30   15.39
   2  -6  -9    6.77   12.93
   2  -6  -8   15.48   11.11
  -2   6   8   16.65   14.82
   2  -6  -7   99.16   15.43
  -2   6   7  108.91   18.64
   2  -6  -6   50.46   11.47
  -2   6   6   41.15   13.98
   2  -6  -5  245.17   20.89
   2  -6  -5  245.50   13.56
  -2   6   5  243.47   25.23
  -2   6   4  125.54   18.03
   2  -6  -4  129.39   13.97
   2  -6  -4  121.55   10.67
  -2   6   3   91.12   15.40
   2  -6  -3   94.86   11.34
   2  -6  -3   85.39    9.55
  -2   6   2   30.92   10.56
   2  -6  -2   25.58    7.30
   2  -6  -2   30.75    7.05
  -2   6   1  107.82   15.27
   2  -6  -1  106.29    9.87
   2  -6  -1  109.23   11.71
   2  -6   0  873.34   24.22
  -2   6   0  976.38   38.14
   2  -6   0  930.94   32.26
   2  -6   1  121.64    8.67
  -2   6  -1  130.10   14.87
   2  -6   1  137.43   13.83
  -2   6  -2 1375.54   39.19
   2  -6   2 1487.02   43.00
  -2   6  -3 2405.35   28.89
   2  -6   3 2448.54   57.16
  -2   6  -3 2458.89   49.28
  -2   6  -4    6.34    5.13
  -2   6  -4    2.89    1.89
  -2   6  -5 1316.63   19.97
  -2   6  -5 1336.22   36.39
   2  -6   5 1350.98   43.64
  -2   6  -6  373.61   12.39
   2  -6   6  386.55   24.07
  -2   6  -6  390.40   20.63
  -2   6  -7   64.67    9.56
  -2   6  -7   47.63    5.58
   2  -6   7   59.17   10.77
  -2   6  -8  150.04   15.08
  -2   6  -8  115.25    9.66
   2  -6   8  135.49   14.76
   2  -6   9   50.00    9.64
  -2   6  -9   35.92    6.84
   2  -6  10 1181.88   40.03
   2  -6  10 1100.84   39.18
  -2   6 -10 1182.71   34.34
   2  -6  11   92.12   13.61
   2  -6  11   93.93   13.33
  -2   6 -11   83.52   11.22
   2  -6  12  371.38   26.06
  -2   6 -12  400.98   22.98
   2  -6  12  373.49   22.80
  -2   6 -13  434.38   25.50
   2  -6  13  401.24   27.53
   2  -6  14    1.89   10.88
   2  -5 -10   -4.82   10.79
  -2   5  10   10.89   13.25
   2  -5  -9   52.03   14.81
  -2   5   9   54.67   17.78
   2  -5  -8   16.08   10.75
  -2   5   8  -12.07   12.00
  -2   5   7  335.61   28.69
   2  -5  -7  413.57   25.71
   2  -5  -6  183.91   17.30
  -2   5   6  184.26   21.05
   2  -5  -5  587.80   27.29
  -2   5   5  567.53   32.97
   2  -5  -5  512.17   17.08
   2  -5  -4  615.31   26.54
   2  -5  -4  552.85   18.57
  -2   5   4  589.98   33.55
   2  -5  -3  194.87   12.73
   2  -5  -3  221.07   12.60
  -2   5   3  226.04   19.96
   2  -5  -2  331.46   15.24
  -2   5   2  374.35   25.83
   2  -5  -2  346.83   16.35
   2  -5  -1  339.67   17.12
  -2   5   1  317.65   22.78
   2  -5  -1  313.47   13.90
   2  -5   0  891.77   20.44
  -2   5   0  958.42   34.81
   2  -5   0  915.20   28.67
  -2   5  -1  565.11   24.45
   2  -5   1  570.28   14.03
   2  -5   1  570.43   23.81
   2  -5   2  834.59   29.04
  -2   5  -2  793.27   26.66
   2  -5   3 6241.16   80.50
  -2   5  -3 6157.83   70.76
  -2   5  -3 6173.42   33.85
  -2   5  -4 2279.08   21.37
  -2   5  -4 2322.90   43.22
   2  -5   4 2272.23   49.75
  -2   5  -5 1164.12   18.78
   2  -5   5 1155.58   35.99
  -2   5  -5 1150.66   31.88
  -2   5  -6 2595.02   49.76
  -2   5  -6 2495.55   33.91
   2  -5   6 2548.51   53.32
   2  -5   7   54.89    8.87
  -2   5  -7   51.27    6.64
   2  -5   7   61.17    9.68
   2  -5   8   11.25    7.21
   2  -5   8   12.09    6.14
  -2   5  -8    9.17    4.58
  -2   5  -9   15.31    5.62
   2  -5   9   14.19    6.74
   2  -5   9   17.67    7.65
  -2   5 -10  253.92   16.55
   2  -5  10  202.01   17.80
   2  -5  10  233.55   16.81
  -2   5 -11  192.85   16.19
   2  -5  11  195.51   14.93
   2  -5  11  193.70   17.90
  -2   5 -12   56.06   10.35
   2  -5  12   76.87   13.42
   2  -5  13  391.87   28.46
  -2   5 -13  344.48   23.87
  -2   5 -14   95.18   15.06
   2  -5  14   79.92   15.94
  -2   4  11   20.66   14.50
   2  -4 -11   19.71   11.71
  -2   4  10    4.94   11.77
   2  -4 -10   -9.66   11.39
   2  -4  -9    6.84    8.31
  -2   4   9   -1.51   10.65
   2  -4  -8  -10.38    7.59
  -2   4   8   -5.75    9.17
   2  -4  -7  228.15   18.87
  -2   4   7  222.39   22.25
   2  -4  -6  567.72   26.65
  -2   4   6  516.16   30.52
   2  -4  -5  139.79   12.77
   2  -4  -5  148.19    8.38
  -2   4   5  146.54   17.25
   2  -4  -4 1207.83   24.64
   2  -4  -4 1260.85   33.29
  -2   4   4 1228.59   43.10
   2  -4  -3 1527.19   28.72
  -2   4   3 1455.39   47.06
   2  -4  -2 1247.63   26.33
  -2   4   2 1320.54   42.41
   2  -4  -2 1279.80   27.40
  -2   4   1  345.68   20.92
   2  -4  -1  315.50   14.22
   2  -4  -1  330.56   11.92
   2  -4   0   13.94    2.36
   2  -4   0    6.74    3.70
  -2   4   0    5.99    4.90
   2  -4   1   52.94    2.90
   2  -4   1   61.03    7.12
  -2   4  -1   57.94    7.69
   2  -4   2   74.44    8.04
  -2   4  -2   63.04    7.39
   2  -4   3 2094.41   40.43
  -2   4  -3 2023.76   14.46
  -2   4  -3 2026.93   36.97
   2  -4   4 2830.04   47.81
  -2   4  -4 2834.66   44.49
   2  -4   5  478.17   20.35
  -2   4  -5  511.47   13.68
   2  -4   6 3350.34   53.98
   2  -4   6 3338.36   52.68
  -2   4  -6 3438.56   40.14
   2  -4   7  518.53   23.26
   2  -4   7  558.20   22.37
  -2   4  -7  528.70   18.20
   2  -4   8   12.57    5.33
   2  -4   8   20.41    7.02
  -2   4  -8   12.03    5.49
   2  -4   9  325.30   17.17
   2  -4   9  323.60   20.85
  -2   4  -9  330.68   17.42
   2  -4  10    3.74    4.72
  -2   4 -10    6.82    5.99
   2  -4  10   -0.27    7.09
   2  -4  11   52.44    7.65
   2  -4  11   50.19   11.60
  -2   4 -11   56.07   10.23
  -2   4 -12   25.37    9.28
   2  -4  12   -1.74    9.34
  -2   4 -13  102.33   14.91
   2  -4  13  147.18   19.04
   2  -4  14   71.75   15.82
  -2   4 -14   90.11   14.81
   2  -3 -12   -6.40   10.66
  -2   3  12  -13.39   13.60
   2  -3 -11  137.98   19.49
  -2   3  11  128.33   20.62
   2  -3 -10   93.03   15.68
  -2   3  10  100.61   20.12
  -2   3   9   -5.43   10.55
   2  -3  -9  -10.83    8.83
   2  -3  -8   40.75   10.33
  -2   3   8   38.54   11.87
  -2   3   7   74.23   12.74
   2  -3  -7   94.93   12.68
   2  -3  -6  583.98   14.75
  -2   3   6  614.77   30.99
  -2   3   5  121.22   14.21
   2  -3  -5  132.82   11.73
   2  -3  -5  102.47    6.70
   2  -3  -4 3295.01   50.78
  -2   3   4 3470.16   66.07
   2  -3  -4 3433.88   36.63
   2  -3  -3 4041.49   47.90
   2  -3  -3 3904.50   40.84
  -2   3   3 4074.27   70.48
  -2   3   2   -0.86    5.97
   2  -3  -2    3.57    2.82
   2  -3  -1 3400.86   32.04
  -2   3   1 3449.74   56.19
   2  -3  -1 3438.77   40.02
   2  -3   0 1715.14   16.58
   2  -3   0 1716.59   29.43
  -2   3  -1  281.78   13.07
   2  -3   1  290.26   12.46
   2  -3   2    0.83    2.76
  -2   3  -2    0.50    2.83
  -2   3  -3  287.87   12.81
   2  -3   3  297.59   13.40
  -2   3  -3  306.23    7.03
   2  -3   4 1719.46   32.58
  -2   3  -4 1761.64   22.37
   2  -3   4 1754.93   32.78
  -2   3  -5  295.56   10.91
   2  -3   5  278.84   14.98
   2  -3   5  278.02   13.51
  -2   3  -6 1041.73   23.42
   2  -3   6 1009.10   25.37
   2  -3   6 1048.56   29.08
   2  -3   7 1796.78   40.70
  -2   3  -7 1781.00   34.52
   2  -3   7 1739.59   33.59
   2  -3   8    5.29    5.19
  -2   3  -8   -2.14    4.25
   2  -3   8   -2.69    3.62
   2  -3   9  336.47   20.13
   2  -3   9  284.40   13.73
  -2   3  -9  302.48   16.99
   2  -3  10   -2.28    6.95
  -2   3 -10   12.77    6.35
   2  -3  10   11.78    4.29
  -2   3 -11   26.24    8.63
   2  -3  11   10.67    8.45
  -2   3 -12   31.12    9.90
   2  -3  12    9.26    9.37
   2  -3  13    6.30   10.31
  -2   3 -13   13.89   10.04
  -2   3 -14   45.57   14.42
   2  -3  14    3.86    9.87
   2  -2 -13  126.23   20.88
  -2   2  13  156.48   24.38
  -2   2  12   28.26   12.82
   2  -2 -12   24.96   12.45
   2  -2 -11  145.13   18.53
  -2   2  11  160.54   20.70
   2  -2 -10  361.12   24.99
  -2   2  10  323.66   27.29
   2  -2  -9   18.53    7.68
  -2   2   9   16.72    9.19
   2  -2  -8  114.67   13.51
  -2   2   8  118.04   15.15
   2  -2  -7   12.37    6.43
  -2   2   7    2.03    6.09
   2  -2  -6  186.72   13.82
  -2   2   6  223.48   17.53
   2  -2  -5  250.49   13.89
   2  -2  -5  262.87    9.66
  -2   2   5  272.06   18.41
  -2   2   4  504.78   22.87
   2  -2  -4  534.38   13.76
   2  -2  -4  478.63   17.48
   2  -2  -3 1661.13   27.54
  -2   2   3 1712.74   41.22
   2  -2  -3 1619.96   23.52
   2  -2  -2 1196.21   20.41
   2  -2  -2 1169.44   20.33
  -2   2   2 1196.07   33.13
   2  -2  -1 3318.77   26.52
  -2   2   1 3305.25   48.29
   2  -2  -1 3270.00   34.40
  -2   2   0 3600.13   42.06
   2  -2   0 3590.00   36.91
  -2   2  -1   30.56    4.15
   2  -2   1   35.46    4.17
  -2   2  -2   11.83    1.55
  -2   2  -2   16.23    3.62
   2  -2   2   10.63    2.69
  -2   2  -3    1.46    1.59
   2  -2   3    1.83    2.73
   2  -2   3    2.66    2.13
  -2   2  -4   19.95    3.34
   2  -2   4   23.36    3.77
  -2   2  -5 1453.52   26.23
   2  -2   5 1389.06   25.15
  -2   2  -6  108.92    8.78
   2  -2   6   95.74   10.10
   2  -2   6  100.23    7.14
   2  -2   7 1148.92   23.53
   2  -2   7 1134.63   33.91
  -2   2  -7 1178.30   30.20
  -2   2  -8  135.59   11.56
   2  -2   8  121.07    7.99
   2  -2   8  143.46   14.29
   2  -2   9  123.68    8.16
   2  -2   9  113.86   13.58
  -2   2  -9  127.06   13.13
  -2   2 -10   80.32   11.30
   2  -2  10   80.82   13.24
  -2   2 -11   -1.75    7.22
   2  -2  11    2.01    7.35
  -2   2 -12    9.27    7.52
   2  -2  12    7.73    9.95
   2  -2  13   65.55   15.55
  -2   2 -13   78.43   15.42
  -2   1  13   61.31   16.09
   2  -1 -13   63.90   15.49
  -2   1  12  110.03   18.17
   2  -1 -12  137.65   17.42
  -2   1  11   10.86   10.02
   2  -1 -11   14.47    8.87
   2  -1 -10  687.60   32.46
  -2   1  10  633.57   33.95
   2  -1  -9  257.27   18.87
  -2   1   9  255.71   21.69
   2  -1  -8  106.63   12.11
  -2   1   8  112.35   13.96
  -2   1   7  378.75   14.32
   2  -1  -7  398.40   19.92
  -2   1   7  378.22   21.64
   2  -1  -6   46.87    7.24
  -2   1   6   39.43    4.94
  -2   1   6   31.38    8.07
   2  -1  -5  117.81    9.32
  -2   1   5  134.41   11.16
  -2   1   4  315.98   15.95
   2  -1  -4  326.05   10.73
   2  -1  -4  309.46   12.98
   2  -1  -3  763.61   17.30
   2  -1  -3  792.93   16.21
   2  -1  -2 4153.76   34.72
   2  -1  -2 4213.95   36.35
   2  -1  -1  547.04   11.01
   2  -1  -1  582.94   13.59
  -2   1   1  566.57   16.27
   2  -1   0 5553.98   32.74
  -2   1   0 5564.30   42.73
   2  -1   0 5513.17   41.48
   2  -1   1 1035.49   17.97
   2  -1   1  957.98   16.57
   2  -1   2  147.21    7.35
   2  -1   2  148.62    8.41
   2  -1   2  167.37    7.81
  -2   1  -3    5.66    2.67
   2  -1   3    2.55    2.99
   2  -1   3    7.02    2.48
  -2   1  -4  265.54   12.18
   2  -1   4  261.87   13.01
   2  -1   4  270.87    9.75
   2  -1   5  294.16   10.60
  -2   1  -5  292.71   13.69
   2  -1   5  283.01   15.50
   2  -1   6  330.42   11.21
   2  -1   6  310.72   17.09
  -2   1  -6  303.19   14.68
   2  -1   7   10.73    6.12
  -2   1  -7    8.75    5.13
   2  -1   7    7.35    2.70
  -2   1  -8  159.98   14.23
   2  -1   8  170.10   15.75
   2  -1   9    6.91    7.51
  -2   1  -9   -0.03    5.81
   2  -1  10   98.16   14.49
  -2   1 -10  110.76   14.40
   2  -1  11   31.98   10.22
  -2   1 -11    1.07    7.44
   2  -1  12   59.74   13.68
  -2   1 -12   47.39   12.93
  -2   1 -13   13.03   10.55
   2  -1  13   19.59   12.95
   2   0 -14   -5.48   10.01
  -2   0  14   11.54   10.61
  -2   0  13   -8.17    9.52
   2   0 -13  -14.25   11.58
   2   0 -12  164.97   17.97
  -2   0  12  132.79   17.88
   2   0 -11   54.48   11.88
  -2   0  11   50.22   11.64
   2   0 -10  582.40   28.12
  -2   0  10  584.00   29.21
   2   0  -9  934.52   32.31
  -2   0   9  800.09   32.77
  -2   0   8    5.53    4.12
   2   0  -8    6.98    5.89
  -2   0   8   -0.07    5.91
  -2   0   7 2171.34   37.81
  -2   0   7 2241.49   47.26
  -2   0   6  195.97   11.06
   2   0  -6  183.79   11.71
  -2   0   6  173.08   12.65
   2   0  -5  298.89   13.31
  -2   0   5  282.89   14.06
  -2   0   5  272.48   11.89
   2   0  -4  678.75   17.68
  -2   0   4  662.63   18.93
  -2   0   4  687.75   18.15
  -2   0   3   45.97    4.75
   2   0  -3   49.81    4.80
   2   0  -3   46.53    4.37
  -2   0   2 1892.82   28.55
   2   0  -2 1848.85   24.88
   2   0  -2 1850.64   23.05
  -2   0   1 1069.00   16.24
   2   0  -1 1023.80   16.89
   2   0  -1 1036.30   17.69
   2   0   0  331.60    8.73
   2   0   0  321.69   10.26
   2   0   0  321.41   10.63
   2   0   1 2189.20   25.97
   2   0   1 2252.71   26.16
   2   0   2   54.22    5.33
   2   0   2   45.08    5.57
   2   0   2   55.63    4.15
   2   0   3  149.60    7.14
   2   0   3  140.96    9.21
   2   0   4   12.38    2.78
   2   0   4    6.21    4.08
   2   0   5  223.94   14.39
  -2   0  -5  192.64   12.99
   2   0   5  226.42    8.45
   2   0   6  658.93   13.84
   2   0   6  669.12   26.25
  -2   0  -6  663.91   25.05
  -2   0  -7  291.22   17.70
   2   0   7  331.52   19.95
  -2   0  -8   94.31   11.95
   2   0   8   71.74   11.96
  -2   0  -9  144.16   15.88
   2   0   9  149.48   16.54
   2   0  10    9.32    9.86
  -2   0 -10   12.39    8.65
   2   0  11  -12.79   11.01
  -2   0 -11    4.05    8.76
   2   0  12    2.05   10.79
  -2   0 -12   14.12    9.65
   2   1 -14    2.65    9.69
  -2  -1  14    8.47   10.60
   2   1 -13   -5.43    9.73
  -2  -1  13   17.32   10.75
  -2  -1  12   49.96   11.55
   2   1 -12   30.08   11.33
   2   1 -11  225.54   18.57
  -2  -1  11  217.25   19.30
  -2  -1  10    5.63    6.30
  -2  -1  10   -2.19    7.29
   2   1 -10  -10.73    6.56
   2   1  -9  543.91   24.03
  -2  -1   9  539.74   24.99
  -2  -1   9  522.47   24.73
   2   1  -8   97.53   10.65
  -2  -1   8  102.01   10.62
  -2  -1   8  106.31   10.61
   2   1  -7  796.16   24.74
  -2  -1   7  815.36   26.14
  -2  -1   7  791.21   24.64
   2   1  -6  833.23   23.42
  -2  -1   6  812.44   22.89
  -2  -1   6  876.63   25.03
   2   1  -5    6.26    3.38
  -2  -1   5    9.00    4.31
  -2  -1   5    5.11    2.98
  -2  -1   4   26.63    4.42
  -2  -1   4   19.36    3.44
  -2  -1   3   79.47    6.59
  -2  -1   3   78.17    4.41
   2   1  -3   77.51    5.61
   2   1  -2   20.91    3.26
  -2  -1   2   22.43    3.86
  -2  -1   1 4057.56   42.95
   2   1  -1 4096.04   39.56
  -2  -1   0  664.01   17.05
   2   1   0  649.78   12.10
   2   1   1 1100.17   24.26
   2   1   1 1336.35   21.78
   2   1   2  376.87   16.57
   2   1   2  389.05   14.30
   2   1   3  284.26   14.53
   2   1   3  251.55   15.89
   2   1   4    7.24    4.61
  -2  -1  -4   12.48    3.26
  -2  -1  -4   16.34    5.58
  -2  -1  -5  640.84   14.93
  -2  -1  -5  641.04   25.56
   2   1   5  646.67   25.92
  -2  -1  -6   64.46   10.25
   2   1   6   43.10    9.04
   2   1   7  459.66   27.20
  -2  -1  -7  473.87   25.28
  -2  -1  -8  116.11   13.40
   2   1   8  150.04   16.64
  -2  -1  -9   68.96   11.84
   2   1   9   40.38   10.91
   2   1  10   44.26   12.81
  -2  -1 -10   66.81   13.82
   2   1  11  -12.15   11.87
  -2  -1 -11    9.86   11.84
   2   1  12   33.28   13.93
  -2  -1 -12   17.11   10.79
  -2  -2  15   29.44   12.83
   2   2 -15   21.21    9.74
  -2  -2  14   83.15   15.43
   2   2 -14   77.11   14.52
   2   2 -13  131.28   17.55
  -2  -2  13  133.26   16.86
   2   2 -12   71.04   12.76
  -2  -2  12   57.82   11.39
   2   2 -11   71.76   11.36
  -2  -2  11   62.25   11.81
  -2  -2  11   59.80   11.24
   2   2 -10  102.97   11.88
  -2  -2  10   97.36   14.52
  -2  -2  10   99.49   11.45
   2   2  -9  376.89   19.68
  -2  -2   9  370.19   19.38
  -2  -2   9  360.32   22.77
   2   2  -8 1044.57   30.08
  -2  -2   8 1003.39   34.12
  -2  -2   8 1062.95   29.41
  -2  -2   7   85.29    9.35
   2   2  -7   87.45    8.76
  -2  -2   7   75.02    7.63
  -2  -2   6 2070.27   42.39
   2   2  -6 2117.49   37.67
  -2  -2   6 2106.94   32.49
   2   2  -5  120.84    8.66
  -2  -2   5  106.87    6.56
  -2  -2   5  127.52   10.70
   2   2  -4  846.39   20.37
  -2  -2   4  830.63   24.08
  -2  -2   4  847.64   13.54
   2   2  -3   15.45    3.18
  -2  -2   3   21.22    4.49
   2   2  -2  749.63   18.67
  -2  -2   2  739.71   20.86
  -2  -2   1  539.45   17.28
   2   2  -1  542.97   17.30
   2   2  -1  562.45    9.69
  -2  -2   0 1538.58   28.19
   2   2   0 1554.30   32.39
   2   2   0 1611.30   22.89
   2   2   1   17.37    4.71
   2   2   1   12.98    3.35
  -2  -2  -1   10.59    3.97
   2   2   2  402.35   19.45
  -2  -2  -2  368.46   14.27
   2   2   2  391.37   15.82
   2   2   3   10.94    5.81
   2   2   3    0.67    4.25
  -2  -2  -3    4.82    3.35
   2   2   4   27.50    6.93
  -2  -2  -4   23.14    7.59
  -2  -2  -4   24.38    3.78
   2   2   5   45.52    9.09
  -2  -2  -5   57.80    9.91
  -2  -2  -5   44.60    4.59
  -2  -2  -6   75.98   11.87
   2   2   6   81.62   12.29
  -2  -2  -7  157.85   17.91
   2   2   7  170.24   17.83
   2   2   8  436.09   29.71
  -2  -2  -8  489.45   28.43
  -2  -2  -9   -3.74    8.85
   2   2   9    0.94    9.86
  -2  -2 -10  164.13   20.70
   2   2  10  145.99   21.41
   2   2  11   10.02   12.93
  -2  -2 -11   20.60   11.81
  -2  -3  15   55.70   13.53
   2   3 -15   83.51   14.85
   2   3 -14   34.60   11.89
  -2  -3  14   -5.69    9.08
   2   3 -13  169.93   17.90
  -2  -3  13  143.33   16.79
  -2  -3  12    7.34    6.85
   2   3 -12   -1.55    7.35
  -2  -3  12    2.73    7.43
  -2  -3  11   72.44   13.45
   2   3 -11   96.74   12.05
  -2  -3  11   64.97   10.51
   2   3 -10   86.35   11.13
  -2  -3  10  102.16   15.16
  -2  -3  10   63.36    9.20
   2   3  -9   67.37    9.76
  -2  -3   9   68.61   11.43
  -2  -3   9   51.88    7.87
  -2  -3   8  429.36   18.03
   2   3  -8  468.02   20.57
  -2  -3   8  472.03   25.98
  -2  -3   7  884.78   22.22
   2   3  -7  887.90   25.78
  -2  -3   7  854.87   31.97
   2   3  -6  323.64   14.75
  -2  -3   6  305.07   18.67
  -2  -3   6  293.97   11.70
   2   3  -5  256.64   12.59
  -2  -3   5  262.11   16.11
  -2  -3   4   34.60    7.28
   2   3  -4   22.24    4.60
   2   3  -4   32.85    2.50
  -2  -3   3   45.08    7.11
   2   3  -3   56.42    6.20
   2   3  -2  917.90   23.29
  -2  -3   2  893.78   26.34
   2   3  -2  867.90   13.07
  -2  -3   1  137.88   10.43
   2   3  -1  129.53    7.01
   2   3  -1  141.88   10.62
   2   3   0  664.92   24.00
  -2  -3   0  634.18   20.79
   2   3   0  643.25   18.31
   2   3   1 2970.65   53.20
  -2  -3  -1 3039.20   44.46
   2   3   1 3109.68   47.66
   2   3   2   22.19    7.07
  -2  -3  -2   15.26    4.32
   2   3   2   12.40    4.77
  -2  -3  -3  177.01   10.84
   2   3   3  144.72   13.27
   2   3   3  155.74   15.43
  -2  -3  -4   16.72    4.40
   2   3   4   26.22    6.85
  -2  -3  -4   27.55    9.90
   2   3   5    3.95    6.44
  -2  -3  -5    2.09    6.99
  -2  -3  -6  263.66   20.89
   2   3   6  263.84   21.61
   2   3   7   -4.00    8.17
  -2  -3  -7    4.87    8.21
  -2  -3  -8  368.24   26.99
   2   3   8  364.09   27.85
  -2  -3  -9   74.82   13.57
   2   3   9  105.35   20.13
  -2  -3 -10  105.79   18.85
   2   3  10   96.33   20.77
   2   4 -15   86.31   15.53
  -2  -4  15   90.40   14.89
  -2  -4  14   57.06   11.55
   2   4 -14   64.34   14.46
  -2  -4  13  137.98   15.12
   2   4 -13  171.02   17.89
   2   4 -12   65.41   12.50
  -2  -4  12   34.82   10.88
  -2  -4  12   34.61    9.26
   2   4 -11  102.25   12.78
  -2  -4  11   89.04   11.43
  -2  -4  11  100.10   15.76
  -2  -4  10   30.89   11.88
   2   4 -10   48.16    8.42
  -2  -4  10   36.25    7.65
   2   4  -9  259.76   16.71
  -2  -4   9  216.38   14.16
  -2  -4   9  253.41   21.69
   2   4  -8   66.24    8.72
  -2  -4   8   59.60   11.67
  -2  -4   8   48.16    6.45
  -2  -4   7  328.21   21.91
  -2  -4   7  315.11   12.87
   2   4  -7  332.43   16.53
   2   4  -6  267.61   14.32
  -2  -4   6  256.91    9.85
  -2  -4   6  256.87   18.84
  -2  -4   5   78.71   10.22
   2   4  -5   83.71    8.46
   2   4  -5   72.66    4.61
  -2  -4   4   15.26    5.50
   2   4  -4   13.98    4.39
   2   4  -4   19.68    2.68
  -2  -4   3  772.82   27.91
   2   4  -3  726.99   16.59
   2   4  -3  747.24   22.80
  -2  -4   2    9.93    6.42
   2   4  -2    7.88    2.89
   2   4  -2    7.38    4.02
   2   4  -1 1343.99   27.95
   2   4  -1 1327.88   34.87
  -2  -4   1 1340.79   34.65
   2   4   0   12.39    5.54
   2   4   0    7.61    4.46
  -2  -4  -1 2266.19   43.86
   2   4   1 2231.64   44.85
   2   4   1 2222.97   51.35
   2   4   2  570.06   28.52
  -2  -4  -2  550.84   21.66
   2   4   2  626.91   27.31
   2   4   3  263.28   19.27
   2   4   3  232.73   20.64
  -2  -4  -3  247.61   15.04
  -2  -4  -4  429.98   19.79
  -2  -4  -4  452.98   28.42
   2   4   4  381.64   24.98
   2   4   5   79.82   13.12
  -2  -4  -5   76.80   13.64
   2   4   6   59.52   12.94
  -2  -4  -6   73.36   14.34
   2   4   7    9.86   11.52
  -2  -4  -7    6.49   10.07
   2   4   8   84.06   18.12
  -2  -4  -8   80.86   17.42
  -2  -4  -9  131.70   18.78
   2   4   9   91.91   20.37
  -2  -4 -10    7.70   12.96
   2   4  10  -21.09   18.37
  -2  -5  15   -7.98    8.97
   2   5 -15    0.10   10.35
   2   5 -14  102.09   14.90
  -2  -5  14   70.72   12.46
   2   5 -13   11.27    8.62
  -2  -5  13   -3.37    6.50
  -2  -5  13    0.96   10.01
  -2  -5  12   47.44   12.47
  -2  -5  12   34.82    8.57
   2   5 -12   29.09    7.88
   2   5 -11    7.69    6.44
  -2  -5  11   13.11    8.68
  -2  -5  11    3.89    4.68
   2   5 -10  227.14   16.54
  -2  -5  10  195.29   13.61
  -2  -5  10  222.74   23.61
  -2  -5   9  230.40   13.60
  -2  -5   9  254.04   24.01
   2   5  -9  229.30   15.68
  -2  -5   8  948.66   41.72
  -2  -5   8  995.11   23.83
   2   5  -8 1000.82   31.07
   2   5  -7   32.33    4.91
   2   5  -7   25.65    6.22
  -2  -5   7   29.76   10.32
   2   5  -6 3059.70   50.98
   2   5  -6 3115.46   34.97
   2   5  -5  991.31   28.00
  -2  -5   5  957.52   36.50
   2   5  -5  945.09   19.39
  -2  -5   4   12.84    6.11
   2   5  -4   19.13    4.09
   2   5  -3   15.44    5.43
  -2  -5   3   18.10    6.68
   2   5  -3   27.54    5.35
  -2  -5   2  105.07   11.53
   2   5  -2  104.66    9.54
   2   5  -2  105.26   10.93
  -2  -5   1 1785.62   44.82
   2   5  -1 1784.62   38.64
   2   5  -1 1859.96   45.11
   2   5   0  256.45   17.39
   2   5   0  230.80   15.56
  -2  -5  -1  303.23   18.89
   2   5   1  279.50   21.66
   2   5   1  303.75   19.16
   2   5   2 1787.39   48.38
   2   5   2 1859.93   53.13
  -2  -5  -2 1707.97   43.84
   2   5   3    1.60    7.89
   2   5   3    1.26    7.68
  -2  -5  -3    2.51    6.24
  -2  -5  -4  555.57   30.84
   2   5   4  465.93   31.20
  -2  -5  -5  267.60   23.12
   2   5   5  283.19   23.88
   2   5   6    0.18    9.49
  -2  -5  -6    0.93    9.74
   2   5   7   -8.37   10.02
  -2  -5  -7   -7.42   11.67
   2   5   8  -12.60   13.52
  -2  -5  -8    3.36   11.31
   2   5   9   60.24   18.29
  -2  -5  -9   49.62   15.20
   2   6 -15  129.39   17.99
  -2  -6  14    2.55    8.54
  -2  -6  14   -1.32    7.26
   2   6 -14    5.05    8.80
   2   6 -13  154.13   17.10
  -2  -6  13  138.55   14.75
  -2  -6  13  166.69   21.33
  -2  -6  12    3.33    9.06
  -2  -6  12  -11.85    6.74
   2   6 -12    9.42    7.80
  -2  -6  11   -2.89   10.60
   2   6 -11   -6.67    7.00
  -2  -6  11   -1.81    4.70
   2   6 -10  220.70   17.12
  -2  -6  10  211.42   13.71
   2   6  -9   17.48    5.22
  -2  -6   9    6.97   10.00
   2   6  -9   18.24    7.37
   2   6  -8  959.31   24.59
   2   6  -8  937.82   31.36
  -2  -6   7  482.22   30.71
   2   6  -7  453.46   15.88
   2   6  -6  899.20   29.51
  -2  -6   6  829.75   37.98
   2   6  -6  850.64   21.34
   2   6  -5 1713.32   39.55
   2   6  -5 1773.96   33.30
  -2  -6   4   44.87    9.80
   2   6  -4   75.66    9.84
   2   6  -4   62.72    8.10
   2   6  -3  567.35   22.47
   2   6  -3  569.75   24.07
  -2  -6   2  428.06   26.47
   2   6  -2  471.51   24.00
   2   6  -2  475.20   21.53
   2   6  -1  212.92   17.04
  -2  -6   1  229.11   18.94
   2   6  -1  249.40   16.49
   2   6   0  308.89   22.51
   2   6   0  315.18   20.80
  -2  -6   0  314.82   22.30
   2   6   1   11.06    8.27
  -2  -6  -1   27.12   10.46
   2   6   1    9.34    7.34
   2   6   2 1042.13   42.27
  -2  -6  -2  987.00   37.02
   2   6   3  271.06   23.09
  -2  -6  -3  213.44   16.40
  -2  -6  -4  300.08   26.63
   2   6   4  287.68   27.32
  -2  -6  -5  531.58   33.57
   2   6   5  479.90   34.79
   2   6   6   31.54   12.89
  -2  -6  -6   31.04   12.11
   2   6   7   45.65   16.11
  -2  -6  -7   18.32   13.47
   2   6   8   29.77   15.56
  -2  -6  -8   -5.76   11.92
   2   7 -15  217.64   22.01
  -2  -7  14   76.94   16.61
   2   7 -14   52.44   12.58
   2   7 -13  248.60   20.45
  -2  -7  13  196.15   16.51
  -2  -7  13  183.85   22.84
   2   7 -12  348.47   23.21
   2   7 -12  316.97   21.15
  -2  -7  12  284.07   26.53
  -2  -7  11   75.75   17.14
   2   7 -11   67.37   11.64
   2   7 -11   67.16   10.06
   2   7 -10    3.37    4.43
   2   7 -10   12.72    6.55
  -2  -7  10   21.05   10.87
  -2  -7   9   -1.98   11.23
   2   7  -9   -3.85    6.89
   2   7  -9    6.78    4.79
   2   7  -8  565.83   26.37
   2   7  -8  525.25   19.29
  -2  -7   8  530.62   36.47
   2   7  -7 1308.34   37.77
   2   7  -7 1222.13   28.90
   2   7  -6    2.15    5.59
  -2  -7   6   11.54    8.91
   2   7  -6    8.61    4.90
  -2  -7   5 2184.32   65.73
   2   7  -5 2058.87   48.50
   2   7  -4 1323.44   36.63
  -2  -7   4 1261.69   49.17
   2   7  -3  677.37   29.71
   2   7  -3  635.11   26.33
  -2  -7   3  633.94   35.20
  -2  -7   2  973.58   43.78
   2   7  -2  928.02   34.03
   2   7  -2  964.27   36.08
   2   7  -1  104.10   14.32
   2   7  -1  102.62   12.75
  -2  -7   1  140.40   17.87
   2   7   0  133.01   16.20
   2   7   0  107.24   14.88
  -2  -7   0  124.35   15.71
   2   7   1    1.80    8.92
  -2  -7  -1   -5.21    6.62
   2   7   1  -12.56    8.76
   2   7   2  121.18   18.33
   2   7   2  120.11   17.74
  -2  -7  -2  138.48   15.44
  -2  -7  -3  335.44   26.45
   2   7   3  345.59   28.79
   2   7   4    7.04   11.58
  -2  -7  -4    0.06    9.43
  -2  -7  -5  164.20   21.24
   2   7   5  211.22   24.19
   2   7   6    6.24   12.37
  -2  -7  -6   13.19   11.47
   2   8 -14  311.66   26.42
  -2  -8  14  271.75   27.66
   2   8 -13    2.34    9.03
  -2  -8  13    4.35   11.03
   2   8 -12  803.43   36.37
  -2  -8  12  631.59   40.84
   2   8 -11  309.81   22.85
  -2  -8  11  223.54   25.38
   2   8 -10  134.30   15.05
  -2  -8  10   62.88   16.29
   2   8  -9  136.31   14.74
  -2  -8   9  111.13   18.17
   2   8  -8  145.31   14.71
  -2  -8   8  118.92   20.18
   2   8  -7  610.47   27.85
  -2  -8   7  620.38   37.83
   2   8  -6  255.93   18.90
   2   8  -6  261.20   16.37
  -2  -8   6  211.22   24.00
   2   8  -5  657.59   29.64
  -2  -8   5  685.80   38.71
   2   8  -5  663.37   28.29
   2   8  -4 1345.26   42.94
  -2  -8   4 1236.91   51.90
   2   8  -3    9.69    8.80
  -2  -8   3   35.64   10.40
   2   8  -3   14.72    6.63
   2   8  -2  735.55   32.83
  -2  -8   2  671.50   36.06
  -2  -8   1  302.96   24.00
   2   8  -1  335.08   24.56
   2   8  -1  368.32   26.27
   2   8   0   -1.40    7.81
  -2  -8   0  -10.20    9.00
   2   8   0   -1.93    8.99
  -2  -8  -1   42.96   10.26
   2   8   1   47.01   12.27
   2   8   1   51.98   13.96
  -2  -8  -2   20.52    7.76
   2   8   2   41.19   14.82
  -2  -8  -3  139.74   19.41
   2   8   3  115.01   19.52
  -2  -8  -4   26.26   12.51
   2   8   4    8.50   13.60
  -2  -8  -5   29.99   14.15
   2   8   5   59.44   17.33
   2   9 -14  350.58   27.35
  -2  -9  14  341.63   31.73
   2   9 -13  212.36   21.68
  -2  -9  13  135.17   21.36
   2   9 -12  251.05   22.45
  -2  -9  12  202.93   24.83
   2   9 -11  541.36   30.58
  -2  -9  11  480.10   35.01
  -2  -9  10   -0.83    9.99
   2   9 -10    5.68    7.64
   2   9  -9  353.84   24.07
  -2  -9   9  310.22   29.04
   2   9  -8  162.44   16.90
  -2  -9   8  144.01   20.51
  -2  -9   7   64.18   15.15
   2   9  -7   76.32   12.02
   2   9  -6  209.14   18.57
  -2  -9   6  187.68   22.05
  -2  -9   5   45.88   12.27
   2   9  -5   47.74   11.82
   2   9  -4  538.60   28.46
  -2  -9   4  470.66   32.53
   2   9  -4  490.30   29.03
  -2  -9   3  376.18   29.14
   2   9  -3  343.78   23.27
  -2  -9   2  199.59   20.31
   2   9  -2  268.81   23.03
   2   9  -2  228.06   21.58
   2   9  -1  300.22   26.33
  -2  -9   1  257.67   21.96
   2   9  -1  325.32   24.72
   2   9   0    6.86    9.65
  -2  -9   0   -2.96    7.38
   2   9   0    8.63    9.15
  -2  -9  -1   23.56    8.81
   2   9   1   63.92   15.49
   2   9   1   55.03   13.41
  -2  -9  -2    6.54   10.91
   2   9   2   -2.33   10.85
   2   9   3   21.67   15.02
  -2  -9  -3   -0.88   10.05
   2  10 -13  320.16   27.23
  -2 -10  13  219.16   26.62
  -2 -10  12  -21.86   15.24
   2  10 -12   16.64   12.11
   2  10 -11  657.30   35.66
  -2 -10  11  545.55   38.60
   2  10 -10  268.42   22.05
  -2 -10  10  254.91   27.41
  -2 -10   9  166.99   23.23
   2  10  -9  169.62   18.65
   2  10  -8  313.66   23.50
  -2 -10   8  224.34   25.60
  -2 -10   7   -3.69   11.11
   2  10  -7   13.87    9.65
   2  10  -6    0.39    8.02
  -2 -10   6   -1.50    9.76
   2  10  -5   19.16    9.73
  -2 -10   5   10.94    9.06
  -2 -10   4   51.79   13.38
   2  10  -4   53.47   13.56
   2  10  -3  369.84   27.95
  -2 -10   3  324.48   26.14
   2  10  -2    0.59    9.62
  -2 -10   2   20.04   11.81
   2  10  -1  183.10   23.64
  -2 -10   1  143.63   17.43
  -2 -10   0   22.70    9.76
   2  10   0   36.31   12.53
  -2 -10  -2    9.86   12.12
  -2 -11  11  124.37   20.80
   2  11 -11  187.39   21.62
   2  11 -10  526.89   33.34
  -2 -11  10  423.71   35.22
   2  11  -9   17.10   12.05
  -2 -11   9  -16.49   13.05
   2  11  -8  262.52   23.67
  -2 -11   8  210.30   24.58
   2  11  -7   36.58   12.56
  -2 -11   7   37.68   12.42
  -2 -11   6    6.26    9.35
   2  11  -6   26.19   12.11
  -2 -11   5    9.01   10.97
   2  11  -5   23.53   10.76
  -2 -11   4  -11.75   10.75
   2  11  -4    6.51   10.15
  -2 -11   3   26.45   12.48
   2  11  -3   55.83   15.04
   2  11  -2   66.72   17.02
  -2 -11   2   97.75   16.27
  -2 -11   1    2.18    8.53
   2  11  -1   -0.14   13.30
  -2 -12   9   93.84   19.85
   2  12  -9   93.68   17.58
  -2 -12   8   72.11   17.58
   2  12  -8   87.01   18.02
  -2 -12   7   82.90   17.97
   2  12  -7  118.72   19.39
  -2 -12   6  -17.29   11.79
   2  12  -6    5.36   10.05
   2  12  -5   32.71   12.79
  -2 -12   5   22.91   13.26
   3 -12   1   98.64   18.59
  -3  12  -1   82.63   21.09
  -3  12  -2   16.93   16.55
   3 -12   2   15.87   14.15
   3 -12   3  241.07   27.15
  -3  12  -3  205.14   28.08
  -3  12  -4   66.77   22.00
   3 -12   4   37.37   16.52
   3 -12   5   39.38   15.17
  -3  12  -5   23.06   14.78
   3 -12   6  134.09   21.82
  -3  12  -6  156.89   25.07
  -3  12  -7   37.60   16.73
   3 -12   7   43.05   17.11
   3 -12   8   40.66   18.41
  -3  12  -8   46.43   16.67
   3 -12   9   -7.09   14.50
  -3  12  -9   19.26   15.10
  -3  11   2   26.73   14.32
  -3  11   1   -8.24   12.80
   3 -11  -1   14.64   10.47
  -3  11   0   31.84   15.42
   3 -11   0   54.80   13.60
  -3  11  -1  221.29   27.28
   3 -11   1  178.68   22.66
   3 -11   2   60.13   15.28
  -3  11  -2   54.22   18.64
   3 -11   3  191.51   24.36
  -3  11  -3  231.32   26.76
  -3  11  -4  345.84   31.71
   3 -11   4  327.77   31.80
  -3  11  -5   22.08   14.04
   3 -11   5   39.13   16.80
  -3  11  -6  385.44   31.13
   3 -11   6  306.62   30.37
  -3  11  -7   42.29   14.88
   3 -11   7   17.72   12.06
  -3  11  -8   13.07   12.04
   3 -11   8  -10.47   11.20
   3 -11   9   44.80   18.33
  -3  11  -9   26.51   15.08
  -3  11 -10   33.75   15.98
   3 -11  10    4.53   14.63
   3 -11  11  121.13   23.18
  -3  11 -11  117.11   20.02
  -3  10   4   22.15   14.83
  -3  10   3  139.14   24.24
  -3  10   2   -0.85   12.44
   3 -10  -2   15.94    8.62
  -3  10   1    4.12   13.46
   3 -10  -1   34.41   11.09
   3 -10   0   18.04    9.30
  -3  10   0    1.76   11.59
   3 -10   1   52.77   13.72
  -3  10  -1   93.11   19.20
  -3  10  -2  177.43   23.35
   3 -10   2  134.83   18.69
  -3  10  -3   11.27   10.06
   3 -10   3   19.05   12.63
  -3  10  -4  429.65   31.61
   3 -10   4  441.68   33.21
  -3  10  -5  139.45   18.81
   3 -10   5  106.24   18.58
   3 -10   6  251.69   25.87
  -3  10  -6  293.24   26.33
   3 -10   7  201.68   24.58
  -3  10  -7  210.53   23.53
  -3  10  -8   21.72   12.20
   3 -10   8    6.38   10.96
  -3  10  -9   13.48   10.88
   3 -10   9   -2.07   12.35
   3 -10  10    8.69   12.83
  -3  10 -10   11.45   10.54
   3 -10  11   28.15   14.51
  -3  10 -11   17.67   11.47
  -3  10 -12  151.30   21.78
   3 -10  12  141.68   21.77
   3  -9  -6   15.86   12.66
  -3   9   6   28.72   18.01
   3  -9  -5  182.45   21.89
  -3   9   5  191.32   27.27
   3  -9  -4    9.50    9.20
  -3   9   4   13.34   14.91
   3  -9  -3  168.84   18.71
   3  -9  -3  176.68   18.34
  -3   9   3  144.27   23.13
  -3   9   2   79.17   20.26
   3  -9  -2   64.79   11.46
   3  -9  -2   57.61   12.90
   3  -9  -1   17.93    6.34
  -3   9   1   36.21   12.14
   3  -9  -1   35.96   11.04
   3  -9   0  116.93   16.78
  -3   9   0  112.63   19.07
  -3   9  -1   28.37   13.34
   3  -9   1   19.50    9.30
  -3   9  -2   89.38   15.75
   3  -9   2  112.28   17.41
  -3   9  -3   75.38   15.47
   3  -9   3   62.59   15.41
  -3   9  -4  163.74   19.95
   3  -9   4  170.48   20.87
   3  -9   5  402.77   30.39
  -3   9  -5  387.27   27.87
  -3   9  -6   79.39   14.86
   3  -9   6   54.49   14.25
  -3   9  -7  269.84   22.88
   3  -9   7  295.64   27.23
   3  -9   8   16.54   12.19
  -3   9  -8    5.79    9.05
   3  -9   9   25.51   12.86
  -3   9  -9   60.42   13.56
  -3   9 -10    7.11    8.99
   3  -9  10   15.78   12.01
  -3   9 -11   85.66   16.91
   3  -9  11   51.85   13.12
   3  -9  12   34.01   11.81
  -3   9 -12   -3.56   10.58
  -3   8   7   54.58   19.01
   3  -8  -7   14.89   12.60
   3  -8  -6    2.84    9.97
  -3   8   6   -5.84   13.21
   3  -8  -5  200.15   22.03
  -3   8   5  217.84   26.79
  -3   8   4   28.54   14.31
   3  -8  -4   58.64   13.46
   3  -8  -4   38.55    9.34
  -3   8   3   65.19   15.69
   3  -8  -3   65.26   12.00
   3  -8  -3   63.02   10.58
   3  -8  -2  320.46   20.30
   3  -8  -2  381.37   23.27
  -3   8   2  382.85   32.12
  -3   8   1   15.49   12.96
   3  -8  -1   15.72    6.78
   3  -8  -1   13.73    7.28
  -3   8   0  178.05   23.18
   3  -8   0  204.57   12.83
   3  -8   0  218.89   19.71
  -3   8  -1   33.29   11.89
   3  -8   1   21.22    9.39
  -3   8  -2   10.15    8.24
   3  -8   2   -4.17    7.47
   3  -8   3   66.62   13.26
  -3   8  -3   54.72   12.60
  -3   8  -4    8.18    8.83
   3  -8   4    3.17    8.55
   3  -8   5  381.27   28.15
  -3   8  -5  348.49   23.59
  -3   8  -6  657.81   32.29
   3  -8   6  625.99   35.47
  -3   8  -7  197.42   19.55
   3  -8   7  169.68   19.14
  -3   8  -8   84.17   13.59
   3  -8   8   91.60   15.31
  -3   8  -9   14.40    9.69
   3  -8   9    5.54    9.95
  -3   8 -10   18.02   11.16
   3  -8  10    1.30    8.99
  -3   8 -11   45.82   14.24
   3  -8  11   29.31   12.05
  -3   8 -12   40.45   13.15
   3  -8  12   19.92    9.29
  -3   8 -13   99.19   18.22
   3  -7  -8   10.74   12.94
  -3   7   8   13.18   14.68
   3  -7  -7   -4.89   10.51
  -3   7   7    0.64   12.43
  -3   7   6   24.47   13.29
   3  -7  -6    2.03    8.72
   3  -7  -5    6.55    9.03
  -3   7   5   -2.38   11.86
   3  -7  -5   -8.52    5.56
   3  -7  -4  157.47   16.54
   3  -7  -4  171.08   13.86
   3  -7  -3   13.35    8.07
  -3   7   3    1.02   11.95
   3  -7  -3   12.41    6.85
   3  -7  -2  504.91   22.90
  -3   7   2  523.55   34.94
   3  -7  -2  536.39   25.16
  -3   7   1  289.91   25.72
   3  -7  -1  305.65   16.06
   3  -7  -1  294.22   19.30
   3  -7   0  128.15    9.42
   3  -7   0  153.40   15.32
  -3   7   0  144.01   18.34
  -3   7  -1  200.06   20.24
   3  -7   1  190.92   17.87
  -3   7  -2   42.82    9.42
   3  -7   2   61.26   11.47
   3  -7   3   10.41    7.32
  -3   7  -3   -3.05    7.92
   3  -7   4  265.75   21.88
  -3   7  -4  203.79   17.25
   3  -7   5    0.64    7.55
  -3   7  -5   -1.08    6.36
  -3   7  -6  375.99   22.67
   3  -7   6  370.28   25.37
  -3   7  -7  276.87   20.29
   3  -7   7  271.99   22.54
   3  -7   8   33.40   10.30
  -3   7  -8   30.67    9.33
  -3   7  -9   32.52    9.21
   3  -7   9   27.84    9.92
   3  -7  10   22.32    8.86
  -3   7 -10   16.30    9.53
   3  -7  11   10.53    8.19
  -3   7 -11   14.88   10.24
  -3   7 -12  118.27   17.70
   3  -7  12  125.88   15.31
   3  -6 -10    1.70   12.89
  -3   6  10  -12.82   17.27
  -3   6   9  125.30   23.36
   3  -6  -9  124.40   20.35
   3  -6  -8   49.90   14.30
  -3   6   8   58.32   16.41
  -3   6   7   14.13   12.35
   3  -6  -7   37.32   11.92
   3  -6  -6   77.93   13.13
  -3   6   6   66.46   17.83
   3  -6  -5   35.45    9.63
  -3   6   5   30.69   11.54
   3  -6  -5   36.29    6.89
  -3   6   4   79.86   16.97
   3  -6  -4  100.31   12.68
   3  -6  -4   85.99    9.96
   3  -6  -3   26.56    7.16
  -3   6   3    3.56   10.15
   3  -6  -3   20.98    6.36
  -3   6   2   44.98   13.10
   3  -6  -2   48.14    7.78
   3  -6  -2   50.24    8.04
   3  -6  -1  470.41   17.18
  -3   6   1  484.40   29.98
   3  -6  -1  451.36   22.36
   3  -6   0   25.12    4.10
  -3   6   0   24.58    9.64
   3  -6   0   17.15    6.29
  -3   6  -1  378.29   23.39
   3  -6   1  394.60   21.66
   3  -6   2   12.08    6.60
  -3   6  -2    6.29    7.04
  -3   6  -3  112.93   12.41
   3  -6   3   91.01   12.21
  -3   6  -4   14.66    6.59
   3  -6   4    4.80    5.92
  -3   6  -5  374.58   20.95
   3  -6   5  346.44   21.95
  -3   6  -6    7.99    6.92
   3  -6   6    2.76    6.19
  -3   6  -7 1238.80   23.62
  -3   6  -7 1281.67   40.68
   3  -6   7 1178.85   40.52
  -3   6  -8   55.37    7.28
   3  -6   8   50.23    9.82
  -3   6  -8   61.15   11.35
  -3   6  -9   33.68    7.40
   3  -6   9   46.62   10.33
  -3   6  -9   29.57    8.98
   3  -6  10   14.35    8.31
   3  -6  10   10.79    6.21
  -3   6 -10    7.91    5.41
   3  -6  11    7.57    8.39
   3  -6  11   -2.23    6.64
  -3   6 -11    3.38    6.76
   3  -6  12  137.52   18.05
   3  -6  12   96.70   12.57
   3  -6  13   89.91   17.98
   3  -5 -10   36.16   14.21
  -3   5  10   34.04   18.60
   3  -5  -9   47.58   12.66
  -3   5   9   83.63   19.58
   3  -5  -8  124.37   17.03
  -3   5   8   87.14   16.26
   3  -5  -7   13.21    9.04
  -3   5   7    3.48    9.34
  -3   5   6   24.65   11.46
   3  -5  -6   49.77   10.76
   3  -5  -6   49.38    6.79
  -3   5   5    6.54    8.68
   3  -5  -5   -0.54    5.83
   3  -5  -5    9.44    4.57
  -3   5   4   53.17   13.99
   3  -5  -4   49.23    9.16
   3  -5  -4   50.15    7.20
  -3   5   3  139.83   18.37
   3  -5  -3  130.21   10.89
   3  -5  -3  137.11   10.79
  -3   5   2  252.78   21.84
   3  -5  -2  238.89   12.80
   3  -5  -2  244.39   14.51
   3  -5  -1  191.24    9.64
   3  -5  -1  192.32   13.10
  -3   5   0  875.75   33.93
   3  -5   0  865.15   28.13
   3  -5   0  880.60   15.75
  -3   5  -1   26.90    7.75
   3  -5   1   45.01    8.08
   3  -5   2   36.19    6.76
  -3   5  -2   33.26    6.97
  -3   5  -3  328.45   18.17
   3  -5   3  358.43   19.22
   3  -5   4   11.78    5.39
  -3   5  -4    2.62    5.10
   3  -5   5 1278.00   36.74
  -3   5  -5 1303.02   36.87
  -3   5  -5 1347.31   18.08
  -3   5  -6  532.08   24.86
  -3   5  -6  488.33   14.70
   3  -5   6  482.15   22.94
  -3   5  -7  417.83   15.70
   3  -5   7  401.24   21.33
   3  -5   8  659.72   27.26
   3  -5   8  605.16   28.85
  -3   5  -9   27.79    6.50
   3  -5   9   31.28    9.94
   3  -5   9   28.47    7.12
  -3   5 -10  164.02   13.47
   3  -5  10  172.29   17.18
   3  -5  10  149.45   13.23
  -3   5 -11  105.65   12.10
   3  -5  11  102.55   14.98
   3  -5  11  108.23   11.68
  -3   5 -12   60.20   10.59
   3  -5  12  104.87   16.89
  -3   5 -13   70.76   12.65
   3  -5  13   65.18   14.44
   3  -4 -11   19.96   12.50
  -3   4  11    9.04   14.44
   3  -4 -10   35.92   13.47
  -3   4  10   27.01   12.76
   3  -4  -9  -16.03    8.94
  -3   4   9   10.45   11.55
   3  -4  -8   48.55   11.79
  -3   4   8   23.80   11.27
   3  -4  -7   34.14    9.56
  -3   4   7   31.64   11.92
  -3   4   6   92.29   14.61
   3  -4  -6   82.55   11.45
   3  -4  -6   81.99    7.62
  -3   4   5   52.46   10.91
   3  -4  -5   38.24    7.50
   3  -4  -5   32.28    5.52
  -3   4   4  810.72   37.31
   3  -4  -4  894.90   26.73
   3  -4  -4  804.68   22.51
   3  -4  -3   99.41    8.42
   3  -4  -3   91.55    8.33
   3  -4  -2  556.79   19.43
   3  -4  -2  535.44   16.87
  -3   4   2  592.89   29.80
   3  -4  -1  203.72    8.86
   3  -4  -1  189.42   11.89
  -3   4   1  201.16   16.91
   3  -4   0  369.87    9.01
  -3   4   0  365.13   20.40
   3  -4   1 1074.17   28.18
  -3   4  -1 1037.02   29.90
  -3   4  -2   40.14    6.97
   3  -4   2   33.25    6.20
  -3   4  -3   61.82    8.19
   3  -4   3   49.32    6.91
  -3   4  -4  109.25   10.62
  -3   4  -4  144.68    5.79
   3  -4   4  125.59   10.85
  -3   4  -5  638.85   14.90
  -3   4  -5  612.17   24.34
   3  -4   5  589.28   22.55
  -3   4  -6 1551.89   26.81
   3  -4   6 1486.49   37.98
   3  -4   6 1467.22   35.53
  -3   4  -7   35.25    5.65
   3  -4   7   31.02    7.66
   3  -4   7   20.40    5.67
   3  -4   8 1184.72   38.49
   3  -4   8 1214.16   32.65
  -3   4  -9  570.17   23.16
   3  -4   9  530.40   21.72
   3  -4  10  108.37   10.75
  -3   4 -10  120.45   12.46
   3  -4  10  107.47   14.35
  -3   4 -11  214.41   16.89
   3  -4  11  231.60   20.80
  -3   4 -12   58.75   11.62
   3  -4  12   52.66   12.45
  -3   4 -13  -10.58    8.91
   3  -4  13    6.04    9.72
   3  -3 -12    8.34   11.05
  -3   3  12   15.51   12.04
   3  -3 -11   32.45   13.50
  -3   3  11   52.36   16.69
   3  -3 -10   13.04    9.91
  -3   3  10  -22.43   13.60
   3  -3  -9  198.61   19.36
  -3   3   9  230.72   23.00
   3  -3  -8    3.34    8.35
  -3   3   8   12.14    8.41
   3  -3  -7  219.30   16.86
   3  -3  -7  209.40   11.13
  -3   3   7  199.50   19.74
   3  -3  -6   76.48    9.99
   3  -3  -6   76.79    7.28
  -3   3   5   10.41    7.78
   3  -3  -5    8.19    5.37
   3  -3  -5   12.25    3.58
   3  -3  -4  365.01   14.34
   3  -3  -4  378.76   16.90
  -3   3   4  359.21   23.03
  -3   3   3  119.40   14.21
   3  -3  -3  101.84    7.91
   3  -3  -3   94.99    7.62
   3  -3  -2  893.70   22.48
   3  -3  -2  892.53   19.02
   3  -3  -1 3551.28   32.44
  -3   3   1 3516.35   58.96
   3  -3  -1 3488.86   44.41
   3  -3   0  147.27    5.23
   3  -3   0  152.66    9.96
  -3   3   0  168.36   11.92
  -3   3  -1 2021.85   37.38
   3  -3   1 1989.74   34.30
   3  -3   1 1917.75   16.46
  -3   3  -2 1495.38   14.06
   3  -3   2 1451.21   30.04
  -3   3  -2 1503.86   31.75
  -3   3  -3   10.98    1.80
  -3   3  -3    6.52    3.41
  -3   3  -4  239.23    8.54
   3  -3   4  216.90   14.48
   3  -3   4  247.42   12.99
  -3   3  -5  189.54   10.12
   3  -3   5  213.67   12.26
  -3   3  -6 1394.67   28.44
   3  -3   6 1435.30   36.81
   3  -3   6 1415.28   31.16
  -3   3  -7  573.83   20.49
   3  -3   7  576.06   25.40
   3  -3   7  584.40   20.31
  -3   3  -8  643.18   24.19
   3  -3   8  598.35   27.97
   3  -3   8  592.48   20.49
  -3   3  -9 1104.10   33.62
   3  -3   9 1070.24   37.89
   3  -3   9 1039.62   27.44
   3  -3  10   24.71    9.26
  -3   3 -10   33.23    8.35
  -3   3 -11  205.45   18.18
   3  -3  11  221.73   20.77
  -3   3 -12   99.54   14.24
   3  -3  12  118.48   17.08
  -3   3 -13    3.41    9.11
   3  -3  13   -9.88   10.87
   3  -2 -13    2.10   11.83
  -3   2  13   34.86   15.85
   3  -2 -12   -2.85   10.79
  -3   2  12  -10.22   10.64
  -3   2  11   88.60   15.97
   3  -2 -11   69.85   13.93
   3  -2 -10  226.20   20.65
  -3   2  10  206.09   21.86
   3  -2  -9  125.70   14.97
  -3   2   9  135.64   17.52
  -3   2   8  207.84   12.69
   3  -2  -8  271.66   18.89
  -3   2   8  240.22   21.06
   3  -2  -7   52.48    8.87
  -3   2   7   36.52    5.99
  -3   2   7   34.05    9.30
   3  -2  -6  328.18   17.65
   3  -2  -6  342.46   14.03
  -3   2   6  357.75   22.21
   3  -2  -5  140.33    8.95
  -3   2   5  123.06   13.20
   3  -2  -5  126.49   10.51
  -3   2   4   22.18    8.29
   3  -2  -4   13.96    4.48
   3  -2  -4   15.16    3.96
   3  -2  -3   79.92    6.85
  -3   2   3   99.04   11.60
   3  -2  -3   87.91    7.13
   3  -2  -2  150.02    7.80
  -3   2   2  139.84   12.11
   3  -2  -2  162.32    9.39
   3  -2  -1 5163.74   37.68
   3  -2  -1 5220.65   50.26
  -3   2   0 1964.46   34.00
   3  -2   0 1977.48   22.42
   3  -2   0 1934.17   30.76
   3  -2   1 1935.37   31.16
  -3   2  -1 1864.66   32.31
   3  -2   1 1916.38   24.91
   3  -2   2 5912.55   45.66
   3  -2   2 5877.08   54.64
  -3   2  -2 5993.22   59.61
  -3   2  -3    3.40    2.51
   3  -2   3    2.20    3.18
   3  -2   3    5.15    3.02
  -3   2  -4  776.40   19.88
   3  -2   4  807.39   24.44
   3  -2   4  765.04   20.43
  -3   2  -5  972.69   24.79
   3  -2   5  979.21   28.70
   3  -2   5  997.95   23.46
  -3   2  -6  405.17   16.47
   3  -2   6  437.25   21.07
   3  -2   6  460.11   16.23
  -3   2  -7  154.48   11.60
   3  -2   7  150.33    9.97
   3  -2   7  161.91   14.03
  -3   2  -8  201.71   15.33
   3  -2   8  198.61   10.83
   3  -2   8  194.38   16.91
  -3   2  -9 1004.33   33.64
   3  -2   9  994.21   37.26
  -3   2 -10  392.82   23.29
   3  -2  10  341.46   24.58
  -3   2 -11  112.39   14.97
   3  -2  11  111.51   16.78
  -3   2 -12  262.95   22.24
   3  -2  12  239.61   24.87
   3  -1 -13   19.15   11.52
  -3   1  13   32.37   12.14
   3  -1 -12    4.31    9.41
  -3   1  12  -15.61   11.04
   3  -1 -11   43.15   11.75
  -3   1  11   35.79   11.15
   3  -1 -10  161.51   16.75
  -3   1  10  153.08   18.75
   3  -1  -9   -5.60    6.47
  -3   1   9   -4.49    7.39
   3  -1  -8 1271.59   37.02
  -3   1   8 1207.88   40.10
   3  -1  -7  829.73   27.85
  -3   1   7  821.77   31.88
   3  -1  -6  559.48   21.18
  -3   1   6  586.53   20.59
  -3   1   6  601.03   25.31
   3  -1  -5 1657.94   33.10
   3  -1  -5 1633.53   29.83
  -3   1   5 1617.76   39.74
  -3   1   4   68.63    8.70
   3  -1  -4   73.14    7.04
   3  -1  -4   77.87    6.75
   3  -1  -3    7.01    2.83
   3  -1  -3   11.23    3.34
  -3   1   3   16.34    5.57
   3  -1  -2  154.95    8.13
  -3   1   2  172.18   11.76
   3  -1  -2  163.28    9.14
   3  -1  -1 3334.35   33.55
   3  -1  -1 3335.75   39.33
  -3   1   1 3381.38   41.81
   3  -1   0 4384.66   44.66
  -3   1   0 4415.19   43.73
   3  -1   0 4321.97   40.97
   3  -1   1    4.62    2.81
  -3   1  -1    4.43    2.74
   3  -1   1    2.50    2.85
   3  -1   2 4337.83   49.73
   3  -1   2 4379.26   44.59
   3  -1   3 2242.60   38.24
   3  -1   3 2268.60   37.44
   3  -1   3 2172.75   32.24
  -3   1  -4   22.02    5.08
   3  -1   4   26.10    4.13
  -3   1  -5 1018.26   28.39
   3  -1   5  996.20   22.25
   3  -1   5  998.70   29.28
   3  -1   6   53.44    8.82
  -3   1  -6   30.82    5.92
   3  -1   6   42.80    5.28
   3  -1   7    9.62    6.31
  -3   1  -7    2.81    5.56
   3  -1   7    8.70    3.70
   3  -1   8    5.54    6.80
  -3   1  -8    2.71    5.39
  -3   1  -9  130.70   15.34
   3  -1   9  128.85   15.97
  -3   1 -10  414.14   25.48
   3  -1  10  325.19   25.77
   3  -1  11  -29.73   12.15
  -3   1 -11    4.12    8.48
  -3   1 -12  129.27   17.77
   3  -1  12  149.71   20.46
  -3   0  14   20.46   11.93
   3   0 -14   32.11   11.96
  -3   0  13   39.67   12.01
   3   0 -13    8.75    9.76
  -3   0  12   14.00   10.08
   3   0 -12   12.94    8.89
   3   0 -11   20.01    9.64
  -3   0  11    6.67    7.22
   3   0 -10   51.82   10.17
  -3   0  10   52.61   11.01
   3   0  -9   78.90   10.03
  -3   0   9   80.30   10.05
  -3   0   9   84.95   13.06
  -3   0   8 1036.00   30.70
   3   0  -8 1044.09   31.96
  -3   0   8 1084.81   34.96
   3   0  -7 1887.75   40.43
  -3   0   7 1795.88   37.82
  -3   0   7 1875.16   42.08
   3   0  -6    7.49    4.88
  -3   0   6    9.17    4.12
  -3   0   6   -0.19    3.88
   3   0  -5 2447.61   39.65
  -3   0   5 2435.08   41.36
  -3   0   5 2524.31   42.01
  -3   0   4 1166.09   27.53
   3   0  -4 1172.27   24.58
  -3   0   3  127.75    9.13
   3   0  -3  103.75    7.92
   3   0  -3  104.46    7.24
   3   0  -2 1543.48   28.03
  -3   0   2 1624.45   28.71
   3   0  -2 1555.85   25.48
   3   0  -1  765.62   18.82
   3   0  -1  758.14   18.41
  -3   0   1  764.34   16.66
   3   0   0 1206.04   23.62
   3   0   0 1167.86   25.21
   3   0   1  113.15    7.26
   3   0   1   98.64    6.62
   3   0   1  111.39    8.82
   3   0   2 3228.83   38.39
   3   0   2 3157.27   40.78
   3   0   2 3107.10   47.83
   3   0   3 4873.07   47.94
   3   0   3 4950.25   56.75
   3   0   3 4942.48   64.20
   3   0   4    2.26    3.95
  -3   0  -4    2.44    4.94
   3   0   4    7.41    3.28
  -3   0  -5 1638.46   40.77
   3   0   5 1767.86   28.51
   3   0   5 1672.03   39.48
  -3   0  -6  273.58   17.66
   3   0   6  274.85   11.66
   3   0   6  274.10   18.17
   3   0   7   17.58    7.06
  -3   0  -7   20.85    7.56
   3   0   8   -4.31    6.61
  -3   0  -8    5.47    7.36
   3   0   9   17.60   10.04
  -3   0  -9    8.43    8.32
   3   0  10   78.45   15.19
  -3   0 -10   62.64   13.32
  -3   0 -11   14.45   10.54
   3   0  11   14.95   11.42
  -3   0 -12   31.96   13.28
   3   0  12   47.03   15.89
   3   1 -14  141.34   20.27
  -3  -1  14  151.07   20.28
  -3  -1  13   18.50    9.60
   3   1 -13   -2.81    9.45
  -3  -1  12   80.50   13.58
   3   1 -12   66.11   12.47
   3   1 -11   43.50   11.22
  -3  -1  11   50.47   10.59
  -3  -1  10   -9.54    7.50
   3   1 -10    0.53    6.78
  -3  -1  10   13.68    6.56
   3   1  -9   29.19    8.45
  -3  -1   9   18.77    6.81
  -3  -1   9   19.96    6.32
  -3  -1   8  184.23   14.43
   3   1  -8  179.21   13.92
  -3  -1   8  191.95   13.35
  -3  -1   7 1641.66   38.87
   3   1  -7 1695.68   37.74
   3   1  -6 1217.98   29.88
  -3  -1   6 1196.35   31.29
  -3  -1   6 1131.27   27.28
  -3  -1   5 1774.68   36.60
   3   1  -5 1719.64   32.62
  -3  -1   5 1718.11   28.43
   3   1  -4 4470.44   49.58
  -3  -1   4 4343.31   55.32
  -3  -1   4 4327.59   40.40
  -3  -1   3  363.18   11.27
   3   1  -3  342.82   13.48
  -3  -1   3  333.61   15.45
   3   1  -2 1831.97   31.19
  -3  -1   2 1812.08   34.84
  -3  -1   2 1890.41   23.21
   3   1  -1   21.12    4.65
  -3  -1   1   18.02    2.56
   3   1   0  275.23   14.36
   3   1   0  256.86   11.99
   3   1   0  282.37    9.83
   3   1   1  374.41   18.06
   3   1   1  401.53   14.48
   3   1   1  429.14   13.96
   3   1   2   10.45    3.34
   3   1   2   12.42    4.24
   3   1   3 2104.34   31.97
   3   1   3 1980.67   38.79
   3   1   3 1992.88   46.04
  -3  -1  -4  534.87   24.98
   3   1   4  478.09   21.49
  -3  -1  -5  170.36   10.57
  -3  -1  -5  171.87   15.20
   3   1   5  162.52   13.89
  -3  -1  -6  469.17   25.30
  -3  -1  -6  433.75   15.75
   3   1   6  474.58   24.45
   3   1   7   11.07    8.30
  -3  -1  -7   -5.34    7.25
   3   1   8   32.21    9.84
  -3  -1  -8   30.14    9.72
   3   1   9   -6.77   10.09
  -3  -1  -9    8.49    8.31
   3   1  10   10.18   10.64
  -3  -1 -10   -5.15   11.05
   3   1  11   49.79   15.26
  -3  -1 -11   76.64   16.57
  -3  -2  15   17.27   10.41
   3   2 -15    5.77   11.04
   3   2 -14  243.41   23.33
  -3  -2  14  180.27   19.97
   3   2 -13  269.18   22.22
  -3  -2  13  195.85   20.00
   3   2 -12  144.80   16.32
  -3  -2  12  122.20   15.20
   3   2 -11  365.83   22.76
  -3  -2  11  322.74   21.42
  -3  -2  11  360.48   25.30
  -3  -2  10   26.09    7.97
  -3  -2  10   21.28    8.15
   3   2 -10   20.80    7.81
   3   2  -9   20.46    7.71
  -3  -2   9   14.67    5.54
  -3  -2   9   18.92    6.55
   3   2  -8    8.04    5.60
  -3  -2   8    7.80    4.05
  -3  -2   8    8.58    6.10
  -3  -2   7  377.48   20.30
   3   2  -7  400.06   18.52
  -3  -2   7  397.04   15.45
  -3  -2   6 1732.49   40.80
   3   2  -6 1694.75   35.27
  -3  -2   6 1734.61   27.53
   3   2  -5   94.54    8.70
  -3  -2   5   94.99    9.60
  -3  -2   5   86.24    5.23
   3   2  -4 4383.27   51.86
  -3  -2   4 4416.88   59.11
  -3  -2   4 4335.33   24.20
   3   2  -3 1235.66   27.34
  -3  -2   3 1287.58   31.35
   3   2  -2  189.79   11.33
  -3  -2   2  181.28    4.75
  -3  -2   2  181.41   11.89
   3   2  -1 1162.03   29.13
  -3  -2   1 1124.21   28.34
   3   2  -1 1170.45   16.81
   3   2   0   10.30    2.51
   3   2   0   16.66    6.18
  -3  -2   0    9.48    4.84
   3   2   1    6.58    4.89
   3   2   1    3.70    3.13
  -3  -2  -1   -0.79    3.97
  -3  -2  -2   49.59    7.05
   3   2   2   32.73    6.15
   3   2   2   46.58    9.01
  -3  -2  -3  120.28    9.95
   3   2   3  137.91   11.47
   3   2   3  129.06   14.89
  -3  -2  -4  679.07   21.35
   3   2   4  655.27   27.51
  -3  -2  -5   55.72    6.81
   3   2   5   56.08    9.56
  -3  -2  -5   62.15   11.28
  -3  -2  -6  324.83   24.47
   3   2   6  304.46   22.81
   3   2   7   27.46   10.04
  -3  -2  -7   13.40    9.13
  -3  -2  -8  110.80   15.91
   3   2   8  134.73   18.44
   3   2   9   17.44   10.66
  -3  -2  -9   12.86   10.09
   3   2  10   46.26   16.74
  -3  -2 -10   38.97   13.81
  -3  -3  15    0.85    8.70
   3   3 -15   26.95   13.25
  -3  -3  14   49.57   11.31
   3   3 -14   98.99   16.39
   3   3 -13  509.58   30.65
  -3  -3  13  480.76   27.00
   3   3 -12   -6.69    8.91
  -3  -3  12    3.33    6.07
  -3  -3  12   11.84    9.64
   3   3 -11  664.99   29.63
  -3  -3  11  631.30   25.72
  -3  -3  11  654.02   34.89
   3   3 -10  456.49   23.52
  -3  -3  10  442.09   27.51
  -3  -3  10  401.50   20.44
   3   3  -9   27.40    8.51
  -3  -3   9   33.37    6.89
  -3  -3   9   22.35    9.51
  -3  -3   8    9.51    3.86
   3   3  -8   15.92    6.73
  -3  -3   8   12.26    6.71
   3   3  -7  103.20   10.25
  -3  -3   7   99.03   11.95
  -3  -3   7   70.52    6.40
  -3  -3   6  774.53   29.31
  -3  -3   6  717.07   15.29
   3   3  -6  780.24   24.70
   3   3  -5  538.78   19.95
  -3  -3   5  499.46   22.85
  -3  -3   4  838.84   28.46
   3   3  -4  830.18   24.84
  -3  -3   3 2615.74   48.33
   3   3  -3 2600.92   43.86
  -3  -3   2  551.01   22.07
   3   3  -2  564.87   21.50
   3   3  -2  559.69    8.68
  -3  -3   1 1596.39   36.72
   3   3  -1 1585.68   22.66
   3   3  -1 1651.78   38.76
   3   3   0    5.20    5.89
   3   3   0    4.87    2.78
  -3  -3   0    6.91    4.38
  -3  -3  -1   92.33    9.37
   3   3   1   69.20   10.68
   3   3   1   92.76    8.57
   3   3   2   14.07    7.18
   3   3   2   19.40    5.14
  -3  -3  -2   21.77    5.60
   3   3   3  127.39   14.96
  -3  -3  -3  119.31   10.19
   3   3   3  113.02   12.62
   3   3   4  126.19   14.27
  -3  -3  -4  138.11   10.77
  -3  -3  -5  399.79   26.19
   3   3   5  361.67   24.07
   3   3   6   31.28   10.53
  -3  -3  -6   59.04   13.52
  -3  -3  -7   96.92   15.98
   3   3   7  118.01   17.67
   3   3   8    9.27   10.43
  -3  -3  -8   13.86   10.74
   3   3   9   -6.44   11.38
  -3  -3  -9    8.86   11.46
   3   3  10   -8.90   14.51
  -3  -3 -10   19.91   12.35
   3   4 -15   22.36   11.67
  -3  -4  15   35.56   11.50
   3   4 -14    6.57    8.07
  -3  -4  14   -3.35    7.84
   3   4 -13  217.01   20.02
  -3  -4  13  224.62   18.08
  -3  -4  13  231.97   25.85
   3   4 -12  234.39   19.93
  -3  -4  12  263.39   26.70
  -3  -4  12  241.70   16.93
   3   4 -11  304.90   19.90
  -3  -4  11  270.99   24.43
  -3  -4  11  262.64   16.58
   3   4 -10  933.77   33.21
  -3  -4  10  860.24   40.18
  -3  -4  10  833.98   25.81
  -3  -4   9   11.43    4.84
   3   4  -9   12.38    6.33
  -3  -4   9   11.51    8.31
   3   4  -8  307.68   17.68
  -3  -4   8  265.97   11.85
  -3  -4   8  274.08   20.55
  -3  -4   7   33.79    8.76
  -3  -4   7   25.49    3.61
   3   4  -7   25.92    7.34
   3   4  -6    4.94    4.35
  -3  -4   6    6.90    6.68
   3   4  -5  438.77   19.58
  -3  -4   5  411.29   22.66
  -3  -4   4   34.35    7.26
   3   4  -4   44.69    7.32
  -3  -4   3 2176.97   48.96
   3   4  -3 2288.46   44.52
   3   4  -2  992.77   16.94
   3   4  -2  977.71   30.74
  -3  -4   2  953.25   31.70
  -3  -4   1  155.07   13.40
   3   4  -1  155.50   13.73
   3   4  -1  143.22    8.92
  -3  -4   0  413.86   21.18
   3   4   0  458.08   17.96
   3   4   0  429.43   24.02
  -3  -4  -1   22.00    6.22
   3   4   1   23.00    5.95
   3   4   1   33.88    9.18
   3   4   2    7.17    8.35
   3   4   2    8.38    5.89
  -3  -4  -2    5.04    5.79
  -3  -4  -3  155.62   12.59
   3   4   3  156.96   16.18
   3   4   3  146.26   19.16
  -3  -4  -4  138.66   18.20
   3   4   4  139.51   16.25
  -3  -4  -4  104.46   10.23
   3   4   5   34.05   10.78
  -3  -4  -5   35.57   12.13
   3   4   6   36.70   11.96
  -3  -4  -6   36.64   12.13
  -3  -4  -7   16.94   11.71
   3   4   7    6.13   11.84
   3   4   8   40.45   15.36
  -3  -4  -8   20.10   12.79
   3   4   9    0.97   12.72
  -3  -4  -9    0.88   11.35
   3   5 -15   14.18   10.06
   3   5 -14    3.31    9.14
  -3  -5  13   34.40   12.88
   3   5 -13   60.05   12.32
  -3  -5  13   35.54    7.63
   3   5 -12  602.69   29.72
  -3  -5  12  677.40   44.59
  -3  -5  11  -16.12    6.18
  -3  -5  11   -1.42    9.87
  -3  -5  10 1098.21   48.34
  -3  -5  10 1094.78   27.66
   3   5 -10 1200.17   38.24
   3   5  -9  723.78   29.21
  -3  -5   9  654.04   18.84
  -3  -5   9  698.21   36.68
   3   5  -8   70.05    9.94
  -3  -5   8   71.22   13.07
   3   5  -7  248.61   16.71
  -3  -5   7  223.83   19.52
   3   5  -6  147.16   12.75
  -3  -5   6  140.51   15.29
   3   5  -5  129.17   12.33
  -3  -5   5  108.48   13.52
  -3  -5   4  225.73   17.94
   3   5  -4  243.73   15.89
   3   5  -3    3.87    5.29
  -3  -5   3   -3.32    6.43
  -3  -5   2  406.93   22.89
   3   5  -2  398.71   15.29
   3   5  -2  450.40   23.25
  -3  -5   1  121.54   13.10
   3   5  -1  133.95   10.42
   3   5  -1  123.58   14.35
   3   5   0  348.67   22.01
  -3  -5   0  356.03   21.61
   3   5   0  374.30   18.97
   3   5   1   47.41   11.59
  -3  -5  -1   40.04    9.15
   3   5   1   35.00    8.25
   3   5   2   49.50   13.38
  -3  -5  -2   57.48    9.17
   3   5   2   44.94    8.68
   3   5   3   25.40   12.45
  -3  -5  -3   32.80    8.17
   3   5   3   29.82   10.34
  -3  -5  -4  284.53   25.12
   3   5   4  223.48   22.16
   3   5   5   50.45   13.79
  -3  -5  -5   69.64   14.99
  -3  -5  -6  247.17   26.10
   3   5   6  242.74   26.89
   3   5   7   24.73   12.57
  -3  -5  -7   -8.51   12.72
   3   5   8   -2.96   12.65
  -3  -5  -8    0.07   12.36
   3   6 -15   18.39   12.56
  -3  -6  14   10.04   13.08
   3   6 -14    7.80   10.83
  -3  -6  13    2.72   11.44
   3   6 -13   20.99   10.67
  -3  -6  12   52.12   14.72
   3   6 -12   62.99   12.46
   3   6 -11  118.27   14.72
  -3  -6  11  127.92   22.03
   3   6 -10  212.83   17.62
  -3  -6  10  171.40   21.36
   3   6  -9  716.05   30.27
  -3  -6   9  682.90   37.81
   3   6  -8   -2.42    6.87
  -3  -6   8   -2.50    8.98
  -3  -6   7  416.92   27.58
   3   6  -7  453.90   23.54
   3   6  -6   37.35    8.06
  -3  -6   6   16.42    9.50
   3   6  -5  108.98   12.42
  -3  -6   5   87.21   13.57
  -3  -6   4   80.99   12.78
   3   6  -4   78.69   11.32
   3   6  -3  732.76   30.06
  -3  -6   3  672.54   31.13
   3   6  -2   22.26    7.74
  -3  -6   2   22.22    8.85
   3   6  -2    9.67    4.92
  -3  -6   1  389.93   24.25
   3   6  -1  370.04   24.13
   3   6   0   -1.16    7.98
  -3  -6   0   13.02    7.61
   3   6   0    1.14    5.48
   3   6   1   88.63   15.23
   3   6   1   79.21   12.18
  -3  -6  -1   79.99   12.26
   3   6   2    6.76    9.90
  -3  -6  -2    9.99    7.55
   3   6   2   -6.26    7.81
  -3  -6  -3   -4.80    7.58
   3   6   3  -14.60    8.45
   3   6   3   13.36    9.88
   3   6   4  101.20   17.66
  -3  -6  -4  122.68   18.52
   3   6   5   57.01   16.71
  -3  -6  -5  102.98   18.32
   3   6   6   61.85   16.91
  -3  -6  -6  107.50   19.08
   3   6   7   98.24   21.52
  -3  -6  -7   97.11   20.26
  -3  -7  14   47.40   15.74
   3   7 -14   30.54   11.73
  -3  -7  13  -15.47   14.48
   3   7 -13   14.05   10.70
  -3  -7  12   20.48   14.22
   3   7 -12   33.35   11.40
   3   7 -11  163.33   18.00
  -3  -7  11  166.16   25.26
   3   7 -10  147.44   16.51
  -3  -7  10  125.80   20.82
   3   7  -9  152.21   15.87
  -3  -7   9  137.22   20.49
   3   7  -8  168.06   16.00
  -3  -7   8  152.62   20.21
   3   7  -7   32.41    8.73
  -3  -7   7   19.91   11.09
   3   7  -6  235.11   18.06
  -3  -7   6  268.00   24.06
  -3  -7   5  458.74   30.19
   3   7  -5  454.87   25.25
   3   7  -4    1.16    6.78
  -3  -7   4   12.52    9.23
   3   7  -3  551.21   29.57
  -3  -7   3  518.69   31.22
   3   7  -2  511.63   29.81
   3   7  -2  557.02   25.90
  -3  -7   2  512.55   30.48
  -3  -7   1   48.26   11.86
   3   7  -1   44.52   10.17
   3   7  -1   38.91   10.11
   3   7   0  275.79   23.51
  -3  -7   0  228.59   21.28
   3   7   0  218.49   22.21
   3   7   1   31.27   12.47
  -3  -7  -1   20.60    9.18
   3   7   1   12.76    9.06
  -3  -7  -2    4.53    7.84
   3   7   2   26.81   12.23
   3   7   2    2.13    9.78
   3   7   3   10.68   10.51
   3   7   4    9.52   11.01
  -3  -7  -4   14.14   12.39
   3   7   5   28.71   14.32
  -3  -7  -5   31.18   14.07
  -3  -8  14   92.10   19.05
   3   8 -14  107.12   16.45
  -3  -8  13   25.12   12.67
   3   8 -13   25.99   11.55
   3   8 -12  152.03   17.86
  -3  -8  12  164.30   24.76
   3   8 -11  -13.79   10.61
  -3  -8  11  -18.79   15.58
   3   8 -10  403.73   26.31
  -3  -8  10  418.24   38.23
   3   8  -9  133.14   16.36
  -3  -8   9  128.99   22.37
  -3  -8   8  134.11   22.27
   3   8  -8  144.82   15.67
   3   8  -7   68.14   12.38
  -3  -8   7   57.83   14.78
   3   8  -6   33.53   10.31
  -3  -8   6   28.85   13.00
   3   8  -5   13.72    7.87
  -3  -8   5   22.12   11.68
   3   8  -4   21.43   10.24
  -3  -8   4   14.18    9.56
   3   8  -3   91.35   14.09
  -3  -8   3   55.60   13.53
   3   8  -2  516.18   28.35
  -3  -8   2  594.57   36.42
   3   8  -1   17.33   11.22
  -3  -8   1   25.89   11.76
   3   8  -1    5.15    6.94
   3   8   0  516.63   31.76
  -3  -8   0  470.80   31.14
   3   8   1  217.95   22.27
  -3  -8  -1  155.76   18.18
   3   8   1  234.98   25.93
   3   8   2    9.90   12.86
   3   8   2   -2.23   11.27
   3   8   3   37.90   14.69
  -3  -8  -3   38.91   13.51
   3   8   4   -7.03   11.92
  -3  -8  -4   20.18   12.88
  -3  -9  13   23.18   13.69
   3   9 -13   48.06   13.14
  -3  -9  12    3.55   13.74
   3   9 -12   40.82   13.57
   3   9 -11  130.77   18.80
  -3  -9  11   98.09   19.80
   3   9 -10  179.53   19.62
  -3  -9  10  148.61   22.99
   3   9  -9  741.04   35.89
  -3  -9   9  676.91   45.09
   3   9  -8   33.59   11.36
  -3  -9   8   59.55   16.05
  -3  -9   7  181.68   24.68
   3   9  -7  210.60   20.71
  -3  -9   6  245.93   28.87
   3   9  -6  252.74   21.98
   3   9  -5   -3.04    8.80
  -3  -9   5    7.09   15.29
   3   9  -4   97.35   16.01
  -3  -9   4  114.45   18.69
   3   9  -3    0.10    8.43
  -3  -9   3   14.26    9.20
  -3  -9   2  261.49   26.68
   3   9  -2  295.10   26.72
   3   9  -1  230.21   25.66
  -3  -9   1  182.75   21.59
   3   9   0  112.35   20.11
  -3  -9   0   60.32   12.77
   3   9   1  426.72   34.43
  -3 -10  12    1.79   13.03
   3  10 -12   -6.73   11.01
   3  10 -11  134.80   18.85
  -3 -10  11  127.31   21.94
   3  10 -10    0.50    9.52
  -3 -10  10   24.90   13.94
   3  10  -9  467.56   31.53
  -3 -10   9  418.80   35.17
   3  10  -8  302.05   25.06
  -3 -10   8  293.26   29.20
  -3 -10   7  167.80   23.60
   3  10  -7  166.19   19.95
  -3 -10   6  474.30   37.41
   3  10  -6  532.28   33.88
   3  10  -5   34.68   12.66
  -3 -10   5   25.85   12.76
   3  10  -4    2.46    8.70
  -3 -10   4  -16.25   11.90
   3  10  -3   34.71   12.83
  -3 -10   3   22.34   12.06
   3  10  -2   14.96   11.95
  -3 -10   2   39.75   13.88
   3  10  -1  111.51   20.26
  -3 -10   1   88.07   16.30
   3  10   0   -2.72   13.99
   3  11 -10   62.17   15.58
  -3 -11  10   20.69   13.48
  -3 -11   9  138.76   21.21
   3  11  -9  176.27   22.01
  -3 -11   8  374.19   33.46
   3  11  -8  455.80   33.25
   3  11  -7    4.58   10.84
  -3 -11   7    4.76   11.79
  -3 -11   6  270.62   28.88
   3  11  -6  339.90   30.15
   3  11  -5  218.75   23.54
  -3 -11   5  225.39   25.60
   3  11  -4  -17.82   11.54
  -3 -11   4  -11.56   11.09
   3  11  -3   48.64   14.90
  -3 -11   3   24.06   12.54
  -4  12  -1   -6.80   13.67
   4 -12   1   19.33   14.82
  -4  12  -2    4.91   14.26
   4 -12   2    3.60   12.27
  -4  12  -3   43.36   17.89
   4 -12   3   44.11   17.03
  -4  12  -4    9.29   16.92
   4 -12   4   24.88   15.32
  -4  12  -5  206.48   28.97
   4 -12   5  131.97   24.02
  -4  12  -6  142.99   23.44
   4 -12   6  130.34   23.60
   4 -12   7   21.54   13.43
  -4  12  -7   62.73   20.21
  -4  11   2   47.90   18.09
  -4  11   1   53.29   18.25
   4 -11  -1   30.55   13.24
  -4  11   0   23.53   17.75
   4 -11   0   10.19   11.24
  -4  11  -1   16.27   15.40
   4 -11   1   17.66   11.92
  -4  11  -2   10.20   15.27
   4 -11   2   12.70   11.20
  -4  11  -3   69.18   17.75
   4 -11   3   36.44   14.82
  -4  11  -4   54.18   15.79
   4 -11   4   57.72   16.66
  -4  11  -5  266.43   27.32
   4 -11   5  259.69   28.78
  -4  11  -6  447.57   34.70
   4 -11   6  310.95   31.83
  -4  11  -7   34.01   14.21
   4 -11   7   23.10   16.89
   4 -11   8  212.48   27.42
  -4  11  -8  266.46   27.14
   4 -11   9  189.46   25.27
  -4  11  -9  212.28   24.67
  -4  10   4   39.14   15.40
  -4  10   3   52.56   18.11
   4 -10  -3  -32.31   11.57
  -4  10   2   35.81   16.71
   4 -10  -2   61.77   14.14
  -4  10   1  138.86   24.92
   4 -10  -1  238.99   23.06
  -4  10   0   -6.34   13.58
   4 -10   0  -15.20   10.98
   4 -10   1   69.49   14.37
  -4  10  -1   75.23   19.32
  -4  10  -2   43.56   15.71
   4 -10   2   67.04   15.42
  -4  10  -3   25.09   12.21
   4 -10   3    7.51   10.59
  -4  10  -4    7.73   13.18
   4 -10   4    8.06   12.57
   4 -10   5  115.74   18.90
  -4  10  -5  120.94   19.87
   4 -10   6  269.34   27.56
  -4  10  -6  364.38   30.24
  -4  10  -7  178.12   22.25
   4 -10   7  122.88   19.83
  -4  10  -8  320.65   28.40
   4 -10   8  310.15   29.94
  -4  10  -9  700.79   41.89
   4 -10   9  673.56   42.53
  -4  10 -10   51.98   15.44
   4 -10  10   27.95   14.11
   4 -10  11   55.60   16.63
  -4  10 -11   58.58   16.33
  -4   9   6    5.67   13.08
  -4   9   5   12.38   15.26
  -4   9   4    6.13   14.43
  -4   9   3   90.76   19.77
   4  -9  -3   44.31   11.80
  -4   9   2   22.99   14.15
   4  -9  -2   28.88    9.84
  -4   9   1  583.05   40.84
   4  -9  -1  524.80   31.20
  -4   9   0  263.75   28.57
   4  -9   0  264.41   24.53
  -4   9  -1   43.69   15.19
   4  -9   1    9.27    9.89
  -4   9  -2  457.15   33.27
   4  -9   2  496.01   32.74
  -4   9  -3  145.87   20.11
   4  -9   3  160.81   20.08
   4  -9   4    4.98    9.98
  -4   9  -4   15.00    9.19
  -4   9  -5    3.25    9.62
   4  -9   5    8.84    9.25
  -4   9  -6  243.44   22.77
   4  -9   6  244.06   24.76
  -4   9  -7  545.71   33.58
   4  -9   7  479.12   33.60
  -4   9  -8    3.75   10.38
   4  -9   8   -8.80   10.67
  -4   9  -9  608.07   37.03
   4  -9   9  661.59   39.50
  -4   9 -10  273.64   26.19
   4  -9  10  263.05   26.16
  -4   9 -11   27.18   11.54
   4  -9  11   37.39   14.48
   4  -8  -7   20.16   11.68
  -4   8   7    6.29   13.68
  -4   8   6   -9.67   12.19
   4  -8  -6    0.77    9.69
  -4   8   5   35.00   13.25
   4  -8  -5   29.34   10.15
   4  -8  -4    7.27    8.35
   4  -8  -4   -3.44    6.42
   4  -8  -3   61.90   10.42
  -4   8   3   54.34   15.93
   4  -8  -3   71.44   11.70
  -4   8   2   28.79   14.38
   4  -8  -2   15.09    8.15
  -4   8   1  273.22   28.42
   4  -8  -1  333.21   23.13
  -4   8   0  550.92   36.83
   4  -8   0  593.74   31.31
  -4   8  -1   -3.24   11.25
   4  -8   1   11.23    8.67
  -4   8  -2 1073.23   45.92
   4  -8   2 1213.01   46.19
   4  -8   3  460.46   29.80
  -4   8  -3  481.18   30.23
  -4   8  -4    8.52    9.05
   4  -8   4   14.87    9.99
  -4   8  -5   35.20   10.60
   4  -8   5   33.19   10.19
  -4   8  -6  163.08   18.56
   4  -8   6  140.93   18.23
  -4   8  -7  176.87   20.10
   4  -8   7  196.32   21.18
   4  -8   8   80.39   15.20
  -4   8  -8   85.85   13.94
   4  -8   9  207.48   21.56
  -4   8  -9  152.53   18.64
   4  -8  10  442.97   30.04
  -4   8 -10  520.97   33.99
  -4   8 -11   21.13   12.25
   4  -8  11   -5.79    9.16
  -4   8 -12   84.33   16.93
   4  -8  12   78.87   14.63
   4  -7  -8   24.18   13.96
  -4   7   8   28.92   14.92
   4  -7  -7  195.43   22.39
  -4   7   7  157.10   26.70
  -4   7   6    4.17   12.81
   4  -7  -6   22.45   11.87
  -4   7   5   71.72   18.06
   4  -7  -5   84.46   13.43
   4  -7  -5   77.28   10.32
   4  -7  -4   93.35   12.28
  -4   7   4   78.36   17.83
   4  -7  -4   84.52   11.24
   4  -7  -3   48.24    8.81
  -4   7   3   66.30   16.61
   4  -7  -3   61.88    9.94
   4  -7  -2   70.11    9.03
   4  -7  -2   79.70   11.50
  -4   7   2  101.10   16.86
  -4   7   1   18.29    9.47
   4  -7  -1   10.54    6.98
  -4   7   0  877.16   41.14
   4  -7   0  875.20   34.84
  -4   7  -1  328.71   25.28
   4  -7   1  297.03   21.24
   4  -7   2  312.40   22.40
  -4   7  -2  286.92   22.64
   4  -7   3 1091.17   40.89
  -4   7  -3 1108.73   41.20
   4  -7   4  118.29   15.61
  -4   7  -4  128.78   14.99
  -4   7  -5  111.08   14.13
   4  -7   5  117.81   15.29
  -4   7  -6   64.45   11.80
   4  -7   6   61.66   11.86
  -4   7  -7   18.83    9.20
   4  -7   7   24.04    9.36
   4  -7   8  165.63   17.99
  -4   7  -8  178.57   18.09
  -4   7  -9    7.76    8.55
   4  -7   9   -8.29    9.34
  -4   7 -10  339.90   26.45
   4  -7  10  365.09   24.89
  -4   7 -11  219.81   25.07
   4  -7  11  202.48   19.32
  -4   7 -12   44.22   13.85
   4  -6  -9   85.15   18.15
  -4   6   9   77.17   20.21
   4  -6  -8    6.16   10.33
  -4   6   8  -10.12   13.31
   4  -6  -7  290.62   23.82
  -4   6   7  223.02   26.77
  -4   6   6  129.34   20.77
   4  -6  -6  104.57   15.59
   4  -6  -6   84.45   10.31
  -4   6   5   61.45   14.57
   4  -6  -5   24.47    8.15
   4  -6  -5   57.81    9.33
  -4   6   4  296.01   28.01
   4  -6  -4  335.73   20.15
   4  -6  -4  309.31   18.36
   4  -6  -3   61.21    9.77
  -4   6   3   55.04   14.96
   4  -6  -2   -3.43    3.72
   4  -6  -2   -2.00    5.52
  -4   6   2    5.25    9.25
  -4   6   1   21.83    9.65
   4  -6  -1   18.14    4.24
   4  -6  -1   10.93    6.53
  -4   6   0  326.56   24.17
   4  -6   0  333.00   20.00
   4  -6   1  557.81   25.89
  -4   6  -1  546.14   28.93
  -4   6  -2   56.42   10.66
   4  -6   2   47.32    9.52
  -4   6  -3 1580.43   44.56
   4  -6   3 1641.47   45.05
  -4   6  -4  649.80   29.01
   4  -6   4  647.91   29.33
  -4   6  -5   80.47   11.77
   4  -6   5  100.61   12.21
  -4   6  -6  101.27   13.09
   4  -6   6   56.84    9.80
   4  -6   7   35.18    8.96
  -4   6  -7   25.40    9.42
  -4   6  -8   10.24    8.96
   4  -6   8    7.31    6.77
  -4   6  -9  130.70   17.10
   4  -6   9  100.12   13.15
  -4   6 -10    2.85    8.85
   4  -6  10   22.43    8.40
   4  -6  11   46.36    9.17
   4  -6  12   -2.50    9.28
   4  -5 -10   23.10   13.47
  -4   5  10   27.86   15.12
   4  -5  -9   48.39   13.78
  -4   5   9   62.25   18.10
   4  -5  -8   29.72   10.59
  -4   5   8   18.53   11.46
   4  -5  -7  134.53   16.44
  -4   5   7  120.51   19.52
   4  -5  -6  603.87   29.62
  -4   5   6  577.17   36.93
  -4   5   5   35.81   14.22
   4  -5  -5   38.09    9.52
   4  -5  -5   32.23    6.98
  -4   5   4  681.44   39.02
   4  -5  -4  593.40   23.30
   4  -5  -4  681.51   25.41
   4  -5  -3  407.18   17.79
  -4   5   3  388.60   28.90
   4  -5  -3  358.29   18.65
  -4   5   2   10.03   10.11
   4  -5  -2    6.93    3.87
   4  -5  -2    3.36    4.69
   4  -5  -1    3.39    2.25
  -4   5   1    4.65    7.74
   4  -5  -1   -0.54    4.71
  -4   5   0   12.69    6.86
   4  -5   0    7.66    5.28
   4  -5   1  509.45   22.92
  -4   5  -1  508.31   25.60
  -4   5  -2  511.24   24.27
   4  -5   2  516.93   23.25
  -4   5  -3  272.90   18.46
   4  -5   3  318.12   18.48
  -4   5  -4 1090.38   34.51
   4  -5   4 1061.92   34.10
   4  -5   5   58.82   10.08
  -4   5  -5   56.18    9.64
  -4   5  -6  257.81   18.52
   4  -5   6  228.75   16.49
  -4   5  -7  150.28    9.52
  -4   5  -7  119.52   14.78
   4  -5   7  117.94   12.14
  -4   5  -8    7.26    4.68
   4  -5   8   10.37    6.24
  -4   5  -9  111.30   11.44
   4  -5   9   88.33   13.81
   4  -5   9  106.40   11.69
  -4   5 -10  165.97   14.06
   4  -5  10  181.18   18.84
   4  -5  10  153.80   14.03
   4  -5  11   17.20   12.13
   4  -5  12   92.39   15.87
   4  -4 -11    9.97   11.53
  -4   4  11    8.71   12.91
   4  -4 -10   28.50   11.52
  -4   4  10   85.36   19.22
   4  -4  -9    3.29    9.30
  -4   4   9   16.68   12.65
   4  -4  -8   81.61   13.95
  -4   4   8   68.60   15.85
  -4   4   7   25.40   11.05
   4  -4  -7   30.65   10.79
   4  -4  -7   -3.09    4.52
  -4   4   6  389.50   28.91
   4  -4  -6  449.16   23.16
   4  -4  -6  377.08   17.80
  -4   4   5  311.60   25.15
   4  -4  -5  293.74   17.64
   4  -4  -5  270.78   15.04
  -4   4   4  452.14   30.33
   4  -4  -4  442.80   19.31
   4  -4  -4  437.18   18.69
  -4   4   3  984.05   41.79
   4  -4  -3  911.53   26.67
   4  -4  -3 1001.61   25.31
   4  -4  -2  121.69    7.96
  -4   4   2  133.68   16.23
   4  -4  -2  119.97   10.78
  -4   4   1  143.94   14.60
   4  -4  -1  150.64   11.51
   4  -4  -1  132.67    7.00
   4  -4   0   -0.43    1.62
   4  -4   0   -2.07    4.42
  -4   4   0    2.48    5.34
   4  -4   1  112.84   10.42
  -4   4  -1  122.36   11.77
  -4   4  -2  376.93   19.89
   4  -4   2  404.89   18.93
   4  -4   3  502.09   20.88
  -4   4  -3  505.92   21.98
   4  -4   4  165.60   12.77
  -4   4  -4  174.31    6.96
  -4   4  -4  191.83   14.01
  -4   4  -5  290.06   19.15
  -4   4  -5  311.16   11.31
   4  -4   5  308.30   16.76
  -4   4  -6   77.37    7.08
   4  -4   6   76.74    9.43
  -4   4  -7  144.97   10.28
   4  -4   7  132.26   14.60
   4  -4   7  119.26   11.50
  -4   4  -8  104.97   10.22
   4  -4   8   96.05   13.02
   4  -4   8  108.19   11.19
  -4   4  -9   13.90    6.14
   4  -4   9    4.38    4.52
   4  -4   9   13.60    9.07
  -4   4 -10  169.63   14.52
   4  -4  10  174.57   18.28
   4  -4  10  126.35   11.45
  -4   4 -11   69.44   11.04
   4  -4  11   56.23   13.37
  -4   4 -12   60.22   12.44
   4  -4  12   68.51   16.52
   4  -3 -12   51.46   15.84
  -4   3  12   55.93   19.37
   4  -3 -11   44.24   13.70
  -4   3  11   39.54   13.60
   4  -3 -10  126.14   16.95
  -4   3  10  171.91   22.18
   4  -3  -9   38.61   10.84
  -4   3   9   24.40   10.51
   4  -3  -8   20.39    8.69
  -4   3   8   17.05    6.32
  -4   3   8   24.65   10.18
  -4   3   7   22.58    9.87
   4  -3  -7   11.69    5.62
   4  -3  -7   22.71    5.18
  -4   3   6   80.44   13.26
   4  -3  -6  105.35   12.03
   4  -3  -6   88.58    9.04
   4  -3  -5  565.76   22.36
   4  -3  -5  580.56   20.95
  -4   3   5  592.38   31.57
   4  -3  -4   64.28    7.80
   4  -3  -4   59.98    7.38
  -4   3   4   66.47   12.71
   4  -3  -3  716.86   20.85
  -4   3   3  666.10   32.82
   4  -3  -3  709.61   22.16
   4  -3  -2  478.02   14.71
  -4   3   2  474.51   25.72
   4  -3  -2  436.34   17.44
   4  -3  -1  255.18   13.27
   4  -3  -1  254.86    9.81
  -4   3   1  246.79   17.80
   4  -3   0  245.82    9.02
   4  -3   0  239.07   13.45
  -4   3   0  254.31   15.41
   4  -3   1   54.48    4.95
  -4   3  -1   49.01    7.23
   4  -3   1   59.15    7.44
  -4   3  -2   22.87    5.82
   4  -3   2   28.51    5.51
   4  -3   2   27.61    3.76
  -4   3  -3 1503.15   24.26
   4  -3   3 1475.89   33.13
  -4   3  -4   67.97    5.92
  -4   3  -4   83.72    9.98
   4  -3   4   74.11    8.19
  -4   3  -5  320.32   13.82
   4  -3   5  328.29   18.60
   4  -3   5  314.47   15.75
  -4   3  -6  111.87    8.41
   4  -3   6  102.35   12.31
   4  -3   6  115.04   10.12
  -4   3  -7   16.47    5.19
   4  -3   7   19.37    5.62
   4  -3   7   11.20    7.33
  -4   3  -8   21.21    6.16
   4  -3   8   33.81    6.46
   4  -3   8   34.54    9.77
  -4   3  -9   32.42    8.37
   4  -3   9   21.28    5.84
   4  -3   9   10.80    8.02
  -4   3 -10   17.21    8.38
   4  -3  10    7.38    8.54
  -4   3 -11  162.98   17.36
   4  -3  11  169.23   19.65
  -4   3 -12   13.24   10.67
   4  -3  12  -16.75   11.76
   4  -2 -13   25.31   13.30
  -4   2  13    3.95   11.41
   4  -2 -12  113.13   18.32
  -4   2  12  115.53   20.70
   4  -2 -11    3.14    9.87
  -4   2  11   -1.43   11.51
   4  -2 -10  165.91   19.48
  -4   2  10  132.99   17.89
  -4   2   9   81.00   10.36
   4  -2  -9   79.18   12.55
  -4   2   9   99.03   14.97
  -4   2   8   70.49    9.42
   4  -2  -8   62.48   10.61
  -4   2   8   64.68   12.16
   4  -2  -7   22.48    7.27
  -4   2   7   24.13    9.03
  -4   2   6   16.73    8.61
   4  -2  -6   14.34    5.85
   4  -2  -6   12.83    5.18
  -4   2   5  146.62   14.95
   4  -2  -5  140.75   10.80
   4  -2  -5  152.19   10.72
  -4   2   4  905.39   35.38
   4  -2  -4  969.68   26.02
   4  -2  -4  958.75   25.67
   4  -2  -3  151.50    9.44
   4  -2  -3  180.17   11.37
  -4   2   3  174.08   15.99
   4  -2  -2  628.39   16.96
  -4   2   2  674.32   27.18
   4  -2  -2  619.81   20.21
   4  -2  -1    9.15    2.70
   4  -2  -1   10.14    4.00
  -4   2   1   15.53    5.91
  -4   2   0  672.40   22.32
   4  -2   0  704.51   17.84
   4  -2   0  699.04   20.93
   4  -2   1    9.16    2.84
  -4   2  -1    7.79    4.00
   4  -2   1   14.94    3.75
  -4   2  -2  149.17   10.74
   4  -2   2  133.84    9.68
   4  -2   2  138.87    9.63
   4  -2   3  251.20   15.22
   4  -2   3  263.95   13.09
   4  -2   3  296.70   13.85
   4  -2   4  689.27   24.56
   4  -2   4  672.50   21.07
  -4   2  -5    6.93    4.43
   4  -2   5   13.29    4.92
   4  -2   5    6.87    5.73
  -4   2  -6  495.66   21.50
   4  -2   6  526.04   24.95
   4  -2   6  519.86   18.98
  -4   2  -7  205.25   14.80
   4  -2   7  237.64   13.24
   4  -2   7  238.17   17.74
  -4   2  -8    2.75    5.81
   4  -2   8    3.17    4.22
   4  -2   8    5.71    6.99
  -4   2  -9   30.93    8.58
   4  -2   9   37.48   10.95
  -4   2 -10   -9.04    8.08
   4  -2  10   11.98   10.55
  -4   2 -11  166.69   17.70
   4  -2  11  143.78   20.16
  -4   2 -12  100.81   15.62
   4  -2  12   78.03   16.14
   4  -1 -13   26.43   13.19
  -4   1  13   -2.24   10.51
   4  -1 -12   89.06   16.03
  -4   1  12   70.21   15.44
   4  -1 -11  114.75   15.73
  -4   1  11  111.82   16.73
   4  -1 -10   37.15   10.91
  -4   1  10   25.55    9.98
   4  -1  -9  214.23   18.12
  -4   1   9  187.59   15.59
  -4   1   9  217.81   19.15
   4  -1  -8   76.50   10.30
  -4   1   8   52.37    8.06
  -4   1   8   65.46   11.02
   4  -1  -7  124.44   11.86
  -4   1   7  113.40   11.39
  -4   1   7  125.27   13.55
   4  -1  -6   97.91   10.14
  -4   1   6  101.17   11.47
  -4   1   5  195.61   15.22
   4  -1  -5  175.80   12.04
   4  -1  -5  172.04   11.58
   4  -1  -4  691.97   20.70
  -4   1   4  702.81   27.71
   4  -1  -4  662.07   21.65
  -4   1   3  656.72   25.95
   4  -1  -3  622.37   20.41
   4  -1  -3  620.28   19.05
   4  -1  -2  217.52   10.48
   4  -1  -2  216.97   11.84
  -4   1   2  197.46   13.57
   4  -1  -1  204.88   10.44
   4  -1  -1  196.06   11.31
  -4   1   1  189.19   11.46
  -4   1   0    1.11    2.77
   4  -1   0    3.02    3.38
   4  -1   0   -0.64    3.20
  -4   1  -1  191.94   11.01
   4  -1   1  198.98   11.24
   4  -1   1  200.23   12.62
   4  -1   2 1018.62   27.17
   4  -1   2 1060.24   25.61
   4  -1   2 1046.45   28.80
   4  -1   3  272.26   14.67
   4  -1   3  260.52   13.26
   4  -1   3  269.00   15.86
   4  -1   4 1343.46   29.19
   4  -1   4 1326.74   34.72
  -4   1  -5 1033.45   31.48
   4  -1   5  985.97   25.52
   4  -1   5 1002.25   31.86
  -4   1  -6  126.16   12.69
   4  -1   6  108.11    9.35
   4  -1   6  112.95   12.25
  -4   1  -7  737.56   29.66
   4  -1   7  672.52   21.62
   4  -1   7  681.06   30.87
  -4   1  -8   29.18    8.73
   4  -1   8   29.33   10.16
   4  -1   9   32.88   11.23
  -4   1  -9   10.06    8.21
   4  -1  10    2.16    8.56
  -4   1 -10    5.15    9.15
   4  -1  11   38.10   13.05
  -4   1 -11   39.90   12.28
  -4   0  14  -14.55   12.09
   4   0 -14   14.22   11.66
   4   0 -13   -0.17   10.14
  -4   0  13   29.41   11.54
   4   0 -12    0.96    8.71
  -4   0  12    7.61    9.64
   4   0 -11  115.33   15.22
  -4   0  11   98.78   14.14
   4   0 -10   31.15    9.69
  -4   0  10   19.54    7.66
  -4   0  10   30.83   10.68
  -4   0   9   77.06   10.93
   4   0  -9   82.17   11.65
  -4   0   9   72.72   10.23
  -4   0   8    5.72    5.48
  -4   0   8    7.72    5.38
   4   0  -7  208.77   14.66
  -4   0   7  183.73   14.25
  -4   0   7  191.83   14.61
   4   0  -6   24.13    6.37
  -4   0   6   16.48    5.80
  -4   0   6   25.07    6.51
  -4   0   5  315.32   16.36
   4   0  -5  345.37   16.27
  -4   0   5  333.78   17.77
   4   0  -4  146.09   10.21
  -4   0   4  155.87   11.93
   4   0  -4  141.36   10.84
  -4   0   3 2001.30   39.01
   4   0  -3 2019.40   37.56
   4   0  -3 2005.37   34.52
   4   0  -2  284.27   12.97
   4   0  -2  260.60   14.18
  -4   0   2  288.20   13.26
   4   0  -1  484.77   17.91
  -4   0   1  497.05   15.90
   4   0  -1  498.55   18.17
   4   0   0  990.71   25.47
   4   0   0 1038.06   27.91
  -4   0   0  971.87   22.01
   4   0   1   27.17    5.03
   4   0   1   26.31    5.32
   4   0   1   32.07    6.37
   4   0   2  276.04   14.05
   4   0   2  294.20   14.44
   4   0   2  282.43   17.26
   4   0   3  319.34   18.80
   4   0   3  302.64   14.03
   4   0   3  305.83   15.83
   4   0   4  593.46   19.35
   4   0   4  556.29   23.40
  -4   0  -5 1388.92   40.35
   4   0   5 1400.09   30.24
   4   0   5 1330.51   37.65
   4   0   6   30.90    9.41
  -4   0  -6   38.69    8.61
   4   0   6   33.87    5.82
  -4   0  -7  593.34   28.81
   4   0   7  546.56   28.02
  -4   0  -8  436.73   26.70
   4   0   8  389.85   26.61
   4   0   9    7.66    9.16
  -4   0  -9   29.69    9.85
  -4   0 -10    9.62    9.46
   4   0  10   39.89   13.97
   4   0  11   12.17   11.22
  -4   0 -11   33.63   13.40
  -4  -1  14   18.54   11.01
   4   1 -14   36.16   13.50
  -4  -1  13   -1.52    8.61
   4   1 -13    4.20    9.78
   4   1 -12  126.86   17.37
  -4  -1  12  115.76   15.51
   4   1 -11    1.95    7.61
  -4  -1  11   -2.69    8.29
  -4  -1  11    6.95    6.88
  -4  -1  10  338.11   22.83
   4   1 -10  370.26   23.04
  -4  -1  10  293.84   19.10
  -4  -1   9  139.81   14.25
   4   1  -9  161.12   15.01
  -4  -1   9  133.25   12.81
   4   1  -8   25.84    8.07
  -4  -1   8   39.50    9.59
  -4  -1   8   26.22    7.14
   4   1  -7    4.31    4.81
  -4  -1   7    3.09    4.98
  -4  -1   7   -0.94    3.67
   4   1  -6   -4.15    4.32
  -4  -1   6    4.31    4.96
  -4  -1   6    2.89    2.90
   4   1  -5 1504.15   33.22
  -4  -1   5 1431.30   36.84
  -4  -1   5 1513.54   27.71
  -4  -1   4 1981.78   31.09
   4   1  -4 1894.20   36.85
  -4  -1   4 1973.32   42.44
   4   1  -3 1251.44   29.92
  -4  -1   3 1285.42   33.71
  -4  -1   3 1306.79   25.92
   4   1  -2 3330.46   48.63
  -4  -1   2 3292.54   53.13
  -4  -1   2 3231.71   36.02
  -4  -1   1  649.62   16.01
   4   1  -1  711.77   24.04
   4   1   0 1303.76   30.00
   4   1   0 1268.94   24.31
   4   1   0 1362.14   35.59
   4   1   1 1405.93   30.73
   4   1   1 1392.77   28.65
   4   1   1 1476.83   39.58
   4   1   2  277.64   14.08
   4   1   2  272.96   14.75
   4   1   2  277.97   19.71
   4   1   3  121.33   11.06
   4   1   3  132.00   14.86
  -4  -1  -4  214.30   14.19
   4   1   4  197.83   14.94
   4   1   4  188.16   17.95
  -4  -1  -5  709.05   24.49
  -4  -1  -5  692.82   33.34
   4   1   5  695.64   29.53
  -4  -1  -6  532.83   21.25
  -4  -1  -6  540.05   28.72
   4   1   6  521.57   27.31
  -4  -1  -7  282.22   22.63
   4   1   7  312.67   23.35
  -4  -1  -8 1010.53   43.43
   4   1   8  934.43   42.94
  -4  -1  -9   39.69   12.35
   4   1   9   53.00   15.50
   4   1  10   27.86   12.11
  -4  -1 -10   21.47   11.45
  -4  -2  14   35.83   12.21
   4   2 -14   66.21   15.45
  -4  -2  13    0.09    8.21
   4   2 -13   -2.65    8.99
  -4  -2  12   97.77   15.38
  -4  -2  12  112.89   13.43
  -4  -2  11  214.76   19.81
   4   2 -11  227.80   19.26
  -4  -2  11  228.67   17.25
   4   2 -10  119.60   13.73
  -4  -2  10  138.14   13.21
  -4  -2   9  718.55   32.19
   4   2  -9  716.38   28.37
  -4  -2   9  681.42   24.04
   4   2  -8    7.44    6.34
  -4  -2   8   11.70    8.13
  -4  -2   8    3.32    4.15
   4   2  -7  191.47   13.56
  -4  -2   7  172.92   15.63
  -4  -2   7  169.29    9.89
   4   2  -6  133.60   11.44
  -4  -2   6  140.96   13.28
  -4  -2   6  122.29    7.28
   4   2  -5  472.19   19.90
  -4  -2   5  436.12   21.35
  -4  -2   5  467.00   11.22
  -4  -2   4  540.58   23.40
   4   2  -4  529.77   20.86
   4   2  -3    4.99    4.34
  -4  -2   3    3.80    4.83
  -4  -2   3    6.08    1.81
  -4  -2   2 3112.88   28.43
  -4  -2   2 3143.46   53.43
   4   2  -2 3174.09   52.12
  -4  -2   1 1622.44   38.58
   4   2  -1 1688.96   24.42
   4   2  -1 1702.52   40.20
  -4  -2   0  354.49   18.18
   4   2   0  347.43   13.08
   4   2   0  347.19   20.20
  -4  -2  -1 2605.25   48.16
   4   2   1 2540.31   39.65
  -4  -2  -2  307.36   16.83
   4   2   2  277.97   15.42
   4   2   2  297.99   21.30
   4   2   3    7.30    6.95
   4   2   3    9.62    5.61
  -4  -2  -3    4.75    4.71
   4   2   4   -7.54    8.09
   4   2   4   -2.93    6.16
  -4  -2  -4    2.44    4.73
   4   2   5   53.99   10.86
  -4  -2  -5   53.75    7.70
  -4  -2  -5   58.27   12.51
  -4  -2  -6  365.90   26.06
   4   2   6  321.10   23.95
   4   2   7    2.12    8.16
  -4  -2  -7   -6.55    9.48
  -4  -2  -8  180.52   20.21
   4   2   8  158.74   19.76
   4   2   9   28.40   12.99
  -4  -2  -9   32.26   13.77
  -4  -3  14  -10.53    8.49
   4   3 -14    0.53    9.62
  -4  -3  13   -0.29    6.55
   4   3 -13   22.14    9.30
   4   3 -12   98.68   13.79
  -4  -3  12   98.83   16.95
  -4  -3  12   89.42   11.02
  -4  -3  11  507.54   32.19
   4   3 -11  530.62   27.74
  -4  -3  11  482.18   22.14
  -4  -3  10   20.19    6.22
   4   3 -10   17.19    7.70
  -4  -3  10   21.66    9.10
  -4  -3   9 1422.75   46.82
   4   3  -9 1391.83   39.88
  -4  -3   8  605.86   29.62
   4   3  -8  656.80   26.34
  -4  -3   8  574.48   17.09
  -4  -3   7   21.14    3.28
   4   3  -7   25.76    6.94
  -4  -3   7   22.95    7.96
   4   3  -6 1537.73   37.55
  -4  -3   6 1504.11   43.46
   4   3  -5  156.35   12.60
  -4  -3   5  151.18   14.02
   4   3  -4  382.36   19.05
  -4  -3   4  386.35   20.67
   4   3  -3  246.14   15.54
  -4  -3   3  278.89   17.46
  -4  -3   2 1139.28   35.27
  -4  -3   2 1080.16   14.92
   4   3  -2 1172.19   34.37
  -4  -3   1 2889.82   53.44
   4   3  -1 2802.71   32.73
   4   3  -1 2865.34   57.39
   4   3   0   12.25    3.83
   4   3   0   13.66    7.80
  -4  -3   0    6.32    4.97
  -4  -3  -1 2378.74   49.23
   4   3   1 2325.09   41.67
   4   3   1 2303.57   54.85
  -4  -3  -2 1623.08   41.14
   4   3   2 1689.03   39.94
   4   3   3   39.30   10.74
  -4  -3  -3   56.38    9.26
   4   3   3   49.40    8.81
   4   3   4   90.93   15.73
  -4  -3  -4   70.88    9.03
   4   3   4   72.55   12.20
  -4  -3  -5  584.50   34.15
   4   3   5  458.37   28.13
  -4  -3  -6  134.01   18.99
   4   3   6  122.69   16.97
  -4  -3  -7  116.57   18.31
   4   3   7  121.63   18.51
   4   3   8   57.88   16.15
  -4  -3  -8   47.62   15.51
  -4  -3  -9  166.52   21.89
   4   3   9  154.13   23.26
   4   4 -15   57.57   15.24
   4   4 -14   -1.52    9.94
   4   4 -13    6.95    9.01
  -4  -4  13  -10.76   10.93
   4   4 -12  -13.94    9.71
  -4  -4  12   -9.41   10.99
  -4  -4  11  271.60   24.57
   4   4 -11  306.03   21.46
  -4  -4  11  238.60   14.46
  -4  -4  10  309.79   24.30
   4   4 -10  293.09   20.51
  -4  -4   9  309.81   23.55
   4   4  -9  324.94   20.29
  -4  -4   8 2048.74   57.07
   4   4  -8 2135.85   49.38
   4   4  -7   20.35    7.30
  -4  -4   7   27.31    8.98
   4   4  -6 1477.57   38.93
  -4  -4   6 1331.42   43.13
   4   4  -5  681.84   27.12
  -4  -4   5  715.85   31.44
   4   4  -4   79.59   10.38
  -4  -4   4  112.47   13.29
  -4  -4   3   76.16   12.01
   4   4  -3   84.61   11.30
   4   4  -2   27.56    8.28
  -4  -4   2   25.29    7.28
   4   4  -1  868.11   20.50
   4   4  -1  920.52   36.15
  -4  -4   1  858.87   33.03
   4   4   0  720.52   22.55
  -4  -4   0  741.43   30.29
   4   4   0  704.87   32.91
  -4  -4  -1   99.84   12.52
   4   4   1   95.52   10.28
   4   4   1   99.14   14.73
  -4  -4  -2  559.74   26.11
   4   4   2  625.61   27.20
   4   4   2  640.06   34.00
   4   4   3   10.43    9.43
   4   4   3    3.77    6.44
  -4  -4  -3   -1.22    5.55
  -4  -4  -4  201.68   15.93
   4   4   4  232.97   21.58
   4   4   5   87.39   15.27
  -4  -4  -5   75.80   14.91
   4   4   6   10.87    9.62
  -4  -4  -6   20.81   11.75
   4   4   7   -7.04   11.33
  -4  -4  -7   16.97   13.22
   4   4   8    7.17   13.43
  -4  -4  -8   14.11   12.18
  -4  -5  14    2.13   14.88
   4   5 -14   21.50    9.72
   4   5 -13   59.90   12.56
  -4  -5  13   68.04   18.27
   4   5 -12   35.98   10.42
  -4  -5  12   39.98   13.68
   4   5 -11  108.28   13.80
  -4  -5  11  122.45   19.33
   4   5 -10  394.25   24.03
  -4  -5  10  392.37   28.65
   4   5  -9   26.36    8.77
  -4  -5   9   13.97    8.75
  -4  -5   8 1724.22   55.11
   4   5  -8 1858.20   48.11
   4   5  -7  434.17   23.06
  -4  -5   7  421.38   27.45
   4   5  -6   85.34   11.36
  -4  -5   6   76.13   12.57
  -4  -5   5 1904.64   53.56
   4   5  -5 2013.36   47.67
  -4  -5   4   68.16   12.22
   4   5  -4   62.50   10.65
  -4  -5   3   99.94   13.41
   4   5  -3   79.32   11.57
   4   5  -2   33.66   10.27
  -4  -5   2   49.17   10.97
  -4  -5   1  236.69   18.93
   4   5  -1  284.33   14.20
   4   5  -1  275.10   21.68
   4   5   0  781.66   34.87
  -4  -5   0  790.93   32.97
   4   5   0  812.91   27.95
   4   5   1   77.55   14.59
  -4  -5  -1   51.45   10.87
   4   5   1   73.11   11.12
  -4  -5  -2  453.42   24.99
   4   5   2  468.65   32.19
   4   5   2  421.69   25.86
  -4  -5  -3  303.00   21.25
   4   5   3  388.43   25.57
   4   5   3  359.58   30.26
   4   5   4  138.53   17.55
   4   5   5   40.98   13.19
  -4  -5  -5   30.76   13.49
   4   5   6    0.77   10.48
  -4  -5  -6    5.95   11.53
   4   5   7   16.17   12.42
  -4  -5  -7    3.68   11.64
   4   6 -14  126.37   18.20
  -4  -6  14  134.70   25.01
   4   6 -13   58.53   13.57
  -4  -6  13   33.91   14.83
   4   6 -12  181.13   19.05
  -4  -6  12  171.83   24.42
   4   6 -11   40.16   11.22
  -4  -6  11   39.15   13.80
   4   6 -10   81.85   13.03
  -4  -6  10  124.81   19.02
   4   6  -9   61.67   11.30
  -4  -6   9   86.16   15.55
  -4  -6   8  240.66   22.07
   4   6  -8  280.52   20.21
  -4  -6   7 1582.54   54.21
   4   6  -7 1648.46   46.71
   4   6  -6  192.92   16.46
  -4  -6   6  196.36   19.98
  -4  -6   5 1013.54   41.82
   4   6  -5 1111.38   38.83
  -4  -6   4  345.06   24.91
   4   6  -4  344.07   22.52
  -4  -6   3  102.45   14.23
   4   6  -3  107.35   14.86
   4   6  -2   89.02   13.77
  -4  -6   2   69.81   12.37
   4   6  -1    9.81    9.45
  -4  -6   1   -4.97    8.33
   4   6   0   56.40   13.54
   4   6   0   58.43   10.26
  -4  -6   0   47.39   11.61
  -4  -6  -1  118.37   15.90
   4   6   1  151.88   16.78
   4   6   1  151.98   19.74
   4   6   2   51.72   14.86
   4   6   2   43.72   10.97
  -4  -6  -2   24.46    8.70
   4   6   3  185.35   20.83
   4   6   3  161.08   23.47
   4   6   4   12.24   10.94
  -4  -6  -4    9.98   13.79
   4   6   5   -9.37   13.69
  -4  -6  -5  -12.09   11.55
   4   6   6   18.68   12.69
  -4  -6  -6   38.09   16.81
   4   7 -14  422.05   30.55
  -4  -7  14  454.69   40.65
   4   7 -13   37.25   12.93
  -4  -7  13   38.86   18.28
   4   7 -12  240.31   22.02
  -4  -7  12  192.92   26.79
   4   7 -11  153.93   17.92
  -4  -7  11  125.20   21.12
   4   7 -10   13.94    9.64
  -4  -7  10   10.93   10.63
   4   7  -9    4.97    9.08
  -4  -7   9   18.79   11.18
   4   7  -8   13.82    7.52
  -4  -7   8   29.16   11.62
  -4  -7   7  885.65   43.00
   4   7  -7  960.53   37.71
  -4  -7   6  541.40   32.71
   4   7  -6  529.81   29.19
   4   7  -5   12.76    8.60
  -4  -7   5   -0.96    8.56
  -4  -7   4  571.63   34.43
   4   7  -4  608.63   32.87
   4   7  -3   31.97   12.19
  -4  -7   3   22.88   10.72
  -4  -7   2   70.11   11.80
   4   7  -2  103.75   16.24
   4   7  -1    1.14    8.53
  -4  -7   1    5.34    8.58
   4   7   0   22.64   12.03
  -4  -7   0   13.77    8.82
   4   7   1    7.62   10.32
  -4  -7  -1    7.41    7.97
   4   7   1   18.48   10.99
   4   7   2   31.96   16.23
  -4  -7  -2   47.31   12.52
   4   7   2   55.87   14.83
   4   7   3   19.65   11.75
   4   7   3   12.84   12.86
   4   7   4   56.33   17.77
  -4  -7  -4   36.85   14.86
   4   8 -13  325.86   27.81
  -4  -8  13  280.84   31.68
   4   8 -12   63.14   14.73
  -4  -8  12   60.00   19.45
   4   8 -11  366.16   27.35
  -4  -8  11  312.29   32.88
   4   8 -10    5.70    9.78
  -4  -8  10   11.96   13.38
   4   8  -9   44.65   11.80
  -4  -8   9   18.94   12.27
   4   8  -8    6.89    9.27
  -4  -8   8    2.43   11.16
   4   8  -7   85.76   14.11
  -4  -8   7   66.75   16.80
  -4  -8   6  239.62   24.36
   4   8  -6  268.74   22.65
  -4  -8   5   92.40   17.04
   4   8  -5  104.03   15.98
   4   8  -4  452.78   30.76
  -4  -8   4  408.41   30.97
  -4  -8   3  222.50   23.38
   4   8  -3  304.65   25.65
   4   8  -2   45.11   13.31
  -4  -8   2   27.98   11.60
   4   8  -1   52.35   13.17
  -4  -8   1   55.09   13.55
   4   8   0   46.14   15.59
  -4  -8   0   20.70   11.01
   4   8   1   22.51   14.59
  -4  -8  -1   44.63   14.27
   4   8   2   77.67   19.68
  -4  -8  -3   11.03   14.00
   4   9 -12   29.27   12.75
  -4  -9  12   21.03   13.75
   4   9 -11  190.49   22.57
  -4  -9  11  172.24   27.17
   4   9 -10  140.80   18.21
  -4  -9  10  132.27   26.21
   4   9  -9   47.11   12.94
  -4  -9   9   65.57   19.82
   4   9  -8   -4.09    9.45
  -4  -9   8   11.86   14.11
  -4  -9   7  135.68   22.32
   4   9  -7  143.94   18.92
   4   9  -6    1.30    9.06
  -4  -9   6    7.45   10.83
  -4  -9   5  167.04   23.02
   4   9  -5  187.52   20.75
   4   9  -4   23.65   10.96
  -4  -9   4   -3.66   10.98
  -4  -9   3   95.76   19.33
   4   9  -3   96.43   15.20
   4   9  -2   15.77   12.68
  -4  -9   2    2.25   11.23
   4   9  -1    6.19   12.02
  -4  -9   1    3.64   10.74
   4   9   0   26.60   15.77
  -4  -9   0   11.06   10.47
   4   9   1   10.24   14.70
   4  10 -11   53.14   14.94
  -4 -10  11   40.88   18.61
  -4 -10  10  236.72   30.21
   4  10 -10  300.41   27.72
   4  10  -9   15.71   12.38
  -4 -10   9   14.22   16.70
   4  10  -8   76.86   16.05
  -4 -10   8   69.97   20.44
  -4 -10   7   58.27   20.90
   4  10  -7   -3.33   10.44
   4  10  -6   51.07   14.14
  -4 -10   6   61.03   18.55
   4  10  -5   11.48   13.41
  -4 -10   5    1.84   13.18
   4  10  -4  100.96   17.89
  -4 -10   4   73.58   19.28
   4  10  -3    2.82   11.58
  -4 -10   3    7.86   11.86
   4  10  -2   38.08   15.98
  -4 -10   2   12.53   10.60
   4  11  -7  -14.94   13.56
  -4 -11   7   -6.12   13.33
   4  11  -6   96.00   19.25
  -4 -11   6  105.02   21.72
  -5  11   1  -37.64   20.14
   5 -11  -1  -16.60   13.70
  -5  11   0    5.35   17.20
   5 -11   0   19.53   11.83
   5 -11   1   11.56   12.20
  -5  11  -1   -0.81   13.85
  -5  11  -2  123.92   23.74
   5 -11   2  114.92   20.02
  -5  11  -3   25.10   15.88
   5 -11   3    4.20   12.44
  -5  11  -4   31.82   15.54
   5 -11   4   62.70   19.17
  -5  11  -5   53.63   19.75
   5 -11   5   21.87   14.21
  -5  11  -6   21.08   16.37
   5 -11   6    3.44   14.34
   5 -11   7    9.38   14.34
  -5  11  -7   10.59   12.33
  -5  11  -8   31.76   14.47
   5 -11   8   39.49   15.24
  -5  10   3   23.65   14.49
   5 -10  -3   11.02   10.68
  -5  10   2   27.96   17.25
   5 -10  -2   13.71   11.77
  -5  10   1   32.04   17.95
   5 -10  -1   17.12    9.99
   5 -10   0    6.43    9.53
  -5  10   0  -16.65   16.74
  -5  10  -1   37.72   15.26
   5 -10   1   14.54   11.99
  -5  10  -2    4.82   11.60
   5 -10   2   -1.32   11.50
  -5  10  -3   77.47   17.89
   5 -10   3   83.73   17.60
  -5  10  -4    1.91   11.99
   5 -10   4    8.73   11.63
  -5  10  -5  114.40   20.32
   5 -10   5   60.83   16.50
   5 -10   6   18.12   12.87
  -5  10  -6   -5.55   12.43
  -5  10  -7    5.14   11.20
   5 -10   7  -20.67   15.11
  -5  10  -8   78.57   17.17
   5 -10   8   90.75   17.60
  -5  10  -9   64.74   16.40
   5 -10   9   86.61   19.23
  -5   9   5   17.58   15.01
  -5   9   4   31.72   15.21
   5  -9  -4   40.52   11.48
  -5   9   3  -13.27   15.81
   5  -9  -3   -5.24    8.90
  -5   9   2   19.91   13.28
   5  -9  -2   10.47    9.46
  -5   9   1    1.27   12.51
   5  -9  -1   12.39    9.10
  -5   9   0   -4.31   12.36
   5  -9   0   -5.98    9.84
  -5   9  -1  136.64   20.81
   5  -9   1  205.48   22.36
  -5   9  -2  166.28   21.53
   5  -9   2  204.57   22.78
  -5   9  -3   51.61   14.92
   5  -9   3   67.70   14.92
   5  -9   4  255.16   25.10
  -5   9  -4  275.23   26.74
  -5   9  -5   -3.88    9.92
   5  -9   5    1.14   10.59
  -5   9  -6   14.85    9.68
   5  -9   6    3.86   10.96
  -5   9  -7   -5.55   10.39
   5  -9   7   13.55   12.17
  -5   9  -8   48.49   13.58
   5  -9   8   62.60   15.58
  -5   9  -9  161.29   21.91
   5  -9   9  170.05   21.63
  -5   9 -10   29.05   14.49
   5  -9  10    2.50   12.03
  -5   8   7   -7.84   14.76
  -5   8   6   31.28   15.75
  -5   8   5    6.38   12.74
   5  -8  -5   14.55    8.89
  -5   8   4   38.72   15.35
   5  -8  -4   19.40    8.22
  -5   8   3   19.94   15.94
   5  -8  -3   14.18    9.44
  -5   8   2   18.74   13.79
   5  -8  -2    2.04    7.92
   5  -8  -1   18.53    9.68
  -5   8   1   16.31   14.21
  -5   8   0   34.32   13.81
   5  -8   0   45.61   11.20
  -5   8  -1   61.27   15.71
   5  -8   1  105.25   16.39
  -5   8  -2  297.28   26.40
   5  -8   2  361.01   26.43
  -5   8  -3    0.71    9.41
   5  -8   3   19.17   10.40
   5  -8   4  482.66   31.33
  -5   8  -4  429.38   28.83
  -5   8  -5  369.22   27.43
   5  -8   5  412.86   28.73
  -5   8  -6    3.69    9.69
   5  -8   6   -0.50    9.49
  -5   8  -7  191.41   20.86
   5  -8   7  232.72   22.86
  -5   8  -8   74.56   15.27
   5  -8   8   64.82   13.91
   5  -8   9  125.71   17.34
  -5   8  -9  135.87   18.63
  -5   8 -10   24.61   12.95
   5  -8  10   48.04   13.07
  -5   8 -11   53.17   15.76
   5  -8  11   52.54   13.33
   5  -7  -8   12.72   10.69
  -5   7   8   -7.51   13.16
  -5   7   7   27.17   16.39
   5  -7  -7   30.08   12.67
  -5   7   6   56.29   17.38
   5  -7  -6   68.53   12.96
   5  -7  -6   54.93   10.22
   5  -7  -5  188.90   17.54
  -5   7   5  204.07   26.53
   5  -7  -5  175.58   16.39
   5  -7  -4   40.34    9.42
  -5   7   4   27.65   13.97
   5  -7  -4   19.99    7.84
  -5   7   3  169.31   23.12
   5  -7  -3  194.73   17.86
  -5   7   2  129.21   20.46
   5  -7  -2  146.42   16.00
  -5   7   1   30.31   14.13
   5  -7  -1    5.26    7.07
  -5   7   0   -9.14   12.11
   5  -7   0   -1.12    6.62
   5  -7   1  102.65   14.03
  -5   7  -1   54.01   14.49
   5  -7   2  543.15   29.38
  -5   7  -2  421.84   28.58
   5  -7   3  292.29   22.58
  -5   7  -3  311.09   23.25
  -5   7  -4  321.59   24.15
   5  -7   4  378.62   25.69
  -5   7  -5 1523.96   49.90
   5  -7   5 1493.46   49.63
  -5   7  -6   65.86   13.42
   5  -7   6   55.62   12.42
   5  -7   7  512.49   30.12
  -5   7  -7  540.68   31.19
   5  -7   8  410.48   26.58
  -5   7  -8  431.80   28.95
   5  -7   9   90.97   14.74
  -5   7  -9  101.74   16.45
  -5   7 -10   14.57    9.98
   5  -7  10   10.15    8.27
  -5   7 -11   72.29   16.50
   5  -7  11   67.71   12.81
   5  -6  -9   -1.96   11.56
  -5   6   9   13.14   15.93
   5  -6  -8    8.42   10.39
  -5   6   8    5.54   12.54
  -5   6   7   19.10   12.95
   5  -6  -7   15.87   10.25
  -5   6   6    4.03   10.54
   5  -6  -6    8.33    8.50
   5  -6  -6  -14.20    8.08
   5  -6  -5  164.35   15.88
   5  -6  -5  148.63   13.94
  -5   6   5  178.57   23.43
  -5   6   4  241.12   26.75
   5  -6  -4  281.18   18.21
   5  -6  -4  255.09   17.83
   5  -6  -3  115.28   10.95
  -5   6   3  147.02   20.32
   5  -6  -3  114.59   12.98
   5  -6  -2  504.12   18.59
  -5   6   2  516.57   36.19
   5  -6  -2  577.13   27.28
  -5   6   1  133.07   18.24
   5  -6  -1  137.03   13.82
  -5   6   0  109.58   16.98
   5  -6   0  124.01   13.57
  -5   6  -1   36.48   11.33
   5  -6   1   34.95    8.36
   5  -6   2  354.07   22.06
  -5   6  -2  299.91   22.12
  -5   6  -3  710.35   31.94
   5  -6   3  797.83   32.50
  -5   6  -4    1.03    7.80
   5  -6   4   11.15    6.87
  -5   6  -5 1021.10   38.15
   5  -6   5  947.26   36.77
   5  -6   6  556.90   28.03
  -5   6  -6  604.72   31.01
  -5   6  -7   13.08    9.99
   5  -6   7    3.92    6.94
   5  -6   8  308.49   21.14
  -5   6  -8  363.22   26.14
  -5   6  -9   26.15   12.08
   5  -6   9   21.40    8.77
  -5   6 -10   -3.72   10.30
   5  -6  10   12.38    7.67
  -5   6 -11   37.33   12.98
   5  -5 -10   11.03   12.38
  -5   5  10   -4.00   15.64
   5  -5  -9   87.12   16.54
  -5   5   9   45.99   16.82
   5  -5  -8   14.05   10.56
  -5   5   8   32.88   14.44
   5  -5  -7    6.54    8.84
  -5   5   7   19.45   12.32
   5  -5  -7   16.26    6.78
  -5   5   6   12.71   11.36
   5  -5  -6   13.37    6.82
   5  -5  -6    4.93    6.08
  -5   5   5  144.68   20.56
   5  -5  -5  177.67   15.47
   5  -5  -5  157.09   14.02
  -5   5   4  686.51   41.03
   5  -5  -4  618.98   24.94
   5  -5  -4  665.33   26.25
   5  -5  -3   13.28    5.34
   5  -5  -3    1.23    4.94
  -5   5   3   13.65   10.99
   5  -5  -2 1055.13   23.88
  -5   5   2 1131.88   46.73
   5  -5  -2 1119.26   34.82
  -5   5   1  775.47   36.90
   5  -5  -1  712.57   27.72
   5  -5   0  153.40   13.82
  -5   5   0  129.28   15.44
   5  -5   1  725.66   28.60
  -5   5  -1  715.47   31.23
  -5   5  -2  526.96   26.31
   5  -5   2  556.03   25.33
  -5   5  -3  110.02   12.39
   5  -5   3  110.28   12.16
   5  -5   4   10.50    6.50
  -5   5  -4    7.94    6.82
   5  -5   5  948.37   33.12
  -5   5  -5  978.74   36.34
   5  -5   6 1534.83   43.06
  -5   5  -6 1693.59   48.39
  -5   5  -7  129.21   16.74
   5  -5   7  164.88   14.99
  -5   5  -8  694.08   35.04
   5  -5   8  603.92   27.22
  -5   5  -9  341.84   27.55
   5  -5   9  309.26   20.03
   5  -5  10   -5.01   10.44
   5  -5  10   -6.87    6.30
   5  -5  11   27.77   12.54
   5  -4 -11  136.96   21.78
  -5   4  11  109.39   22.10
   5  -4 -10    6.12   11.22
  -5   4  10   56.27   18.14
   5  -4  -9   91.15   15.72
  -5   4   9   97.54   18.39
   5  -4  -8   82.78   13.54
   5  -4  -8   76.17   10.27
  -5   4   8  111.34   19.50
  -5   4   7   -5.00    9.97
   5  -4  -7    3.50    7.13
   5  -4  -7   -0.51    5.86
  -5   4   6    2.39    8.85
   5  -4  -6   -8.24    6.29
   5  -4  -5  109.95   11.33
  -5   4   5   81.07   15.14
   5  -4  -5  119.17   11.94
   5  -4  -4  451.92   20.24
   5  -4  -4  445.88   21.10
   5  -4  -3  538.77   18.91
   5  -4  -3  501.86   21.98
   5  -4  -2  286.69   12.53
  -5   4   2  323.03   23.45
   5  -4  -2  334.15   17.68
   5  -4  -1 1634.91   27.16
   5  -4  -1 1718.55   39.38
   5  -4   0  403.74   19.93
  -5   4   0  411.42   23.65
   5  -4   0  375.09   12.45
  -5   4  -1  242.99   17.18
   5  -4   1  243.56   15.64
  -5   4  -2  208.79   15.97
   5  -4   2  210.12   14.96
  -5   4  -3   -3.61    6.40
   5  -4   3    5.45    5.08
  -5   4  -4   52.24    9.88
   5  -4   4   58.23    9.55
  -5   4  -5    9.17    3.55
  -5   4  -5    0.42    6.02
   5  -4   5    8.41    5.79
  -5   4  -6  612.39   28.75
  -5   4  -6  565.30   18.60
  -5   4  -7  248.87   13.97
   5  -4   7  220.68   15.79
  -5   4  -8   50.75    7.96
   5  -4   8   58.84   12.46
   5  -4   8   45.36    8.70
  -5   4  -9  365.53   20.33
   5  -4   9  371.20   25.77
   5  -4   9  311.95   18.09
   5  -4  10   14.95   11.23
   5  -4  11   22.91   13.17
   5  -3 -12   17.69   12.47
  -5   3  12   11.35   13.30
   5  -3 -11  207.83   22.27
  -5   3  11  141.09   20.58
   5  -3 -10  132.74   17.09
  -5   3  10  134.22   21.07
   5  -3  -9   32.82   10.95
  -5   3   9   28.74   12.88
   5  -3  -8  338.08   23.96
  -5   3   8  403.03   29.23
   5  -3  -7   70.92   11.46
  -5   3   7   59.16   13.63
   5  -3  -7   56.13    9.13
  -5   3   6   56.22   13.26
   5  -3  -6   24.17    7.69
   5  -3  -6   48.48    8.04
  -5   3   5   76.81   15.49
   5  -3  -5   61.86    9.15
   5  -3  -5   73.17    9.09
   5  -3  -4   60.93    7.90
   5  -3  -4   78.36    9.43
   5  -3  -3  383.96   16.23
  -5   3   3  361.64   25.31
   5  -3  -3  392.68   18.74
   5  -3  -2   39.64    5.52
  -5   3   2   41.08   10.49
   5  -3  -2   40.48    6.86
   5  -3  -1 2452.05   35.51
   5  -3  -1 2482.81   45.16
  -5   3   1 2542.88   54.35
  -5   3   0 1695.47   41.67
   5  -3   0 1638.01   36.91
   5  -3   0 1703.20   30.47
  -5   3  -1  227.14   15.62
   5  -3   1  212.17   13.92
   5  -3   1  213.86   11.72
   5  -3   2 1113.61   30.89
  -5   3  -2 1181.75   34.07
   5  -3   2 1186.19   26.13
   5  -3   3  151.03   11.85
  -5   3  -3  160.15   13.44
  -5   3  -4    4.75    4.23
   5  -3   4    0.25    4.41
  -5   3  -4   -9.19    7.00
  -5   3  -5   -3.24    6.70
  -5   3  -5    0.47    3.97
   5  -3   5    2.09    4.57
  -5   3  -6   74.32    8.34
   5  -3   6   89.09   12.79
   5  -3   6   68.67    9.14
  -5   3  -7  134.14   11.00
   5  -3   7  138.27   14.90
   5  -3   7  160.61   12.47
  -5   3  -8   63.26    9.41
   5  -3   8   55.81    8.63
   5  -3   8   49.59   10.73
  -5   3  -9  177.08   16.27
   5  -3   9  179.31   19.55
  -5   3 -10   95.88   13.09
   5  -3  10   68.36   14.34
   5  -3  11   33.76   12.39
   5  -2 -12   14.37   12.53
  -5   2  12  -23.64   14.03
   5  -2 -11   47.03   13.77
  -5   2  11   53.27   15.51
   5  -2 -10  286.12   23.77
  -5   2  10  256.56   24.10
   5  -2  -9   38.26   10.50
  -5   2   9   46.21   10.13
  -5   2   9   50.50   12.95
   5  -2  -8  648.18   30.25
  -5   2   8  592.87   27.93
  -5   2   8  589.94   32.17
   5  -2  -7  614.43   24.59
  -5   2   7  627.97   32.50
  -5   2   6   18.37    7.85
   5  -2  -6   13.85    7.06
   5  -2  -6   24.27    6.60
   5  -2  -5   37.63    7.14
  -5   2   5   56.66   11.44
   5  -2  -5   43.61    7.30
   5  -2  -4   89.09    8.42
  -5   2   4   87.37   13.33
   5  -2  -4   79.29    9.59
   5  -2  -3   76.84    8.27
  -5   2   3   68.77   11.27
   5  -2  -3   80.78    8.72
   5  -2  -2  257.88   12.72
  -5   2   2  271.58   18.45
   5  -2  -2  262.86   15.19
   5  -2  -1  377.12   15.43
   5  -2  -1  356.78   17.15
  -5   2   1  348.20   18.44
  -5   2   0 1703.31   38.74
   5  -2   0 1644.23   36.45
   5  -2   0 1728.14   34.57
  -5   2  -1  170.65   12.83
   5  -2   1  191.11   12.85
   5  -2   1  178.94   12.48
   5  -2   2  509.26   20.79
  -5   2  -2  519.36   22.07
   5  -2   2  547.83   21.53
  -5   2  -3  725.98   27.20
   5  -2   3  710.24   24.56
   5  -2   3  752.50   26.17
  -5   2  -4    0.37    4.49
   5  -2   4   -6.53    4.42
   5  -2   4    4.82    5.18
  -5   2  -5    3.14    5.03
   5  -2   5    8.42    5.20
   5  -2   5   11.17    6.36
  -5   2  -6   81.18   10.25
   5  -2   6   68.30    8.90
   5  -2   6   59.19   10.69
  -5   2  -7   51.43    9.55
   5  -2   7   45.51    7.58
   5  -2   7   47.06   11.45
  -5   2  -8  184.61   15.57
   5  -2   8  175.47   13.16
   5  -2   8  167.14   18.54
  -5   2  -9    1.42    6.82
   5  -2   9    8.78    9.54
  -5   2 -10   96.72   14.46
   5  -2  10   98.92   17.74
  -5   2 -11    8.87    8.84
   5  -2  11   14.96   12.85
   5  -1 -13   10.94   13.88
  -5   1  13    5.18    9.51
   5  -1 -12   -4.61   10.24
  -5   1  12   17.33   12.54
   5  -1 -11   -0.16   10.27
  -5   1  11   -5.59    9.51
   5  -1 -10  208.98   20.23
  -5   1  10  163.41   16.95
  -5   1  10  167.37   17.87
   5  -1  -9  248.86   19.91
  -5   1   9  237.65   18.23
  -5   1   9  218.05   20.02
   5  -1  -8  249.83   18.47
  -5   1   8  204.66   16.88
  -5   1   8  239.91   18.83
   5  -1  -7 1247.81   36.29
  -5   1   7 1166.36   37.91
  -5   1   7 1120.38   39.20
  -5   1   6  279.81   19.29
   5  -1  -6  305.56   17.06
   5  -1  -6  269.48   16.65
  -5   1   5  169.13   15.79
   5  -1  -5  151.00   12.10
   5  -1  -5  157.36   12.90
   5  -1  -4  401.91   17.42
  -5   1   4  434.44   23.55
   5  -1  -4  436.18   19.46
   5  -1  -3   13.03    4.89
  -5   1   3    8.82    6.12
   5  -1  -3   10.88    5.22
   5  -1  -2  234.52   12.94
   5  -1  -2  191.74   13.09
  -5   1   2  212.74   14.42
   5  -1  -1  123.49   10.76
  -5   1   1  132.06   10.50
   5  -1  -1  126.22   10.04
  -5   1   0  762.89   23.78
   5  -1   0  735.15   23.89
   5  -1   0  781.16   25.87
   5  -1   1  722.65   24.10
  -5   1  -1  754.12   23.89
   5  -1   1  769.35   27.74
   5  -1   2   13.32    5.41
  -5   1  -2    5.00    4.47
   5  -1   2    6.65    4.28
   5  -1   3 1214.40   34.14
   5  -1   3 1306.89   38.12
   5  -1   3 1222.74   31.24
   5  -1   4    4.86    4.86
   5  -1   4   -7.95    6.13
  -5   1  -5   34.98    9.27
   5  -1   5   40.12    6.90
   5  -1   5   37.70    8.67
  -5   1  -6   22.40    7.59
   5  -1   6   30.20    6.53
   5  -1   6   23.24    8.69
   5  -1   7   23.37    8.44
  -5   1  -7   30.03   10.25
   5  -1   7   35.42    7.17
  -5   1  -8   -1.63    7.52
   5  -1   8  -12.48    9.01
  -5   1  -9   40.03   10.25
   5  -1   9   56.58   14.19
  -5   1 -10    7.54   10.32
   5  -1  10    0.88    9.28
   5   0 -13   22.71   12.18
  -5   0  13   35.48   12.52
   5   0 -12   22.88   11.62
  -5   0  12    7.92    9.78
   5   0 -11    6.52    9.08
  -5   0  11   -3.83    8.18
  -5   0  11    0.69    8.32
   5   0 -10   76.69   12.05
  -5   0  10   45.68   10.04
  -5   0  10   49.43   11.03
  -5   0   9   79.28   12.15
   5   0  -9   94.26   11.52
  -5   0   9   69.18   11.18
   5   0  -8   26.42    8.04
  -5   0   8    8.29    6.75
  -5   0   8   15.41    6.44
   5   0  -7 1035.19   32.08
  -5   0   7  997.18   34.68
  -5   0   7 1031.88   32.31
   5   0  -6  899.48   29.34
  -5   0   6  944.58   33.31
  -5   0   6  909.19   29.17
  -5   0   5  396.06   19.27
  -5   0   5  390.06   21.10
   5   0  -5  351.59   17.23
   5   0  -4 1097.69   29.61
  -5   0   4 1118.03   32.51
   5   0  -4 1119.71   31.06
   5   0  -3   84.99    8.86
  -5   0   3   97.32   10.06
   5   0  -3  110.10   10.86
   5   0  -2   20.12    5.31
   5   0  -2   19.23    5.44
  -5   0   2   24.21    5.08
  -5   0   1  204.03   11.65
   5   0  -1  186.34   13.75
   5   0  -1  200.24   14.33
  -5   0   0    8.41    4.28
   5   0   0   -0.21    4.61
   5   0   0    3.15    4.01
  -5   0  -1  683.22   22.25
   5   0   1  709.06   24.06
   5   0   1  658.29   28.08
   5   0   2  147.20   11.66
   5   0   2  154.07   12.00
   5   0   2  174.32   15.48
   5   0   3  122.08   13.55
   5   0   3  100.16   10.43
   5   0   3  132.54   11.94
   5   0   4  178.38   12.67
   5   0   4  145.62   13.81
   5   0   4  166.83   16.80
  -5   0  -5   -7.17    7.65
   5   0   5    4.91    4.85
   5   0   5    4.98    5.86
  -5   0  -6    6.89    7.32
   5   0   6   -4.43    5.00
   5   0   6   -0.13    6.76
  -5   0  -7  159.44   17.25
   5   0   7  114.18   14.81
  -5   0  -8   39.94   12.27
   5   0   8   40.57   12.38
  -5   0  -9   75.22   13.26
   5   0   9   57.33   14.71
  -5   0 -10   56.37   14.29
   5   0  10   78.79   17.78
   5   1 -14  134.30   20.65
   5   1 -13  189.34   21.15
  -5  -1  13  155.94   18.70
   5   1 -12  -14.23   10.75
  -5  -1  12   26.74   10.11
   5   1 -11   33.28   11.04
  -5  -1  11   30.99   10.91
  -5  -1  11   10.35    6.99
   5   1 -10   18.44    8.47
  -5  -1  10   26.16    9.61
  -5  -1  10   10.13    6.20
   5   1  -9   22.37    8.32
  -5  -1   9   21.34    9.06
  -5  -1   9   16.65    7.59
   5   1  -8  576.74   25.20
  -5  -1   8  577.66   28.19
  -5  -1   8  524.46   21.88
   5   1  -7  117.36   12.10
  -5  -1   7  106.00   12.72
  -5  -1   7   92.23    9.37
   5   1  -6  748.96   26.55
  -5  -1   6  724.72   29.48
  -5  -1   6  656.67   20.89
  -5  -1   5  101.48    8.57
   5   1  -5  103.25   10.51
  -5  -1   5  130.99   13.63
   5   1  -4  488.27   20.78
  -5  -1   4  459.58   17.58
  -5  -1   4  490.46   24.00
   5   1  -3  303.17   16.63
  -5  -1   3  339.17   19.71
  -5  -1   3  339.70   15.24
  -5  -1   2   57.13    8.88
  -5  -1   2   44.33    5.68
   5   1  -2   65.34    8.81
  -5  -1   1    0.87    3.04
   5   1  -1   -1.63    5.51
  -5  -1   0  393.05   15.67
   5   1   0  446.88   23.55
   5   1   1   20.71    7.31
   5   1   1   22.49    5.38
   5   1   2  151.23   12.58
   5   1   2  148.74   16.67
  -5  -1  -3  407.47   21.52
   5   1   3  334.26   18.81
   5   1   3  358.02   25.21
  -5  -1  -4  413.16   22.16
   5   1   4  449.88   23.49
   5   1   4  385.84   28.91
  -5  -1  -5    7.66    6.08
  -5  -1  -5    4.55    8.04
   5   1   5   13.38    7.09
  -5  -1  -6    3.95    5.77
  -5  -1  -6   -4.85   10.13
   5   1   7   62.65   13.35
  -5  -1  -7   59.45   14.60
   5   1   8   63.59   14.92
  -5  -1  -8   36.36   13.00
   5   1   9   20.43   11.53
  -5  -1  -9   50.14   14.66
   5   2 -14   36.88   11.47
   5   2 -13  203.54   20.56
   5   2 -12   12.83    9.67
  -5  -2  12    9.73    6.42
  -5  -2  12    0.52    9.34
  -5  -2  11  281.49   24.15
  -5  -2  11  280.64   18.19
   5   2 -11  332.80   23.51
   5   2 -10   30.37    9.71
  -5  -2  10   18.92    6.53
  -5  -2  10   20.12    8.87
   5   2  -9   -2.05    6.02
  -5  -2   9    6.59    4.74
  -5  -2   9    5.00    8.76
   5   2  -8    5.85    7.18
  -5  -2   8    4.71    6.69
  -5  -2   8    2.46    3.22
   5   2  -7  149.24   13.75
  -5  -2   7  140.73   15.26
   5   2  -6   74.36    9.85
  -5  -2   6   85.43   12.00
   5   2  -5  352.66   19.61
  -5  -2   5  381.01   21.90
   5   2  -4   15.69    6.35
  -5  -2   4    6.25    5.75
   5   2  -3  393.67   19.98
  -5  -2   3  339.88   20.31
  -5  -2   2   90.41    6.35
  -5  -2   2   99.17   11.95
   5   2  -2   90.67   10.87
  -5  -2   1  159.72   14.81
   5   2  -1  151.56   14.87
  -5  -2   1  132.38    8.21
   5   2   0  428.79   16.56
   5   2   0  454.92   25.91
  -5  -2  -1 1269.56   37.87
   5   2   1 1164.76   30.34
   5   2   2    8.09    8.05
  -5  -2  -2    7.13    5.99
   5   2   2    7.97    5.27
  -5  -2  -3  490.18   24.00
   5   2   3  450.16   22.93
   5   2   3  495.19   32.43
   5   2   4   50.05   14.50
   5   2   4   33.23    8.13
  -5  -2  -4   49.07    9.56
   5   2   5   -1.89    6.71
  -5  -2  -5    3.93    6.04
  -5  -2  -5   -7.37   10.36
   5   2   6   -6.91    9.67
  -5  -2  -6    1.25   10.11
   5   2   7    0.35    9.78
  -5  -2  -7    1.89   10.45
   5   2   8   15.09   12.34
  -5  -2  -8   17.20   12.51
   5   3 -14   28.65   12.27
   5   3 -13  111.83   16.81
  -5  -3  13   72.76   15.51
   5   3 -12  114.47   15.86
  -5  -3  12  100.41   18.02
   5   3 -11   41.61   10.15
  -5  -3  11   70.07   14.84
   5   3 -10   65.72   11.20
  -5  -3  10   62.06   13.68
   5   3  -9    7.68    8.02
  -5  -3   9   10.94    8.50
   5   3  -8  259.02   18.57
  -5  -3   8  241.02   21.12
   5   3  -7  685.58   28.85
  -5  -3   7  722.32   32.95
   5   3  -6  191.83   15.91
  -5  -3   6  153.03   16.41
  -5  -3   5  217.82   18.29
   5   3  -5  250.19   17.62
   5   3  -4  428.10   22.36
  -5  -3   4  449.10   24.75
   5   3  -3   23.31    7.34
  -5  -3   3   19.36    6.39
  -5  -3   2  217.97   17.94
   5   3  -2  204.18   17.05
   5   3  -1   -1.81    7.51
  -5  -3   1    5.86    7.18
   5   3  -1   -0.13    2.86
  -5  -3   0  134.33   14.69
   5   3   0  121.21    9.83
   5   3   0  113.55   15.07
  -5  -3  -1  645.27   28.36
   5   3   1  601.35   23.19
   5   3   1  579.85   31.22
   5   3   2   22.53    7.20
   5   3   2   14.54    9.35
  -5  -3  -2   18.50    7.59
  -5  -3  -3  594.20   28.08
   5   3   3  530.18   26.99
   5   3   3  574.74   36.62
  -5  -3  -4 1126.60   38.01
   5   3   4 1067.17   40.90
   5   3   4 1185.97   52.49
   5   3   5  -13.19   10.58
  -5  -3  -5   27.16   12.05
  -5  -3  -6   89.01   16.19
   5   3   6  105.87   18.52
   5   3   7   54.95   15.29
  -5  -3  -7   62.37   16.64
   5   4 -14   44.55   13.35
   5   4 -13    1.57   10.25
  -5  -4  13   16.93   12.27
   5   4 -12   76.20   13.98
  -5  -4  12   77.13   17.26
   5   4 -11   27.09   10.53
  -5  -4  11   46.49   14.04
   5   4 -10  108.41   14.32
  -5  -4  10   93.21   16.03
   5   4  -9   17.92    8.40
  -5  -4   9   36.76   11.94
   5   4  -8  248.21   18.98
  -5  -4   8  207.51   21.14
   5   4  -7  113.85   13.19
  -5  -4   7   94.60   14.56
   5   4  -6 1468.88   42.56
  -5  -4   6 1389.63   47.18
   5   4  -5  310.68   20.53
  -5  -4   5  321.98   23.20
  -5  -4   4  356.61   23.39
   5   4  -4  370.47   22.12
  -5  -4   3  872.32   35.54
   5   4  -3  821.72   33.67
  -5  -4   2   66.16   11.57
   5   4  -2   65.28   12.88
   5   4  -1   63.16   12.40
  -5  -4   1   95.60   13.65
   5   4   0   14.64    8.71
  -5  -4   0   17.19    7.84
   5   4   0    3.94    4.41
  -5  -4  -1  159.49   16.57
   5   4   1  138.60   12.93
   5   4   1  171.69   19.41
  -5  -4  -2  356.16   23.62
   5   4   2  330.69   21.39
   5   4   2  395.58   29.34
   5   4   3   43.18   10.17
  -5  -4  -3   38.44    9.84
   5   4   3   25.97   13.27
   5   4   4  727.40   36.66
   5   4   4  856.88   46.93
   5   4   5   46.14   14.14
  -5  -4  -5   38.46   14.62
   5   4   6   38.11   13.43
  -5  -4  -6   73.61   17.37
   5   5 -14   23.70   12.15
  -5  -5  14    9.72   12.77
   5   5 -13  227.54   22.75
  -5  -5  13  234.81   27.58
   5   5 -12  -21.65   12.03
  -5  -5  12    4.90   11.74
  -5  -5  11  112.15   18.82
   5   5 -11  161.23   17.68
   5   5 -10    1.08    8.08
  -5  -5  10    7.13   10.22
   5   5  -9   16.25    8.56
  -5  -5   9   -2.20    9.44
   5   5  -8   -3.74    8.35
  -5  -5   8    9.88    9.05
   5   5  -7   18.35    8.36
  -5  -5   7   32.24   11.35
   5   5  -6  727.92   32.16
  -5  -5   6  762.86   36.66
  -5  -5   5  476.87   29.59
   5   5  -5  465.86   26.21
  -5  -5   4  624.48   32.88
   5   5  -4  605.32   29.87
  -5  -5   3 2117.07   58.62
   5   5  -3 2177.05   58.25
  -5  -5   2  355.13   24.01
   5   5  -2  418.62   27.89
  -5  -5   1  219.31   20.88
   5   5  -1  241.10   23.98
  -5  -5   0   95.22   14.50
   5   5   0  136.68   18.43
  -5  -5  -1  124.29   15.85
   5   5   1  121.42   13.41
   5   5   1  124.45   19.25
  -5  -5  -2  169.00   17.58
   5   5   2  152.94   16.82
   5   5   3    0.45   14.45
   5   5   3  -10.08    9.11
  -5  -5  -3   18.49    7.85
   5   5   4  245.75   23.74
   5   5   5  113.40   18.22
  -5  -5  -5  168.86   23.36
   5   6 -14   17.82   12.62
  -5  -6  14   20.22   14.89
   5   6 -13  220.40   22.53
  -5  -6  13  244.90   30.29
   5   6 -12  349.56   26.66
  -5  -6  12  327.08   32.29
   5   6 -11   41.70   12.60
  -5  -6  11   50.47   15.95
  -5  -6  10  467.82   34.35
   5   6 -10  458.54   28.84
   5   6  -9   61.39   12.59
  -5  -6   9   86.87   17.35
   5   6  -8   12.02    7.80
  -5  -6   8   -3.29    9.06
   5   6  -7  156.10   17.73
  -5  -6   7  134.42   19.87
  -5  -6   6  122.06   17.46
   5   6  -6  131.00   15.70
  -5  -6   5  690.90   37.16
   5   6  -5  711.45   34.49
   5   6  -4   68.37   13.29
  -5  -6   4   70.75   13.54
  -5  -6   3  882.31   40.70
   5   6  -3  847.68   39.16
  -5  -6   2  839.71   39.63
   5   6  -2  954.78   43.59
   5   6  -1   12.81   10.51
  -5  -6   1   -0.05    7.81
  -5  -6   0  247.72   22.06
   5   6   0  205.84   24.63
  -5  -6  -1  150.46   17.24
   5   6   1  160.06   22.70
   5   6   2   43.61   16.36
  -5  -6  -2   18.80    9.31
   5   6   3  -28.77   15.43
  -5  -6  -4   28.88   13.95
   5   7 -13   28.83   13.88
  -5  -7  13   -5.09   14.13
   5   7 -12  558.51   33.48
  -5  -7  12  532.56   41.30
   5   7 -11   33.81   13.42
  -5  -7  11  -13.06   14.30
   5   7 -10  606.61   34.05
  -5  -7  10  519.87   37.52
  -5  -7   9  470.13   35.46
   5   7  -9  557.42   32.05
   5   7  -8   11.58    9.80
  -5  -7   8   -0.58   10.76
   5   7  -7   38.21   11.24
  -5  -7   7   51.84   13.72
   5   7  -6   46.87   12.33
  -5  -7   6   49.02   13.74
  -5  -7   5  235.95   24.68
   5   7  -5  266.34   23.29
  -5  -7   4  288.81   25.69
   5   7  -4  311.26   25.58
  -5  -7   3  141.65   19.51
   5   7  -3  122.76   17.63
  -5  -7   2  741.94   39.47
   5   7  -2  718.14   39.23
   5   7  -1  111.16   17.85
  -5  -7   1   72.19   14.62
  -5  -7   0  282.27   25.02
   5   7   0  304.33   29.85
   5   7   1  143.43   22.43
  -5  -7  -1  113.03   17.67
   5   7   2    6.83   13.41
   5   7   3    6.10   15.24
   5   8 -12  217.77   24.93
  -5  -8  12  198.30   28.13
   5   8 -11  209.78   22.75
  -5  -8  11  218.91   28.23
   5   8 -10   85.52   16.87
  -5  -8  10   81.08   19.06
   5   8  -9  668.22   37.76
  -5  -8   9  726.32   45.71
  -5  -8   8  112.84   18.63
   5   8  -8  116.01   18.05
   5   8  -7  224.29   23.18
  -5  -8   7  175.96   22.88
   5   8  -6   60.02   13.31
  -5  -8   6   61.30   16.16
   5   8  -5   34.13   13.24
  -5  -8   5   78.62   17.46
  -5  -8   4  135.36   19.82
   5   8  -4  158.02   20.54
   5   8  -3   26.12   13.80
  -5  -8   3    8.79    9.91
   5   8  -2  262.15   27.57
  -5  -8   2  271.04   27.11
   5   8  -1  301.35   29.58
  -5  -8   1  271.67   26.83
   5   8   0   41.37   17.22
  -5  -8   0   29.13   13.27
   5   8   1  132.85   22.84
   5   9 -11  491.56   35.14
  -5  -9  11  408.44   39.75
   5   9 -10   90.99   17.19
  -5  -9  10   65.50   19.30
  -5  -9   9  388.23   33.99
   5   9  -9  410.90   32.31
  -5  -9   8  367.23   33.57
   5   9  -8  444.82   32.22
   5   9  -7   59.48   16.88
  -5  -9   7   10.49   13.28
  -5  -9   6  103.70   21.18
   5   9  -6  181.84   24.02
   5   9  -5   46.32   15.33
  -5  -9   5   23.31   13.95
   5   9  -4    6.96   12.96
  -5  -9   4   22.60   13.16
   5   9  -3   35.00   13.32
  -5  -9   3   33.67   14.92
   5   9  -2  -12.77   14.04
  -5  -9   2    6.97   11.34
   5   9  -1  115.38   23.85
  -5  -9   1   77.65   19.01
  -5 -10   8  324.78   37.71
   5  10  -8  405.82   33.19
   5  10  -7   60.04   17.24
  -5 -10   7   22.08   16.51
  -5 -10   6   63.55   19.18
   5  10  -6  139.69   22.02
   5  10  -5   73.92   18.72
  -5 -10   5   84.07   20.19
  -6  11  -1   23.12   17.39
   6 -11   1   -6.90   12.35
  -6  11  -2   27.50   16.55
   6 -11   2    0.31   12.60
  -6  11  -3   45.21   19.30
   6 -11   3   61.52   17.98
  -6  11  -4   67.45   21.07
   6 -11   4   71.89   18.17
  -6  11  -5    8.22   13.83
   6 -11   5   -6.00   14.76
  -6  10   2   -3.56   15.39
   6 -10  -2   16.81   11.01
  -6  10   1   93.17   24.40
   6 -10  -1   48.32   15.60
  -6  10   0  142.73   25.84
   6 -10   0  202.37   23.66
  -6  10  -1   63.58   20.09
   6 -10   1  -17.94   13.96
  -6  10  -2   33.47   16.16
   6 -10   2   37.70   13.95
  -6  10  -3   -3.16   13.15
   6 -10   3   44.53   15.44
  -6  10  -4   59.94   15.70
   6 -10   4   55.01   15.32
  -6  10  -5   84.72   19.85
   6 -10   5  109.53   20.36
   6 -10   6   26.95   16.09
  -6  10  -6   49.77   16.92
   6 -10   7  289.53   31.15
  -6  10  -7  172.21   26.37
  -6   9   4   -1.94   14.86
   6  -9  -4    1.32    9.57
  -6   9   3   62.92   19.98
   6  -9  -3   80.20   14.53
  -6   9   2  136.68   23.44
   6  -9  -2  113.62   16.73
   6  -9  -1   44.70   13.89
  -6   9   1   16.07   15.58
  -6   9   0  286.25   30.93
   6  -9   0  258.99   25.21
  -6   9  -1   17.62   14.85
   6  -9   1   32.62   12.58
  -6   9  -2   58.70   17.27
   6  -9   2   32.65   12.59
  -6   9  -3   26.76   14.47
   6  -9   3   27.96   13.55
   6  -9   4   -4.77   11.82
  -6   9  -4    1.62   10.97
  -6   9  -5   44.90   13.69
   6  -9   5   26.73   13.09
  -6   9  -6   41.70   15.45
   6  -9   6   29.26   13.66
  -6   9  -7   28.62   12.40
   6  -9   7   20.51   11.01
  -6   9  -8   81.94   17.08
   6  -9   8   73.44   18.33
  -6   9  -9  -11.31   11.77
   6  -9   9    4.75   13.18
  -6   8   6   -6.86   16.04
  -6   8   5   14.89   15.94
   6  -8  -5    7.35    9.31
  -6   8   4    5.06   17.52
   6  -8  -4   -4.73    9.55
  -6   8   3   15.42   13.78
   6  -8  -3   25.94   10.52
  -6   8   2  142.06   24.27
   6  -8  -2  139.99   17.84
  -6   8   1   13.71   11.91
   6  -8  -1    3.27    8.40
  -6   8   0  148.73   23.12
   6  -8   0  140.83   18.35
  -6   8  -1  251.12   26.51
   6  -8   1  228.06   22.77
  -6   8  -2   13.54   11.10
   6  -8   2   12.21   10.00
   6  -8   3   86.00   16.27
  -6   8  -3   89.38   15.38
  -6   8  -4    8.99   10.87
   6  -8   4   37.64   12.45
  -6   8  -5   13.23   10.39
   6  -8   5   -2.65   10.20
  -6   8  -6  112.56   17.54
   6  -8   6  124.57   18.36
  -6   8  -7   37.24   13.27
   6  -8   7   34.99   12.69
  -6   8  -8   70.03   15.15
   6  -8   8   71.34   15.08
   6  -8   9   61.69   14.52
  -6   8  -9  118.09   19.98
  -6   7   7   41.03   17.92
  -6   7   6   26.19   17.76
   6  -7  -6   76.98   12.51
  -6   7   5   -6.22   13.08
   6  -7  -5    0.76    7.90
  -6   7   4   19.94   15.64
   6  -7  -4   27.91    9.97
  -6   7   3    9.69   14.09
   6  -7  -3   13.40    9.31
   6  -7  -2    2.72    8.32
  -6   7   2   25.91   14.34
  -6   7   1   92.07   17.24
   6  -7  -1   73.86   13.40
  -6   7   0   10.40   12.90
   6  -7   0    5.19    7.64
   6  -7   1  297.48   23.59
  -6   7  -1  219.48   24.48
   6  -7   2   54.32   12.37
  -6   7  -2   35.99   13.16
   6  -7   3   97.25   14.83
  -6   7  -3  106.05   16.67
  -6   7  -4   20.98   11.25
   6  -7   4   32.11   11.29
  -6   7  -5   18.05    9.42
   6  -7   5   28.60   10.73
  -6   7  -6   50.52   13.27
   6  -7   6   54.81   13.33
  -6   7  -7  190.17   20.71
   6  -7   7  184.94   19.89
  -6   7  -8   -7.27   10.33
   6  -7   8   -1.10    8.69
   6  -7   9  183.91   19.21
  -6   7  -9  147.76   21.69
   6  -7  10  125.58   16.51
  -6   7 -10  107.81   20.31
  -6   6   8   29.72   16.08
   6  -6  -8    7.28   10.65
  -6   6   7    9.19   13.17
   6  -6  -7   -3.60    8.28
   6  -6  -7    3.65    6.69
  -6   6   6  147.79   24.64
   6  -6  -6   97.16   14.68
   6  -6  -6  130.73   14.71
   6  -6  -5    2.20    6.76
  -6   6   5   21.50   15.84
   6  -6  -5    2.48    7.05
  -6   6   4   40.65   16.06
   6  -6  -4   33.97    8.62
   6  -6  -3   -4.56    6.69
  -6   6   3   -7.29   11.42
  -6   6   2   65.38   17.47
   6  -6  -2   89.62   12.11
  -6   6   1   40.13   14.85
   6  -6  -1   69.18   11.37
  -6   6   0  378.52   28.34
   6  -6   0  391.84   23.54
   6  -6   1   16.99    7.91
  -6   6  -1   15.69   10.18
  -6   6  -2   73.53   13.40
   6  -6   2   34.67    9.40
  -6   6  -3   11.66    8.16
   6  -6   3   10.46    7.43
  -6   6  -4    9.09    8.34
   6  -6   4   18.76    8.91
  -6   6  -5   41.13   10.16
   6  -6   5   67.39   11.66
  -6   6  -6  114.27   16.07
   6  -6   6   70.24   12.68
   6  -6   7  125.52   14.97
  -6   6  -7  104.06   16.81
   6  -6   8  141.09   15.60
  -6   6  -8  157.06   19.85
  -6   6  -9    7.66   10.49
   6  -6   9    9.97    8.10
  -6   6 -10  246.77   25.71
   6  -6  10  210.27   19.24
   6  -5  -9   -3.63   10.65
  -6   5   9   -7.58   11.88
  -6   5   8   19.54   13.12
   6  -5  -8   12.45   10.26
  -6   5   7   37.18   15.91
   6  -5  -7   41.85   11.15
   6  -5  -7   23.48    8.67
  -6   5   6   55.03   15.34
   6  -5  -6   44.21   10.89
   6  -5  -6   31.70    8.30
   6  -5  -5   51.90    9.67
  -6   5   5   53.24   15.69
   6  -5  -5   46.74   10.42
   6  -5  -4   13.34    5.94
  -6   5   4   25.22   11.37
   6  -5  -4   17.17    6.96
   6  -5  -3   48.27    7.06
   6  -5  -3   14.15    6.88
  -6   5   3   45.99   14.48
  -6   5   2  -12.69   11.20
   6  -5  -2   12.91    7.12
  -6   5   1   -5.07    8.89
   6  -5  -1    0.54    5.75
   6  -5   0  280.64   19.01
  -6   5   0  249.29   21.36
   6  -5   1  164.40   15.18
  -6   5  -1  188.39   18.12
  -6   5  -2  209.06   18.76
   6  -5   2  208.00   16.81
  -6   5  -3  784.14   34.96
   6  -5   3  843.65   32.64
  -6   5  -4  164.50   17.63
   6  -5   4  177.80   16.28
  -6   5  -5    5.64    8.65
   6  -5   5   10.32    7.91
  -6   5  -6    5.35    9.25
   6  -5   6    0.75    6.49
   6  -5   7  151.95   14.98
  -6   5  -7  148.37   17.87
  -6   5  -8  449.50   28.46
   6  -5   8  432.74   23.89
  -6   5  -9   25.00   11.38
   6  -5   9   20.34    8.48
  -6   5 -10  165.22   21.28
   6  -4 -10    6.64   10.69
  -6   4  10    1.14   13.06
   6  -4  -9   20.16   11.28
  -6   4   9   59.35   17.11
  -6   4   8   10.94   12.84
   6  -4  -8   14.30   10.57
   6  -4  -8    3.56    6.27
   6  -4  -7   91.70   14.24
   6  -4  -7  101.78   12.82
  -6   4   6  235.98   24.17
   6  -4  -6  238.20   19.06
   6  -4  -6  218.68   16.84
   6  -4  -5    2.27    5.07
  -6   4   5    3.26   10.23
   6  -4  -5    6.09    6.82
   6  -4  -4   20.08    6.08
   6  -4  -4    4.90    5.76
  -6   4   4   10.43    9.18
  -6   4   3   41.49   12.99
   6  -4  -3   21.94    5.70
   6  -4  -3   29.81    7.95
   6  -4  -2  339.62   15.28
  -6   4   2  347.45   25.98
   6  -4  -2  318.07   19.27
   6  -4  -1  453.79   16.94
   6  -4  -1  435.74   21.99
  -6   4   1  491.99   29.48
   6  -4   0   14.30    5.78
  -6   4   0   19.66    8.43
   6  -4   1 1461.60   40.07
  -6   4  -1 1540.54   45.03
  -6   4  -2  128.21   14.24
   6  -4   2  117.02   12.14
  -6   4  -3  464.69   24.74
   6  -4   3  433.87   22.26
   6  -4   4  464.57   23.39
  -6   4  -4  543.15   27.79
   6  -4   5   44.63    8.18
  -6   4  -5   54.68   11.16
  -6   4  -6   28.66    9.83
   6  -4   6   27.21    7.90
  -6   4  -7   69.72   14.32
   6  -4   7   51.89    9.50
  -6   4  -8  237.49   23.20
   6  -4   8  261.36   18.55
   6  -4   9  116.39   13.30
   6  -4  10   50.16   14.71
   6  -3 -11   -7.69   11.33
  -6   3  11    1.85   11.28
   6  -3 -10   15.22   11.69
  -6   3  10   18.82   12.61
   6  -3  -9    2.79    8.71
  -6   3   9    7.83    7.89
  -6   3   9   -8.71   10.70
  -6   3   8   85.22   16.58
   6  -3  -8   96.88   13.03
  -6   3   7   40.39   12.95
   6  -3  -7   18.26    8.60
   6  -3  -7   32.30    8.23
  -6   3   6  371.47   28.12
   6  -3  -6  383.74   20.77
   6  -3  -6  366.83   21.01
   6  -3  -5    4.63    5.22
  -6   3   5    8.69    9.21
   6  -3  -5   19.67    7.19
   6  -3  -4  507.67   21.13
  -6   3   4  482.10   31.16
   6  -3  -4  490.30   22.89
   6  -3  -3  259.19   15.05
  -6   3   3  316.10   24.01
   6  -3  -3  279.37   17.72
   6  -3  -2   64.82    8.04
  -6   3   2   54.25   11.45
   6  -3  -2   80.06   10.52
   6  -3  -1   20.03    5.53
   6  -3  -1   11.20    6.37
  -6   3   1   28.03    7.58
   6  -3   0   15.49    5.78
  -6   3   0   14.57    7.31
   6  -3   0    2.27    5.41
  -6   3  -1 1412.40   41.02
   6  -3   1 1458.40   38.30
   6  -3   1 1393.14   33.72
  -6   3  -2  573.28   25.65
   6  -3   2  490.63   22.31
   6  -3   2  543.99   21.48
  -6   3  -3   51.57   10.36
   6  -3   3   41.58    8.19
   6  -3   3   58.30    8.11
   6  -3   4 1279.59   37.01
  -6   3  -4 1339.92   42.82
  -6   3  -5  294.51   21.43
  -6   3  -5  315.28   17.21
   6  -3   5  286.87   17.90
  -6   3  -6   76.47   10.10
   6  -3   6   69.14   10.03
  -6   3  -6   60.05   12.33
  -6   3  -7   86.07   11.16
   6  -3   7   85.01   11.07
   6  -3   7   75.60   13.66
   6  -3   8   77.66   11.00
   6  -3   8   66.23   13.59
   6  -3   9   89.87   16.42
   6  -3  10    6.24   12.38
   6  -2 -12   14.86   12.51
  -6   2  12    1.60   12.03
   6  -2 -11   37.56   14.03
  -6   2  11   -0.80   11.04
   6  -2 -10    2.24    8.57
  -6   2  10   16.54    9.42
  -6   2  10    0.98    9.76
   6  -2  -9   96.36   14.32
  -6   2   9   68.09   11.82
  -6   2   9   76.26   14.34
   6  -2  -8  331.45   21.66
  -6   2   8  277.81   21.82
  -6   2   8  302.87   24.59
  -6   2   7   35.64   11.11
   6  -2  -7   56.18    9.69
   6  -2  -7   50.61   10.05
  -6   2   6  435.41   27.19
   6  -2  -6  478.94   22.15
   6  -2  -6  435.36   22.97
   6  -2  -5  766.91   27.33
  -6   2   5  768.06   36.70
   6  -2  -5  755.77   28.91
   6  -2  -4   41.25    6.83
   6  -2  -4   45.52    8.23
  -6   2   4   42.60   11.31
   6  -2  -3  720.90   24.36
  -6   2   3  737.40   33.45
   6  -2  -3  729.05   26.47
   6  -2  -2  322.46   16.53
   6  -2  -2  343.87   18.93
  -6   2   2  363.44   22.41
   6  -2  -1   51.80    8.67
  -6   2   1   62.92   10.55
   6  -2  -1   57.42    7.88
   6  -2   0   45.00    7.76
  -6   2   0   35.27    7.50
   6  -2   0   30.54    6.55
  -6   2  -1  269.14   16.90
   6  -2   1  247.33   15.56
   6  -2   1  282.71   17.64
   6  -2   2 1468.48   38.43
  -6   2  -2 1545.60   40.57
   6  -2   3   60.59    9.79
  -6   2  -3   47.78    8.87
   6  -2   3   63.40    9.49
  -6   2  -4 1050.64   36.21
   6  -2   4  994.80   32.12
  -6   2  -5  988.55   33.79
   6  -2   5  889.13   30.93
  -6   2  -6    0.82    6.65
   6  -2   6    1.97    5.29
   6  -2   6   -5.80    8.21
  -6   2  -7  224.31   18.67
   6  -2   7  209.94   20.50
   6  -2   7  195.76   14.88
  -6   2  -8  115.54   14.87
   6  -2   8  106.44   16.78
  -6   2  -9   53.91   12.01
   6  -2   9   33.81   11.41
   6  -1 -12   47.33   13.36
  -6   1  12   35.16   12.61
   6  -1 -11   22.71   10.50
  -6   1  11   24.73    9.81
   6  -1 -10   23.29   10.14
  -6   1  10   37.46   11.72
  -6   1  10   28.50   10.52
   6  -1  -9   75.60   12.86
  -6   1   9   51.19   10.99
  -6   1   9   54.34   12.65
   6  -1  -8   32.92    8.48
  -6   1   8   39.58    9.66
  -6   1   8   47.73   11.00
   6  -1  -7  137.61   13.80
  -6   1   7  119.14   15.07
  -6   1   7  125.51   14.65
  -6   1   6  149.57   15.28
   6  -1  -6  176.28   14.10
   6  -1  -5 1494.30   38.53
  -6   1   5 1391.90   44.60
   6  -1  -5 1510.34   40.30
   6  -1  -4  143.18   12.36
  -6   1   4  128.70   15.02
   6  -1  -4  155.64   13.68
   6  -1  -3  918.46   29.57
  -6   1   3  885.05   33.77
   6  -1  -3  937.01   31.01
   6  -1  -2  851.14   28.16
   6  -1  -2  854.86   29.02
  -6   1   2  858.97   30.54
   6  -1  -1   17.07    5.94
  -6   1   1   14.44    5.83
   6  -1  -1   14.31    5.50
  -6   1   0  171.73   13.91
   6  -1   0  157.27   12.87
   6  -1   0  177.26   15.00
   6  -1   1   -0.28    5.98
  -6   1  -1   -1.46    5.64
   6  -1   1    7.61    5.55
   6  -1   2  920.11   29.65
  -6   1  -2  887.95   30.79
  -6   1  -3  156.72   13.82
   6  -1   3  153.62   12.63
   6  -1   3  172.19   16.43
   6  -1   4   49.26   10.97
   6  -1   4   27.42    6.87
   6  -1   4   33.74    9.14
  -6   1  -5  645.81   30.68
   6  -1   5  677.44   31.06
   6  -1   5  595.11   25.51
  -6   1  -6   58.25   10.70
   6  -1   6   42.07    8.27
   6  -1   6   52.61   11.51
  -6   1  -7  195.59   18.83
   6  -1   7  176.92   15.14
   6  -1   7  182.03   20.79
  -6   1  -8  136.89   17.21
   6  -1   8   95.19   16.63
  -6   1  -9    3.58    9.50
   6  -1   9    2.74   11.98
   6   0 -13   14.91   11.78
   6   0 -12  129.13   18.74
  -6   0  12  -12.99    8.40
   6   0 -11   39.28   11.10
  -6   0  11   83.76   14.64
   6   0 -10  195.81   19.12
  -6   0  10  164.65   18.48
  -6   0  10  176.32   17.40
   6   0  -9   64.25   11.59
  -6   0   9   33.72    9.17
  -6   0   9   45.13    9.75
   6   0  -8   38.73    9.53
  -6   0   8   25.09    8.73
  -6   0   8   34.69    8.42
   6   0  -7   69.59   10.50
  -6   0   7   62.67   11.68
  -6   0   7   59.40    9.23
  -6   0   6   14.35    6.76
   6   0  -6   11.18    6.68
  -6   0   6    0.75    6.84
   6   0  -5 1018.98   33.29
  -6   0   5 1072.06   34.02
   6   0  -4 1118.07   33.82
  -6   0   4 1077.72   34.54
   6   0  -4 1046.07   33.25
   6   0  -3  120.13   11.84
  -6   0   3  113.42   11.54
   6   0  -3  128.41   12.32
   6   0  -2 1763.86   44.21
  -6   0   2 1864.02   40.73
   6   0  -2 1888.16   44.92
  -6   0   1  314.98   16.43
   6   0  -1  309.38   18.62
   6   0  -1  330.68   19.79
  -6   0   0   41.89    6.63
   6   0   0   50.53    9.80
   6   0   0   24.66    7.83
   6   0   1  312.70   18.65
  -6   0  -1  331.16   17.16
   6   0   1  331.15   21.51
  -6   0  -2  157.06   13.93
   6   0   2  167.15   14.68
   6   0   2  187.00   18.66
   6   0   3  330.55   20.43
   6   0   3  328.65   19.90
   6   0   3  369.37   25.54
   6   0   4   65.62   14.73
   6   0   4   66.77    9.84
   6   0   4   69.22   10.58
  -6   0  -5  259.49   22.66
   6   0   5  221.45   16.43
   6   0   5  227.92   20.09
  -6   0  -6  371.28   25.63
   6   0   6  361.56   25.95
  -6   0  -7   12.96    9.43
   6   0   7    0.78    8.37
  -6   0  -8  129.77   19.18
   6   0   8   98.44   18.43
   6   1 -13   18.31   11.66
  -6  -1  12  151.40   20.46
   6   1 -12  208.80   21.39
   6   1 -11  527.56   30.78
  -6  -1  11  480.65   30.95
   6   1 -10   43.98   10.81
  -6  -1  10   43.04   12.73
   6   1  -9  179.63   17.56
  -6  -1   9  160.56   18.65
   6   1  -8  218.89   17.57
  -6  -1   8  197.49   18.95
   6   1  -7   -2.20    7.19
  -6  -1   7    9.80    9.21
  -6  -1   7   -0.76    3.34
   6   1  -6    2.75    6.39
  -6  -1   6    8.32    7.74
   6   1  -5  186.55   15.07
  -6  -1   5  178.71   17.09
   6   1  -4 1290.45   38.39
  -6  -1   4 1313.27   31.88
  -6  -1   4 1321.04   42.91
   6   1  -3  128.85   13.21
  -6  -1   3  140.43   14.35
  -6  -1   3  159.27   11.72
  -6  -1   2  720.02   31.01
  -6  -1   2  664.69   21.62
   6   1  -2  699.99   29.63
  -6  -1   1 1077.90   37.95
  -6  -1   1 1009.09   26.67
   6   1  -1 1052.19   37.93
   6   1   0    7.41    8.04
  -6  -1   0   -0.75    6.23
  -6  -1   0    8.33    4.38
  -6  -1  -1  595.24   28.58
  -6  -1  -1  660.66   23.71
   6   1   1  566.98   29.00
   6   1   2    0.41    8.33
  -6  -1  -2   -4.98    6.75
   6   1   2   -4.06    5.53
  -6  -1  -3   82.29   12.04
   6   1   3   95.16   12.06
   6   1   4   47.08   13.49
  -6  -1  -4   53.48   10.90
   6   1   4   50.96   10.92
  -6  -1  -5    8.07    8.13
  -6  -1  -5    7.38    9.76
   6   1   5   23.04   10.08
  -6  -1  -6  186.23   20.40
   6   1   6  234.97   22.53
  -6  -1  -7   74.68   15.41
   6   1   7   55.81   14.03
  -6  -1  -8   -2.10   10.69
   6   1   8   30.88   13.18
   6   2 -13   41.29   13.40
   6   2 -12   30.76   11.10
  -6  -2  12   32.16   11.81
  -6  -2  11  466.57   31.37
   6   2 -11  434.25   27.73
   6   2 -10  178.47   18.48
  -6  -2  10  148.33   18.17
   6   2  -9  349.70   23.34
  -6  -2   9  328.37   24.55
   6   2  -8  445.72   25.31
  -6  -2   8  460.06   28.63
   6   2  -7   13.96    8.96
  -6  -2   7    5.30    9.10
   6   2  -6   15.84    6.47
  -6  -2   6    0.43    7.40
   6   2  -5    4.46    9.04
  -6  -2   5   -5.76    7.57
   6   2  -4  511.64   25.70
  -6  -2   4  505.17   27.61
  -6  -2   3  909.18   36.39
   6   2  -3  997.82   36.11
   6   2  -2    6.38    7.21
  -6  -2   2    0.39    7.44
  -6  -2   1 1066.09   38.08
  -6  -2   1  978.95   24.80
   6   2  -1 1102.68   41.51
  -6  -2   0   94.77    9.32
  -6  -2   0  145.59   15.41
   6   2   0  138.54   17.01
  -6  -2  -1  157.88   16.46
   6   2   1  142.94   12.37
   6   2   1  187.77   19.46
   6   2   2   38.01   13.56
  -6  -2  -2   39.21    9.92
   6   2   2   44.49    8.79
   6   2   3    6.20   10.78
  -6  -2  -3   10.98    7.29
   6   2   3    9.01    7.43
   6   2   4    3.99   10.40
  -6  -2  -4   31.37   10.06
   6   2   4   15.76    9.60
  -6  -2  -5   16.12   11.97
   6   2   5   10.60    9.14
  -6  -2  -6    0.84   11.22
   6   2   6    9.56    9.48
  -6  -2  -7   80.00   17.48
   6   2   7   79.24   17.43
   6   3 -13   43.87   13.28
  -6  -3  13   25.84   12.74
   6   3 -12   -2.77    9.80
  -6  -3  12  -13.58   12.57
  -6  -3  11  282.01   26.27
   6   3 -11  278.08   22.74
   6   3 -10  722.43   34.58
  -6  -3  10  704.25   38.72
   6   3  -9  124.19   15.01
  -6  -3   9  130.89   18.17
   6   3  -8  862.37   36.30
  -6  -3   8  865.21   40.20
   6   3  -7  209.98   18.06
  -6  -3   7  195.70   20.14
   6   3  -6  189.40   16.68
  -6  -3   6  148.36   17.32
   6   3  -5  223.07   18.61
  -6  -3   5  200.46   19.48
  -6  -3   4   76.80   13.39
   6   3  -4   91.44   13.49
  -6  -3   3  551.29   29.18
   6   3  -3  524.07   28.25
   6   3  -2   19.18   10.05
  -6  -3   2   22.26    8.44
  -6  -3   1  300.30   23.00
   6   3  -1  374.83   26.79
  -6  -3   0  854.47   35.89
   6   3   0  836.48   39.99
   6   3   1   29.80   12.24
  -6  -3  -1   24.31    7.55
   6   3   1   31.55    7.91
  -6  -3  -2  143.62   16.27
   6   3   2  122.07   13.75
   6   3   2  164.31   22.64
   6   3   3   -9.21   13.84
  -6  -3  -3   15.02    8.92
   6   3   3   -0.38    6.72
   6   3   4   42.30   16.36
  -6  -3  -4   52.23   11.73
   6   3   4   32.38   10.72
  -6  -3  -5   27.23   13.94
   6   3   5   37.05   12.70
  -6  -3  -6   58.71   17.39
   6   3   6   27.78   12.59
   6   4 -13   28.62   12.49
  -6  -4  13   19.54   14.79
   6   4 -12   15.68    9.88
  -6  -4  12   40.24   14.86
   6   4 -11   31.20   12.60
  -6  -4  11   30.39   12.69
   6   4 -10  484.24   29.88
  -6  -4  10  488.73   34.23
   6   4  -9  171.74   17.88
  -6  -4   9  185.04   22.07
   6   4  -8  172.72   18.49
  -6  -4   8  141.55   18.81
   6   4  -7  387.13   24.89
  -6  -4   7  408.13   29.54
   6   4  -6   24.05    9.05
  -6  -4   6   27.22   11.65
  -6  -4   5   83.11   15.25
   6   4  -5   73.81   12.97
   6   4  -4   90.76   13.30
  -6  -4   4   91.70   15.08
   6   4  -3   72.43   13.25
  -6  -4   3   81.87   14.75
   6   4  -2   72.18   14.26
  -6  -4   2   84.88   14.84
   6   4  -1   34.11   11.01
  -6  -4   1   27.20   10.72
  -6  -4   0  239.31   22.58
   6   4   0  204.48   21.15
   6   4   1   83.95   17.71
  -6  -4  -1   57.76   12.12
   6   4   2   65.13   16.23
  -6  -4  -2   53.82   13.00
   6   4   3   -9.23   12.99
  -6  -4  -3   -3.25    9.00
   6   4   4   14.30   15.18
  -6  -4  -5   20.25   13.47
   6   5 -13   -8.45   11.35
  -6  -5  13   17.99   12.28
   6   5 -12   62.59   14.05
  -6  -5  12   51.29   16.12
   6   5 -11    7.37    9.18
  -6  -5  11   11.82   12.43
   6   5 -10   93.37   16.36
  -6  -5  10   92.40   16.54
   6   5  -9  222.31   20.90
  -6  -5   9  205.81   23.35
   6   5  -8   75.43   13.74
  -6  -5   8   96.44   17.21
   6   5  -7  945.86   39.99
  -6  -5   7  954.31   45.31
   6   5  -6  172.53   17.88
  -6  -5   6  173.90   20.80
  -6  -5   5   97.32   16.05
   6   5  -5  120.45   15.77
   6   5  -4   29.28   11.05
  -6  -5   4   49.85   13.40
  -6  -5   3  134.31   18.17
   6   5  -3  136.74   17.46
   6   5  -2   20.92   11.92
  -6  -5   2   16.23   10.19
  -6  -5   1  147.68   17.92
   6   5  -1  170.83   21.33
   6   5   0   11.03   12.01
  -6  -5   0   26.82   10.56
   6   5   1   57.77   14.78
  -6  -5  -1   63.96   14.23
   6   5   2   14.42   13.56
  -6  -5  -2   37.80   12.32
   6   5   3   34.05   18.27
   6   6 -13   -4.45   11.90
  -6  -6  13    2.28   13.15
   6   6 -12   54.89   15.17
  -6  -6  12   86.78   19.56
   6   6 -11   45.41   13.86
  -6  -6  11   30.36   13.81
   6   6 -10  164.19   20.21
  -6  -6  10  145.74   21.75
   6   6  -9   11.24    8.96
  -6  -6   9   24.47   14.97
   6   6  -8  106.02   16.71
  -6  -6   8  122.44   19.36
   6   6  -7    9.34    9.27
  -6  -6   7    1.53    9.77
  -6  -6   6  116.97   19.54
   6   6  -6  113.52   17.15
   6   6  -5    9.39   10.30
  -6  -6   5    5.21   11.10
   6   6  -4   22.14   11.68
  -6  -6   4    2.18    9.61
   6   6  -3   91.42   16.19
  -6  -6   3   96.64   16.65
   6   6  -2   46.67   12.57
  -6  -6   2   31.15   13.39
  -6  -6   1  123.30   18.73
   6   6  -1  147.17   20.13
  -6  -6   0  385.00   28.99
   6   6   0  389.96   32.91
   6   6   1    3.58   13.61
  -6  -6  -1    1.67   10.17
   6   6   2  198.34   26.52
   6   7 -12   20.31   13.03
  -6  -7  12   31.76   17.29
   6   7 -11   12.89   11.64
  -6  -7  11   36.09   16.82
   6   7 -10   97.44   17.87
  -6  -7  10   73.14   17.79
   6   7  -9   30.87   11.91
  -6  -7   9   34.80   14.92
  -6  -7   8  131.27   20.45
   6   7  -8  201.39   21.65
  -6  -7   7  199.29   24.00
   6   7  -7  236.66   23.46
   6   7  -6   15.62   11.17
  -6  -7   6   28.72   14.08
   6   7  -5   74.43   15.36
  -6  -7   5   70.79   17.44
   6   7  -4   -4.91   10.81
  -6  -7   4    8.60   11.32
   6   7  -3    8.81   10.92
  -6  -7   3    6.76   10.72
  -6  -7   2  126.67   21.33
   6   7  -2  112.38   19.32
   6   7  -1    0.22   12.49
  -6  -7   1   -2.77   10.58
  -6  -7   0  262.24   26.06
   6   7   0  255.02   29.40
   6   7   1  112.21   23.03
   6   8 -11   25.82   12.10
  -6  -8  11   54.31   18.71
   6   8 -10   24.32   13.30
  -6  -8  10   43.64   16.49
  -6  -8   9  155.07   22.60
   6   8  -9  182.14   22.64
   6   8  -8   20.96   13.52
  -6  -8   8   14.91   12.10
  -6  -8   7  554.89   39.78
   6   8  -7  622.29   38.39
   6   8  -6   72.70   16.32
  -6  -8   6   77.40   17.13
  -6  -8   5  100.41   20.59
   6   8  -5  146.04   20.81
  -6  -8   4  155.39   22.68
   6   8  -4  193.38   24.12
   6   8  -3   29.72   14.86
  -6  -8   3   15.76   13.44
   6   8  -2   15.48   12.66
  -6  -8   2    0.92   11.06
   6   8  -1   22.54   18.43
  -6  -8   1   25.48   13.89
   6   9  -8   11.10   13.35
  -6  -9   8   24.85   16.98
   6   9  -7  173.23   23.85
  -6  -9   7  157.59   25.10
   6   9  -6  397.44   34.97
  -6  -9   6  317.35   33.48
   6   9  -5   13.46   15.47
  -6  -9   5   -3.12   12.86
  -7  10   0   12.47   13.98
   7 -10   0  -27.25   13.66
  -7  10  -1  118.96   22.82
   7 -10   1  141.19   21.82
  -7  10  -2  198.46   27.75
   7 -10   2  198.38   25.44
  -7  10  -3   38.30   17.43
   7 -10   3    1.57   12.68
  -7  10  -4  125.80   21.89
   7 -10   4  139.66   23.39
  -7   9   3   -5.05   15.78
   7  -9  -3   -1.48   10.57
  -7   9   2    4.27   15.27
   7  -9  -2    5.47   10.72
   7  -9  -1   88.54   16.60
  -7   9   1   60.52   19.30
  -7   9   0   46.79   17.70
   7  -9   0   49.45   14.01
  -7   9  -1   25.67   15.13
   7  -9   1   26.44   12.84
  -7   9  -2  240.34   28.77
   7  -9   2  294.65   28.09
  -7   9  -3   68.10   18.53
   7  -9   3   92.44   18.88
   7  -9   4   59.54   15.87
  -7   9  -4   71.61   19.59
  -7   9  -5  119.55   20.81
   7  -9   5  181.82   25.15
  -7   9  -6    9.69   12.46
   7  -9   6    7.25   12.72
  -7   8   5  123.51   25.06
   7  -8  -5   88.22   15.21
  -7   8   4   40.68   18.77
   7  -8  -4   13.13   10.46
  -7   8   3   16.92   16.08
   7  -8  -3    1.24    9.87
   7  -8  -2   36.67   12.54
  -7   8   2   52.50   17.42
  -7   8   1   80.47   19.96
   7  -8  -1   93.18   16.10
  -7   8   0   27.21   15.65
   7  -8   0   25.35   12.28
  -7   8  -1    2.66   13.48
   7  -8   1   22.17   12.29
   7  -8   2  326.12   27.43
  -7   8  -2  334.99   30.61
   7  -8   3  498.47   32.60
  -7   8  -3  467.98   34.86
  -7   8  -4   27.67   11.26
   7  -8   4   16.90   12.22
   7  -8   5  271.01   25.66
  -7   8  -5  309.32   27.65
  -7   8  -6  103.41   17.85
   7  -8   6  119.29   17.94
  -7   8  -7    8.51   11.31
   7  -8   7  -11.08   10.95
  -7   7   6  -11.48   14.24
   7  -7  -6   23.82    9.69
  -7   7   5   94.03   22.52
   7  -7  -5  114.63   15.91
  -7   7   4  258.29   31.27
   7  -7  -4  221.00   21.02
   7  -7  -3   -1.80    9.18
  -7   7   3  -18.54   14.54
  -7   7   2  107.14   22.41
   7  -7  -2   87.05   14.24
  -7   7   1   46.75   14.27
   7  -7  -1   24.95   11.33
  -7   7   0   -0.62   11.42
   7  -7   0   12.13    8.37
  -7   7  -1    5.47   11.01
   7  -7   1   20.72   10.24
   7  -7   2   80.59   14.23
  -7   7  -2   42.27   14.69
   7  -7   3  416.63   28.56
  -7   7  -3  416.02   30.47
  -7   7  -4   57.27   14.58
   7  -7   4   74.18   14.83
  -7   7  -5  135.95   19.12
   7  -7   5  155.20   19.05
  -7   7  -6  274.17   26.24
   7  -7   6  248.66   23.71
  -7   7  -7   21.73   11.54
   7  -7   7    0.05   10.09
   7  -7   8    4.39    9.84
  -7   7  -8   36.73   14.80
  -7   6   8   -4.29   14.52
  -7   6   7   66.56   19.85
   7  -6  -7   62.68   12.92
  -7   6   6   61.12   17.65
   7  -6  -6   77.72   13.69
  -7   6   5   15.21   13.56
   7  -6  -5   21.49    9.77
  -7   6   4  409.92   35.33
   7  -6  -4  426.49   26.31
  -7   6   3  200.29   27.09
   7  -6  -3  137.12   16.17
  -7   6   2   98.51   18.37
   7  -6  -2  122.65   15.28
  -7   6   1  117.45   18.90
   7  -6  -1  109.37   14.20
  -7   6   0   68.06   14.60
   7  -6   0   70.68   12.65
   7  -6   1    2.90    7.63
  -7   6  -1    1.14    9.79
  -7   6  -2   -5.62    8.90
   7  -6   2    7.52    9.73
  -7   6  -3   64.73   14.07
   7  -6   3   63.41   12.81
  -7   6  -4  197.19   20.49
   7  -6   4  174.16   17.98
  -7   6  -5   22.19   11.63
   7  -6   5   -0.09    8.16
  -7   6  -6  332.35   27.00
   7  -6   6  231.91   20.20
  -7   6  -7   71.67   15.48
   7  -6   7   87.74   13.34
  -7   6  -8   16.56   12.07
   7  -6   8   16.94    9.11
  -7   5   9   -7.07   12.56
  -7   5   8   37.68   15.45
   7  -5  -8   18.86   10.98
   7  -5  -8   -0.23    8.86
  -7   5   7   25.22   15.00
   7  -5  -7   19.18    9.34
   7  -5  -7   21.85   10.54
   7  -5  -6   12.12    8.18
  -7   5   6   -7.90   12.67
   7  -5  -6    5.30    7.74
  -7   5   5   -0.59   12.78
   7  -5  -5   -1.20    6.94
  -7   5   4  258.59   28.40
   7  -5  -4  296.73   21.71
  -7   5   3  416.39   33.27
   7  -5  -3  386.52   23.86
  -7   5   2   18.24   11.70
   7  -5  -2   23.36    9.01
  -7   5   1  497.92   34.06
   7  -5  -1  506.00   26.82
   7  -5   0  326.95   22.25
  -7   5   0  384.57   27.84
   7  -5   1    9.98    6.89
  -7   5  -1   -1.31    8.05
  -7   5  -2    7.04    7.54
   7  -5   2    4.68    7.54
  -7   5  -3  -16.93    9.10
   7  -5   3    1.18    6.97
  -7   5  -4  197.64   19.12
   7  -5   4  160.99   16.18
   7  -5   5   93.41   12.93
  -7   5  -5   99.63   14.81
  -7   5  -6   19.99   11.24
   7  -5   6   20.35    8.85
  -7   5  -7   92.36   16.76
   7  -5   7   77.06   12.70
   7  -5   8   11.24    8.19
  -7   5  -8   -2.12    9.70
   7  -4  -9    3.37   10.31
  -7   4   9    9.62   13.61
  -7   4   8   33.31   14.84
   7  -4  -8   30.59   10.90
   7  -4  -8    0.49    7.72
  -7   4   7   24.44   13.94
   7  -4  -7   18.98    9.49
   7  -4  -7    5.43    7.66
   7  -4  -6    3.06    6.22
   7  -4  -6   17.72    8.05
   7  -4  -5   69.48   10.37
  -7   4   5   79.57   17.27
   7  -4  -5   63.94   10.76
   7  -4  -4    3.63    6.15
   7  -4  -4    3.65    6.27
  -7   4   4    0.33   11.07
   7  -4  -3  134.04   11.77
  -7   4   3  152.38   21.36
   7  -4  -3  143.60   14.83
  -7   4   2   98.90   17.19
   7  -4  -2  109.68   13.62
   7  -4  -1  365.16   21.86
  -7   4   1  313.47   24.80
   7  -4   0  129.71   14.16
  -7   4   0  112.88   15.98
  -7   4  -1  -11.12    8.60
   7  -4   1    7.36    6.79
  -7   4  -2   54.74   10.92
   7  -4   2   47.76    8.85
  -7   4  -3   22.45    8.76
   7  -4   3   19.62    8.23
  -7   4  -4   11.04    9.98
   7  -4   4   -4.87    6.96
   7  -4   5  124.63   14.42
  -7   4  -5  111.10   16.19
   7  -4   6   68.46   11.66
  -7   4  -6   79.76   14.09
  -7   4  -7   18.36   11.20
   7  -4   7   13.34    7.38
   7  -4   8   40.55    9.67
  -7   4  -8   25.15   11.85
   7  -3 -10  175.32   21.08
  -7   3  10  144.15   21.76
   7  -3  -9   13.61   10.38
  -7   3   9    9.20    9.87
  -7   3   9   14.33   12.03
   7  -3  -8  179.74   18.77
  -7   3   8  175.01   21.27
  -7   3   7  138.24   19.74
   7  -3  -7  168.35   18.06
   7  -3  -7  206.15   19.13
   7  -3  -6    8.36    7.22
  -7   3   6    4.36   11.54
   7  -3  -6    9.68    7.96
   7  -3  -5   -0.23    6.16
  -7   3   5  -10.51   10.23
   7  -3  -5    6.20    6.42
   7  -3  -4    6.92    5.35
   7  -3  -4    8.75    7.05
  -7   3   4   26.59   10.66
   7  -3  -3   35.20    7.46
  -7   3   3   47.92   13.41
   7  -3  -3   38.91    9.44
   7  -3  -2  283.54   17.47
  -7   3   2  322.95   25.10
   7  -3  -2  299.40   19.82
   7  -3  -1    5.56    5.51
   7  -3  -1    5.65    7.59
  -7   3   1    8.04    7.60
  -7   3   0   36.98    9.17
   7  -3   0   22.79    7.04
   7  -3   0   24.00    7.68
  -7   3  -1  125.65   14.02
   7  -3   1  116.21   13.49
   7  -3   1   99.17   10.85
   7  -3   2   73.64   10.91
  -7   3  -2   77.01   11.95
  -7   3  -3   24.46    8.61
   7  -3   3   24.74    8.43
   7  -3   4  175.13   15.67
  -7   3  -4  163.23   17.07
  -7   3  -5    7.35    7.57
   7  -3   5    1.31    6.01
  -7   3  -6  254.05   21.32
   7  -3   6  251.70   19.04
  -7   3  -7   69.99   14.05
   7  -3   7   60.73   10.80
  -7   3  -8   33.52   12.99
   7  -2 -11   22.23   11.97
  -7   2  11   27.52   11.83
  -7   2  10   -6.54    9.06
  -7   2  10   -5.64    9.61
   7  -2  -9   67.41   13.83
  -7   2   9   59.92   12.05
  -7   2   9   74.86   14.61
  -7   2   8    8.67    8.41
   7  -2  -8   16.21    9.77
  -7   2   8   -6.60    8.06
  -7   2   7   87.13   14.74
   7  -2  -7   62.21   11.79
   7  -2  -6    6.95    7.28
  -7   2   6   -1.53    8.86
   7  -2  -6    5.36    7.05
   7  -2  -5   28.56    8.68
  -7   2   5   41.59   13.86
   7  -2  -5   49.66   10.09
   7  -2  -4   36.22    8.39
   7  -2  -4   41.01    9.95
  -7   2   4   45.09   13.55
   7  -2  -3  125.92   12.46
  -7   2   3  115.88   15.73
   7  -2  -3  119.30   12.92
   7  -2  -2   39.36    8.75
  -7   2   2   29.53    9.99
   7  -2  -2   31.69    8.40
   7  -2  -1  500.25   24.68
  -7   2   1  532.92   28.04
   7  -2  -1  543.43   25.51
   7  -2   0    7.12    6.90
  -7   2   0    6.54    6.72
   7  -2   0   -0.36    6.27
  -7   2  -1   74.02   11.71
   7  -2   1   85.26   10.30
   7  -2   1   74.54   10.98
  -7   2  -2   14.78    6.78
   7  -2   2    9.88    7.00
   7  -2   2   15.93    6.90
   7  -2   3   18.45    8.81
  -7   2  -3   12.97    7.24
   7  -2   3    8.25    5.64
  -7   2  -4  227.26   18.22
   7  -2   4  186.77   15.24
  -7   2  -4  174.28   16.54
  -7   2  -5    1.65    7.70
  -7   2  -5   11.74    8.71
   7  -2   5   12.44    7.21
  -7   2  -6  291.45   21.49
  -7   2  -6  286.39   23.44
   7  -2   6  271.76   19.73
   7  -2   7  356.21   21.96
   7  -2   8   25.63   13.69
   7  -1 -11  -16.00   12.07
   7  -1 -10   27.48   10.48
  -7   1  10   25.78   10.56
   7  -1  -9   99.93   14.51
  -7   1   9   70.04   13.34
   7  -1  -8   93.11   13.13
  -7   1   8   75.65   13.68
  -7   1   8   94.63   13.79
  -7   1   7   33.37    9.18
   7  -1  -7   37.82    9.33
  -7   1   7   26.30   10.74
   7  -1  -6    9.54    7.27
  -7   1   6    0.74    6.65
   7  -1  -5   36.01    8.55
  -7   1   5   22.78    8.88
   7  -1  -5   31.74    9.15
   7  -1  -4    1.08    5.60
   7  -1  -4    8.45    7.29
  -7   1   4   -4.35    6.59
   7  -1  -3  520.56   24.82
  -7   1   3  498.88   28.19
   7  -1  -3  507.67   26.61
   7  -1  -2  143.63   14.21
  -7   1   2  117.08   13.57
   7  -1  -2  154.74   15.40
   7  -1  -1  463.87   23.87
  -7   1   1  469.16   23.86
   7  -1  -1  476.68   25.66
  -7   1   0  436.58   22.52
   7  -1   0  418.82   23.10
   7  -1   0  436.93   26.26
   7  -1   1   75.90   12.39
  -7   1  -1   73.86   11.12
   7  -1   1   81.22   11.07
   7  -1   2  112.34   12.89
  -7   1  -2  117.97   12.80
   7  -1   2  120.34   17.06
   7  -1   3   31.72   11.18
  -7   1  -3   27.96    9.65
   7  -1   3   20.05    7.50
  -7   1  -4   21.12    9.53
   7  -1   4   33.81   10.14
  -7   1  -5   68.40   13.21
   7  -1   5   77.86   12.42
  -7   1  -6   77.31   14.66
   7  -1   6   78.17   12.08
   7  -1   6   97.98   15.58
  -7   1  -7  275.73   23.49
   7  -1   7  235.46   24.44
   7   0 -12   29.56   13.67
   7   0 -11   -6.48   10.65
  -7   0  11   16.11   11.28
   7   0 -10  140.98   18.11
  -7   0  10  115.18   17.64
   7   0  -9    8.12    8.54
  -7   0   9   -6.92    8.15
   7   0  -8  190.64   18.28
  -7   0   8  181.78   19.80
   7   0  -7  138.90   15.53
  -7   0   7  135.57   16.57
   7   0  -6    6.06    6.96
  -7   0   6   12.84    9.47
   7   0  -5    2.38    6.74
  -7   0   5   22.11   10.06
  -7   0   5   15.79    7.47
   7   0  -4   12.55    7.08
  -7   0   4   24.40    9.73
  -7   0   4   13.37    7.57
  -7   0   3  197.17   16.18
   7   0  -3  216.25   17.36
   7   0  -3  241.39   18.38
   7   0  -2  277.80   19.56
  -7   0   2  266.97   17.91
   7   0  -2  293.50   21.27
  -7   0   1  139.30   12.89
   7   0  -1  151.95   14.63
   7   0  -1  173.02   17.73
  -7   0   0 1435.79   38.51
   7   0   0 1421.52   42.58
   7   0   1  525.09   26.70
  -7   0  -1  520.45   23.63
   7   0   2  187.16   16.23
   7   0   2  179.91   19.53
  -7   0  -2  202.04   16.20
  -7   0  -3  285.12   19.68
   7   0   3  286.54   19.28
   7   0   3  309.84   27.15
   7   0   4   74.13   16.78
  -7   0  -5   40.10   10.73
  -7   0  -5   49.09   12.97
   7   0   5   47.39   12.53
  -7   0  -6   -0.58    9.89
   7   0   6    8.31   10.58
  -7   0  -7  156.39   21.12
   7   0   7  140.20   19.69
   7   1 -12    4.80   10.09
  -7  -1  12   24.70   14.16
   7   1 -11   -8.69    9.49
  -7  -1  11    6.57   10.63
   7   1 -10   68.40   14.18
  -7  -1  10   61.51   14.17
   7   1  -9  284.90   23.22
  -7  -1   9  316.08   25.54
   7   1  -8    9.91    8.12
  -7  -1   8   32.29   11.09
   7   1  -7  616.67   29.99
  -7  -1   7  531.94   31.52
   7   1  -6  112.06   14.41
  -7  -1   6  121.14   15.38
   7   1  -5    3.17    7.25
  -7  -1   5   -3.15    8.92
   7   1  -4   30.05    8.92
  -7  -1   4   32.92    9.41
   7   1  -3   -0.99    8.03
  -7  -1   3   15.90   10.63
  -7  -1   2  394.14   26.76
   7   1  -2  439.70   26.56
   7   1  -1   63.92   12.92
  -7  -1   1   45.21    8.04
  -7  -1   1   41.51   11.47
  -7  -1   0  766.41   35.10
  -7  -1   0  696.02   25.97
  -7  -1  -1  886.07   38.15
  -7  -1  -1  817.49   28.92
   7   1   1  778.11   38.75
   7   1   2    0.81   10.21
  -7  -1  -2   10.01    7.56
  -7  -1  -2    1.29    8.88
  -7  -1  -3  410.18   27.42
   7   1   3  423.95   26.15
   7   1   3  431.16   34.12
  -7  -1  -4  209.75   20.74
   7   1   4  217.08   20.32
   7   1   4  257.68   27.27
  -7  -1  -5   18.76   12.83
   7   1   5    8.75   10.27
  -7  -1  -6  -26.80   15.66
   7   1   6  -16.07   11.71
   7   2 -12   -2.51   10.50
  -7  -2  12  -11.40   12.35
   7   2 -11   12.91   10.67
  -7  -2  11   -4.43   10.61
   7   2 -10    5.35    8.51
  -7  -2  10   16.83   11.58
   7   2  -9  414.03   28.14
  -7  -2   9  398.50   29.32
   7   2  -8   36.75    9.66
  -7  -2   8   33.75   12.22
   7   2  -7  536.12   29.21
  -7  -2   7  559.72   32.10
   7   2  -6  910.92   37.44
  -7  -2   6  946.99   40.74
   7   2  -5   10.85    8.65
  -7  -2   5    6.37    8.11
  -7  -2   4  214.97   19.62
   7   2  -4  214.83   19.74
  -7  -2   3  158.95   17.83
   7   2  -3  137.80   17.06
  -7  -2   2  145.55   17.73
   7   2  -2  189.94   19.91
   7   2  -1  106.44   15.76
  -7  -2   1  132.88   16.30
   7   2   0   90.57   15.99
  -7  -2   0   91.12   14.68
  -7  -2  -1  651.11   32.10
   7   2   1  622.04   38.10
  -7  -2  -2  185.38   18.50
   7   2   2  152.88   22.07
  -7  -2  -3  240.51   22.36
   7   2   3  248.41   20.95
   7   2   3  229.62   25.46
  -7  -2  -4  371.86   25.98
   7   2   4  365.11   27.07
   7   2   4  364.01   35.12
  -7  -2  -5   26.57   14.62
   7   3 -12   12.12   12.41
  -7  -3  12   37.21   16.12
   7   3 -11   -4.57   10.20
  -7  -3  11  -13.76   12.05
   7   3 -10  -26.97   12.43
  -7  -3  10   -5.09   10.38
   7   3  -9  146.71   17.77
  -7  -3   9  130.03   19.47
   7   3  -8  238.33   21.16
  -7  -3   8  209.34   21.81
   7   3  -7   74.18   12.44
  -7  -3   7   69.21   15.00
   7   3  -6 1052.86   41.14
  -7  -3   6 1137.91   46.43
  -7  -3   5  209.66   21.35
   7   3  -5  238.51   20.27
  -7  -3   4  138.74   18.27
   7   3  -4  177.97   18.60
  -7  -3   3  622.05   33.36
   7   3  -3  539.17   31.37
  -7  -3   2   80.12   15.14
   7   3  -2  103.50   16.54
   7   3  -1   96.09   16.53
  -7  -3   1   92.36   14.95
   7   3   0   12.63    9.52
  -7  -3   0   26.44    9.48
  -7  -3  -1  184.48   20.61
   7   3   1  230.46   26.13
  -7  -3  -2  335.83   25.67
   7   3   2  298.85   30.81
   7   3   3   39.89   16.54
  -7  -3  -3   15.91    9.52
   7   3   4  322.72   33.49
   7   4 -12  150.25   21.18
  -7  -4  12   88.92   19.91
   7   4 -11  -13.42    9.26
  -7  -4  11    1.94   13.03
   7   4 -10  -10.23   10.43
  -7  -4  10   16.42   11.10
   7   4  -9    0.05   10.29
  -7  -4   9   23.36   12.89
   7   4  -8  324.11   24.91
  -7  -4   8  328.21   28.36
   7   4  -7  161.75   18.78
  -7  -4   7  161.04   20.49
   7   4  -6  364.58   26.41
  -7  -4   6  312.74   26.37
  -7  -4   5  732.79   39.71
   7   4  -5  686.64   36.15
   7   4  -4   11.21   10.31
  -7  -4   4    1.77    8.97
  -7  -4   3  694.15   37.26
   7   4  -3  664.83   37.58
   7   4  -2  124.99   18.08
  -7  -4   2  166.92   19.25
   7   4  -1    3.65   10.85
  -7  -4   1    5.51    9.78
   7   4   0   16.74   14.21
  -7  -4   0   -4.82    9.76
   7   4   1   25.52   15.59
  -7  -4  -1   15.94   11.81
  -7  -4  -2  183.37   22.07
   7   4   2  204.73   28.80
   7   4   3   51.76   17.27
  -7  -5  12  269.70   29.99
   7   5 -12  241.20   23.83
   7   5 -11    7.19   12.03
  -7  -5  11   11.32   12.19
   7   5 -10  178.99   21.22
  -7  -5  10  198.37   24.78
   7   5  -9   58.69   13.88
  -7  -5   9   90.07   18.73
   7   5  -8  121.82   17.73
  -7  -5   8  158.40   22.31
   7   5  -7  222.09   22.28
  -7  -5   7  155.24   22.75
   7   5  -6   53.58   14.34
  -7  -5   6   31.12   12.95
  -7  -5   5  644.44   39.86
   7   5  -5  670.19   37.27
  -7  -5   4  244.33   25.09
   7   5  -4  214.66   23.63
  -7  -5   3  122.73   18.23
   7   5  -3  155.10   19.98
  -7  -5   2  306.92   28.12
   7   5  -2  327.01   30.15
   7   5  -1  -15.58   13.28
  -7  -5   1   12.41   12.10
   7   5   0   32.89   16.09
  -7  -5   0   12.03   10.43
   7   5   1    4.50   15.69
  -7  -5  -1  -12.64   13.69
   7   5   2   17.73   17.00
   7   6 -11  123.13   18.92
  -7  -6  11  134.78   24.35
   7   6 -10   81.19   16.12
  -7  -6  10   92.58   20.24
   7   6  -9   99.72   18.49
  -7  -6   9   87.50   16.49
   7   6  -8   36.63   13.28
  -7  -6   8   65.07   16.28
   7   6  -7   16.30   11.12
  -7  -6   7   16.89   12.68
   7   6  -6   16.79   12.88
  -7  -6   6   14.61   12.42
  -7  -6   5  199.24   23.92
   7   6  -5  250.64   25.36
  -7  -6   4  386.81   33.39
   7   6  -4  337.47   29.69
   7   6  -3   17.34   12.25
  -7  -6   3    2.97   12.12
  -7  -6   2  374.61   31.58
   7   6  -2  357.55   32.46
   7   6  -1   24.84   15.03
  -7  -6   1   63.46   17.13
   7   6   0   17.65   13.56
  -7  -6   0   26.69   12.89
   7   7 -10    5.27   12.80
  -7  -7  10    8.27   15.73
  -7  -7   9  255.92   29.84
   7   7  -9  285.43   27.67
   7   7  -8   36.73   15.17
  -7  -7   8   14.91   13.46
   7   7  -7   25.14   11.82
  -7  -7   7   11.23   13.46
   7   7  -6   -0.69   11.45
  -7  -7   6  -12.78   14.50
   7   7  -5    0.87   12.48
  -7  -7   5   10.62   13.42
   7   7  -4   90.49   18.89
  -7  -7   4   66.85   17.22
   7   7  -3   64.50   19.34
  -7  -7   3   53.05   15.03
   7   7  -2   28.85   13.89
  -7  -7   2   32.10   13.50
  -8   8   3   23.97   15.32
   8  -8  -3   53.52   14.85
   8  -8  -2   25.12   12.21
  -8   8   2   31.56   17.16
  -8   8   1  190.63   28.15
   8  -8  -1  119.47   18.52
  -8   8   0  141.81   24.01
   8  -8   0  132.71   19.75
  -8   8  -1   32.18   15.71
   8  -8   1  -14.43   11.48
  -8   8  -2    7.64   13.77
   8  -8   2   13.18   10.91
   8  -8   3   32.82   13.98
  -8   8  -3   35.16   16.05
   8  -8   4  153.15   21.43
  -8   8  -4  142.00   22.70
  -8   7   5   25.60   16.76
   8  -7  -5   27.31   11.32
  -8   7   4   25.23   18.12
   8  -7  -4    5.30   10.43
   8  -7  -3   59.42   13.31
  -8   7   3   76.19   21.89
  -8   7   2  144.69   24.54
   8  -7  -2  180.29   20.68
  -8   7   1    5.74   12.89
   8  -7  -1   19.28   10.60
  -8   7   0  180.62   26.09
   8  -7   0  174.52   21.22
  -8   7  -1  115.93   20.95
   8  -7   1  105.79   16.94
   8  -7   2    0.85    9.99
  -8   7  -2    8.93   10.55
   8  -7   3   35.32   13.06
  -8   7  -3   33.01   13.90
  -8   7  -4   61.98   16.48
   8  -7   4   70.79   13.75
  -8   7  -5  110.53   18.60
   8  -7   5  123.57   17.91
  -8   6   6   22.10   16.60
   8  -6  -6  -12.03   10.14
  -8   6   5   11.00   15.86
   8  -6  -5    6.64    8.88
  -8   6   4   24.14   15.96
   8  -6  -4   21.92   10.58
   8  -6  -3   54.25   13.06
  -8   6   3   49.59   17.41
  -8   6   2  130.64   21.90
   8  -6  -2  142.07   17.86
  -8   6   1   86.18   18.82
   8  -6  -1  118.74   17.26
  -8   6   0  208.42   24.57
   8  -6   0  247.90   22.36
   8  -6   1  352.19   25.94
  -8   6  -1  306.82   28.36
   8  -6   2   20.34   11.28
  -8   6  -2   27.31   12.26
  -8   6  -3   75.36   15.75
   8  -6   3   70.74   14.52
  -8   6  -4  139.67   20.51
   8  -6   4   96.58   16.23
  -8   6  -5  117.55   18.53
   8  -6   5  115.42   16.32
  -8   6  -6  134.58   21.13
   8  -6   6   94.17   15.04
  -8   5   7   43.75   17.39
   8  -5  -7   68.47   13.92
  -8   5   6   92.93   22.77
   8  -5  -6   84.37   14.81
  -8   5   5   12.96   13.60
   8  -5  -5   15.28    9.83
   8  -5  -4   14.14    9.35
  -8   5   4   11.48   11.24
  -8   5   3   34.09   14.47
   8  -5  -3   25.62   10.03
  -8   5   2  171.77   23.07
   8  -5  -2  161.00   17.45
  -8   5   1  483.66   34.68
   8  -5  -1  426.64   26.63
   8  -5   0   23.24    9.90
  -8   5   0    7.97   11.40
   8  -5   1  474.21   27.83
  -8   5  -1  430.84   30.80
   8  -5   2  165.78   18.17
  -8   5  -2  191.68   21.67
  -8   5  -3   45.46   12.89
   8  -5   3   32.12    9.69
  -8   5  -4  158.28   19.61
   8  -5   4  149.68   16.93
  -8   5  -5   38.07   13.42
   8  -5   5   37.66    9.91
   8  -5   6   27.78   10.63
  -8   5  -6   33.53   12.83
  -8   4   8  139.07   21.52
   8  -4  -8  183.72   20.12
  -8   4   7   16.58   14.79
   8  -4  -7   23.28   11.92
  -8   4   6  115.07   20.52
   8  -4  -6  121.04   16.70
  -8   4   5   77.81   18.15
   8  -4  -5   38.31   10.97
   8  -4  -4    2.39    7.47
  -8   4   4   14.99   14.24
  -8   4   3   18.49   12.90
   8  -4  -3   13.18    9.17
  -8   4   2  124.23   19.08
   8  -4  -2   94.86   14.02
   8  -4  -1  240.33   19.80
  -8   4   1  193.44   22.51
   8  -4   0   56.10   11.44
  -8   4   0   59.56   13.96
   8  -4   1  255.13   20.27
  -8   4  -1  282.86   23.85
  -8   4  -2  615.46   33.24
   8  -4   2  522.79   28.72
  -8   4  -3   31.86   10.81
   8  -4   3   30.49   10.58
  -8   4  -4  165.41   18.82
   8  -4   4  112.48   14.42
  -8   4  -5   82.26   15.35
   8  -4   5   83.92   14.38
  -8   4  -6    8.92   10.51
   8  -4   6   14.45    8.10
   8  -3  -9   55.58   15.45
  -8   3   9   26.47   11.36
   8  -3  -8  243.80   23.59
  -8   3   8  214.58   24.41
  -8   3   8  183.48   22.32
  -8   3   7  109.17   18.13
   8  -3  -7  116.90   15.42
   8  -3  -7   93.76   14.60
   8  -3  -6  158.07   16.51
  -8   3   6  124.34   19.94
   8  -3  -6  151.57   16.97
   8  -3  -5  338.68   22.75
  -8   3   5  326.71   29.41
   8  -3  -5  309.68   22.37
   8  -3  -4   55.94   10.86
   8  -3  -4   60.46   12.56
  -8   3   4   57.54   15.09
   8  -3  -3   17.55    7.82
  -8   3   3   23.12   10.61
   8  -3  -3   16.95    8.66
  -8   3   2   63.89   14.34
   8  -3  -2   84.03   12.19
   8  -3  -1   76.31   12.75
  -8   3   1   76.48   13.91
   8  -3   0  217.88   18.15
  -8   3   0  250.72   21.64
  -8   3  -1   33.44   10.10
   8  -3   1   50.80   15.68
  -8   3  -2  523.42   30.33
   8  -3   2  457.77   26.42
  -8   3  -3  142.54   17.68
   8  -3   3  166.15   17.64
  -8   3  -4   79.14   14.77
   8  -3   4   38.50   10.07
   8  -3   5  163.15   16.60
  -8   3  -5  156.15   19.59
   8  -3   6   14.76    8.94
  -8   3  -6   15.05   11.29
   8  -2 -10   21.24   12.20
  -8   2  10   18.52   12.43
   8  -2  -9   -5.03   10.73
  -8   2   9    4.14    9.94
   8  -2  -8  157.09   18.66
  -8   2   8   87.63   15.99
  -8   2   7  211.17   20.53
   8  -2  -7  195.91   20.13
  -8   2   7  235.18   23.68
   8  -2  -6    0.26    7.86
  -8   2   6    2.44    9.58
   8  -2  -6   -2.40    8.19
   8  -2  -5  627.88   30.19
   8  -2  -5  690.21   33.48
   8  -2  -4  254.47   19.79
  -8   2   4  248.98   24.50
   8  -2  -4  236.51   20.52
   8  -2  -3   54.22   10.87
  -8   2   3   47.75   12.78
   8  -2  -3   55.67   11.29
   8  -2  -2  147.92   16.47
  -8   2   2   95.40   14.99
   8  -2  -2  134.56   14.76
   8  -2  -1   39.40   10.61
   8  -2  -1   52.06   11.03
  -8   2   1   32.49   10.18
   8  -2   0  111.75   13.81
  -8   2   0   97.48   14.10
   8  -2   0  109.14   14.97
   8  -2   1   33.09   11.16
  -8   2  -1   32.33   10.41
   8  -2   1   16.86    7.86
  -8   2  -2  117.78   14.47
   8  -2   2  119.69   15.06
   8  -2   3  311.17   21.90
  -8   2  -3  345.62   24.19
  -8   2  -4   23.19   11.04
   8  -2   4   20.35    8.92
   8  -2   5   52.90   11.54
  -8   2  -5   61.14   13.90
  -8   2  -6   11.60   10.26
   8  -2   6   24.49    9.55
   8  -1 -10    5.05   10.77
  -8   1  10   -1.58   10.39
   8  -1  -9    0.99    9.32
  -8   1   9   -0.47    9.26
   8  -1  -8   30.79   10.80
  -8   1   8   37.88   12.13
   8  -1  -7  158.07   18.15
  -8   1   7  129.64   17.81
   8  -1  -6  112.20   14.64
  -8   1   6  129.71   18.17
   8  -1  -5  218.64   19.71
   8  -1  -4  397.90   24.81
   8  -1  -4  368.58   23.87
   8  -1  -3    8.19    7.69
  -8   1   3   12.64    8.51
   8  -1  -3    4.56    7.70
   8  -1  -2  131.54   15.13
  -8   1   2  133.00   15.51
   8  -1  -2  145.91   16.59
   8  -1  -1   38.07   11.14
   8  -1  -1   37.20   10.19
  -8   1   1   20.53    9.33
   8  -1   0   18.16    9.57
  -8   1   0   20.51    7.56
   8  -1   0   29.11    9.66
   8  -1   1    9.53   10.70
  -8   1  -1    6.47    7.17
   8  -1   1   -7.64    7.45
   8  -1   2    0.17    9.91
   8  -1   2    7.46    7.70
  -8   1  -2    2.01    7.15
   8  -1   3  109.16   13.64
  -8   1  -3  105.14   14.22
   8  -1   3  128.93   19.77
  -8   1  -4   65.42   12.75
   8  -1   4   64.30   11.25
  -8   1  -4   79.10   14.20
  -8   1  -5  -10.79   11.47
   8  -1   5   -2.07    7.72
   8   0 -10    8.39   10.63
  -8   0  10   12.54   10.74
   8   0  -9   59.07   14.52
  -8   0   9   48.70   12.35
   8   0  -8   29.43   12.03
  -8   0   8   24.57   10.83
   8   0  -7   58.78   12.47
  -8   0   7   27.69   10.93
   8   0  -6   66.32   12.49
  -8   0   6   59.38   12.91
   8   0  -5   -7.26    7.78
  -8   0   5    3.48    8.34
  -8   0   4  405.98   27.28
   8   0  -4  421.24   26.32
  -8   0   3  224.52   20.68
   8   0  -3  234.54   21.48
   8   0  -2   50.36   12.16
  -8   0   2   37.34   10.56
   8   0  -1   72.74   14.83
   8   0   0   57.64   14.39
  -8   0   0   30.04    9.07
   8   0   1   -0.93   10.24
  -8   0  -1   -1.59    6.33
  -8   0  -2  111.35   16.87
  -8   0  -2  118.96   14.41
   8   0   2  132.59   20.09
   8   0   3   25.00   13.10
  -8   0  -3   34.77   11.56
  -8   0  -3   31.66   10.97
  -8   0  -4   34.60   11.34
  -8   0  -4   55.23   12.76
  -8   0  -5   42.19   13.30
  -8   0  -5   62.72   14.52
   8   1 -11  116.33   19.28
  -8  -1  11   92.79   18.50
   8   1 -10   33.57   11.96
  -8  -1  10   49.76   15.72
   8   1  -9   51.02   14.26
  -8  -1   9   77.19   15.95
   8   1  -8   -4.09    9.78
  -8  -1   8   11.44   11.40
   8   1  -7   51.22   11.97
  -8  -1   7   37.19   11.95
   8   1  -6    7.96    8.40
  -8  -1   6   11.13    9.21
   8   1  -5  107.51   14.95
  -8  -1   5  109.62   17.83
   8   1  -4   19.41   10.07
  -8  -1   4   23.77   11.11
  -8  -1   3  185.73   19.04
   8   1  -3  194.69   20.70
   8   1  -2    4.81    8.66
  -8  -1   2   10.97    9.20
   8   1  -1   36.56   12.39
  -8  -1   1   67.87   13.18
   8   1   0   -7.06   10.57
  -8  -1   0  -16.24    9.74
   8   1   1   15.29   11.40
  -8  -1  -1   20.54   10.82
   8   1   2   14.31   11.99
  -8  -1  -2   21.66   11.61
  -8  -1  -3  164.59   20.20
   8   1   3  203.00   26.73
  -8  -1  -4    6.14   10.57
   8   2 -11   48.02   14.79
  -8  -2  11   54.92   16.44
   8   2 -10  178.92   21.17
  -8  -2  10  165.35   22.15
   8   2  -9  -10.99   10.80
  -8  -2   9    4.63    9.97
   8   2  -8   51.61   13.57
  -8  -2   8   18.16   11.43
   8   2  -7    3.76    9.90
  -8  -2   7   17.97   11.44
   8   2  -6   41.32   12.40
  -8  -2   6   48.06   12.77
  -8  -2   5  114.28   17.16
   8   2  -5  114.78   16.68
  -8  -2   4  196.24   21.14
   8   2  -4  184.79   19.89
   8   2  -3    6.20    9.36
  -8  -2   3   25.71   11.61
  -8  -2   2  264.62   23.92
   8   2  -2  220.04   23.53
   8   2  -1   28.09   12.65
  -8  -2   1   20.91   10.42
   8   2   0  -12.65   10.90
  -8  -2   0  -21.68   10.25
   8   2   1    0.38   11.73
  -8  -2  -1   -8.97    9.42
   8   2   2    7.32   15.09
  -8  -2  -2    4.77   10.26
  -8  -2  -3  360.07   28.41
   8   2   3  411.02   36.46
   8   3 -11   10.97   11.05
  -8  -3  11   30.38   16.21
   8   3 -10   46.99   14.70
  -8  -3  10   25.10   13.33
   8   3  -9   56.43   14.20
  -8  -3   9   54.61   15.39
   8   3  -8   42.68   14.16
  -8  -3   8   -5.88   10.23
   8   3  -7   -6.54   11.32
  -8  -3   7    8.27   11.20
   8   3  -6   64.69   13.22
  -8  -3   6   65.47   14.15
   8   3  -5   13.30   10.31
  -8  -3   5    2.10    9.90
  -8  -3   4  404.92   30.85
   8   3  -4  476.08   32.15
  -8  -3   3  175.32   21.00
   8   3  -3  203.44   23.05
  -8  -3   2  119.01   18.81
   8   3  -2  134.04   21.21
  -8  -3   1  195.37   21.45
   8   3  -1  227.05   26.40
   8   3   0    5.94   12.71
  -8  -3   0   14.68   11.09
   8   3   1   -4.85   12.32
  -8  -3  -1  -13.64   11.11
   8   3   2   19.51   15.78
  -8  -3  -2   34.94   13.85
   8   4 -10   69.33   15.92
  -8  -4  10   65.57   16.78
   8   4  -9   80.55   16.42
  -8  -4   9   78.79   19.09
   8   4  -8   28.14   13.14
  -8  -4   8   14.66   13.37
   8   4  -7    5.75   12.42
  -8  -4   7   -9.35   11.23
   8   4  -6   -6.49   11.62
  -8  -4   6    4.13   11.54
   8   4  -5   11.95   12.45
  -8  -4   5   24.77   13.57
  -8  -4   4  251.06   25.32
   8   4  -4  257.38   26.03
  -8  -4   3  445.01   33.22
   8   4  -3  518.90   35.99
   8   4  -2   15.86   14.48
  -8  -4   2    8.33   10.92
  -8  -4   1  420.26   31.82
   8   4  -1  356.60   31.68
  -8  -4   0  178.45   22.92
   8   4   0  172.22   25.77
   8   5  -9   12.71   12.65
  -8  -5   9    3.44   12.14
  -8  -5   8  230.46   27.04
   8   5  -8  154.82   21.71
   8   5  -7   40.25   14.45
  -8  -5   7   27.54   13.25
   8   5  -6   20.36   12.85
  -8  -5   6  -12.63   11.52
   8   5  -5    4.30   11.78
  -8  -5   5    5.33   11.60
   8   5  -4   23.03   12.77
  -8  -5   4   21.34   14.79
  -8  -5   3  294.74   28.01
   8   5  -3  337.19   32.64
   8   5  -2  107.60   21.57
  -8  -5   2   73.04   17.60
   8   5  -1   96.28   19.31
  -8  -5   1  152.90   22.92
  -8  -6   7  228.39   27.87
   8   6  -7  293.00   28.78
   8   6  -6   17.93   12.72
  -8  -6   6   12.63   13.30
   8   6  -5    1.47   12.70
  -8  -6   5   -7.04   12.47
   9  -6  -3   37.67   11.83
  -9   6   3   44.51   17.53
  -9   6   2   15.16   15.45
   9  -6  -2    3.47    9.00
  -9   6   1   -6.27   12.91
   9  -6  -1  -10.43    9.59
  -9   6   0   49.57   14.99
   9  -6   0   36.25   12.48
   9  -6   1   -6.04    9.60
  -9   6  -1   24.57   13.72
   9  -6   2  122.92   18.82
  -9   6  -2  144.67   22.69
  -9   5   5   52.23   18.94
   9  -5  -5   42.69   12.18
   9  -5  -4   73.64   14.52
  -9   5   4   61.69   18.21
  -9   5   3  -11.05   13.74
   9  -5  -3    1.32    9.30
  -9   5   2   -2.42   13.01
   9  -5  -2    9.34    9.49
  -9   5   1   12.38   12.27
   9  -5  -1   -2.74    9.17
  -9   5   0   -3.48   11.65
   9  -5   0    3.55    8.95
   9  -5   1   15.86    9.09
  -9   5  -1   30.16   12.80
  -9   5  -2    1.65   10.95
   9  -5   2    3.15    8.86
   9  -5   3  190.91   20.23
  -9   5  -3  267.12   26.20
   9  -4  -6   28.53   11.90
  -9   4   5   11.85   11.95
   9  -4  -5   16.56   10.55
  -9   4   4  178.57   26.24
   9  -4  -4  200.47   21.22
  -9   4   3   83.07   18.08
   9  -4  -3  115.00   16.23
  -9   4   2    6.68   12.09
   9  -4  -2    5.93    9.02
   9  -4  -1  120.56   15.95
  -9   4   1  128.47   21.37
   9  -4   0   47.07   12.21
  -9   4   0   77.30   16.15
   9  -4   1   74.17   14.27
  -9   4  -1   54.36   13.49
  -9   4  -2   28.81   13.45
   9  -4   2   10.83   10.24
  -9   4  -3  193.04   21.93
   9  -4   3  169.66   18.15
   9  -3  -6   58.93   13.05
   9  -3  -5   39.91   12.42
   9  -3  -4  109.97   16.45
  -9   3   3  259.59   26.90
   9  -3  -3  235.99   22.57
  -9   3   2   18.06   12.00
   9  -3  -2    3.83    7.95
   9  -3  -1  161.59   18.27
  -9   3   1  162.41   20.47
   9  -3   0   96.03   15.15
  -9   3   0   89.03   17.04
  -9   3  -1   12.62   10.76
   9  -3   1   19.47    8.18
  -9   3  -2   -9.16    9.17
   9  -3   2    4.63    8.54
  -9   3  -3    5.56   10.44
   9  -3   3    8.79    8.63
  -9   2   8   22.57   13.13
   9  -2  -7   -2.27   10.32
  -9   2   7   21.93   12.43
   9  -2  -6   52.23   13.14
  -9   2   6   46.22   14.74
   9  -2  -5  101.40   15.58
   9  -2  -5   98.03   15.54
   9  -2  -4    4.20   10.10
   9  -2  -3  426.41   27.56
   9  -2  -2  194.56   19.26
   9  -2  -1   57.76   12.38
   9  -2   0  313.78   23.96
  -9   2   0  331.14   26.51
  -9   2  -1   88.34   15.36
   9  -2   1   98.43   14.44
  -9   2  -2   13.51   10.95
   9  -2   2   18.44    9.92
   9  -2   3   18.36   10.69
  -9   2  -3    0.51    9.60
   9  -1  -8    8.37   10.40
  -9   1   8   -3.12   10.61
   9  -1  -7   23.50   12.15
  -9   1   7   -6.38    9.90
   9  -1  -6   44.42   13.04
  -9   1   6   34.02   10.98
   9  -1  -5   44.56   12.81
  -9   1   5   44.46   12.95
   9  -1  -4   33.64   11.98
  -9   1   4   60.88   14.56
   9  -1  -3  142.29   18.12
   9  -1  -2  340.45   25.52
   9  -1  -2  336.36   27.04
   9  -1  -1    7.15   10.48
   9  -1  -1    6.88    8.54
   9  -1   0  394.11   26.03
   9  -1   1  209.30   19.91
   9  -1   2   15.85    8.87
   9   0  -8   12.91   11.64
  -9   0   8   31.51   14.40
   9   0  -7  108.67   16.98
  -9   0   7  103.06   17.71
   9   0  -6  173.32   20.30
  -9   0   6  137.49   20.27
   9   0  -5   47.22   13.52
  -9   0   5   35.19   11.20
   9   0  -4   72.36   14.73
  -9   0   4   79.08   16.03
   9   0  -3    9.91    9.94
  -9   0   3    5.18    8.99
  -9   0   2  329.61   28.10
   9   0  -2  345.44   28.84
  -9   0   1  193.44   23.03
   9   0  -1  253.87   26.11
   9   0   0  108.17   18.31
  -9   0   0  136.48   20.02
  -9   0  -1  256.23   26.08
   9   0   1  254.29   27.55
  -9   0  -2   39.03   13.55
   9   1  -8  201.14   23.28
  -9  -1   8  166.87   22.22
   9   1  -7   99.06   17.60
  -9  -1   7   73.80   16.24
  -9  -1   6  211.11   24.70
   9   1  -6  253.45   23.96
   9   1  -5   63.81   15.25
  -9  -1   5   51.49   14.30
   9   1  -4   -1.68   10.43
  -9  -1   4    2.32   10.86
   9   1  -3   20.05   12.44
  -9  -1   3   14.57   10.63
  -9  -1   2   88.06   16.84
   9   1  -2  143.16   21.04
  -9  -1   1  155.69   20.22
   9   1  -1  155.48   22.27
   9   1   0   15.37   12.94
  -9  -1   0    3.16    9.84
  -9  -1  -1  169.76   21.78
   9   1   1  220.18   27.68
   9   2  -8  445.43   32.50
  -9  -2   8  344.47   30.58
   9   2  -7   -8.30   10.69
  -9  -2   7   13.16   11.95
  -9  -2   6  250.44   25.78
   9   2  -6  244.76   25.20
  -9  -2   5  162.21   21.58
   9   2  -5  166.63   22.43
   9   2  -4   -8.60   12.64
  -9  -2   4    5.41   10.49
   9   2  -3    7.23   11.66
  -9  -2   3   14.55   11.89
   9   2  -2    8.31   12.92
  -9  -2   2   -6.08   11.84
   9   2  -1   66.17   17.74
  -9  -2   1   98.59   18.35
  -9  -2   0  166.39   22.49
   9   2   0  211.12   28.39
  -9  -3   7  128.94   20.95
   9   3  -7  129.08   21.07
   9   3  -6   81.83   17.02
  -9  -3   6   55.77   14.01
  -9  -3   5  213.35   24.63
   9   3  -5  211.02   26.26
   9   3  -4   15.86   13.60
  -9  -3   4  -19.79   13.38
   9   3  -3  110.05   21.91
  -9  -3   3   86.35   18.39
   9   3  -2   19.34   14.95
  -9  -3   2   -4.25   13.00
   0   0   0    0.00    0.00
TITL x728a WL in P-1
REM P-1 (#2 in standard setting)
CELL 0.71073   7.635433   9.970044  11.897976 111.9798 100.3603  97.7372
ZERR    4.00   0.000482   0.000787   0.000976   0.0075   0.0061   0.0059
LATT  1
SFAC C H N O
UNIT 44.00 40.00 4.00 4.00
TREF
HKLF 4
END
_computing_structure_solution     'SHELXT 2014/5 (Sheldrick, 2014)'
;
_shelx_hkl_checksum              56382
_shelx_res_file
;
TITL x728a_a.res in P-1
    x728a.res
    created by SHELXL-2018/1 at 13:00:59 on 11-Jun-2019
REM Old TITL x728a WL in P-1
REM SHELXT solution in P-1
REM R1 0.140, Rweak 0.008, Alpha 0.033, Orientation as input
REM Formula found by SHELXT: C12 N2 O3 Mn Br2
CELL 0.71073 7.6354 9.97 11.898 111.98 100.36 97.737
ZERR 1 0.0005 0.0008 0.001 0.007 0.006 0.006
LATT 1
SFAC C H Br Mn N O
UNIT 24 32 4 2 4 6
EQIV $1 -1+X,+Y,+Z
EQIV $2 -X,1-Y,-Z
DFIX 0.84 O3 H3a O3 H3b
L.S. 10
PLAN  5
SIZE 0.45 0.4 0.2
TEMP -103.15
HTAB O3 Br1_$1
HTAB O3 Br1_$2
BOND $H
list 4
fmap 2 53
ACTA
REM <olex2.extras>
REM <HklSrc "%.\\x728a.hkl">
REM </olex2.extras>
WGHT    0.046100    0.592200
FVAR       0.60461
BR1   3    0.362797    0.421046    0.136507    11.00000    0.02136    0.04363 =
         0.04991    0.03186    0.00730    0.00744
C1    1    0.490573    0.781612    0.411570    11.00000    0.04368    0.07556 =
         0.04386    0.03103    0.00918   -0.00437
AFIX  43
H1    2    0.509132    0.827435    0.356286    11.00000   -1.20000
AFIX   0
N1    5    0.319596    0.717697    0.404589    11.00000    0.03594    0.04311 =
         0.03231    0.01532    0.00393    0.00345
MN1   4    0.048009    0.516110    0.160985    11.00000    0.02092    0.03118 =
         0.03044    0.01954    0.00226   -0.00034
O1    6    0.181602    0.717473    0.318734    11.00000    0.04052    0.04241 =
         0.03913    0.02142   -0.00313    0.00205
O2    6    0.082740    0.632592    0.038042    11.00000    0.02296    0.03095 =
         0.03522    0.02070    0.00125   -0.00480
C2    1    0.638098    0.782168    0.496273    11.00000    0.04071    0.08405 =
         0.04352    0.01723    0.00587    0.00293
BR2   3   -0.073916    0.336409    0.251627    11.00000    0.03302    0.04053 =
         0.04192    0.02804    0.00990    0.00105
N2    5    0.187628    0.768115    0.075691    11.00000    0.02247    0.02868 =
         0.02817    0.01686    0.00535    0.00181
C3    1    0.606158    0.714779    0.577009    11.00000    0.04616    0.06352 =
         0.03484    0.01104    0.00213    0.01242
AFIX  43
H3    2    0.705412    0.710037    0.635284    11.00000   -1.20000
AFIX   0
O3    6   -0.211480    0.598612    0.155980    11.00000    0.02610    0.04372 =
         0.04684    0.02734    0.01134    0.00629
H3A   2   -0.303806    0.546380    0.159176    11.00000    0.04544
H3B   2   -0.237242    0.593519    0.082252    11.00000    0.06456
C4    1    0.429252    0.655309    0.571199    11.00000    0.05078    0.05701 =
         0.03905    0.02211    0.00811    0.00939
AFIX  43
H4    2    0.406617    0.612501    0.627790    11.00000   -1.20000
AFIX   0
C5    1    0.285739    0.657330    0.484607    11.00000    0.04052    0.04298 =
         0.03163    0.01492    0.00931    0.00296
AFIX  43
H5    2    0.163976    0.616659    0.481113    11.00000   -1.20000
AFIX   0
C6    1    0.828296    0.855422    0.502461    11.00000    0.04286    0.17961 =
         0.09470    0.06412    0.00743   -0.02505
AFIX 137
H6A   2    0.848206    0.962978    0.548807    11.00000   -1.50000
H6B   2    0.841882    0.833304    0.417405    11.00000   -1.50000
H6C   2    0.918146    0.817490    0.545184    11.00000   -1.50000
AFIX   0
C7    1    0.369316    0.787554    0.102136    11.00000    0.02264    0.02492 =
         0.04021    0.01678    0.00541    0.00406
AFIX  43
H7    2    0.422698    0.704972    0.095217    11.00000   -1.20000
AFIX   0
C8    1    0.480149    0.924694    0.139110    11.00000    0.02813    0.02950 =
         0.04013    0.01703    0.01032    0.00422
C9    1    0.399260    1.041820    0.145353    11.00000    0.04383    0.02630 =
         0.03738    0.01406    0.00557    0.00009
AFIX  43
H9    2    0.472406    1.136963    0.166642    11.00000   -1.20000
AFIX   0
C10   1    0.211946    1.020575    0.120630    11.00000    0.04492    0.02767 =
         0.05531    0.01913    0.00490    0.01316
AFIX  43
H10   2    0.155519    1.101679    0.127690    11.00000   -1.20000
AFIX   0
C11   1    0.106948    0.881069    0.085615    11.00000    0.02880    0.04282 =
         0.04805    0.02256    0.01176    0.01584
AFIX  43
H11   2   -0.022312    0.865462    0.068630    11.00000   -1.20000
AFIX   0
C12   1    0.683833    0.946330    0.174326    11.00000    0.02889    0.04826 =
         0.09993    0.03449    0.01718    0.00157
AFIX 137
H12A  2    0.727982    0.988271    0.265702    11.00000   -1.50000
H12B  2    0.739282    1.014307    0.142149    11.00000   -1.50000
H12C  2    0.717356    0.850553    0.138142    11.00000   -1.50000
AFIX   0
HKLF 4
REM  x728a_a.res in P-1
REM R1 =  0.0399 for    2875 Fo > 4sig(Fo)  and  0.0580 for all    3672 data
REM    191 parameters refined using      2 restraints
END
WGHT      0.0461      0.5922
REM Highest difference peak  1.657,  deepest hole -0.844,  1-sigma level  0.117
Q1    1   0.3617  0.3444  0.0614  11.00000  0.05    1.66
Q2    1   0.0915  0.4482  0.1172  11.00000  0.05    0.63
Q3    1  -0.0672  0.2568  0.1827  11.00000  0.05    0.60
Q4    1  -0.0091  0.4223  0.3229  11.00000  0.05    0.50
Q5    1   0.9112  0.8772  0.6017  11.00000  0.05    0.42
;
_shelx_res_checksum              20396
loop_
_space_group_symop_operation_xyz
'x, y, z'
'-x, -y, -z'
loop_
_atom_site_type_symbol
_atom_site_label
_atom_site_fract_x
_atom_site_fract_y
_atom_site_fract_z
_atom_site_U_iso_or_equiv
_atom_site_adp_type
_atom_site_calc_flag
_atom_site_occupancy
Br Br1 0.36280(5) 0.42105(5) 0.13651(4) 0.03458(13) Uani d 1
C C1 0.4906(7) 0.7816(7) 0.4116(5) 0.0544(14) Uani d 1
H H1 0.509132 0.827435 0.356286 0.065 Uiso calc 1
N N1 0.3196(5) 0.7177(4) 0.4046(3) 0.0383(9) Uani d 1
Mn Mn1 0.04801(8) 0.51611(7) 0.16098(5) 0.02659(16) Uani d 1
O O1 0.1816(4) 0.7175(4) 0.3187(3) 0.0418(8) Uani d 1
O O2 0.0827(3) 0.6326(3) 0.0380(3) 0.0295(6) Uani d 1
C C2 0.6381(7) 0.7822(7) 0.4963(5) 0.0606(16) Uani d 1
Br Br2 -0.07392(6) 0.33641(5) 0.25163(4) 0.03571(14) Uani d 1
N N2 0.1876(4) 0.7681(4) 0.0757(3) 0.0254(7) Uani d 1
C C3 0.6062(7) 0.7148(6) 0.5770(5) 0.0520(13) Uani d 1
H H3 0.705412 0.710037 0.635284 0.062 Uiso calc 1
O O3 -0.2115(4) 0.5986(4) 0.1560(3) 0.0360(7) Uani d 1
H H3A -0.304(4) 0.546(5) 0.159(4) 0.045(15) Uiso d 1
H H3B -0.237(7) 0.594(6) 0.082(3) 0.065(18) Uiso d 1
C C4 0.4293(7) 0.6553(6) 0.5712(5) 0.0489(12) Uani d 1
H H4 0.406617 0.612501 0.627790 0.059 Uiso calc 1
C C5 0.2857(6) 0.6573(5) 0.4846(4) 0.0391(10) Uani d 1
H H5 0.163976 0.616659 0.481113 0.047 Uiso calc 1
C C6 0.8283(9) 0.8554(11) 0.5025(7) 0.110(3) Uani d 1
H H6A 0.848206 0.962978 0.548807 0.165 Uiso calc 1
H H6B 0.841882 0.833305 0.417405 0.165 Uiso calc 1
H H6C 0.918146 0.817490 0.545184 0.165 Uiso calc 1
C C7 0.3693(5) 0.7876(4) 0.1021(4) 0.0287(9) Uani d 1
H H7 0.422698 0.704972 0.095217 0.034 Uiso calc 1
C C8 0.4801(5) 0.9247(5) 0.1391(4) 0.0317(9) Uani d 1
C C9 0.3993(6) 1.0418(5) 0.1454(4) 0.0369(10) Uani d 1
H H9 0.472406 1.136963 0.166642 0.044 Uiso calc 1
C C10 0.2119(6) 1.0206(5) 0.1206(5) 0.0425(11) Uani d 1
H H10 0.155519 1.101679 0.127690 0.051 Uiso calc 1
C C11 0.1069(6) 0.8811(5) 0.0856(4) 0.0376(10) Uani d 1
H H11 -0.022312 0.865462 0.068630 0.045 Uiso calc 1
C C12 0.6838(6) 0.9463(6) 0.1743(6) 0.0583(15) Uani d 1
H H12A 0.727982 0.988271 0.265702 0.087 Uiso calc 1
H H12B 0.739282 1.014307 0.142149 0.087 Uiso calc 1
H H12C 0.717356 0.850553 0.138142 0.087 Uiso calc 1
loop_
_atom_site_aniso_label
_atom_site_aniso_U_11
_atom_site_aniso_U_22
_atom_site_aniso_U_33
_atom_site_aniso_U_12
_atom_site_aniso_U_13
_atom_site_aniso_U_23
Br1 0.0214(2) 0.0436(3) 0.0499(3) 0.00744(18) 0.00730(17) 0.0319(2)
C1 0.044(3) 0.076(4) 0.044(3) -0.004(3) 0.009(2) 0.031(3)
N1 0.036(2) 0.043(2) 0.032(2) 0.0035(18) 0.0039(16) 0.0153(18)
Mn1 0.0209(3) 0.0312(3) 0.0304(3) -0.0003(2) 0.0023(2) 0.0195(3)
O1 0.0405(18) 0.0424(19) 0.0391(18) 0.0021(15) -0.0031(14) 0.0214(16)
O2 0.0230(13) 0.0309(15) 0.0352(16) -0.0048(12) 0.0013(11) 0.0207(13)
C2 0.041(3) 0.084(4) 0.044(3) 0.003(3) 0.006(2) 0.017(3)
Br2 0.0330(2) 0.0405(3) 0.0419(3) 0.00105(19) 0.00990(18) 0.0280(2)
N2 0.0225(16) 0.0287(18) 0.0282(17) 0.0018(14) 0.0054(13) 0.0169(15)
C3 0.046(3) 0.064(4) 0.035(3) 0.012(3) 0.002(2) 0.011(3)
O3 0.0261(16) 0.0437(19) 0.047(2) 0.0063(14) 0.0113(14) 0.0273(17)
C4 0.051(3) 0.057(3) 0.039(3) 0.009(3) 0.008(2) 0.022(3)
C5 0.041(2) 0.043(3) 0.032(2) 0.003(2) 0.0093(19) 0.015(2)
C6 0.043(4) 0.180(9) 0.095(6) -0.025(5) 0.007(3) 0.064(6)
C7 0.0226(19) 0.025(2) 0.040(2) 0.0041(17) 0.0054(17) 0.0168(19)
C8 0.028(2) 0.029(2) 0.040(2) 0.0042(18) 0.0103(18) 0.017(2)
C9 0.044(3) 0.026(2) 0.037(2) 0.000(2) 0.006(2) 0.014(2)
C10 0.045(3) 0.028(2) 0.055(3) 0.013(2) 0.005(2) 0.019(2)
C11 0.029(2) 0.043(3) 0.048(3) 0.016(2) 0.0118(19) 0.023(2)
C12 0.029(2) 0.048(3) 0.100(5) 0.002(2) 0.017(3) 0.034(3)
loop_
_atom_type_symbol
_atom_type_description
_atom_type_scat_dispersion_real
_atom_type_scat_dispersion_imag
_atom_type_scat_source
C C 0.0033 0.0016 'International Tables Vol C Tables 4.2.6.8 and 6.1.1.4'
H H 0.0000 0.0000 'International Tables Vol C Tables 4.2.6.8 and 6.1.1.4'
Br Br -0.2901 2.4595 'International Tables Vol C Tables 4.2.6.8 and 6.1.1.4'
Mn Mn 0.3368 0.7283 'International Tables Vol C Tables 4.2.6.8 and 6.1.1.4'
N N 0.0061 0.0033 'International Tables Vol C Tables 4.2.6.8 and 6.1.1.4'
O O 0.0106 0.0060 'International Tables Vol C Tables 4.2.6.8 and 6.1.1.4'
loop_
_geom_angle_atom_site_label_1
_geom_angle_atom_site_label_2
_geom_angle_atom_site_label_3
_geom_angle_site_symmetry_1
_geom_angle_site_symmetry_3
_geom_angle
N1 C1 H1 . . 119.2
N1 C1 C2 . . 121.6(5)
C2 C1 H1 . . 119.2
O1 N1 C1 . . 119.2(4)
O1 N1 C5 . . 119.5(4)
C5 N1 C1 . . 121.3(4)
O1 Mn1 Br1 . . 93.86(9)
O1 Mn1 O2 . 2_565 157.76(11)
O1 Mn1 O2 . . 88.94(11)
O1 Mn1 Br2 . . 105.48(9)
O1 Mn1 O3 . . 88.95(12)
O2 Mn1 Br1 . . 91.19(7)
O2 Mn1 Br1 2_565 . 89.84(8)
O2 Mn1 O2 . 2_565 69.05(11)
O2 Mn1 Br2 2_565 . 95.91(7)
O2 Mn1 Br2 . . 163.39(7)
O2 Mn1 O3 . . 81.25(11)
O2 Mn1 O3 2_565 . 84.75(11)
Br2 Mn1 Br1 . . 95.91(2)
O3 Mn1 Br1 . . 171.89(8)
O3 Mn1 Br2 . . 90.65(8)
N1 O1 Mn1 . . 119.7(3)
Mn1 O2 Mn1 . 2_565 110.95(11)
N2 O2 Mn1 . 2_565 123.8(2)
N2 O2 Mn1 . . 124.7(2)
C1 C2 C3 . . 117.8(5)
C1 C2 C6 . . 120.5(6)
C3 C2 C6 . . 121.7(5)
C7 N2 O2 . . 119.9(3)
C11 N2 O2 . . 118.7(3)
C11 N2 C7 . . 121.5(4)
C2 C3 H3 . . 120.3
C4 C3 C2 . . 119.4(5)
C4 C3 H3 . . 120.3
Mn1 O3 H3A . . 118(3)
Mn1 O3 H3B . . 101(4)
H3A O3 H3B . . 104(5)
C3 C4 H4 . . 119.7
C5 C4 C3 . . 120.7(5)
C5 C4 H4 . . 119.7
N1 C5 C4 . . 119.1(4)
N1 C5 H5 . . 120.4
C4 C5 H5 . . 120.4
C2 C6 H6A . . 109.5
C2 C6 H6B . . 109.5
C2 C6 H6C . . 109.5
H6A C6 H6B . . 109.5
H6A C6 H6C . . 109.5
H6B C6 H6C . . 109.5
N2 C7 H7 . . 119.4
N2 C7 C8 . . 121.2(4)
C8 C7 H7 . . 119.4
C7 C8 C9 . . 118.3(4)
C7 C8 C12 . . 120.6(4)
C9 C8 C12 . . 121.1(4)
C8 C9 H9 . . 120.1
C8 C9 C10 . . 119.8(4)
C10 C9 H9 . . 120.1
C9 C10 H10 . . 120.2
C11 C10 C9 . . 119.6(4)
C11 C10 H10 . . 120.2
N2 C11 C10 . . 119.6(4)
N2 C11 H11 . . 120.2
C10 C11 H11 . . 120.2
C8 C12 H12A . . 109.5
C8 C12 H12B . . 109.5
C8 C12 H12C . . 109.5
H12A C12 H12B . . 109.5
H12A C12 H12C . . 109.5
H12B C12 H12C . . 109.5
loop_
_geom_bond_atom_site_label_1
_geom_bond_atom_site_label_2
_geom_bond_site_symmetry_2
_geom_bond_distance
Mn1 Br1 . 2.7237(7)
C1 H1 . 0.9500
C1 N1 . 1.347(6)
C1 C2 . 1.368(7)
N1 O1 . 1.328(4)
N1 C5 . 1.346(6)
Mn1 O1 . 2.129(3)
Mn1 O2 . 2.211(3)
Mn1 O2 2_565 2.219(3)
Mn1 Br2 . 2.5687(7)
Mn1 O3 . 2.245(3)
O2 N2 . 1.339(4)
C2 C3 . 1.399(8)
C2 C6 . 1.511(8)
N2 C7 . 1.336(5)
N2 C11 . 1.332(5)
C3 H3 . 0.9500
C3 C4 . 1.379(7)
O3 H3A . 0.834(19)
O3 H3B . 0.844(19)
C4 H4 . 0.9500
C4 C5 . 1.370(6)
C5 H5 . 0.9500
C6 H6A . 0.9800
C6 H6B . 0.9800
C6 H6C . 0.9800
C7 H7 . 0.9500
C7 C8 . 1.372(6)
C8 C9 . 1.377(6)
C8 C12 . 1.499(6)
C9 H9 . 0.9500
C9 C10 . 1.377(6)
C10 H10 . 0.9500
C10 C11 . 1.377(6)
C11 H11 . 0.9500
C12 H12A . 0.9800
C12 H12B . 0.9800
C12 H12C . 0.9800
loop_
_geom_hbond_atom_site_label_D
_geom_hbond_atom_site_label_H
_geom_hbond_atom_site_label_A
_geom_hbond_site_symmetry_A
_geom_hbond_distance_DH
_geom_hbond_distance_HA
_geom_hbond_distance_DA
_geom_hbond_angle_DHA
_geom_hbond_publ_flag
O3 H3A Br1 1_455 0.83(2) 2.60(2) 3.410(3) 164(4) yes
O3 H3B Br1 2_565 0.84(2) 2.55(2) 3.386(3) 172(5) yes

_cod_database_fobs_code 2243039
