#------------------------------------------------------------------------------
#$Date: 2021-12-15 05:08:06 +0200 (Wed, 15 Dec 2021) $
#$Revision: 271437 $
#$URL: file:///home/coder/svn-repositories/cod/cif/2/24/39/2243948.cif $
#------------------------------------------------------------------------------
#
# This file is available in the Crystallography Open Database (COD),
# http://www.crystallography.net/. The original data for this entry
# were provided by IUCr Journals, http://journals.iucr.org/.
#
# The file may be used within the scientific community so long as
# proper attribution is given to the journal article from which the
# data were obtained.
#
data_2243948
loop_
_publ_author_name
'Schmidt, Annika'
'Krupp, Anna'
'Barth, Eva Rebecca'
'Strohmann, Carsten'
_publ_section_title
;
 Crystal structures and Hirshfeld surface analyses of
 bis(4,5-dihydrofuran-2-yl)dimethylsilane and
 (4,5-dihydrofuran-2-yl)(methyl)diphenylsilane
;
_journal_issue                   1
_journal_name_full               'Acta Crystallographica Section E'
_journal_page_first
;
;
_journal_paper_doi               10.1107/S2056989021012548
_journal_volume                  78
_journal_year                    2022
_chemical_formula_iupac          'C17 H18 O Si'
_chemical_formula_moiety         'C17 H18 O Si'
_chemical_formula_sum            'C17 H18 O Si'
_chemical_formula_weight         266.40
_chemical_name_systematic
;
(4,5-Dihydrofuran-2-yl)(methyl)diphenylsilane
;
_space_group_crystal_system      triclinic
_space_group_IT_number           2
_space_group_name_Hall           '-P 1'
_space_group_name_H-M_alt        'P -1'
_atom_sites_solution_hydrogens   difmap
_atom_sites_solution_primary     iterative
_audit_creation_method
;
Olex2 1.3
(compiled 2020.11.12 svn.r5f609507 for OlexSys, GUI svn.r6408)
;
_cell_angle_alpha                102.219(2)
_cell_angle_beta                 90.613(2)
_cell_angle_gamma                110.280(2)
_cell_formula_units_Z            2
_cell_length_a                   8.7737(4)
_cell_length_b                   9.1715(4)
_cell_length_c                   9.8130(4)
_cell_measurement_reflns_used    8775
_cell_measurement_temperature    100
_cell_measurement_theta_max      36.28
_cell_measurement_theta_min      2.49
_cell_volume                     720.85(6)
_computing_cell_refinement       'SAINT (Bruker, 2016)'
_computing_data_collection       'APEX2 (Bruker, 2018)'
_computing_data_reduction        'SAINT (Bruker, 2016)'
_computing_molecular_graphics    '<i>OLEX2</i> (Dolomanov et al., 2009)'
_computing_publication_material
;<i>OLEX2</i> (Dolomanov et al., 2009),
CrystalExplorer21 (Spackman et al., 2021),
publCIF (Westrip, 2010), Mercury (Macrae et al., 2020)
;
_computing_structure_refinement  '<i>SHELXL2014/7</i> (Sheldrick, 2015)'
_computing_structure_solution    'SHELXS (Sheldrick, 2008)'
_diffrn_ambient_temperature      100.0
_diffrn_detector                 'Bruker D8 VENTURE area detector'
_diffrn_detector_area_resol_mean 10.4167
_diffrn_measured_fraction_theta_full 0.994
_diffrn_measured_fraction_theta_max 0.990
_diffrn_measurement_device       'four-circle diffractometer'
_diffrn_measurement_device_type  'Bruker D8 Venture'
_diffrn_measurement_method       '\f and \w scans'
_diffrn_radiation_monochromator  'multilayer optics'
_diffrn_radiation_probe          x-ray
_diffrn_radiation_type           MoK\a
_diffrn_radiation_wavelength     0.71073
_diffrn_reflns_av_R_equivalents  0.0296
_diffrn_reflns_av_unetI/netI     0.0328
_diffrn_reflns_limit_h_max       13
_diffrn_reflns_limit_h_min       -11
_diffrn_reflns_limit_k_max       14
_diffrn_reflns_limit_k_min       -14
_diffrn_reflns_limit_l_max       15
_diffrn_reflns_limit_l_min       -15
_diffrn_reflns_number            20409
_diffrn_reflns_theta_full        25.242
_diffrn_reflns_theta_max         34.000
_diffrn_reflns_theta_min         2.789
_diffrn_source                   'microfocus sealed X-ray tube'
_diffrn_source_current           1.4
_diffrn_source_power             0.07
_diffrn_source_voltage           50.0
_diffrn_standards_number         0
_exptl_absorpt_coefficient_mu    0.152
_exptl_absorpt_correction_T_max  0.7471
_exptl_absorpt_correction_T_min  0.7127
_exptl_absorpt_correction_type   multi-scan
_exptl_absorpt_process_details
;
(SADABS; Krause et al., 2015)
;
_exptl_crystal_colour            colourless
_exptl_crystal_density_diffrn    1.227
_exptl_crystal_description       plate
_exptl_crystal_F_000             284
_exptl_crystal_size_max          0.511
_exptl_crystal_size_mid          0.188
_exptl_crystal_size_min          0.074
_refine_diff_density_max         0.484
_refine_diff_density_min         -0.268
_refine_ls_extinction_method     none
_refine_ls_goodness_of_fit_ref   1.062
_refine_ls_hydrogen_treatment
H_atoms_treated_by_a_mixture_of_independent_and_constrained_refinement.
_refine_ls_matrix_type           full
_refine_ls_number_parameters     244
_refine_ls_number_reflns         5826
_refine_ls_number_restraints     0
_refine_ls_restrained_S_all      1.062
_refine_ls_R_factor_all          0.0497
_refine_ls_R_factor_gt           0.0398
_refine_ls_shift/su_max          0.000
_refine_ls_shift/su_mean         0.000
_refine_ls_structure_factor_coef Fsqd
_refine_ls_weighting_details
'w=1/[\s^2^(Fo^2^)+(0.0391P)^2^+0.2951P] where P=(Fo^2^+2Fc^2^)/3'
_refine_ls_weighting_scheme      calc
_refine_ls_wR_factor_gt          0.0964
_refine_ls_wR_factor_ref         0.1049
_reflns_number_gt                4937
_reflns_number_total             5826
_reflns_threshold_expression     'I > 2\s(I)'
_cod_data_source_file            vm2257sup1.cif
_cod_data_source_block           2
_cod_database_code               2243948
_shelx_space_group_comment
;
The symmetry employed for this shelxl refinement is uniquely defined
by the following loop, which should always be used as a source of
symmetry information in preference to the above space-group names.
They are only intended as comments.
;
_shelx_estimated_absorpt_t_min   0.926
_shelx_estimated_absorpt_t_max   0.989
_shelx_hkl_file
;
   1   0   0 72.3108 3.15644   3
  -2   0   0 228.932 8.33931   3
  -2   0   0 232.323 7.53648   5
   2   0   0 226.526 6.70416   7
   2   0   0 238.000 7.43868   5
   2   0   0 217.603 8.10335   3
  -3   0   0 24.8295 3.30549   3
  -3   0   0 25.4850 2.98350   5
   3   0   0 26.1251 3.30875   3
   3   0   0 21.6186 2.38543   7
   3   0   0 16.7796 2.64772   5
   3   0   0 23.8685 2.61305   4
  -4   0   0 940.312 26.1093   3
   4   0   0 976.020 22.2490   7
   4   0   0 939.471 25.5384   3
   4   0   0 985.789 22.9618   4
   4   0   0 966.222 23.5957   5
   4   0   0 955.100 22.5295   2
  -5   0   0 2464.46 54.1812   3
   5   0   0 2492.21 48.4901   2
   5   0   0 2479.88 47.9091   7
   5   0   0 2450.34 53.2810   3
   5   0   0 2467.65 49.9886   5
   5   0   0 2569.14 49.5562   4
  -6   0   0 11.7221 3.98513   3
   6   0   0 4.74608 2.12355   5
   6   0   0 3.20821 1.76137   7
   6   0   0 6.43299 2.22831   2
   6   0   0 2.63102 2.07659   3
   6   0   0 5.18543 1.91823   4
  -7   0   0 0.88939 1.98992   3
   7   0   0 1.27150 2.21066   3
   7   0   0 0.27548 1.58338   2
   7   0   0 0.35379 1.46362   4
   7   0   0 -0.5095 1.18676   7
   8   0   0 1492.65 38.9822   4
   8   0   0 1388.31 41.3662   6
   8   0   0 1433.83 36.2616   7
   8   0   0 1464.30 43.2590   3
   9   0   0 18.5950 4.71594   7
   9   0   0 12.6970 3.92835   4
   9   0   0 14.6256 4.86798   6
  10   0   0 35.9098 6.52752   7
  10   0   0 29.5053 6.15164   4
  10   0   0 39.3962 7.98106   6
  11   0   0 160.857 14.2619   6
  11   0   0 145.162 11.3824   7
  11   0   0 139.230 10.6169   8
  11   0   0 153.990 12.5782   4
  12   0   0 60.1007 7.18512   8
  12   0   0 49.3626 9.09681   6
  12   0   0 53.2823 9.11783   4
  12   0   0 49.2590 7.55189   7
  13   0   0 132.323 11.1170   7
  13   0   0 149.898 13.3411   4
  13   0   0 91.9039 11.4113   6
  13  -1   0 48.2350 9.12020   4
  13  -1   0 53.1683 11.2533   6
  12  -1   0 387.294 24.2426   6
  12  -1   0 340.069 18.9521   7
  12  -1   0 372.961 16.7549   8
  12  -1   0 373.964 21.4376   4
  11  -1   0 7.67400 3.53177   7
  11  -1   0 9.71979 4.68430   6
  11  -1   0 18.2780 5.03152   4
  10  -1   0 7.80195 3.67759   4
  10  -1   0 0.83659 2.88119   6
  10  -1   0 -0.7911 1.72267   7
   9  -1   0 22.5781 5.32034   7
   9  -1   0 23.0308 5.24677   8
   9  -1   0 18.2521 5.27414   4
   9  -1   0 17.7594 5.92468   3
   8  -1   0 5.58982 2.62264   7
   8  -1   0 2.37722 1.97811   8
   8  -1   0 6.95374 2.97694   4
   7  -1   0 105.344 7.98461   7
   7  -1   0 107.326 9.21556   3
   7  -1   0 119.139 7.66641   2
   7  -1   0 111.604 7.86970   8
   7  -1   0 107.702 8.58290   4
   6  -1   0 177.535 10.2584   4
   6  -1   0 187.151 9.96950   7
   6  -1   0 193.331 9.63547   8
   6  -1   0 184.698 10.5772   5
   6  -1   0 181.078 8.99675   2
   6  -1   0 167.118 10.6727   3
   5  -1   0 591.198 18.4784   4
   5  -1   0 592.231 19.0383   5
   5  -1   0 593.406 17.8891   7
   5  -1   0 615.054 19.9217   3
   5  -1   0 597.163 16.8259   2
   4  -1   0 1447.18 32.3384   3
   4  -1   0 1482.21 30.9430   7
   4  -1   0 1438.70 31.8980   5
   4  -1   0 1464.59 29.6439   2
   4  -1   0 1448.91 31.3516   4
   3  -1   0 955.522 21.2276   7
   3  -1   0 980.191 19.9781   8
   3  -1   0 977.496 21.9198   3
   3  -1   0 919.792 21.8099   5
  -3   1   0 999.604 21.4354   7
  -3   1   0 977.713 20.7651   2
   2  -1   0 491.689 10.7265   8
   2  -1   0 498.559 11.5112   2
   2  -1   0 500.959 12.1167   7
   2  -1   0 489.716 12.3531   5
  -2   1   0 511.810 12.1441   7
  -2   1   0 486.285 10.7377   8
  -2   1   0 514.604 11.7035   2
   1  -1   0 318.644 7.89296   7
   1  -1   0 312.374 7.00248   8
   1  -1   0 374.229 8.32358   2
  -1   1   0 349.368 8.16354   2
  -1   1   0 364.627 8.12178   7
  -1   1   0 333.686 7.20489   8
   0  -1   0 2.14423 0.62100   8
   0   1   0 0.02242 0.29038   2
   0   1   0 0.14653 0.17725   7
   0   1   0 0.35897 0.28083   8
  -1  -1   0 256.753 6.18595   5
  -1  -1   0 267.609 6.66564   6
   1   1   0 250.817 5.88512   5
   1   1   0 260.025 8.72616   3
   1   1   0 248.122 6.28237   6
  -2  -1   0 265.489 8.10248   5
  -2  -1   0 260.683 10.6384   3
   2   1   0 260.172 7.69629   5
   2   1   0 257.680 7.09015   4
   2   1   0 274.239 8.38488   6
   2   1   0 254.921 10.2757   3
  -3  -1   0 765.711 18.9288   5
  -3  -1   0 749.238 22.5497   3
   3   1   0 804.806 17.5651   4
   3   1   0 797.433 22.4547   3
   3   1   0 747.887 18.9622   6
   3   1   0 811.555 18.4506   5
  -4  -1   0 1772.56 42.3287   3
  -4  -1   0 1749.31 37.0326   5
   4   1   0 1761.25 35.6918   5
   4   1   0 1711.25 40.9265   3
   4   1   0 1734.34 34.5615   4
   4   1   0 1748.85 33.9224   7
   4   1   0 1708.10 36.9553   6
  -5  -1   0 109.023 9.36897   3
   5   1   0 106.310 8.84905   3
   5   1   0 97.9465 7.33163   6
   5   1   0 102.343 6.90858   5
   5   1   0 103.334 6.58609   4
   5   1   0 105.301 6.34502   7
  -6  -1   0 443.621 21.3553   3
   6   1   0 439.843 20.4161   3
   6   1   0 463.457 17.2700   2
   6   1   0 440.310 17.8825   6
   6   1   0 433.434 15.8699   4
   6   1   0 433.000 15.0240   7
   6   1   0 446.597 16.6117   5
  -7  -1   0 241.154 16.4100   3
   7   1   0 224.885 11.1560   7
   7   1   0 230.573 12.3736   2
   7   1   0 250.454 12.5591   4
   7   1   0 246.415 13.9321   6
   7   1   0 228.373 15.0973   3
  -8  -1   0 343.334 21.1080   3
   8   1   0 335.819 14.7259   7
   8   1   0 329.559 17.5181   6
   8   1   0 327.388 15.3926   2
   8   1   0 340.761 16.2370   4
   9   1   0 -2.5481 1.87809   6
   9   1   0 0.42615 1.42861   7
   9   1   0 -0.2446 1.52691   4
  10   1   0 1.52752 2.32785   4
  10   1   0 4.61990 2.34278   7
  10   1   0 3.08111 2.32358   8
  10   1   0 3.80175 2.94237   6
  11   1   0 21.9210 7.02554   6
  11   1   0 31.4182 6.00154   7
  11   1   0 32.1133 6.44549   4
  11   1   0 36.4085 6.81820   8
  12   1   0 72.6360 11.2379   6
  12   1   0 65.8092 7.69850   7
  12   1   0 77.7443 9.18833   4
  12   1   0 66.9093 8.04396   8
  13   1   0 87.5414 9.93281   4
  13   1   0 78.4572 9.77329   6
  14  -2   0 22.0914 6.00950   7
  14  -2   0 10.0614 8.07438   4
  14  -2   0 8.71733 5.81561   6
  13  -2   0 17.4878 4.73785   7
  13  -2   0 20.7971 6.36538   4
  13  -2   0 15.2665 5.84117   6
  12  -2   0 16.3275 4.03951   8
  12  -2   0 10.9810 5.34077   4
  12  -2   0 13.4392 5.35865   6
  12  -2   0 16.9014 4.99469   7
  11  -2   0 4.24641 2.73133   7
  11  -2   0 3.66733 3.09180   4
  11  -2   0 3.37008 3.21809   6
  10  -2   0 110.984 10.0524   8
  10  -2   0 118.217 10.5432   7
  10  -2   0 117.877 11.0882   4
   9  -2   0 -2.0950 1.97638   8
   9  -2   0 0.03737 1.72512   4
   9  -2   0 -1.2864 2.34739   3
   9  -2   0 -0.2975 1.96704   7
   8  -2   0 316.998 18.2624   7
   8  -2   0 289.686 13.1108   8
   8  -2   0 278.519 12.5715   2
   8  -2   0 312.914 15.8755   3
   8  -2   0 285.009 15.5976   4
   7  -2   0 1201.55 33.6698   4
   7  -2   0 1226.22 33.6250   3
   7  -2   0 1231.44 32.6309   7
   7  -2   0 1198.55 29.4643   2
   7  -2   0 1174.70 29.2463   8
   6  -2   0 102.101 6.48427   8
   6  -2   0 103.926 7.48149   7
   6  -2   0 104.098 7.87383   4
   6  -2   0 118.776 7.16667   2
   6  -2   0 104.315 8.05121   5
   5  -2   0 57.9187 5.48311   3
   5  -2   0 55.0188 4.62737   2
   5  -2   0 49.9647 5.03527   4
   5  -2   0 53.0018 4.95847   7
   5  -2   0 47.8833 3.99857   8
   5  -2   0 53.1432 5.25782   5
  -5   2   0 44.1388 4.61938   7
  -5   2   0 46.0630 4.45202   2
   4  -2   0 781.741 18.0871   8
   4  -2   0 842.331 19.9726   2
   4  -2   0 814.636 20.9309   7
   4  -2   0 814.090 21.6818   5
   4  -2   0 806.120 20.4936   3
  -4   2   0 823.756 20.3509   2
  -4   2   0 825.762 21.2698   7
   3  -2   0 2051.97 35.3926   8
   3  -2   0 1994.66 37.6107   2
   3  -2   0 1967.50 38.3563   7
   3  -2   0 2009.04 38.7921   5
  -3   2   0 1976.08 35.9795   8
  -3   2   0 1979.24 38.4012   7
  -3   2   0 2037.51 37.8379   2
   2  -2   0 6670.97 136.375   1
  -2   2   0 6633.92 138.512   1
   1  -2   0 2.50288 0.91144   8
   1  -2   0 2.58956 0.68536   6
   1  -2   0 1.20133 0.66503   7
   1  -2   0 0.38147 0.86548   2
  -1   2   0 3.28970 1.21531   2
  -1   2   0 5.10880 1.17317   8
   0  -2   0 464.207 10.4432   7
   0  -2   0 461.684 8.81253   6
   0  -2   0 450.483 13.1743   3
   0   2   0 465.204 10.3238   7
   0   2   0 461.587 8.93124   6
   0   2   0 430.109 12.4709   2
   0   2   0 451.548 11.3915   8
  -1  -2   0 6944.39 129.516   1
   1   2   0 6764.95 130.822   1
  -2  -2   0 749.774 17.5896   6
  -2  -2   0 803.694 17.0980   5
  -2  -2   0 808.831 23.5337   3
   2   2   0 816.232 14.8743   4
   2   2   0 764.589 22.1269   3
   2   2   0 770.909 15.8610   5
   2   2   0 774.802 16.7278   6
  -3  -2   0 730.129 18.4186   5
  -3  -2   0 758.672 24.8530   3
   3   2   0 766.548 23.7761   3
   3   2   0 749.949 16.1919   4
   3   2   0 748.240 18.2869   6
   3   2   0 746.321 17.2560   5
  -4  -2   0 13.1897 4.31088   3
  -4  -2   0 14.6204 3.18502   5
   4   2   0 13.6123 3.79786   3
   4   2   0 10.4791 2.44792   5
   4   2   0 10.5879 2.53099   6
   4   2   0 11.5631 2.31731   4
  -5  -2   0 12.9302 3.24058   5
  -5  -2   0 15.8530 4.79254   3
   5   2   0 12.3155 2.78371   4
   5   2   0 10.5836 2.94055   6
   5   2   0 20.0020 5.77369   3
   5   2   0 10.5051 2.53243   7
   5   2   0 8.66263 2.46823   5
  -6  -2   0 152.146 13.2091   3
   6   2   0 170.301 9.01481   4
   6   2   0 169.980 9.38291   5
   6   2   0 159.054 8.35808   7
   6   2   0 162.610 10.0842   6
   6   2   0 156.125 12.5357   3
  -7  -2   0 66.4619 9.23431   3
   7   2   0 63.1293 5.56150   7
   7   2   0 60.8791 7.01961   2
   7   2   0 57.9364 6.56657   6
   7   2   0 52.7522 5.56592   4
  -8  -2   0 249.735 19.1693   3
   8   2   0 242.744 12.0008   7
   8   2   0 251.419 14.5035   6
   8   2   0 258.367 14.4712   8
   8   2   0 253.556 12.9142   4
  -9  -2   0 265.070 20.7294   3
   9   2   0 294.824 13.6306   7
   9   2   0 276.133 15.9513   8
   9   2   0 296.216 16.7583   6
   9   2   0 315.817 15.3267   4
  10   2   0 79.2150 8.18882   4
  10   2   0 89.3961 9.93909   7
  10   2   0 80.7483 8.96239   8
  10   2   0 89.9529 9.47189   6
  11   2   0 15.5381 4.76032   8
  11   2   0 27.1395 6.79302   6
  11   2   0 13.1268 4.23832   4
  11   2   0 13.6432 3.88279   7
  12   2   0 -2.3110 2.79715   8
  12   2   0 -3.2977 2.99261   6
  14  -3   0 -5.1897 3.33923   7
  14  -3   0 14.5719 8.21858   4
  13  -3   0 198.330 18.3105   6
  13  -3   0 194.790 15.2122   7
  13  -3   0 203.800 17.0385   4
  12  -3   0 -0.3884 2.31312   7
  12  -3   0 2.31421 3.96353   4
  11  -3   0 83.2778 9.60371   8
  11  -3   0 84.8865 9.56123   7
  11  -3   0 73.0713 10.5229   4
  10  -3   0 95.5793 7.64146   8
  10  -3   0 110.738 10.2206   3
  10  -3   0 128.121 11.7790   4
  10  -3   0 109.880 10.3599   7
   9  -3   0 26.9498 5.69766   3
   9  -3   0 26.9432 5.06804   2
   9  -3   0 29.5942 6.97060   4
   9  -3   0 25.0465 4.38194   8
   9  -3   0 18.1566 4.61903   7
   8  -3   0 375.270 18.3384   4
   8  -3   0 366.112 16.9796   3
   8  -3   0 361.441 17.3088   7
   8  -3   0 382.160 14.0537   8
   8  -3   0 367.666 15.0695   2
   7  -3   0 400.973 16.7388   3
   7  -3   0 404.179 15.4713   2
   7  -3   0 450.631 18.2283   7
   7  -3   0 411.182 28.5228   4
   7  -3   0 399.211 14.0630   8
  -7   3   0 406.665 16.3743   2
   6  -3   0 30.8344 4.21751   3
   6  -3   0 26.3661 3.14998   8
   6  -3   0 41.1001 6.82657   4
   6  -3   0 37.0711 6.21970   5
   6  -3   0 23.6975 4.32671   7
   6  -3   0 26.0401 4.39874   2
  -6   3   0 27.7218 5.38288   7
  -6   3   0 35.5380 5.59359   2
   5  -3   0 1080.44 28.1980   7
   5  -3   0 1109.01 28.7654   5
   5  -3   0 1072.99 23.4558   8
   5  -3   0 1068.23 28.1145   4
   5  -3   0 1089.30 26.6479   2
  -5   3   0 1065.81 26.9027   2
   4  -3   0 1247.32 29.4001   4
   4  -3   0 1301.01 30.0223   7
   4  -3   0 1264.49 25.6440   8
   4  -3   0 1278.97 29.0463   2
   4  -3   0 1270.16 29.7970   5
  -4   3   0 1285.86 26.6751   8
  -4   3   0 1282.00 29.1571   2
  -4   3   0 1228.72 29.4949   7
   3  -3   0 5529.80 94.9009   2
   3  -3   0 5712.22 90.6452   8
  -3   3   0 5420.94 98.2349   7
  -3   3   0 5624.03 91.4299   8
  -3   3   0 5700.13 94.8543   2
   2  -3   0 2942.34 49.8342   8
   2  -3   0 2903.33 52.0598   7
   2  -3   0 2726.07 49.4519   6
   2  -3   0 2917.65 54.0319   2
  -2   3   0 2973.85 53.7405   2
  -2   3   0 2965.03 50.6100   8
  -2   3   0 2880.56 51.8997   7
   1  -3   0 323.253 7.93271   6
   1  -3   0 298.607 11.5036   2
   1  -3   0 304.141 9.60462   8
   1  -3   0 288.079 10.8770   3
   1  -3   0 317.741 9.82677   7
  -1   3   0 307.632 11.4528   2
  -1   3   0 305.016 9.53913   7
  -1   3   0 299.970 8.39919   6
   0  -3   0 8.10767 1.69905   7
   0  -3   0 4.67859 1.95411   3
   0  -3   0 7.09272 1.14823   6
   0   3   0 3.22553 1.35578   3
   0   3   0 8.13982 2.18677   2
   0   3   0 8.34250 1.40971   6
   0   3   0 5.34723 1.45853   7
   0   3   0 7.08660 1.76821   8
  -1  -3   0 3446.66 67.0135   3
  -1  -3   0 3443.68 54.9802   5
  -1  -3   0 3485.04 56.7660   6
   1   3   0 3372.73 65.5643   3
   1   3   0 3403.39 61.4228   8
   1   3   0 3346.73 56.9314   7
   1   3   0 3509.76 64.2146   2
  -2  -3   0 654.569 18.3842   6
  -2  -3   0 663.324 15.2759   5
   2   3   0 682.622 13.7627   5
   2   3   0 674.533 14.6640   6
   2   3   0 655.045 22.0513   3
   2   3   0 673.733 15.0948   7
  -3  -3   0 630.911 24.4329   3
  -3  -3   0 621.339 16.3132   5
   3   3   0 575.746 14.0862   5
   3   3   0 599.339 22.3427   3
   3   3   0 591.127 14.4980   7
   3   3   0 598.998 15.2596   6
  -4  -3   0 428.673 21.3585   3
  -4  -3   0 424.193 14.5821   5
   4   3   0 446.500 13.9464   6
   4   3   0 443.097 23.4434   3
   4   3   0 413.140 12.6064   5
   4   3   0 428.985 11.5071   4
  -5  -3   0 270.080 12.5323   5
  -5  -3   0 300.489 18.8693   3
   5   3   0 274.169 11.7059   6
   5   3   0 269.760 9.78399   4
   5   3   0 271.748 16.5996   3
   5   3   0 287.526 10.5064   7
   5   3   0 267.303 10.7625   5
  -6  -3   0 52.1169 10.7054   3
   6   3   0 49.2692 6.14270   8
   6   3   0 50.5914 4.50749   4
   6   3   0 46.3403 4.69967   5
   6   3   0 56.5654 5.68813   6
   6   3   0 53.6596 4.67059   7
  -7  -3   0 263.363 19.9377   3
   7   3   0 297.188 11.9202   7
   7   3   0 265.943 15.3158   8
   7   3   0 304.154 12.3725   4
  -8  -3   0 -0.9418 2.34313   3
   8   3   0 0.57772 2.27669   2
   8   3   0 -0.6506 1.26662   8
   8   3   0 3.45146 2.25727   6
   8   3   0 0.54162 1.64590   4
   8   3   0 -0.6057 1.47935   7
  -9  -3   0 149.073 16.6219   3
   9   3   0 133.970 8.55500   7
   9   3   0 140.204 10.7680   6
   9   3   0 128.141 11.4958   8
   9   3   0 156.867 10.0071   4
 -10  -3   0 106.617 19.5987   3
  10   3   0 112.843 8.86707   4
  10   3   0 104.945 10.4590   8
  10   3   0 107.435 9.70959   6
  11   3   0 39.5062 6.43336   4
  11   3   0 26.6639 5.65331   6
  11   3   0 33.8151 6.93551   8
  12   3   0 227.237 14.6798   6
  12   3   0 219.594 16.6685   8
  14  -4   0 5.18647 4.78491   7
  13  -4   0 4.04960 3.73643   7
  13  -4   0 9.82207 5.04269   4
  12  -4   0 66.9404 11.9225   4
  12  -4   0 48.7944 9.58667   7
  11  -4   0 29.3383 7.79823   4
  11  -4   0 15.2007 5.42394   7
  11  -4   0 17.5818 5.62941   3
  10  -4   0 402.033 14.7231   8
  10  -4   0 450.201 21.7409   7
  10  -4   0 452.486 23.0179   4
  10  -4   0 409.558 19.0059   3
   9  -4   0 85.6492 7.56415   2
   9  -4   0 85.6207 6.09209   8
   9  -4   0 100.291 9.56424   7
   9  -4   0 105.816 9.05219   3
   9  -4   0 76.8906 8.97401   4
   8  -4   0 10.6785 3.60194   3
   8  -4   0 9.62016 3.28821   2
   8  -4   0 6.69018 2.20003   8
   8  -4   0 12.8517 4.33714   4
   8  -4   0 14.2922 4.44710   7
  -8   4   0 9.90238 3.42159   2
   7  -4   0 677.160 24.5363   4
   7  -4   0 691.047 18.5369   8
   7  -4   0 685.684 22.1499   3
   7  -4   0 701.282 22.4532   2
  -7   4   0 681.972 22.9944   2
   6  -4   0 111.672 8.61529   5
   6  -4   0 123.639 9.04115   4
   6  -4   0 123.289 6.53696   8
   6  -4   0 131.600 9.41128   7
   6  -4   0 125.190 8.46647   2
  -6   4   0 116.492 8.83069   7
  -6   4   0 126.770 8.65042   2
   5  -4   0 271.122 13.0058   7
   5  -4   0 292.361 13.2169   5
   5  -4   0 312.767 13.3265   2
   5  -4   0 281.156 9.91829   8
   5  -4   0 280.200 12.9374   4
  -5   4   0 289.452 13.2341   7
  -5   4   0 288.798 11.0160   8
  -5   4   0 287.211 12.8433   2
   4  -4   0 197.764 7.92217   8
   4  -4   0 214.727 10.6950   2
   4  -4   0 196.363 9.72682   4
   4  -4   0 194.554 9.76810   5
   4  -4   0 184.204 9.80249   7
  -4   4   0 200.327 8.69234   8
  -4   4   0 201.522 10.2645   2
  -4   4   0 192.438 9.99657   7
   3  -4   0 317.545 12.2498   7
   3  -4   0 288.561 12.7027   2
   3  -4   0 295.237 11.1131   4
   3  -4   0 298.104 10.0343   8
  -3   4   0 305.700 12.0334   7
  -3   4   0 312.499 12.9190   2
  -3   4   0 311.929 10.9872   8
   2  -4   0 1433.06 30.9620   7
   2  -4   0 1365.98 33.6151   2
   2  -4   0 1409.69 27.5620   6
   2  -4   0 1448.38 28.8338   4
   2  -4   0 1473.90 29.8018   8
  -2   4   0 1443.50 30.4552   8
  -2   4   0 1386.65 33.1242   2
  -2   4   0 1486.42 31.2611   7
   1  -4   0 9.89645 2.57976   8
   1  -4   0 11.9689 1.98300   4
   1  -4   0 10.5036 1.76224   6
   1  -4   0 9.42769 2.14039   7
   1  -4   0 11.5492 3.19658   3
   1  -4   0 8.13027 2.42103   2
  -1   4   0 8.69297 2.44449   2
  -1   4   0 9.81416 2.22786   7
  -1   4   0 10.7673 2.43748   8
  -1   4   0 11.9758 2.26232   6
   0  -4   0 1224.72 25.9080   7
   0  -4   0 1262.89 32.7558   3
   0   4   0 1217.40 25.9157   7
   0   4   0 1262.52 28.7408   8
   0   4   0 1234.73 23.2217   6
   0   4   0 1232.85 31.1482   2
  -1  -4   0 1284.76 23.0386   5
  -1  -4   0 1284.23 25.1983   6
  -1  -4   0 1248.42 35.1723   3
  -1  -4   0 1259.05 25.9016   7
   1   4   0 1276.64 23.1187   6
   1   4   0 1206.50 31.7827   2
   1   4   0 1264.91 33.6278   3
   1   4   0 1255.38 30.0830   8
   1   4   0 1250.08 25.7396   7
  -2  -4   0 71.2475 8.01678   3
  -2  -4   0 67.5105 4.00745   5
  -2  -4   0 62.2092 4.50034   6
   2   4   0 61.9098 5.76982   8
   2   4   0 61.3535 4.02281   7
   2   4   0 60.9526 3.41894   6
   2   4   0 69.7765 7.09567   3
   2   4   0 62.9809 6.28677   2
  -3  -4   0 190.600 9.22595   6
  -3  -4   0 207.857 8.60137   5
  -3  -4   0 210.566 14.8671   3
   3   4   0 207.531 13.2881   3
   3   4   0 214.826 12.1530   2
   3   4   0 214.292 6.97470   5
   3   4   0 196.357 11.1044   8
   3   4   0 208.469 7.61492   6
  -4  -4   0 16.6738 5.18058   3
  -4  -4   0 20.5169 3.59637   5
   4   4   0 24.6210 5.39031   8
   4   4   0 18.8951 2.84605   5
   4   4   0 22.7439 3.32588   7
   4   4   0 18.1593 3.12009   6
  -5  -4   0 61.6502 5.83618   5
  -5  -4   0 83.5743 10.6245   3
   5   4   0 55.5241 4.48790   5
   5   4   0 58.8723 5.01104   6
   5   4   0 56.6824 6.58141   2
   5   4   0 64.3396 7.13644   8
   5   4   0 61.1381 4.51215   7
  -6  -4   0 16.9062 6.25368   3
   6   4   0 15.5181 4.64319   8
   6   4   0 11.4130 2.69919   5
   6   4   0 22.3059 4.96456   2
   6   4   0 11.5554 3.22567   6
   6   4   0 13.3100 2.67824   7
   6   4   0 18.8142 3.44464   7
  -7  -4   0 5.99652 3.88673   3
   7   4   0 9.60050 3.70952   8
   7   4   0 11.6660 3.42942   6
  -8  -4   0 163.363 17.4302   3
   8   4   0 183.464 13.8375   8
   8   4   0 154.303 10.1354   6
  -9  -4   0 13.7475 6.71045   3
   9   4   0 -2.3768 2.07461   8
   9   4   0 -0.5922 1.69121   6
   9   4   0 0.11769 3.27068   2
 -10  -4   0 165.289 18.9375   3
  10   4   0 121.587 12.0064   8
  10   4   0 127.075 9.70898   6
  11   4   0 29.3554 7.49818   8
  11   4   0 38.2635 6.65171   6
  14  -5   0 -5.2564 5.58595   6
  14  -5   0 11.4200 7.67884   4
  14  -5   0 20.2023 6.48536   7
  13  -5   0 1.50378 2.91642   4
  13  -5   0 7.67102 3.84006   7
  12  -5   0 50.4488 9.46109   4
  12  -5   0 37.0116 8.24034   7
  11  -5   0 5.85429 2.94843   4
  11  -5   0 4.45462 3.32364   7
  10  -5   0 299.881 15.5983   2
  10  -5   0 317.273 19.4595   4
  10  -5   0 306.800 18.6104   7
   9  -5   0 346.008 16.5845   2
   9  -5   0 322.267 12.1027   8
   9  -5   0 329.199 15.8806   3
   9  -5   0 355.515 18.9436   7
   9  -5   0 365.051 19.7400   4
  -9   5   0 335.138 17.4022   2
   8  -5   0 -0.5158 1.80896   7
   8  -5   0 1.87538 1.83487   3
   8  -5   0 -0.7764 1.86473   4
   8  -5   0 0.76523 1.27122   2
   8  -5   0 -0.6141 0.93083   8
  -8   5   0 0.62961 2.49517   2
   7  -5   0 23.5035 5.33599   2
   7  -5   0 23.9942 5.83939   7
   7  -5   0 22.4843 3.60013   8
   7  -5   0 28.1744 5.84266   4
  -7   5   0 18.7516 4.69523   2
   6  -5   0 55.8085 7.85234   5
   6  -5   0 51.9138 5.95266   4
   6  -5   0 58.8835 5.40908   8
   6  -5   0 46.3138 5.80516   2
   6  -5   0 53.9127 6.36673   7
  -6   5   0 67.9539 10.0166   7
  -6   5   0 50.2239 6.04946   2
  -6   5   0 61.8036 5.35778   8
   5  -5   0 3227.23 66.2939   2
   5  -5   0 3203.81 65.5232   7
   5  -5   0 3265.15 62.0308   8
   5  -5   0 3203.61 64.2805   4
   5  -5   0 3230.75 64.4574   5
  -5   5   0 3332.72 61.2027   8
  -5   5   0 3278.57 65.8356   2
  -5   5   0 3216.98 65.4277   7
   4  -5   0 405.780 15.9928   7
   4  -5   0 386.619 13.5560   6
   4  -5   0 394.617 14.8575   4
   4  -5   0 418.327 13.3504   8
   4  -5   0 421.070 17.4025   2
  -4   5   0 411.828 14.3186   8
  -4   5   0 424.845 16.9698   2
  -4   5   0 440.934 16.5714   7
   3  -5   0 1431.35 30.8631   8
   3  -5   0 1420.76 29.5020   6
   3  -5   0 1387.28 30.9148   4
   3  -5   0 1429.23 33.4432   7
  -3   5   0 1416.40 33.0079   7
  -3   5   0 1348.27 31.4802   8
  -3   5   0 1415.08 35.7376   2
   2  -5   0 329.793 14.5750   3
   2  -5   0 363.831 10.3932   6
   2  -5   0 342.921 11.0805   4
   2  -5   0 349.815 13.2540   7
   2  -5   0 345.131 12.5942   8
   2  -5   0 323.390 15.4305   2
  -2   5   0 344.180 15.1749   2
  -2   5   0 344.671 13.0263   8
  -2   5   0 338.021 12.9172   7
   1  -5   0 13.8113 1.66851   6
   1  -5   0 13.8721 2.10020   4
   1  -5   0 12.6229 2.72694   7
   1  -5   0 11.3081 3.87597   3
  -1   5   0 12.6067 3.37392   8
  -1   5   0 11.4273 2.21956   6
  -1   5   0 17.8400 3.10988   7
  -1   5   0 18.3666 4.77103   2
   0  -5   0 670.236 18.1254   7
   0  -5   0 643.255 24.1402   3
   0  -5   0 658.978 16.6552   6
   0  -5   0 661.195 12.9890   5
   0   5   0 657.676 20.5933   8
   0   5   0 666.038 15.4157   6
   0   5   0 629.262 22.3699   2
  -1  -5   0 72.8240 5.04490   7
  -1  -5   0 71.7644 3.57457   5
   1   5   0 66.6164 8.31299   3
   1   5   0 76.2061 6.66229   8
   1   5   0 66.8920 6.71276   2
   1   5   0 70.7909 3.83073   6
   1   5   0 66.8806 4.66046   7
  -2  -5   0 50.3097 9.43830   3
  -2  -5   0 44.3306 4.10570   6
  -2  -5   0 40.5578 3.25053   5
   2   5   0 31.7211 8.71183   2
   2   5   0 32.6800 6.38087   3
   2   5   0 39.4056 2.90878   6
   2   5   0 41.1106 5.26019   8
   2   5   0 41.2198 3.71098   7
  -3  -5   0 1108.12 39.6450   3
  -3  -5   0 1089.86 24.5646   5
  -3  -5   0 1073.28 27.0770   6
   3   5   0 1103.19 33.4825   2
   3   5   0 1080.80 23.9412   7
   3   5   0 1105.01 22.4139   6
   3   5   0 996.005 36.2505   8
  -4  -5   0 1.29064 2.16950   3
  -4  -5   0 4.64957 1.93071   5
   4   5   0 3.52179 1.22002   5
   4   5   0 2.75812 2.19320   8
   4   5   0 0.87054 2.14811   2
   4   5   0 2.95811 1.29236   6
   4   5   0 2.14122 1.19068   7
  -5  -5   0 189.155 17.1578   3
   5   5   0 163.454 7.75458   7
   5   5   0 175.383 12.6142   8
   5   5   0 188.056 8.42904   6
   5   5   0 170.739 7.42169   5
  -6  -5   0 459.208 28.8552   3
   6   5   0 517.864 16.2403   6
   6   5   0 505.880 15.3461   5
   6   5   0 503.871 23.0699   8
  -7  -5   0 62.1819 13.0831   3
   7   5   0 69.0592 8.79231   8
   7   5   0 82.3880 6.44072   6
  -8  -5   0 184.896 20.1597   3
   8   5   0 195.491 15.4086   8
   8   5   0 212.586 11.1180   6
  -9  -5   0 139.949 17.3000   3
   9   5   0 137.862 13.4044   2
   9   5   0 152.986 13.9002   8
   9   5   0 147.746 9.46914   6
 -10  -5   0 79.9938 17.1285   3
  10   5   0 71.4773 12.2613   8
  10   5   0 62.6603 6.52847   6
  11   5   0 126.877 13.3086   8
  14  -6   0 8.17748 5.18835   4
  14  -6   0 26.2864 6.93504   7
  13  -6   0 6.68255 3.86409   7
  13  -6   0 -0.9108 3.33250   4
  12  -6   0 0.20300 3.22273   7
  12  -6   0 7.43408 4.49965   4
  11  -6   0 50.4004 9.66538   4
  11  -6   0 52.2161 7.03503   2
  11  -6   0 50.7888 9.15260   7
  10  -6   0 118.739 11.6259   4
  10  -6   0 118.881 10.4286   2
  10  -6   0 97.6470 8.80900   3
  10  -6   0 98.4033 10.7597   7
   9  -6   0 727.219 24.9260   3
   9  -6   0 770.416 20.4099   8
   9  -6   0 762.814 30.0741   7
   9  -6   0 796.387 30.9421   4
   9  -6   0 774.007 28.4458   2
   8  -6   0 1.95822 2.24835   2
   8  -6   0 4.94928 1.82318   8
   8  -6   0 0.55410 1.60250   7
   8  -6   0 6.19477 3.37842   4
  -8   6   0 2.59085 2.42358   2
   7  -6   0 663.746 25.0344   2
   7  -6   0 660.768 25.0562   4
   7  -6   0 656.646 18.6411   8
   7  -6   0 690.105 25.9538   7
  -7   6   0 613.586 24.3965   2
  -7   6   0 664.450 20.8434   8
   6  -6   0 2654.63 59.8442   7
   6  -6   0 2693.85 51.2874   8
   6  -6   0 2656.64 60.6449   2
   6  -6   0 2580.39 58.5028   5
  -6   6   0 2647.76 60.1771   2
  -6   6   0 2783.05 54.8035   8
   5  -6   0 783.763 26.8185   2
   5  -6   0 656.546 20.5170   6
   5  -6   0 727.118 20.0624   8
   5  -6   0 718.208 23.0777   4
   5  -6   0 674.949 23.9155   7
  -5   6   0 700.804 24.9155   2
  -5   6   0 732.606 21.8750   8
  -5   6   0 691.722 24.2249   7
   4  -6   0 496.513 18.9388   7
   4  -6   0 512.015 17.4603   4
   4  -6   0 504.928 21.0148   2
   4  -6   0 518.708 16.5374   8
  -4   6   0 484.380 17.3346   8
  -4   6   0 474.564 18.5176   7
  -4   6   0 475.518 22.8087   2
   3  -6   0 300.276 10.4887   6
   3  -6   0 283.524 14.2201   3
   3  -6   0 272.891 11.3405   4
   3  -6   0 294.372 12.2155   8
   3  -6   0 288.974 15.6974   2
   3  -6   0 304.843 13.5808   7
  -3   6   0 299.982 13.0788   8
  -3   6   0 283.389 12.8723   7
  -3   6   0 240.084 17.6242   2
   2  -6   0 591.118 14.9754   6
   2  -6   0 602.126 22.8589   3
   2  -6   0 594.097 19.4948   7
   2  -6   0 606.284 16.2868   4
  -2   6   0 579.739 22.5918   2
  -2   6   0 638.545 20.4120   8
  -2   6   0 604.741 19.4341   7
   1  -6   0 2610.49 44.8195   4
   1  -6   0 2552.04 59.7474   3
   1  -6   0 2618.35 45.3745   6
   1  -6   0 2587.95 51.7874   7
  -1   6   0 2556.23 58.2613   2
  -1   6   0 2549.28 54.2803   8
  -1   6   0 2618.93 51.5648   7
   0  -6   0 286.021 7.56074   5
   0  -6   0 282.269 16.9642   3
   0  -6   0 290.097 11.8655   7
   0  -6   0 285.544 9.52936   6
   0   6   0 296.563 15.8582   2
   0   6   0 299.375 11.6862   7
   0   6   0 283.409 9.81911   6
   0   6   0 280.377 13.7805   8
  -1  -6   0 1054.06 37.4663   3
  -1  -6   0 1072.33 24.6789   6
  -1  -6   0 1085.13 21.2384   5
   1   6   0 1074.05 33.8367   2
   1   6   0 1041.34 25.3363   7
   1   6   0 1112.05 31.7351   8
   1   6   0 1098.64 22.7757   6
  -2  -6   0 255.134 10.9170   6
  -2  -6   0 292.850 19.4604   3
   2   6   0 234.550 8.23152   6
   2   6   0 255.872 10.1548   7
   2   6   0 255.493 14.3125   8
  -3  -6   0 5.13769 1.69746   5
  -3  -6   0 7.26210 2.37190   6
  -3  -6   0 10.1772 4.72183   3
   3   6   0 9.25853 3.62098   8
   3   6   0 8.81074 1.87089   6
   3   6   0 4.86369 1.85842   7
  -4  -6   0 68.1565 13.7720   3
   4   6   0 58.7041 7.58376   8
   4   6   0 56.2413 4.15118   6
  -5  -6   0 7.99179 4.95671   3
   5   6   0 9.29918 4.33176   8
   5   6   0 4.34054 1.71202   6
  -6  -6   0 86.3586 15.6386   3
   6   6   0 99.4168 10.6459   8
  -7  -6   0 495.154 42.3637   3
   7   6   0 501.613 15.9790   6
   7   6   0 494.855 25.3652   8
  -8  -6   0 8.67606 6.47234   3
   8   6   0 9.45288 2.81512   6
   8   6   0 10.4865 5.57184   8
  -9  -6   0 395.550 32.0275   3
   9   6   0 403.028 24.3374   2
   9   6   0 420.325 15.2278   6
   9   6   0 421.364 24.8613   8
  10   6   0 16.8374 5.91009   8
  14  -7   0 10.1051 7.43653   4
  14  -7   0 14.7675 9.60635   7
  13  -7   0 38.9620 8.96298   4
  13  -7   0 44.0433 9.79238   7
  12  -7   0 40.4381 9.23818   7
  12  -7   0 33.5474 8.70218   4
  11  -7   0 42.3372 8.15562   7
  11  -7   0 64.4733 8.51160   2
  11  -7   0 66.7920 12.2760   4
  10  -7   0 92.8228 10.7198   7
  10  -7   0 95.9927 9.88377   2
  10  -7   0 114.358 11.6444   4
   9  -7   0 4.35161 2.54708   7
   9  -7   0 3.77886 3.24362   4
   9  -7   0 5.06325 3.00551   3
   9  -7   0 6.49998 3.97049   2
   9  -7   0 6.64259 2.29685   8
   8  -7   0 160.158 12.8196   2
   8  -7   0 161.163 13.1929   7
   8  -7   0 177.779 13.3866   4
   8  -7   0 156.281 8.57319   8
   7  -7   0 472.189 22.2336   2
   7  -7   0 471.700 21.9581   7
   7  -7   0 446.067 20.5710   4
   7  -7   0 439.768 15.5414   8
  -7   7   0 472.419 18.3050   8
   6  -7   0 87.2682 14.7882   2
   6  -7   0 89.9695 8.25252   4
   6  -7   0 82.1568 8.66222   7
   6  -7   0 83.1801 6.39864   8
  -6   7   0 81.0422 7.24429   8
   5  -7   0 1162.97 34.5881   7
   5  -7   0 1243.14 46.6754   2
   5  -7   0 1225.37 30.4352   8
   5  -7   0 1192.34 33.6851   3
   5  -7   0 1221.48 32.8023   4
   5  -7   0 1217.29 32.6833   5
  -5   7   0 1208.01 32.4181   8
   4  -7   0 403.578 20.9641   2
   4  -7   0 407.189 14.0431   6
   4  -7   0 415.372 16.0653   8
   4  -7   0 428.984 18.9726   3
   4  -7   0 401.133 15.7187   4
   4  -7   0 416.859 18.0565   7
  -4   7   0 424.787 17.3989   8
   3  -7   0 158.157 8.23089   6
   3  -7   0 162.415 11.8662   3
   3  -7   0 149.665 10.1715   7
   3  -7   0 156.942 8.54456   4
  -3   7   0 160.598 10.3856   8
  -3   7   0 166.962 10.2509   7
   2  -7   0 76.2575 4.71323   6
   2  -7   0 81.7848 8.76358   3
   2  -7   0 74.9755 5.07571   4
   2  -7   0 72.6674 6.83574   7
  -2   7   0 74.9585 7.26755   8
  -2   7   0 92.5311 14.1641   7
   1  -7   0 76.8345 9.09087   3
   1  -7   0 81.2099 4.82855   6
   1  -7   0 83.6549 6.90751   7
  -1   7   0 74.7214 6.40357   7
  -1   7   0 79.2856 7.95006   8
   0  -7   0 29.0298 7.33720   3
   0  -7   0 31.4560 3.37548   6
   0  -7   0 32.4608 5.26623   7
   0   7   0 30.7692 6.31129   8
   0   7   0 28.7530 3.41003   6
   0   7   0 28.6986 4.55786   7
  -1  -7   0 983.802 24.4627   6
  -1  -7   0 952.634 38.1572   3
   1   7   0 979.164 22.4773   6
   1   7   0 950.377 24.8113   7
   1   7   0 981.613 31.5077   8
  -2  -7   0 14.3555 6.33845   3
  -2  -7   0 19.4240 4.22583   6
   2   7   0 21.5887 3.84165   7
   2   7   0 21.4313 2.70967   6
   2   7   0 10.2205 3.40683   8
  -3  -7   0 14.9643 6.06484   3
  -3  -7   0 16.6472 3.75183   6
   3   7   0 25.6653 3.85070   7
   3   7   0 21.0933 3.17908   6
   3   7   0 19.9939 5.30598   8
  -4  -7   0 220.838 20.2230   3
   4   7   0 196.931 14.7632   8
   4   7   0 200.356 8.19716   6
  -5  -7   0 35.5563 9.87538   3
   5   7   0 40.6733 8.70869   8
   5   7   0 40.6227 3.76251   6
  -6  -7   0 55.7147 14.1551   3
   6   7   0 35.6193 9.63755   8
   6   7   0 50.3689 4.41837   6
  -7  -7   0 59.2155 14.3345   3
   7   7   0 56.6734 10.4017   8
   7   7   0 48.2161 4.66201   6
  -8  -7   0 3.53527 5.83802   3
   8   7   0 12.0987 5.95990   8
   8   7   0 13.7916 3.11246   6
  -9  -7   0 193.291 42.4289   3
   9   7   0 170.902 16.4094   2
   9   7   0 140.483 15.2627   8
  14  -8   0 -0.5606 4.30218   4
  14  -8   0 4.66384 4.74217   7
  13  -8   0 57.5700 11.2356   4
  13  -8   0 58.3928 12.3157   7
  12  -8   0 21.3302 6.05516   2
  12  -8   0 13.6981 6.72733   4
  12  -8   0 29.3108 9.04208   7
  11  -8   0 6.91026 4.14643   4
  11  -8   0 3.68689 3.99508   7
  11  -8   0 6.78088 3.43118   2
  10  -8   0 151.574 14.4011   7
  10  -8   0 160.214 8.50211   8
  10  -8   0 159.173 14.1415   4
  10  -8   0 134.730 10.3086   3
  10  -8   0 163.464 13.9312   2
   9  -8   0 29.9394 6.60153   7
   9  -8   0 35.2314 4.57153   8
   9  -8   0 30.5945 6.32893   4
   9  -8   0 38.0419 8.38481   2
   8  -8   0 464.484 22.7294   4
   8  -8   0 499.058 24.3889   7
   8  -8   0 510.323 24.9316   2
   7  -8   0 194.224 14.2649   7
   7  -8   0 158.791 12.1178   4
   7  -8   0 163.876 9.64912   8
   7  -8   0 163.058 13.8523   2
   7  -8   0 175.875 11.7316   3
  -7   8   0 184.673 11.5822   8
   6  -8   0 14.9680 4.32646   4
   6  -8   0 14.5857 4.14710   2
   6  -8   0 19.3921 5.46552   7
   6  -8   0 16.3339 4.74270   3
   6  -8   0 17.2667 3.93167   8
  -6   8   0 12.8762 3.75605   8
   5  -8   0 333.473 20.0501   2
   5  -8   0 357.003 16.0238   5
   5  -8   0 347.783 15.9990   4
   5  -8   0 345.886 17.8917   3
   5  -8   0 333.562 17.7552   7
   5  -8   0 359.111 15.4505   8
  -5   8   0 354.952 16.8094   8
   4  -8   0 110.462 9.66416   7
   4  -8   0 123.934 10.9698   3
   4  -8   0 105.689 7.84351   4
  -4   8   0 105.966 9.12928   8
   3  -8   0 288.993 17.1626   7
   3  -8   0 308.599 12.4141   4
   3  -8   0 310.974 11.2042   6
   3  -8   0 271.372 20.3271   3
  -3   8   0 327.491 16.3541   8
   2  -8   0 22.5277 4.50396   7
   2  -8   0 19.5781 2.98400   6
   2  -8   0 25.1101 3.66658   4
   2  -8   0 17.4702 5.03530   3
  -2   8   0 18.1415 4.64953   8
  -2   8   0 23.3700 4.64238   7
   1  -8   0 2.34102 1.56590   6
   1  -8   0 3.11936 3.28499   3
   1  -8   0 3.19529 0.96688   5
   1  -8   0 2.90161 1.87987   7
  -1   8   0 3.09569 2.43047   8
  -1   8   0 0.96993 1.75245   7
   0  -8   0 5.84394 2.43221   6
   0  -8   0 4.06563 2.10542   7
   0  -8   0 8.95207 3.70614   3
   0   8   0 7.44593 2.39877   6
   0   8   0 6.29620 3.24304   8
   0   8   0 7.98085 2.84382   7
  -1  -8   0 77.2867 6.19828   6
  -1  -8   0 90.1627 16.2583   3
   1   8   0 94.8702 9.79196   8
   1   8   0 70.2721 6.29581   7
   1   8   0 79.3830 5.68434   6
  -2  -8   0 407.165 26.9143   3
   2   8   0 412.262 13.4941   6
   2   8   0 416.219 21.3783   8
   2   8   0 414.134 15.1292   7
  -3  -8   0 409.730 28.2952   3
   3   8   0 394.507 14.1294   7
   3   8   0 424.040 13.4497   6
   3   8   0 441.471 22.9743   8
  -4  -8   0 64.5595 13.5367   3
   4   8   0 66.0328 4.95987   6
   4   8   0 72.8436 9.57305   8
  -5  -8   0 13.0916 7.37210   3
   5   8   0 1.64155 2.97345   8
  -6  -8   0 178.434 20.8489   3
   6   8   0 181.389 8.52218   6
   6   8   0 175.748 16.0484   8
  -7  -8   0 471.678 35.3319   3
   7   8   0 450.071 26.8023   8
   7   8   0 436.637 14.2722   6
   8   8   0 41.9135 10.4012   8
  14  -9   0 5.16987 4.69602   7
  13  -9   0 113.731 14.5326   7
  12  -9   0 37.7574 9.23557   7
  12  -9   0 56.6458 11.9185   4
  11  -9   0 72.1193 11.3398   2
  11  -9   0 57.6509 10.7871   4
  11  -9   0 42.1628 9.68596   7
  10  -9   0 93.0179 14.6128   2
  10  -9   0 96.4439 11.4512   7
  10  -9   0 90.0342 10.7835   4
   9  -9   0 468.511 25.8423   2
   9  -9   0 441.348 23.4343   4
   9  -9   0 488.289 25.8884   7
   9  -9   0 457.479 20.0388   3
   9  -9   0 436.262 17.0073   8
   8  -9   0 28.0098 6.82367   4
   8  -9   0 40.2117 9.30558   2
   8  -9   0 32.8746 6.38944   3
   8  -9   0 24.7951 5.92018   7
   7  -9   0 203.308 13.8740   3
   7  -9   0 220.485 16.0451   7
   7  -9   0 192.925 13.5515   4
   7  -9   0 207.455 16.7120   2
  -7   9   0 196.323 15.4071   8
   6  -9   0 64.2398 7.45476   4
   6  -9   0 77.3188 13.2228   2
   6  -9   0 52.4925 8.84562   7
  -6   9   0 67.7948 7.70215   8
   5  -9   0 18.8371 5.27142   3
   5  -9   0 6.36138 2.96116   5
   5  -9   0 23.4102 5.69973   7
   5  -9   0 6.33820 2.90332   4
  -5   9   0 11.4703 3.78081   8
   4  -9   0 686.600 26.3894   7
   4  -9   0 674.508 29.0995   3
   4  -9   0 677.427 21.8695   4
  -4   9   0 684.915 26.4899   8
   3  -9   0 39.4405 4.29009   4
   3  -9   0 36.7331 6.40126   7
   3  -9   0 44.6999 8.52267   3
  -3   9   0 49.5822 8.38124   8
   2  -9   0 463.732 19.7727   7
   2  -9   0 449.248 25.3516   3
  -2   9   0 436.653 21.5005   8
   1  -9   0 151.355 12.7536   7
   1  -9   0 145.645 8.05963   6
   1  -9   0 153.048 15.3197   3
  -1   9   0 163.136 13.0553   8
   0  -9   0 96.9386 16.9583   3
   0  -9   0 71.9417 7.10813   7
   0  -9   0 73.9419 6.16261   6
   0   9   0 73.6339 9.10120   8
   0   9   0 81.7666 7.59509   7
  -1  -9   0 72.9935 6.48764   6
  -1  -9   0 66.6588 13.3201   3
   1   9   0 58.2267 5.34092   6
   1   9   0 66.5757 8.67405   8
   1   9   0 62.6683 6.17331   7
  -2  -9   0 78.2834 14.1758   3
   2   9   0 77.0450 9.84659   8
   2   9   0 76.2086 5.97196   6
  -3  -9   0 181.825 22.9302   3
   3   9   0 162.621 8.60473   6
   3   9   0 178.550 15.8465   8
  -4  -9   0 218.282 22.6453   3
   4   9   0 212.996 17.2535   8
  -5  -9   0 23.5574 9.88472   3
   5   9   0 33.8500 8.48305   8
   5   9   0 34.2036 4.76423   6
  -6  -9   0 105.903 21.0707   3
   6   9   0 114.892 13.3762   8
  -7  -9   0 113.737 20.5785   3
   7   9   0 98.0519 24.1403   8
  13 -10   0 42.9279 10.1739   4
  13 -10   0 25.7622 8.07470   7
  12 -10   0 1.75209 4.14448   7
  12 -10   0 9.63772 5.74462   4
  11 -10   0 20.1748 8.15895   7
  11 -10   0 15.5389 5.84784   4
  10 -10   0 8.53839 4.37282   4
  10 -10   0 17.2912 4.93114   3
  10 -10   0 19.6046 7.19456   7
   9 -10   0 388.093 23.7899   7
   9 -10   0 342.601 18.5693   3
   9 -10   0 329.563 20.3648   4
   8 -10   0 34.2097 6.97389   7
   8 -10   0 39.4937 8.01592   4
   8 -10   0 36.7975 7.80788   3
   7 -10   0 1.90283 2.45621   7
   7 -10   0 -0.6949 1.77411   4
   7 -10   0 0.93602 2.37740   3
  -7  10   0 -3.4475 1.48585   8
   6 -10   0 208.204 15.7712   3
   6 -10   0 201.521 13.1333   4
   6 -10   0 218.034 15.9274   7
  -6  10   0 206.376 14.6082   8
   5 -10   0 114.696 9.14073   4
   5 -10   0 111.287 11.8846   3
   5 -10   0 102.614 10.6469   7
  -5  10   0 105.230 10.4172   8
   4 -10   0 109.542 12.3993   3
   4 -10   0 101.908 10.3347   7
  -4  10   0 115.932 11.1194   8
   3 -10   0 -3.0857 1.46393   3
   3 -10   0 3.48192 2.19919   5
   3 -10   0 -0.4404 1.58551   7
   3 -10   0 0.41924 1.10272   4
  -3  10   0 3.48362 2.40952   8
   2 -10   0 36.9115 6.90657   7
   2 -10   0 48.2235 11.6738   3
  -2  10   0 48.9432 9.52776   8
   1 -10   0 26.7171 7.24336   3
   1 -10   0 31.0220 6.57003   7
  -1  10   0 30.9724 7.62931   8
   0 -10   0 46.4701 10.1357   3
   0  10   0 46.4014 9.36974   8
  -1 -10   0 6.10602 4.25829   3
   1  10   0 8.58337 4.81636   8
  -2 -10   0 172.794 19.5521   3
   2  10   0 164.609 15.2577   8
  -3 -10   0 17.8876 7.98302   3
   3  10   0 26.6127 6.95967   8
  -4 -10   0 23.9536 9.34817   3
   4  10   0 22.0600 4.15418   6
   4  10   0 20.1288 6.50545   8
  -5 -10   0 45.0197 14.2641   3
   5  10   0 53.8542 11.9360   8
  -6 -10   0 13.5111 10.2224   3
   6  10   0 16.9927 7.32224   8
  13 -11   0 -10.171 5.68413   7
  13 -11   0 3.82518 5.10479   4
  12 -11   0 25.9918 8.12255   7
  12 -11   0 44.8530 11.5420   4
  11 -11   0 136.325 15.4144   7
  11 -11   0 140.841 14.4994   4
  10 -11   0 99.6040 10.3717   3
  10 -11   0 123.139 12.9236   4
  10 -11   0 96.0582 15.5021   7
   9 -11   0 253.159 17.1720   3
   9 -11   0 285.434 19.0778   4
   9 -11   0 294.289 21.5238   7
   8 -11   0 3.79689 4.00848   3
   8 -11   0 6.19998 3.69163   4
   8 -11   0 4.40560 3.89638   7
   7 -11   0 16.6783 6.25210   3
   7 -11   0 26.5529 7.88647   7
   7 -11   0 20.5391 5.83572   4
  -7  11   0 19.0216 5.33040   8
   6 -11   0 378.540 18.1467   4
   6 -11   0 349.587 22.3332   3
   6 -11   0 345.203 21.4100   7
  -6  11   0 385.338 21.3920   8
   5 -11   0 12.5821 4.44123   7
   5 -11   0 19.7355 7.10883   3
  -5  11   0 4.63635 3.72282   8
   3 -11   0 373.842 20.1534   7
   3 -11   0 386.978 26.5112   3
  -3  11   0 400.556 22.6341   8
   2 -11   0 25.3079 6.45414   7
   2 -11   0 20.1349 6.64904   3
  -2  11   0 24.5228 7.23951   8
   1 -11   0 374.769 27.5685   3
  -1  11   0 328.903 23.5770   8
   0 -11   0 77.6514 16.4285   3
   0  11   0 46.3068 8.98533   8
  -1 -11   0 5.34811 4.64421   3
   1  11   0 1.98194 2.86268   8
  -2 -11   0 308.999 27.6767   3
   2  11   0 280.954 21.3501   8
  -3 -11   0 12.4576 6.23008   3
   3  11   0 3.85621 3.89224   8
  -4 -11   0 446.641 39.6510   3
   4  11   0 505.276 32.7680   8
  -5 -11   0 57.4405 14.6384   3
   5  11   0 55.7733 12.5098   8
  12 -12   0 14.5198 6.23653   7
  12 -12   0 1.94677 4.56685   4
  11 -12   0 20.0588 9.04212   7
  11 -12   0 30.3969 7.74030   4
  10 -12   0 23.4629 7.17843   7
  10 -12   0 32.8472 7.18846   4
   9 -12   0 32.5803 7.85937   7
   9 -12   0 15.5899 4.27552   4
   9 -12   0 16.0868 6.15810   3
  -9  12   0 4.80992 3.13711   8
   8 -12   0 358.465 22.5250   3
   8 -12   0 384.601 24.5647   7
   8 -12   0 358.605 20.8062   4
   7 -12   0 37.1410 8.65768   7
   7 -12   0 51.4641 10.8451   3
   6 -12   0 7.99859 4.13369   7
   6 -12   0 -1.1314 3.27202   3
   6 -12   0 1.31648 2.02503   4
  -6  12   0 -1.1186 3.03718   8
   5 -12   0 68.0077 12.3537   3
   5 -12   0 58.7038 10.2242   7
  -5  12   0 67.1782 10.8607   8
   4 -12   0 8.12237 5.39465   3
   4 -12   0 8.26328 3.97381   7
  -4  12   0 8.50648 4.64157   8
   3 -12   0 0.20108 2.72025   7
   3 -12   0 2.43790 7.50623   3
  -3  12   0 7.70313 4.35444   8
   2 -12   0 -0.8233 2.13097   7
   2 -12   0 4.49343 4.39399   3
  -2  12   0 6.77969 4.17152   8
   1 -12   0 12.7804 7.42302   3
  -1  12   0 15.1027 5.96310   8
   0 -12   0 143.522 18.4125   3
   0  12   0 120.996 14.3023   8
  -1 -12   0 131.556 23.8224   3
   1  12   0 116.301 14.4806   8
  -2 -12   0 25.1059 9.72694   3
   2  12   0 19.1497 5.87165   8
  -3 -12   0 200.848 24.2078   3
   3  12   0 187.008 19.5515   8
  11 -13   0 14.6955 8.12082   7
  11 -13   0 29.1470 9.58818   4
  10 -13   0 -5.5107 3.74878   4
  10 -13   0 -4.4469 3.58916   7
 -10  13   0 2.95064 5.62322   8
   9 -13   0 12.2458 4.71723   4
   9 -13   0 0.87128 5.85652   3
   9 -13   0 2.97541 5.11556   7
  -9  13   0 3.29937 4.67159   8
   7 -13   0 4.68921 4.54524   7
   7 -13   0 -6.2409 2.82157   4
  -7  13   0 -0.3786 2.98677   8
   6 -13   0 -8.6889 3.47833   3
   6 -13   0 -3.0712 2.66484   7
   6 -13   0 -4.4357 2.26418   4
  -6  13   0 2.41885 3.09613   8
   5 -13   0 16.5552 6.21154   7
   5 -13   0 17.0982 6.92532   3
  -5  13   0 10.7655 5.46110   8
   4 -13   0 33.9694 8.44230   7
   4 -13   0 6.25709 5.98397   3
  -4  13   0 24.7476 6.93988   8
   3 -13   0 1.04662 3.17134   7
   3 -13   0 19.1108 6.48275   3
  -3  13   0 8.26919 4.23021   8
   2 -13   0 95.4526 18.5876   3
  -2  13   0 96.8670 12.5145   8
   1 -13   0 -9.4802 5.60251   3
  -1  13   0 -2.5136 2.74099   8
   0 -13   0 76.1345 16.9266   3
   0  13   0 50.6867 11.0016   8
  -1 -13   0 30.4514 10.8113   3
   1  13   0 27.8318 8.80430   8
  -2 -13   0 17.1116 12.2638   3
   2  13   0 28.1464 13.1679   8
   9 -14   0 13.4510 7.39315   7
   9 -14   0 -0.1314 3.88160   4
  -9  14   0 3.66905 5.80564   8
   8 -14   0 20.2449 12.0606   7
   8 -14   0 30.3104 9.56645   3
   7 -14   0 6.97918 5.79681   7
   7 -14   0 1.76789 5.64483   3
   7 -14   0 2.05043 4.44606   4
  -7  14   0 -0.6204 3.82722   8
   6 -14   0 -0.3735 4.27957   7
   6 -14   0 -2.1898 4.72549   3
  -6  14   0 -0.7761 3.04061   8
   5 -14   0 21.7838 7.02292   7
   5 -14   0 21.9296 8.77180   3
  -5  14   0 6.20205 5.30572   8
   4 -14   0 88.8963 17.4208   3
  -4  14   0 84.1548 13.3139   8
   3 -14   0 -7.0080 3.36069   7
   3 -14   0 11.3587 6.37592   3
  -3  14   0 -6.7296 3.03597   8
   2 -14   0 -4.2624 7.78835   3
  -2  14   0 6.68632 4.86841   8
   1 -14   0 7.60740 8.48627   3
  -1  14   0 -7.1209 4.35888   8
  -4  15  -1 33.0364 8.85823   8
   4 -15   1 59.4501 16.2070   3
  -5  15  -1 3.32225 7.73191   8
   5 -15   1 -11.763 6.69338   3
   5 -15   1 -4.2033 4.77168   7
  -6  15  -1 0.16151 5.38565   8
   6 -15   1 17.4119 11.8688   3
   0  14  -1 195.665 20.0511   8
   0 -14   1 211.261 25.0136   3
  -1  14  -1 11.5087 5.10128   8
   1 -14   1 2.47794 6.37065   3
  -2  14  -1 17.7449 5.84410   8
   2 -14   1 -12.441 5.29774   3
  -3  14  -1 27.8163 8.16990   8
   3 -14   1 26.8866 10.1854   3
  -4  14  -1 -2.8031 3.65589   8
   4 -14   1 11.9059 5.99102   3
   4 -14   1 6.22749 3.49482   7
  -5  14  -1 7.67416 5.07393   8
   5 -14   1 5.69923 6.21467   3
   5 -14   1 0.28201 3.97421   7
  -6  14  -1 1.52330 3.55312   8
   6 -14   1 4.27042 4.10751   4
   6 -14   1 9.49051 6.96087   3
   6 -14   1 14.4654 6.64221   7
  -7  14  -1 1.98261 3.69974   8
   7 -14   1 14.6480 6.95974   3
   7 -14   1 -6.3118 4.25982   4
   7 -14   1 -6.0441 3.91004   7
  -8  14  -1 13.9912 4.77721   8
   8 -14   1 45.2510 10.5772   7
   8 -14   1 5.27656 5.53530   4
   8 -14   1 27.2168 7.69591   3
   2  13  -1 68.2017 14.1473   8
  -2 -13   1 51.4698 14.5156   3
   1  13  -1 -1.1964 5.77629   8
  -1 -13   1 29.4099 14.2741   3
   0  13  -1 115.863 14.7600   8
   0 -13   1 114.337 20.2855   3
  -1  13  -1 178.296 17.0111   8
   1 -13   1 153.574 20.0058   3
  -2  13  -1 52.1783 10.8404   8
   2 -13   1 36.9076 12.1979   3
  -3  13  -1 10.4776 4.91581   8
   3 -13   1 15.8684 7.28142   3
  -4  13  -1 37.5504 8.87844   8
   4 -13   1 30.7187 9.29902   3
   4 -13   1 27.7327 9.72077   7
  -5  13  -1 211.945 17.7536   8
   5 -13   1 210.274 20.1220   3
   5 -13   1 219.486 17.1178   7
  -6  13  -1 32.9633 10.5085   8
   6 -13   1 19.3238 6.21066   7
   6 -13   1 7.32271 2.89983   4
   6 -13   1 12.8975 6.44823   3
   7 -13   1 59.0912 10.7097   7
   7 -13   1 65.7815 14.3789   3
   8 -13   1 48.9287 9.66623   7
   9 -13   1 32.7795 7.91591   4
   9 -13   1 59.2474 11.2712   7
   9 -13   1 45.4412 10.2181   3
  10 -13   1 119.506 13.1557   3
  10 -13   1 35.7368 12.4634   7
  10 -13   1 72.9292 12.8930   4
  11 -13   1 3.03412 4.38667   7
  11 -13   1 7.60196 4.39455   4
   4  12  -1 112.139 19.4963   8
  -4 -12   1 48.9553 15.7547   3
   3  12  -1 101.398 16.4211   8
  -3 -12   1 64.0811 17.1816   3
   2  12  -1 -3.1370 3.22326   8
  -2 -12   1 10.1603 5.32924   3
   1  12  -1 4.59795 3.90343   8
  -1 -12   1 0.73252 4.11347   3
   0  12  -1 0.69800 2.86671   8
   0 -12   1 1.30578 3.48983   3
  -1  12  -1 155.582 14.9030   8
   1 -12   1 135.075 17.1380   3
  -2  12  -1 64.5343 11.0448   8
   2 -12   1 64.0034 12.4962   3
  -3  12  -1 4.45266 3.14854   8
   3 -12   1 0.80450 2.24490   7
  -4  12  -1 79.8437 10.2073   8
   4 -12   1 57.3741 12.2085   3
   4 -12   1 64.2583 10.3442   7
  -5  12  -1 -3.5932 2.23119   8
   5 -12   1 3.04284 1.77937   4
   5 -12   1 -4.1555 2.72847   3
   5 -12   1 0.03638 2.33743   7
  -6  12  -1 194.620 15.5540   8
   6 -12   1 221.903 18.8059   3
  -7  12  -1 0.97298 2.20142   8
   7 -12   1 -1.7322 1.95069   4
   7 -12   1 10.5396 4.03949   3
   7 -12   1 0.43350 3.27253   7
   8 -12   1 8.19736 3.94760   4
   8 -12   1 -4.6542 3.52548   3
   8 -12   1 2.74375 3.02150   7
   9 -12   1 91.9028 11.0124   4
   9 -12   1 103.139 13.2062   7
   9 -12   1 98.9667 11.9628   3
  10 -12   1 172.396 15.7347   4
  10 -12   1 160.382 16.8007   7
  10 -12   1 149.163 14.1618   3
  11 -12   1 0.15033 4.23829   4
  11 -12   1 3.47349 6.07662   7
  12 -12   1 3.53164 5.01203   4
  12 -12   1 0.84208 3.90053   7
   5  11  -1 4.71561 6.47890   8
  -5 -11   1 16.9014 10.3776   3
   4  11  -1 9.06628 3.58206   6
   4  11  -1 17.6569 7.20529   8
  -4 -11   1 21.2488 9.31568   3
   3  11  -1 12.1019 3.49276   6
   3  11  -1 14.1108 5.67753   8
  -3 -11   1 5.45183 5.37406   3
   2  11  -1 394.342 25.2285   8
  -2 -11   1 420.548 32.5856   3
   1  11  -1 61.7923 11.8322   8
  -1 -11   1 64.8252 15.4429   3
   0  11  -1 65.3648 11.8078   8
   0 -11   1 59.7321 13.6421   3
  -1  11  -1 11.3920 4.21444   8
   1 -11   1 5.68510 3.93525   3
  -2  11  -1 147.884 13.3729   8
   2 -11   1 128.545 15.5311   3
   2 -11   1 143.496 11.3228   7
  -3  11  -1 1.60235 2.00970   8
   3 -11   1 -0.4848 1.42637   4
   3 -11   1 2.79933 3.52296   7
   3 -11   1 0.93015 2.74179   3
  -4  11  -1 176.568 13.9413   8
   4 -11   1 173.812 16.6279   3
   4 -11   1 179.199 13.7714   7
  -5  11  -1 2.09980 2.95809   8
   5 -11   1 0.96271 3.03895   5
   5 -11   1 9.47238 5.68022   3
   5 -11   1 16.7636 5.66626   7
  -6  11  -1 334.696 19.1714   8
   6 -11   1 332.173 20.3499   7
   6 -11   1 329.348 17.4124   4
   6 -11   1 331.936 21.9551   3
   7 -11   1 70.5579 10.8753   4
   7 -11   1 52.7736 9.12483   7
   7 -11   1 64.0491 11.0469   3
  -8  11  -1 4.76989 2.57053   8
   8 -11   1 4.33325 2.80868   7
   8 -11   1 7.13700 4.26497   3
   8 -11   1 13.2983 6.96021   2
   8 -11   1 3.18148 2.43112   4
   9 -11   1 73.1603 11.6714   4
   9 -11   1 71.9492 9.92379   3
   9 -11   1 80.1347 13.9840   7
   9 -11   1 85.1530 14.3951   2
  10 -11   1 -4.7765 3.12880   7
  10 -11   1 2.78184 3.57419   3
  10 -11   1 -1.6620 3.18357   4
  11 -11   1 16.7066 6.68346   4
  11 -11   1 16.9332 5.69476   7
  12 -11   1 -3.1151 4.76904   7
  12 -11   1 11.1172 4.75586   4
  13 -11   1 24.4132 7.67998   4
  13 -11   1 10.9694 6.20833   7
   6  10  -1 171.637 17.8325   8
  -6 -10   1 172.608 23.3620   3
   5  10  -1 55.2906 11.2111   8
   5  10  -1 59.1083 5.88131   6
  -5 -10   1 54.0745 15.3896   3
   4  10  -1 6.41958 3.03131   6
   4  10  -1 6.23024 4.82694   8
  -4 -10   1 5.56019 5.25482   3
   3  10  -1 169.065 15.4868   8
   3  10  -1 151.441 9.31132   6
  -3 -10   1 159.296 19.0632   3
   2  10  -1 8.21260 4.84345   8
   2  10  -1 7.69027 2.90910   6
  -2 -10   1 0.20096 3.69347   3
   1  10  -1 344.163 21.1153   8
   1  10  -1 304.677 13.5729   7
   1  10  -1 300.096 13.8043   6
  -1 -10   1 343.795 26.4143   3
   0  10  -1 3.10045 2.87118   8
   0 -10   1 -3.5749 2.60558   3
   0 -10   1 0.37839 1.65674   7
  -1  10  -1 3.67139 2.97275   8
   1 -10   1 -0.5265 2.36984   3
   1 -10   1 -1.7642 1.42774   7
  -2  10  -1 633.024 26.7176   8
   2 -10   1 608.880 31.8530   3
   2 -10   1 599.801 23.3270   7
  -3  10  -1 24.9392 6.17581   8
   3 -10   1 26.1995 6.15617   7
   3 -10   1 24.1097 7.55526   3
  -4  10  -1 307.283 17.6687   8
   4 -10   1 337.770 14.7373   4
   4 -10   1 351.458 22.1469   3
   4 -10   1 323.431 17.8755   7
  -5  10  -1 434.914 20.8907   8
   5 -10   1 436.020 18.6300   4
   5 -10   1 407.073 16.7203   5
   5 -10   1 413.668 23.7568   3
   5 -10   1 403.388 21.0750   7
  -6  10  -1 0.23158 2.23486   8
   6 -10   1 1.58899 2.15600   7
   6 -10   1 1.04404 2.42793   4
   6 -10   1 5.76733 3.62563   3
   6 -10   1 1.76571 2.43614   2
   7 -10   1 416.684 22.9942   7
   7 -10   1 446.141 26.6436   2
   7 -10   1 427.624 22.8603   3
   7 -10   1 448.405 21.5812   4
   8 -10   1 12.9169 4.97904   4
   8 -10   1 18.8987 5.90949   3
   8 -10   1 12.7536 5.81782   7
   8 -10   1 19.5269 6.68361   2
   9 -10   1 154.316 14.4374   7
   9 -10   1 183.461 13.8205   3
   9 -10   1 163.745 14.0956   4
   9 -10   1 168.824 16.3584   2
  10 -10   1 898.869 39.2623   2
  10 -10   1 886.797 38.0309   7
  10 -10   1 919.708 32.5832   3
  10 -10   1 917.717 37.2626   4
  11 -10   1 3.11803 4.47303   4
  11 -10   1 6.86347 3.91769   7
  12 -10   1 78.8928 12.9880   2
  12 -10   1 75.6564 13.9568   7
  12 -10   1 66.4450 11.6610   4
  13 -10   1 2.11638 3.91134   4
  13 -10   1 2.93429 4.16730   7
   7   9  -1 23.3014 7.59841   8
  -7  -9   1 27.1067 10.9767   3
   6   9  -1 28.9435 4.46500   6
   6   9  -1 36.1299 8.67854   8
  -6  -9   1 22.2222 9.81289   3
   5   9  -1 63.9115 5.73235   6
   5   9  -1 75.1986 12.8260   8
  -5  -9   1 51.1382 12.4912   3
   4   9  -1 7.79311 2.64676   6
   4   9  -1 14.0930 5.19086   8
  -4  -9   1 5.35522 4.86588   3
   3   9  -1 8.01862 2.54137   6
   3   9  -1 12.5925 4.44170   8
  -3  -9   1 16.3696 6.83814   3
   2   9  -1 278.831 12.0733   6
   2   9  -1 316.985 19.5483   8
  -2  -9   1 329.835 25.1823   3
   1   9  -1 23.1377 3.99744   7
   1   9  -1 26.6666 4.45815   6
   1   9  -1 22.7787 6.02224   8
  -1  -9   1 15.6935 5.83406   3
   0   9  -1 90.1001 7.37941   7
   0   9  -1 89.9031 6.98991   6
   0   9  -1 87.3812 9.52994   8
   0  -9   1 92.9174 12.4013   3
   0  -9   1 77.6963 6.86682   7
  -1   9  -1 314.839 17.5679   8
  -1   9  -1 238.396 12.9795   7
   1  -9   1 279.123 14.0081   7
   1  -9   1 260.498 19.7256   3
  -2   9  -1 66.0143 7.84491   8
   2  -9   1 59.3132 11.5043   3
  -3   9  -1 36.4386 6.41758   8
   3  -9   1 49.3412 5.03995   4
   3  -9   1 51.5961 10.2323   3
   3  -9   1 40.4544 6.53294   7
   3  -9   1 45.6268 4.53313   5
  -4   9  -1 -0.7638 1.51206   8
   4  -9   1 2.29895 3.36095   2
   4  -9   1 2.02393 2.11367   7
   4  -9   1 0.68370 2.28825   3
   4  -9   1 2.44245 1.65797   4
   4  -9   1 -1.9410 1.86951   5
   5  -9   1 73.9390 6.87929   5
   5  -9   1 93.6390 9.44703   7
   5  -9   1 97.5235 10.5022   3
   5  -9   1 83.8253 10.6383   2
   5  -9   1 94.3253 8.17764   4
  -6   9  -1 87.8086 8.04998   8
   6  -9   1 75.5724 10.0592   2
   6  -9   1 69.3885 9.99456   4
   6  -9   1 73.0161 11.4089   7
   6  -9   1 76.0590 8.92386   3
  -7   9  -1 17.2068 4.43331   8
   7  -9   1 32.5688 7.18695   4
   7  -9   1 22.8516 6.31162   2
   7  -9   1 36.2877 8.14917   7
   8  -9   1 115.941 12.8848   2
   8  -9   1 110.203 10.6878   4
   8  -9   1 109.023 11.9613   7
   9  -9   1 202.864 15.5566   4
   9  -9   1 185.001 15.5352   7
   9  -9   1 171.311 15.6576   2
  10  -9   1 8.17723 3.85791   4
  10  -9   1 2.89128 4.24283   2
  10  -9   1 13.0987 5.44663   7
  11  -9   1 75.8786 12.8731   2
  11  -9   1 59.1213 10.3835   4
  11  -9   1 55.4100 11.5365   7
  12  -9   1 56.7183 10.2144   2
  12  -9   1 54.5331 11.5879   4
  12  -9   1 39.7287 10.0338   7
  13  -9   1 59.8618 13.7543   2
  13  -9   1 61.2070 10.8488   7
  13  -9   1 97.1894 21.4658   4
  14  -9   1 6.31399 5.40799   7
   8   8  -1 -7.3461 3.59115   8
  -8  -8   1 2.95581 5.55422   3
   7   8  -1 2.51170 3.37549   8
   7   8  -1 -0.3173 1.72528   6
  -7  -8   1 12.7086 6.43829   3
   6   8  -1 25.6354 6.37262   8
   6   8  -1 23.9518 3.97996   6
  -6  -8   1 36.9029 10.8393   3
   5   8  -1 95.4683 6.25197   6
   5   8  -1 83.2315 10.7098   8
  -5  -8   1 74.0137 14.1684   3
   4   8  -1 163.621 14.0294   8
   4   8  -1 169.055 8.34991   6
  -4  -8   1 147.353 17.2844   3
   3   8  -1 29.7647 7.73105   8
  -3  -8   1 23.5129 9.21090   3
   2   8  -1 1.64328 1.91613   8
   2   8  -1 5.23640 1.89962   7
   2   8  -1 7.90985 2.48819   6
  -2  -8   1 8.80085 3.24328   6
  -2  -8   1 6.31506 3.34774   3
   1   8  -1 8.81214 2.37699   6
   1   8  -1 5.38834 2.96516   8
  -1  -8   1 7.46267 2.81812   6
  -1  -8   1 10.3338 5.28838   3
   0   8  -1 507.114 17.5353   7
   0   8  -1 543.691 16.9282   6
   0   8  -1 495.518 21.7320   8
   0  -8   1 511.191 27.0726   3
   0  -8   1 546.748 18.0752   7
   0  -8   1 472.919 16.3240   6
  -1   8  -1 104.052 7.18543   6
  -1   8  -1 89.7601 7.32314   7
  -1   8  -1 93.2238 8.79935   8
   1  -8   1 103.757 11.4790   3
   1  -8   1 102.255 7.71347   7
   1  -8   1 92.4877 6.05612   6
  -2   8  -1 38.0322 6.77817   8
  -2   8  -1 29.7419 5.23960   7
   2  -8   1 31.8730 5.94924   7
   2  -8   1 29.0687 3.35330   4
   2  -8   1 26.6932 7.04475   3
   2  -8   1 36.5157 3.61577   6
  -3   8  -1 757.256 25.1355   8
  -3   8  -1 696.591 27.4672   7
   3  -8   1 728.671 30.5675   2
   3  -8   1 725.468 24.6911   7
   3  -8   1 739.752 38.7227   3
   3  -8   1 712.962 19.6865   5
   3  -8   1 750.484 21.3186   4
  -4   8  -1 1164.27 32.4579   8
   4  -8   1 1119.36 36.5103   3
   4  -8   1 1143.89 30.4314   4
   4  -8   1 1199.54 34.3640   7
   4  -8   1 1133.33 28.9970   5
   4  -8   1 1135.86 39.0668   2
  -5   8  -1 279.679 14.1236   8
   5  -8   1 304.400 14.8259   4
   5  -8   1 299.725 13.9935   5
   5  -8   1 290.343 18.4393   2
   5  -8   1 304.179 16.4132   7
  -6   8  -1 0.05424 1.54420   8
   6  -8   1 1.85454 2.22374   4
   6  -8   1 -1.5046 1.30562   7
   6  -8   1 1.17535 2.25434   2
  -7   8  -1 284.040 13.4019   8
   7  -8   1 266.638 16.8061   7
   7  -8   1 274.208 18.1756   2
   7  -8   1 245.919 15.1690   4
   8  -8   1 964.393 34.3815   4
   8  -8   1 988.560 36.9120   2
   8  -8   1 1023.34 36.2205   7
   9  -8   1 5.31395 2.77911   7
   9  -8   1 3.82898 3.87026   2
   9  -8   1 4.19080 3.89054   4
  10  -8   1 154.075 13.8423   2
  10  -8   1 162.533 13.4346   3
  10  -8   1 156.472 14.2007   4
  10  -8   1 156.290 14.1005   7
  11  -8   1 14.8248 5.21815   2
  11  -8   1 6.61027 3.95464   7
  11  -8   1 2.32073 3.03999   4
  12  -8   1 8.62400 3.58042   2
  12  -8   1 -2.5683 2.53990   7
  12  -8   1 2.43532 3.42305   4
  13  -8   1 -7.3983 3.17598   4
  13  -8   1 -1.4023 3.29510   7
  14  -8   1 -3.8412 3.87162   7
  14  -8   1 8.86599 5.01690   4
   9   7  -1 161.267 15.8026   8
   9   7  -1 149.928 10.3550   6
  -9  -7   1 153.406 25.2936   3
   8   7  -1 520.154 28.5527   8
   8   7  -1 556.999 18.1108   6
  -8  -7   1 525.184 36.6203   3
   7   7  -1 0.38007 2.60012   8
   7   7  -1 -1.8312 1.40718   6
  -7  -7   1 1.61032 3.55747   3
   6   7  -1 270.414 11.2126   6
   6   7  -1 264.152 18.6931   8
  -6  -7   1 250.261 23.0507   3
   5   7  -1 21.0557 5.69274   8
   5   7  -1 33.4989 3.71604   6
  -5  -7   1 23.1149 8.23856   3
   4   7  -1 87.4149 9.64349   8
   4   7  -1 101.937 6.24935   6
  -4  -7   1 95.3270 13.1684   3
   3   7  -1 262.509 9.79783   6
   3   7  -1 243.125 15.6462   8
  -3  -7   1 232.462 12.5310   6
  -3  -7   1 248.057 20.1133   3
   2   7  -1 1.10745 1.63810   8
   2   7  -1 -1.5725 0.69360   6
  -2  -7   1 6.51954 4.51933   3
  -2  -7   1 4.76674 2.39992   6
   1   7  -1 592.107 16.1319   6
   1   7  -1 593.073 17.0467   7
   1   7  -1 564.643 22.6360   8
  -1  -7   1 579.310 18.2046   6
  -1  -7   1 561.234 16.9820   7
   0   7  -1 1168.28 33.2915   8
   0   7  -1 1119.17 25.9648   6
   0   7  -1 1150.79 27.5237   7
   0  -7   1 1144.37 39.5367   3
   0  -7   1 1137.30 26.4550   6
   0  -7   1 1132.19 27.9240   7
  -1   7  -1 -1.8680 1.06497   7
  -1   7  -1 2.04496 1.47879   6
  -1   7  -1 -0.2734 1.00799   8
   1  -7   1 1.23369 2.21391   3
   1  -7   1 1.49135 1.09915   6
   1  -7   1 1.31757 1.28674   7
  -2   7  -1 609.194 20.2610   7
  -2   7  -1 616.448 21.2521   8
   2  -7   1 645.135 25.6341   3
   2  -7   1 605.437 16.9324   4
   2  -7   1 605.581 25.8059   2
   2  -7   1 605.266 15.9798   5
   2  -7   1 633.437 20.6452   7
  -3   7  -1 41.2150 4.89701   8
  -3   7  -1 42.5002 5.25740   7
   3  -7   1 38.9135 7.44142   2
   3  -7   1 33.1167 5.66629   7
   3  -7   1 39.2262 4.41088   4
   3  -7   1 44.6333 3.89140   6
   3  -7   1 37.0090 7.43261   3
   3  -7   1 38.4645 3.90305   5
  -4   7  -1 684.528 23.5321   7
  -4   7  -1 699.960 21.7963   8
   4  -7   1 656.235 20.2438   5
   4  -7   1 673.001 23.4256   7
   4  -7   1 690.008 27.8074   2
   4  -7   1 682.763 19.0542   6
   4  -7   1 672.307 21.3435   4
  -5   7  -1 42.7077 4.88982   8
   5  -7   1 30.9011 5.86573   7
   5  -7   1 42.9013 6.99355   4
  -6   7  -1 798.235 23.1672   8
   6  -7   1 765.778 27.7106   7
   6  -7   1 795.007 29.8318   2
   6  -7   1 769.521 20.9794   8
   6  -7   1 818.302 27.1108   4
  -7   7  -1 64.7482 5.70042   8
   7  -7   1 74.3024 8.42773   7
   7  -7   1 65.7039 7.87137   4
   7  -7   1 70.2342 8.56446   2
   7  -7   1 66.1358 5.05078   8
   8  -7   1 322.344 18.7009   7
   8  -7   1 326.310 18.8215   2
   8  -7   1 367.126 19.2971   4
   9  -7   1 23.4106 5.56476   2
   9  -7   1 15.0885 4.98948   4
   9  -7   1 36.0712 7.96823   7
  10  -7   1 -2.9231 2.43849   2
  10  -7   1 -3.1236 1.05932   4
  10  -7   1 -4.4842 2.14882   7
  10  -7   1 3.48068 3.41603   3
  11  -7   1 220.786 15.8301   2
  11  -7   1 226.571 17.4917   7
  11  -7   1 246.437 18.5169   4
  12  -7   1 130.408 12.0956   2
  12  -7   1 114.077 13.1072   4
  12  -7   1 116.851 13.2249   7
  13  -7   1 2.05478 3.37993   4
  13  -7   1 1.89595 3.35709   7
  14  -7   1 8.17156 8.14157   7
  14  -7   1 26.0697 8.12669   4
  10   6  -1 0.26658 4.05871   8
  10   6  -1 -2.1973 2.44507   6
 -10  -6   1 0.84428 5.47366   3
   9   6  -1 4.80289 3.93482   8
   9   6  -1 10.0151 2.87254   6
  -9  -6   1 -1.0198 4.42145   3
   8   6  -1 80.2900 10.3790   8
   8   6  -1 75.9525 6.70175   6
  -8  -6   1 81.2362 16.8150   3
   7   6  -1 98.0838 7.26277   6
   7   6  -1 107.834 11.5299   8
  -7  -6   1 104.327 18.4422   3
   6   6  -1 44.4812 3.76836   5
   6   6  -1 63.0393 5.37614   6
   6   6  -1 40.7615 7.53154   8
  -6  -6   1 70.4686 14.3827   3
   5   6  -1 110.568 10.6743   8
  -5  -6   1 116.823 14.1910   3
   4   6  -1 451.158 13.8500   6
   4   6  -1 462.543 21.4022   8
  -4  -6   1 455.648 27.1883   3
   3   6  -1 530.137 14.3933   6
   3   6  -1 524.355 21.8997   8
  -3  -6   1 481.260 18.1538   6
  -3  -6   1 492.259 26.6508   3
   2   6  -1 0.62476 1.44400   2
   2   6  -1 -0.3732 0.93966   7
   2   6  -1 0.86842 0.88270   6
   2   6  -1 1.45973 1.54879   8
  -2  -6   1 1.92571 1.52552   6
  -2  -6   1 2.33352 2.65649   3
   1   6  -1 261.822 13.6000   8
   1   6  -1 270.222 9.84720   7
   1   6  -1 261.372 9.07155   6
   1   6  -1 252.402 14.4556   2
  -1  -6   1 266.010 9.92330   7
  -1  -6   1 282.899 17.5597   3
  -1  -6   1 242.382 10.3082   6
   0   6  -1 2017.80 40.1205   7
   0   6  -1 2032.57 45.7452   8
   0   6  -1 2014.91 38.2435   6
   0   6  -1 2036.40 49.2638   2
   0  -6   1 2005.21 38.6485   6
   0  -6   1 2035.96 52.4108   3
   0  -6   1 1983.35 40.1299   7
  -1   6  -1 921.037 33.3474   2
  -1   6  -1 977.228 22.7867   6
  -1   6  -1 925.893 26.2652   8
  -1   6  -1 962.896 24.2005   7
   1  -6   1 950.212 20.8540   6
   1  -6   1 955.610 30.8682   3
   1  -6   1 987.019 24.6299   7
  -2   6  -1 16.0753 3.38395   8
  -2   6  -1 22.2461 4.28339   7
   2  -6   1 11.1538 3.06593   2
   2  -6   1 24.4851 5.75622   3
   2  -6   1 22.6399 2.55783   6
   2  -6   1 18.4581 3.60507   7
  -3   6  -1 58.1129 5.22934   8
  -3   6  -1 67.2687 6.01602   7
   3  -6   1 66.8346 4.65755   6
   3  -6   1 62.3999 4.94797   5
   3  -6   1 59.4404 5.84235   7
   3  -6   1 61.0478 7.05532   2
  -4   6  -1 31.9598 5.80633   2
  -4   6  -1 20.8013 3.86285   7
  -4   6  -1 34.9503 4.03719   8
   4  -6   1 35.7230 5.81676   7
   4  -6   1 34.9766 4.15125   5
   4  -6   1 32.4194 3.68670   6
   4  -6   1 47.0355 8.08530   2
  -5   6  -1 1378.17 36.4645   7
  -5   6  -1 1343.60 37.8391   2
  -5   6  -1 1364.14 31.0131   8
   5  -6   1 1324.90 35.6634   7
   5  -6   1 1384.16 29.2386   8
   5  -6   1 1296.19 31.4723   6
   5  -6   1 1334.99 33.6372   5
   5  -6   1 1317.67 38.0089   2
  -6   6  -1 8.21639 2.44839   8
  -6   6  -1 4.42532 2.83135   2
   6  -6   1 8.33899 2.98407   5
   6  -6   1 3.82453 2.42738   2
   6  -6   1 7.61189 2.02171   8
   6  -6   1 2.32734 2.11023   7
  -7   6  -1 99.7249 9.59542   2
   7  -6   1 107.066 9.74368   7
   7  -6   1 100.057 9.33541   2
   7  -6   1 106.895 5.64797   8
   8  -6   1 275.407 16.5118   7
   8  -6   1 252.235 15.7689   4
   9  -6   1 15.4367 4.69136   7
   9  -6   1 19.2986 6.21308   4
   9  -6   1 18.9085 5.54651   2
  10  -6   1 240.486 15.6115   2
  10  -6   1 216.349 16.0619   7
  10  -6   1 237.477 16.9526   4
  10  -6   1 228.099 14.9219   3
  11  -6   1 2.62660 2.99944   2
  11  -6   1 7.94306 3.55318   7
  11  -6   1 5.87112 3.59241   4
  12  -6   1 1.06762 3.08885   7
  12  -6   1 -0.1005 3.43415   2
  12  -6   1 -0.0498 2.31779   4
  13  -6   1 81.4268 13.7275   7
  13  -6   1 70.1288 12.7894   4
  14  -6   1 26.6510 7.01892   7
  14  -6   1 8.87388 4.84824   4
  11   5  -1 86.0553 13.9118   8
  11   5  -1 104.995 8.88939   6
 -11  -5   1 93.9087 19.3623   3
  10   5  -1 10.8386 3.94283   6
  10   5  -1 19.6477 6.19294   8
 -10  -5   1 -3.1666 6.48182   3
   9   5  -1 0.35368 2.13624   6
   9   5  -1 -3.2764 1.78900   8
  -9  -5   1 1.35953 3.59772   3
   8   5  -1 141.320 12.9885   8
   8   5  -1 134.029 9.30549   6
  -8  -5   1 137.306 16.4761   3
   7   5  -1 121.661 11.4221   8
   7   5  -1 115.015 8.14752   6
  -7  -5   1 99.3817 13.4756   3
   6   5  -1 42.8093 7.59217   8
   6   5  -1 45.4101 4.91834   6
  -6  -5   1 70.3324 13.8999   3
   5   5  -1 160.022 7.03004   5
   5   5  -1 173.984 12.7337   8
   5   5  -1 166.950 8.66317   6
   5   5  -1 156.119 11.6286   2
  -5  -5   1 154.221 15.3286   3
   4   5  -1 122.790 10.0024   2
   4   5  -1 137.736 7.19664   6
   4   5  -1 134.731 10.5955   8
  -4  -5   1 134.222 13.4707   3
   3   5  -1 205.297 12.5929   2
   3   5  -1 219.167 8.43269   6
  -3  -5   1 212.358 16.5098   3
  -3  -5   1 216.635 10.9000   6
   2   5  -1 375.934 16.6816   2
   2   5  -1 367.810 10.6845   6
  -2  -5   1 368.673 13.4202   6
  -2  -5   1 369.870 19.7198   3
   1   5  -1 196.895 11.4954   2
   1   5  -1 195.875 6.99501   6
   1   5  -1 187.694 7.31219   7
  -1  -5   1 195.987 7.52037   7
  -1  -5   1 178.239 7.97237   6
  -1  -5   1 194.592 13.1728   3
   0   5  -1 2151.72 45.4067   8
   0   5  -1 2174.46 39.1995   6
   0   5  -1 2225.54 41.0900   7
   0   5  -1 2194.30 48.9029   2
   0  -5   1 2202.87 41.2165   7
   0  -5   1 2118.30 50.9600   3
   0  -5   1 2163.25 39.5388   6
  -1   5  -1 1363.44 27.6107   6
  -1   5  -1 1343.42 35.9027   2
  -1   5  -1 1357.24 30.9105   8
   1  -5   1 1330.52 35.1931   2
   1  -5   1 1318.90 35.1111   3
   1  -5   1 1348.09 25.9610   6
   1  -5   1 1352.74 29.2204   7
  -2   5  -1 138.001 9.25172   2
  -2   5  -1 152.428 7.77699   8
  -2   5  -1 136.334 7.65695   7
   2  -5   1 142.629 6.30186   5
   2  -5   1 140.337 9.67595   2
   2  -5   1 151.311 6.28906   6
   2  -5   1 154.280 8.11268   7
  -3   5  -1 76.9308 6.90707   2
  -3   5  -1 66.4757 4.95440   8
  -3   5  -1 70.3666 5.81309   7
   3  -5   1 79.0953 6.17967   7
   3  -5   1 63.0890 6.56892   2
   3  -5   1 83.1454 6.39006   5
   3  -5   1 64.5129 4.50988   6
  -4   5  -1 256.326 13.1142   2
  -4   5  -1 264.403 12.4759   7
  -4   5  -1 271.477 10.1353   8
   4  -5   1 277.084 12.8987   7
   4  -5   1 268.848 9.37792   8
   4  -5   1 262.026 11.3675   5
   4  -5   1 268.165 10.7022   6
   4  -5   1 278.277 13.9815   2
  -5   5  -1 3710.15 73.6667   2
  -5   5  -1 3650.22 72.4409   7
  -5   5  -1 3711.92 64.6819   8
   5  -5   1 3594.84 70.0257   5
   5  -5   1 3862.76 74.5424   2
   5  -5   1 3482.51 67.3680   6
   5  -5   1 3719.73 72.6684   7
  -6   5  -1 31.6375 3.35620   8
  -6   5  -1 33.6744 6.81067   7
  -6   5  -1 27.3374 5.45233   2
   6  -5   1 43.8991 7.29212   7
   6  -5   1 28.0020 4.62618   5
   6  -5   1 27.5656 2.70464   8
   6  -5   1 33.2840 6.60977   2
  -7   5  -1 1476.70 45.4588   2
   7  -5   1 1430.18 39.6090   4
   7  -5   1 1458.58 40.1831   7
   7  -5   1 1486.27 39.4458   2
  -8   5  -1 0.52198 2.70448   2
   8  -5   1 3.12881 2.15309   2
   8  -5   1 3.17250 2.87663   4
   8  -5   1 5.47343 2.84728   3
   8  -5   1 -0.4372 1.67336   7
  -9   5  -1 57.9762 7.33558   2
   9  -5   1 63.8808 9.98281   4
   9  -5   1 56.7449 7.03101   2
   9  -5   1 67.3497 8.23223   7
  10  -5   1 74.9080 11.5187   7
  10  -5   1 57.4920 10.4459   4
  10  -5   1 68.0709 8.65202   3
  10  -5   1 62.1416 7.55362   2
  11  -5   1 11.0499 4.91289   4
  11  -5   1 8.28421 4.52549   7
  11  -5   1 20.1468 5.00275   2
  12  -5   1 32.8398 8.46672   4
  12  -5   1 16.6502 5.21529   7
  13  -5   1 230.922 18.2025   7
  13  -5   1 232.621 19.0272   4
  14  -5   1 -0.1744 3.15755   7
  14  -5   1 -1.4823 4.17142   4
  11   4  -1 28.3336 8.02037   8
  11   4  -1 27.1535 5.59348   6
  10   4  -1 28.0357 7.45614   8
  10   4  -1 25.5770 4.24935   4
  10   4  -1 18.7845 4.53938   6
 -10  -4   1 42.2442 12.2526   3
   9   4  -1 35.6313 7.23338   8
   9   4  -1 46.2928 5.39376   4
   9   4  -1 42.0476 7.43737   6
  -9  -4   1 24.5305 8.36536   3
   8   4  -1 15.2173 4.30485   2
   8   4  -1 25.4083 5.20979   6
   8   4  -1 37.7574 8.24919   8
   8   4  -1 18.0523 3.53238   4
  -8  -4   1 24.7453 8.28638   3
   7   4  -1 696.397 23.1816   6
   7   4  -1 673.746 24.6690   2
   7   4  -1 703.657 18.8646   4
  -7  -4   1 711.039 34.7201   3
   6   4  -1 4.17894 2.20982   6
   6   4  -1 1.94152 1.24216   4
  -6  -4   1 -4.2221 1.84604   3
   5   4  -1 175.758 10.9749   2
   5   4  -1 168.691 9.10786   6
   5   4  -1 163.214 6.50362   4
   5   4  -1 164.418 7.76400   5
  -5  -4   1 144.869 13.8165   3
   4   4  -1 74.8047 8.14037   3
   4   4  -1 82.3640 7.37801   2
   4   4  -1 94.0500 6.12966   6
   4   4  -1 92.5943 4.99652   5
  -4  -4   1 87.6776 10.0897   3
   3   4  -1 179.945 6.14449   5
   3   4  -1 191.719 7.95123   6
   3   4  -1 183.676 10.6450   2
  -3  -4   1 174.703 9.34127   6
   2   4  -1 1521.62 36.3633   2
   2   4  -1 1559.59 39.3937   3
   2   4  -1 1531.99 29.0924   6
  -2  -4   1 1499.31 32.2260   6
  -2  -4   1 1451.83 40.6099   3
   1   4  -1 151.043 5.58701   7
   1   4  -1 164.074 9.29805   2
   1   4  -1 151.300 5.65957   6
  -1  -4   1 155.456 6.86287   6
  -1  -4   1 152.314 5.72648   7
  -1  -4   1 154.702 10.4865   3
   0   4  -1 68.7638 5.26802   8
   0   4  -1 65.7568 3.97460   7
   0   4  -1 68.5765 3.65136   6
   0   4  -1 66.8248 5.80259   2
   0  -4   1 60.7925 6.23860   3
   0  -4   1 69.4893 4.14973   7
   0  -4   1 72.2306 3.85331   6
   0  -4   1 69.7246 2.52569   4
   0  -4   1 75.9509 6.40918   2
  -1   4  -1 2875.71 50.3352   6
  -1   4  -1 2891.62 53.0558   8
  -1   4  -1 2979.41 52.4022   7
  -1   4  -1 2899.32 57.0807   2
   1  -4   1 2959.90 52.2583   7
   1  -4   1 3056.66 48.4800   5
   1  -4   1 2907.88 49.0667   6
   1  -4   1 2924.98 57.9531   2
  -2   4  -1 663.428 16.4445   8
  -2   4  -1 687.308 20.3768   2
  -2   4  -1 675.027 18.2342   7
   2  -4   1 657.620 15.2707   6
   2  -4   1 636.581 20.0653   2
   2  -4   1 658.778 15.7431   5
   2  -4   1 670.242 17.8926   7
  -3   4  -1 4377.75 76.8267   7
  -3   4  -1 4370.76 72.0420   8
  -3   4  -1 4327.48 78.9404   2
   3  -4   1 4244.66 72.9868   6
   3  -4   1 4433.43 74.6423   5
   3  -4   1 4338.91 71.1589   8
   3  -4   1 4200.67 78.9360   2
   3  -4   1 4179.32 76.3797   7
  -4   4  -1 3220.79 63.8110   2
  -4   4  -1 3333.44 63.1850   7
  -4   4  -1 3299.56 56.3711   8
   4  -4   1 3170.76 60.9521   5
   4  -4   1 3311.27 63.0920   7
   4  -4   1 3300.86 64.3744   2
   4  -4   1 3348.60 54.9785   8
  -5   4  -1 419.173 16.3357   7
  -5   4  -1 418.119 16.7326   2
  -5   4  -1 425.514 11.7042   8
   5  -4   1 413.502 10.5614   8
   5  -4   1 402.995 16.1530   7
   5  -4   1 417.281 15.7260   5
   5  -4   1 404.988 16.3325   2
  -6   4  -1 563.496 20.6444   7
  -6   4  -1 604.081 21.5163   2
   6  -4   1 560.500 20.3925   5
   6  -4   1 560.869 20.3145   2
   6  -4   1 595.906 21.1858   7
  -7   4  -1 133.079 10.0690   2
   7  -4   1 124.024 9.32458   2
   7  -4   1 107.460 10.9801   7
   7  -4   1 117.670 9.46911   3
   7  -4   1 115.400 9.50674   4
  -8   4  -1 495.954 21.2770   2
   8  -4   1 489.688 21.7091   4
   8  -4   1 524.288 21.6363   3
   8  -4   1 497.814 20.0176   2
   8  -4   1 492.291 21.4856   7
   9  -4   1 538.016 21.3207   2
   9  -4   1 532.633 23.8806   4
   9  -4   1 478.339 22.3207   3
   9  -4   1 491.226 22.6253   7
  10  -4   1 8.04850 4.12436   4
  10  -4   1 2.44469 2.88540   3
  10  -4   1 3.82053 2.89159   2
  10  -4   1 5.35370 3.19228   7
  11  -4   1 411.618 23.2808   4
  11  -4   1 438.611 23.1598   7
  11  -4   1 424.556 25.8854   2
  12  -4   1 27.0253 7.92906   4
  12  -4   1 39.8922 11.3279   7
  13  -4   1 80.9855 12.3829   7
  13  -4   1 50.6343 9.90602   4
  14  -4   1 2.79232 4.28856   7
  14  -4   1 0.32848 4.10999   6
  12   3  -1 -3.6631 3.20983   8
  12   3  -1 3.81996 3.47524   6
  11   3  -1 36.2658 7.04721   8
  11   3  -1 41.0124 6.35937   4
  11   3  -1 29.6333 6.71657   6
  10   3  -1 6.26508 3.83630   8
  10   3  -1 -0.7903 1.81548   6
  10   3  -1 5.16322 2.91263   4
 -10  -3   1 7.65363 5.82246   3
   9   3  -1 18.4884 5.40411   8
   9   3  -1 20.8010 5.20828   6
   9   3  -1 31.1341 5.34864   4
  -9  -3   1 19.2056 7.02455   3
   8   3  -1 366.074 15.0582   4
   8   3  -1 351.722 17.0327   2
   8   3  -1 367.149 17.6412   6
  -8  -3   1 414.555 25.3447   3
   7   3  -1 3.11650 2.01474   2
   7   3  -1 1.93071 1.54776   4
   7   3  -1 0.51051 1.38161   6
  -7  -3   1 -0.8240 1.54792   3
   6   3  -1 254.557 10.6005   4
   6   3  -1 251.968 12.6398   2
   6   3  -1 251.008 12.6926   6
  -6  -3   1 257.355 17.9645   3
   5   3  -1 6.00980 2.30870   6
   5   3  -1 2.29283 1.84265   2
   5   3  -1 5.20272 2.03296   5
   5   3  -1 1.26905 1.16967   4
   5   3  -1 1.99536 1.72883   3
  -5  -3   1 4.90920 3.66357   3
   4   3  -1 51.7583 5.16603   2
   4   3  -1 47.2506 4.49820   6
   4   3  -1 54.9971 6.35259   3
   4   3  -1 45.3481 3.39533   4
   4   3  -1 41.4722 3.67195   5
  -4  -3   1 39.5344 7.18935   3
   3   3  -1 107.340 4.36842   4
   3   3  -1 102.961 5.69752   5
   3   3  -1 109.397 6.07584   6
   3   3  -1 101.142 8.26813   3
  -3  -3   1 106.685 9.12774   3
  -3  -3   1 116.522 7.07255   6
   2   3  -1 167.656 8.56634   2
   2   3  -1 170.543 6.70425   6
   2   3  -1 171.302 5.18565   5
   2   3  -1 163.404 9.71198   3
  -2  -3   1 167.224 10.5288   3
  -2  -3   1 161.085 7.54318   6
   1   3  -1 502.336 10.5024   7
   1   3  -1 497.556 15.4270   2
   1   3  -1 500.217 11.5492   6
  -1  -3   1 508.520 14.2940   6
  -1  -3   1 503.605 17.5673   3
   0   3  -1 90.0970 3.96880   7
   0   3  -1 88.1461 3.67307   6
   0   3  -1 90.8994 5.83094   2
   0  -3   1 89.8002 6.27918   3
   0  -3   1 81.0176 5.71902   2
   0  -3   1 91.4961 2.83642   4
   0  -3   1 92.4788 3.90079   6
   0  -3   1 86.1896 4.71503   7
  -1   3  -1 9.44016 1.75799   7
  -1   3  -1 13.0753 2.14484   6
  -1   3  -1 15.6181 2.37076   8
  -1   3  -1 11.8463 2.60625   2
   1  -3   1 8.36001 1.94893   2
   1  -3   1 12.2566 1.63275   5
   1  -3   1 13.0106 2.44426   7
   1  -3   1 12.5871 1.48521   6
  -2   3  -1 836.786 19.5325   7
  -2   3  -1 796.136 20.7797   2
  -2   3  -1 837.916 17.0591   8
   2  -3   1 813.897 21.1900   2
   2  -3   1 794.364 17.8212   5
   2  -3   1 795.988 19.1257   7
   2  -3   1 822.561 17.4103   6
  -3   3  -1 793.549 22.8868   7
  -3   3  -1 805.020 16.0278   8
  -3   3  -1 781.485 21.0459   2
   3  -3   1 760.489 20.8517   2
   3  -3   1 772.461 20.3472   7
   3  -3   1 775.292 19.2641   5
   3  -3   1 775.875 15.2399   8
  -4   3  -1 1407.36 32.5739   7
   4  -3   1 1474.01 33.2632   2
   4  -3   1 1459.25 33.2545   7
  -5   3  -1 181.395 10.1749   2
   5  -3   1 183.151 10.1947   7
   5  -3   1 200.980 10.3322   2
   5  -3   1 192.684 10.2379   5
  -6   3  -1 482.733 18.5035   2
   6  -3   1 475.852 17.6231   2
   6  -3   1 476.754 18.8129   3
   6  -3   1 460.404 17.8724   5
   6  -3   1 489.707 18.5924   7
  -7   3  -1 126.835 9.55968   2
   7  -3   1 130.573 10.1084   3
   7  -3   1 119.955 9.33911   7
   7  -3   1 134.564 12.1177   4
   7  -3   1 135.663 9.30491   2
   8  -3   1 30.8301 5.86938   4
   8  -3   1 36.6447 6.19017   2
   8  -3   1 43.2325 7.34168   7
   8  -3   1 36.9685 7.41602   3
   9  -3   1 12.7599 4.42030   4
   9  -3   1 9.27454 3.31894   2
   9  -3   1 14.1400 4.11036   3
   9  -3   1 8.82999 3.53712   7
  10  -3   1 74.7197 10.9104   7
  10  -3   1 61.1204 9.68667   4
  10  -3   1 65.3831 7.12827   2
  11  -3   1 160.134 13.4142   7
  11  -3   1 164.986 11.5822   2
  11  -3   1 187.850 15.1285   4
  12  -3   1 -0.9888 2.55864   7
  12  -3   1 -5.3288 2.27755   4
  13  -3   1 93.9995 11.2503   7
  13  -3   1 80.5660 14.4282   6
  13  -3   1 79.9019 12.5351   4
  14  -3   1 43.5200 12.6340   6
  14  -3   1 82.3302 12.8181   7
  12   2  -1 2.11861 2.61438   6
  12   2  -1 -2.5791 2.42533   8
  12   2  -1 -2.1945 3.09039   4
  11   2  -1 188.496 14.9061   6
  11   2  -1 207.774 14.6555   8
  11   2  -1 204.536 13.5283   4
  10   2  -1 20.2793 5.23826   4
  10   2  -1 14.9432 4.60580   6
   9   2  -1 38.7907 6.53795   4
   9   2  -1 37.5078 7.59594   6
   9   2  -1 41.9201 4.76820   7
  -9  -2   1 34.1130 9.34711   3
   8   2  -1 2.34890 1.45574   7
   8   2  -1 4.44617 2.53498   6
  -8  -2   1 0.70404 2.36559   3
   7   2  -1 61.7889 6.95470   6
   7   2  -1 68.2777 5.20702   7
   7   2  -1 69.4796 6.19232   4
   6   2  -1 130.615 6.73326   7
   6   2  -1 149.973 8.40087   4
   6   2  -1 136.851 9.56045   6
   6   2  -1 113.036 10.0811   3
  -6  -2   1 125.540 11.5901   3
   5   2  -1 539.636 21.3868   3
   5   2  -1 546.793 17.1423   5
   5   2  -1 525.837 15.9482   4
   5   2  -1 553.206 18.9037   6
   5   2  -1 551.028 14.3087   7
  -5  -2   1 557.090 23.1309   3
   4   2  -1 20.6278 3.55811   5
   4   2  -1 15.3884 3.06757   6
   4   2  -1 15.7095 1.88402   7
   4   2  -1 18.5791 2.87625   4
   4   2  -1 24.2008 5.32812   3
  -4  -2   1 13.9752 3.89253   3
   3   2  -1 3370.28 65.5001   3
   3   2  -1 3484.89 61.2433   6
   3   2  -1 3435.27 57.4512   4
  -3  -2   1 3389.46 67.5444   3
   2   2  -1 4089.00 70.4904   2
   2   2  -1 4123.03 67.0864   5
   2   2  -1 4117.16 66.4019   4
   2   2  -1 4200.53 74.6809   3
  -2  -2   1 4175.19 75.8215   3
  -2  -2   1 4196.44 74.1225   6
  -2  -2   1 4215.83 66.8967   4
   1   2  -1 716.774 16.9741   2
   1   2  -1 734.527 14.9778   6
   1   2  -1 731.196 12.7933   4
  -1  -2   1 714.635 17.2519   2
  -1  -2   1 714.376 18.9087   3
  -1  -2   1 728.569 13.2781   4
  -1  -2   1 729.571 15.7591   6
   0   2  -1 1026.91 21.5143   2
   0   2  -1 1037.98 18.2646   7
   0   2  -1 1022.92 18.0861   6
   0  -2   1 1026.28 18.2215   7
   0  -2   1 1026.81 17.0767   4
   0  -2   1 1005.81 18.2838   6
   0  -2   1 977.508 21.4797   2
  -2   2  -1 7948.76 154.811   1
   2  -2   1 8053.60 153.851   1
  -3   2  -1 160.710 7.60136   5
  -3   2  -1 163.049 7.52534   7
  -3   2  -1 165.185 7.97528   2
   3  -2   1 158.446 7.72866   2
   3  -2   1 149.806 7.13589   5
  -4   2  -1 74.3619 5.77109   2
  -4   2  -1 68.8353 5.83091   5
   4  -2   1 69.2736 5.36804   5
   4  -2   1 74.2163 5.62646   7
   4  -2   1 72.3659 5.55928   2
   5  -2   1 200.442 10.1371   7
   5  -2   1 201.956 7.20019   8
   5  -2   1 198.281 11.2915   3
   5  -2   1 187.641 9.96704   5
   5  -2   1 201.729 10.0364   2
   6  -2   1 240.192 13.5270   3
   6  -2   1 249.520 11.9354   2
   6  -2   1 252.157 12.5088   5
   6  -2   1 234.260 12.0697   7
   6  -2   1 244.466 9.10642   8
   7  -2   1 30.2406 3.43938   8
   7  -2   1 23.6653 4.97589   4
   7  -2   1 20.8128 4.57815   7
   7  -2   1 26.6040 5.18229   2
   7  -2   1 34.1827 6.96884   3
   8  -2   1 12.0647 3.69200   7
   8  -2   1 13.3532 3.19910   8
   8  -2   1 16.6024 4.42778   3
   8  -2   1 20.1488 4.72576   2
   8  -2   1 10.6113 3.78241   4
   9  -2   1 380.123 19.0513   4
   9  -2   1 310.555 13.5341   8
   9  -2   1 350.313 16.3567   2
   9  -2   1 368.926 17.9908   7
  10  -2   1 30.7938 6.11992   2
  10  -2   1 37.8899 5.42474   8
  10  -2   1 33.5694 4.23816   8
  10  -2   1 44.8946 8.06243   7
  10  -2   1 41.6661 8.38612   4
  11  -2   1 10.3579 3.94668   7
  11  -2   1 6.66304 2.67415   8
  11  -2   1 6.86294 3.49483   4
  12  -2   1 116.086 12.4572   4
  12  -2   1 118.354 11.3087   7
  12  -2   1 126.763 13.8861   6
  13  -2   1 70.2915 11.1163   7
  13  -2   1 72.9777 13.1064   6
  13  -2   1 58.5008 9.71143   4
  14  -2   1 70.7288 10.1417   7
  13   1  -1 15.8728 5.18747   8
  13   1  -1 15.8230 5.70771   6
  13   1  -1 9.08939 4.19765   4
  12   1  -1 16.9259 5.43269   4
  12   1  -1 13.0581 4.39118   8
  12   1  -1 12.3121 5.58551   6
  11   1  -1 92.0713 8.24747   7
  11   1  -1 92.3068 9.76888   4
  10   1  -1 229.469 14.4079   4
  10   1  -1 214.682 15.8649   6
   9   1  -1 263.643 17.0186   6
   9   1  -1 267.690 12.8960   7
   9   1  -1 305.024 15.8685   4
  -9  -1   1 275.823 19.0745   3
   8   1  -1 -0.5945 1.39385   6
   8   1  -1 0.68912 1.56245   7
   8   1  -1 1.95927 1.72517   4
  -8  -1   1 -3.0841 2.24063   3
   7   1  -1 576.930 20.1031   4
   7   1  -1 572.916 27.1741   6
   7   1  -1 577.372 23.4739   3
   7   1  -1 540.480 17.4823   7
  -7  -1   1 622.460 26.0705   3
   6   1  -1 307.244 11.3257   7
   6   1  -1 302.459 14.9278   6
   6   1  -1 297.217 15.2773   3
   6   1  -1 315.578 13.2016   4
  -6  -1   1 303.225 16.3767   3
   5   1  -1 1121.89 30.1356   6
   5   1  -1 1093.46 30.5382   3
   5   1  -1 1145.14 24.8066   7
   5   1  -1 1117.90 27.0542   4
   5   1  -1 1187.72 28.5970   5
  -5  -1   1 1134.68 32.6280   3
   4   1  -1 4.85504 1.70419   5
   4   1  -1 7.74548 1.80324   7
   4   1  -1 10.5227 2.93113   6
   4   1  -1 8.21326 1.96526   4
  -4  -1   1 10.1190 3.18168   3
   3   1  -1 555.891 16.1691   6
   3   1  -1 578.430 12.5404   7
   3   1  -1 553.143 19.2598   3
   3   1  -1 556.036 14.1669   4
  -3  -1   1 561.259 17.5928   3
  -3  -1   1 600.284 14.5948   4
   2   1  -1 172.392 5.79018   4
   2   1  -1 178.758 6.22140   5
   2   1  -1 169.486 7.31289   3
   2   1  -1 172.809 6.98475   6
  -2  -1   1 170.217 5.91427   4
  -2  -1   1 156.956 6.86697   6
  -2  -1   1 178.495 7.87434   3
  -1  -1   1 6279.98 117.638   1
   0   1  -1 3109.84 66.4333   1
   0  -1   1 3262.96 67.7145   1
  -1   1  -1 539.953 10.6985   6
  -1   1  -1 532.196 12.6723   2
  -1   1  -1 533.122 11.1026   5
   1  -1   1 539.266 10.4489   6
   1  -1   1 540.300 12.7135   2
   1  -1   1 554.421 11.0260   5
  -2   1  -1 2690.15 47.3683   2
  -2   1  -1 2682.17 46.0402   5
   2  -1   1 2644.10 45.4791   5
   2  -1   1 2582.80 45.8881   7
   2  -1   1 2625.68 47.1421   2
  -3   1  -1 1305.08 28.1203   2
  -3   1  -1 1288.72 27.5757   5
   3  -1   1 1305.42 27.0951   7
   3  -1   1 1260.08 29.3704   3
   3  -1   1 1284.19 27.7692   2
   3  -1   1 1203.58 26.4097   5
  -4   1  -1 66.9699 5.49494   5
   4  -1   1 62.2010 5.87104   3
   4  -1   1 65.3928 5.09266   5
   4  -1   1 68.6682 5.21105   7
   4  -1   1 63.7277 5.17811   2
  -5   1  -1 2352.19 50.8518   5
   5  -1   1 2477.45 54.0448   3
   5  -1   1 2462.75 49.7222   5
   5  -1   1 2493.94 50.0609   2
   5  -1   1 2453.13 49.3939   7
  -6   1  -1 384.736 16.9848   5
   6  -1   1 408.508 15.8818   7
   6  -1   1 396.515 15.8784   2
   6  -1   1 401.599 15.9538   5
   6  -1   1 396.165 18.3372   3
   7  -1   1 4.87654 2.40241   2
   7  -1   1 4.68145 2.44497   4
   7  -1   1 0.15812 1.30732   7
   7  -1   1 7.34086 3.02326   3
   8  -1   1 261.496 16.7630   3
   8  -1   1 266.277 14.7375   4
   8  -1   1 264.522 16.9836   7
   8  -1   1 262.001 12.4869   8
   8  -1   1 258.414 13.7795   2
   9  -1   1 7.96460 3.54343   7
   9  -1   1 1.20994 2.22871   2
   9  -1   1 6.61245 2.94846   8
   9  -1   1 5.59135 3.05098   4
  10  -1   1 17.2659 3.79026   8
  10  -1   1 19.9349 4.97648   7
  10  -1   1 22.5624 4.27927   8
  10  -1   1 22.1102 4.83321   2
  10  -1   1 23.4565 5.71263   4
  10  -1   1 15.2643 5.36078   6
  11  -1   1 247.094 17.0015   4
  11  -1   1 251.870 16.0000   7
  11  -1   1 266.405 18.9526   6
  12  -1   1 4.40948 3.05945   8
  12  -1   1 3.14953 2.83998   6
  12  -1   1 6.99086 3.58319   7
  12  -1   1 4.16952 3.57142   4
  13  -1   1 166.561 14.4920   4
  13  -1   1 182.603 16.1198   6
  13  -1   1 158.127 13.2849   7
  13   0  -1 17.7395 5.79040   4
  13   0  -1 17.0845 7.23932   6
  13   0  -1 16.1583 6.06023   8
  12   0  -1 47.3689 7.32382   8
  12   0  -1 48.1220 9.66074   6
  12   0  -1 51.7284 8.53136   4
  12   0  -1 41.1763 6.96222   7
  11   0  -1 40.2737 8.67873   6
  11   0  -1 50.6707 8.68777   4
  11   0  -1 36.8504 6.68300   7
  10   0  -1 77.3041 7.67648   7
  10   0  -1 63.6602 9.87223   6
  10   0  -1 86.7782 9.39402   4
   9   0  -1 176.568 10.7726   7
   9   0  -1 186.343 14.3869   6
   9   0  -1 176.877 12.3937   4
   8   0  -1 59.4842 7.29725   3
   8   0  -1 57.8482 6.02596   7
   8   0  -1 61.6337 9.90491   6
   8   0  -1 53.3523 7.48652   4
   8   0  -1 65.8707 7.41775   8
   7   0  -1 1167.03 29.3147   7
   7   0  -1 1103.90 32.9398   3
   7   0  -1 1215.22 32.3883   4
  -7   0   1 1172.08 35.1245   3
   6   0  -1 189.449 10.4026   4
   6   0  -1 188.694 11.7759   6
   6   0  -1 188.373 10.9470   3
   6   0  -1 194.948 12.7000   5
   6   0  -1 192.024 9.30880   7
  -6   0   1 204.229 12.0148   3
   5   0  -1 250.610 11.5561   5
   5   0  -1 261.853 11.4013   4
   5   0  -1 292.507 12.5235   3
   5   0  -1 272.134 10.2965   7
  -5   0   1 272.059 12.7246   3
   4   0  -1 914.164 22.3909   4
   4   0  -1 922.486 20.6127   7
   4   0  -1 891.860 22.8006   3
   4   0  -1 912.589 23.1017   5
  -4   0   1 952.873 24.0530   3
   3   0  -1 161.145 6.95905   3
   3   0  -1 159.631 7.23615   5
   3   0  -1 162.516 7.00213   4
   3   0  -1 163.763 6.14715   7
  -3   0   1 175.305 6.38334   7
  -3   0   1 170.511 7.21856   4
  -3   0   1 157.917 7.20748   3
   2   0  -1 3328.33 54.5168   3
   1   0  -1 1440.82 26.4060   8
   1   0  -1 1463.14 26.0314   6
   0   0   1 0.24785 0.23532   8
   0   0   1 0.03210 0.15744   6
  -1   0  -1 5439.93 95.2882   1
   1   0   1 5431.44 96.0868   1
   2   0   1 4715.62 81.2653   3
  -3   0  -1 176.282 7.94847   5
  -3   0  -1 172.303 9.58171   3
   3   0   1 187.259 8.71990   2
   3   0   1 188.568 9.86713   3
   3   0   1 185.718 7.56969   5
  -4   0  -1 91.3468 6.43264   5
  -4   0  -1 85.2230 7.50819   3
   4   0   1 84.1875 7.26764   3
   4   0   1 89.3481 5.81032   5
   4   0   1 84.9565 6.38790   2
  -5   0  -1 234.192 13.7693   3
  -5   0  -1 240.992 11.9615   5
   5   0   1 247.108 10.8868   7
   5   0   1 256.137 11.2512   5
   5   0   1 247.968 12.0909   2
   5   0   1 254.640 14.0359   3
  -6   0  -1 270.193 14.0514   5
  -6   0  -1 291.788 16.6194   3
   6   0   1 309.389 14.3659   2
   6   0   1 292.442 12.9828   4
   6   0   1 278.879 12.6978   7
   6   0   1 288.474 16.1335   3
   6   0   1 298.974 13.3630   5
   7   0   1 135.558 11.5804   3
   7   0   1 126.145 9.47637   2
   7   0   1 123.425 8.85075   4
   7   0   1 121.375 8.83031   7
   8   0   1 70.1562 6.93166   7
   8   0   1 60.0458 7.04848   2
   8   0   1 80.5624 8.38326   6
   8   0   1 75.0852 6.45813   8
   8   0   1 72.6046 7.49517   4
   9   0   1 108.680 9.69844   4
   9   0   1 102.170 8.02806   8
   9   0   1 100.028 10.1717   6
   9   0   1 114.445 9.59902   7
  10   0   1 335.114 15.4597   8
  10   0   1 321.765 16.8212   7
  10   0   1 337.854 18.4488   4
  10   0   1 311.361 19.0987   6
  11   0   1 188.267 13.2776   7
  11   0   1 190.690 15.4107   6
  11   0   1 201.198 14.7124   4
  11   0   1 213.762 12.7542   8
  12   0   1 42.0935 7.73944   6
  12   0   1 45.4098 8.66149   4
  12   0   1 54.8416 8.51396   7
  12   0   1 51.6718 7.87070   8
  13   0   1 1.70869 3.85732   4
  13   0   1 -3.9046 3.45475   7
  13   0   1 3.25214 3.18218   6
  14  -1  -1 12.1687 7.70911   4
  14  -1  -1 11.1862 5.14511   6
  13  -1  -1 33.7729 6.44061   8
  13  -1  -1 24.6061 7.26842   4
  13  -1  -1 37.8639 9.55279   6
  13  -1  -1 19.2133 5.78463   7
  12  -1  -1 177.740 14.8551   4
  12  -1  -1 189.179 12.9153   7
  12  -1  -1 161.546 16.1231   6
  11  -1  -1 83.1848 12.0514   4
  11  -1  -1 97.4051 14.4362   6
  11  -1  -1 89.8641 8.96148   7
  10  -1  -1 19.3439 6.21392   6
  10  -1  -1 22.3996 5.04692   7
  10  -1  -1 24.5135 6.04134   4
   9  -1  -1 172.226 14.0089   6
   9  -1  -1 165.319 12.1407   3
   9  -1  -1 171.998 11.1672   7
   9  -1  -1 156.020 11.2197   8
   9  -1  -1 178.590 12.6755   4
   8  -1  -1 106.569 9.26214   4
   8  -1  -1 110.530 8.91330   3
   8  -1  -1 116.828 8.74372   7
   7  -1  -1 479.842 19.1117   4
   7  -1  -1 486.846 17.6205   7
   7  -1  -1 499.542 18.6793   3
   7  -1  -1 475.626 18.3929   8
   6  -1  -1 322.004 14.1064   4
   6  -1  -1 319.266 14.4439   5
   6  -1  -1 308.986 12.7604   7
   6  -1  -1 307.453 13.4578   8
   6  -1  -1 329.209 13.5229   3
   5  -1  -1 3365.97 64.0474   5
   5  -1  -1 3366.50 61.0427   7
   5  -1  -1 3266.23 60.7294   3
   5  -1  -1 3290.01 62.8873   4
  -5   1   1 3281.51 60.8574   7
   4  -1  -1 2793.83 50.2174   3
   4  -1  -1 2838.24 53.1708   4
   4  -1  -1 2833.39 53.9080   5
   4  -1  -1 2888.00 51.6226   7
   4  -1  -1 2741.67 52.2755   8
  -4   1   1 2835.49 51.6318   7
   3  -1  -1 51.9703 3.72610   7
   3  -1  -1 49.5529 3.90555   8
   3  -1  -1 52.2591 4.09462   4
  -3   1   1 50.6621 3.94359   4
  -3   1   1 54.9620 3.86156   7
   1  -1  -1 1758.70 29.1785   3
   1  -1  -1 1748.31 30.3409   4
   1  -1  -1 1806.56 31.4674   8
  -1   1   1 1801.46 29.0071   3
  -1   1   1 1744.02 31.5619   8
  -1   1   1 1758.70 30.9283   7
  -1   1   1 1764.33 30.4440   4
   0  -1  -1 863.770 18.5455   3
   0  -1  -1 866.061 16.9439   7
   0  -1  -1 883.937 14.7714   4
   0  -1  -1 873.549 17.0194   8
   0   1   1 834.674 17.0592   8
   0   1   1 869.109 14.9172   4
   0   1   1 851.056 16.7975   7
   0   1   1 870.690 18.3976   3
  -2  -1  -1 2933.59 50.6926   5
  -2  -1  -1 2904.18 57.2746   3
   2   1   1 3023.33 51.0224   8
   2   1   1 2928.92 49.1279   6
   2   1   1 2978.18 49.6757   5
   2   1   1 2999.10 57.2595   3
  -3  -1  -1 34.5379 5.90606   3
  -3  -1  -1 32.9995 3.43254   5
   3   1   1 35.1426 3.29086   8
   3   1   1 35.5913 4.62549   3
   3   1   1 28.8626 2.85115   5
  -4  -1  -1 485.888 16.0009   5
  -4  -1  -1 482.825 20.1283   3
   4   1   1 493.626 19.7335   3
   4   1   1 481.614 14.6362   5
  -5  -1  -1 2.56454 1.86543   5
  -5  -1  -1 6.06635 3.61766   3
   5   1   1 3.84135 1.80462   6
   5   1   1 8.70772 2.66721   5
   5   1   1 5.65169 3.19728   3
   5   1   1 2.40995 1.64656   4
  -6  -1  -1 2688.90 57.3685   5
  -6  -1  -1 2599.54 64.5588   3
   6   1   1 2594.12 52.8515   7
   6   1   1 2612.43 57.8539   2
   6   1   1 2630.82 52.5785   8
   6   1   1 2593.32 54.9929   6
   6   1   1 2608.96 63.1738   3
   6   1   1 2629.81 52.6808   4
   6   1   1 2531.78 53.0095   5
  -7  -1  -1 633.470 28.9467   3
   7   1   1 627.256 21.2215   7
   7   1   1 677.291 22.0059   4
   7   1   1 620.971 22.8206   6
   7   1   1 669.219 21.5696   8
   7   1   1 613.475 23.8989   2
  -8  -1  -1 1.07645 2.20863   3
   8   1   1 1.57609 2.07273   4
   8   1   1 -0.1119 1.34473   6
   8   1   1 -1.7811 1.74015   8
   8   1   1 3.09816 2.06701   7
   8   1   1 1.23917 2.46931   2
   9   1   1 706.902 25.5239   4
   9   1   1 711.821 27.0450   2
   9   1   1 686.458 24.4540   7
   9   1   1 685.936 26.9605   6
   9   1   1 688.953 24.2070   8
  10   1   1 4.68735 2.59428   7
  10   1   1 2.47641 2.30341   6
  10   1   1 4.80761 2.76815   8
  10   1   1 5.01292 3.31435   4
  11   1   1 16.1181 4.35950   7
  11   1   1 8.55090 4.35413   6
  11   1   1 7.87442 3.74685   4
  11   1   1 11.5057 4.05447   8
  12   1   1 108.241 9.80407   7
  12   1   1 109.472 10.7480   4
  12   1   1 84.7783 10.3615   6
  12   1   1 101.124 9.70992   8
  13   1   1 40.6862 7.57116   4
  13   1   1 36.8295 8.21155   6
  14  -2  -1 2.03506 5.08226   7
  14  -2  -1 -2.6251 4.31543   6
  13  -2  -1 35.2425 9.42420   6
  13  -2  -1 36.1092 8.83169   7
  13  -2  -1 40.5086 8.32236   4
  12  -2  -1 3.52919 2.82297   7
  12  -2  -1 8.18215 4.25407   4
  12  -2  -1 2.53165 4.03618   6
  11  -2  -1 86.6167 9.11561   7
  11  -2  -1 65.2250 10.7744   6
  11  -2  -1 89.0579 10.1112   4
  10  -2  -1 59.1899 9.95224   4
  10  -2  -1 55.7104 8.61776   7
   9  -2  -1 9.50582 3.63227   3
   9  -2  -1 3.42018 2.24021   8
   9  -2  -1 5.22938 2.64312   7
   9  -2  -1 3.00405 1.89656   4
   8  -2  -1 280.788 13.8254   8
   8  -2  -1 258.941 13.6212   7
   8  -2  -1 234.427 14.2592   4
   8  -2  -1 274.517 13.4057   3
   7  -2  -1 1.52449 1.47666   4
   7  -2  -1 0.51097 1.38274   7
   7  -2  -1 3.20213 1.95963   3
   7  -2  -1 0.36316 1.30252   8
  -7   2   1 1.84723 1.68417   7
   6  -2  -1 505.734 17.1494   8
   6  -2  -1 529.969 19.1224   4
   6  -2  -1 529.372 19.5251   5
   6  -2  -1 488.975 18.2983   3
   6  -2  -1 517.838 17.9275   7
  -6   2   1 510.213 17.8407   7
   5  -2  -1 468.307 16.9312   5
   5  -2  -1 463.384 13.6555   3
   5  -2  -1 464.205 15.6812   7
   5  -2  -1 441.790 14.8092   8
  -5   2   1 469.236 15.8841   7
   4  -2  -1 325.511 10.1309   2
   4  -2  -1 295.637 12.6030   8
   4  -2  -1 319.073 11.6886   7
  -4   2   1 326.281 11.9025   7
  -4   2   1 308.727 11.4631   8
  -4   2   1 329.852 10.2936   2
   3  -2  -1 640.471 15.4726   2
   3  -2  -1 631.314 16.0474   8
   3  -2  -1 602.169 16.4441   7
  -3   2   1 642.600 15.3099   2
  -3   2   1 604.863 16.3773   7
  -3   2   1 646.273 16.7535   8
   2  -2  -1 1879.08 35.3328   7
   2  -2  -1 1820.49 31.9077   3
   2  -2  -1 1905.12 34.7225   4
   2  -2  -1 1881.27 34.8858   8
   2  -2  -1 1832.23 35.2400   2
  -2   2   1 1865.49 34.5070   4
  -2   2   1 1906.01 35.1159   2
  -2   2   1 1854.45 35.2772   7
  -2   2   1 1829.36 35.1560   8
   1  -2  -1 2081.59 38.0006   8
   1  -2  -1 2129.78 38.4111   3
   1  -2  -1 2106.51 38.2180   7
  -1   2   1 2138.78 37.8063   3
  -1   2   1 2148.82 36.3340   4
  -1   2   1 2080.94 39.5542   2
  -1   2   1 2051.21 37.8011   7
  -1   2   1 2152.73 38.6037   8
   0  -2  -1 211.521 4.90062   4
   0  -2  -1 217.937 4.53020   6
   0  -2  -1 199.835 8.84612   3
   0  -2  -1 196.204 6.99056   7
   0   2   1 202.224 7.04853   7
   0   2   1 213.636 5.22855   4
   0   2   1 211.876 8.77484   3
  -1  -2  -1 520.206 13.9506   8
  -1  -2  -1 516.262 17.3031   3
  -1  -2  -1 516.031 11.3303   5
  -1  -2  -1 509.201 10.2325   6
   1   2   1 504.018 12.8132   7
   1   2   1 517.958 16.8024   3
   1   2   1 523.466 9.19459   6
   1   2   1 501.551 13.8876   8
  -2  -2  -1 6026.67 107.740   3
   2   2   1 5957.40 106.196   3
  -3  -2  -1 355.717 11.9210   5
  -3  -2  -1 328.805 16.4583   3
   3   2   1 345.067 12.4646   8
   3   2   1 366.573 10.5753   6
   3   2   1 349.078 16.1359   3
  -4  -2  -1 12.4009 4.31222   3
  -4  -2  -1 13.2234 3.11720   5
   4   2   1 12.5766 2.48929   4
   4   2   1 6.02819 2.91499   3
   4   2   1 12.6996 3.03143   8
   4   2   1 12.6438 2.60580   5
   4   2   1 12.3148 2.65570   6
  -5  -2  -1 53.0556 5.54851   5
  -5  -2  -1 42.0899 8.43500   3
   5   2   1 49.0590 8.03728   3
   5   2   1 40.1391 3.99816   4
   5   2   1 42.6983 4.81887   8
   5   2   1 45.2442 4.39379   5
   5   2   1 40.0790 4.41105   6
  -6  -2  -1 0.48266 2.10285   3
  -6  -2  -1 0.37505 1.80538   5
   6   2   1 -1.9648 0.76643   6
   6   2   1 -1.5349 0.91063   4
   6   2   1 0.09977 1.32317   8
  -7  -2  -1 35.4321 8.37768   3
   7   2   1 30.3105 6.74371   2
   7   2   1 34.3845 5.62404   6
   7   2   1 34.6955 5.53310   4
   7   2   1 27.4098 4.97161   7
  -8  -2  -1 -2.5707 2.09371   3
   8   2   1 -0.7437 1.47635   8
   8   2   1 4.85750 2.38884   6
   8   2   1 -1.5073 1.16144   7
   8   2   1 2.07433 1.81236   4
   8   2   1 2.64483 3.12378   2
  -9  -2  -1 38.3744 10.4638   3
   9   2   1 43.4208 8.15855   2
   9   2   1 39.9605 6.97340   8
   9   2   1 40.6136 7.64046   6
   9   2   1 49.8623 6.10950   7
   9   2   1 32.6672 5.78032   4
  10   2   1 268.073 15.7633   8
  10   2   1 263.478 14.8326   4
  10   2   1 252.417 15.3462   6
  10   2   1 238.587 13.5253   7
  11   2   1 75.8398 8.18976   4
  11   2   1 72.7213 10.4613   6
  11   2   1 82.9025 9.06580   8
  11   2   1 68.6071 7.42040   7
  12   2   1 32.1057 6.72853   6
  12   2   1 40.8648 7.42758   8
  14  -3  -1 10.4206 7.15618   6
  14  -3  -1 1.08665 4.75038   7
  13  -3  -1 75.8530 9.65755   7
  13  -3  -1 87.1971 13.5994   4
  13  -3  -1 76.7598 14.7236   6
  12  -3  -1 360.177 20.0988   7
  12  -3  -1 336.243 21.3250   4
  12  -3  -1 316.957 23.0060   6
  11  -3  -1 28.9540 5.55381   3
  11  -3  -1 40.4119 8.60777   4
  11  -3  -1 39.5953 8.10896   7
  10  -3  -1 200.948 12.1056   8
  10  -3  -1 217.077 15.4781   4
  10  -3  -1 187.637 13.3995   7
   9  -3  -1 -2.1372 1.61657   8
   9  -3  -1 3.33895 2.07937   7
   9  -3  -1 1.26691 1.54179   3
   9  -3  -1 -2.0003 1.14475   4
   8  -3  -1 13.3351 3.30169   8
   8  -3  -1 19.0188 5.32287   4
   8  -3  -1 20.7349 5.04114   7
   7  -3  -1 862.715 27.8163   4
   7  -3  -1 854.267 26.3673   7
   7  -3  -1 861.380 24.2033   8
  -7   3   1 820.227 26.2793   7
   6  -3  -1 199.746 8.80637   3
   6  -3  -1 197.949 9.59299   8
   6  -3  -1 185.093 11.2434   5
   6  -3  -1 202.317 11.5977   4
   6  -3  -1 193.487 10.7982   7
   6  -3  -1 185.653 9.00297   2
  -6   3   1 202.014 11.2467   7
  -6   3   1 180.276 9.21927   2
   5  -3  -1 102.167 6.41361   8
   5  -3  -1 104.366 7.60750   4
   5  -3  -1 105.365 7.41626   7
   5  -3  -1 103.540 6.49386   2
  -5   3   1 103.160 6.42152   2
  -5   3   1 108.961 7.05569   8
  -5   3   1 114.048 7.61965   7
   4  -3  -1 27.2087 3.11254   8
   4  -3  -1 31.7082 3.62530   2
   4  -3  -1 25.5949 4.05901   7
   4  -3  -1 24.8092 4.08130   4
  -4   3   1 35.9356 3.69789   2
  -4   3   1 27.3498 4.43306   7
  -4   3   1 26.2722 3.35046   8
   3  -3  -1 2377.12 46.1853   2
   3  -3  -1 2390.48 44.5774   8
   3  -3  -1 2324.98 45.2837   4
   3  -3  -1 2479.62 46.6629   7
  -3   3   1 2317.70 45.8719   7
  -3   3   1 2382.22 45.7017   2
  -3   3   1 2413.10 45.6217   8
   2  -3  -1 1.11340 0.93053   8
   2  -3  -1 3.08482 1.51778   7
   2  -3  -1 0.20236 0.96423   3
   2  -3  -1 1.23994 0.96678   4
  -2   3   1 0.65554 0.95276   2
  -2   3   1 1.88960 1.30530   7
  -2   3   1 1.10750 1.01182   8
   1  -3  -1 980.053 23.8378   3
   1  -3  -1 955.430 21.7445   8
   1  -3  -1 942.705 21.9630   7
   1  -3  -1 967.435 18.4125   6
   1  -3  -1 959.135 19.0492   4
  -1   3   1 991.054 23.0625   3
  -1   3   1 953.977 19.1462   4
  -1   3   1 950.180 21.6289   7
  -1   3   1 944.120 22.3752   8
  -1   3   1 950.967 24.0380   2
   0  -3  -1 580.914 18.8829   3
   0  -3  -1 596.164 15.3165   7
   0  -3  -1 582.702 10.9232   6
   0  -3  -1 573.525 16.0386   8
   0   3   1 587.401 16.8829   7
   0   3   1 535.003 12.6490   6
   0   3   1 589.564 18.2143   3
   0   3   1 554.390 16.0108   8
  -1  -3  -1 4.20000 1.04051   6
  -1  -3  -1 1.81613 2.04667   3
  -1  -3  -1 3.36979 1.08480   5
   1   3   1 3.20697 0.75751   6
   1   3   1 3.67644 1.52195   7
   1   3   1 4.09482 1.64156   8
   1   3   1 3.89624 1.74144   3
  -2  -3  -1 1453.39 39.5554   3
  -2  -3  -1 1472.86 28.7353   5
  -2  -3  -1 1409.86 27.7104   6
   2   3   1 1494.15 38.1792   3
   2   3   1 1440.52 29.6515   7
   2   3   1 1485.12 25.3897   6
   2   3   1 1468.43 26.7160   5
   2   3   1 1465.26 33.0104   8
  -3  -3  -1 238.327 9.60370   5
  -3  -3  -1 241.095 15.0807   3
   3   3   1 249.806 14.2563   3
   3   3   1 217.370 8.93683   7
   3   3   1 224.402 7.83486   5
   3   3   1 222.065 10.8763   8
   3   3   1 223.556 7.41483   6
  -4  -3  -1 30.7276 4.65408   5
  -4  -3  -1 30.7872 6.41185   3
   4   3   1 34.7101 2.90934   4
   4   3   1 23.2891 5.29269   3
   4   3   1 29.8458 3.11149   6
   4   3   1 28.5802 2.96834   5
   4   3   1 41.8613 6.27771   8
  -5  -3  -1 33.4830 5.59010   5
  -5  -3  -1 20.4315 6.15562   3
   5   3   1 25.4152 4.00403   6
   5   3   1 22.1690 4.40790   8
   5   3   1 28.5084 3.52497   5
   5   3   1 27.2644 3.80986   4
  -6  -3  -1 134.807 13.8399   3
  -6  -3  -1 144.861 10.2270   5
   6   3   1 129.059 7.86972   5
   6   3   1 135.601 8.20459   6
   6   3   1 123.972 7.19673   4
   6   3   1 136.164 9.94738   8
  -7  -3  -1 374.135 24.9029   3
   7   3   1 381.665 14.3209   4
   7   3   1 360.108 15.0705   7
   7   3   1 401.738 18.6168   8
   7   3   1 398.262 15.8091   6
  -8  -3  -1 441.336 28.1071   3
   8   3   1 424.689 20.2691   8
   8   3   1 430.258 22.6762   2
   8   3   1 450.156 16.6940   4
   8   3   1 432.872 17.2088   7
   8   3   1 458.858 18.1688   6
  -9  -3  -1 44.4058 10.7561   3
   9   3   1 36.9951 7.96394   2
   9   3   1 31.7289 6.23939   8
   9   3   1 44.3513 7.30199   6
   9   3   1 42.0483 6.27546   4
  10   3   1 17.9068 4.68957   6
  10   3   1 22.7649 5.69900   8
  10   3   1 26.4290 5.05539   7
  10   3   1 19.1832 4.54979   4
  10   3   1 22.9923 6.86784   2
  11   3   1 59.5803 6.84165   4
  11   3   1 67.7525 7.56541   6
  11   3   1 58.7430 9.34129   8
  12   3   1 68.6811 9.40595   6
  12   3   1 66.8355 10.2943   8
  14  -4  -1 2.83656 3.97270   7
  14  -4  -1 -3.1556 4.11201   6
  14  -4  -1 -0.0573 5.54254   4
  13  -4  -1 55.8118 9.61699   7
  13  -4  -1 78.2174 14.7347   6
  13  -4  -1 62.7261 10.4036   4
  12  -4  -1 93.8450 10.3267   7
  12  -4  -1 84.1257 12.3755   4
  11  -4  -1 34.0453 6.96367   7
  11  -4  -1 38.9066 5.72288   8
  11  -4  -1 33.7166 7.97928   4
  10  -4  -1 99.2079 12.4890   8
  10  -4  -1 113.302 10.7589   7
  10  -4  -1 103.732 10.8656   4
   9  -4  -1 629.640 25.3014   7
   9  -4  -1 643.483 21.1040   8
   9  -4  -1 640.185 26.6869   4
   8  -4  -1 133.201 8.64325   2
   8  -4  -1 123.257 10.5339   4
   8  -4  -1 114.529 9.71649   7
   8  -4  -1 123.028 8.18587   8
   7  -4  -1 234.118 13.7323   4
   7  -4  -1 226.652 11.3819   2
   7  -4  -1 230.955 10.9606   8
  -7   4   1 227.392 11.6894   2
   6  -4  -1 440.311 17.9086   7
   6  -4  -1 444.315 18.2116   4
   6  -4  -1 433.728 18.3334   5
   6  -4  -1 464.978 15.5311   8
   6  -4  -1 466.897 16.6876   2
  -6   4   1 456.858 16.6207   8
  -6   4   1 438.819 17.8553   7
  -6   4   1 449.448 16.5442   2
   5  -4  -1 706.110 22.2437   4
   5  -4  -1 707.116 19.6659   8
   5  -4  -1 692.421 21.2659   2
  -5   4   1 734.841 22.7288   7
  -5   4   1 685.324 20.7457   8
  -5   4   1 686.893 20.8997   2
   4  -4  -1 4142.24 72.9787   8
   4  -4  -1 4046.07 75.2219   4
   4  -4  -1 4175.63 76.6966   2
   4  -4  -1 3964.31 75.9987   7
  -4   4   1 4192.38 76.1920   7
  -4   4   1 4313.21 75.4266   8
  -4   4   1 4157.59 75.8711   2
   3  -4  -1 216.293 11.1664   2
   3  -4  -1 223.978 9.60457   4
   3  -4  -1 232.749 9.68534   8
   3  -4  -1 230.501 9.57423   3
   3  -4  -1 229.037 10.6209   7
  -3   4   1 223.893 10.8282   2
  -3   4   1 225.797 10.3735   7
  -3   4   1 224.025 10.2033   8
   2  -4  -1 32.7412 5.07117   7
   2  -4  -1 23.4666 3.00705   8
   2  -4  -1 21.4024 3.94980   3
   2  -4  -1 23.4118 3.34157   4
   2  -4  -1 30.6177 2.77487   6
  -2   4   1 26.8941 3.48504   8
  -2   4   1 28.5772 3.39304   7
  -2   4   1 28.5741 4.68603   2
   1  -4  -1 19.1340 3.14398   7
   1  -4  -1 18.8049 3.96056   3
   1  -4  -1 18.8557 2.04016   4
   1  -4  -1 21.7361 2.28864   6
   1  -4  -1 24.7897 3.22591   8
  -1   4   1 23.1713 5.08077   3
  -1   4   1 33.3492 5.54207   2
  -1   4   1 24.0392 3.76944   7
   0  -4  -1 334.762 7.85927   6
   0  -4  -1 324.076 12.5059   8
   0  -4  -1 310.795 11.3374   7
   0   4   1 322.624 12.8231   8
   0   4   1 342.674 17.7904   7
   0   4   1 315.156 8.57994   6
   0   4   1 315.632 14.1842   3
   0   4   1 319.129 14.3732   2
  -1  -4  -1 362.943 9.83546   5
  -1  -4  -1 352.117 17.4559   3
  -1  -4  -1 369.482 9.65191   6
   1   4   1 374.558 8.66483   6
   1   4   1 375.988 16.8281   3
   1   4   1 357.516 12.1456   7
   1   4   1 360.638 14.1500   8
  -2  -4  -1 37.3253 7.35386   3
  -2  -4  -1 46.6968 3.64046   5
  -2  -4  -1 44.0034 3.49041   6
   2   4   1 48.0403 2.58605   6
   2   4   1 33.6060 6.23356   3
   2   4   1 44.9446 5.01979   8
  -3  -4  -1 233.323 9.73766   5
  -3  -4  -1 223.586 15.9897   3
   3   4   1 238.679 7.88441   5
   3   4   1 206.068 14.0839   3
   3   4   1 219.376 6.91003   6
   3   4   1 216.958 9.38206   7
   3   4   1 221.383 11.9706   8
  -4  -4  -1 170.353 14.7274   3
  -4  -4  -1 144.217 8.60467   5
   4   4   1 165.688 8.22886   7
   4   4   1 153.541 6.50493   6
   4   4   1 162.650 7.05923   5
   4   4   1 169.716 10.9666   8
  -5  -4  -1 19.8752 4.19579   5
  -5  -4  -1 28.0860 8.38810   3
   5   4   1 18.7920 3.13279   6
   5   4   1 16.4356 4.39658   8
   5   4   1 19.5116 3.69956   7
  -6  -4  -1 155.845 16.0052   3
  -6  -4  -1 160.727 10.8118   5
   6   4   1 160.412 8.29332   6
   6   4   1 171.309 9.30211   7
   6   4   1 170.187 12.1725   8
  -7  -4  -1 97.5170 13.3182   3
   7   4   1 113.755 7.82343   7
   7   4   1 102.389 9.96410   8
   7   4   1 119.083 7.66229   6
   7   4   1 106.276 7.74075   7
  -8  -4  -1 230.500 21.2399   3
   8   4   1 223.765 11.3855   6
   8   4   1 231.863 11.7304   7
   8   4   1 225.370 11.6646   7
   8   4   1 215.667 15.1081   8
  -9  -4  -1 3.16143 4.86049   3
   9   4   1 9.69168 4.16478   8
   9   4   1 11.1379 3.15260   6
   9   4   1 13.5399 5.01654   2
 -10  -4  -1 155.124 19.2585   3
  10   4   1 166.126 10.5720   6
  10   4   1 184.491 14.5431   8
  10   4   1 162.513 15.2584   2
  11   4   1 196.666 15.8748   8
  11   4   1 214.654 14.1708   6
  14  -5  -1 123.739 14.3793   4
  14  -5  -1 89.8921 14.6077   6
  14  -5  -1 132.360 13.9797   7
  13  -5  -1 3.51762 3.05151   7
  13  -5  -1 -1.4655 2.82074   4
  12  -5  -1 33.1486 7.43461   7
  12  -5  -1 45.8840 10.0193   4
  11  -5  -1 103.706 9.07057   8
  11  -5  -1 112.522 11.2876   7
  10  -5  -1 5.61317 3.96183   7
  10  -5  -1 7.68434 3.65084   4
   9  -5  -1 433.914 18.0901   2
   9  -5  -1 408.142 16.0195   8
   9  -5  -1 453.090 22.1846   4
   9  -5  -1 446.174 21.5195   7
  -9   5   1 403.072 18.2306   2
   8  -5  -1 19.2191 5.13630   7
   8  -5  -1 15.2252 4.94980   4
   8  -5  -1 14.8642 3.36993   8
   8  -5  -1 16.9863 4.18500   2
  -8   5   1 10.8938 3.62779   2
   7  -5  -1 80.9260 8.24194   7
   7  -5  -1 89.3484 8.61127   4
   7  -5  -1 94.1193 8.06969   2
   7  -5  -1 91.4105 6.66936   8
  -7   5   1 100.334 8.31460   2
  -7   5   1 103.373 8.12213   8
   6  -5  -1 429.462 17.8259   2
   6  -5  -1 452.003 15.5950   8
   6  -5  -1 436.136 19.1580   7
   6  -5  -1 461.141 18.8272   4
   6  -5  -1 432.778 18.4640   5
  -6   5   1 430.598 17.5359   2
  -6   5   1 442.314 16.9785   8
   5  -5  -1 113.744 8.43681   4
   5  -5  -1 118.300 8.81717   7
   5  -5  -1 105.705 8.41020   2
   5  -5  -1 101.933 6.85445   8
  -5   5   1 103.310 8.26632   7
  -5   5   1 109.809 7.85513   8
  -5   5   1 110.400 8.32593   2
   4  -5  -1 1882.84 39.7328   8
   4  -5  -1 1907.68 43.1052   7
   4  -5  -1 1867.80 40.8103   4
   4  -5  -1 1889.88 39.8079   3
   4  -5  -1 1871.75 44.7357   2
  -4   5   1 1857.92 43.4843   2
  -4   5   1 1846.40 41.3092   8
  -4   5   1 1880.16 43.0269   7
   3  -5  -1 113.678 6.26072   6
   3  -5  -1 125.595 8.34087   7
   3  -5  -1 126.558 8.16661   3
   3  -5  -1 113.150 6.85759   4
   3  -5  -1 124.268 7.42016   8
  -3   5   1 108.102 7.55298   7
  -3   5   1 120.388 7.97304   8
  -3   5   1 101.770 8.07049   2
   2  -5  -1 106.359 6.97808   8
   2  -5  -1 110.469 8.34929   3
   2  -5  -1 116.487 7.73660   7
   2  -5  -1 108.416 5.88278   4
   2  -5  -1 109.266 5.30365   6
  -2   5   1 113.077 7.31307   7
  -2   5   1 123.362 9.01229   2
  -2   5   1 104.241 7.44649   8
   1  -5  -1 610.578 14.1084   4
   1  -5  -1 621.767 22.7378   3
   1  -5  -1 596.450 18.5401   7
   1  -5  -1 629.418 13.6191   6
   1  -5  -1 596.552 18.9184   8
  -1   5   1 619.491 22.0869   2
  -1   5   1 602.941 19.6932   8
  -1   5   1 592.218 18.1292   7
   0  -5  -1 281.359 11.5737   7
   0  -5  -1 287.107 7.95726   5
   0  -5  -1 265.678 7.70076   6
   0   5   1 263.615 12.6927   8
   0   5   1 266.540 10.9819   7
   0   5   1 251.546 13.7098   3
   0   5   1 264.684 8.47382   6
  -1  -5  -1 115.790 10.7974   3
  -1  -5  -1 100.959 5.10793   6
  -1  -5  -1 119.835 5.32783   5
   1   5   1 112.806 8.32658   8
   1   5   1 116.691 9.83871   3
   1   5   1 109.891 6.75354   7
   1   5   1 111.664 4.74291   6
   1   5   1 113.221 11.0893   2
  -2  -5  -1 263.468 17.7566   3
  -2  -5  -1 271.815 9.90608   6
  -2  -5  -1 287.926 10.0040   5
   2   5   1 287.857 14.3298   8
   2   5   1 274.958 7.75767   6
   2   5   1 289.520 16.6085   3
   2   5   1 265.258 15.1418   2
   2   5   1 288.257 11.3434   7
  -3  -5  -1 36.4624 3.94168   5
  -3  -5  -1 27.7253 7.18803   3
   3   5   1 36.1954 2.66879   6
   3   5   1 31.5770 6.41251   2
   3   5   1 33.7701 6.13564   8
   3   5   1 37.7505 3.98268   7
  -4  -5  -1 316.440 13.0936   5
  -4  -5  -1 307.020 21.3255   3
   4   5   1 300.113 11.9389   7
   4   5   1 303.961 9.13690   6
   4   5   1 314.898 16.3835   8
  -5  -5  -1 3.24129 4.44499   3
  -5  -5  -1 6.37754 2.59235   5
   5   5   1 0.60719 1.34450   5
   5   5   1 5.02512 2.45504   8
   5   5   1 4.78522 2.03185   7
   5   5   1 2.87089 1.42900   6
  -6  -5  -1 24.0157 7.09640   3
   6   5   1 30.2029 6.46772   8
   6   5   1 26.6979 3.28152   6
   6   5   1 25.4529 3.94876   7
  -7  -5  -1 372.885 27.2220   3
   7   5   1 310.130 12.9801   7
   7   5   1 337.628 12.2641   6
   7   5   1 343.993 19.7778   8
  -8  -5  -1 146.331 17.6225   3
   8   5   1 159.269 13.9329   8
   8   5   1 155.976 8.48736   6
  -9  -5  -1 53.7442 14.1410   3
   9   5   1 71.6509 11.3958   2
   9   5   1 49.7803 5.18520   6
   9   5   1 48.1890 9.06889   8
 -10  -5  -1 -3.3181 4.11160   3
  10   5   1 3.93142 4.85847   2
  10   5   1 3.86518 2.62992   6
  10   5   1 1.72742 3.39248   8
  14  -6  -1 -2.0535 4.44350   7
  14  -6  -1 18.1156 5.95765   4
  13  -6  -1 4.24449 3.58344   4
  13  -6  -1 -0.0336 3.28387   7
  12  -6  -1 63.0944 11.5116   7
  12  -6  -1 43.7158 9.88264   4
  11  -6  -1 97.2835 11.5194   4
  11  -6  -1 85.6960 10.6209   7
  10  -6  -1 289.368 15.7118   2
  10  -6  -1 295.836 18.8111   7
  10  -6  -1 276.873 18.4124   4
   9  -6  -1 132.091 10.6265   2
   9  -6  -1 121.057 8.15742   8
   9  -6  -1 159.128 12.9753   4
   9  -6  -1 151.872 12.7057   7
  -9   6   1 149.379 11.6004   2
   8  -6  -1 1201.59 37.5067   4
   8  -6  -1 1137.11 29.9448   8
   8  -6  -1 1200.60 35.3910   2
   8  -6  -1 1232.04 38.2220   7
  -8   6   1 1152.69 35.0668   2
  -8   6   1 1205.95 33.2629   8
   7  -6  -1 78.3920 6.43727   8
   7  -6  -1 81.6178 8.75708   7
   7  -6  -1 83.1265 8.33925   2
   7  -6  -1 75.8859 8.09697   4
  -7   6   1 77.5558 8.15146   2
  -7   6   1 82.7615 7.52575   8
   6  -6  -1 184.721 10.0804   8
   6  -6  -1 209.624 13.0981   7
   6  -6  -1 193.266 12.7713   2
   6  -6  -1 197.600 12.5541   4
   6  -6  -1 216.335 10.3677   3
  -6   6   1 215.771 12.9287   2
  -6   6   1 220.922 12.1553   8
   5  -6  -1 257.693 16.5307   7
   5  -6  -1 291.413 13.8599   4
   5  -6  -1 270.325 15.2895   2
   5  -6  -1 278.646 12.2782   8
   5  -6  -1 280.965 12.6924   3
  -5   6   1 265.955 14.5081   2
  -5   6   1 281.334 13.7178   8
   4  -6  -1 379.684 16.8749   7
   4  -6  -1 356.909 14.4904   8
   4  -6  -1 367.979 15.5697   6
   4  -6  -1 421.754 16.6617   3
   4  -6  -1 403.428 15.3190   4
  -4   6   1 402.216 16.6135   8
  -4   6   1 364.670 17.3810   2
  -4   6   1 393.757 16.7252   7
   3  -6  -1 6.15110 1.70505   6
   3  -6  -1 4.82206 1.99642   8
   3  -6  -1 7.53728 2.89139   3
   3  -6  -1 8.17162 2.93456   7
   3  -6  -1 7.10936 2.15792   4
  -3   6   1 5.28588 2.45623   2
  -3   6   1 7.05918 2.95708   8
  -3   6   1 11.1359 3.50797   7
   2  -6  -1 9.52507 2.19144   4
   2  -6  -1 10.6294 3.91799   3
   2  -6  -1 8.84071 1.81072   6
   2  -6  -1 11.9928 3.76762   7
  -2   6   1 11.1024 3.20829   7
  -2   6   1 13.4892 3.90768   8
  -2   6   1 5.34994 2.54548   2
   1  -6  -1 7.71642 2.63688   7
   1  -6  -1 9.42886 2.77386   8
   1  -6  -1 8.41426 1.73529   6
   1  -6  -1 6.89387 1.54884   4
   1  -6  -1 6.23304 3.26801   3
  -1   6   1 6.92722 2.71669   8
  -1   6   1 5.23424 2.54349   2
  -1   6   1 7.68522 2.61552   7
   0  -6  -1 959.306 34.6003   3
   0  -6  -1 1004.85 20.2611   5
   0  -6  -1 1025.12 21.0943   6
   0  -6  -1 989.258 26.6839   7
   0   6   1 997.975 32.5200   2
   0   6   1 970.861 25.8059   7
   0   6   1 978.274 29.5968   8
  -1  -6  -1 30.5270 2.92706   5
  -1  -6  -1 33.3821 10.5371   3
   1   6   1 24.1226 2.61674   6
   1   6   1 29.3009 4.71586   7
   1   6   1 30.9210 6.14433   8
  -2  -6  -1 129.583 7.70265   6
  -2  -6  -1 124.475 6.58307   5
  -2  -6  -1 135.105 13.6680   3
   2   6   1 119.188 5.30402   6
   2   6   1 131.845 10.3288   8
   2   6   1 114.738 7.49850   7
  -3  -6  -1 35.2655 3.93777   5
  -3  -6  -1 33.0756 8.38138   3
   3   6   1 30.5523 4.57849   7
   3   6   1 36.6184 2.85063   6
   3   6   1 35.2317 7.00765   8
  -4  -6  -1 1034.31 27.1213   5
  -4  -6  -1 1027.55 43.8057   3
   4   6   1 1060.10 34.9394   8
   4   6   1 975.594 25.7976   7
   4   6   1 1052.91 21.4152   6
  -5  -6  -1 114.139 15.1107   3
   5   6   1 137.981 6.10760   6
   5   6   1 131.867 7.80548   7
   5   6   1 130.254 11.8978   8
  -6  -6  -1 2.17334 2.94455   3
   6   6   1 10.5655 2.42985   6
   6   6   1 10.2653 4.55321   8
  -7  -6  -1 1.60852 3.13188   3
   7   6   1 -0.1633 1.20759   6
   7   6   1 -4.8239 1.76069   8
  -8  -6  -1 2.33996 3.97907   3
   8   6   1 7.31650 3.71194   8
   8   6   1 7.26545 2.22042   6
  -9  -6  -1 443.937 34.4534   3
   9   6   1 386.672 23.9213   8
   9   6   1 383.780 28.6806   2
 -10  -6  -1 14.3339 9.15702   3
  10   6   1 19.8210 6.00403   8
  14  -7  -1 14.9905 6.21654   4
  13  -7  -1 53.8078 10.6637   7
  13  -7  -1 63.8703 12.6379   4
  12  -7  -1 197.655 17.0918   4
  12  -7  -1 213.210 17.5319   7
  11  -7  -1 -0.1882 2.45969   4
  11  -7  -1 2.15083 2.90645   7
  10  -7  -1 -1.4915 2.80771   2
  10  -7  -1 3.96962 3.17701   7
  10  -7  -1 -1.6396 2.07219   4
   9  -7  -1 22.2965 6.41489   4
   9  -7  -1 34.8750 8.25002   7
   9  -7  -1 23.5693 6.75212   2
   9  -7  -1 24.3755 4.54657   8
   8  -7  -1 997.949 34.1593   2
   8  -7  -1 974.534 25.8205   3
   8  -7  -1 953.675 33.4626   4
   8  -7  -1 956.748 27.1082   8
   8  -7  -1 978.887 34.6225   7
  -8   7   1 966.517 30.2670   8
   7  -7  -1 53.1500 5.64231   3
   7  -7  -1 61.3576 10.2164   2
   7  -7  -1 59.6550 5.87052   8
   7  -7  -1 44.5362 6.63538   4
   7  -7  -1 48.1920 8.39869   7
  -7   7   1 54.1421 8.24848   8
   6  -7  -1 2.49138 1.73730   8
   6  -7  -1 3.14722 2.11150   3
   6  -7  -1 5.25171 3.15880   7
   6  -7  -1 7.05527 3.01387   4
   6  -7  -1 1.61691 4.20158   2
  -6   7   1 2.53430 2.50372   8
   5  -7  -1 127.714 9.58214   3
   5  -7  -1 147.456 9.92883   4
   5  -7  -1 134.885 10.7331   7
   5  -7  -1 125.366 8.60345   8
  -5   7   1 143.855 10.3021   8
   4  -7  -1 217.975 11.7400   8
   4  -7  -1 223.898 13.3781   7
   4  -7  -1 233.902 10.3234   6
   4  -7  -1 219.864 13.2254   3
   4  -7  -1 221.979 11.3220   4
  -4   7   1 226.500 13.0648   8
   3  -7  -1 1583.51 40.1552   7
   3  -7  -1 1606.96 43.2580   3
   3  -7  -1 1557.49 34.2051   4
   3  -7  -1 1525.67 32.0478   6
   3  -7  -1 1530.31 38.1404   8
  -3   7   1 1486.65 39.8820   8
  -3   7   1 1486.37 39.0918   7
   2  -7  -1 108.409 8.64994   7
   2  -7  -1 105.783 5.48743   6
   2  -7  -1 107.508 5.97431   4
   2  -7  -1 114.510 10.6439   3
  -2   7   1 108.407 8.29057   7
  -2   7   1 111.861 9.61770   8
   1  -7  -1 434.003 12.0473   6
   1  -7  -1 433.287 22.6010   3
   1  -7  -1 453.427 17.8333   7
  -1   7   1 452.035 19.5526   8
  -1   7   1 415.389 16.5651   7
   0  -7  -1 753.834 18.4089   6
   0  -7  -1 725.205 31.7957   3
   0  -7  -1 778.321 23.9610   7
   0  -7  -1 779.553 17.4112   5
   0   7   1 737.125 26.9316   8
  -1  -7  -1 385.151 23.5415   3
  -1  -7  -1 363.031 12.4482   6
  -1  -7  -1 372.626 11.3715   5
   1   7   1 364.524 11.6570   6
   1   7   1 362.833 14.7058   7
   1   7   1 357.714 18.4478   8
  -2  -7  -1 29.9808 3.35632   5
  -2  -7  -1 24.6205 7.13980   3
  -2  -7  -1 32.1611 4.74166   6
   2   7   1 22.0769 4.76474   8
   2   7   1 31.1792 4.96991   7
   2   7   1 30.1699 3.08178   6
  -3  -7  -1 25.0257 7.18001   3
   3   7   1 30.3181 4.78999   7
   3   7   1 45.4767 8.64568   8
  -4  -7  -1 47.8489 10.6297   3
   4   7   1 41.0419 8.68035   8
   4   7   1 54.4818 3.85529   6
   4   7   1 50.8139 5.01373   7
  -5  -7  -1 588.246 36.0062   3
   5   7   1 520.854 17.2692   7
   5   7   1 551.730 26.7795   8
   5   7   1 541.081 14.2682   6
  -6  -7  -1 278.763 25.7082   3
   6   7   1 311.093 20.8915   8
  -7  -7  -1 143.826 18.3774   3
   7   7   1 138.572 14.2193   8
  -8  -7  -1 639.912 41.9756   3
   8   7   1 587.302 30.8410   8
  -9  -7  -1 22.1768 9.86145   3
   9   7   1 15.8735 6.79760   2
   9   7   1 20.7445 7.76445   8
  14  -8  -1 -1.4698 3.98112   7
  14  -8  -1 0.25713 4.45449   4
  13  -8  -1 -5.7456 2.82442   7
  13  -8  -1 2.61495 3.20325   4
  12  -8  -1 125.054 14.3134   7
  12  -8  -1 162.072 15.1417   4
  11  -8  -1 0.84636 3.86480   4
  11  -8  -1 10.1018 4.77148   7
  10  -8  -1 46.2836 14.0099   7
  10  -8  -1 70.4137 12.4667   4
   9  -8  -1 132.387 13.0132   7
   9  -8  -1 149.688 13.0679   4
   8  -8  -1 60.2285 9.38673   4
   8  -8  -1 60.4751 6.28401   3
   8  -8  -1 52.0560 9.26518   7
  -8   8   1 53.0928 6.97644   8
   7  -8  -1 294.118 14.9109   3
   7  -8  -1 306.902 16.9494   4
   7  -8  -1 317.673 18.7433   7
  -7   8   1 312.309 17.0652   8
   6  -8  -1 8.82604 3.74321   7
   6  -8  -1 17.0820 5.12239   3
   6  -8  -1 11.5592 4.20467   4
   5  -8  -1 13.2243 4.29074   3
   5  -8  -1 21.7528 4.45294   4
   5  -8  -1 21.0734 5.73824   7
  -5   8   1 10.9448 3.81897   8
   4  -8  -1 991.373 27.1588   4
   4  -8  -1 956.411 31.8326   7
   4  -8  -1 957.550 33.1449   3
  -4   8   1 993.896 32.3373   8
   3  -8  -1 92.8761 6.45281   4
   3  -8  -1 89.2403 10.0354   3
   3  -8  -1 88.0378 8.61562   7
   3  -8  -1 86.6522 5.62179   6
  -3   8   1 77.3357 8.40986   8
   2  -8  -1 76.4139 9.65247   3
   2  -8  -1 74.1059 4.77709   4
   2  -8  -1 60.3216 6.94353   7
  -2   8   1 78.2138 8.54582   8
   1  -8  -1 168.417 6.71322   5
   1  -8  -1 162.143 7.39526   6
   1  -8  -1 163.950 10.9549   7
   1  -8  -1 161.742 14.7820   3
  -1   8   1 154.523 12.2661   8
   0  -8  -1 31.6903 3.02690   5
   0  -8  -1 41.3910 6.43622   7
   0  -8  -1 37.7550 3.67546   6
   0  -8  -1 36.8812 9.69435   3
   0   8   1 33.4162 6.75685   8
   0   8   1 30.8224 5.01072   7
  -1  -8  -1 166.930 8.63413   6
  -1  -8  -1 193.739 17.8998   3
   1   8   1 176.984 10.5326   7
   1   8   1 185.544 14.1493   8
  -2  -8  -1 19.9070 7.68741   3
   2   8   1 22.0176 6.18219   8
   2   8   1 23.8630 3.64994   6
  -3  -8  -1 71.1615 13.4500   3
   3   8   1 84.5278 10.1139   8
   3   8   1 91.6656 8.12757   7
  -4  -8  -1 220.040 21.7670   3
   4   8   1 205.731 16.4873   8
  -5  -8  -1 54.8893 14.0793   3
   5   8   1 51.2869 9.77362   8
  -6  -8  -1 75.5329 17.8961   3
   6   8   1 62.9204 11.0705   8
  -7  -8  -1 37.9096 12.4364   3
   7   8   1 45.4710 10.4061   8
  -8  -8  -1 24.4480 10.3518   3
   8   8   1 23.0109 11.2233   8
  13  -9  -1 58.2191 14.9360   7
  13  -9  -1 45.5448 12.0151   4
  12  -9  -1 -1.4278 3.54757   7
  12  -9  -1 5.51955 3.89116   4
  11  -9  -1 70.0666 11.2223   4
  11  -9  -1 61.7352 12.1403   7
  10  -9  -1 1.43617 3.39050   7
  10  -9  -1 -1.2688 2.61475   4
   9  -9  -1 360.711 23.4571   7
   9  -9  -1 398.710 22.0357   4
   8  -9  -1 41.4165 9.25143   7
   8  -9  -1 60.8612 10.2750   4
   8  -9  -1 48.7465 7.87399   3
  -8   9   1 38.1081 7.16205   8
   7  -9  -1 67.5896 9.71846   4
   7  -9  -1 52.4979 8.80420   3
   7  -9  -1 43.9119 8.19795   7
  -7   9   1 52.3117 8.35858   8
   6  -9  -1 31.8785 6.83588   3
   6  -9  -1 43.2978 7.43037   4
   6  -9  -1 29.5472 6.30916   7
  -6   9   1 42.0097 7.96473   8
   5  -9  -1 53.7463 9.08152   7
   5  -9  -1 42.7484 8.35849   3
   5  -9  -1 40.4195 6.88426   4
  -5   9   1 53.8092 9.50191   8
   4  -9  -1 83.3736 10.0807   3
   4  -9  -1 87.3102 6.94878   4
   4  -9  -1 90.2538 9.42514   7
  -4   9   1 87.2795 9.47105   8
   3  -9  -1 410.074 23.4613   3
   3  -9  -1 331.705 13.0483   4
   3  -9  -1 407.623 19.6407   7
  -3   9   1 431.151 21.4827   8
   2  -9  -1 14.5046 2.99939   6
   2  -9  -1 12.2993 5.49908   3
   2  -9  -1 10.3971 3.71798   7
  -2   9   1 11.4885 4.83706   8
   1  -9  -1 204.470 13.1065   7
   1  -9  -1 206.472 17.8975   3
   1  -9  -1 196.089 8.99487   6
  -1   9   1 203.126 15.0814   8
   0  -9  -1 3.75109 3.58296   3
   0   9   1 -0.4120 1.62575   8
  -1  -9  -1 199.346 19.5171   3
   1   9   1 209.397 16.0811   8
  -2  -9  -1 245.374 22.8036   3
   2   9   1 268.348 18.8326   8
  -3  -9  -1 90.2297 16.3478   3
   3   9   1 99.1562 11.8175   8
  -4  -9  -1 14.3365 7.50217   3
   4   9   1 24.0992 7.18698   8
  -5  -9  -1 88.6273 18.7987   3
   5   9   1 64.8077 11.1898   8
  -6  -9  -1 55.4060 15.8576   3
   6   9   1 33.5802 9.54572   8
  -7  -9  -1 39.2906 14.0230   3
   7   9   1 29.1355 8.98210   8
  13 -10  -1 9.23405 5.38723   7
  13 -10  -1 13.4426 5.94097   4
  12 -10  -1 36.5663 8.29739   4
  12 -10  -1 53.3333 11.2734   7
  11 -10  -1 164.327 15.2947   4
  11 -10  -1 190.181 17.7335   7
  10 -10  -1 106.041 11.4483   4
  10 -10  -1 87.0366 15.1295   7
   9 -10  -1 1.55632 2.68150   4
   9 -10  -1 3.19183 2.94769   7
  -9  10   1 4.11476 2.63912   8
   8 -10  -1 167.972 19.9455   7
   8 -10  -1 177.648 13.7025   4
   8 -10  -1 181.744 13.9594   3
   7 -10  -1 58.6579 9.69268   3
   7 -10  -1 51.2032 7.88583   4
   7 -10  -1 58.0776 10.4263   7
  -7  10   1 54.1797 9.97517   8
   6 -10  -1 124.082 12.3464   7
   6 -10  -1 154.959 11.1514   4
   6 -10  -1 132.915 12.4628   3
  -6  10   1 122.991 11.8998   8
   5 -10  -1 1.37473 2.00814   7
   5 -10  -1 4.33229 2.79856   3
   5 -10  -1 2.38390 1.97864   4
  -5  10   1 2.25439 2.49314   8
   4 -10  -1 52.7579 10.8031   3
   4 -10  -1 34.3220 6.95206   7
  -4  10   1 48.6957 9.30633   8
   3 -10  -1 326.113 22.6385   3
   3 -10  -1 335.722 18.9006   7
  -3  10   1 335.459 20.2528   8
   2 -10  -1 7.79830 3.65186   7
   2 -10  -1 1.72913 3.92095   3
  -2  10   1 5.58305 3.40418   8
   1 -10  -1 2.06691 2.66996   7
   1 -10  -1 3.88189 3.21213   3
  -1  10   1 -1.5485 2.01117   8
   0 -10  -1 -3.9344 2.35229   3
   0 -10  -1 -4.4574 2.24393   6
   0  10   1 0.33739 1.83356   8
  -1 -10  -1 68.0113 18.5245   3
   1  10   1 72.6780 13.8231   8
  -2 -10  -1 109.584 20.1738   3
   2  10   1 123.347 13.5112   8
  -3 -10  -1 136.732 18.4688   3
   3  10   1 143.909 14.7324   8
  -4 -10  -1 75.8886 17.8448   3
   4  10   1 88.1611 14.6127   8
  -5 -10  -1 295.214 28.8317   3
   5  10   1 259.648 21.1877   8
  -6 -10  -1 -1.1087 4.63228   3
   6  10   1 11.7637 4.52125   8
  12 -11  -1 6.88263 6.79249   4
  12 -11  -1 4.89332 6.88206   7
  11 -11  -1 32.3241 8.80492   7
  11 -11  -1 30.8867 8.04051   4
  10 -11  -1 72.0082 10.7707   4
  10 -11  -1 72.4848 12.5794   7
   9 -11  -1 115.993 13.2429   7
   9 -11  -1 115.427 10.9653   3
   9 -11  -1 127.184 12.3166   4
   8 -11  -1 241.201 16.7481   3
   8 -11  -1 261.530 19.9282   7
   8 -11  -1 256.514 16.6486   4
   7 -11  -1 15.1780 6.07597   3
   7 -11  -1 14.7822 5.59803   7
   7 -11  -1 22.1894 5.28526   4
  -7  11   1 12.0148 4.68475   8
   6 -11  -1 8.77328 4.25767   7
   6 -11  -1 2.36598 3.37218   3
  -6  11   1 4.46380 2.91073   8
   5 -11  -1 266.274 19.8344   3
   5 -11  -1 274.194 18.4939   7
  -5  11   1 291.617 19.5642   8
   4 -11  -1 103.391 12.9673   3
   4 -11  -1 100.184 10.8525   7
  -4  11   1 99.1651 11.4444   8
   3 -11  -1 59.8462 13.4100   3
   3 -11  -1 57.5661 9.40946   7
  -3  11   1 50.4017 9.35060   8
   2 -11  -1 105.148 14.3060   3
   2 -11  -1 82.6914 9.54812   7
  -2  11   1 91.5966 11.1493   8
   1 -11  -1 6.53719 4.90246   3
  -1  11   1 -0.2530 2.44760   8
   0 -11  -1 264.883 24.2313   3
   0  11   1 260.607 19.9626   8
  -1 -11  -1 91.5860 18.0582   3
   1  11   1 68.9905 11.5376   8
  -2 -11  -1 97.6752 20.2482   3
   2  11   1 70.8083 11.9092   8
  -3 -11  -1 31.0136 10.3912   3
   3  11   1 16.8577 6.26194   8
  -4 -11  -1 18.0108 8.69209   3
   4  11   1 8.74096 5.06751   8
   5  11   1 37.7843 12.2735   8
  12 -12  -1 -10.282 4.00041   4
  11 -12  -1 3.94271 3.53141   7
  10 -12  -1 -1.6882 3.65264   4
  10 -12  -1 -0.3190 3.59457   7
 -10  12   1 -5.7355 4.08327   8
   9 -12  -1 76.1363 14.2123   7
   9 -12  -1 59.1268 9.97283   3
   9 -12  -1 49.8947 9.04459   4
   8 -12  -1 63.7782 11.2965   7
   8 -12  -1 39.2122 8.01532   3
   7 -12  -1 6.63894 2.79951   4
   7 -12  -1 18.0883 5.80770   3
   7 -12  -1 12.5297 5.16788   7
  -7  12   1 12.0201 5.04588   8
   6 -12  -1 15.2392 4.95256   7
   6 -12  -1 16.9614 6.70378   3
  -6  12   1 14.5783 6.24002   8
   5 -12  -1 17.2496 6.86431   3
   5 -12  -1 23.6643 6.69157   7
  -5  12   1 30.1700 10.0599   8
   4 -12  -1 8.29709 4.69371   3
   4 -12  -1 11.3380 5.07632   7
  -4  12   1 6.89815 3.78637   8
   3 -12  -1 18.6206 7.69971   3
   3 -12  -1 7.10398 3.66514   7
  -3  12   1 13.2711 4.91652   8
   2 -12  -1 165.634 19.3450   3
  -2  12   1 162.552 15.8081   8
   1 -12  -1 93.5279 17.2340   3
  -1  12   1 111.074 13.5035   8
   0 -12  -1 117.207 22.9595   3
   0  12   1 104.433 16.7703   8
  -1 -12  -1 13.5905 7.72330   3
   1  12   1 31.2787 8.89097   8
  -2 -12  -1 29.3150 12.7021   3
   2  12   1 21.2176 9.07723   8
  -3 -12  -1 243.399 27.0817   3
   3  12   1 242.496 21.8879   8
  10 -13  -1 1.32070 4.38187   7
  10 -13  -1 5.96190 5.37847   4
 -10  13   1 5.60247 5.85507   8
   9 -13  -1 53.7893 11.3207   7
   8 -13  -1 -5.5536 4.80316   3
   8 -13  -1 7.27590 3.63196   4
   8 -13  -1 -0.3923 2.99124   7
  -8  13   1 -0.9015 3.55208   8
   7 -13  -1 237.519 20.0149   3
   7 -13  -1 256.096 19.9897   7
  -7  13   1 257.248 19.9614   8
   6 -13  -1 -1.8879 2.29635   4
   6 -13  -1 0.15105 4.35846   3
   6 -13  -1 0.75176 3.47821   7
  -6  13   1 1.19851 3.36273   8
   5 -13  -1 70.4200 12.8640   7
   5 -13  -1 46.3906 10.9222   3
  -5  13   1 59.1421 11.7418   8
   4 -13  -1 2.61330 3.76889   3
  -4  13   1 -5.3602 3.65467   8
   3 -13  -1 8.16803 4.15304   7
   3 -13  -1 3.39442 4.77533   3
  -3  13   1 0.37723 4.38049   8
   2 -13  -1 9.79856 6.45885   3
  -2  13   1 9.95667 5.12310   8
   1 -13  -1 286.909 27.0100   3
  -1  13   1 257.134 21.6962   8
   0 -13  -1 41.5454 13.1465   3
   0  13   1 15.2801 8.22922   8
  -1 -13  -1 17.7426 10.6893   3
   1  13   1 49.8483 11.4267   8
   9 -14  -1 32.9297 8.63501   7
   9 -14  -1 7.98945 5.57546   4
  -9  14   1 -5.3028 5.47526   8
   8 -14  -1 42.1591 11.2981   3
   8 -14  -1 -2.2585 4.26162   4
   8 -14  -1 29.9114 9.25814   7
   7 -14  -1 -11.553 6.07012   3
   7 -14  -1 -0.5034 5.65846   4
   7 -14  -1 0.78027 8.02655   7
  -7  14   1 1.00042 4.44691   8
   6 -14  -1 11.4363 6.90031   3
   6 -14  -1 3.09653 4.52295   7
  -6  14   1 -6.7091 4.72894   8
   5 -14  -1 27.8916 10.4227   3
   5 -14  -1 12.5438 6.41114   7
  -5  14   1 11.4412 6.33665   8
   4 -14  -1 9.80875 5.80872   3
   4 -14  -1 9.68840 5.30071   7
  -4  14   1 12.9498 5.53563   8
   3 -14  -1 20.0557 8.21759   3
  -3  14   1 18.0986 9.03609   8
   2 -14  -1 28.7546 11.5420   3
  -2  14   1 11.5142 6.61185   8
   1 -14  -1 3.14189 7.18715   3
  -1  14   1 4.17524 3.66985   8
  -3  15  -2 9.14991 6.70098   8
   3 -15   2 6.32094 7.54761   3
   3 -15   2 -3.2640 6.27659   7
  -4  15  -2 -7.2983 6.44135   8
   4 -15   2 -3.8047 4.89285   7
   4 -15   2 37.1919 15.0046   3
  -5  15  -2 -1.1209 4.92866   8
   5 -15   2 -0.6801 4.60825   7
   5 -15   2 1.19643 7.21604   3
  -6  15  -2 1.50859 5.68730   8
   6 -15   2 -6.1587 5.12390   7
   6 -15   2 3.98567 7.46601   3
   7 -15   2 69.3812 14.1284   3
   7 -15   2 60.5335 11.5705   7
   0  14  -2 -1.8203 5.16345   8
   0 -14   2 -2.6910 5.92288   3
   1 -14   2 -3.5182 6.24844   3
  -2  14  -2 -2.6988 3.15730   8
   2 -14   2 0.40571 5.70389   3
  -3  14  -2 164.676 16.8419   8
   3 -14   2 177.850 21.7519   3
  -4  14  -2 34.9106 8.47043   8
   4 -14   2 32.1078 10.0233   3
  -5  14  -2 137.712 13.9620   8
   5 -14   2 95.3630 16.3262   3
   5 -14   2 90.5314 14.0008   7
  -6  14  -2 -0.7080 3.08190   8
   6 -14   2 -1.5179 4.98898   3
   6 -14   2 -7.6218 3.77888   4
   6 -14   2 4.26711 4.02160   7
   7 -14   2 68.0199 14.6905   3
   7 -14   2 79.3045 13.4768   7
   9 -14   2 -3.5605 3.99051   4
   9 -14   2 2.18638 4.81202   7
   9 -14   2 12.1081 6.45960   3
  10 -14   2 15.5911 9.40738   4
  10 -14   2 8.48869 5.00484   7
  10 -14   2 19.1331 11.2908   3
   2  13  -2 2.02605 4.76903   8
  -2 -13   2 -2.2022 5.86032   3
   1  13  -2 7.87255 5.41428   8
  -1 -13   2 14.3331 9.50449   3
   0  13  -2 -4.4859 4.60603   8
   0 -13   2 16.7705 9.02508   3
  -1  13  -2 22.6787 6.97298   8
   1 -13   2 12.3925 7.40030   3
  -2  13  -2 89.6946 14.5491   8
   2 -13   2 108.933 21.3908   3
  -3  13  -2 55.5263 9.79531   8
   3 -13   2 73.2996 16.1428   3
  -4  13  -2 18.5116 5.85326   8
   4 -13   2 44.2662 13.0879   3
   4 -13   2 30.6569 7.06287   7
   5 -13   2 -1.3486 2.14100   4
   5 -13   2 1.45004 3.04989   7
  -6  13  -2 -0.9055 2.45950   8
   6 -13   2 0.24117 3.06025   7
   6 -13   2 4.89746 4.22064   3
   6 -13   2 0.94270 2.66285   4
  -7  13  -2 4.77754 2.62531   8
   7 -13   2 10.7613 5.34246   3
   7 -13   2 15.5307 5.78900   7
   7 -13   2 -6.0151 2.65099   4
  -8  13  -2 -0.6143 2.69278   8
   8 -13   2 -1.5582 5.21023   3
   8 -13   2 6.89276 3.22043   7
   8 -13   2 0.86694 2.63500   4
  -9  13  -2 -2.8435 3.95383   8
   9 -13   2 12.8984 6.85827   3
   9 -13   2 9.42504 5.02127   4
   9 -13   2 19.8082 6.84117   7
  10 -13   2 46.0829 13.4810   7
  10 -13   2 27.3920 7.68305   4
  10 -13   2 29.8743 8.84279   3
  11 -13   2 45.3703 11.2713   4
  11 -13   2 28.1067 9.34418   7
   4  12  -2 2.63299 3.88379   8
  -4 -12   2 12.8194 7.59168   3
   3  12  -2 153.072 10.8634   6
   2  12  -2 56.1341 10.6268   8
  -2 -12   2 62.6475 14.8772   3
   1  12  -2 110.134 13.5587   8
  -1 -12   2 146.750 25.1267   3
   0  12  -2 10.3759 5.25234   8
   0 -12   2 7.29557 5.41718   3
  -1  12  -2 6.09539 3.60199   8
   1 -12   2 7.07254 5.02180   3
  -2  12  -2 6.57232 4.03036   8
   2 -12   2 -0.0083 1.64315   7
   2 -12   2 4.27269 3.93222   3
  -3  12  -2 32.5271 7.25846   8
   3 -12   2 22.3044 5.09836   7
  -4  12  -2 71.4710 10.9835   8
   4 -12   2 65.7307 14.0767   3
   4 -12   2 68.8671 8.58155   7
  -5  12  -2 102.596 10.9947   8
   5 -12   2 105.671 11.3633   7
   5 -12   2 100.637 13.9989   3
   7 -12   2 229.975 17.7970   7
   7 -12   2 192.396 14.2536   4
   7 -12   2 200.317 18.0056   3
   8 -12   2 26.9813 7.63978   3
   8 -12   2 34.4293 8.21860   7
   8 -12   2 14.7585 5.94893   2
   8 -12   2 22.9485 6.77689   4
   9 -12   2 21.9006 6.20595   4
   9 -12   2 21.7968 6.97613   2
   9 -12   2 22.0873 6.50876   7
   9 -12   2 23.3032 7.29620   3
  10 -12   2 -0.9805 3.80679   3
  10 -12   2 -0.2757 2.97889   4
  10 -12   2 -6.3292 3.32002   7
  10 -12   2 -2.2175 4.48252   2
  11 -12   2 255.923 22.5674   2
  11 -12   2 298.353 27.0043   7
  11 -12   2 282.850 19.2664   3
  11 -12   2 269.616 21.2069   4
  12 -12   2 18.2598 6.37842   7
  12 -12   2 18.6756 8.04048   4
   5  11  -2 26.0104 6.09166   6
   5  11  -2 30.1246 7.98337   8
  -5 -11   2 6.52932 8.35363   3
   4  11  -2 53.8371 6.34527   6
   4  11  -2 42.4523 8.79773   8
  -4 -11   2 58.9683 16.2524   3
   3  11  -2 44.9418 10.2642   8
   3  11  -2 44.9094 6.65577   6
  -3 -11   2 52.6981 13.7496   3
   2  11  -2 123.705 13.4685   8
   2  11  -2 110.208 8.57362   6
  -2 -11   2 79.2586 15.4783   3
   1  11  -2 140.994 14.1195   8
   1  11  -2 122.142 9.26913   6
  -1 -11   2 129.516 16.7576   3
   0  11  -2 191.371 22.8922   8
   0 -11   2 212.846 22.7621   3
  -1  11  -2 247.839 17.6890   8
   1 -11   2 248.559 22.2045   3
  -2  11  -2 259.538 17.4452   8
   2 -11   2 236.663 21.0083   3
  -3  11  -2 144.006 12.6246   8
   3 -11   2 146.890 11.8499   7
   3 -11   2 161.903 16.5911   3
  -4  11  -2 18.5295 4.85462   8
   4 -11   2 26.4373 6.22443   7
   4 -11   2 22.5646 6.94878   3
  -5  11  -2 148.527 12.2289   8
   5 -11   2 127.777 11.9810   7
   5 -11   2 161.680 16.7571   2
   5 -11   2 130.636 14.1856   3
  -6  11  -2 -1.4400 1.88512   8
   6 -11   2 -1.7817 2.87854   2
   6 -11   2 3.86182 3.06337   7
   6 -11   2 5.92783 4.41601   3
   6 -11   2 -3.9318 1.82170   4
   7 -11   2 80.4541 9.93717   7
   7 -11   2 65.1492 11.5218   3
   7 -11   2 76.7527 13.9148   2
   7 -11   2 83.6990 9.15295   4
   8 -11   2 16.8300 5.25442   4
   8 -11   2 28.9038 7.15982   3
   8 -11   2 27.7386 7.28152   7
   9 -11   2 109.043 12.5097   7
   9 -11   2 110.856 14.1094   2
   9 -11   2 80.2226 10.5086   3
   9 -11   2 95.1127 10.9162   4
  10 -11   2 233.212 18.2557   4
  10 -11   2 231.026 20.4738   2
  10 -11   2 238.654 17.1313   3
  10 -11   2 249.976 19.6710   7
  11 -11   2 7.43087 6.08806   2
  11 -11   2 9.31077 5.65493   4
  11 -11   2 12.4139 5.56052   3
  11 -11   2 15.3835 5.72573   7
  12 -11   2 5.31377 5.75615   2
  12 -11   2 2.41970 4.84420   7
  12 -11   2 -0.8111 4.05629   4
  13 -11   2 10.7742 6.94958   2
  13 -11   2 -0.1827 4.62844   4
  13 -11   2 -7.4557 4.92270   7
   6  10  -2 12.2009 3.64169   6
   6  10  -2 12.7319 6.24360   8
  -6 -10   2 16.6726 15.8355   3
   5  10  -2 11.4995 5.24056   8
   5  10  -2 13.2061 3.46668   6
  -5 -10   2 7.77097 7.48327   3
   4  10  -2 29.8135 5.31884   6
   4  10  -2 28.4438 7.84386   8
  -4 -10   2 34.0112 11.2805   3
   3  10  -2 18.3668 4.23182   6
   3  10  -2 8.47033 3.87088   8
  -3 -10   2 4.71860 5.16860   3
   2  10  -2 317.904 14.0505   6
   2  10  -2 245.526 27.4154   8
  -2 -10   2 289.767 26.8507   3
   1  10  -2 36.0807 5.89740   6
   1  10  -2 29.0278 7.14811   8
  -1 -10   2 30.8298 9.44518   3
   0  10  -2 35.9644 7.61699   8
   0  10  -2 38.2036 6.14613   6
   0  10  -2 49.1603 8.72017   7
   0 -10   2 44.4916 11.7287   3
  -1  10  -2 63.0451 8.10921   8
  -1  10  -2 58.3617 6.22766   6
   1 -10   2 43.3051 6.88193   7
   1 -10   2 49.9258 10.2530   3
  -2  10  -2 90.1400 9.69454   8
   2 -10   2 64.3544 11.9044   3
   2 -10   2 78.5995 7.93753   7
  -3  10  -2 520.746 22.8599   8
   3 -10   2 502.752 21.3678   7
   3 -10   2 513.107 28.0680   3
  -4  10  -2 24.2970 5.27381   8
   4 -10   2 22.4175 4.77763   4
   4 -10   2 28.0010 7.92277   3
   4 -10   2 26.4326 5.63963   7
   4 -10   2 11.4314 4.54468   2
  -5  10  -2 528.195 22.3368   8
   5 -10   2 558.822 21.6174   4
   5 -10   2 556.565 27.7410   3
   5 -10   2 485.411 17.7981   5
   5 -10   2 535.499 24.0082   7
   5 -10   2 594.832 30.5264   2
  -6  10  -2 130.531 10.3560   8
   6 -10   2 137.341 10.9689   4
   6 -10   2 128.877 12.7943   3
   6 -10   2 114.383 13.3239   2
   6 -10   2 127.810 11.8000   7
   7 -10   2 148.608 12.1884   4
   7 -10   2 153.470 13.3906   7
   7 -10   2 141.092 14.8018   2
   8 -10   2 94.4251 11.1159   7
   8 -10   2 76.2467 12.5467   2
   8 -10   2 80.9874 9.37783   4
   9 -10   2 7.70014 3.05578   4
   9 -10   2 2.05175 2.99022   2
   9 -10   2 2.68182 3.60889   7
  10 -10   2 30.1140 7.96140   7
  10 -10   2 27.6883 7.81547   2
  10 -10   2 27.0918 7.54428   4
  11 -10   2 12.6348 5.13146   7
  11 -10   2 27.2844 10.1301   2
  11 -10   2 23.6618 6.58855   4
  12 -10   2 39.5759 10.1655   4
  12 -10   2 45.6651 10.8240   7
  12 -10   2 37.6697 9.17825   2
  13 -10   2 42.5534 10.6301   4
  13 -10   2 36.7146 8.58505   2
   8   9  -2 4.29251 4.37214   8
  -8  -9   2 -0.7887 5.54929   3
   7   9  -2 81.4811 14.0867   8
   7   9  -2 76.2835 7.47993   6
  -7  -9   2 57.5555 14.4023   3
   6   9  -2 36.3587 9.43365   8
   6   9  -2 41.7398 4.64060   6
  -6  -9   2 38.2810 12.2372   3
   5   9  -2 51.2298 10.0959   8
   5   9  -2 39.9844 4.64155   6
  -5  -9   2 33.4275 9.80080   3
   4   9  -2 8.14852 3.50165   8
   4   9  -2 9.95553 2.93407   6
  -4  -9   2 12.5281 8.04529   3
   3   9  -2 67.5344 5.94500   6
   3   9  -2 82.5327 10.0208   8
  -3  -9   2 62.7010 12.9404   3
   2   9  -2 46.5800 9.25122   8
   2   9  -2 60.7224 5.54375   6
  -2  -9   2 49.2381 11.6621   3
   1   9  -2 241.471 10.5847   7
   1   9  -2 239.984 16.1609   8
   1   9  -2 253.120 11.6981   6
  -1  -9   2 257.566 20.9083   3
   0   9  -2 256.194 12.0533   7
   0   9  -2 252.160 16.0841   8
   0   9  -2 287.952 12.8159   6
   0  -9   2 259.646 20.3236   3
  -1   9  -2 68.8273 6.36128   7
  -1   9  -2 72.0455 6.55815   6
  -1   9  -2 61.0038 9.90313   8
   1  -9   2 65.0403 11.6166   3
   1  -9   2 72.5936 6.61789   7
  -2   9  -2 178.658 11.1598   7
  -2   9  -2 197.859 12.9975   8
   2  -9   2 183.622 7.06008   4
   2  -9   2 192.649 16.2767   3
   2  -9   2 195.558 9.08240   4
   2  -9   2 199.820 11.8330   7
  -3   9  -2 468.943 19.9828   8
   3  -9   2 434.935 24.6711   2
   3  -9   2 431.933 18.9222   7
   3  -9   2 397.263 13.8779   5
   3  -9   2 421.380 23.4920   3
   3  -9   2 444.502 16.1150   4
   4  -9   2 37.5930 8.90631   2
   4  -9   2 51.2395 4.72071   5
   4  -9   2 48.9612 9.92383   3
   4  -9   2 32.5715 5.73190   4
   4  -9   2 32.1523 6.72073   7
  -5   9  -2 34.7486 5.92991   8
   5  -9   2 28.1254 7.91799   2
   5  -9   2 33.2312 5.49017   5
   5  -9   2 35.4511 6.63414   7
   5  -9   2 30.6451 5.91987   4
  -6   9  -2 68.5561 6.70390   8
   6  -9   2 49.7637 10.2606   2
   6  -9   2 39.3753 6.74528   4
   6  -9   2 61.2859 10.5421   7
  -7   9  -2 2.40870 1.28510   8
   7  -9   2 4.28719 3.16294   7
   7  -9   2 0.86488 1.45759   4
   7  -9   2 1.69002 2.04211   2
   8  -9   2 637.383 30.7653   2
   8  -9   2 644.268 27.4272   4
   8  -9   2 608.079 28.1453   7
   9  -9   2 59.1131 9.53959   4
   9  -9   2 87.1982 14.4926   2
   9  -9   2 89.5067 10.8334   7
  10  -9   2 16.3696 6.68852   4
  10  -9   2 16.7916 5.98166   7
  10  -9   2 14.3454 5.38541   2
  11  -9   2 389.705 24.2955   2
  11  -9   2 406.950 24.8879   4
  11  -9   2 403.904 24.9205   7
  12  -9   2 69.3156 13.6135   7
  12  -9   2 72.8628 14.3814   4
  13  -9   2 103.620 12.6179   2
  13  -9   2 123.143 19.8561   7
  14  -9   2 11.4289 6.87971   7
  -9  -8   2 1.62422 6.24713   3
   8   8  -2 5.75060 2.68551   6
   8   8  -2 7.17410 3.86061   8
  -8  -8   2 -4.2345 5.75139   3
   7   8  -2 31.3894 5.15993   6
   7   8  -2 24.0162 7.07505   8
  -7  -8   2 18.6283 9.65369   3
   6   8  -2 19.2853 3.88095   6
   6   8  -2 13.9131 5.44587   8
  -6  -8   2 25.3048 8.68229   3
   5   8  -2 -0.8206 1.27417   6
   5   8  -2 -4.0933 1.83602   8
  -5  -8   2 4.23057 5.75294   3
   4   8  -2 35.9291 4.17986   6
   4   8  -2 34.2604 7.58152   8
  -4  -8   2 47.6380 12.0792   3
   3   8  -2 702.506 19.8172   6
   3   8  -2 756.459 30.3408   8
  -3  -8   2 678.330 35.9174   3
   2   8  -2 6.67094 3.57577   8
   2   8  -2 9.18713 2.53663   6
  -2  -8   2 5.90726 3.84175   3
   1   8  -2 282.850 10.8547   7
   1   8  -2 286.487 16.5480   8
  -1  -8   2 271.322 20.2463   3
   0   8  -2 251.984 11.0758   6
   0   8  -2 246.153 10.9752   7
   0   8  -2 234.535 14.2843   8
   0  -8   2 254.180 11.2307   7
   0  -8   2 249.879 18.3319   3
  -1   8  -2 571.144 22.3024   8
  -1   8  -2 567.375 18.4639   6
  -1   8  -2 576.128 19.1526   7
   1  -8   2 593.004 19.4135   7
   1  -8   2 582.013 13.0433   4
   1  -8   2 560.252 27.2466   3
  -2   8  -2 164.020 12.7444   8
  -2   8  -2 166.460 10.1774   7
   2  -8   2 150.796 13.2333   3
   2  -8   2 158.967 9.98989   7
  -3   8  -2 7.84873 2.84779   8
  -3   8  -2 6.00786 2.49819   7
   3  -8   2 4.62694 2.40015   7
   3  -8   2 12.5590 4.23232   2
   3  -8   2 7.05745 3.79759   3
  -4   8  -2 27.4374 5.29094   8
   4  -8   2 31.9442 7.77515   2
   4  -8   2 17.7866 4.20412   7
   4  -8   2 21.8164 3.80843   5
  -5   8  -2 85.3839 7.08001   8
   5  -8   2 84.7197 8.06177   5
   5  -8   2 82.6335 9.74487   2
   5  -8   2 76.6129 8.22148   7
  -6   8  -2 495.977 17.5732   8
   6  -8   2 485.104 24.4286   2
   6  -8   2 485.042 22.1447   7
   7  -8   2 111.250 10.2405   4
   7  -8   2 119.873 11.8216   2
   7  -8   2 91.8622 9.75313   7
   8  -8   2 73.4018 8.75045   4
   8  -8   2 77.5769 9.11482   7
   8  -8   2 70.2950 9.50611   2
   9  -8   2 -0.0435 1.74815   7
   9  -8   2 7.50318 3.38476   4
   9  -8   2 3.50838 3.05329   2
  10  -8   2 24.5521 6.62790   2
  10  -8   2 29.4647 7.45029   4
  10  -8   2 32.3122 8.14230   7
  11  -8   2 32.3166 8.22756   2
  11  -8   2 28.9122 8.01136   7
  11  -8   2 30.4413 8.12573   4
  12  -8   2 12.1092 6.28353   2
  12  -8   2 11.1294 4.93684   4
  12  -8   2 17.6441 6.94221   7
  13  -8   2 20.5248 6.88828   7
  13  -8   2 23.1625 8.31276   4
  13  -8   2 13.5675 5.81051   2
  14  -8   2 76.6485 13.8067   7
  14  -8   2 76.1595 12.8376   4
   9   7  -2 71.4815 12.9675   8
   9   7  -2 65.6842 6.66110   6
  -9  -7   2 77.0400 17.1871   3
   8   7  -2 131.595 13.8629   8
   8   7  -2 106.753 7.93791   6
  -8  -7   2 83.9656 16.1527   3
   7   7  -2 90.5244 11.5197   8
   7   7  -2 115.543 7.86401   6
  -7  -7   2 118.001 16.3098   3
   6   7  -2 9.70096 4.84968   8
   6   7  -2 4.55464 2.14925   6
  -6  -7   2 6.00426 4.27287   3
   5   7  -2 86.8117 6.37511   6
   5   7  -2 86.7983 10.0310   8
  -5  -7   2 90.5606 16.3930   3
   4   7  -2 11.4267 2.83332   6
   4   7  -2 10.4132 4.20555   8
  -4  -7   2 12.4781 4.65111   3
   3   7  -2 64.7765 8.09472   8
  -3  -7   2 41.4764 8.41445   3
   2   7  -2 356.086 18.1327   8
   2   7  -2 373.085 12.3529   6
  -2  -7   2 331.566 15.0392   6
  -2  -7   2 346.930 22.2036   3
   1   7  -2 384.453 12.1016   7
   1   7  -2 366.807 12.3919   6
  -1  -7   2 386.486 12.1000   7
  -1  -7   2 362.047 21.6039   3
  -1  -7   2 341.933 14.1419   6
   0   7  -2 628.313 17.8211   7
   0   7  -2 619.369 17.3295   6
   0  -7   2 637.192 17.8745   7
   0  -7   2 583.164 26.8125   3
   0  -7   2 575.743 17.7886   6
  -1   7  -2 138.917 8.11832   7
  -1   7  -2 149.792 7.97188   6
  -1   7  -2 123.182 9.02361   8
   1  -7   2 124.604 4.99943   4
   1  -7   2 137.122 7.13722   6
   1  -7   2 131.952 11.7152   3
   1  -7   2 125.495 11.2186   2
   1  -7   2 125.031 7.75636   7
  -2   7  -2 245.280 11.2321   6
  -2   7  -2 246.823 12.3260   8
  -2   7  -2 238.751 11.6756   7
   2  -7   2 264.625 8.18615   5
   2  -7   2 254.700 9.66341   6
   2  -7   2 255.436 11.9573   7
   2  -7   2 273.908 16.1363   3
   2  -7   2 246.395 15.6069   2
  -3   7  -2 368.947 14.7020   8
  -3   7  -2 356.368 17.7115   7
   3  -7   2 372.911 15.6806   7
   3  -7   2 379.486 19.5994   2
   3  -7   2 367.530 12.3132   6
  -4   7  -2 174.939 9.53378   8
  -4   7  -2 187.420 11.5313   7
   4  -7   2 174.388 8.99947   5
   4  -7   2 187.177 11.4652   7
  -5   7  -2 195.000 9.71151   8
   5  -7   2 199.430 14.2189   2
   5  -7   2 199.178 12.5402   7
   5  -7   2 190.970 10.6894   5
  -6   7  -2 860.018 22.2795   8
   6  -7   2 853.354 31.6703   2
   6  -7   2 900.928 30.1274   7
   6  -7   2 784.821 26.0767   5
   7  -7   2 76.3859 8.70833   7
   7  -7   2 81.4052 9.26553   2
   8  -7   2 181.257 13.5031   4
   8  -7   2 169.242 13.5236   7
   8  -7   2 146.173 12.7107   2
   9  -7   2 95.6557 10.7219   7
   9  -7   2 87.2092 9.88516   2
   9  -7   2 98.1084 10.6125   4
  10  -7   2 90.9595 10.4704   4
  10  -7   2 107.051 11.6595   7
  10  -7   2 104.047 10.9435   2
  11  -7   2 64.5407 11.6263   2
  11  -7   2 58.3304 10.8063   7
  11  -7   2 52.1353 9.46318   4
  12  -7   2 9.20551 4.74755   7
  12  -7   2 5.72026 4.70377   2
  12  -7   2 3.04518 3.91225   4
  13  -7   2 -1.6790 2.81498   4
  13  -7   2 3.78687 3.78348   7
  13  -7   2 1.67245 4.00011   2
  14  -7   2 74.6013 14.0067   4
  14  -7   2 121.042 17.8977   7
  10   6  -2 64.7835 11.6294   8
  10   6  -2 59.5513 6.85413   6
 -10  -6   2 31.8072 10.9564   3
   9   6  -2 3.52002 4.36541   8
  -9  -6   2 2.61804 5.44331   3
   8   6  -2 60.4448 6.30850   6
   8   6  -2 88.5125 11.1557   8
  -8  -6   2 85.4428 17.2638   3
   7   6  -2 143.383 9.34850   6
   7   6  -2 143.542 13.4643   8
  -7  -6   2 138.931 16.7613   3
   6   6  -2 10.5888 4.44218   8
   6   6  -2 6.67958 2.65663   6
   6   6  -2 6.69310 1.70733   5
  -6  -6   2 0.80544 3.39083   3
   5   6  -2 165.829 8.95536   6
   5   6  -2 150.732 12.6325   8
  -5  -6   2 172.083 17.0115   3
   4   6  -2 39.6148 5.79439   6
   4   6  -2 34.3395 6.85907   2
  -4  -6   2 30.6702 7.33887   3
   3   6  -2 2.69255 1.48034   6
   3   6  -2 4.26346 2.55161   2
  -3  -6   2 1.19983 2.48754   3
  -3  -6   2 5.40383 2.43589   6
   2   6  -2 1553.33 41.6294   2
   2   6  -2 1611.68 32.0223   6
  -2  -6   2 1548.48 47.7416   3
   1   6  -2 33.3982 3.04266   7
   1   6  -2 19.8284 4.04407   8
   1   6  -2 26.9861 4.92482   2
   1   6  -2 27.2010 3.00586   6
  -1  -6   2 23.8251 5.78713   3
  -1  -6   2 30.9294 4.82942   6
   0   6  -2 1192.49 25.8322   6
   0   6  -2 1239.26 39.5892   2
   0   6  -2 1187.90 31.5087   8
   0   6  -2 1206.43 26.4055   7
   0  -6   2 1189.10 35.6562   2
   0  -6   2 1195.17 26.3275   7
   0  -6   2 1165.34 36.5556   3
   0  -6   2 1214.36 26.9997   6
  -1   6  -2 812.779 23.1735   8
  -1   6  -2 788.878 20.8245   7
  -1   6  -2 745.456 19.4236   6
   1  -6   2 794.580 20.6782   7
   1  -6   2 789.875 18.8132   6
   1  -6   2 729.242 26.3693   2
   1  -6   2 756.727 27.0708   3
  -2   6  -2 251.038 11.0715   8
  -2   6  -2 244.575 10.4265   6
  -2   6  -2 258.843 11.4436   7
   2  -6   2 250.400 11.1875   7
   2  -6   2 232.868 13.8671   2
   2  -6   2 241.620 8.00109   5
   2  -6   2 255.698 9.07560   6
  -3   6  -2 4.53744 1.89046   8
  -3   6  -2 4.29995 2.44462   2
  -3   6  -2 4.95372 2.04507   7
   3  -6   2 7.20002 1.92264   6
   3  -6   2 3.59757 1.84391   5
   3  -6   2 5.32681 2.09565   7
   3  -6   2 2.29765 2.03933   2
  -4   6  -2 1.12080 1.96401   2
  -4   6  -2 2.18345 1.45770   8
  -4   6  -2 1.50910 1.23370   7
   4  -6   2 3.52991 2.62227   2
   4  -6   2 2.66775 2.10972   7
   4  -6   2 0.68634 0.97569   6
   4  -6   2 2.38524 1.48038   5
  -5   6  -2 788.480 25.6899   7
  -5   6  -2 778.926 19.5638   8
  -5   6  -2 756.786 27.2491   2
   5  -6   2 791.206 23.3395   5
   5  -6   2 767.321 21.8217   6
   5  -6   2 808.095 26.1890   7
  -6   6  -2 2909.93 67.3229   2
   6  -6   2 2931.94 66.8229   2
   6  -6   2 3069.05 65.8323   7
   6  -6   2 2952.48 61.5668   5
   7  -6   2 29.6854 5.86867   7
   8  -6   2 -0.5321 1.87525   2
   8  -6   2 0.95471 1.82978   7
   9  -6   2 48.5357 7.61593   4
   9  -6   2 78.3491 11.6695   7
   9  -6   2 76.9610 8.84951   2
  10  -6   2 486.258 23.5536   2
  10  -6   2 451.993 24.0845   4
  10  -6   2 509.489 25.3078   7
  11  -6   2 143.323 14.1982   4
  11  -6   2 138.668 12.5438   2
  11  -6   2 127.086 14.2418   7
  12  -6   2 24.4251 7.16333   4
  12  -6   2 14.4130 5.06357   7
  12  -6   2 9.56454 5.04161   2
  13  -6   2 6.68704 4.70636   4
  13  -6   2 4.76126 4.27373   2
  13  -6   2 0.29542 3.92024   7
  14  -6   2 23.0255 8.25857   4
  14  -6   2 27.8368 10.4134   7
  11   5  -2 12.6777 5.69085   8
 -11  -5   2 2.53666 6.05454   3
  10   5  -2 79.5627 12.3858   8
  10   5  -2 68.9961 7.62584   6
 -10  -5   2 71.2927 13.9764   3
   9   5  -2 10.3351 4.37950   8
   9   5  -2 9.80733 3.41190   6
  -9  -5   2 8.13777 5.55610   3
   8   5  -2 204.064 12.2340   6
   8   5  -2 192.852 15.7475   8
  -8  -5   2 188.550 18.7827   3
   7   5  -2 486.024 16.0438   5
   7   5  -2 518.636 13.9095   4
   7   5  -2 527.196 19.6235   6
   7   5  -2 475.628 20.2548   2
  -7  -5   2 521.170 30.7034   3
   6   5  -2 495.727 18.0094   6
   6   5  -2 467.455 19.8211   2
   6   5  -2 495.455 14.8761   5
  -6  -5   2 488.327 28.4626   3
   5   5  -2 1.96224 2.19155   6
   5   5  -2 1.06711 0.98506   5
   5   5  -2 5.22425 3.29928   2
  -5  -5   2 -2.8512 1.95365   3
   4   5  -2 278.752 14.3313   2
   4   5  -2 299.440 11.7168   6
   4   5  -2 293.090 8.47761   5
  -4  -5   2 281.402 18.9471   3
  -4  -5   2 263.878 13.9655   6
   3   5  -2 35.7426 6.17803   2
   3   5  -2 34.7630 3.59228   6
  -3  -5   2 31.9695 5.70064   6
  -3  -5   2 25.2506 6.39725   3
   2   5  -2 2262.83 41.4223   6
   2   5  -2 2232.19 49.7155   2
  -2  -5   2 2146.36 45.6588   6
  -2  -5   2 2238.92 56.2151   3
   1   5  -2 25.7694 5.40763   2
   1   5  -2 14.9236 2.19190   7
   1   5  -2 18.9445 2.95822   6
  -1  -5   2 17.6524 5.38055   3
  -1  -5   2 18.4055 3.49267   6
  -1  -5   2 17.6094 1.96203   7
   0   5  -2 12.6847 2.24011   6
   0   5  -2 12.7736 2.54331   7
   0   5  -2 14.9445 3.79994   2
   0  -5   2 11.0521 2.13894   7
   0  -5   2 7.99657 2.43178   2
   0  -5   2 12.7180 2.31130   6
   0  -5   2 11.1025 1.33274   4
   0  -5   2 5.90134 2.27627   3
  -1   5  -2 1766.42 41.6229   2
  -1   5  -2 1795.67 34.3428   6
  -1   5  -2 1787.72 37.5608   8
  -1   5  -2 1730.18 35.5013   7
   1  -5   2 1783.22 35.5499   7
   1  -5   2 1785.12 33.3080   6
   1  -5   2 1754.44 42.2205   2
  -2   5  -2 67.8976 5.28870   7
  -2   5  -2 69.4015 5.00156   8
  -2   5  -2 71.8322 6.65805   2
  -2   5  -2 68.4962 4.97646   6
   2  -5   2 69.0849 3.98618   5
   2  -5   2 76.4148 7.09862   2
   2  -5   2 69.9169 4.22455   6
   2  -5   2 68.1274 5.35898   7
  -3   5  -2 0.80160 0.96904   8
  -3   5  -2 0.88628 0.92356   7
  -3   5  -2 -0.6531 1.02129   2
   3  -5   2 3.54607 1.53095   6
   3  -5   2 1.25892 1.13518   5
   3  -5   2 1.24931 1.30261   7
   3  -5   2 0.58222 1.14719   2
  -4   5  -2 9.50239 2.92699   7
  -4   5  -2 11.2849 3.71714   2
  -4   5  -2 12.1391 2.20851   8
   4  -5   2 7.74895 2.66593   2
   4  -5   2 11.2629 2.79568   5
   4  -5   2 11.3790 3.29522   7
   4  -5   2 6.91054 1.96811   6
  -5   5  -2 195.004 12.2795   2
   5  -5   2 182.171 11.7868   2
   5  -5   2 188.558 11.1815   7
   5  -5   2 191.517 10.2748   5
  -6   5  -2 1351.76 38.5614   2
   6  -5   2 1367.29 37.8550   2
   6  -5   2 1321.76 34.5796   5
   6  -5   2 1339.01 37.1671   7
  -7   5  -2 83.4573 8.78561   2
   7  -5   2 85.4637 8.47577   7
   7  -5   2 87.9652 8.72952   2
   8  -5   2 19.0874 6.21674   3
   8  -5   2 14.6910 4.38150   2
   8  -5   2 25.8455 5.81686   7
   9  -5   2 221.660 15.3396   4
   9  -5   2 213.210 14.4182   2
   9  -5   2 213.556 18.2276   3
   9  -5   2 206.393 14.7826   7
  10  -5   2 98.3950 10.7973   4
  10  -5   2 109.493 11.3092   7
  10  -5   2 134.274 11.5898   2
  11  -5   2 215.424 15.2041   2
  11  -5   2 213.618 34.4691   4
  11  -5   2 208.981 16.3745   7
  12  -5   2 44.2528 8.87305   2
  12  -5   2 36.0132 8.72175   7
  12  -5   2 28.9931 6.88945   4
  13  -5   2 11.0797 5.78152   4
  13  -5   2 7.16780 4.54728   7
  14  -5   2 93.5607 14.2663   4
  14  -5   2 100.059 15.2964   7
  11   4  -2 10.4142 4.55087   6
  11   4  -2 22.8033 7.07065   8
 -11  -4   2 -4.1076 4.10493   3
  10   4  -2 4.92699 3.01972   6
  10   4  -2 5.30747 2.78265   4
  10   4  -2 12.8070 4.59437   8
 -10  -4   2 11.2761 5.90863   3
   9   4  -2 1.23052 2.00687   4
   9   4  -2 -2.4820 1.86195   6
  -9  -4   2 -1.6698 3.54671   3
   8   4  -2 12.6173 2.84418   4
   8   4  -2 5.93903 3.15292   6
  -8  -4   2 4.55907 3.71946   3
   7   4  -2 15.6848 3.96714   6
   7   4  -2 19.1205 3.37165   4
   7   4  -2 19.1083 4.20348   5
  -7  -4   2 38.1487 10.0358   3
   6   4  -2 553.500 19.7708   6
   6   4  -2 500.425 19.0028   2
   6   4  -2 528.950 15.1838   4
   6   4  -2 521.186 16.6457   5
  -6  -4   2 514.581 27.2135   3
   5   4  -2 19.3506 3.93520   6
   5   4  -2 21.4592 3.05140   4
   5   4  -2 15.0501 2.76285   5
   5   4  -2 18.8570 4.23598   2
  -5  -4   2 18.5333 5.92155   3
   4   4  -2 159.583 6.78535   5
   4   4  -2 155.963 6.03739   4
   4   4  -2 160.054 8.63665   6
   4   4  -2 164.230 9.75541   2
  -4  -4   2 156.374 12.9362   3
  -4  -4   2 138.652 11.0203   6
   3   4  -2 642.702 13.4154   4
   3   4  -2 613.563 13.7454   5
   3   4  -2 646.183 20.2627   2
   3   4  -2 635.207 17.4456   6
  -3  -4   2 615.253 20.0479   6
  -3  -4   2 638.285 25.3160   3
  -3  -4   2 609.811 14.6807   4
   2   4  -2 35.6589 2.09993   4
   2   4  -2 32.7037 3.15419   6
   2   4  -2 30.5743 3.95841   2
  -2  -4   2 28.7510 3.55384   6
  -2  -4   2 28.7837 2.33248   4
  -2  -4   2 29.6532 5.74250   3
   1   4  -2 1874.64 40.7916   2
   1   4  -2 1910.67 34.6490   6
  -1  -4   2 1885.37 41.7870   2
  -1  -4   2 1862.85 37.0209   6
  -1  -4   2 1905.91 44.7480   3
  -1  -4   2 1897.18 32.3534   4
   0   4  -2 83.5963 4.26272   6
   0   4  -2 78.4173 4.21654   7
   0   4  -2 87.2093 6.60629   2
   0  -4   2 86.1027 3.47960   4
   0  -4   2 86.9924 6.71250   2
   0  -4   2 81.4827 4.54243   6
   0  -4   2 82.1056 4.22429   7
  -1   4  -2 2855.99 56.1783   2
  -1   4  -2 2800.80 54.0520   7
  -1   4  -2 2920.55 49.6025   6
   1  -4   2 2805.59 48.5505   6
   1  -4   2 2875.20 46.0321   5
   1  -4   2 2906.97 51.0929   7
   1  -4   2 2870.71 56.7902   2
  -2   4  -2 1547.15 35.6680   7
  -2   4  -2 1534.12 31.0464   6
  -2   4  -2 1558.19 36.1454   2
  -2   4  -2 1551.77 29.9846   8
   2  -4   2 1577.77 29.3744   5
   2  -4   2 1571.11 29.4110   6
   2  -4   2 1547.07 32.7285   7
  -3   4  -2 2121.47 46.4537   2
  -3   4  -2 2127.38 43.6958   7
  -3   4  -2 2127.85 37.7593   8
   3  -4   2 2165.72 44.1609   7
   3  -4   2 2205.09 47.1531   2
   3  -4   2 2222.40 41.2778   5
   3  -4   2 2138.95 39.9444   6
  -4   4  -2 64.9606 6.27171   2
  -4   4  -2 67.8671 6.42451   7
   4  -4   2 65.7402 5.94501   7
   4  -4   2 54.4237 4.57633   6
   4  -4   2 62.5739 5.22754   5
   4  -4   2 50.4328 5.68994   2
  -5   4  -2 80.6584 7.52805   2
   5  -4   2 73.7623 5.61305   6
   5  -4   2 82.9113 7.42525   2
   5  -4   2 76.5946 6.90291   7
   5  -4   2 78.5635 6.38537   5
  -6   4  -2 340.943 16.7115   2
   6  -4   2 363.433 16.6299   2
   6  -4   2 357.052 16.3820   7
   6  -4   2 351.523 15.2234   5
  -7   4  -2 181.376 14.5856   2
   7  -4   2 202.725 13.5224   3
   7  -4   2 194.023 12.6232   7
   7  -4   2 181.084 12.0474   2
  -8   4  -2 42.8977 7.66051   2
   8  -4   2 48.9060 8.71680   3
   8  -4   2 41.9370 7.84821   7
   8  -4   2 36.9424 6.59308   2
   9  -4   2 0.08459 1.76654   7
   9  -4   2 -0.8664 1.56630   4
  10  -4   2 344.720 19.7300   7
  10  -4   2 329.534 18.0006   2
  10  -4   2 325.345 19.5255   4
  11  -4   2 148.854 13.5564   4
  11  -4   2 146.613 13.6035   7
  11  -4   2 145.673 12.2537   2
  12  -4   2 39.2307 8.46175   4
  12  -4   2 50.7920 8.94285   2
  12  -4   2 41.3747 9.21544   7
  13  -4   2 30.2728 7.97714   4
  13  -4   2 41.8818 9.04550   7
  14  -4   2 359.212 37.3799   6
  14  -4   2 263.082 21.1402   4
  14  -4   2 238.697 18.7088   7
  12   3  -2 25.1406 6.12966   4
  12   3  -2 24.0894 6.99962   6
  12   3  -2 33.7876 7.90338   8
  11   3  -2 6.43972 3.89859   8
  11   3  -2 0.28921 2.31261   4
  11   3  -2 3.34132 3.53878   6
  10   3  -2 38.6938 7.44409   6
  10   3  -2 53.8039 7.27936   4
 -10  -3   2 26.8562 8.77273   3
   9   3  -2 120.756 10.8581   6
   9   3  -2 114.779 8.60759   4
  -9  -3   2 101.071 12.7018   3
   8   3  -2 3.51006 2.46481   6
  -8  -3   2 0.78753 2.67379   3
   7   3  -2 564.237 22.0726   6
   7   3  -2 583.635 18.7159   4
  -7  -3   2 570.884 28.2035   3
   6   3  -2 238.686 10.4209   4
   6   3  -2 230.579 11.1634   5
   6   3  -2 206.493 14.6255   6
  -6  -3   2 244.742 16.8238   3
   5   3  -2 0.24873 1.64713   3
   5   3  -2 3.28167 1.57167   4
   5   3  -2 7.62590 2.89594   6
   5   3  -2 5.87887 2.15671   5
  -5  -3   2 6.87329 3.49153   3
   4   3  -2 359.206 10.9527   4
   4   3  -2 363.346 13.8557   6
   4   3  -2 354.356 13.0410   2
  -4  -3   2 374.935 18.3397   3
   3   3  -2 8.65211 1.71339   4
   3   3  -2 2.85374 1.53685   2
   3   3  -2 4.94970 1.56102   5
   3   3  -2 5.77199 2.10261   6
  -3  -3   2 1.91232 2.15393   3
  -3  -3   2 5.42930 1.99444   4
  -3  -3   2 5.80468 2.05654   6
   2   3  -2 496.439 10.9577   4
   2   3  -2 481.082 14.8600   2
   2   3  -2 491.235 13.6459   6
  -2  -3   2 470.702 14.9548   6
  -2  -3   2 486.710 18.2644   3
  -2  -3   2 491.648 11.9127   4
   1   3  -2 1085.89 22.1476   6
   1   3  -2 1124.96 19.8494   4
   1   3  -2 1131.83 25.7591   2
  -1  -3   2 1134.97 20.6414   4
  -1  -3   2 1107.20 26.0273   2
  -1  -3   2 1101.89 28.2190   3
  -1  -3   2 1105.10 23.8415   6
   0   3  -2 604.710 13.1474   6
   0   3  -2 573.246 16.6785   2
   0  -3   2 587.347 13.6540   6
   0  -3   2 577.709 16.8953   2
   0  -3   2 612.315 12.1558   4
   0  -3   2 604.622 13.2181   7
  -1   3  -2 372.046 9.75169   6
  -1   3  -2 358.332 12.8265   2
  -1   3  -2 380.207 9.14826   5
   1  -3   2 386.186 10.9445   7
   1  -3   2 382.620 13.2532   2
   1  -3   2 374.676 8.40845   5
   1  -3   2 365.798 9.30271   6
  -2   3  -2 2973.02 51.8689   6
  -2   3  -2 2928.82 56.5139   2
  -2   3  -2 3029.53 49.2943   8
  -2   3  -2 3074.56 52.1825   5
   2  -3   2 3022.36 51.0007   5
   2  -3   2 2954.97 50.3465   6
   2  -3   2 3026.36 54.1221   7
   2  -3   2 2927.08 56.5214   2
  -3   3  -2 233.346 11.2103   2
  -3   3  -2 238.381 9.68092   5
   3  -3   2 219.291 9.89641   7
   3  -3   2 232.119 8.97033   5
   3  -3   2 238.413 11.0347   2
   3  -3   2 234.131 8.32691   6
  -4   3  -2 117.638 8.22608   2
  -4   3  -2 121.395 7.62739   5
   4  -3   2 115.629 6.97543   5
   4  -3   2 110.836 6.13930   6
   4  -3   2 128.071 8.45493   2
  -5   3  -2 92.3483 7.40806   5
  -5   3  -2 85.5958 7.48951   2
   5  -3   2 78.3212 6.80939   7
   5  -3   2 90.1739 6.80083   5
   5  -3   2 84.1446 7.24128   2
  -6   3  -2 48.6660 6.00350   2
   6  -3   2 46.9861 5.56847   7
   6  -3   2 43.9626 5.18643   5
   6  -3   2 52.2295 6.50475   3
   6  -3   2 50.9855 5.83987   2
   7  -3   2 1395.12 37.7007   2
   7  -3   2 1378.67 40.6369   3
   8  -3   2 86.4878 9.60976   3
   8  -3   2 84.3332 8.60081   7
   8  -3   2 93.2967 8.83060   2
   9  -3   2 264.230 16.1711   7
   9  -3   2 265.784 16.2431   4
   9  -3   2 267.503 15.5760   2
  10  -3   2 239.608 16.3768   4
  10  -3   2 216.537 15.2019   7
  10  -3   2 273.180 16.0351   2
  11  -3   2 46.0253 8.67621   7
  11  -3   2 55.9292 10.5019   4
  11  -3   2 57.8838 9.01246   2
  12  -3   2 166.637 13.1346   2
  12  -3   2 188.949 15.8861   4
  12  -3   2 164.688 14.8865   7
  13  -3   2 55.3505 11.1627   4
  13  -3   2 47.9360 9.14547   7
  14  -3   2 16.1276 7.26166   4
  14  -3   2 39.2168 11.9679   6
  14  -3   2 40.1158 8.64831   7
  12   2  -2 190.508 15.4631   8
  12   2  -2 209.856 13.6344   4
  12   2  -2 165.110 14.5045   6
  11   2  -2 25.0624 5.15734   4
  11   2  -2 16.7824 5.53099   6
  10   2  -2 255.161 14.3908   4
  10   2  -2 215.505 15.8023   6
   9   2  -2 26.3539 6.56381   6
   9   2  -2 33.8538 6.34136   4
  -9  -2   2 29.6618 7.90512   3
   8   2  -2 4.96736 1.78439   7
   8   2  -2 3.68365 2.75272   6
   8   2  -2 6.28493 2.56177   4
  -8  -2   2 7.91088 3.31288   3
   7   2  -2 413.829 19.8894   3
   7   2  -2 432.560 19.4708   6
   7   2  -2 426.906 16.5352   4
   7   2  -2 425.941 12.9640   7
  -7  -2   2 426.313 22.1814   3
   6   2  -2 -0.7513 1.32539   5
   6   2  -2 2.10414 1.15481   7
   6   2  -2 2.61383 2.57079   6
   6   2  -2 1.61604 1.69381   4
  -6  -2   2 3.78941 2.92943   3
   5   2  -2 2077.42 46.4459   6
   5   2  -2 2121.27 43.7260   5
   5   2  -2 1999.34 47.6194   3
   5   2  -2 2143.45 42.2243   4
  -5  -2   2 2102.59 51.1092   3
   4   2  -2 786.686 23.7181   3
   4   2  -2 744.545 21.9431   6
   4   2  -2 756.649 19.9221   5
   4   2  -2 777.055 19.1370   4
  -4  -2   2 784.704 19.9957   4
  -4  -2   2 781.742 25.1897   3
   3   2  -2 73.5230 5.45513   5
   3   2  -2 75.4820 4.34759   4
   3   2  -2 74.7211 5.46525   6
  -3  -2   2 74.4048 4.58680   4
  -3  -2   2 63.2563 6.07297   3
  -3  -2   2 71.6686 5.72089   6
   2   2  -2 832.506 19.3434   6
   2   2  -2 810.825 18.0165   2
   2   2  -2 823.562 16.6880   4
  -2  -2   2 794.825 20.1750   6
  -2  -2   2 773.900 21.4410   3
  -2  -2   2 793.120 17.2109   4
   1   2  -2 305.319 7.46521   4
   1   2  -2 298.645 8.78668   6
   1   2  -2 286.783 9.30787   2
  -1  -2   2 311.903 9.64330   2
  -1  -2   2 296.067 7.78860   4
  -1  -2   2 314.537 10.9851   6
   0   2  -2 1512.25 26.0697   4
   0   2  -2 1522.97 26.6624   6
   0   2  -2 1526.50 30.1837   2
   0   2  -2 1548.35 24.7361   5
   0  -2   2 1527.38 27.2714   6
   0  -2   2 1512.56 30.0810   2
   0  -2   2 1529.06 26.1512   4
  -1   2  -2 83.7283 5.32110   2
  -1   2  -2 82.6086 3.58015   6
  -1   2  -2 80.9827 4.26718   5
   1  -2   2 83.1202 3.40631   6
   1  -2   2 88.9657 3.42534   5
  -2   2  -2 326.385 9.36808   6
  -2   2  -2 309.943 13.7151   2
  -2   2  -2 349.604 10.2575   5
   2  -2   2 347.152 9.67093   5
   2  -2   2 336.021 12.0940   2
   2  -2   2 348.921 11.1230   7
   2  -2   2 333.707 9.99569   6
  -3   2  -2 34.7205 4.15809   2
  -3   2  -2 36.8837 3.75625   5
   3  -2   2 41.6944 3.67360   5
   3  -2   2 42.9285 4.49345   2
   3  -2   2 35.9937 2.98575   6
   3  -2   2 44.2355 4.14214   7
  -4   2  -2 0.09159 0.97529   2
  -4   2  -2 -0.1991 0.94095   5
   4  -2   2 -0.8816 0.71841   5
   4  -2   2 1.04407 1.16882   7
  -5   2  -2 373.253 15.4316   5
  -5   2  -2 385.951 16.2993   2
   5  -2   2 385.939 14.4234   5
   5  -2   2 376.174 17.0597   3
   5  -2   2 377.934 15.1546   7
   5  -2   2 351.728 17.1849   2
  -6   2  -2 762.241 25.4065   5
   6  -2   2 781.773 25.1492   2
   6  -2   2 789.896 27.8273   3
   6  -2   2 780.079 24.6434   7
   6  -2   2 753.148 23.4594   5
  -7   2  -2 7.59354 3.17572   5
   7  -2   2 10.0191 3.52024   2
   7  -2   2 3.50265 2.81240   3
   7  -2   2 8.28277 3.10728   7
   8  -2   2 202.656 12.9768   7
   8  -2   2 185.742 17.2561   3
   8  -2   2 203.500 13.0667   2
   9  -2   2 5.31715 2.87306   2
   9  -2   2 3.59699 2.37163   7
   9  -2   2 1.83520 1.67359   4
  10  -2   2 4.24759 2.44915   4
  10  -2   2 -1.6795 2.34343   2
  11  -2   2 5.29525 3.57618   7
  11  -2   2 11.4593 4.96596   4
  12  -2   2 144.182 14.2607   6
  12  -2   2 156.479 14.2933   4
  13  -2   2 34.4324 7.81789   7
  13  -2   2 21.4973 6.45840   4
  13  -2   2 29.2464 8.04613   6
  14  -2   2 -0.5032 4.58100   7
  14  -2   2 12.6619 4.94278   4
  13   1  -2 -3.4312 3.04813   4
  13   1  -2 -1.1996 3.54953   8
  13   1  -2 -4.7186 3.43083   6
  12   1  -2 -5.9525 2.31651   6
  12   1  -2 -2.4785 2.80441   4
  11   1  -2 -0.4654 2.45449   6
  11   1  -2 6.41791 2.80403   4
  10   1  -2 9.92739 2.93738   7
  10   1  -2 2.40670 2.40521   4
  10   1  -2 6.78012 4.24152   6
   9   1  -2 277.840 15.2933   4
   9   1  -2 249.861 11.8602   7
   9   1  -2 229.992 16.0886   6
  -9  -1   2 295.213 18.7665   3
   8   1  -2 766.754 25.7574   4
   8   1  -2 826.401 28.6255   3
   8   1  -2 777.905 29.5269   6
   8   1  -2 792.127 22.1189   7
  -8  -1   2 798.778 30.5367   3
   7   1  -2 100.972 7.91244   4
   7   1  -2 91.4090 8.49611   3
   7   1  -2 93.3638 6.23317   7
   7   1  -2 97.7124 9.13578   6
  -7  -1   2 98.5015 9.60052   3
   6   1  -2 619.422 21.5717   3
   6   1  -2 604.635 16.5497   7
   6   1  -2 605.784 19.5679   4
   6   1  -2 587.637 22.3058   6
  -6  -1   2 610.205 23.0623   3
   5   1  -2 416.319 15.3486   5
   5   1  -2 436.718 14.8428   4
   5   1  -2 430.562 12.1996   7
   5   1  -2 424.450 16.0654   3
   5   1  -2 406.008 16.7874   6
  -5  -1   2 421.840 17.2248   3
   4   1  -2 2325.22 39.8960   7
   4   1  -2 2196.68 43.3916   4
   4   1  -2 2252.77 44.6613   5
   4   1  -2 2271.54 45.6258   3
   4   1  -2 2230.47 47.1876   6
  -4  -1   2 2308.03 44.1457   4
  -4  -1   2 2262.36 47.2624   3
   3   1  -2 3.93901 1.33184   4
   3   1  -2 4.12597 1.54526   6
   3   1  -2 5.66760 1.24595   7
  -3  -1   2 6.79361 1.34241   7
  -3  -1   2 3.15554 1.80748   3
  -3  -1   2 7.53841 1.83894   4
   2   1  -2 159.290 5.97111   4
   2   1  -2 152.863 7.00555   6
  -2  -1   2 153.229 6.87604   3
  -2  -1   2 140.610 7.02259   6
  -2  -1   2 154.041 6.12549   4
   1   1  -2 739.290 15.1873   2
   1   1  -2 725.004 14.6168   4
  -1  -1   2 737.012 16.5193   6
  -1  -1   2 743.274 13.7254   7
  -1  -1   2 726.293 14.9152   4
  -1  -1   2 738.681 14.9689   2
   0   1  -2 31.0397 1.92142   4
   0   1  -2 28.8493 2.63894   2
   0  -1   2 29.4326 1.88860   4
   0  -1   2 30.9675 2.74553   2
   0  -1   2 32.7362 2.10374   6
  -1   1  -2 2195.87 41.1607   2
  -1   1  -2 2215.09 36.5556   8
   1  -1   2 2177.55 36.6446   8
   1  -1   2 2223.48 35.4432   6
   1  -1   2 2125.48 36.2786   5
  -2   1  -2 454.601 12.1970   5
  -2   1  -2 466.514 14.6221   2
   2  -1   2 449.969 14.3625   2
   2  -1   2 461.507 10.4105   6
  -3   1  -2 80.7313 5.39185   5
   3  -1   2 83.0564 6.20960   2
   3  -1   2 83.8678 6.70235   3
  -4   1  -2 639.013 19.1832   5
   4  -1   2 619.746 21.9693   3
   4  -1   2 619.727 20.1136   2
   4  -1   2 611.899 17.5777   5
   4  -1   2 642.928 13.4916   8
  -5   1  -2 2.94456 1.84197   5
   5  -1   2 6.33828 1.49245   8
   5  -1   2 9.23177 2.84367   5
   5  -1   2 4.55993 2.09950   2
   5  -1   2 5.83882 2.43281   3
   5  -1   2 3.67580 1.69122   7
  -6   1  -2 467.907 19.1034   5
   6  -1   2 454.401 18.9202   2
   6  -1   2 467.492 21.5396   3
   6  -1   2 461.534 12.8724   8
   6  -1   2 473.424 18.0468   7
   6  -1   2 460.624 17.2471   5
  -7   1  -2 115.663 10.1193   5
   7  -1   2 124.016 9.80940   2
   7  -1   2 105.984 6.03916   8
   7  -1   2 99.2893 8.44327   7
   7  -1   2 102.264 10.5266   3
   8  -1   2 41.9721 7.03501   7
   8  -1   2 47.1251 4.40418   8
   8  -1   2 49.0024 6.54431   2
   8  -1   2 48.9860 7.12799   4
   9  -1   2 383.888 20.1834   2
   9  -1   2 363.653 18.4940   7
   9  -1   2 349.418 13.2027   8
   9  -1   2 350.341 18.1577   4
   9  -1   2 311.492 14.1824   8
  10  -1   2 60.9359 9.39612   4
  10  -1   2 56.8233 8.81051   2
  10  -1   2 38.3969 6.32852   8
  10  -1   2 50.1657 5.05409   8
  10  -1   2 58.4647 8.91414   7
  11  -1   2 134.447 12.1330   4
  11  -1   2 112.489 10.6860   7
  11  -1   2 132.326 12.9162   6
  11  -1   2 106.539 10.6841   2
  12  -1   2 156.489 14.0089   6
  12  -1   2 147.338 13.3875   4
  12  -1   2 137.594 13.5350   7
  13  -1   2 22.0723 6.02050   7
  13  -1   2 20.3701 6.60326   4
  13  -1   2 12.9422 5.15457   6
  13   0  -2 19.8056 6.11230   4
  13   0  -2 17.1537 4.76188   8
  13   0  -2 12.4192 6.56869   6
  12   0  -2 2.28979 3.73495   6
  12   0  -2 7.35112 3.87993   4
  12   0  -2 0.65915 2.82975   7
  11   0  -2 265.566 17.0541   4
  11   0  -2 282.822 14.8517   7
  11   0  -2 242.315 20.0106   6
  10   0  -2 6.08173 2.77158   4
  10   0  -2 -0.2286 2.13946   6
  10   0  -2 -3.0709 1.34264   7
   9   0  -2 579.464 26.8068   6
   9   0  -2 582.434 20.4269   7
   9   0  -2 544.496 22.3624   3
   9   0  -2 612.034 24.0609   4
   8   0  -2 219.534 12.5795   3
   8   0  -2 188.452 10.4416   7
   8   0  -2 208.351 14.7939   6
   8   0  -2 238.576 13.5828   4
   7   0  -2 559.817 17.8198   7
   7   0  -2 561.390 20.4108   4
   7   0  -2 539.848 22.9833   6
   7   0  -2 540.561 19.3746   3
   7   0  -2 520.811 21.4285   8
  -7   0   2 546.795 21.1350   3
   6   0  -2 491.988 18.6751   5
   6   0  -2 450.838 18.5140   8
   6   0  -2 487.152 17.5810   4
   6   0  -2 452.355 19.4993   6
   6   0  -2 463.928 16.6279   3
   6   0  -2 469.366 15.0704   7
  -6   0   2 468.297 17.7777   3
   5   0  -2 299.091 11.5933   3
   5   0  -2 313.509 13.2911   5
   5   0  -2 308.992 12.6462   4
   5   0  -2 326.701 11.2081   7
  -5   0   2 317.478 12.8789   3
  -5   0   2 314.636 11.1082   7
   4   0  -2 790.967 18.9637   3
   4   0  -2 763.658 22.4080   8
   4   0  -2 816.222 18.6226   7
   4   0  -2 783.868 20.6119   4
   4   0  -2 751.417 22.6162   6
  -4   0   2 822.290 20.2575   3
  -4   0   2 789.428 20.7200   4
   3   0  -2 65.0832 4.55094   4
   3   0  -2 68.5326 3.93714   7
   3   0  -2 64.3994 5.23865   8
  -3   0   2 72.9055 4.22900   3
  -3   0   2 67.9590 3.90498   7
  -3   0   2 66.1748 4.62524   4
   2   0  -2 106.151 6.03611   8
   2   0  -2 112.893 5.24277   4
   2   0  -2 98.0622 5.22327   7
  -2   0   2 110.458 4.53674   7
  -2   0   2 103.083 4.06646   3
  -2   0   2 105.989 5.13314   4
   1   0  -2 2783.30 48.9487   8
  -1   0   2 2657.94 47.3418   6
  -1   0   2 2854.07 49.3832   8
  -1   0   2 2806.96 46.4987   4
  -1   0   2 2803.88 46.2479   7
  -1   0  -2 1513.73 24.6099   6
  -1   0  -2 1484.66 26.9187   8
  -1   0  -2 1548.26 26.9814   5
   1   0   2 1473.41 25.7073   4
   1   0   2 1485.26 31.7601   3
   1   0   2 1513.90 24.1766   6
   1   0   2 1551.99 27.5974   8
   1   0   2 1501.35 26.3431   5
  -2   0  -2 317.900 9.68291   5
  -2   0  -2 305.586 8.18563   8
   2   0   2 315.222 12.8674   3
   2   0   2 296.581 8.83073   5
  -3   0  -2 357.207 15.4642   3
  -3   0  -2 363.975 12.2147   5
   3   0   2 373.896 11.4199   5
   3   0   2 362.335 14.4637   2
   3   0   2 364.751 9.96369   8
   3   0   2 364.410 15.5728   3
  -4   0  -2 885.636 23.7850   5
  -4   0  -2 889.086 28.4296   3
   4   0   2 903.621 19.7776   8
   4   0   2 878.244 26.0157   2
   4   0   2 861.448 28.0657   3
   4   0   2 883.659 21.9262   5
  -5   0  -2 645.669 21.5258   5
   5   0   2 706.514 26.3163   3
   5   0   2 678.259 23.5302   2
   5   0   2 712.696 17.8347   8
   5   0   2 686.537 20.0606   5
  -6   0  -2 48.3508 7.48079   5
   6   0   2 28.8470 6.15667   3
   6   0   2 40.3298 4.97821   7
   6   0   2 31.2158 4.55208   5
   6   0   2 40.8425 7.41739   2
   6   0   2 38.2016 3.93815   8
  -7   0  -2 204.650 13.4388   5
   7   0   2 178.530 12.5314   2
   7   0   2 200.289 9.73831   8
   7   0   2 217.980 12.3561   7
  -8   0  -2 150.480 12.3989   5
   8   0   2 141.846 10.6972   7
   8   0   2 161.337 9.22820   8
   8   0   2 149.977 10.7783   4
   8   0   2 142.351 11.6382   2
   9   0   2 302.178 16.2919   4
   9   0   2 271.353 12.9598   8
   9   0   2 277.638 16.6369   6
   9   0   2 279.994 17.0431   2
   9   0   2 288.945 15.9099   7
  10   0   2 8.25552 3.84399   6
  10   0   2 12.0541 3.96729   4
  10   0   2 10.6065 3.92200   7
  10   0   2 10.1002 4.26179   2
  11   0   2 24.8881 7.35095   2
  11   0   2 16.1892 5.00129   7
  11   0   2 23.6420 6.19479   4
  11   0   2 24.8966 4.94322   8
  11   0   2 23.4892 6.07818   6
  12   0   2 140.593 12.3738   7
  12   0   2 156.574 13.4645   6
  12   0   2 141.017 10.3073   8
  12   0   2 136.955 12.7139   4
  13   0   2 -0.3389 3.94502   7
  13   0   2 8.01247 4.23688   4
  13   0   2 -7.5397 3.59937   6
  14  -1  -2 3.04499 4.09496   4
  14  -1  -2 1.11362 4.51278   6
  13  -1  -2 24.9643 7.89923   6
  13  -1  -2 20.1989 5.96903   4
  13  -1  -2 16.2708 5.67295   7
  12  -1  -2 153.880 11.9114   7
  12  -1  -2 167.847 14.3885   4
  12  -1  -2 158.982 15.9941   6
  11  -1  -2 161.449 11.5827   7
  11  -1  -2 155.897 13.4219   4
  11  -1  -2 106.664 20.9764   6
  10  -1  -2 114.067 10.6334   4
  10  -1  -2 106.867 11.8532   6
  10  -1  -2 94.0292 8.69714   7
   9  -1  -2 146.909 10.1272   3
   9  -1  -2 169.004 12.2718   4
   9  -1  -2 147.812 13.4135   6
   8  -1  -2 352.280 17.1630   4
   8  -1  -2 350.710 14.6538   3
   8  -1  -2 362.153 17.4830   8
   8  -1  -2 366.874 15.6185   7
   8  -1  -2 361.164 19.8400   6
   7  -1  -2 440.799 16.3681   7
   7  -1  -2 428.939 21.0783   4
   7  -1  -2 429.926 15.3789   3
   7  -1  -2 421.708 18.0734   8
  -7   1   2 421.953 16.2830   7
   6  -1  -2 380.937 13.1270   3
   6  -1  -2 382.712 15.8427   4
   6  -1  -2 401.449 16.7224   5
   6  -1  -2 414.314 14.7328   7
   6  -1  -2 377.356 15.9996   8
  -6   1   2 399.632 14.6975   7
   5  -1  -2 485.991 17.3020   8
   5  -1  -2 485.364 16.7771   4
   5  -1  -2 477.487 15.2550   7
  -5   1   2 480.999 15.2967   7
   4  -1  -2 82.2794 5.36880   7
   4  -1  -2 84.1789 5.96484   4
   4  -1  -2 73.3680 6.84004   8
  -4   1   2 80.6228 5.27643   7
  -4   1   2 77.3582 5.71674   4
   3  -1  -2 4139.60 74.2574   8
   3  -1  -2 4331.11 72.0014   7
  -3   1   2 4198.60 73.4389   4
  -3   1   2 4179.36 71.6974   7
  -3   1   2 4312.52 75.2374   8
   2  -1  -2 3230.11 58.7877   8
  -2   1   2 3441.17 59.7257   8
   1  -1  -2 9977.38 196.702   1
  -1   1   2 9999.99 196.979   1
   0  -1  -2 19.1983 2.25266   8
   0  -1  -2 15.5211 2.78596   3
   0  -1  -2 16.2496 1.53529   4
   0   1   2 17.2709 1.60076   4
   0   1   2 17.5282 3.28047   3
  -1  -1  -2 3178.75 59.8382   3
  -1  -1  -2 3188.45 53.7771   8
   1   1   2 3173.12 54.4431   8
   1   1   2 3056.36 63.9419   3
  -2  -1  -2 1075.76 22.5846   5
  -2  -1  -2 1036.97 28.8799   3
   2   1   2 1091.50 21.4768   5
   2   1   2 1060.33 22.8886   8
   2   1   2 1067.25 32.9156   3
  -3  -1  -2 204.023 8.90266   5
  -3  -1  -2 196.151 12.1646   3
   3   1   2 194.356 7.76855   5
   3   1   2 210.043 12.3512   3
   3   1   2 198.630 8.20346   8
  -4  -1  -2 41.4781 8.12970   3
  -4  -1  -2 36.1700 4.35342   5
   4   1   2 40.1181 3.86435   5
   4   1   2 34.7344 3.60206   8
   4   1   2 40.2739 7.11870   3
  -5  -1  -2 1788.62 41.4854   5
  -5  -1  -2 1748.32 49.3021   3
   5   1   2 1785.12 37.7250   8
   5   1   2 1813.46 48.8670   3
   5   1   2 1727.79 41.2252   5
  -6  -1  -2 298.333 19.1307   3
  -6  -1  -2 302.620 15.3354   5
   6   1   2 312.341 12.9516   8
   6   1   2 289.914 13.6171   5
   6   1   2 313.411 16.9008   2
   6   1   2 282.101 13.0750   6
  -7  -1  -2 1442.02 40.7489   5
  -7  -1  -2 1455.91 48.4555   3
   7   1   2 1434.23 42.2552   2
   7   1   2 1424.28 37.2826   7
   7   1   2 1473.24 36.3993   4
   7   1   2 1456.40 35.1595   8
   7   1   2 1413.22 37.0237   6
  -8  -1  -2 15.7308 5.16897   5
   8   1   2 10.1005 3.04182   8
   8   1   2 9.19095 3.20035   4
   8   1   2 12.2629 4.43352   2
   8   1   2 16.8690 4.69125   7
   9   1   2 104.637 10.9969   2
   9   1   2 106.595 8.68574   8
   9   1   2 104.649 9.56385   6
   9   1   2 108.828 9.61988   7
   9   1   2 91.2098 8.74470   4
  10   1   2 144.659 13.0337   2
  10   1   2 150.680 11.9453   4
  10   1   2 157.832 12.1943   6
  10   1   2 167.701 11.2141   8
  10   1   2 158.039 12.2153   7
  11   1   2 18.0642 4.55743   7
  11   1   2 17.7687 4.79175   6
  11   1   2 9.77124 3.44082   8
  11   1   2 17.2790 4.76385   4
  12   1   2 6.14596 3.39994   7
  12   1   2 7.32477 4.25680   6
  12   1   2 18.7116 4.77417   8
  12   1   2 9.88149 4.01797   4
  14  -2  -2 135.257 19.4670   4
  14  -2  -2 99.8069 11.5798   7
  14  -2  -2 130.353 15.6043   6
  13  -2  -2 0.90795 3.20843   7
  13  -2  -2 -1.8043 3.12033   4
  13  -2  -2 -1.0819 2.86317   6
  12  -2  -2 183.978 13.7139   7
  12  -2  -2 181.392 15.4871   4
  12  -2  -2 198.461 17.8036   6
  11  -2  -2 112.782 14.0530   6
  11  -2  -2 122.815 10.7126   7
  11  -2  -2 102.403 10.9171   4
  10  -2  -2 2.36964 2.19868   4
  10  -2  -2 -1.8165 1.22634   6
  10  -2  -2 8.20519 3.72390   7
   9  -2  -2 0.12584 1.48663   3
   9  -2  -2 -1.9712 2.35446   8
   9  -2  -2 0.18928 1.50930   7
   9  -2  -2 -2.1890 1.09580   4
   8  -2  -2 0.74045 1.81877   8
   8  -2  -2 -2.2370 1.61639   4
   8  -2  -2 2.00323 1.88791   7
  -8   2   2 0.16864 1.31644   7
   7  -2  -2 1841.01 43.8096   8
   7  -2  -2 1926.80 43.2372   7
   7  -2  -2 1802.42 44.7786   4
  -7   2   2 1792.50 42.6671   7
   6  -2  -2 394.397 15.9975   8
   6  -2  -2 436.054 16.1779   7
   6  -2  -2 410.188 17.3899   5
   6  -2  -2 427.844 17.1480   4
  -6   2   2 411.687 15.7902   7
   5  -2  -2 161.793 9.13010   8
   5  -2  -2 162.458 9.48242   4
   5  -2  -2 162.578 8.87591   7
  -5   2   2 173.433 9.09948   7
   4  -2  -2 1769.61 37.3097   7
   4  -2  -2 1784.29 38.0757   4
   4  -2  -2 1746.78 38.4885   8
  -4   2   2 1748.35 38.7398   8
  -4   2   2 1834.19 37.5086   7
  -4   2   2 1816.65 38.1279   4
   3  -2  -2 1523.13 32.1360   4
   3  -2  -2 1507.17 32.7423   8
  -3   2   2 1561.30 30.0590   2
  -3   2   2 1529.19 32.2088   4
  -3   2   2 1564.19 33.9956   8
   2  -2  -2 690.708 18.0466   8
   2  -2  -2 691.693 16.7260   4
  -2   2   2 672.954 16.7222   4
  -2   2   2 686.582 14.1795   3
  -2   2   2 668.892 18.5159   8
  -2   2   2 665.644 17.2237   7
  -2   2   2 697.557 17.3941   2
   1  -2  -2 1019.17 22.8977   7
   1  -2  -2 1019.37 23.0574   3
   1  -2  -2 1024.14 20.3054   4
   1  -2  -2 1039.28 23.1695   8
  -1   2   2 1005.43 20.5941   4
  -1   2   2 955.723 23.2664   8
  -1   2   2 1064.46 22.8346   3
   0  -2  -2 1408.41 31.7233   3
   0  -2  -2 1358.67 28.3708   8
   0  -2  -2 1401.32 24.1002   4
   0  -2  -2 1300.92 27.9641   7
   0   2   2 1376.52 28.2000   7
   0   2   2 1374.96 24.5740   4
   0   2   2 1384.17 29.0965   8
   0   2   2 1317.08 33.9266   3
  -1  -2  -2 4960.21 83.5916   8
   1   2   2 4889.15 90.1987   3
   1   2   2 5064.16 83.6809   7
  -2  -2  -2 1892.50 37.5499   8
  -2  -2  -2 1849.20 45.2567   3
  -2  -2  -2 1921.28 35.7860   5
   2   2   2 1897.20 44.6533   3
   2   2   2 1900.06 31.3460   4
   2   2   2 1860.04 37.9457   8
   2   2   2 1786.48 34.8616   5
  -3  -2  -2 33.1804 3.66038   5
  -3  -2  -2 40.4204 7.88822   3
   3   2   2 35.0452 3.87792   8
   3   2   2 32.8874 2.95159   5
   3   2   2 28.2282 2.38156   6
   3   2   2 37.2077 7.12209   3
  -4  -2  -2 9.77990 2.86803   5
  -4  -2  -2 6.89947 4.02999   3
   4   2   2 7.85951 2.38163   8
   4   2   2 10.5457 2.33264   6
   4   2   2 6.47523 1.93686   5
   4   2   2 6.13997 2.45566   3
  -5  -2  -2 151.354 9.83834   5
  -5  -2  -2 121.596 12.0845   3
   5   2   2 142.288 7.66288   6
   5   2   2 139.890 13.7923   3
   5   2   2 144.548 8.92452   8
   5   2   2 132.479 7.67755   5
  -6  -2  -2 66.6734 12.1281   3
   6   2   2 69.8549 5.90137   6
   6   2   2 64.8950 6.31559   8
   6   2   2 73.0370 5.92511   4
  -7  -2  -2 441.202 20.3113   5
  -7  -2  -2 432.520 26.0071   3
   7   2   2 415.143 25.2802   2
   7   2   2 421.346 16.6491   6
   7   2   2 420.722 17.6224   7
   7   2   2 422.078 16.3700   4
  -8  -2  -2 397.824 26.2035   3
  -8  -2  -2 379.537 20.1998   5
   8   2   2 395.570 17.9679   8
   8   2   2 392.319 21.6657   2
   8   2   2 370.817 19.1671   6
   8   2   2 387.628 17.0181   4
   8   2   2 395.644 17.9113   7
   9   2   2 180.363 11.6777   4
   9   2   2 170.338 11.9110   8
   9   2   2 165.792 11.3299   6
   9   2   2 158.600 11.4378   7
   9   2   2 163.450 14.2640   2
  10   2   2 143.611 13.0617   2
  10   2   2 136.195 11.0269   8
  10   2   2 132.963 10.5480   6
  10   2   2 121.794 10.0155   4
  10   2   2 118.861 10.5268   7
  11   2   2 7.55828 2.74714   4
  11   2   2 1.00994 2.75805   6
  11   2   2 2.60325 3.05887   7
  11   2   2 2.19944 4.47566   2
  11   2   2 -1.5369 2.71067   8
  12   2   2 223.627 14.3619   6
  12   2   2 230.091 15.5081   8
  12   2   2 181.430 16.3504   4
  14  -3  -2 12.4535 4.85821   7
  14  -3  -2 4.48473 4.55936   6
  14  -3  -2 -2.2173 4.05471   4
  13  -3  -2 1.56241 3.28725   7
  13  -3  -2 6.66149 5.19731   6
  13  -3  -2 1.53458 4.20341   4
  12  -3  -2 3.74445 3.86593   4
  12  -3  -2 15.7942 4.89655   7
  12  -3  -2 9.38999 4.95614   6
  11  -3  -2 19.8971 4.99284   7
  11  -3  -2 15.7596 4.93939   4
  11  -3  -2 25.4338 9.00344   6
  10  -3  -2 307.653 17.3010   7
  10  -3  -2 342.233 19.5030   4
   9  -3  -2 287.343 14.9789   8
   9  -3  -2 295.112 17.2584   4
   9  -3  -2 290.276 15.9580   7
   8  -3  -2 3.50554 3.01939   4
   8  -3  -2 4.61785 2.39044   7
   7  -3  -2 4.28698 2.54185   4
   7  -3  -2 7.79347 2.74859   7
   7  -3  -2 5.12319 2.65676   8
  -7   3   2 3.39983 1.96027   7
   6  -3  -2 22.3221 4.60025   4
   6  -3  -2 14.6385 3.37526   8
   6  -3  -2 25.7039 5.17008   7
   5  -3  -2 620.417 19.9312   7
   5  -3  -2 590.663 19.0119   8
  -5   3   2 643.392 20.5985   8
  -5   3   2 609.451 17.2115   2
  -5   3   2 589.658 19.4001   7
   4  -3  -2 361.573 13.7996   4
   4  -3  -2 370.859 14.1955   7
   4  -3  -2 357.813 13.5107   8
  -4   3   2 376.703 14.6716   8
  -4   3   2 377.788 14.1052   7
  -4   3   2 392.171 12.9403   2
  -4   3   2 359.975 13.6717   4
   3  -3  -2 9.52651 1.95041   3
   3  -3  -2 10.2462 2.91741   7
   3  -3  -2 9.98438 2.72709   4
   3  -3  -2 17.7993 3.49891   8
  -3   3   2 11.9934 2.86021   4
  -3   3   2 7.78565 2.31573   2
  -3   3   2 8.53641 2.48636   8
  -3   3   2 9.31533 2.33770   7
   2  -3  -2 742.170 18.8615   3
   2  -3  -2 736.489 20.0569   7
   2  -3  -2 711.281 17.7375   4
   2  -3  -2 726.104 19.5558   8
  -2   3   2 706.747 20.1830   8
  -2   3   2 726.265 20.4372   2
  -2   3   2 759.722 17.9625   3
  -2   3   2 738.898 18.1474   4
  -2   3   2 744.530 19.5643   7
   1  -3  -2 4.51222 1.89089   8
   1  -3  -2 3.29266 1.84627   3
   1  -3  -2 4.99387 1.49851   4
   1  -3  -2 3.65776 1.81448   7
  -1   3   2 2.89846 1.54174   7
  -1   3   2 4.12746 1.23964   4
  -1   3   2 2.95081 1.32998   8
  -1   3   2 4.48076 1.91765   3
   0  -3  -2 597.039 17.0622   7
   0  -3  -2 581.520 17.1349   8
   0  -3  -2 614.610 12.3440   4
   0   3   2 622.721 13.3226   4
   0   3   2 623.135 18.2494   8
  -1  -3  -2 573.389 21.8222   3
  -1  -3  -2 589.042 14.0806   5
  -1  -3  -2 603.227 17.5951   8
   1   3   2 573.013 20.8134   3
   1   3   2 598.050 18.2074   8
   1   3   2 581.915 16.8404   7
  -2  -3  -2 28.7850 3.08044   5
  -2  -3  -2 31.8655 7.03339   3
   2   3   2 27.8519 5.77187   3
   2   3   2 24.7890 4.49826   8
   2   3   2 25.0691 4.17057   7
  -3  -3  -2 1042.06 35.5738   3
  -3  -3  -2 1095.05 25.8166   5
   3   3   2 1040.50 25.8446   7
   3   3   2 1050.15 19.0355   4
   3   3   2 1025.18 27.6108   8
   3   3   2 1017.01 34.3468   3
   3   3   2 1083.92 22.6737   5
  -4  -3  -2 36.3594 4.49330   5
  -4  -3  -2 59.9617 11.0437   3
   4   3   2 45.0850 8.70915   3
   4   3   2 48.7265 5.42344   8
   4   3   2 46.1844 3.25590   6
   4   3   2 43.9512 3.90764   5
  -5  -3  -2 62.7188 6.54379   5
  -5  -3  -2 45.0292 8.70154   3
   5   3   2 75.7012 4.94837   6
   5   3   2 64.3700 4.77468   4
   5   3   2 65.8660 6.69250   8
   5   3   2 62.8776 5.07079   5
  -6  -3  -2 92.0051 12.0650   3
  -6  -3  -2 98.3441 8.72007   5
   6   3   2 92.2666 6.15205   6
   6   3   2 86.6576 6.11287   4
   6   3   2 98.8334 8.53185   8
  -7  -3  -2 44.7335 10.6389   3
  -7  -3  -2 45.4266 7.39140   5
   7   3   2 55.4563 6.17333   7
   7   3   2 47.4423 5.09358   4
   7   3   2 39.9213 6.65784   8
   7   3   2 50.9069 5.13789   6
  -8  -3  -2 392.703 27.3232   3
   8   3   2 420.691 19.8374   8
   8   3   2 393.623 15.6457   4
   8   3   2 377.138 22.6152   2
   8   3   2 390.227 17.5832   7
   8   3   2 398.142 16.0241   6
  -9  -3  -2 247.153 22.8644   3
   9   3   2 235.544 13.7873   7
   9   3   2 230.515 12.4076   4
   9   3   2 255.786 18.8285   2
   9   3   2 252.734 12.8879   6
   9   3   2 245.851 15.5008   8
  10   3   2 1.40896 2.21903   4
  10   3   2 2.20285 2.08269   6
  10   3   2 -1.7651 2.41726   8
  10   3   2 8.34664 4.16829   2
  10   3   2 8.92106 2.92843   7
  11   3   2 29.3307 6.77208   7
  11   3   2 34.6282 7.68337   2
  11   3   2 41.0062 7.56818   8
  11   3   2 29.8581 5.32182   6
  14  -4  -2 219.409 18.8731   4
  14  -4  -2 226.085 21.3097   6
  14  -4  -2 193.847 16.3795   7
  13  -4  -2 57.6999 12.5007   6
  13  -4  -2 52.1909 9.97550   7
  13  -4  -2 34.0419 7.72965   4
  12  -4  -2 186.167 14.9062   7
  12  -4  -2 190.650 15.9652   4
  12  -4  -2 187.098 18.0541   6
  11  -4  -2 772.895 30.7967   7
  11  -4  -2 749.243 36.9659   4
  10  -4  -2 183.071 13.7103   7
  10  -4  -2 187.532 14.4845   4
   9  -4  -2 414.929 17.9706   8
   9  -4  -2 420.234 20.2390   7
   9  -4  -2 455.245 21.9942   4
   8  -4  -2 89.4338 8.78411   7
   8  -4  -2 92.9383 9.29762   4
   7  -4  -2 34.0659 6.45894   4
   7  -4  -2 33.1463 4.41268   2
   7  -4  -2 34.4110 6.61632   7
   7  -4  -2 36.9137 5.81049   8
  -7   4   2 37.6896 4.55354   2
   6  -4  -2 1419.26 34.8908   8
   6  -4  -2 1421.62 37.3212   4
   6  -4  -2 1459.21 37.4129   7
  -6   4   2 1481.77 37.1164   8
  -6   4   2 1428.77 37.1197   7
  -6   4   2 1443.34 33.6947   2
   5  -4  -2 -0.1750 1.21826   8
   5  -4  -2 2.24271 1.75660   7
   5  -4  -2 -0.9881 0.67424   4
  -5   4   2 0.18638 1.39283   2
  -5   4   2 1.07428 1.55733   7
  -5   4   2 -0.6622 1.12072   8
   4  -4  -2 70.2543 5.89591   4
   4  -4  -2 59.2743 5.33001   8
  -4   4   2 65.1050 6.02670   8
  -4   4   2 46.1137 4.99518   7
  -4   4   2 58.0019 5.35054   2
   3  -4  -2 769.240 22.5128   7
   3  -4  -2 785.833 20.7220   3
   3  -4  -2 806.353 21.0529   4
   3  -4  -2 807.091 22.3368   8
  -3   4   2 801.336 23.2791   2
  -3   4   2 787.520 20.9424   4
  -3   4   2 811.341 22.7528   7
  -3   4   2 809.843 23.4093   8
   2  -4  -2 147.528 6.99441   4
   2  -4  -2 147.418 8.71583   3
   2  -4  -2 160.694 8.64710   8
   2  -4  -2 152.881 8.76775   7
  -2   4   2 126.695 8.28187   8
  -2   4   2 152.106 7.17265   4
  -2   4   2 150.623 9.26458   2
  -2   4   2 154.693 8.47694   7
   1  -4  -2 4.70940 1.34243   4
   1  -4  -2 4.53608 1.15805   6
   1  -4  -2 1.43007 1.38541   7
   1  -4  -2 4.09355 2.34821   3
   1  -4  -2 3.36708 1.58787   8
  -1   4   2 2.28182 1.12835   7
  -1   4   2 3.05369 1.95738   3
  -1   4   2 2.85970 2.23850   2
  -1   4   2 1.90478 1.58382   8
  -1   4   2 1.88630 1.00653   4
   0  -4  -2 11.0798 1.14047   6
   0  -4  -2 10.8880 1.25774   4
   0  -4  -2 11.6615 2.90483   7
   0  -4  -2 9.74840 2.68644   8
   0  -4  -2 15.3967 4.25011   3
   0   4   2 14.4460 3.52555   8
   0   4   2 14.7538 2.07617   4
   0   4   2 8.67251 2.89608   3
   0   4   2 18.8733 3.77907   7
  -1  -4  -2 295.684 12.9423   8
  -1  -4  -2 312.824 9.71292   5
  -1  -4  -2 304.369 16.9300   3
   1   4   2 300.438 13.5155   8
   1   4   2 285.095 11.6165   7
   1   4   2 311.288 15.7452   3
  -2  -4  -2 993.466 23.1548   5
  -2  -4  -2 951.459 34.3423   3
   2   4   2 1026.93 25.7160   7
   2   4   2 1028.12 33.5010   3
   2   4   2 1031.34 28.6625   8
  -3  -4  -2 10.0823 2.53318   5
  -3  -4  -2 18.7606 6.24101   3
   3   4   2 12.7024 3.06390   7
   3   4   2 15.2555 4.03798   8
  -4  -4  -2 172.303 15.4074   3
  -4  -4  -2 170.234 9.79886   5
   4   4   2 166.661 9.36383   7
   4   4   2 166.171 7.54837   5
   4   4   2 163.781 13.4721   8
  -5  -4  -2 0.02224 2.79108   3
  -5  -4  -2 3.13996 1.95817   5
   5   4   2 -0.3294 0.87708   5
   5   4   2 1.98122 1.65043   8
   5   4   2 0.29665 0.71319   6
   5   4   2 1.05166 1.91599   7
  -6  -4  -2 192.596 12.4423   5
  -6  -4  -2 185.436 17.9609   3
   6   4   2 188.264 7.96582   6
   6   4   2 201.356 13.2624   8
   6   4   2 189.643 10.9550   7
  -7  -4  -2 119.080 10.3503   5
  -7  -4  -2 138.679 16.4013   3
   7   4   2 120.534 9.14515   7
   7   4   2 131.675 7.19625   6
   7   4   2 128.199 11.0353   8
  -8  -4  -2 21.4287 7.60066   3
   8   4   2 39.6290 9.19435   2
   8   4   2 24.0352 5.73532   8
   8   4   2 35.0739 4.27674   6
   8   4   2 37.6259 6.48300   7
  -9  -4  -2 11.4348 6.99368   3
   9   4   2 9.47839 4.35209   7
   9   4   2 20.3075 5.29251   8
   9   4   2 14.3585 5.46704   2
   9   4   2 7.80322 2.58299   6
  10   4   2 160.125 16.0064   2
  10   4   2 144.368 13.3878   8
  11   4   2 7.99161 8.01957   2
  11   4   2 18.7370 6.64114   8
  14  -5  -2 2.58360 4.34282   6
  14  -5  -2 1.29754 4.14555   7
  13  -5  -2 54.0264 9.75469   7
  13  -5  -2 22.4079 6.79218   4
  13  -5  -2 29.1888 8.09767   6
  12  -5  -2 0.74232 3.17543   4
  12  -5  -2 5.38658 2.91895   7
  11  -5  -2 249.358 18.5741   4
  11  -5  -2 254.452 17.6245   7
  10  -5  -2 309.260 18.6132   7
  10  -5  -2 335.654 19.9651   4
   9  -5  -2 42.1575 7.88297   4
   9  -5  -2 30.9463 6.59363   7
   9  -5  -2 38.9494 6.39586   8
   8  -5  -2 177.522 10.7691   8
   8  -5  -2 168.276 12.4121   7
   8  -5  -2 175.016 12.9533   4
  -8   5   2 177.167 10.7572   2
   7  -5  -2 -0.4422 1.26369   4
   7  -5  -2 -0.3063 1.46305   7
  -7   5   2 -1.3433 1.56591   2
  -7   5   2 -1.1948 1.19345   8
   6  -5  -2 161.220 11.1289   7
   6  -5  -2 156.207 9.58948   8
  -6   5   2 159.392 10.0426   2
  -6   5   2 161.969 10.8780   8
   5  -5  -2 779.507 23.3280   8
   5  -5  -2 772.970 24.1218   4
   5  -5  -2 764.241 19.5092   3
   5  -5  -2 775.896 25.6526   7
  -5   5   2 775.671 24.9147   8
  -5   5   2 761.930 24.0689   2
  -5   5   2 736.091 24.5341   7
   4  -5  -2 76.9725 7.07488   7
   4  -5  -2 70.8343 5.73125   3
   4  -5  -2 69.8035 6.07927   4
   4  -5  -2 67.1320 6.01344   8
  -4   5   2 67.3067 6.64896   2
  -4   5   2 61.8750 6.16957   7
  -4   5   2 68.2476 6.70094   8
   3  -5  -2 971.339 24.2783   4
   3  -5  -2 958.045 26.7350   3
   3  -5  -2 958.382 26.1925   8
  -3   5   2 983.762 28.1271   8
  -3   5   2 948.912 28.4683   2
  -3   5   2 960.025 26.8210   7
   2  -5  -2 8.70369 2.25331   8
   2  -5  -2 10.9272 2.03190   6
   2  -5  -2 16.3943 4.00023   7
   2  -5  -2 12.8257 3.61488   3
   2  -5  -2 15.2569 2.92149   4
  -2   5   2 12.6655 3.24159   7
  -2   5   2 15.6042 4.05180   8
  -2   5   2 12.2508 4.10834   2
   1  -5  -2 33.8701 6.22821   3
   1  -5  -2 34.5499 2.43775   6
   1  -5  -2 34.9785 4.46684   7
   1  -5  -2 34.6390 2.72602   4
   1  -5  -2 33.2709 4.35927   8
  -1   5   2 34.9340 6.73512   2
  -1   5   2 36.7463 5.05894   3
  -1   5   2 24.0842 4.21881   8
  -1   5   2 33.7737 4.04098   7
   0  -5  -2 486.943 10.7433   6
   0  -5  -2 462.563 21.7375   3
   0  -5  -2 477.914 17.7196   8
   0  -5  -2 491.701 17.2538   7
   0  -5  -2 473.531 12.4930   5
   0   5   2 490.834 18.8782   8
   0   5   2 459.480 16.3922   7
   0   5   2 500.063 20.4373   3
   0   5   2 502.170 20.8920   2
  -1  -5  -2 140.182 12.3867   3
  -1  -5  -2 134.372 6.38890   5
   1   5   2 135.439 8.29534   7
   1   5   2 140.652 11.3200   3
   1   5   2 151.957 10.2899   8
  -2  -5  -2 121.488 15.1488   3
  -2  -5  -2 122.593 6.83356   5
   2   5   2 131.778 12.8693   8
   2   5   2 133.009 8.19526   7
  -3  -5  -2 506.546 27.2295   3
  -3  -5  -2 466.236 15.9860   5
   3   5   2 471.539 16.8064   7
   3   5   2 501.038 20.7654   8
  -4  -5  -2 70.6893 6.44431   5
  -4  -5  -2 40.8998 9.20226   3
   4   5   2 56.2688 7.03923   8
   4   5   2 61.3474 5.77081   7
  -5  -5  -2 431.089 28.0313   3
  -5  -5  -2 443.542 18.0680   5
   5   5   2 430.639 16.7571   7
   5   5   2 428.257 20.6791   8
  -6  -5  -2 51.0265 12.1245   3
  -6  -5  -2 79.1950 7.93463   5
   6   5   2 73.2388 6.53894   7
   6   5   2 83.6829 9.23095   8
  -7  -5  -2 82.8076 15.3168   3
   7   5   2 98.7734 5.39258   6
   7   5   2 100.965 10.7084   8
  -8  -5  -2 51.1584 13.3073   3
   8   5   2 42.8853 8.21630   8
   8   5   2 56.2471 6.36414   7
  -9  -5  -2 176.938 20.6582   3
   9   5   2 177.971 15.2648   8
   9   5   2 147.919 10.3003   7
   9   5   2 135.624 15.0280   2
  10   5   2 124.977 13.1945   8
  10   5   2 126.476 17.6726   2
  14  -6  -2 12.6720 6.88738   4
  14  -6  -2 0.39055 4.50118   7
  14  -6  -2 10.7474 5.66301   6
  13  -6  -2 181.276 16.6034   4
  13  -6  -2 170.308 15.7247   7
  12  -6  -2 8.74232 5.51415   4
  12  -6  -2 21.5129 7.25220   7
  11  -6  -2 9.62043 4.30098   7
  11  -6  -2 8.85857 4.23695   4
  10  -6  -2 213.448 15.9644   4
  10  -6  -2 230.310 16.6536   7
   9  -6  -2 191.928 13.4013   8
   9  -6  -2 192.577 14.5470   4
   9  -6  -2 229.530 15.9442   7
  -9   6   2 202.147 12.8881   2
   8  -6  -2 730.146 27.8929   4
   8  -6  -2 671.217 27.2232   7
   8  -6  -2 682.612 23.1275   8
  -8   6   2 653.537 24.3701   2
  -8   6   2 670.403 25.4632   8
   7  -6  -2 216.850 11.8579   8
   7  -6  -2 215.333 13.7481   4
  -7   6   2 207.346 12.8563   2
  -7   6   2 218.890 13.4941   8
   6  -6  -2 11.1462 3.64986   4
   6  -6  -2 5.88434 2.67065   8
   6  -6  -2 5.38106 2.38027   7
  -6   6   2 12.0019 3.64891   2
  -6   6   2 8.31318 3.29247   8
   5  -6  -2 268.956 14.7922   7
   5  -6  -2 288.342 13.7923   4
   5  -6  -2 259.250 11.9600   3
   5  -6  -2 250.930 12.6559   8
  -5   6   2 274.142 14.7019   8
  -5   6   2 237.629 13.9091   2
   4  -6  -2 163.499 9.42035   4
   4  -6  -2 134.700 10.0925   7
   4  -6  -2 156.670 9.70009   8
   4  -6  -2 160.552 10.1127   3
  -4   6   2 169.739 11.2913   8
  -4   6   2 150.458 10.8128   2
   3  -6  -2 432.792 18.0695   7
   3  -6  -2 431.481 14.6818   4
   3  -6  -2 397.851 17.8101   3
   3  -6  -2 417.477 13.3069   6
   3  -6  -2 419.321 16.8434   8
  -3   6   2 432.464 17.3095   7
  -3   6   2 428.185 19.3904   2
  -3   6   2 415.889 18.1022   8
   2  -6  -2 272.533 15.4627   3
   2  -6  -2 261.008 13.1560   8
   2  -6  -2 275.264 8.97232   6
   2  -6  -2 275.391 13.7164   7
   2  -6  -2 271.901 10.0214   4
  -2   6   2 291.552 13.6057   7
  -2   6   2 264.418 15.1811   2
  -2   6   2 271.123 14.4250   8
   1  -6  -2 106.225 8.27440   7
   1  -6  -2 121.701 5.15392   4
   1  -6  -2 115.475 10.6355   3
   1  -6  -2 118.971 8.79255   8
   1  -6  -2 118.877 6.05562   6
  -1   6   2 119.511 8.80656   7
  -1   6   2 111.253 9.34025   3
  -1   6   2 116.343 9.37731   8
  -1   6   2 140.614 11.2074   2
   0  -6  -2 139.327 6.31247   5
   0  -6  -2 141.589 5.51356   6
   0  -6  -2 145.953 9.48047   7
   0  -6  -2 137.737 12.5806   3
   0   6   2 118.922 11.9141   8
   0   6   2 144.450 10.5457   7
   0   6   2 135.734 11.1207   3
  -1  -6  -2 388.320 12.4468   5
  -1  -6  -2 424.422 23.7162   3
   1   6   2 398.313 18.7487   8
   1   6   2 401.923 16.7566   7
  -2  -6  -2 290.257 20.7728   3
  -2  -6  -2 287.936 11.3026   5
   2   6   2 270.845 15.7212   8
  -3  -6  -2 253.054 20.3339   3
  -3  -6  -2 245.738 11.3487   5
   3   6   2 251.956 15.5690   8
   3   6   2 240.418 12.2269   7
  -4  -6  -2 -0.7674 2.23308   3
  -4  -6  -2 0.70314 1.89726   5
   4   6   2 4.61884 2.06217   7
   4   6   2 -2.5397 1.45935   8
  -5  -6  -2 373.773 27.5524   3
   5   6   2 384.133 15.8810   7
   5   6   2 366.137 20.5263   8
  -6  -6  -2 36.0545 9.54325   3
   6   6   2 34.8456 7.80680   8
   6   6   2 38.3343 5.77458   7
  -7  -6  -2 29.5871 10.1425   3
   7   6   2 35.0481 10.7540   8
  -8  -6  -2 21.8074 8.86176   3
   8   6   2 33.9875 8.07939   8
  -9  -6  -2 77.0584 18.0452   3
   9   6   2 60.1867 11.9100   2
   9   6   2 72.1635 11.9356   8
  14  -7  -2 25.8140 7.76389   4
  14  -7  -2 47.0441 12.5143   7
  13  -7  -2 17.4579 6.30238   7
  13  -7  -2 13.4950 6.04259   4
  12  -7  -2 74.8434 11.7578   4
  12  -7  -2 59.0391 10.7966   7
  11  -7  -2 38.7472 8.97290   7
  11  -7  -2 47.4537 10.1760   4
  10  -7  -2 284.115 19.3156   7
  10  -7  -2 298.394 19.2028   4
   9  -7  -2 128.919 12.5892   7
   9  -7  -2 149.800 12.8869   4
   8  -7  -2 129.902 12.1458   7
   8  -7  -2 109.823 10.5423   4
  -8   7   2 121.188 12.8535   8
   7  -7  -2 440.482 21.8535   7
   7  -7  -2 445.196 20.5254   4
  -7   7   2 445.520 24.4402   8
   6  -7  -2 1.07099 1.65515   3
   6  -7  -2 -1.6241 1.17878   4
   6  -7  -2 3.38487 2.07799   7
  -6   7   2 2.18379 2.27581   8
   5  -7  -2 468.999 21.1642   7
   5  -7  -2 487.963 19.3638   3
   5  -7  -2 523.051 19.5651   4
  -5   7   2 507.049 22.2017   8
   4  -7  -2 328.598 16.8932   7
   4  -7  -2 305.109 16.0724   3
   4  -7  -2 305.688 13.4622   4
   4  -7  -2 291.421 11.9912   6
   3  -7  -2 14.3435 3.33482   4
   3  -7  -2 19.0050 5.00494   7
   3  -7  -2 19.4672 5.53073   3
   3  -7  -2 17.9343 3.02952   6
  -3   7   2 21.3825 5.81987   8
   2  -7  -2 1638.84 46.8720   3
   2  -7  -2 1440.92 42.2575   7
   2  -7  -2 1620.15 32.2725   4
   2  -7  -2 1607.22 30.7113   6
  -2   7   2 1577.94 43.0662   8
   1  -7  -2 814.297 26.4741   7
   1  -7  -2 731.851 37.4978   3
   1  -7  -2 804.279 17.5194   6
  -1   7   2 759.452 24.9489   7
  -1   7   2 825.683 28.7930   8
   0  -7  -2 23.0682 3.21357   6
   0  -7  -2 24.6192 3.41626   5
   0  -7  -2 18.0741 4.43496   7
   0  -7  -2 23.4070 7.20500   3
   0   7   2 19.8784 4.30127   7
   0   7   2 20.5943 5.53704   8
  -1  -7  -2 469.330 26.9430   3
  -1  -7  -2 470.251 14.3702   5
   1   7   2 442.260 21.2900   8
   1   7   2 453.231 17.7810   7
  -2  -7  -2 4.39808 3.50261   3
  -2  -7  -2 8.14740 2.63990   5
   2   7   2 4.20264 2.51294   7
   2   7   2 9.14379 3.49240   8
  -3  -7  -2 185.461 18.5779   3
   3   7   2 209.102 15.2917   8
   3   7   2 188.544 11.1331   7
  -4  -7  -2 378.363 27.7746   3
   4   7   2 394.098 22.0614   8
   4   7   2 353.957 15.7863   7
  -5  -7  -2 68.5560 19.4436   3
   5   7   2 71.0312 12.1450   8
  -6  -7  -2 38.4403 10.8482   3
   6   7   2 70.4941 12.2044   8
  -7  -7  -2 2.62755 5.21449   3
   7   7   2 -2.9913 2.01021   8
  -8  -7  -2 51.9161 13.1428   3
   8   7   2 81.2430 13.4290   8
  -9  -7  -2 26.5903 11.1257   3
   9   7   2 34.7586 11.9076   2
   9   7   2 25.4381 7.35808   8
  14  -8  -2 35.1696 9.39319   7
  14  -8  -2 58.5997 16.4815   4
  13  -8  -2 46.1641 11.6025   4
  13  -8  -2 36.4403 8.95219   7
  12  -8  -2 -0.2658 3.71793   4
  12  -8  -2 9.91406 5.27135   7
  11  -8  -2 3.23767 2.72868   7
  11  -8  -2 5.15318 3.93882   4
  10  -8  -2 -0.0906 2.58472   4
  10  -8  -2 5.23622 3.20701   7
   9  -8  -2 37.2926 9.18247   7
   9  -8  -2 42.8989 9.15470   4
   8  -8  -2 33.3213 6.73103   4
   8  -8  -2 39.5465 8.76587   7
  -8   8   2 62.1406 10.0997   8
   7  -8  -2 258.068 15.3569   4
   7  -8  -2 241.651 16.5384   7
   7  -8  -2 250.937 12.9955   3
  -7   8   2 259.603 16.1364   8
   6  -8  -2 179.335 11.8595   3
   6  -8  -2 195.568 14.3972   7
   6  -8  -2 196.280 12.4877   4
  -6   8   2 188.185 13.6275   8
   5  -8  -2 16.9494 5.42672   7
   5  -8  -2 16.1094 4.32008   4
   5  -8  -2 17.8983 4.96809   3
  -5   8   2 9.86620 4.49833   8
   4  -8  -2 7.26942 3.03623   7
   4  -8  -2 5.13219 2.28379   4
   4  -8  -2 5.54808 3.02386   3
  -4   8   2 4.84007 2.73681   8
   3  -8  -2 11.9390 3.96133   7
   3  -8  -2 13.0687 2.59644   6
   3  -8  -2 12.1053 2.84005   4
  -3   8   2 14.7074 5.12835   8
   2  -8  -2 350.457 11.0848   4
   2  -8  -2 354.429 21.3320   3
   2  -8  -2 334.430 10.7104   6
   2  -8  -2 372.305 18.1634   7
  -2   8   2 331.362 18.7038   8
   1  -8  -2 58.4084 6.93857   7
   1  -8  -2 57.2984 10.9659   3
   1  -8  -2 64.2768 4.54542   5
   1  -8  -2 57.4550 4.05183   6
  -1   8   2 63.6722 10.0498   8
   0  -8  -2 12.1264 2.53865   5
   0  -8  -2 4.52340 3.43265   3
   0  -8  -2 8.73637 2.12255   6
   0   8   2 8.45802 3.85506   8
  -1  -8  -2 2.29921 3.41461   3
   1   8   2 4.99589 2.94709   8
  -2  -8  -2 769.815 39.1850   3
   2   8   2 730.269 30.8637   8
  -3  -8  -2 26.6235 10.1078   3
   3   8   2 21.3136 5.83905   8
  -5  -8  -2 1.40928 3.25663   3
  -5  -8  -2 0.34364 2.25677   5
   5   8   2 4.29808 3.22520   8
  -6  -8  -2 591.431 40.5158   3
   6   8   2 629.531 32.1355   8
  -7  -8  -2 40.2627 13.0483   3
   7   8   2 71.6781 13.1246   8
  -8  -8  -2 6.34984 6.34940   3
   8   8   2 2.06351 5.38502   8
  13  -9  -2 -5.0325 3.86538   4
  13  -9  -2 -5.7479 3.45740   7
  12  -9  -2 7.39088 4.58172   4
  12  -9  -2 10.7996 6.10391   7
  11  -9  -2 250.588 18.5975   4
  11  -9  -2 236.733 19.3273   7
  10  -9  -2 124.792 12.6817   4
  10  -9  -2 128.757 13.9257   7
   9  -9  -2 9.98314 4.69550   4
   9  -9  -2 19.6712 6.52098   7
  -9   9   2 3.51257 2.21668   8
   8  -9  -2 263.785 18.4613   7
   8  -9  -2 274.742 17.0864   4
  -8   9   2 276.199 17.8176   8
   7  -9  -2 16.1924 4.12577   4
   7  -9  -2 19.4175 5.95773   7
   7  -9  -2 10.9483 4.66461   3
  -7   9   2 17.8212 5.26780   8
   6  -9  -2 282.535 16.8201   3
   6  -9  -2 253.040 17.3990   7
   6  -9  -2 272.343 15.1080   4
  -6   9   2 266.706 17.3171   8
   5  -9  -2 25.6313 5.48355   4
   5  -9  -2 21.3459 5.76916   7
  -5   9   2 28.4262 7.40892   8
   4  -9  -2 215.243 16.1965   3
   4  -9  -2 218.579 11.2339   4
   4  -9  -2 222.462 15.1262   7
  -4   9   2 235.435 16.3298   8
   3  -9  -2 739.518 28.7276   7
   3  -9  -2 727.983 32.5510   3
  -3   9   2 738.352 30.5792   8
   2  -9  -2 161.872 15.4293   3
   2  -9  -2 144.372 7.06498   6
   2  -9  -2 154.317 12.1823   7
  -2   9   2 160.238 13.7009   8
   1  -9  -2 14.4462 4.68768   7
   1  -9  -2 12.3580 5.52135   3
  -1   9   2 12.6633 4.58159   8
   0  -9  -2 71.9050 14.4202   3
   0   9   2 53.7757 9.01665   8
  -1  -9  -2 28.1623 9.13116   3
   1   9   2 26.3783 8.07586   8
  -2  -9  -2 366.770 27.7228   3
   2   9   2 385.310 23.6939   8
  -3  -9  -2 16.0330 6.46202   3
  -3  -9  -2 2.20902 1.94125   5
   3   9   2 6.02377 4.17448   8
  -4  -9  -2 29.1032 9.96265   3
   4   9   2 28.7105 7.84221   8
  -5  -9  -2 6.85073 7.89922   3
   5   9   2 0.95236 2.75142   8
  -6  -9  -2 31.5969 13.5643   3
   6   9   2 25.8538 7.80321   8
  -7  -9  -2 5.24958 6.40752   3
   7   9   2 -1.1916 4.73900   8
  13 -10  -2 2.21658 7.78658   4
  13 -10  -2 8.25531 5.63335   7
  12 -10  -2 59.7293 12.4475   7
  12 -10  -2 56.5860 10.4795   4
  11 -10  -2 16.6635 5.49713   7
  11 -10  -2 2.97479 3.24275   4
  10 -10  -2 23.6305 6.87439   7
  10 -10  -2 24.3330 6.55702   4
   9 -10  -2 74.9322 13.2142   7
   9 -10  -2 68.4987 15.4585   4
   8 -10  -2 25.4095 6.47086   4
   8 -10  -2 21.7677 6.55272   7
  -8  10   2 16.9890 5.93558   8
   7 -10  -2 0.26140 2.48450   4
   7 -10  -2 1.40472 2.45233   7
  -7  10   2 3.17041 3.13633   8
   6 -10  -2 27.2394 7.04609   3
   6 -10  -2 30.4042 6.09863   4
   6 -10  -2 34.2121 8.07596   7
  -6  10   2 31.3750 7.78579   8
   5 -10  -2 83.2760 10.4789   3
   5 -10  -2 83.6309 9.93124   7
  -5  10   2 74.2143 9.73796   8
   4 -10  -2 281.843 18.1769   7
   4 -10  -2 254.985 19.4883   3
  -4  10   2 252.042 18.1138   8
   3 -10  -2 46.2152 8.70298   7
   3 -10  -2 44.6626 10.3632   3
  -3  10   2 32.1888 7.42975   8
   2 -10  -2 222.763 19.7993   3
   2 -10  -2 213.435 15.1930   7
  -2  10   2 256.209 18.3845   8
   1 -10  -2 5.11901 2.15889   6
   1 -10  -2 6.76253 4.65396   3
  -1  10   2 3.47069 3.01832   8
   0 -10  -2 109.045 14.9192   3
   0  10   2 145.032 18.1465   8
  -1 -10  -2 -1.6573 3.84260   3
   1  10   2 0.36414 1.76576   8
  -2 -10  -2 -3.7144 4.41397   3
   2  10   2 -0.8862 2.03673   8
  -3 -10  -2 127.982 23.2318   3
   3  10   2 86.9432 13.5829   8
  -4 -10  -2 4.10313 6.22292   3
   4  10   2 2.99105 3.98768   8
  -5 -10  -2 80.7490 17.0358   3
   5  10   2 90.4889 23.0427   8
   6  10   2 -11.244 3.99864   8
  12 -11  -2 10.1060 5.38117   4
  12 -11  -2 17.5857 6.59859   7
  11 -11  -2 33.3701 8.83553   7
  11 -11  -2 38.5918 9.60104   4
  10 -11  -2 162.427 16.8852   7
  10 -11  -2 159.212 15.1929   4
   9 -11  -2 78.1650 13.1342   7
   9 -11  -2 92.9337 10.4871   4
   8 -11  -2 -0.6733 2.23584   7
   8 -11  -2 7.68527 3.71654   4
   8 -11  -2 -6.3200 3.13846   3
  -8  11   2 4.77139 3.14680   8
   7 -11  -2 114.154 12.8173   7
   7 -11  -2 124.959 12.7560   3
   7 -11  -2 118.086 10.6739   4
  -7  11   2 123.814 13.0012   8
   6 -11  -2 48.4597 10.7532   3
   6 -11  -2 47.5927 9.64125   7
  -6  11   2 54.1515 10.5710   8
   5 -11  -2 38.9607 8.20680   7
   5 -11  -2 33.2999 9.06392   3
  -5  11   2 36.3189 8.43494   8
   4 -11  -2 3.29119 3.98006   3
   4 -11  -2 -0.9731 1.36491   4
   4 -11  -2 4.17555 3.15984   7
  -4  11   2 2.68143 2.87321   8
   3 -11  -2 129.994 15.7124   3
   3 -11  -2 134.041 12.4956   7
  -3  11   2 158.826 27.3404   8
   2 -11  -2 180.749 14.1974   7
   2 -11  -2 163.383 18.0705   3
  -2  11   2 152.819 15.3433   8
   1 -11  -2 178.139 20.1385   3
  -1  11   2 193.029 17.3342   8
   0 -11  -2 13.2164 7.00028   3
   0  11   2 13.3432 5.01663   8
  -1 -11  -2 69.3228 16.3139   3
   1  11   2 72.9505 13.7827   8
  -2 -11  -2 37.1281 11.8474   3
   2  11   2 43.3118 10.4245   8
  -3 -11  -2 72.9758 16.0234   3
   3  11   2 62.5824 12.8739   8
  -4 -11  -2 65.4323 16.1523   3
   4  11   2 62.6828 12.9363   8
  11 -12  -2 8.78271 5.97752   7
  11 -12  -2 22.4462 7.95072   4
 -11  12   2 10.3836 6.25391   8
  10 -12  -2 0.92656 5.14236   7
  10 -12  -2 7.14327 5.83788   4
 -10  12   2 7.76201 4.89608   8
   9 -12  -2 -5.6690 3.67486   7
   9 -12  -2 -0.3457 3.10993   4
  -9  12   2 -0.1334 3.44924   8
   7 -12  -2 195.120 16.6361   3
   7 -12  -2 224.647 18.2758   7
  -7  12   2 218.111 18.2135   8
   6 -12  -2 103.050 12.9986   3
   6 -12  -2 108.423 12.6040   7
  -6  12   2 108.889 12.5963   8
   5 -12  -2 18.0992 6.26352   7
   5 -12  -2 11.3177 7.14533   3
  -5  12   2 16.7167 6.05443   8
   4 -12  -2 134.833 13.6497   7
   4 -12  -2 142.580 16.5937   3
  -4  12   2 163.893 16.0898   8
   3 -12  -2 33.9710 10.3695   3
   3 -12  -2 32.6594 7.41038   7
  -3  12   2 41.7601 10.0328   8
   2 -12  -2 42.8936 10.8605   3
  -2  12   2 66.5072 12.1621   8
   1 -12  -2 165.011 20.6220   3
  -1  12   2 151.271 16.1078   8
   0 -12  -2 25.4070 10.2635   3
   0  12   2 13.5390 6.30624   8
  -1 -12  -2 99.2081 18.7554   3
   1  12   2 58.3074 12.6657   8
  -2 -12  -2 -5.8460 5.80626   3
   2  12   2 0.80749 4.01718   8
  -3 -12  -2 -8.8467 9.07787   3
  10 -13  -2 -3.9056 4.18430   4
  10 -13  -2 -2.5305 3.66172   7
 -10  13   2 5.98264 5.76077   8
   9 -13  -2 7.58079 3.62203   4
   9 -13  -2 12.4790 6.51194   7
  -9  13   2 0.25942 4.40242   8
   7 -13  -2 40.2133 8.74698   3
   7 -13  -2 30.0530 9.37578   7
  -7  13   2 51.4728 11.5401   8
   6 -13  -2 31.3538 8.73556   7
   6 -13  -2 41.4001 10.5664   3
  -6  13   2 38.5768 9.40661   8
   5 -13  -2 2.35636 4.28135   3
   5 -13  -2 3.05335 4.70312   7
  -5  13   2 -0.6955 3.41775   8
   4 -13  -2 4.59579 4.93232   7
   4 -13  -2 4.02350 3.95605   3
   3 -13  -2 103.734 18.0410   3
   3 -13  -2 103.611 11.8923   7
  -3  13   2 137.068 15.5378   8
   2 -13  -2 82.3428 17.5855   3
  -2  13   2 74.3525 12.6687   8
   1 -13  -2 30.8781 11.1807   3
   0 -13  -2 81.9603 18.7997   3
   0  13   2 59.0467 12.9166   8
  -1 -13  -2 50.0699 14.2420   3
   8 -14  -2 5.53830 5.85567   7
   8 -14  -2 0.28773 4.69026   4
  -8  14   2 5.18731 5.81122   8
   7 -14  -2 45.4459 9.69531   3
   7 -14  -2 58.5029 12.4652   7
  -7  14   2 40.3619 11.0336   8
   6 -14  -2 16.5453 7.68663   3
  -6  14   2 20.6238 9.57324   8
   5 -14  -2 4.50124 5.88380   3
   4 -14  -2 27.5923 8.67849   7
   4 -14  -2 28.5877 10.1532   3
  -4  14   2 29.2329 9.12113   8
   3 -14  -2 39.0314 17.5805   3
  -3  14   2 30.1274 9.47061   8
   2 -14  -2 13.4803 8.62859   3
  -2  14   2 -5.9821 3.28761   8
  -3  15  -3 78.7703 13.5576   8
   3 -15   3 58.4672 18.0337   3
  -4  15  -3 -3.8864 5.10774   8
   4 -15   3 0.67816 4.81399   7
   4 -15   3 2.32560 5.99952   3
  -5  15  -3 6.31319 4.64415   8
   5 -15   3 38.4898 13.7465   3
   5 -15   3 -7.9259 4.48975   7
  -6  15  -3 3.95850 4.17472   8
   6 -15   3 16.8139 11.1680   3
   6 -15   3 8.57566 4.59440   7
   7 -15   3 57.8585 17.0953   7
   0  14  -3 107.093 14.0122   8
   0 -14   3 158.772 20.9733   3
  -1  14  -3 2.58084 4.03330   8
   1 -14   3 0.93593 4.63316   3
  -2  14  -3 13.1294 6.49691   8
   2 -14   3 13.3757 5.19005   7
   2 -14   3 20.0873 10.0894   3
  -3  14  -3 -0.7777 4.31520   8
   3 -14   3 -9.4685 4.84918   3
   3 -14   3 5.60994 3.77953   7
  -4  14  -3 36.7742 7.85851   8
   4 -14   3 54.2448 13.4426   3
   5 -14   3 37.3836 10.5992   3
  -7  14  -3 4.86823 4.74927   8
   7 -14   3 -4.5350 2.95557   4
   7 -14   3 5.17898 4.09276   7
   7 -14   3 4.87004 5.62175   3
   8 -14   3 77.0143 13.4402   7
   8 -14   3 77.7961 14.7636   3
   9 -14   3 72.9322 12.3798   7
   9 -14   3 69.1989 14.4069   3
  10 -14   3 -3.9189 5.63586   3
  10 -14   3 1.80437 4.60894   7
  10 -14   3 -9.2636 9.27844   4
   2  13  -3 45.9618 10.4934   8
  -2 -13   3 12.7166 11.1479   3
   1  13  -3 1.34636 3.87229   8
  -1 -13   3 0.62349 5.16748   3
   0  13  -3 46.8194 10.3577   8
   0 -13   3 43.9822 11.4154   3
  -1  13  -3 73.9509 12.5542   8
   1 -13   3 74.5006 15.3749   3
  -2  13  -3 118.353 12.7458   8
   2 -13   3 118.835 21.4846   3
  -3  13  -3 7.22311 4.45494   8
   3 -13   3 2.62448 6.17358   3
   3 -13   3 -2.0312 2.21572   7
  -4  13  -3 58.0923 10.0072   8
   4 -13   3 54.4950 13.6673   3
  -5  13  -3 15.7137 4.39890   8
   5 -13   3 3.73053 6.93562   3
   5 -13   3 4.61630 2.73904   4
   6 -13   3 60.4185 13.4288   3
   6 -13   3 42.6800 8.41523   7
   7 -13   3 92.6666 11.6797   7
   7 -13   3 87.0097 15.1663   3
  -8  13  -3 4.13901 4.19066   8
   8 -13   3 0.18199 4.33584   3
   8 -13   3 1.19375 2.61481   4
   8 -13   3 8.75932 5.80661   2
   8 -13   3 6.88411 4.05596   7
   9 -13   3 -1.2142 4.81602   3
   9 -13   3 -0.1749 3.39563   4
   9 -13   3 6.14952 4.89576   2
   9 -13   3 2.78272 3.75991   7
  10 -13   3 25.2440 10.7756   7
  10 -13   3 39.8452 11.5999   2
  10 -13   3 27.0425 7.60239   4
  10 -13   3 22.2165 8.51318   3
  11 -13   3 18.3018 7.16155   7
  11 -13   3 16.4077 7.13887   3
  11 -13   3 15.3161 7.05665   2
  11 -13   3 30.1001 8.09255   4
   4  12  -3 -1.4528 3.77431   8
   4  12  -3 19.4803 4.50558   6
  -4 -12   3 -4.8674 5.80642   3
   3  12  -3 21.2839 7.41576   8
   3  12  -3 31.2404 6.07915   6
  -3 -12   3 15.2687 8.60006   3
   2  12  -3 203.756 18.3223   8
   2  12  -3 185.334 18.9852   6
  -2 -12   3 209.447 23.1957   3
   1  12  -3 36.5413 9.17404   8
   1  12  -3 39.2174 6.91800   6
  -1 -12   3 25.3787 8.39134   3
   0  12  -3 129.201 13.5169   8
   0 -12   3 105.843 20.5581   3
  -1  12  -3 -1.6279 2.57900   8
   1 -12   3 -0.7671 2.01902   7
   1 -12   3 2.80983 4.20662   3
  -2  12  -3 14.4166 5.92881   8
   2 -12   3 12.2126 5.70697   3
  -3  12  -3 36.3323 7.97741   8
   3 -12   3 35.9333 10.2175   3
  -4  12  -3 62.2795 9.74004   8
   4 -12   3 49.8704 11.5369   3
   4 -12   3 84.1589 9.73191   7
  -5  12  -3 306.016 18.2212   8
   5 -12   3 299.508 23.2482   3
   5 -12   3 299.029 18.8713   7
   6 -12   3 145.181 16.6663   2
   7 -12   3 35.0675 7.18849   4
   7 -12   3 23.8879 7.82128   3
   7 -12   3 28.5357 8.00196   7
   7 -12   3 17.5396 6.31206   2
  -8  12  -3 8.07016 2.56388   8
   8 -12   3 -1.5636 5.01522   2
   8 -12   3 9.26861 5.40075   7
   8 -12   3 1.77271 3.12066   3
   8 -12   3 3.39317 4.35605   4
   9 -12   3 9.53921 5.77264   2
   9 -12   3 25.7973 7.13099   7
   9 -12   3 6.47655 4.08283   4
   9 -12   3 9.35078 5.56007   3
  10 -12   3 122.678 16.5938   3
  10 -12   3 154.622 14.8269   4
  10 -12   3 115.656 14.0278   7
  10 -12   3 170.675 18.5650   2
  11 -12   3 -2.9445 5.14714   7
  11 -12   3 2.08156 4.86058   3
  11 -12   3 5.54126 4.89072   4
  11 -12   3 0.95259 5.25397   2
  12 -12   3 0.72951 6.52026   2
  12 -12   3 4.09917 5.21983   4
  12 -12   3 9.72813 6.03307   7
   5  11  -3 13.3139 4.27512   6
   5  11  -3 9.69829 4.48404   8
  -5 -11   3 0.75129 5.07013   3
   4  11  -3 15.9200 6.77577   8
  -4 -11   3 31.7539 11.2450   3
   3  11  -3 37.2555 8.80575   8
   3  11  -3 33.8497 5.77501   6
  -3 -11   3 42.7242 13.1319   3
   2  11  -3 212.679 17.9503   8
   2  11  -3 194.772 11.8170   6
  -2 -11   3 179.314 20.3802   3
   1  11  -3 -1.0424 1.50340   6
   1  11  -3 -1.0756 2.09123   8
  -1 -11   3 4.07666 5.50924   3
   0  11  -3 27.2510 5.61332   6
   0  11  -3 22.9564 6.19932   8
   0 -11   3 14.6716 6.22631   3
  -1  11  -3 120.512 9.80519   6
  -1  11  -3 113.433 11.4465   8
   1 -11   3 120.326 15.3430   3
  -2  11  -3 85.1768 9.71257   8
   2 -11   3 68.1607 13.3166   3
  -3  11  -3 77.5926 8.98485   8
   3 -11   3 77.5805 8.51887   7
   3 -11   3 76.6258 14.2448   3
  -4  11  -3 -0.4120 1.71009   8
   4 -11   3 2.37938 3.43871   3
   4 -11   3 6.03852 2.93322   7
   4 -11   3 -0.4079 1.58941   4
  -5  11  -3 67.0462 7.81923   8
   5 -11   3 65.5363 12.7438   3
   5 -11   3 54.0874 12.5488   2
   5 -11   3 45.0260 7.33104   4
   5 -11   3 44.2208 7.81313   7
   6 -11   3 162.725 12.3161   4
   6 -11   3 170.589 14.0685   7
   6 -11   3 160.448 15.7589   3
   6 -11   3 169.059 17.0068   2
  -7  11  -3 -2.9840 1.48236   8
   7 -11   3 9.11584 5.04395   2
   7 -11   3 -0.1414 3.65472   3
   7 -11   3 -3.2207 2.14786   7
   7 -11   3 4.50474 3.32502   4
  -8  11  -3 -1.3428 1.71351   8
   8 -11   3 3.63815 4.86137   2
   8 -11   3 -0.9120 2.01586   4
   8 -11   3 1.58734 2.77113   7
   9 -11   3 4.70695 3.08897   4
   9 -11   3 1.68837 2.76381   7
   9 -11   3 6.15061 3.90705   2
  10 -11   3 4.84078 3.34655   7
  10 -11   3 5.19239 3.65586   4
  10 -11   3 -1.9463 3.14562   2
  11 -11   3 148.823 16.0900   7
  11 -11   3 182.343 17.0410   4
  11 -11   3 161.737 17.5048   2
  12 -11   3 41.0227 9.90897   7
  12 -11   3 38.4258 9.38062   2
  12 -11   3 59.4612 20.1584   4
  13 -11   3 15.5120 8.12672   4
  13 -11   3 14.9428 8.08875   2
   7  10  -3 11.7040 4.60290   6
   7  10  -3 16.1203 10.2635   8
  -7 -10   3 20.9132 9.11905   3
   6  10  -3 14.4433 3.53720   6
  -6 -10   3 34.5124 10.3884   3
   5  10  -3 59.0862 11.4386   8
   5  10  -3 75.0335 6.76858   6
  -5 -10   3 88.8255 19.0794   3
   4  10  -3 58.7431 6.03173   6
   4  10  -3 68.0636 11.7652   8
  -4 -10   3 57.7387 13.6344   3
   3  10  -3 5.38676 2.34500   6
   3  10  -3 4.29963 2.59270   8
  -3 -10   3 7.57376 4.69910   3
   2  10  -3 347.373 14.9963   6
  -2 -10   3 324.737 32.2124   3
   1  10  -3 612.618 21.1662   6
   1  10  -3 646.446 28.8574   8
  -1 -10   3 602.101 35.1377   3
   0  10  -3 213.289 12.0398   6
   0  10  -3 204.597 15.1918   8
   0 -10   3 205.586 19.4469   3
  -1  10  -3 63.1718 8.24291   8
  -1  10  -3 62.7982 6.17924   7
  -1  10  -3 67.1346 6.94285   6
   1 -10   3 71.9672 13.6770   3
  -2  10  -3 10.6287 3.83409   8
  -2  10  -3 9.92556 3.05496   6
   2 -10   3 6.64496 3.14986   7
   2 -10   3 7.39215 4.01356   3
  -3  10  -3 657.729 25.6308   8
   3 -10   3 658.852 32.7691   2
   3 -10   3 662.605 32.4300   3
   3 -10   3 644.652 17.5155   4
   3 -10   3 658.927 24.5763   7
  -4  10  -3 197.493 12.8518   8
   4 -10   3 206.112 13.8005   7
   4 -10   3 198.947 17.4128   2
   4 -10   3 236.262 18.2408   3
  -5  10  -3 2.40196 2.60131   8
   5 -10   3 1.85948 2.18988   7
   5 -10   3 2.79112 3.12500   2
   5 -10   3 3.92481 2.60943   5
   6 -10   3 55.0500 9.50948   2
   6 -10   3 80.3238 9.21712   7
   7 -10   3 81.5017 14.0724   2
   7 -10   3 86.2819 9.90466   7
   7 -10   3 96.4585 9.83732   4
   8 -10   3 118.793 11.4253   4
   8 -10   3 122.262 12.5120   7
   8 -10   3 115.463 13.7295   2
   9 -10   3 64.2923 13.3840   4
   9 -10   3 69.8769 12.8245   2
   9 -10   3 59.5366 10.2512   7
  10 -10   3 382.510 30.1809   2
  10 -10   3 412.978 24.2895   4
  10 -10   3 414.258 25.1972   7
  11 -10   3 173.845 17.1681   2
  11 -10   3 172.264 16.3063   4
  11 -10   3 162.062 16.1804   7
  12 -10   3 12.6542 5.54081   4
  12 -10   3 0.23107 4.81034   7
  12 -10   3 16.7474 7.05475   2
  13 -10   3 16.9150 7.44966   2
  13 -10   3 14.8508 6.40295   7
  13 -10   3 23.6439 9.52108   4
   8   9  -3 70.1234 13.7024   8
   8   9  -3 59.4253 6.30442   6
  -8  -9   3 55.1388 15.5089   3
   7   9  -3 3.03333 2.14805   6
   7   9  -3 -5.2483 2.29011   8
  -7  -9   3 -4.3619 5.32525   3
   6   9  -3 136.090 8.87835   6
   6   9  -3 155.724 15.9633   8
  -6  -9   3 176.242 20.6504   3
   5   9  -3 19.1557 5.72375   8
   5   9  -3 32.7266 5.15300   6
  -5  -9   3 22.7618 7.19841   3
   4   9  -3 1.26246 1.70214   6
   4   9  -3 3.04780 2.75252   8
  -4  -9   3 3.13826 4.15622   3
   3   9  -3 -2.2002 0.98218   6
   3   9  -3 -0.7058 2.02735   8
  -3  -9   3 1.15488 3.89614   3
   2   9  -3 147.843 8.90587   6
   2   9  -3 142.332 12.8384   8
  -2  -9   3 131.650 15.4024   3
   1   9  -3 591.577 19.1599   6
   1   9  -3 531.005 24.7596   8
  -1  -9   3 587.643 32.0921   3
   0   9  -3 88.9681 9.41564   8
   0   9  -3 98.3505 6.87560   7
   0   9  -3 96.2928 7.37900   6
   0  -9   3 112.220 13.4044   3
  -1   9  -3 242.582 14.6956   8
  -1   9  -3 230.394 12.0471   6
  -1   9  -3 248.093 12.2102   7
   1  -9   3 244.004 18.8847   3
   1  -9   3 242.949 11.9948   7
  -2   9  -3 224.855 13.5916   8
  -2   9  -3 245.256 12.7907   6
  -2   9  -3 204.058 11.7070   7
   2  -9   3 222.563 12.2129   7
   2  -9   3 216.211 8.14555   4
   2  -9   3 238.384 18.1613   3
   2  -9   3 204.488 16.5248   2
  -3   9  -3 1.36000 1.76419   8
   3  -9   3 0.28315 1.40508   7
   3  -9   3 -2.0938 2.07869   2
   3  -9   3 0.90067 2.61931   3
  -4   9  -3 349.559 15.9236   8
   4  -9   3 342.674 17.2922   7
   4  -9   3 339.356 12.1611   5
   4  -9   3 357.129 22.0041   2
  -5   9  -3 23.4795 4.95965   8
   5  -9   3 13.8467 4.80446   2
   5  -9   3 21.0125 5.61981   7
   5  -9   3 25.0064 4.76254   5
   6  -9   3 229.615 17.8026   2
   6  -9   3 282.984 17.0734   7
   7  -9   3 93.6503 11.5303   2
   7  -9   3 75.9722 9.07121   7
   8  -9   3 0.03989 2.03164   7
   8  -9   3 1.99946 2.19969   2
   9  -9   3 52.7259 10.2847   7
   9  -9   3 55.5304 10.5025   4
   9  -9   3 54.3632 10.0883   2
  10  -9   3 5.56015 3.53773   7
  10  -9   3 8.71915 5.33262   2
  10  -9   3 10.0134 4.58218   4
  11  -9   3 28.1830 7.25718   7
  11  -9   3 33.6483 8.58138   4
  11  -9   3 56.1524 11.6657   2
  12  -9   3 210.124 18.8076   7
  12  -9   3 216.558 18.2423   2
  12  -9   3 236.875 19.7075   4
  13  -9   3 3.46626 3.95918   4
  13  -9   3 1.00889 3.74966   2
   9   8  -3 9.09783 3.43190   6
   9   8  -3 6.40954 5.77080   8
  -9  -8   3 10.4803 7.64089   3
   8   8  -3 17.7068 5.62469   8
   8   8  -3 20.1492 4.09944   6
  -8  -8   3 16.6407 7.79562   3
   7   8  -3 -0.7482 2.41773   8
   7   8  -3 1.28218 1.73061   6
  -7  -8   3 2.53249 5.33808   3
   6   8  -3 4.16308 1.85734   6
   6   8  -3 4.12702 3.47188   8
  -6  -8   3 1.88334 3.80298   3
   5   8  -3 138.246 14.8833   8
   5   8  -3 172.932 9.57241   6
  -5  -8   3 164.228 18.1038   3
   4   8  -3 26.1305 7.73691   8
   4   8  -3 10.8771 3.01585   6
  -4  -8   3 18.8154 7.26498   3
   3   8  -3 28.1518 6.39790   8
   3   8  -3 26.2143 4.28652   6
  -3  -8   3 24.6002 7.57642   3
   2   8  -3 187.022 13.9092   8
   2   8  -3 182.314 9.29935   6
  -2  -8   3 204.084 18.0078   3
   1   8  -3 127.568 10.8880   8
   1   8  -3 130.981 7.78235   6
  -1  -8   3 128.016 13.6857   3
   0   8  -3 288.209 12.1088   6
   0   8  -3 305.761 16.2574   8
   0   8  -3 286.678 11.4737   7
   0  -8   3 293.871 20.0614   3
   0  -8   3 289.706 11.4467   7
  -1   8  -3 412.318 18.1823   8
  -1   8  -3 393.404 14.9538   6
  -1   8  -3 379.830 14.7258   7
   1  -8   3 392.129 22.4144   3
   1  -8   3 410.722 15.2681   7
   1  -8   3 397.655 10.9605   4
   1  -8   3 376.164 21.2374   2
  -2   8  -3 26.8138 5.40528   8
  -2   8  -3 16.6171 3.42116   6
   2  -8   3 17.1735 5.23668   3
   2  -8   3 21.8366 3.15404   4
   2  -8   3 25.1163 7.49358   2
   2  -8   3 27.0664 5.24858   7
  -3   8  -3 415.720 16.6929   8
  -3   8  -3 380.180 16.9215   7
   3  -8   3 461.420 23.3950   2
   3  -8   3 435.731 17.7944   7
   3  -8   3 428.848 12.0835   5
  -4   8  -3 0.79111 1.45603   8
   4  -8   3 2.00258 2.12097   7
   4  -8   3 5.39869 2.95974   2
   4  -8   3 2.75899 1.85796   5
  -5   8  -3 47.6762 4.95995   8
   5  -8   3 57.3413 8.96690   7
   5  -8   3 34.4367 6.81774   2
  -6   8  -3 13.8110 3.04554   8
   6  -8   3 8.96605 3.50139   7
   6  -8   3 4.93301 3.39391   2
   7  -8   3 470.221 23.0556   7
   7  -8   3 484.413 25.1210   2
   8  -8   3 375.421 22.2197   2
   8  -8   3 380.825 21.4088   7
   9  -8   3 62.4189 10.3469   7
   9  -8   3 74.1065 12.2863   4
   9  -8   3 58.4557 10.1589   2
  10  -8   3 6.38761 3.36181   2
  10  -8   3 1.69790 4.59605   7
  11  -8   3 1.96890 3.80082   2
  11  -8   3 10.7734 5.74013   7
  11  -8   3 11.6572 5.30772   4
  12  -8   3 248.119 19.8617   4
  12  -8   3 225.687 18.1286   2
  12  -8   3 206.881 18.0955   7
  13  -8   3 -0.4240 4.43039   2
  13  -8   3 -3.5568 3.04554   4
  13  -8   3 -7.5171 2.96200   7
  14  -8   3 12.1726 5.94510   7
  14  -8   3 12.7142 7.15312   4
  14  -8   3 -0.9464 5.10501   2
   9   7  -3 72.3468 7.20673   6
   9   7  -3 78.4927 13.5706   8
  -9  -7   3 82.8079 17.7346   3
   8   7  -3 21.0126 5.15252   6
   8   7  -3 32.4795 8.88012   8
  -8  -7   3 22.9348 8.70467   3
   7   7  -3 154.517 14.9288   8
   7   7  -3 147.431 9.57441   6
  -7  -7   3 154.439 18.1521   3
   6   7  -3 25.8369 8.58276   8
   6   7  -3 31.5409 5.19196   6
  -6  -7   3 41.6966 10.7651   3
   5   7  -3 781.941 32.0651   8
   5   7  -3 765.360 22.4179   6
  -5  -7   3 754.667 38.1870   3
   4   7  -3 164.525 8.93888   6
  -4  -7   3 177.085 17.2017   3
   3   7  -3 2.70508 1.61735   6
  -3  -7   3 6.12614 4.37624   3
   2   7  -3 1.86158 1.41565   6
  -2  -7   3 5.34727 3.97457   3
   1   7  -3 127.705 10.1966   8
   1   7  -3 122.469 6.96804   6
  -1  -7   3 129.224 12.7566   3
  -1  -7   3 119.237 9.80610   6
   0   7  -3 333.482 24.0611   8
   0   7  -3 313.411 11.8501   6
   0   7  -3 326.837 14.4235   7
   0  -7   3 344.451 19.1699   2
   0  -7   3 325.732 9.26468   4
   0  -7   3 313.847 11.2621   7
   0  -7   3 320.404 13.0104   6
   0  -7   3 322.159 19.2342   3
  -1   7  -3 178.157 8.92247   6
  -1   7  -3 183.295 10.8177   8
  -1   7  -3 172.831 9.01556   7
   1  -7   3 184.088 6.75023   4
   1  -7   3 162.998 8.32051   6
   1  -7   3 175.655 8.94427   7
   1  -7   3 197.087 13.9100   2
  -2   7  -3 169.340 9.27828   6
  -2   7  -3 178.570 9.79509   7
  -2   7  -3 169.959 9.83455   8
   2  -7   3 186.513 9.98355   7
   2  -7   3 160.456 12.7614   2
   2  -7   3 176.165 8.19061   6
  -3   7  -3 49.6122 5.26006   6
  -3   7  -3 52.7187 5.18042   8
  -3   7  -3 54.3655 6.60707   7
   3  -7   3 62.0680 6.22274   7
   3  -7   3 57.2419 6.28493   6
  -4   7  -3 4.17644 1.78788   8
  -4   7  -3 -0.3736 1.08414   7
   4  -7   3 1.94018 2.18589   2
   4  -7   3 0.07141 1.40122   7
   4  -7   3 1.84367 1.48670   5
  -5   7  -3 21.6585 3.55317   8
   5  -7   3 14.6524 3.79912   5
   5  -7   3 24.5937 6.62413   2
   5  -7   3 22.9657 5.49281   7
   6  -7   3 31.0043 6.71938   2
   6  -7   3 38.8392 7.60315   7
   7  -7   3 373.272 19.5896   7
   7  -7   3 318.194 19.1643   2
   8  -7   3 0.36338 1.99639   2
   8  -7   3 3.05695 2.29357   7
   9  -7   3 140.026 12.9626   7
   9  -7   3 136.545 12.9555   2
  10  -7   3 62.3527 10.9035   4
  10  -7   3 39.7749 8.79050   7
  10  -7   3 33.1789 7.34962   2
  11  -7   3 335.792 22.0737   7
  11  -7   3 325.899 20.7483   2
  11  -7   3 307.355 21.1424   4
  12  -7   3 11.2408 4.59233   2
  12  -7   3 3.66425 2.73485   4
  12  -7   3 9.19267 4.37378   7
  13  -7   3 60.5548 10.7448   7
  13  -7   3 80.8848 13.4055   4
  14  -7   3 10.2494 4.54749   7
  14  -7   3 -0.7336 5.38218   4
  10   6  -3 18.8938 4.52378   6
  10   6  -3 5.15998 3.87267   8
 -10  -6   3 4.19052 6.33824   3
   9   6  -3 195.584 12.1747   6
   9   6  -3 179.474 16.4728   8
  -9  -6   3 192.361 20.5571   3
   8   6  -3 203.542 12.2474   6
   8   6  -3 181.001 16.2593   8
  -8  -6   3 175.680 19.7457   3
   7   6  -3 19.8862 4.89058   6
  -7  -6   3 20.9619 7.85664   3
   6   6  -3 33.2160 5.20782   6
  -6  -6   3 30.9395 8.55606   3
   5   6  -3 10.5293 2.84195   6
   5   6  -3 7.54221 3.46979   2
  -5  -6   3 4.92253 4.16364   3
   4   6  -3 786.229 21.7465   6
   4   6  -3 728.084 26.3270   2
  -4  -6   3 774.063 34.3897   3
   3   6  -3 602.364 19.8320   6
   3   6  -3 615.143 23.2822   2
  -3  -6   3 599.768 28.5736   3
   2   6  -3 316.883 11.2704   6
   2   6  -3 278.974 15.0884   2
  -2  -6   3 306.318 14.0342   6
  -2  -6   3 298.452 18.7889   3
   1   6  -3 2450.54 45.5095   6
   1   6  -3 2418.40 59.3950   2
  -1  -6   3 2388.42 49.5452   6
  -1  -6   3 2457.21 57.0033   2
  -1  -6   3 2396.55 60.0228   3
   0   6  -3 439.271 13.4541   6
   0  -6   3 446.696 13.0449   7
   0  -6   3 450.332 11.3089   4
   0  -6   3 432.429 19.4888   2
  -1   6  -3 1413.82 42.8236   2
  -1   6  -3 1476.12 31.8507   7
  -1   6  -3 1471.39 30.9699   6
   1  -6   3 1476.92 31.6379   7
   1  -6   3 1367.26 31.9496   6
   1  -6   3 1416.17 39.2934   2
   1  -6   3 1476.60 27.6622   4
  -2   6  -3 622.361 19.2079   7
  -2   6  -3 650.341 18.9780   8
  -2   6  -3 642.422 23.8937   2
  -2   6  -3 666.687 18.7237   6
   2  -6   3 635.196 19.3558   7
   2  -6   3 621.062 23.8128   2
   2  -6   3 632.104 14.1303   5
  -3   6  -3 287.837 13.2349   7
  -3   6  -3 308.066 16.1095   2
  -3   6  -3 306.922 11.3674   8
  -3   6  -3 293.196 12.4367   6
   3  -6   3 292.454 10.5527   6
   3  -6   3 307.197 16.3007   2
   3  -6   3 338.523 14.1773   7
  -4   6  -3 408.158 19.2562   2
  -4   6  -3 420.967 12.8249   8
   4  -6   3 398.373 19.1080   2
   4  -6   3 425.606 17.0831   7
   4  -6   3 399.068 13.3234   6
   4  -6   3 410.926 13.9741   5
  -5   6  -3 664.165 26.0241   2
   5  -6   3 630.319 22.9464   7
   5  -6   3 625.986 20.0718   5
   5  -6   3 652.725 25.7502   2
   6  -6   3 38.7991 11.6793   2
   6  -6   3 50.6783 8.39649   7
   6  -6   3 36.0724 6.07388   5
   7  -6   3 75.5764 8.45157   7
   7  -6   3 94.5471 9.84976   2
   8  -6   3 15.4943 4.69619   2
   8  -6   3 17.3088 5.07096   7
   9  -6   3 154.056 13.2265   2
   9  -6   3 146.183 12.9154   7
  10  -6   3 2.56136 3.60062   2
  10  -6   3 3.02260 2.36241   7
  10  -6   3 3.80482 2.37820   4
  11  -6   3 117.867 12.6214   7
  11  -6   3 119.376 12.7326   4
  11  -6   3 104.622 11.4333   2
  12  -6   3 30.8711 7.38516   4
  12  -6   3 30.2046 7.74806   7
  12  -6   3 22.9577 6.28596   2
  13  -6   3 7.12505 4.05689   7
  13  -6   3 4.23898 4.34575   2
  13  -6   3 -4.3001 2.42975   4
  14  -6   3 6.79815 6.42267   7
  14  -6   3 22.1236 7.82443   4
  11   5  -3 3.56693 3.20205   6
 -11  -5   3 12.2998 7.20618   3
  10   5  -3 4.00867 3.00092   6
  10   5  -3 0.32003 3.12085   8
 -10  -5   3 10.8861 4.52178   3
   9   5  -3 39.2745 6.71671   4
   8   5  -3 1.80656 1.71782   4
   8   5  -3 -0.5427 1.87231   6
  -8  -5   3 3.11454 3.81818   3
   7   5  -3 18.1044 4.18528   6
   7   5  -3 23.9213 4.06309   5
   7   5  -3 22.1819 3.27489   4
  -7  -5   3 10.2546 5.23533   3
   6   5  -3 569.273 15.1529   4
   6   5  -3 573.801 20.5456   6
   6   5  -3 556.266 16.3585   5
  -6  -5   3 590.343 30.5804   3
   5   5  -3 215.171 7.85623   4
   5   5  -3 247.208 11.9551   6
   5   5  -3 225.434 12.3990   2
   5   5  -3 230.669 8.58253   5
  -5  -5   3 212.135 17.1020   3
   4   5  -3 38.0730 2.89387   4
   4   5  -3 34.3388 5.72569   2
   4   5  -3 35.9286 6.07314   6
  -4  -5   3 38.2035 3.56653   4
  -4  -5   3 36.0961 8.05824   3
   3   5  -3 118.190 6.98872   6
   3   5  -3 109.695 4.61428   4
   3   5  -3 125.093 8.90551   2
  -3  -5   3 111.132 10.8566   3
  -3  -5   3 109.659 8.54032   6
  -3  -5   3 118.393 5.87372   4
   2   5  -3 267.350 10.0947   6
   2   5  -3 270.818 13.2533   2
   2   5  -3 268.645 7.54708   4
  -2  -5   3 288.405 16.7018   3
  -2  -5   3 266.044 12.5590   6
  -2  -5   3 251.796 10.6410   4
   1   5  -3 1228.79 25.8626   6
   1   5  -3 1251.43 32.5357   2
  -1  -5   3 1151.73 28.4902   6
  -1  -5   3 1238.29 33.2724   2
  -1  -5   3 1220.91 36.1026   3
  -1  -5   3 1240.65 24.5372   4
   0   5  -3 5.45120 2.28952   2
   0   5  -3 5.94368 1.70694   6
   0  -5   3 8.74882 1.88975   7
   0  -5   3 9.22875 2.44843   6
   0  -5   3 9.27366 1.66689   4
   0  -5   3 7.12201 2.93736   2
  -1   5  -3 449.282 12.9525   6
  -1   5  -3 429.036 17.3290   2
   1  -5   3 412.413 12.3125   6
   1  -5   3 421.715 13.3172   7
  -2   5  -3 137.004 9.55636   2
   2  -5   3 133.939 6.19521   6
   2  -5   3 148.687 8.14393   7
   2  -5   3 132.293 5.39793   5
   2  -5   3 134.622 9.63670   2
  -3   5  -3 85.6843 6.06617   6
  -3   5  -3 88.0611 5.93107   5
  -3   5  -3 94.4039 8.07082   2
  -3   5  -3 88.0790 4.94651   8
   3  -5   3 91.4406 5.26700   6
   3  -5   3 89.6960 6.19717   5
   3  -5   3 83.5724 6.70208   7
   3  -5   3 95.2312 8.35519   2
  -4   5  -3 484.010 16.8138   5
  -4   5  -3 486.725 11.9641   8
  -4   5  -3 459.471 19.7465   2
   4  -5   3 477.222 15.2539   5
   4  -5   3 478.449 19.9084   2
   4  -5   3 452.559 17.6481   7
  -5   5  -3 902.895 29.8973   2
   5  -5   3 877.182 27.3497   7
   5  -5   3 846.475 22.3729   6
   5  -5   3 878.140 29.1172   2
   5  -5   3 834.320 23.7758   5
  -6   5  -3 53.9222 7.16009   2
   6  -5   3 68.5113 7.97047   2
   6  -5   3 64.4187 7.36595   7
   6  -5   3 75.3125 6.89305   5
   7  -5   3 1100.32 40.9146   2
   7  -5   3 1189.62 35.9813   7
   8  -5   3 319.230 18.0676   2
   8  -5   3 298.468 17.5869   7
   9  -5   3 4.94198 3.25414   2
   9  -5   3 1.64924 2.06179   7
  10  -5   3 128.529 12.1768   7
  10  -5   3 119.855 11.9541   2
  10  -5   3 120.168 11.9795   4
  11  -5   3 34.4512 8.06750   2
  11  -5   3 24.6670 6.89924   7
  11  -5   3 20.3341 6.60104   4
  12  -5   3 168.914 14.0562   2
  12  -5   3 165.597 15.5670   4
  12  -5   3 182.141 16.2700   7
  13  -5   3 20.9283 6.00032   4
  13  -5   3 29.5300 8.30002   7
  13  -5   3 28.2106 7.13119   2
  14  -5   3 1.82034 5.57320   4
  11   4  -3 69.7843 8.24636   6
  11   4  -3 38.4232 8.58923   8
  11   4  -3 50.1982 6.06283   4
  10   4  -3 187.555 10.7882   4
  10   4  -3 215.465 14.5732   6
   9   4  -3 67.0020 8.05112   6
   9   4  -3 62.6498 6.21917   4
  -9  -4   3 94.0521 15.7128   3
   8   4  -3 76.0253 8.64793   4
   8   4  -3 89.7355 9.01409   6
  -8  -4   3 84.6952 11.3842   3
   7   4  -3 633.960 20.9077   5
   7   4  -3 664.300 19.3532   4
   7   4  -3 638.819 23.7914   6
  -7  -4   3 647.930 31.4271   3
   6   4  -3 971.472 23.3416   4
   6   4  -3 932.863 28.3063   6
   6   4  -3 918.778 24.6134   5
  -6  -4   3 924.421 36.6174   3
   5   4  -3 332.531 12.0056   5
   5   4  -3 335.063 11.1840   4
   5   4  -3 337.056 14.6515   6
  -5  -4   3 312.603 29.5562   3
   4   4  -3 680.702 16.9771   5
   4   4  -3 680.553 16.2706   4
   4   4  -3 664.098 20.3232   2
   4   4  -3 655.079 20.1666   6
  -4  -4   3 588.947 22.3129   6
  -4  -4   3 691.743 27.5121   3
  -4  -4   3 671.973 18.1138   4
   3   4  -3 1222.66 30.2124   2
   3   4  -3 1229.82 28.6685   6
   3   4  -3 1275.05 24.4106   5
   3   4  -3 1258.94 24.3540   4
  -3  -4   3 1193.50 32.0447   6
  -3  -4   3 1245.89 36.8325   3
  -3  -4   3 1260.41 26.5851   4
   2   4  -3 897.687 18.1315   4
   2   4  -3 907.578 21.5515   6
   2   4  -3 853.712 23.9172   2
  -2  -4   3 926.156 25.4510   2
  -2  -4   3 886.679 24.2762   6
  -2  -4   3 919.465 19.9315   4
  -2  -4   3 911.041 28.7502   3
   1   4  -3 1040.47 27.0016   2
   1   4  -3 1053.53 22.7500   6
   1   4  -3 1080.47 20.5403   4
  -1  -4   3 1070.43 21.5876   4
  -1  -4   3 1060.51 25.2368   6
  -1  -4   3 1078.20 27.8659   2
   0   4  -3 29.1172 2.75463   6
   0   4  -3 30.0286 3.98959   2
   0  -4   3 36.8266 3.37412   6
   0  -4   3 33.6112 2.58034   4
   0  -4   3 31.7762 4.22382   2
   0  -4   3 29.9182 2.72906   7
  -1   4  -3 424.202 10.7121   5
  -1   4  -3 413.710 11.6907   6
  -1   4  -3 430.208 16.0579   2
   1  -4   3 423.266 10.8705   4
   1  -4   3 429.219 9.18171   5
   1  -4   3 421.591 12.7834   7
   1  -4   3 432.553 16.2787   2
   1  -4   3 418.419 11.5217   6
  -2   4  -3 2888.46 50.8143   5
  -2   4  -3 2914.94 58.4484   2
   2  -4   3 2790.43 58.0508   2
   2  -4   3 2890.78 49.5820   6
   2  -4   3 2823.32 53.7538   7
  -3   4  -3 4.74520 1.94103   5
  -3   4  -3 3.32972 1.69153   6
  -3   4  -3 1.13371 1.36529   2
  -3   4  -3 1.77058 0.92959   8
   3  -4   3 4.48507 1.57602   5
   3  -4   3 0.77125 1.68152   2
   3  -4   3 0.36318 1.18912   7
   3  -4   3 1.80571 1.08996   6
  -4   4  -3 81.1945 7.79069   2
  -4   4  -3 71.8878 6.05656   5
   4  -4   3 83.1239 6.93987   7
   4  -4   3 83.2323 5.90279   5
   4  -4   3 88.6939 5.40976   6
   4  -4   3 87.0148 7.78092   2
  -5   4  -3 54.3042 6.63968   2
  -5   4  -3 42.2138 5.18251   5
   5  -4   3 39.4744 4.80666   6
   5  -4   3 45.6011 4.91637   5
   5  -4   3 47.1985 5.64329   7
   5  -4   3 55.6294 6.53879   2
  -6   4  -3 526.594 22.4535   2
  -6   4  -3 517.121 20.5524   5
   6  -4   3 481.073 16.4843   6
   6  -4   3 483.148 20.0451   7
   6  -4   3 527.785 21.7990   2
   6  -4   3 500.049 18.5024   5
  -7   4  -3 1019.36 32.8712   5
  -7   4  -3 973.268 33.6630   2
   7  -4   3 977.484 34.5564   3
   7  -4   3 1011.78 33.0706   2
   7  -4   3 1023.46 32.1246   7
   8  -4   3 265.184 16.5055   2
   8  -4   3 271.351 16.2913   7
   9  -4   3 8.36807 3.89773   7
   9  -4   3 13.4546 4.22087   2
  10  -4   3 135.145 12.1760   2
  10  -4   3 120.287 11.8798   7
  10  -4   3 141.885 12.8221   4
  11  -4   3 26.0671 6.94134   7
  11  -4   3 44.7059 8.44118   2
  11  -4   3 30.1993 10.5702   4
  12  -4   3 429.514 22.9763   2
  12  -4   3 419.543 24.7242   4
  12  -4   3 429.142 24.7570   7
  13  -4   3 8.52321 4.52269   2
  13  -4   3 11.7532 5.56258   4
  13  -4   3 12.5745 5.37481   7
  14  -4   3 2.89100 5.65536   7
  14  -4   3 4.68467 4.56117   4
  12   3  -3 20.8684 6.12300   8
  12   3  -3 17.3044 4.57849   4
  12   3  -3 20.2927 5.74551   6
  11   3  -3 81.0774 8.14677   4
  11   3  -3 93.6764 10.5620   6
  10   3  -3 6.76612 3.53839   6
  10   3  -3 3.11643 2.54525   4
 -10  -3   3 1.07975 2.58709   3
   9   3  -3 2.50140 2.56265   4
   9   3  -3 5.49276 3.08490   6
  -9  -3   3 5.51709 3.35799   3
   8   3  -3 4.91487 2.51706   4
   8   3  -3 7.83786 3.20032   6
  -8  -3   3 -2.0084 2.82687   3
   7   3  -3 305.441 13.0735   4
   7   3  -3 285.456 15.7421   5
   7   3  -3 287.912 15.6410   6
  -7  -3   3 291.475 19.1075   3
   6   3  -3 604.531 19.7797   5
   6   3  -3 648.315 18.8721   4
   6   3  -3 590.258 22.1033   6
  -6  -3   3 617.434 27.0243   3
   5   3  -3 396.474 14.2670   5
   5   3  -3 380.520 16.0531   6
   5   3  -3 380.927 12.9830   4
  -5  -3   3 397.789 19.8235   3
  -5  -3   3 374.243 13.9199   4
   4   3  -3 15.3965 3.86965   6
   4   3  -3 16.9197 2.76239   4
  -4  -3   3 8.96684 3.35659   3
  -4  -3   3 10.1617 3.53575   6
  -4  -3   3 11.7996 2.70102   4
   3   3  -3 34.3107 3.87597   6
   3   3  -3 31.6675 3.17220   5
   3   3  -3 29.8770 3.56564   2
   3   3  -3 33.8858 2.95179   4
  -3  -3   3 22.1033 3.80794   6
  -3  -3   3 25.9247 4.31674   4
  -3  -3   3 34.2348 6.42215   3
   2   3  -3 89.1994 5.60209   6
   2   3  -3 92.1908 5.84560   2
   2   3  -3 92.3942 4.41242   4
  -2  -3   3 104.814 7.88368   3
  -2  -3   3 79.5557 6.06341   6
  -2  -3   3 101.242 6.24886   2
  -2  -3   3 95.1997 5.01327   4
   1   3  -3 -0.2014 0.71362   6
   1   3  -3 1.79983 1.15556   2
   1   3  -3 -0.6151 0.46759   4
  -1  -3   3 1.02207 0.78867   4
  -1  -3   3 0.31159 0.79512   2
  -1  -3   3 -0.4545 0.79353   6
   0   3  -3 3264.95 61.6608   2
   0   3  -3 3411.59 56.4064   6
   0   3  -3 3419.34 53.5534   5
   0  -3   3 3375.55 57.9136   6
   0  -3   3 3394.91 56.6314   7
   0  -3   3 3369.79 55.7245   4
   0  -3   3 3375.00 62.0450   2
  -1   3  -3 12.6094 2.13876   6
  -1   3  -3 10.2644 1.70997   5
  -1   3  -3 8.84810 2.49451   2
   1  -3   3 13.1489 3.41890   2
   1  -3   3 10.9492 2.21586   7
   1  -3   3 11.0025 1.50722   5
   1  -3   3 8.69941 1.50334   4
  -2   3  -3 51.9043 3.70986   6
  -2   3  -3 51.9501 3.81849   5
   2  -3   3 48.0982 3.16318   6
   2  -3   3 50.8605 5.17742   2
   2  -3   3 45.6195 4.19352   7
   2  -3   3 43.6690 3.20875   5
  -3   3  -3 1187.77 31.3926   2
  -3   3  -3 1149.88 26.8323   5
   3  -3   3 1150.16 23.8593   6
   3  -3   3 1198.08 28.6569   7
   3  -3   3 1220.38 25.6867   5
   3  -3   3 1167.78 30.6793   2
  -4   3  -3 68.3920 6.82155   2
  -4   3  -3 61.6478 5.54405   5
   4  -3   3 58.9989 6.16284   2
   4  -3   3 58.5080 4.28125   6
   4  -3   3 57.2874 5.65959   7
   4  -3   3 63.2898 5.09950   5
  -5   3  -3 14.6422 3.92274   2
  -5   3  -3 9.24097 2.95967   5
   5  -3   3 17.4425 4.61173   2
   5  -3   3 12.0263 3.03154   7
   5  -3   3 17.4611 4.01420   5
   5  -3   3 8.96162 2.11589   6
  -6   3  -3 497.595 24.1546   2
  -6   3  -3 561.600 21.3559   5
   6  -3   3 544.236 21.7240   2
   6  -3   3 530.479 18.9322   5
   6  -3   3 527.100 20.6288   7
   6  -3   3 547.607 23.8198   3
   6  -3   3 502.657 16.6378   6
  -7   3  -3 85.5802 8.73065   5
   7  -3   3 69.8120 8.84444   3
   7  -3   3 86.0950 8.65529   2
   7  -3   3 94.5495 8.89742   7
  -8   3  -3 1014.56 34.9577   5
   8  -3   3 1000.39 33.0895   7
   9  -3   3 34.4579 7.08156   7
   9  -3   3 38.3803 7.63555   2
  10  -3   3 15.9754 5.45406   7
  10  -3   3 6.88746 3.95250   4
  10  -3   3 13.4144 5.30166   2
  11  -3   3 159.026 13.5931   2
  11  -3   3 183.574 15.1620   4
  11  -3   3 168.209 14.3102   7
  12  -3   3 123.025 12.5761   7
  12  -3   3 104.893 11.2165   2
  12  -3   3 108.436 12.3354   4
  13  -3   3 139.127 14.7386   6
  13  -3   3 135.670 13.4628   7
  13  -3   3 139.139 13.1504   2
  13  -3   3 120.317 13.5194   4
  14  -3   3 19.7065 10.6415   6
  14  -3   3 12.9707 6.08797   4
  14  -3   3 23.2775 8.12415   7
  12   2  -3 9.46829 4.85816   6
  12   2  -3 8.35369 2.96041   4
  11   2  -3 111.105 9.78294   4
  11   2  -3 126.109 12.8229   6
  10   2  -3 21.5817 5.07111   4
  10   2  -3 29.2161 6.91023   6
   9   2  -3 415.025 21.5173   6
   9   2  -3 376.521 17.5250   4
   8   2  -3 91.3448 9.54832   6
   8   2  -3 83.9468 7.53302   4
  -8  -2   3 86.0941 14.4558   3
   7   2  -3 278.998 15.7359   6
   7   2  -3 261.075 12.7744   4
  -7  -2   3 286.882 17.3100   3
   6   2  -3 131.255 8.21095   4
   6   2  -3 137.614 10.2656   6
  -6  -2   3 127.048 10.9075   3
   5   2  -3 322.642 14.8470   6
   5   2  -3 308.843 12.0703   4
   5   2  -3 314.649 13.0501   5
  -5  -2   3 292.809 12.4630   4
  -5  -2   3 304.168 15.5583   3
   4   2  -3 180.372 8.69144   5
   4   2  -3 175.699 8.06016   4
   4   2  -3 167.558 9.64004   6
  -4  -2   3 169.458 10.4514   3
  -4  -2   3 167.096 8.39955   4
   3   2  -3 55.8955 4.96207   6
   3   2  -3 53.5241 3.96166   4
  -3  -2   3 57.5020 5.56363   3
  -3  -2   3 53.6690 5.30958   6
  -3  -2   3 55.5854 5.03403   4
   2   2  -3 804.737 17.7974   4
   2   2  -3 803.257 18.4057   2
   2   2  -3 834.010 20.3857   6
  -2  -2   3 827.902 18.8352   4
  -2  -2   3 801.927 21.4438   6
  -2  -2   3 859.253 18.8254   2
   1   2  -3 431.250 12.7264   2
   1   2  -3 424.343 10.6198   4
  -1  -2   3 431.027 12.8259   6
  -1  -2   3 440.703 12.6892   2
  -1  -2   3 439.456 12.6653   4
   0   2  -3 118.371 6.60740   2
   0   2  -3 132.752 4.94611   4
   0   2  -3 125.736 4.91516   6
   0   2  -3 131.741 4.20005   5
   0  -2   3 124.829 5.37028   6
   0  -2   3 118.644 6.59475   2
  -1   2  -3 223.540 7.93397   8
  -1   2  -3 222.006 10.0293   2
  -1   2  -3 217.462 6.86792   5
  -1   2  -3 204.573 6.42740   6
   1  -2   3 228.940 6.41339   5
   1  -2   3 224.308 6.87138   4
   1  -2   3 214.248 6.49204   6
  -2   2  -3 112.500 7.53309   2
  -2   2  -3 119.442 4.52837   8
  -2   2  -3 118.579 5.80950   5
  -2   2  -3 113.029 5.11207   6
   2  -2   3 116.149 5.22233   5
   2  -2   3 115.407 4.58695   6
  -3   2  -3 0.79586 1.33135   2
  -3   2  -3 1.03550 1.24851   5
   3  -2   3 -1.2416 0.72153   2
   3  -2   3 1.72962 0.91973   6
   3  -2   3 5.25697 1.62919   5
  -4   2  -3 39.8407 4.57343   5
  -4   2  -3 46.6739 5.63162   2
   4  -2   3 45.3802 3.62009   6
   4  -2   3 39.3614 5.11095   2
   4  -2   3 43.4717 4.19091   5
  -5   2  -3 188.571 10.8006   5
   5  -2   3 177.158 8.12803   6
   5  -2   3 142.549 12.7593   5
   5  -2   3 178.227 11.4405   2
   5  -2   3 171.113 12.0927   3
   5  -2   3 186.082 10.6617   7
  -6   2  -3 194.060 12.2091   5
   6  -2   3 191.172 13.9453   3
   6  -2   3 210.265 13.0567   2
   6  -2   3 195.670 11.1217   5
   6  -2   3 197.042 11.8602   7
   7  -2   3 231.047 14.3756   2
   7  -2   3 229.443 13.7303   7
   7  -2   3 212.772 15.7020   3
  -8   2  -3 193.566 14.1746   5
   8  -2   3 211.978 13.8785   7
   9  -2   3 12.0364 4.37062   2
   9  -2   3 23.2053 6.12098   7
  10  -2   3 194.532 14.5672   4
  10  -2   3 172.532 13.9592   7
  10  -2   3 167.343 13.6454   2
  11  -2   3 31.1125 7.66377   7
  11  -2   3 32.2773 7.38815   4
  11  -2   3 29.2957 7.19704   2
  12  -2   3 47.0469 8.92494   7
  12  -2   3 46.4577 9.46245   6
  12  -2   3 53.8672 10.6402   4
  12  -2   3 49.9904 9.82991   2
  13  -2   3 38.2017 8.49364   7
  13  -2   3 57.1872 9.68225   4
  13  -2   3 50.0161 10.2335   6
  13   1  -3 19.4513 9.18491   6
  13   1  -3 32.7841 7.27186   4
  12   1  -3 2.34501 3.75385   6
  12   1  -3 3.05407 3.62139   4
  11   1  -3 248.775 18.6892   6
  11   1  -3 229.741 15.1182   4
  10   1  -3 218.473 16.7719   6
  10   1  -3 214.594 10.9241   7
  10   1  -3 228.858 14.5778   4
   9   1  -3 100.341 7.00822   7
   9   1  -3 105.140 10.9964   6
   9   1  -3 85.7168 8.56206   4
   8   1  -3 97.3906 8.52001   4
   8   1  -3 90.6419 6.41452   7
   8   1  -3 83.3504 9.15382   6
  -8  -1   3 108.861 10.1943   3
   7   1  -3 55.8977 4.69725   7
   7   1  -3 41.9024 6.83085   4
   7   1  -3 58.6752 9.44018   6
  -7  -1   3 56.4584 6.85509   3
   6   1  -3 1701.45 63.0609   6
   6   1  -3 2088.25 44.4803   4
   6   1  -3 2063.30 38.9990   7
   6   1  -3 1954.74 45.2800   5
  -6  -1   3 2092.15 47.5968   3
   5   1  -3 1033.60 26.3088   4
   5   1  -3 980.488 26.8829   5
   5   1  -3 1044.35 22.3372   7
   5   1  -3 1014.96 29.5497   6
  -5  -1   3 1010.88 26.6146   4
  -5  -1   3 1024.67 28.2738   3
   4   1  -3 2045.99 40.9226   4
   4   1  -3 2070.50 44.9114   6
   4   1  -3 2101.63 37.1683   7
  -4  -1   3 1979.92 41.5123   4
  -4  -1   3 2036.02 42.8307   3
  -4  -1   3 2045.43 36.8295   7
   3   1  -3 49.2133 3.13071   7
   3   1  -3 46.6528 4.68221   6
   3   1  -3 47.5006 3.92889   4
  -3  -1   3 44.4521 2.91941   7
  -3  -1   3 48.7065 4.13080   4
  -3  -1   3 48.1098 4.28205   3
   2   1  -3 1076.12 24.3588   6
   2   1  -3 1048.07 22.1618   4
  -2  -1   3 1077.47 22.9772   4
  -2  -1   3 1048.14 20.3111   7
   1   1  -3 0.36361 0.68819   4
   1   1  -3 0.53889 0.80906   6
   1   1  -3 1.48461 1.00415   2
   1   1  -3 0.70479 0.92833   8
  -1  -1   3 -0.3704 0.46751   4
  -1  -1   3 1.26498 0.98338   6
  -1  -1   3 0.41963 0.67614   7
  -1  -1   3 0.45920 0.88673   2
   0   1  -3 52.9720 3.06928   4
   0   1  -3 58.6691 4.24626   8
   0   1  -3 61.1986 4.58726   2
   0   1  -3 56.2993 2.96724   6
   0  -1   3 52.9505 3.72084   4
   0  -1   3 59.0024 4.51161   2
   0  -1   3 54.5654 3.27219   6
  -1   1  -3 248.961 7.47828   5
  -1   1  -3 224.720 11.7760   2
  -1   1  -3 232.988 7.82539   8
  -1   1  -3 240.547 6.29332   6
   1  -1   3 236.675 10.2913   2
   1  -1   3 242.120 7.16057   4
   1  -1   3 242.607 6.33341   6
   1  -1   3 230.380 7.85201   5
   1  -1   3 222.515 7.89118   8
  -2   1  -3 3712.03 61.1117   6
  -2   1  -3 3828.72 60.8420   8
   2  -1   3 3552.49 69.2913   2
   2  -1   3 3656.03 62.2550   5
   2  -1   3 3835.11 59.8971   6
   2  -1   3 3826.12 61.6994   8
  -3   1  -3 2397.25 45.7876   5
  -3   1  -3 2423.11 39.6580   8
   3  -1   3 2350.76 52.2420   3
   3  -1   3 2371.50 43.8394   5
   3  -1   3 2306.01 50.3922   2
   3  -1   3 2320.60 40.9123   6
   3  -1   3 2390.15 40.5973   8
   4  -1   3 789.315 20.6669   5
   4  -1   3 767.678 20.0842   6
   4  -1   3 806.976 25.6492   2
   4  -1   3 785.043 16.9278   8
   4  -1   3 780.764 26.9131   3
  -5   1  -3 135.641 9.19516   5
   5  -1   3 119.993 5.44292   8
   5  -1   3 119.339 9.63889   2
   5  -1   3 139.132 10.9817   3
   5  -1   3 125.798 7.92857   5
  -6   1  -3 76.2934 7.83367   5
   6  -1   3 79.5321 8.34773   2
   6  -1   3 95.8649 9.87750   3
   6  -1   3 81.8780 7.49941   7
   6  -1   3 80.2527 4.76820   8
  -7   1  -3 993.742 32.9429   5
   7  -1   3 1055.33 34.5886   2
   7  -1   3 1057.92 23.6487   8
   7  -1   3 1039.25 31.8838   7
  -8   1  -3 41.2209 7.83025   5
   8  -1   3 45.0516 4.19130   8
   8  -1   3 39.8546 7.90245   2
   8  -1   3 52.0472 8.63728   7
   9  -1   3 197.573 14.1106   7
   9  -1   3 194.409 14.7133   2
   9  -1   3 205.656 13.9439   4
  10  -1   3 0.63635 2.95427   4
  10  -1   3 3.76752 3.30088   2
  10  -1   3 3.99934 2.77435   7
  11  -1   3 0.03839 2.84390   7
  11  -1   3 3.62982 2.38718   6
  11  -1   3 1.87880 2.74132   2
  11  -1   3 -1.6670 2.06408   4
  12  -1   3 46.6580 8.40760   2
  12  -1   3 28.3217 6.53826   6
  12  -1   3 30.5796 6.64240   4
  12  -1   3 41.5415 8.06216   7
  13  -1   3 3.13204 4.21963   7
  13  -1   3 -6.7465 2.76409   6
  13  -1   3 -0.6264 3.68465   4
  13   0  -3 4.10205 3.92840   4
  13   0  -3 13.6874 4.71760   6
  12   0  -3 10.8019 3.90801   7
  12   0  -3 7.75966 4.04908   4
  12   0  -3 4.83095 4.30762   6
  11   0  -3 58.4801 6.68464   7
  11   0  -3 54.2683 8.84394   4
  11   0  -3 48.6956 10.6190   6
  10   0  -3 1210.31 38.0775   4
  10   0  -3 1121.68 45.9413   7
  10   0  -3 1219.54 43.2515   6
   9   0  -3 413.893 19.7772   4
   9   0  -3 392.348 16.1655   7
   9   0  -3 384.049 21.9580   6
   8   0  -3 298.513 13.2047   7
   8   0  -3 290.688 15.4502   4
   8   0  -3 298.125 18.0851   6
  -8   0   3 295.074 15.0801   3
   7   0  -3 266.623 14.1315   4
   7   0  -3 256.461 16.2680   8
   7   0  -3 260.464 15.8502   6
   7   0  -3 259.268 11.4826   7
  -7   0   3 258.341 12.9096   3
   6   0  -3 21.6043 4.75770   5
   6   0  -3 17.4600 4.71024   8
   6   0  -3 17.4744 4.22783   4
   6   0  -3 18.4732 3.30529   7
   6   0  -3 13.4367 3.73409   6
  -6   0   3 18.2539 4.05623   4
  -6   0   3 22.1962 4.14188   3
  -6   0   3 21.4494 3.88508   7
   5   0  -3 472.513 14.2655   7
   5   0  -3 452.428 16.2527   4
   5   0  -3 425.424 17.9378   6
   5   0  -3 431.539 17.8266   8
  -5   0   3 466.867 14.8130   3
  -5   0   3 429.396 16.0096   4
  -5   0   3 438.420 15.9354   7
   4   0  -3 13.8943 2.59725   7
   4   0  -3 16.9510 3.52065   4
   4   0  -3 10.4641 3.04429   6
   4   0  -3 17.3333 4.12541   8
  -4   0   3 13.4157 2.37173   7
  -4   0   3 16.4643 2.84202   3
  -4   0   3 13.4381 3.21500   4
   3   0  -3 1403.55 29.4460   4
   3   0  -3 1369.80 31.7128   6
   3   0  -3 1404.26 27.7932   7
   3   0  -3 1387.27 32.7660   8
  -3   0   3 1373.83 26.2367   3
  -3   0   3 1343.49 27.2987   7
  -3   0   3 1362.45 29.7067   4
   2   0  -3 4742.84 83.5681   8
  -2   0   3 4826.59 80.2905   4
   1   0  -3 4735.70 82.8152   8
  -1   0   3 4876.66 80.4120   2
  -1   0   3 4775.00 82.5051   8
   0   0  -3 34.2049 2.46840   4
   0   0  -3 35.8943 3.35294   8
   0   0  -3 32.1707 2.12758   6
   0   0   3 34.7937 2.49547   6
   0   0   3 30.7515 2.50504   4
   0   0   3 33.1683 3.44101   8
  -1   0  -3 2845.78 48.6542   8
  -1   0  -3 2715.95 47.0111   5
   1   0   3 2712.80 43.9789   6
   1   0   3 2760.39 49.1968   8
  -2   0  -3 1736.47 32.0779   8
  -2   0  -3 1737.95 33.6283   5
   2   0   3 1713.81 34.1912   5
   2   0   3 1749.45 28.5808   6
   2   0   3 1735.92 32.9736   8
   2   0   3 1732.95 41.3855   3
   2   0   3 1675.10 30.7125   4
  -3   0  -3 38.8909 4.04365   5
  -3   0  -3 46.6154 3.38903   8
   3   0   3 51.6976 5.85488   2
   3   0   3 54.3133 3.84240   8
   3   0   3 48.4580 2.85204   6
   3   0   3 48.9366 6.01571   3
   3   0   3 42.4900 3.64415   5
  -4   0  -3 13.8497 3.61543   5
   4   0   3 8.30692 2.32368   5
   4   0   3 8.44412 2.09808   8
   4   0   3 9.89599 3.46102   3
   4   0   3 7.22248 2.73449   2
  -5   0  -3 388.126 16.2816   5
   5   0   3 376.253 12.4023   8
   5   0   3 387.896 20.0176   3
   5   0   3 358.139 13.7927   5
   5   0   3 373.330 18.2117   2
  -6   0  -3 689.987 29.5483   5
   6   0   3 758.958 20.1154   8
   6   0   3 767.405 28.4904   2
  -7   0  -3 14.2442 4.59503   5
   7   0   3 14.7218 4.98721   2
  -8   0  -3 8.14077 3.96771   5
   8   0   3 14.3446 4.21029   7
   8   0   3 9.78375 2.79307   8
   8   0   3 12.9423 4.36950   2
  -9   0  -3 18.9028 5.41133   5
   9   0   3 26.2733 5.70955   6
   9   0   3 28.7076 4.94545   8
   9   0   3 37.2225 7.12119   7
   9   0   3 33.5990 6.33067   4
   9   0   3 39.3899 8.86499   2
  10   0   3 754.341 31.8519   2
  10   0   3 758.734 29.6983   7
  10   0   3 767.645 29.2065   4
  10   0   3 773.579 29.6706   6
  10   0   3 735.443 23.4958   8
  11   0   3 -4.8181 2.14603   6
  11   0   3 -5.6390 3.02870   2
  11   0   3 -2.9005 2.03232   4
  11   0   3 -1.7639 2.53547   7
  12   0   3 -2.6413 2.97359   6
  12   0   3 -3.8208 3.98110   2
  12   0   3 -4.1522 3.03083   4
  12   0   3 -0.2544 3.01182   7
  13   0   3 0.56005 3.94601   4
  13   0   3 2.22186 3.69402   6
  13   0   3 6.24793 4.99056   7
  13  -1  -3 28.7422 8.32327   6
  13  -1  -3 45.9225 8.81245   4
  13  -1  -3 13.3580 4.72601   7
  12  -1  -3 90.0152 9.23433   7
  12  -1  -3 93.2546 13.0851   4
  12  -1  -3 77.4773 13.2348   6
  11  -1  -3 10.9193 4.70967   4
  11  -1  -3 13.6585 6.37980   6
  11  -1  -3 10.5356 3.92145   7
  10  -1  -3 93.4961 11.4652   6
  10  -1  -3 69.6151 7.64041   7
  10  -1  -3 87.4595 9.60165   4
   9  -1  -3 393.445 20.1775   7
   9  -1  -3 380.801 22.1405   6
   9  -1  -3 397.791 19.5977   4
   8  -1  -3 923.931 26.7121   7
   8  -1  -3 892.118 33.3275   6
   8  -1  -3 916.605 29.7398   4
  -8   1   3 822.521 26.0135   7
   7  -1  -3 478.773 19.4031   4
   7  -1  -3 471.985 20.1584   8
   7  -1  -3 465.526 17.1298   7
  -7   1   3 498.096 17.7805   7
   6  -1  -3 56.5980 6.30205   8
   6  -1  -3 57.2780 5.33539   7
   6  -1  -3 52.8022 5.80869   4
   6  -1  -3 53.4701 6.71980   6
  -6   1   3 53.6534 5.05462   7
  -6   1   3 45.6799 5.44177   4
   5  -1  -3 142.690 9.99181   6
   5  -1  -3 158.781 8.38478   7
   5  -1  -3 137.582 9.46959   8
   5  -1  -3 151.594 9.04810   4
  -5   1   3 143.827 7.89512   7
  -5   1   3 159.430 9.28277   4
   4  -1  -3 177.411 9.14071   4
   4  -1  -3 155.442 7.87537   7
   4  -1  -3 160.060 9.67997   6
   4  -1  -3 165.260 9.61250   8
  -4   1   3 160.931 7.91254   7
  -4   1   3 150.927 8.46978   4
   3  -1  -3 4983.12 88.4444   6
   3  -1  -3 4977.76 88.9649   8
   3  -1  -3 5048.69 85.6863   7
  -3   1   3 5147.34 90.4415   8
  -3   1   3 5079.28 86.6817   4
   2  -1  -3 2731.36 48.8521   4
   2  -1  -3 2792.02 52.4054   8
   2  -1  -3 2742.72 49.9539   7
   2  -1  -3 2669.58 50.1999   6
  -2   1   3 2663.00 49.1738   7
  -2   1   3 2691.88 49.3115   4
  -2   1   3 2804.96 46.3380   3
   1  -1  -3 344.505 11.9052   8
   1  -1  -3 324.779 9.51496   4
   1  -1  -3 330.734 9.76636   6
  -1   1   3 326.946 9.91279   4
  -1   1   3 328.507 10.8509   7
  -1   1   3 327.478 12.2098   8
  -1   1   3 343.226 11.1402   3
   0  -1  -3 155.297 5.43202   4
   0  -1  -3 147.597 4.43309   6
   0  -1  -3 151.226 7.27390   8
   0   1   3 153.069 8.27975   3
   0   1   3 147.209 7.06657   7
   0   1   3 141.182 7.38542   8
   0   1   3 151.320 5.76840   4
  -1  -1  -3 1390.12 25.1516   4
  -1  -1  -3 1358.01 28.4454   8
  -1  -1  -3 1391.94 34.3100   3
  -1  -1  -3 1394.76 26.8070   5
   1   1   3 1395.29 29.7097   8
   1   1   3 1379.86 33.9566   3
   1   1   3 1396.48 25.5633   4
  -2  -1  -3 501.579 27.4921   3
  -2  -1  -3 530.023 14.5068   5
  -2  -1  -3 507.263 14.2892   8
   2   1   3 516.521 19.9359   3
   2   1   3 519.167 13.1239   5
   2   1   3 516.944 11.8640   4
   2   1   3 510.378 15.0229   8
  -3  -1  -3 629.566 18.1989   5
   3   1   3 646.701 16.5000   5
   3   1   3 665.964 18.0499   8
   3   1   3 646.878 24.3557   3
  -4  -1  -3 249.579 11.7029   5
  -4  -1  -3 250.775 15.9345   3
   4   1   3 252.450 10.6259   8
   4   1   3 248.741 9.93623   5
   4   1   3 248.064 18.4622   3
  -5  -1  -3 282.938 14.0117   5
  -5  -1  -3 275.610 18.1360   3
   5   1   3 300.183 12.2353   8
   5   1   3 314.676 18.5659   3
   5   1   3 282.208 11.8084   5
  -6  -1  -3 849.020 28.2578   5
   6   1   3 893.603 32.4513   2
   6   1   3 868.735 24.3402   8
   6   1   3 856.692 24.1570   6
  -7  -1  -3 1.72694 2.11392   5
   7   1   3 4.77513 2.86962   6
   7   1   3 10.0417 2.91182   8
   7   1   3 8.67335 4.15264   2
  -8  -1  -3 304.659 18.3298   5
   8   1   3 301.868 14.3199   8
   8   1   3 304.486 15.2841   4
   8   1   3 320.643 15.4835   6
   8   1   3 300.557 16.4198   7
   8   1   3 323.348 19.9682   2
  -9  -1  -3 -3.2913 1.75997   5
   9   1   3 0.64513 2.21617   8
   9   1   3 -2.5215 1.89341   7
   9   1   3 1.63772 2.54356   2
   9   1   3 1.95471 1.97557   6
  10   1   3 91.9764 9.59286   7
  10   1   3 96.7702 11.5532   2
  10   1   3 91.3123 9.11802   4
  10   1   3 85.4195 8.43242   8
  10   1   3 92.7288 8.91787   6
  11   1   3 2.68390 3.03612   8
  11   1   3 13.2112 4.41108   4
  11   1   3 7.34746 3.40138   6
  11   1   3 4.80785 5.23861   2
  11   1   3 2.15640 2.95421   7
  12   1   3 9.92797 4.33211   7
  12   1   3 6.30574 4.84984   4
  12   1   3 20.7911 6.59878   6
  12   1   3 23.0854 6.96642   2
  14  -2  -3 49.4601 10.6983   6
  13  -2  -3 6.10794 3.98196   4
  13  -2  -3 8.58480 5.34049   6
  13  -2  -3 6.01254 3.84542   7
  12  -2  -3 44.3230 7.74918   7
  12  -2  -3 50.3847 10.0827   4
  12  -2  -3 54.9798 11.3433   6
  11  -2  -3 417.862 25.9638   6
  11  -2  -3 406.927 20.0963   7
  11  -2  -3 456.616 23.9345   4
  10  -2  -3 39.0371 6.69677   7
  10  -2  -3 47.2013 7.81390   4
  10  -2  -3 47.8243 10.0812   6
   9  -2  -3 819.882 29.8702   4
   9  -2  -3 754.834 32.4858   6
   9  -2  -3 799.062 27.0608   7
   8  -2  -3 16.4858 4.42042   7
   8  -2  -3 10.4065 3.63920   4
   7  -2  -3 408.062 18.1212   4
   7  -2  -3 402.194 18.0031   8
   7  -2  -3 422.010 17.0743   7
  -7   2   3 412.100 16.8150   7
   6  -2  -3 776.297 23.3573   7
   6  -2  -3 726.481 24.2587   8
   6  -2  -3 745.653 24.2425   4
  -6   2   3 747.678 22.8811   7
  -6   2   3 767.758 24.4670   4
   5  -2  -3 1724.45 38.3324   7
   5  -2  -3 1629.33 38.6670   4
   5  -2  -3 1672.78 39.9130   8
  -5   2   3 1736.23 43.6257   4
  -5   2   3 1669.75 37.5309   7
   4  -2  -3 1.88888 1.41983   7
   4  -2  -3 0.01694 0.83604   4
   4  -2  -3 0.56005 1.20303   8
  -4   2   3 1.68969 1.89773   8
  -4   2   3 3.17194 1.65489   7
  -4   2   3 0.98762 1.31239   4
   3  -2  -3 -0.5873 0.59792   7
   3  -2  -3 -0.0136 0.95468   8
   3  -2  -3 0.64788 0.97083   4
  -3   2   3 1.11599 0.78083   2
  -3   2   3 0.49944 0.86603   7
  -3   2   3 -0.6361 1.11820   8
  -3   2   3 3.02559 1.38040   4
   2  -2  -3 596.280 17.2548   7
   2  -2  -3 564.326 17.5686   8
   2  -2  -3 560.933 15.3237   4
   2  -2  -3 562.487 16.3084   3
  -2   2   3 598.381 14.5468   3
  -2   2   3 579.767 16.7126   7
  -2   2   3 579.906 18.4947   8
   1  -2  -3 722.327 20.1454   8
   1  -2  -3 764.705 20.6550   3
   1  -2  -3 770.819 17.2044   4
  -1   2   3 778.745 21.4559   8
  -1   2   3 775.901 17.9049   4
  -1   2   3 758.264 19.7687   7
  -1   2   3 770.565 20.3128   3
   0  -2  -3 731.073 22.2415   3
   0  -2  -3 735.605 15.2292   4
   0  -2  -3 744.906 19.5913   8
   0   2   3 690.569 19.8125   8
   0   2   3 730.379 21.7181   3
   0   2   3 698.614 15.9735   4
   0   2   3 678.704 18.8774   7
  -1  -2  -3 43.4645 2.69108   4
  -1  -2  -3 40.0336 5.45940   3
  -1  -2  -3 45.4038 3.44951   5
  -1  -2  -3 48.9941 4.27092   8
   1   2   3 46.6672 4.35904   7
   1   2   3 44.7572 4.48762   8
   1   2   3 39.5539 2.71374   4
   1   2   3 43.4171 5.32573   3
  -2  -2  -3 2957.03 65.0408   3
  -2  -2  -3 2873.31 54.5697   8
  -2  -2  -3 2887.01 52.7570   5
   2   2   3 2925.14 56.0976   8
   2   2   3 2952.98 63.9899   3
  -3  -2  -3 3679.13 66.5796   5
  -3  -2  -3 3569.04 79.5233   3
   3   2   3 3621.24 67.8016   8
   3   2   3 3739.16 79.2422   3
   3   2   3 3642.47 62.9533   5
   3   2   3 3584.38 59.7292   4
  -4  -2  -3 128.604 12.1136   3
  -4  -2  -3 140.917 8.87356   5
   4   2   3 140.881 12.1437   3
   4   2   3 147.946 5.87858   4
   4   2   3 138.977 8.67287   8
   4   2   3 132.394 8.07757   5
  -5  -2  -3 247.318 18.0493   3
  -5  -2  -3 242.993 13.0641   5
   5   2   3 231.523 11.9067   8
   5   2   3 237.799 10.5657   5
   5   2   3 238.082 9.34099   6
  -6  -2  -3 952.309 30.5845   5
  -6  -2  -3 940.415 39.1973   3
   6   2   3 957.964 24.2266   6
   6   2   3 962.997 28.1966   8
  -7  -2  -3 78.1837 14.2719   3
  -7  -2  -3 86.7518 9.12387   5
   7   2   3 93.6152 6.98501   6
   7   2   3 85.1690 10.5290   2
   7   2   3 76.8845 7.59399   8
   7   2   3 95.0057 7.35667   4
  -8  -2  -3 314.614 18.6966   5
   8   2   3 323.113 14.3706   6
   8   2   3 324.640 20.9890   2
   8   2   3 320.323 16.9771   7
   8   2   3 341.816 16.7482   8
   8   2   3 321.687 15.5112   4
  -9  -2  -3 5.99066 3.44245   5
   9   2   3 5.94898 3.14969   7
   9   2   3 2.66347 2.43982   4
   9   2   3 4.24186 3.15324   8
   9   2   3 0.53499 2.26211   6
   9   2   3 7.11077 4.36230   2
  10   2   3 9.93127 3.76805   4
  10   2   3 5.07309 3.33057   7
  10   2   3 9.15405 4.54624   2
  10   2   3 7.29042 2.72857   6
  11   2   3 109.420 9.76139   4
  11   2   3 97.8894 8.60696   6
  11   2   3 107.811 12.5810   2
  11   2   3 91.0854 9.70021   7
  11   2   3 105.947 10.4430   8
  14  -3  -3 59.3169 11.4168   4
  14  -3  -3 75.6669 11.0596   7
  14  -3  -3 65.2392 12.9922   6
  13  -3  -3 2.31667 4.08611   6
  13  -3  -3 4.45693 3.36465   7
  13  -3  -3 5.91937 4.06782   4
  12  -3  -3 457.743 22.9421   7
  12  -3  -3 420.038 27.7371   6
  12  -3  -3 446.150 25.0207   4
  11  -3  -3 26.3784 9.34938   4
  11  -3  -3 16.2711 5.05327   6
  11  -3  -3 27.8173 6.51359   7
  10  -3  -3 8.14851 3.86535   6
  10  -3  -3 9.24900 3.62424   7
  10  -3  -3 5.06638 3.77732   4
   9  -3  -3 162.336 12.7900   4
   9  -3  -3 173.674 12.3881   7
   8  -3  -3 3.96066 2.46423   7
   8  -3  -3 4.94475 2.89652   8
   8  -3  -3 2.45496 2.03894   4
   7  -3  -3 16.3666 4.81616   4
   7  -3  -3 6.04409 3.06777   8
   7  -3  -3 7.99692 2.97308   7
  -7   3   3 5.85543 2.74162   7
   6  -3  -3 872.926 26.8547   8
   6  -3  -3 913.961 27.1652   7
   6  -3  -3 876.267 27.2727   4
  -6   3   3 871.931 26.2762   7
   5  -3  -3 55.5267 5.76441   8
   5  -3  -3 54.6316 5.75126   7
  -5   3   3 59.9097 6.48382   8
  -5   3   3 51.8713 5.53771   4
  -5   3   3 54.8364 4.60003   2
  -5   3   3 53.9643 5.48517   7
   4  -3  -3 513.350 17.9278   7
   4  -3  -3 519.940 17.3632   4
   4  -3  -3 513.858 17.9701   8
  -4   3   3 512.182 15.8042   2
  -4   3   3 504.682 17.3314   4
  -4   3   3 520.614 19.3027   8
  -4   3   3 501.398 17.2496   7
   3  -3  -3 1048.79 27.0899   7
   3  -3  -3 1021.58 27.0295   8
   3  -3  -3 1004.84 24.9337   4
  -3   3   3 1028.85 26.0502   2
  -3   3   3 1008.56 26.0470   7
  -3   3   3 1027.80 28.3176   8
  -3   3   3 1018.69 25.3124   4
   2  -3  -3 22.8900 4.22890   8
   2  -3  -3 19.7804 3.62197   3
   2  -3  -3 18.9117 3.92301   7
   2  -3  -3 12.7058 2.24714   4
  -2   3   3 21.4173 3.34646   4
  -2   3   3 14.3586 3.34863   8
  -2   3   3 19.2681 3.28813   3
  -2   3   3 28.8890 4.94149   7
   1  -3  -3 122.778 7.62647   7
   1  -3  -3 125.564 5.67230   4
   1  -3  -3 118.893 7.49663   8
   1  -3  -3 130.022 8.51358   3
  -1   3   3 110.839 7.76147   8
  -1   3   3 120.020 7.29860   7
  -1   3   3 121.052 6.00169   4
  -1   3   3 131.338 8.03455   3
   0  -3  -3 392.278 17.0561   3
   0  -3  -3 411.732 14.5336   8
   0  -3  -3 404.587 10.0620   4
   0   3   3 414.200 15.5349   8
   0   3   3 381.503 12.4256   4
   0   3   3 398.830 14.1444   7
   0   3   3 415.256 16.7034   3
  -1  -3  -3 8.01410 2.30888   8
  -1  -3  -3 10.3231 2.08052   5
  -1  -3  -3 19.3435 5.41007   3
   1   3   3 13.5995 3.04604   7
   1   3   3 7.01431 2.39485   3
   1   3   3 12.8084 2.03987   4
   1   3   3 15.9535 3.59992   8
  -2  -3  -3 3810.19 70.4706   8
  -2  -3  -3 3726.03 66.3543   5
  -2  -3  -3 3776.16 81.7368   3
   2   3   3 3722.74 69.9205   7
   2   3   3 3678.43 79.2381   3
   2   3   3 3812.53 71.8931   8
   2   3   3 3757.92 61.1811   4
  -3  -3  -3 72.9848 5.87413   5
  -3  -3  -3 82.1528 9.67522   3
   3   3   3 75.3866 4.62535   4
   3   3   3 75.7594 8.79271   3
   3   3   3 82.6137 7.12542   8
   3   3   3 81.6803 6.51535   7
  -4  -3  -3 61.4704 5.98586   5
  -4  -3  -3 71.5897 9.71592   3
   4   3   3 60.7010 4.74665   5
   4   3   3 62.4684 3.52718   4
   4   3   3 68.0357 6.74630   8
  -5  -3  -3 5.24120 4.17423   3
  -5  -3  -3 11.0685 3.66445   5
   5   3   3 9.66178 3.52276   8
   5   3   3 11.7355 1.95686   4
  -6  -3  -3 88.0514 8.72950   5
  -6  -3  -3 88.4504 15.7764   3
   6   3   3 81.0309 5.08542   6
   6   3   3 79.9583 4.69107   4
   6   3   3 99.6314 8.88171   8
   6   3   3 95.7341 6.55952   4
  -7  -3  -3 745.431 37.9882   3
  -7  -3  -3 726.024 28.1886   5
   7   3   3 720.548 26.6514   8
   7   3   3 719.372 19.4907   6
   7   3   3 776.098 22.3569   4
   7   3   3 703.112 18.0093   4
  -8  -3  -3 11.2022 4.07626   5
  -8  -3  -3 0.34148 4.02363   3
   8   3   3 10.1927 2.53401   4
   8   3   3 8.43388 2.33833   6
   8   3   3 2.05509 2.32203   7
   8   3   3 9.71106 3.18243   4
   8   3   3 5.66913 3.50041   2
   8   3   3 3.45495 2.76435   8
   9   3   3 133.821 14.1006   2
   9   3   3 133.533 9.21870   4
   9   3   3 134.755 11.2118   7
   9   3   3 119.725 11.0689   8
  10   3   3 2.45405 2.89431   7
  10   3   3 4.14999 3.28331   4
  10   3   3 1.01454 2.48012   8
  10   3   3 1.72351 4.96335   2
  10   3   3 6.23493 2.47542   6
  11   3   3 137.795 11.7519   7
  11   3   3 150.247 15.6990   2
  11   3   3 149.703 12.9956   8
  14  -4  -3 -1.7605 3.83561   7
  14  -4  -3 2.58149 4.17468   4
  14  -4  -3 -7.8938 3.88177   6
  13  -4  -3 38.4541 8.11088   7
  13  -4  -3 18.1259 6.31922   4
  13  -4  -3 25.4104 8.46698   6
  12  -4  -3 18.1951 5.89656   4
  12  -4  -3 17.7471 5.71948   7
  11  -4  -3 79.8706 11.5718   4
  11  -4  -3 79.4309 9.76838   7
  10  -4  -3 475.311 23.9017   4
  10  -4  -3 473.715 22.9044   7
   9  -4  -3 25.2832 6.00483   7
   9  -4  -3 25.5409 6.12213   4
   8  -4  -3 4.73930 3.29993   8
   8  -4  -3 4.17025 2.74637   4
   8  -4  -3 8.32196 2.97761   7
   7  -4  -3 64.7553 7.33901   4
   7  -4  -3 72.2809 7.67777   7
   7  -4  -3 55.8800 6.48243   8
   6  -4  -3 8.64659 3.19640   7
   6  -4  -3 14.1685 4.04106   4
  -6   4   3 14.7429 4.66798   7
  -6   4   3 22.2552 4.11485   2
  -6   4   3 24.6078 5.49612   8
   5  -4  -3 209.893 11.6864   8
   5  -4  -3 229.835 12.5800   7
  -5   4   3 216.209 11.9491   7
  -5   4   3 233.443 13.2927   8
  -5   4   3 221.375 11.7964   4
  -5   4   3 213.938 10.6318   2
   4  -4  -3 99.6377 7.62758   8
   4  -4  -3 96.6325 7.14098   4
   4  -4  -3 97.6239 7.93321   7
  -4   4   3 104.132 7.50449   2
  -4   4   3 96.2078 7.05834   4
  -4   4   3 107.225 8.64492   8
   3  -4  -3 202.479 9.56750   3
   3  -4  -3 188.027 10.6675   7
   3  -4  -3 188.637 10.2918   8
   3  -4  -3 199.242 9.46126   4
  -3   4   3 200.483 9.64923   4
  -3   4   3 187.641 10.1813   7
  -3   4   3 201.966 10.9925   2
  -3   4   3 205.596 11.6858   8
   2  -4  -3 229.108 11.6775   3
   2  -4  -3 251.270 11.7617   8
   2  -4  -3 241.303 9.45891   4
   2  -4  -3 239.605 11.9344   7
  -2   4   3 237.063 9.84577   4
  -2   4   3 233.019 11.3594   7
  -2   4   3 241.690 12.5179   8
  -2   4   3 251.208 12.8156   2
  -2   4   3 257.263 11.1973   3
   1  -4  -3 94.0675 7.17258   7
   1  -4  -3 86.2456 4.65174   4
   1  -4  -3 89.7526 4.01661   6
   1  -4  -3 84.1382 6.68697   8
  -1   4   3 75.3524 4.89024   4
  -1   4   3 98.5248 6.99606   7
  -1   4   3 93.1747 7.34808   3
  -1   4   3 88.4281 7.45872   8
   0  -4  -3 14.5839 4.52824   3
   0  -4  -3 5.82134 2.08500   8
   0  -4  -3 13.4106 1.60535   4
   0   4   3 10.4651 2.91237   8
   0   4   3 17.4978 4.15673   3
   0   4   3 13.4839 2.73732   4
   0   4   3 7.46708 2.27582   7
  -1  -4  -3 100.432 8.83590   8
  -1  -4  -3 101.381 5.73602   5
   1   4   3 99.0836 7.23951   7
   1   4   3 106.205 11.1019   3
   1   4   3 110.772 8.45750   8
   1   4   3 104.120 4.68834   4
  -2  -4  -3 63.5633 8.70508   3
  -2  -4  -3 63.0224 5.03424   5
   2   4   3 57.2017 7.72943   3
   2   4   3 56.1981 5.47282   7
   2   4   3 61.2204 6.47693   8
  -3  -4  -3 159.840 14.7101   3
  -3  -4  -3 198.396 9.96659   5
   3   4   3 164.625 11.0723   8
   3   4   3 161.475 9.85956   7
  -4  -4  -3 765.494 23.8144   5
  -4  -4  -3 743.073 34.4482   3
   4   4   3 743.753 23.8707   7
   4   4   3 774.809 26.6481   8
  -5  -4  -3 56.7523 11.7578   3
  -5  -4  -3 64.3434 7.11252   5
   5   4   3 57.3209 7.03488   8
   5   4   3 59.2112 6.47669   7
  -6  -4  -3 3.23028 3.78953   3
  -6  -4  -3 6.73645 3.26979   5
   6   4   3 10.1862 3.74024   8
  -7  -4  -3 54.3805 12.9634   3
  -7  -4  -3 56.9656 9.23558   5
   7   4   3 56.6774 8.92551   8
  -8  -4  -3 0.04346 3.84152   3
  -8  -4  -3 8.43965 3.31949   5
   8   4   3 4.50005 2.68390   8
   8   4   3 6.84941 4.44725   2
   8   4   3 4.34190 2.57591   7
   9   4   3 71.4228 8.85083   8
   9   4   3 64.0190 11.4463   2
   9   4   3 79.2429 8.39558   7
  10   4   3 33.6111 8.20248   8
  10   4   3 19.8228 6.83897   2
  11   4   3 8.18106 5.15903   8
  11   4   3 10.8663 5.24495   2
  14  -5  -3 274.782 24.0532   6
  14  -5  -3 294.965 20.6562   7
  14  -5  -3 269.815 21.3042   4
  13  -5  -3 319.095 21.0635   7
  13  -5  -3 324.938 25.0931   6
  13  -5  -3 348.301 23.3146   4
  12  -5  -3 52.3651 10.4175   7
  12  -5  -3 58.7035 10.2104   4
  11  -5  -3 164.832 14.7968   4
  11  -5  -3 179.558 14.9232   7
  10  -5  -3 434.150 23.0489   4
  10  -5  -3 449.975 23.0088   7
   9  -5  -3 69.4700 8.48297   7
   9  -5  -3 60.5043 10.1078   4
   8  -5  -3 493.650 22.3710   7
   8  -5  -3 493.225 22.3286   4
  -8   5   3 450.997 17.5741   2
   7  -5  -3 203.531 12.2675   8
   7  -5  -3 200.712 13.4574   7
   7  -5  -3 206.511 13.2271   4
  -7   5   3 197.225 11.1847   2
  -7   5   3 196.010 13.2101   8
   6  -5  -3 350.431 16.6699   4
   6  -5  -3 372.979 17.9118   7
   6  -5  -3 386.903 16.8106   8
  -6   5   3 351.023 15.4070   2
  -6   5   3 364.676 18.0164   8
   5  -5  -3 976.096 28.2851   8
   5  -5  -3 895.534 27.1333   4
  -5   5   3 947.130 30.1377   8
  -5   5   3 927.574 27.5865   2
   4  -5  -3 1227.70 34.3828   7
   4  -5  -3 1244.15 31.2900   4
   4  -5  -3 1232.98 29.7230   3
   4  -5  -3 1231.28 32.9922   8
  -4   5   3 1273.67 35.6232   8
  -4   5   3 1244.85 31.7254   4
  -4   5   3 1243.95 34.0759   2
  -4   5   3 1212.41 33.0931   7
   3  -5  -3 493.041 18.6417   8
   3  -5  -3 478.283 18.1878   3
   3  -5  -3 524.314 16.6436   4
   3  -5  -3 531.065 19.8156   7
  -3   5   3 510.690 20.2011   2
  -3   5   3 510.522 18.9498   7
  -3   5   3 489.491 20.0594   8
  -3   5   3 507.949 16.7839   4
   2  -5  -3 653.691 23.6883   3
   2  -5  -3 632.920 21.5179   8
   2  -5  -3 631.363 17.7275   6
   2  -5  -3 672.817 17.6510   4
   2  -5  -3 694.932 22.9148   7
  -2   5   3 665.368 23.4353   8
  -2   5   3 673.639 21.9184   3
  -2   5   3 679.074 18.6640   4
  -2   5   3 679.783 21.9589   7
   1  -5  -3 34.7510 5.67970   8
   1  -5  -3 32.3020 6.35594   3
   1  -5  -3 42.7012 3.26891   4
   1  -5  -3 42.1199 5.23488   7
  -1   5   3 36.6067 3.46540   4
  -1   5   3 29.0649 4.82197   2
  -1   5   3 51.0599 7.77030   8
  -1   5   3 43.0942 5.38141   3
   0  -5  -3 837.638 19.6223   5
   0  -5  -3 868.934 26.0842   8
   0  -5  -3 808.090 30.6962   3
   0  -5  -3 844.621 16.5935   4
   0   5   3 793.513 26.6495   8
   0   5   3 812.252 28.6034   3
   0   5   3 827.614 18.6791   4
  -1  -5  -3 1480.55 46.3294   3
  -1  -5  -3 1488.43 31.1155   5
   1   5   3 1463.97 43.2017   3
   1   5   3 1394.66 41.2632   8
   1   5   3 1525.66 40.8349   7
  -2  -5  -3 198.408 16.3333   3
  -2  -5  -3 199.999 9.55816   5
   2   5   3 197.281 12.6970   8
   2   5   3 177.012 10.4171   7
  -3  -5  -3 941.545 25.8256   5
  -3  -5  -3 963.281 39.9265   3
   3   5   3 914.794 30.7525   8
   3   5   3 922.656 27.2600   7
  -4  -5  -3 13.1665 3.62456   5
  -4  -5  -3 21.5577 7.96243   3
   4   5   3 20.3177 4.31997   7
   4   5   3 19.3983 4.95555   8
  -5  -5  -3 245.420 13.8920   5
  -5  -5  -3 250.036 21.6861   3
   5   5   3 238.165 15.6156   8
  -6  -5  -3 21.5040 5.41276   5
  -6  -5  -3 18.1271 8.63110   3
   6   5   3 15.4987 5.07385   8
  -7  -5  -3 3.20620 2.22087   5
  -7  -5  -3 3.51706 4.38617   3
   7   5   3 3.40575 2.71758   8
  -8  -5  -3 3.20384 5.71634   3
  -8  -5  -3 -4.4507 2.34403   5
   8   5   3 9.35258 3.85937   7
  -9  -5  -3 10.7162 5.90286   3
   9   5   3 1.08269 3.70213   7
   9   5   3 4.66169 3.86699   2
   9   5   3 6.05791 2.83726   8
  10   5   3 19.8142 6.42170   8
  10   5   3 13.4850 7.36188   2
  14  -6  -3 -0.8929 4.04446   7
  14  -6  -3 5.56203 4.49489   4
  13  -6  -3 27.8384 7.74985   4
  13  -6  -3 45.5250 11.2047   6
  13  -6  -3 36.7846 8.92091   7
  12  -6  -3 18.1098 6.67419   4
  12  -6  -3 23.2552 7.72463   7
  11  -6  -3 168.970 15.1994   4
  10  -6  -3 16.8779 6.35010   7
   9  -6  -3 272.397 17.5520   4
   9  -6  -3 295.230 18.5955   7
   8  -6  -3 270.379 16.9353   7
   8  -6  -3 248.363 15.8706   4
  -8   6   3 252.252 13.9766   2
  -8   6   3 250.198 15.9262   8
   7  -6  -3 120.300 10.2495   4
   7  -6  -3 94.6251 9.64069   7
  -7   6   3 94.7175 9.69455   8
  -7   6   3 103.108 8.81870   2
   6  -6  -3 78.8874 7.88959   4
   6  -6  -3 69.5535 8.11347   7
  -6   6   3 87.1916 10.5825   8
  -6   6   3 71.4521 7.60588   2
   5  -6  -3 65.5980 7.63237   7
   5  -6  -3 60.8024 6.42702   4
   5  -6  -3 73.0711 6.08412   3
  -5   6   3 60.7812 7.09269   2
  -5   6   3 69.5241 7.86071   8
   4  -6  -3 128.640 9.23438   3
   4  -6  -3 125.890 8.54512   4
   4  -6  -3 130.455 10.3480   7
   4  -6  -3 135.748 12.8198   8
  -4   6   3 133.983 10.5462   2
  -4   6   3 136.616 10.8398   8
   3  -6  -3 71.4400 7.56973   3
   3  -6  -3 69.4508 5.62315   4
   3  -6  -3 65.9698 5.01721   6
  -3   6   3 75.6320 7.95902   8
  -3   6   3 73.3118 7.89776   2
   2  -6  -3 39.6730 6.98101   7
   2  -6  -3 47.7976 4.07466   4
   2  -6  -3 34.8959 6.91236   3
   2  -6  -3 42.1963 3.32257   6
  -2   6   3 42.0470 7.80472   7
   1  -6  -3 226.963 15.8587   3
   1  -6  -3 231.726 7.92471   4
   1  -6  -3 247.853 7.10024   6
   1  -6  -3 234.457 13.2486   7
  -1   6   3 216.804 13.9379   3
  -1   6   3 237.872 14.4224   8
  -1   6   3 259.582 13.2281   7
   0  -6  -3 418.893 12.8921   5
   0   6   3 393.663 18.9485   8
   0   6   3 372.836 16.4101   7
  -1  -6  -3 16.9278 5.72901   3
  -1  -6  -3 28.3821 3.49142   5
   1   6   3 31.6723 6.76287   8
   1   6   3 26.2903 5.46610   7
  -2  -6  -3 39.0272 4.44858   5
  -2  -6  -3 46.1028 10.4648   3
   2   6   3 41.0328 6.71947   8
   2   6   3 46.5206 5.97492   7
  -3  -6  -3 442.264 16.9282   5
  -3  -6  -3 464.645 28.4880   3
   3   6   3 446.093 21.7555   8
  -4  -6  -3 603.802 22.1042   5
  -4  -6  -3 647.470 35.8539   3
   4   6   3 624.193 26.9162   8
  -5  -6  -3 3.12241 2.10140   5
  -5  -6  -3 -1.0364 3.57739   3
   5   6   3 1.08666 1.89077   8
  -6  -6  -3 18.4284 7.17856   3
   6   6   3 33.6925 7.26273   8
  -7  -6  -3 -0.3815 2.35473   5
  -7  -6  -3 -4.1464 2.71973   3
   7   6   3 0.70257 2.58520   8
  -8  -6  -3 13.6531 6.98411   3
   8   6   3 18.6590 5.25667   8
   8   6   3 17.0512 4.86434   7
  -9  -6  -3 75.7573 22.2737   3
   9   6   3 73.0099 12.4008   8
   9   6   3 70.6570 13.4018   2
  14  -7  -3 51.3921 12.3365   6
  14  -7  -3 53.4354 10.1806   7
  14  -7  -3 79.8986 12.6778   4
  13  -7  -3 138.832 14.8618   7
  13  -7  -3 138.740 14.9033   4
  12  -7  -3 36.8499 9.17026   4
  12  -7  -3 33.9578 9.18232   7
  11  -7  -3 1.97521 3.15937   7
  11  -7  -3 -2.4062 2.49389   4
  10  -7  -3 121.947 12.6153   7
   9  -7  -3 581.148 26.5368   4
   9  -7  -3 592.887 27.9270   7
  -9   7   3 570.786 25.9985   8
   8  -7  -3 246.071 15.8419   4
   8  -7  -3 264.574 17.3596   7
  -8   7   3 268.303 16.8654   8
   7  -7  -3 173.951 13.7238   7
   7  -7  -3 181.680 12.8307   4
  -7   7   3 177.775 13.5721   8
   6  -7  -3 125.991 11.4312   7
   6  -7  -3 133.020 10.1791   4
   6  -7  -3 120.756 8.15715   3
  -6   7   3 127.076 11.2061   8
   5  -7  -3 84.8636 9.10823   7
   5  -7  -3 75.2109 7.41474   4
   5  -7  -3 83.2035 7.73766   3
  -5   7   3 93.4834 9.76118   8
   4  -7  -3 28.7256 4.31697   6
   4  -7  -3 29.0162 5.25800   4
   4  -7  -3 31.8557 7.01307   7
   4  -7  -3 33.9092 7.00255   3
  -4   7   3 38.0306 7.57769   8
   3  -7  -3 1217.21 38.0528   3
   3  -7  -3 1186.55 36.1222   7
   3  -7  -3 1208.48 26.5318   6
   3  -7  -3 1158.14 28.4382   4
  -3   7   3 1194.64 37.5581   8
   2  -7  -3 266.570 15.0339   7
   2  -7  -3 243.807 16.7044   3
   2  -7  -3 269.236 9.90088   4
   2  -7  -3 257.978 8.60950   6
  -2   7   3 262.877 16.2518   8
   1  -7  -3 1176.33 34.7351   7
   1  -7  -3 1149.20 22.6420   4
   1  -7  -3 1159.11 22.6135   6
   1  -7  -3 1158.06 41.4684   3
  -1   7   3 1102.93 36.4861   8
   0  -7  -3 7.27762 4.10554   3
   0  -7  -3 6.00234 2.11079   5
   0   7   3 2.47667 2.23735   8
  -1  -7  -3 221.306 9.95114   5
  -1  -7  -3 184.977 17.3728   3
   1   7   3 214.238 15.1700   8
  -2  -7  -3 184.193 18.2270   3
  -2  -7  -3 173.414 9.63318   5
   2   7   3 198.379 15.0506   8
  -3  -7  -3 100.976 17.9368   3
   3   7   3 94.7064 10.5854   8
  -4  -7  -3 31.2780 10.0432   3
   4   7   3 36.5715 7.61692   8
  -5  -7  -3 135.870 17.8878   3
   5   7   3 156.894 15.4339   8
  -6  -7  -3 25.5495 10.3447   3
   6   7   3 51.3191 10.8948   8
  -7  -7  -3 24.2939 10.3225   3
   7   7   3 33.5811 9.83189   8
  -8  -7  -3 6.82168 7.07318   3
   8   7   3 1.92356 3.35703   8
  13  -8  -3 85.3621 15.5738   7
  13  -8  -3 82.6494 15.6125   4
  12  -8  -3 -0.7287 3.64437   4
  12  -8  -3 8.57518 4.52914   7
  11  -8  -3 3.93011 3.91627   7
  11  -8  -3 5.19662 3.75287   4
  10  -8  -3 5.45876 3.25206   4
  10  -8  -3 1.08401 2.38222   7
   9  -8  -3 4.43403 2.85067   4
   9  -8  -3 6.34079 3.24075   7
   8  -8  -3 43.7113 9.44561   7
   8  -8  -3 44.9781 8.54754   4
  -8   8   3 43.3633 8.41529   8
   7  -8  -3 422.679 20.3001   4
   7  -8  -3 404.225 22.4460   7
  -7   8   3 454.340 23.1281   8
   6  -8  -3 10.5941 3.97486   4
   6  -8  -3 11.8113 3.87722   3
   6  -8  -3 11.6760 4.82387   7
  -6   8   3 16.3293 5.62766   8
   5  -8  -3 0.98347 2.42602   3
   5  -8  -3 -0.2514 2.21470   7
   5  -8  -3 -0.9457 1.33731   4
  -5   8   3 0.10311 1.86565   8
   4  -8  -3 2.89169 2.99555   7
   4  -8  -3 1.10736 1.98125   6
   4  -8  -3 2.68252 2.84171   3
   4  -8  -3 2.60703 1.70770   4
  -4   8   3 -0.8815 2.23101   8
   3  -8  -3 888.951 21.5612   6
   3  -8  -3 908.480 31.9735   7
   3  -8  -3 924.811 35.5461   3
   3  -8  -3 931.975 23.7812   4
  -3   8   3 921.309 33.8797   8
   2  -8  -3 183.984 15.6578   3
   2  -8  -3 172.092 6.99366   6
   2  -8  -3 192.504 13.4482   7
  -2   8   3 174.600 14.1241   8
   1  -8  -3 138.460 7.42468   5
   1  -8  -3 144.026 11.4827   7
   1  -8  -3 143.606 14.6648   3
  -1   8   3 139.924 12.6810   8
   0  -8  -3 159.995 15.8913   3
   0  -8  -3 163.510 8.43496   5
   0   8   3 171.714 14.1476   8
  -1  -8  -3 39.6040 9.64338   3
   1   8   3 63.1712 11.7026   8
  -2  -8  -3 283.302 24.1436   3
   2   8   3 313.634 20.2594   8
  -3  -8  -3 72.7011 15.3664   3
   3   8   3 97.6771 11.6204   8
  -4  -8  -3 220.468 23.0915   3
   4   8   3 231.687 18.3757   8
  -5  -8  -3 323.824 29.0624   3
   5   8   3 376.767 24.3073   8
  -6  -8  -3 58.0899 15.3549   3
   6   8   3 42.4524 9.94975   8
  -7  -8  -3 32.6371 11.6651   3
   7   8   3 34.0762 9.07654   8
  13  -9  -3 -2.2844 3.68304   7
  13  -9  -3 0.51817 3.71079   4
  12  -9  -3 19.0484 6.61021   7
  12  -9  -3 15.5908 5.57410   4
  11  -9  -3 94.9475 14.0525   4
  11  -9  -3 77.0189 13.3485   7
  10  -9  -3 30.1574 7.67993   4
  10  -9  -3 30.3389 7.82718   7
   9  -9  -3 1.84017 3.51482   7
   9  -9  -3 6.43578 3.02839   4
  -9   9   3 5.78671 2.82707   8
   8  -9  -3 17.7404 5.24583   4
   8  -9  -3 20.4009 5.96246   7
  -8   9   3 16.8534 6.06509   8
   7  -9  -3 90.5700 10.7093   7
   7  -9  -3 87.0521 9.08172   4
  -7   9   3 90.4938 10.3616   8
   6  -9  -3 20.8532 6.56358   7
   6  -9  -3 18.9681 5.67717   3
   6  -9  -3 19.9085 4.99174   4
  -6   9   3 21.1094 6.75708   8
   5  -9  -3 26.8353 7.19976   7
   5  -9  -3 28.5237 5.83217   4
  -5   9   3 26.2323 7.59723   8
   4  -9  -3 11.6841 5.18697   3
   4  -9  -3 11.6352 3.33984   4
  -4   9   3 12.5041 4.49849   8
   3  -9  -3 988.468 23.2007   6
   3  -9  -3 1019.82 35.4173   7
   3  -9  -3 1015.54 39.9132   3
  -3   9   3 1027.75 37.9783   8
   2  -9  -3 12.3037 5.14618   3
   2  -9  -3 12.9439 4.38344   7
  -2   9   3 20.0567 6.51814   8
   1  -9  -3 71.9738 14.5282   3
  -1   9   3 92.6526 14.3047   8
   0  -9  -3 278.182 22.6689   3
   0   9   3 243.187 18.0878   8
  -1  -9  -3 156.150 18.1945   3
   1   9   3 168.921 15.3039   8
  -2  -9  -3 15.1430 7.45076   3
   2   9   3 19.4209 6.48255   8
  -3  -9  -3 29.5246 8.92723   3
   3   9   3 51.0513 11.5120   8
  -4  -9  -3 71.2653 15.0842   3
   4   9   3 95.7558 15.0818   8
  -5  -9  -3 8.09504 4.06310   5
  -5  -9  -3 4.11723 4.81187   3
   5   9   3 -0.1966 3.67592   8
  -6  -9  -3 0.62940 5.21731   3
  13 -10  -3 13.0913 6.67136   4
  13 -10  -3 -1.2744 6.28808   7
  12 -10  -3 10.5970 6.11560   7
  12 -10  -3 8.74949 6.39370   4
  11 -10  -3 89.6194 14.1775   7
  11 -10  -3 67.3521 11.6181   4
  10 -10  -3 68.5598 11.8120   7
  10 -10  -3 64.6593 11.2635   4
   9 -10  -3 21.2723 6.83198   4
   9 -10  -3 23.3038 6.14571   7
   8 -10  -3 185.236 14.2743   4
   8 -10  -3 165.458 15.7494   7
  -8  10   3 171.795 15.4511   8
   7 -10  -3 3.67600 3.11318   7
   7 -10  -3 3.62591 2.45477   4
  -7  10   3 -1.7781 2.25385   8
   6 -10  -3 21.5860 6.43416   7
   6 -10  -3 29.9910 6.35044   4
   6 -10  -3 32.8025 7.58130   3
  -6  10   3 24.2065 7.21556   8
   5 -10  -3 339.420 21.2408   7
   5 -10  -3 329.979 21.2164   3
  -5  10   3 379.788 23.0668   8
   4 -10  -3 219.381 18.0120   3
   4 -10  -3 209.475 16.1961   7
  -4  10   3 202.182 16.4825   8
   3 -10  -3 234.678 19.9168   3
   3 -10  -3 260.932 17.7648   7
  -3  10   3 252.753 18.9246   8
   1 -10  -3 10.2465 7.36431   3
   0 -10  -3 170.218 21.6713   3
   0  10   3 118.644 13.1849   8
  -1 -10  -3 2.64038 2.48845   5
  -1 -10  -3 19.6773 8.78848   3
   1  10   3 9.54226 4.93969   8
  -2 -10  -3 1.95307 4.15181   3
   2  10   3 1.64971 2.67577   8
  -3 -10  -3 24.1037 10.9113   3
   3  10   3 17.1499 5.96399   8
  -4 -10  -3 38.4137 12.0994   3
   4  10   3 41.0488 9.99620   8
  -5 -10  -3 15.4247 7.70725   3
   5  10   3 4.94979 4.65698   8
  12 -11  -3 21.2978 6.84105   4
  12 -11  -3 8.33607 6.87208   7
  11 -11  -3 25.4346 10.3556   7
  11 -11  -3 23.7833 6.87912   4
  10 -11  -3 89.3844 15.2804   7
  10 -11  -3 115.593 12.4782   4
   9 -11  -3 -6.2674 2.35283   7
   9 -11  -3 -0.4930 2.63227   4
   8 -11  -3 157.234 15.7415   7
  -8  11   3 149.200 19.2718   8
   7 -11  -3 10.5896 5.35828   7
   7 -11  -3 3.89028 3.77596   3
   7 -11  -3 7.12021 3.31862   4
  -7  11   3 2.58340 3.30623   8
   6 -11  -3 271.595 19.9138   7
   6 -11  -3 300.025 20.5691   3
   5 -11  -3 522.803 27.6136   7
   5 -11  -3 551.181 29.7779   3
  -5  11   3 517.377 35.0222   8
   4 -11  -3 1.44123 3.40045   3
   4 -11  -3 -1.4587 1.20441   4
  -4  11   3 6.55541 3.71017   8
   3 -11  -3 52.8314 9.44389   7
   3 -11  -3 45.8997 10.6132   3
  -3  11   3 61.6348 11.9905   8
   2 -11  -3 48.3534 12.3569   3
  -2  11   3 56.8459 10.6359   8
   1 -11  -3 254.353 23.9704   3
  -1  11   3 268.142 21.5220   8
   0 -11  -3 62.7495 15.6905   3
   0  11   3 85.8396 14.6189   8
  -1 -11  -3 19.5351 7.19762   3
   1  11   3 8.20316 4.67522   8
  -2 -11  -3 8.75574 7.76175   3
   2  11   3 20.4554 7.00483   8
  -3 -11  -3 23.2698 9.48507   3
   3  11   3 26.3892 7.98607   8
  -4 -11  -3 40.4942 15.7256   3
   4  11   3 29.0905 9.49915   8
  11 -12  -3 19.9009 6.13073   4
  11 -12  -3 5.91180 5.50589   7
 -11  12   3 -1.3388 6.78325   8
  10 -12  -3 31.5651 7.77711   4
  10 -12  -3 27.8378 8.81947   7
   9 -12  -3 4.16760 4.36004   7
   9 -12  -3 6.60476 4.19864   4
  -9  12   3 10.2504 4.20197   8
   8 -12  -3 2.37845 2.94765   4
   8 -12  -3 0.73898 3.43717   7
  -8  12   3 6.53512 4.34093   8
   7 -12  -3 31.6402 7.96809   7
   7 -12  -3 36.3702 8.21556   3
  -7  12   3 14.4556 5.98154   8
   6 -12  -3 37.1123 10.8538   3
   6 -12  -3 39.7320 8.88543   7
  -6  12   3 50.5027 9.90221   8
   5 -12  -3 -0.8285 1.97403   4
   5 -12  -3 11.0515 5.45702   7
   5 -12  -3 2.94812 5.21642   3
  -5  12   3 5.71195 4.19029   8
   4 -12  -3 78.9944 13.5222   7
  -4  12   3 69.0657 12.1543   8
   3 -12  -3 65.4181 11.3778   7
   3 -12  -3 71.1337 14.8442   3
  -3  12   3 91.4478 15.3641   8
   2 -12  -3 183.564 20.4310   3
  -2  12   3 189.781 18.4054   8
   1 -12  -3 10.6824 7.98061   3
  -1  12   3 20.8694 6.43732   8
   0 -12  -3 51.5697 14.6205   3
   0  12   3 58.4537 13.2754   8
  -1 -12  -3 7.24885 8.69489   3
   1  12   3 4.52003 3.23076   8
  -2 -12  -3 14.6330 8.20373   3
   2  12   3 13.3468 6.85385   8
   9 -13  -3 10.5928 4.12661   4
   9 -13  -3 7.66979 4.68428   7
  -9  13   3 5.78949 4.50169   8
   8 -13  -3 36.1604 9.59927   7
  -8  13   3 37.4851 10.0359   8
   7 -13  -3 282.883 20.9616   3
   7 -13  -3 267.466 21.9212   7
  -7  13   3 310.129 23.9346   8
   6 -13  -3 23.8114 7.20895   7
   6 -13  -3 18.9061 7.54854   3
  -6  13   3 36.3420 10.6671   8
   5 -13  -3 1.66183 5.59526   3
   5 -13  -3 5.34182 3.95636   7
  -5  13   3 3.81067 5.41436   8
   4 -13  -3 25.4786 7.45790   7
   4 -13  -3 5.62240 7.72408   3
   4 -13  -3 2.18964 3.03143   5
  -4  13   3 6.35480 4.29446   8
   3 -13  -3 55.6327 13.4914   3
  -3  13   3 56.6011 13.0040   8
   2 -13  -3 49.2616 12.9796   3
  -2  13   3 48.1784 16.6789   8
   1 -13  -3 -4.6694 8.29975   3
  -1  13   3 3.36592 4.28466   8
   0 -13  -3 39.9577 12.7081   3
   0  13   3 80.5137 16.7572   8
   6 -14  -3 21.8762 9.96332   3
   6 -14  -3 33.0433 9.98187   7
  -6  14   3 45.1690 10.1840   8
   5 -14  -3 7.24643 7.19054   7
   5 -14  -3 11.5298 7.28748   3
  -5  14   3 -0.5738 5.81450   8
   4 -14  -3 78.7072 15.8204   3
  -4  14   3 70.2466 13.2518   8
  -3  15  -4 44.4679 11.6219   8
   3 -15   4 35.0344 12.1359   3
  -4  15  -4 54.1574 11.7136   8
   4 -15   4 60.9291 13.9171   3
  -5  15  -4 4.71671 4.87612   8
   5 -15   4 -2.2447 5.95165   3
   5 -15   4 -0.8225 4.43873   7
  -6  15  -4 5.10887 5.19775   8
   6 -15   4 -8.9405 3.74375   7
   6 -15   4 5.38755 7.49099   3
  -7  15  -4 -9.3709 7.39602   8
   7 -15   4 -7.3816 6.51986   4
   7 -15   4 -4.6814 6.10555   3
   0  14  -4 16.9666 7.25001   8
   0 -14   4 20.0135 9.40770   3
  -1  14  -4 149.941 15.6506   8
   1 -14   4 127.586 22.1764   3
  -2  14  -4 0.01896 3.93029   8
   2 -14   4 5.13736 4.45153   7
   2 -14   4 -2.4420 5.18874   3
  -3  14  -4 131.252 14.0605   8
   3 -14   4 137.432 18.8342   3
  -4  14  -4 73.7271 12.1017   8
   4 -14   4 74.4898 15.1040   3
  -5  14  -4 -2.4702 2.72402   8
   5 -14   4 -0.1498 3.76287   4
   5 -14   4 33.1099 10.6864   3
   5 -14   4 3.76856 3.35351   7
   8 -14   4 95.6069 14.9740   7
   8 -14   4 97.8135 17.0649   3
   9 -14   4 27.1455 9.87380   3
   9 -14   4 35.5206 9.92628   7
   9 -14   4 21.6621 11.1534   2
   9 -14   4 9.00029 5.29608   4
  10 -14   4 8.26523 8.28193   2
  10 -14   4 20.4293 9.02530   3
  10 -14   4 15.3452 6.71923   7
  10 -14   4 15.0024 7.41461   4
   2  13  -4 15.8489 6.08230   8
   2  13  -4 26.2293 5.71596   6
  -2 -13   4 8.78533 8.10147   3
   1  13  -4 42.4360 7.73007   6
   1  13  -4 38.1115 10.0872   8
  -1 -13   4 55.4883 16.6135   3
   0  13  -4 -4.3501 2.53866   8
   0 -13   4 -1.4164 5.23537   3
  -1  13  -4 4.62113 3.51424   8
   1 -13   4 3.66837 5.33767   3
  -2  13  -4 34.9255 8.19285   8
   2 -13   4 30.9621 10.2635   3
  -3  13  -4 78.9361 9.99485   8
   3 -13   4 80.1504 16.7560   3
   4 -13   4 5.90625 5.61836   3
   4 -13   4 5.92910 2.67249   4
   4 -13   4 0.70357 2.80466   7
  -5  13  -4 1.38794 2.18453   8
   5 -13   4 -5.6763 4.50990   7
   5 -13   4 3.54495 2.53078   4
   5 -13   4 1.33208 4.46604   3
   6 -13   4 43.8643 10.4540   2
   6 -13   4 37.2882 8.95755   7
   6 -13   4 22.8055 8.23525   3
  -7  13  -4 3.32978 2.85000   8
   7 -13   4 5.97263 4.55793   7
   7 -13   4 -1.2001 5.01491   3
   7 -13   4 16.4304 7.28655   2
   8 -13   4 -0.2616 3.59132   7
   8 -13   4 -0.7177 4.24453   3
   8 -13   4 5.07863 3.34925   4
   8 -13   4 -3.3182 3.72326   2
   9 -13   4 21.2261 8.01502   7
   9 -13   4 24.4606 8.49933   2
   9 -13   4 7.72548 5.78409   4
   9 -13   4 21.7602 9.28270   3
  10 -13   4 88.0981 14.3439   4
  10 -13   4 97.0357 12.8055   3
  10 -13   4 73.4631 14.7332   2
  11 -13   4 -1.7063 6.34680   7
  11 -13   4 6.22593 5.11166   2
  11 -13   4 6.97835 6.50064   4
  11 -13   4 19.4061 7.62162   3
   4  12  -4 12.2088 4.48771   6
   4  12  -4 4.84680 5.85855   8
  -4 -12   4 24.2522 10.4983   3
   3  12  -4 0.33721 2.56627   6
   3  12  -4 7.60451 4.46325   8
  -3 -12   4 4.87457 6.01264   3
   2  12  -4 189.217 17.5110   8
   2  12  -4 168.031 11.7734   6
  -2 -12   4 191.385 22.3424   3
   1  12  -4 -6.3339 2.56275   8
   1  12  -4 -0.5083 2.70463   6
  -1 -12   4 -1.5747 4.06388   3
   0  12  -4 131.778 13.4569   8
   0 -12   4 160.426 19.5522   3
  -1  12  -4 46.7173 8.50864   6
  -1  12  -4 43.0135 8.74658   8
   1 -12   4 68.5226 15.6056   3
  -2  12  -4 72.0625 11.0775   8
   2 -12   4 97.7771 16.4619   3
  -3  12  -4 15.4502 5.34568   8
   3 -12   4 37.2237 9.50653   3
  -4  12  -4 8.52998 3.60365   8
   4 -12   4 8.29275 5.69295   2
   4 -12   4 5.37868 2.38631   4
   4 -12   4 0.38985 2.69621   7
   4 -12   4 5.30116 5.37150   3
  -5  12  -4 3.40394 2.32312   8
   5 -12   4 1.23084 3.46765   7
   5 -12   4 -5.1082 1.96222   4
   5 -12   4 -1.4393 3.10823   2
   6 -12   4 28.4339 6.11858   4
   6 -12   4 27.4703 9.08512   3
   6 -12   4 60.1904 10.8098   7
   6 -12   4 35.7637 9.80427   2
  -7  12  -4 -1.8684 1.63431   8
   7 -12   4 2.41456 2.48171   4
   7 -12   4 5.92001 4.84894   3
   7 -12   4 3.02666 4.76094   2
   8 -12   4 -1.2406 2.33076   4
   8 -12   4 4.83294 4.12667   2
   8 -12   4 -0.7482 2.22399   7
   9 -12   4 19.1198 5.19562   4
   9 -12   4 35.9095 10.6086   2
   9 -12   4 16.6742 6.19377   7
  10 -12   4 5.96337 4.43292   2
  10 -12   4 11.5921 5.03142   7
  10 -12   4 13.6790 6.43510   4
  11 -12   4 80.4386 14.9575   2
  11 -12   4 87.7681 14.9965   4
  12 -12   4 2.10390 5.46943   7
  12 -12   4 1.47956 4.77277   4
  12 -12   4 -1.1715 4.76361   2
   5  11  -4 2.12125 4.30478   8
   5  11  -4 4.75628 2.78961   6
  -5 -11   4 -2.4177 4.80602   3
   4  11  -4 140.703 15.2163   8
   4  11  -4 130.083 9.94652   6
  -4 -11   4 184.046 21.5327   3
   3  11  -4 69.0352 11.2332   8
   3  11  -4 55.8278 9.44275   6
  -3 -11   4 53.8752 12.3360   3
   2  11  -4 0.32387 2.80221   8
   2  11  -4 2.29772 2.82797   6
  -2 -11   4 5.29876 3.97643   3
   1  11  -4 381.745 22.9218   8
   1  11  -4 367.624 17.1440   6
  -1 -11   4 370.439 28.8555   3
   0  11  -4 8.22093 3.48579   6
   0  11  -4 13.3266 4.93653   8
   0 -11   4 10.3330 5.80142   3
  -1  11  -4 16.6289 4.76195   6
  -1  11  -4 6.08942 3.89175   8
   1 -11   4 4.12070 4.68104   3
   1 -11   4 1.23596 1.81557   7
  -2  11  -4 6.25374 3.47924   8
  -2  11  -4 11.7746 4.26914   6
   2 -11   4 1.66304 1.84634   4
   2 -11   4 4.14480 3.50268   3
  -3  11  -4 210.464 14.4728   8
   3 -11   4 176.889 17.5822   2
   3 -11   4 203.029 18.7236   3
   3 -11   4 192.134 13.0292   7
  -4  11  -4 599.926 24.4957   8
   4 -11   4 583.435 31.9408   3
   4 -11   4 571.505 24.5195   7
   4 -11   4 591.989 32.5366   2
   5 -11   4 14.1876 5.68479   3
   5 -11   4 3.76497 2.30875   5
   5 -11   4 13.8088 4.83343   7
   5 -11   4 9.37344 5.30074   2
   6 -11   4 69.9696 11.4331   7
   6 -11   4 48.2686 11.1399   2
   7 -11   4 11.9668 4.97127   7
   7 -11   4 6.05027 5.94990   2
   8 -11   4 120.293 14.9895   2
   8 -11   4 98.8220 11.3618   7
   8 -11   4 90.9255 10.3847   4
   9 -11   4 3.07123 3.87681   2
   9 -11   4 3.51503 3.09081   4
  10 -11   4 36.1144 8.35010   4
  10 -11   4 43.4370 11.4574   2
  10 -11   4 33.8130 8.66716   7
  11 -11   4 81.5898 16.0157   2
  11 -11   4 87.0220 14.1769   4
  11 -11   4 70.6275 11.7636   7
  12 -11   4 107.244 14.3405   2
  12 -11   4 86.0698 15.2695   7
  12 -11   4 110.646 17.8639   4
   7  10  -4 87.7264 7.91787   6
   7  10  -4 92.2992 21.1855   8
  -7 -10   4 101.635 20.8960   3
   6  10  -4 96.7086 21.7456   8
   6  10  -4 90.6011 7.79127   6
  -6 -10   4 70.0440 18.0641   3
   5  10  -4 36.8179 10.1535   8
   5  10  -4 28.0810 4.81927   6
  -5 -10   4 34.0284 12.4816   3
   4  10  -4 30.6322 7.22896   8
   4  10  -4 43.2449 6.49971   6
  -4 -10   4 55.4402 13.6604   3
   3  10  -4 12.2816 5.08271   8
   3  10  -4 14.8737 3.83019   6
  -3 -10   4 11.6537 5.33704   3
   2  10  -4 28.0383 5.17708   6
  -2 -10   4 13.3551 7.14684   3
   1  10  -4 476.753 18.6198   6
   1  10  -4 504.332 25.2130   8
  -1 -10   4 495.968 31.4216   3
   0  10  -4 223.244 15.6802   8
   0  10  -4 202.988 11.9259   6
   0 -10   4 225.438 20.3179   3
  -1  10  -4 2.07912 1.79119   6
  -1  10  -4 2.13484 2.10755   8
   1 -10   4 0.61589 1.13674   7
   1 -10   4 0.86105 1.12389   4
   1 -10   4 1.05855 2.59998   3
  -2  10  -4 77.3487 8.55924   8
  -2  10  -4 69.8380 7.34322   6
   2 -10   4 90.0659 11.8753   2
   2 -10   4 60.0182 11.4743   3
  -3  10  -4 275.280 15.3358   8
   3 -10   4 235.141 10.2393   4
   3 -10   4 260.841 20.1510   3
   3 -10   4 270.173 20.1950   2
   3 -10   4 270.578 14.9104   7
  -4  10  -4 49.0416 6.30732   8
   4 -10   4 47.9454 10.4220   2
   4 -10   4 35.8176 6.43833   7
   5 -10   4 105.610 10.2715   7
   5 -10   4 88.6982 15.3536   2
   6 -10   4 23.9874 7.24145   2
   6 -10   4 21.9317 6.61417   7
   7 -10   4 324.501 23.1416   2
   7 -10   4 326.071 20.0170   7
   8 -10   4 191.834 17.8632   2
   8 -10   4 171.793 14.7573   7
   9 -10   4 16.6788 5.08602   7
   9 -10   4 22.0694 6.60373   4
   9 -10   4 19.0925 8.45475   2
  10 -10   4 29.8247 7.34022   4
  10 -10   4 23.3255 6.82385   2
  10 -10   4 31.7673 7.96960   7
  11 -10   4 40.2061 8.83442   7
  11 -10   4 34.5898 9.77577   2
  11 -10   4 41.4922 9.25976   4
  12 -10   4 146.371 16.1379   2
  12 -10   4 164.461 16.8251   4
  12 -10   4 161.634 17.0328   7
  13 -10   4 8.17555 6.34206   2
  13 -10   4 11.5383 5.99323   4
  13 -10   4 3.41746 5.19539   7
   8   9  -4 12.6314 3.75196   6
   8   9  -4 -0.7796 4.70491   8
  -8  -9   4 9.65562 7.10955   3
   7   9  -4 6.76557 2.62748   6
   7   9  -4 7.91135 4.77158   8
  -7  -9   4 -1.1030 8.07643   3
   6   9  -4 21.5838 4.46414   6
   6   9  -4 15.7361 5.38527   8
  -6  -9   4 23.2701 8.66484   3
   5   9  -4 82.0192 7.18298   6
   5   9  -4 100.125 15.7458   8
  -5  -9   4 73.3230 15.9671   3
   4   9  -4 199.423 16.4805   8
   4   9  -4 180.366 10.3888   6
  -4  -9   4 177.647 19.2254   3
   3   9  -4 170.082 9.95654   6
   3   9  -4 164.970 14.4984   8
  -3  -9   4 166.170 18.3160   3
   2   9  -4 70.5050 6.30800   6
   2   9  -4 70.1225 9.16609   8
  -2  -9   4 83.7713 16.0387   3
   1   9  -4 -0.0715 1.49822   6
   1   9  -4 0.01124 1.22620   8
  -1  -9   4 -4.9343 2.49121   3
   0   9  -4 96.4117 9.62667   8
   0   9  -4 90.0607 7.21999   6
   0  -9   4 95.0530 12.4418   3
  -1   9  -4 952.429 31.4967   8
  -1   9  -4 946.425 27.4810   6
   1  -9   4 976.128 26.5499   7
   1  -9   4 963.066 21.7450   4
   1  -9   4 985.437 39.9010   3
   1  -9   4 955.365 37.7870   2
  -2   9  -4 209.774 12.9743   8
  -2   9  -4 199.206 11.7223   6
   2  -9   4 232.040 17.8234   3
   2  -9   4 214.484 8.68326   4
   2  -9   4 226.155 12.0661   7
   2  -9   4 228.519 17.5505   2
  -3   9  -4 89.1143 7.95233   8
  -3   9  -4 80.0544 7.73981   6
   3  -9   4 85.1944 5.64917   4
   3  -9   4 113.116 12.3385   2
   3  -9   4 91.6985 8.46142   7
  -4   9  -4 152.565 9.99617   8
   4  -9   4 171.734 15.2631   2
   4  -9   4 174.256 12.1381   7
   4  -9   4 154.587 7.43987   5
  -5   9  -4 36.4541 4.59118   8
   5  -9   4 30.4371 7.33318   2
   5  -9   4 36.1819 4.07918   5
   5  -9   4 34.7917 6.99900   7
  -6   9  -4 -0.6386 1.14718   8
   6  -9   4 2.46826 2.80695   7
   6  -9   4 9.62480 4.96239   2
   7  -9   4 93.9738 11.9312   2
   7  -9   4 88.0009 9.90777   7
   8  -9   4 227.936 17.2096   7
   8  -9   4 239.743 19.0784   2
   9  -9   4 134.633 14.2514   2
   9  -9   4 109.614 12.5167   7
  10  -9   4 66.0725 12.6485   2
  10  -9   4 79.1229 13.0289   4
  10  -9   4 62.0918 12.2476   7
  11  -9   4 157.102 15.4700   7
  11  -9   4 157.206 16.1228   2
  11  -9   4 142.955 14.7344   4
  12  -9   4 319.896 22.9039   2
  12  -9   4 323.248 22.9107   4
  12  -9   4 340.593 23.7719   7
  13  -9   4 73.6376 12.4036   2
  13  -9   4 76.9075 13.8187   7
  13  -9   4 69.4850 12.9511   4
   9   8  -4 10.7273 3.84527   6
   9   8  -4 13.9337 5.74555   8
  -9  -8   4 6.40538 9.83361   3
   8   8  -4 50.3011 11.3432   8
   8   8  -4 45.1872 6.87067   6
  -8  -8   4 34.4342 12.0747   3
   7   8  -4 67.8777 13.1128   8
   7   8  -4 67.8712 6.57464   6
  -7  -8   4 41.1721 10.9947   3
   6   8  -4 276.396 13.3861   6
   6   8  -4 261.762 19.9970   8
  -6  -8   4 237.736 22.9173   3
   5   8  -4 8.31891 4.28020   8
   5   8  -4 15.4321 3.65113   6
  -5  -8   4 13.3123 6.64600   3
   4   8  -4 282.948 12.7964   6
   4   8  -4 279.535 18.8511   8
  -4  -8   4 315.679 24.1713   3
   3   8  -4 47.4882 5.08265   6
  -3  -8   4 57.5975 11.7485   3
   2   8  -4 293.418 12.3970   6
  -2  -8   4 297.707 21.5967   3
   1   8  -4 151.207 11.9433   8
   1   8  -4 158.129 8.85618   6
  -1  -8   4 149.444 14.9026   3
   0   8  -4 1555.47 42.0885   8
   0   8  -4 1496.99 34.7554   6
   0  -8   4 1540.47 32.6709   7
   0  -8   4 1489.30 49.2522   3
   0  -8   4 1553.69 47.2836   2
   0  -8   4 1483.93 30.0033   4
  -1   8  -4 817.798 23.3480   6
  -1   8  -4 786.334 26.3780   8
   1  -8   4 792.112 22.3776   7
   1  -8   4 793.815 32.9918   3
   1  -8   4 815.394 32.1880   2
   1  -8   4 761.179 18.6338   4
  -2   8  -4 3.01786 2.15022   6
  -2   8  -4 2.56523 1.99649   8
   2  -8   4 1.65535 2.68111   2
   2  -8   4 4.48404 2.38645   7
   2  -8   4 5.80302 1.73121   4
  -3   8  -4 44.6476 5.16374   8
  -3   8  -4 35.8372 5.53202   6
   3  -8   4 48.3341 3.46401   5
   3  -8   4 43.1263 9.19808   2
   3  -8   4 45.4299 5.62058   7
  -4   8  -4 49.6864 5.07536   8
   4  -8   4 49.6133 8.07523   7
   4  -8   4 40.5061 4.05593   5
   4  -8   4 51.0107 10.0220   2
  -5   8  -4 424.578 14.8324   8
   5  -8   4 427.472 19.9719   7
   5  -8   4 441.930 23.5585   2
   5  -8   4 417.256 15.1910   5
   6  -8   4 471.898 22.3335   7
   6  -8   4 506.496 25.7131   2
   7  -8   4 3.03924 3.59076   2
   7  -8   4 10.5481 4.49923   7
   8  -8   4 173.210 14.8433   7
   8  -8   4 178.436 15.6790   2
   9  -8   4 58.4685 10.1930   2
   9  -8   4 74.1572 11.9272   7
  10  -8   4 66.9606 11.0546   2
  10  -8   4 67.8632 11.5530   7
  11  -8   4 7.70350 4.71661   7
  11  -8   4 5.74428 4.84791   2
  11  -8   4 7.62698 4.11446   4
  12  -8   4 6.70604 4.46479   2
  12  -8   4 -0.1194 2.51348   4
  12  -8   4 -7.8095 3.25637   7
  13  -8   4 163.814 16.7878   2
  13  -8   4 174.546 17.7882   7
   9   7  -4 12.4500 3.99364   6
   9   7  -4 15.8239 6.05888   8
  -9  -7   4 15.6961 7.23274   3
   8   7  -4 96.8725 12.2392   8
   8   7  -4 66.3043 7.22279   6
  -8  -7   4 73.9836 15.7255   3
   7   7  -4 -0.7980 1.81722   6
  -7  -7   4 -3.7886 4.04064   3
   6   7  -4 34.2472 5.37125   6
  -6  -7   4 32.4697 9.73276   3
   5   7  -4 11.4000 3.11129   6
  -5  -7   4 9.23289 5.17654   3
   4   7  -4 519.913 17.5711   6
  -4  -7   4 455.933 27.9193   3
   3   7  -4 18.0161 3.94965   6
  -3  -7   4 18.5422 6.37933   3
   2   7  -4 696.413 19.8055   6
  -2  -7   4 673.578 17.0236   4
  -2  -7   4 728.040 32.3506   3
   1   7  -4 243.434 10.4685   6
  -1  -7   4 267.820 18.1804   3
  -1  -7   4 232.651 19.5707   2
  -1  -7   4 239.217 8.71913   4
   0   7  -4 19.1147 3.84293   6
   0  -7   4 14.9225 4.48386   3
   0  -7   4 24.0887 3.27887   4
   0  -7   4 14.6353 4.83005   2
   0  -7   4 22.7109 3.47148   7
   1  -7   4 321.627 12.5611   7
   1  -7   4 324.255 10.4067   4
  -2   7  -4 13.4101 3.41231   8
   2  -7   4 13.8769 2.47187   4
   2  -7   4 13.5811 4.37559   2
   2  -7   4 14.8923 3.63380   7
  -3   7  -4 150.935 8.54924   8
  -3   7  -4 150.589 9.39503   6
   3  -7   4 154.328 6.69648   5
   3  -7   4 163.770 10.2540   7
  -4   7  -4 603.959 17.4993   8
   4  -7   4 611.162 22.3549   7
   4  -7   4 618.951 17.4220   5
   4  -7   4 587.855 25.8399   2
   5  -7   4 38.1604 7.79715   2
   5  -7   4 37.3642 6.82160   7
   5  -7   4 37.2681 4.44174   5
   6  -7   4 156.089 13.4416   2
   6  -7   4 152.200 11.7708   7
   7  -7   4 30.1877 6.44380   7
   7  -7   4 36.8808 8.86693   2
   8  -7   4 63.0240 10.4458   7
   8  -7   4 63.5277 11.4617   2
   9  -7   4 51.1108 9.07267   2
   9  -7   4 34.4845 7.17280   7
  10  -7   4 -0.1331 2.90816   2
  10  -7   4 4.57188 3.59371   7
  11  -7   4 3.17931 2.83798   7
  11  -7   4 5.30007 3.57366   2
  11  -7   4 3.20163 3.10467   4
  12  -7   4 166.466 16.3334   7
  12  -7   4 153.479 15.3796   4
  13  -7   4 57.4710 10.1669   2
  13  -7   4 62.9520 11.5996   4
  13  -7   4 76.0800 12.8981   7
  14  -7   4 -6.3407 3.76976   7
  14  -7   4 4.27375 3.95248   4
  14  -7   4 16.5827 6.51486   2
  10   6  -4 50.1274 7.97249   6
  10   6  -4 54.2554 15.9797   8
   9   6  -4 95.1409 9.05150   6
  -9  -6   4 100.609 17.8855   3
   7   6  -4 5.12219 2.52516   6
  -7  -6   4 0.75510 2.27233   3
   6   6  -4 324.884 15.9630   2
   6   6  -4 359.883 15.9980   6
  -6  -6   4 389.438 25.8592   3
   5   6  -4 80.7102 8.06266   2
   5   6  -4 107.614 7.98593   6
  -5  -6   4 79.7160 11.1061   3
   4   6  -4 132.337 8.34216   6
   4   6  -4 122.068 5.43997   4
   4   6  -4 114.661 9.36765   2
  -4  -6   4 116.068 6.58332   4
  -4  -6   4 129.855 13.4423   3
   3   6  -4 83.5476 6.22044   6
   3   6  -4 73.3565 7.41140   2
  -3  -6   4 78.9723 5.28902   4
  -3  -6   4 91.6622 10.7639   3
   2   6  -4 0.44484 1.89968   2
  -2  -6   4 1.44682 2.47474   3
  -2  -6   4 2.16233 1.13625   4
   1   6  -4 581.856 22.3725   2
   1   6  -4 605.419 16.9060   6
  -1  -6   4 551.312 28.2313   3
  -1  -6   4 614.865 23.4315   2
  -1  -6   4 570.236 15.0114   4
  -1  -6   4 566.984 19.5533   6
   0   6  -4 230.259 9.54046   6
   0   6  -4 218.416 13.2095   2
   0  -6   4 233.158 8.35935   4
   0  -6   4 233.897 10.7654   6
   0  -6   4 251.910 14.4725   2
   0  -6   4 251.190 9.14912   7
  -1   6  -4 63.8344 4.96645   6
  -1   6  -4 60.4695 6.85916   2
   1  -6   4 63.3690 7.50821   2
   1  -6   4 74.5503 5.37603   6
   1  -6   4 63.0376 5.13626   7
   1  -6   4 60.9531 4.08831   4
  -2   6  -4 175.687 12.0670   2
  -2   6  -4 188.593 9.25883   6
   2  -6   4 197.797 7.93080   4
   2  -6   4 190.913 8.44210   6
   2  -6   4 205.164 13.2010   2
   2  -6   4 198.874 10.1329   7
  -3   6  -4 189.936 12.8644   2
  -3   6  -4 206.839 8.90062   8
  -3   6  -4 200.362 9.43824   5
  -3   6  -4 180.466 9.73189   6
   3  -6   4 190.879 8.41987   6
   3  -6   4 203.479 7.97683   5
   3  -6   4 190.493 10.9209   7
   3  -6   4 196.309 13.3715   2
  -4   6  -4 138.065 8.67646   5
  -4   6  -4 139.196 11.5338   2
  -4   6  -4 134.988 6.31043   8
   4  -6   4 128.787 8.38258   6
   4  -6   4 146.274 10.0777   7
   4  -6   4 134.322 11.3088   2
   4  -6   4 144.695 7.58277   5
   5  -6   4 54.1080 10.0522   7
   5  -6   4 45.4323 4.86705   5
   5  -6   4 63.6410 10.6401   2
   6  -6   4 228.141 14.2543   7
   6  -6   4 205.497 14.9070   2
   7  -6   4 435.687 22.4057   2
   7  -6   4 430.793 21.0719   7
   8  -6   4 48.2903 8.33041   7
   8  -6   4 51.7581 8.75498   2
   9  -6   4 226.620 17.0329   2
   9  -6   4 242.665 16.9966   7
  10  -6   4 274.568 19.2014   2
  10  -6   4 294.519 19.3561   7
  11  -6   4 18.6308 5.78548   2
  11  -6   4 7.29527 3.60979   7
  11  -6   4 18.2499 5.36627   4
  12  -6   4 3.52329 3.58355   7
  12  -6   4 8.28649 4.49192   4
  12  -6   4 -3.6219 2.36438   2
  13  -6   4 142.036 15.7982   7
  13  -6   4 151.065 15.6435   4
  13  -6   4 142.263 14.6306   2
  14  -6   4 54.0855 12.0249   4
  14  -6   4 26.3515 9.43863   2
  14  -6   4 28.2293 7.92493   7
  11   5  -4 53.9813 8.63371   6
  11   5  -4 44.7282 9.30719   8
  10   5  -4 65.3114 6.05640   4
  10   5  -4 69.7069 10.4592   6
   9   5  -4 25.8392 4.23910   4
   9   5  -4 38.4547 6.86172   6
  -9  -5   4 21.0362 7.56260   3
   8   5  -4 -3.0843 1.61627   4
   8   5  -4 2.09978 2.64880   6
  -8  -5   4 5.71413 4.18149   3
   7   5  -4 388.000 13.2324   4
   7   5  -4 366.042 17.5162   6
   7   5  -4 368.669 13.7916   5
  -7  -5   4 364.125 24.5845   3
   6   5  -4 15.8806 4.16707   6
   6   5  -4 12.3699 2.67798   4
   6   5  -4 6.75643 2.43853   5
  -6  -5   4 9.50022 4.65704   3
   5   5  -4 571.019 20.2026   6
   5   5  -4 560.239 15.5942   5
   5   5  -4 602.537 15.8246   4
  -5  -5   4 572.485 17.9200   4
  -5  -5   4 587.794 28.5102   3
   4   5  -4 125.496 8.51953   2
   4   5  -4 105.228 5.42455   4
   4   5  -4 96.9839 7.23559   6
  -4  -5   4 100.403 6.46021   4
  -4  -5   4 108.072 11.4205   3
   3   5  -4 2109.60 46.8539   2
   3   5  -4 2151.81 38.2999   4
   3   5  -4 2042.25 43.3580   6
  -3  -5   4 2143.60 55.8062   3
  -3  -5   4 2056.91 41.1072   4
   2   5  -4 1008.33 24.2981   6
   2   5  -4 972.596 28.1377   2
   2   5  -4 1022.00 20.9802   4
  -2  -5   4 995.799 22.8014   4
  -2  -5   4 982.304 28.1768   6
  -2  -5   4 1039.83 33.9921   3
  -2  -5   4 1022.46 29.4718   2
   1   5  -4 1.47812 1.12030   6
   1   5  -4 2.51217 2.14986   2
  -1  -5   4 1.83143 1.10974   4
  -1  -5   4 0.78611 1.44207   6
  -1  -5   4 3.40024 2.30600   2
   0   5  -4 15.2606 2.50219   6
   0   5  -4 23.1874 4.83140   2
   0  -5   4 16.0812 3.97818   2
   0  -5   4 11.0774 2.44335   6
   0  -5   4 17.0106 2.85836   7
  -1   5  -4 65.3834 3.78944   5
  -1   5  -4 65.2478 4.67923   6
  -1   5  -4 61.5154 6.51821   2
   1  -5   4 75.2370 7.31560   2
   1  -5   4 62.6268 4.90757   7
   1  -5   4 62.4648 4.66367   6
   1  -5   4 66.9397 4.15270   4
  -2   5  -4 1663.57 33.0103   5
  -2   5  -4 1644.74 34.2254   6
  -2   5  -4 1610.97 41.6515   2
   2  -5   4 1623.77 32.6000   6
   2  -5   4 1657.59 41.9455   2
   2  -5   4 1640.34 30.1848   5
   2  -5   4 1672.14 36.7615   7
   2  -5   4 1660.10 32.3938   4
  -3   5  -4 453.032 14.9741   5
  -3   5  -4 498.089 25.3822   2
  -3   5  -4 434.207 15.0070   6
   3  -5   4 444.593 13.0307   5
   3  -5   4 446.141 16.7883   7
   3  -5   4 471.273 19.9306   2
   3  -5   4 428.614 14.7654   6
  -4   5  -4 56.3583 5.49949   5
  -4   5  -4 52.6340 6.84969   2
   4  -5   4 58.9175 4.90242   5
   4  -5   4 53.8536 4.33374   6
   4  -5   4 52.2990 5.95679   7
  -5   5  -4 1656.38 40.3028   5
  -5   5  -4 1630.77 45.8427   2
   5  -5   4 1612.62 34.7792   6
   5  -5   4 1651.37 42.1036   7
   5  -5   4 1671.22 37.2136   5
   5  -5   4 1657.53 44.9291   2
   6  -5   4 1643.07 43.6192   7
  -7   5  -4 88.0973 8.99923   5
   7  -5   4 77.5467 9.20456   2
   7  -5   4 83.1497 8.74756   7
   8  -5   4 72.2679 8.73308   7
   8  -5   4 72.5200 9.16184   2
   9  -5   4 119.379 12.0225   2
   9  -5   4 118.058 11.6829   7
  10  -5   4 241.502 17.6707   7
  10  -5   4 233.638 17.2625   2
  11  -5   4 319.220 20.5232   2
  11  -5   4 303.358 20.2746   7
  11  -5   4 293.939 20.2419   4
  12  -5   4 -0.9438 2.99168   7
  12  -5   4 -2.2343 3.34382   2
  12  -5   4 -7.6095 2.60662   4
  13  -5   4 58.7954 11.8049   4
  13  -5   4 63.4035 11.6095   7
  13  -5   4 80.4472 10.4137   2
  14  -5   4 12.7701 5.92813   7
  14  -5   4 18.4403 8.34545   4
  11   4  -4 0.56572 3.07559   6
  11   4  -4 0.48979 2.42307   4
  10   4  -4 37.9735 6.98173   6
  10   4  -4 40.3160 6.13149   4
   9   4  -4 48.2575 6.45513   4
   9   4  -4 38.7767 9.09928   6
   8   4  -4 336.139 14.0847   4
   8   4  -4 358.967 18.5107   6
  -8  -4   4 332.651 22.8248   3
   7   4  -4 199.357 11.1293   5
   7   4  -4 199.871 10.2357   4
   7   4  -4 199.845 12.9991   6
  -7  -4   4 208.536 17.2166   3
   6   4  -4 489.914 19.6968   6
   6   4  -4 447.971 16.1058   5
   6   4  -4 454.695 15.1165   4
  -6  -4   4 454.523 24.2877   3
   5   4  -4 13.7827 2.85193   4
   5   4  -4 6.24171 2.18050   5
   5   4  -4 8.94518 2.85366   6
  -5  -4   4 7.35376 2.59815   4
  -5  -4   4 12.7615 4.55872   3
   4   4  -4 111.141 9.93376   6
   4   4  -4 108.092 5.98293   4
   4   4  -4 113.252 7.21052   2
   4   4  -4 106.705 6.71601   5
  -4  -4   4 105.656 10.2225   3
  -4  -4   4 110.764 7.03663   4
   3   4  -4 133.690 8.07642   2
   3   4  -4 144.922 6.37057   5
   3   4  -4 133.932 7.96528   6
   3   4  -4 149.620 6.53857   4
  -3  -4   4 119.228 8.91963   6
  -3  -4   4 121.287 10.3815   3
  -3  -4   4 128.609 7.07676   4
   2   4  -4 3.02495 1.42778   6
   2   4  -4 2.91140 1.11605   4
   2   4  -4 2.87346 1.60555   2
  -2  -4   4 2.10222 1.93691   3
  -2  -4   4 1.66574 1.26797   4
  -2  -4   4 2.93750 1.66977   6
  -2  -4   4 0.41361 1.01699   2
   1   4  -4 1474.03 35.0522   2
   1   4  -4 1472.97 30.3033   6
   1   4  -4 1527.69 28.4179   4
  -1  -4   4 1470.73 33.3355   6
  -1  -4   4 1496.82 35.2442   2
  -1  -4   4 1452.43 29.3055   4
   0   4  -4 145.623 9.05381   2
   0   4  -4 157.945 5.17188   5
   0   4  -4 156.410 6.76029   6
   0  -4   4 160.664 7.71641   6
   0  -4   4 159.112 6.92771   7
   0  -4   4 170.359 9.89030   2
   0  -4   4 154.015 6.43575   4
  -1   4  -4 597.011 15.3037   6
  -1   4  -4 617.159 20.9123   2
  -1   4  -4 595.743 14.2933   5
   1  -4   4 621.284 17.1917   7
   1  -4   4 596.268 14.8132   4
   1  -4   4 625.445 20.9359   2
  -2   4  -4 1558.43 31.7886   6
  -2   4  -4 1554.44 39.1347   2
  -2   4  -4 1594.68 31.9255   5
   2  -4   4 1607.24 31.1029   4
   2  -4   4 1554.39 38.9247   2
   2  -4   4 1510.66 29.3020   5
   2  -4   4 1597.12 35.0121   7
   2  -4   4 1625.23 30.7513   6
  -3   4  -4 686.463 19.2578   5
  -3   4  -4 694.412 24.2396   2
  -3   4  -4 650.714 18.3553   6
   3  -4   4 662.725 20.8284   7
   3  -4   4 663.195 17.1018   5
   3  -4   4 671.305 23.7882   2
   3  -4   4 679.607 16.5529   6
  -4   4  -4 199.942 12.7963   2
  -4   4  -4 182.361 9.94654   5
   4  -4   4 186.729 12.3309   2
   4  -4   4 189.523 8.90368   5
   4  -4   4 184.557 7.92303   6
  -5   4  -4 58.9913 7.43471   2
  -5   4  -4 63.3634 6.53937   5
   5  -4   4 63.4039 4.80396   6
   5  -4   4 58.2919 7.21614   2
   5  -4   4 59.1408 5.48204   5
  -6   4  -4 59.6408 11.7776   5
  -6   4  -4 68.8697 8.41050   2
   6  -4   4 81.2847 8.24812   7
   6  -4   4 90.0570 6.23533   6
   6  -4   4 101.842 9.51761   2
  -7   4  -4 14.3589 3.99239   5
   7  -4   4 21.0886 5.46202   2
   7  -4   4 13.5818 3.72947   7
  -8   4  -4 609.469 26.4167   5
   8  -4   4 608.051 25.9221   7
   8  -4   4 611.706 26.9529   2
   9  -4   4 1.75657 2.31817   7
   9  -4   4 3.09209 2.72564   2
  10  -4   4 71.2453 9.45969   2
  10  -4   4 60.2730 11.0189   7
  11  -4   4 36.3516 7.69797   4
  11  -4   4 66.7146 11.5809   2
  11  -4   4 49.3436 13.4122   7
  12  -4   4 14.3929 5.96436   7
  12  -4   4 15.4327 5.80739   2
  12  -4   4 17.8127 6.08716   4
  13  -4   4 186.277 16.9641   4
  13  -4   4 162.295 15.5640   2
  13  -4   4 153.685 15.5201   7
  14  -4   4 39.6179 9.99549   4
  12   3  -4 2.09730 5.51732   6
  12   3  -4 8.51560 2.97550   4
  11   3  -4 125.801 12.3515   6
  11   3  -4 120.347 9.58747   4
  10   3  -4 8.02211 3.41345   4
  10   3  -4 11.3084 4.32626   6
 -10  -3   4 1.82973 2.90283   3
   9   3  -4 420.211 17.8048   4
   9   3  -4 401.722 21.2444   6
   8   3  -4 68.5353 8.19034   6
   8   3  -4 70.1130 6.62558   4
  -8  -3   4 67.4408 11.1387   3
   7   3  -4 9.50744 3.18796   6
   7   3  -4 14.9869 3.65016   4
  -7  -3   4 9.11120 4.69069   3
   6   3  -4 160.240 8.96122   4
   6   3  -4 160.975 11.2190   6
  -6  -3   4 183.286 13.6261   3
  -6  -3   4 159.962 9.91554   4
   5   3  -4 1896.44 41.1675   5
   5   3  -4 1883.37 44.6612   6
   5   3  -4 1977.98 39.9009   4
  -5  -3   4 1834.07 41.5702   4
  -5  -3   4 1924.23 49.6630   3
   4   3  -4 1300.90 29.3102   5
   4   3  -4 1265.81 32.2388   6
   4   3  -4 1276.22 28.0041   4
  -4  -3   4 1338.59 36.8186   3
  -4  -3   4 1189.17 34.5634   6
  -4  -3   4 1276.37 30.1321   4
   3   3  -4 0.69256 0.88903   4
   3   3  -4 -0.3281 1.43755   2
   3   3  -4 1.46118 1.33099   6
  -3  -3   4 -1.3747 0.96000   3
  -3  -3   4 -0.8462 0.88869   6
  -3  -3   4 0.29409 1.20999   4
  -3  -3   4 0.55706 1.07072   2
   2   3  -4 31.5179 3.54042   6
   2   3  -4 30.0789 3.55098   2
   2   3  -4 30.9604 2.90563   4
  -2  -3   4 32.2664 3.59429   2
  -2  -3   4 36.2250 5.66964   6
  -2  -3   4 31.7278 3.19662   4
   1   3  -4 19.7898 3.94233   2
   1   3  -4 13.8276 2.16105   4
   1   3  -4 20.3662 3.21425   6
  -1  -3   4 17.3211 3.31627   6
  -1  -3   4 16.3903 3.19560   2
  -1  -3   4 14.5373 2.51698   4
   0   3  -4 3060.17 62.0186   2
   0   3  -4 2886.30 50.4771   6
   0   3  -4 2953.83 50.3481   4
   0   3  -4 2896.94 48.2358   5
   0  -3   4 2929.70 50.7212   4
   0  -3   4 2852.47 56.4301   2
   0  -3   4 2907.77 52.5498   6
  -1   3  -4 239.657 8.04606   6
  -1   3  -4 251.247 8.13067   5
  -1   3  -4 263.218 12.4002   2
   1  -3   4 246.172 8.36953   6
   1  -3   4 242.058 8.17863   4
  -2   3  -4 834.165 25.7743   2
  -2   3  -4 874.257 20.3050   5
  -2   3  -4 856.165 19.3820   6
  -2   3  -4 851.743 19.6621   8
   2  -3   4 876.040 18.4775   6
   2  -3   4 826.109 19.0246   4
  -3   3  -4 1454.36 38.0335   2
  -3   3  -4 1423.03 30.3172   6
  -3   3  -4 1429.61 31.8635   5
   3  -3   4 1496.27 29.9788   5
   3  -3   4 1438.64 28.1029   6
  -4   3  -4 1651.50 43.5771   2
  -4   3  -4 1689.08 38.3126   5
   4  -3   4 1703.01 35.6730   5
   4  -3   4 1676.01 42.8833   2
   4  -3   4 1701.31 32.9920   6
  -5   3  -4 21.3591 5.47168   2
  -5   3  -4 16.4104 3.58324   5
   5  -3   4 22.1372 4.68102   7
   5  -3   4 26.9246 3.11540   6
   5  -3   4 18.8681 4.27161   2
   5  -3   4 30.5451 4.90347   5
  -6   3  -4 339.986 17.0077   5
   6  -3   4 365.625 19.9850   3
   6  -3   4 351.067 12.9587   6
   6  -3   4 331.683 20.3482   7
   6  -3   4 359.185 18.6090   2
  -7   3  -4 822.918 29.5623   5
   7  -3   4 804.034 28.9163   7
   7  -3   4 858.986 32.0725   2
  -8   3  -4 707.394 28.8791   5
   8  -3   4 709.285 28.1236   7
   8  -3   4 736.754 29.8472   2
  -9   3  -4 189.098 15.3061   5
   9  -3   4 239.198 16.2596   7
   9  -3   4 207.349 15.7321   2
  10  -3   4 174.051 14.4480   7
  10  -3   4 151.259 13.8295   2
  11  -3   4 95.7617 11.1391   2
  11  -3   4 102.324 15.0649   4
  12  -3   4 85.8534 10.6225   7
  12  -3   4 82.0112 11.0283   2
  12  -3   4 67.6434 11.3562   4
  13  -3   4 56.7874 11.1019   6
  13  -3   4 57.1303 10.4367   2
  13  -3   4 60.4546 10.9213   4
  13  -3   4 27.5522 7.52258   7
  12   2  -4 102.774 12.3802   6
  12   2  -4 84.6508 9.08997   4
  11   2  -4 10.5446 4.81998   4
  11   2  -4 14.4885 5.69988   6
  10   2  -4 79.2971 8.10109   4
  10   2  -4 79.0053 9.97428   6
   9   2  -4 99.9729 10.8908   6
   9   2  -4 92.9562 8.63430   4
   8   2  -4 549.134 24.5021   6
   8   2  -4 511.075 19.9857   4
  -8  -2   4 541.811 25.0413   3
   7   2  -4 87.9668 7.30711   4
   7   2  -4 77.9012 8.47514   6
  -7  -2   4 83.8496 8.96900   3
   6   2  -4 1.68282 1.58643   5
   6   2  -4 1.19486 2.02691   6
   6   2  -4 0.25011 1.03471   4
  -6  -2   4 0.84500 1.67795   4
  -6  -2   4 0.99298 1.86553   3
   5   2  -4 1646.10 38.1390   5
   5   2  -4 1603.22 40.7310   6
   5   2  -4 1695.22 36.6797   4
  -5  -2   4 1656.03 38.4494   4
  -5  -2   4 1710.31 42.0420   3
   4   2  -4 20.2548 3.65604   4
   4   2  -4 17.7625 4.37319   6
  -4  -2   4 19.4792 3.76444   4
  -4  -2   4 27.2073 5.36042   3
   3   2  -4 3.83972 1.51705   4
   3   2  -4 3.64528 1.51766   6
  -3  -2   4 5.34678 1.23445   7
  -3  -2   4 4.84608 1.87509   6
  -3  -2   4 4.92844 1.94770   3
  -3  -2   4 3.05701 1.39447   4
   2   2  -4 3.43595 1.71876   6
   2   2  -4 3.18973 1.45572   2
   2   2  -4 2.58278 1.20680   4
  -2  -2   4 6.89889 1.96029   2
  -2  -2   4 2.98841 1.00653   7
  -2  -2   4 0.56431 1.06065   6
  -2  -2   4 3.35576 1.45482   4
   1   2  -4 265.660 8.64700   4
  -1  -2   4 271.861 10.4592   2
  -1  -2   4 274.216 9.26689   4
  -1  -2   4 261.930 10.3462   6
   0   2  -4 2757.33 52.7355   8
   0   2  -4 2698.09 47.4328   4
   0   2  -4 2792.60 47.3164   6
   0   2  -4 2855.97 46.3046   5
   0   2  -4 2769.20 53.7733   2
   0  -2   4 2752.40 48.2183   4
   0  -2   4 2735.38 53.1396   2
   0  -2   4 2671.84 51.2462   6
  -1   2  -4 23.3303 2.43496   5
  -1   2  -4 22.8286 2.19753   6
  -1   2  -4 19.9964 3.90202   2
  -1   2  -4 25.8750 3.06362   8
   1  -2   4 24.9785 2.42020   4
   1  -2   4 24.1172 2.30165   6
   1  -2   4 30.3367 5.17680   2
  -2   2  -4 73.7037 4.82187   5
  -2   2  -4 58.4046 6.11918   2
  -2   2  -4 72.5012 4.13943   6
  -2   2  -4 72.4268 4.21300   8
   2  -2   4 67.1328 4.10827   5
   2  -2   4 62.5389 4.01646   4
   2  -2   4 64.4146 6.30019   2
   2  -2   4 72.8126 3.75825   6
  -3   2  -4 788.415 21.1245   5
  -3   2  -4 780.010 25.7160   2
   3  -2   4 786.405 19.2414   5
   3  -2   4 797.975 17.0756   6
  -4   2  -4 161.826 9.43542   5
   4  -2   4 166.651 6.83219   6
   4  -2   4 173.902 8.40873   5
  -5   2  -4 54.7198 6.00315   5
   5  -2   4 58.6980 4.42954   6
   5  -2   4 58.8902 7.56170   3
   5  -2   4 52.7723 5.05933   5
   5  -2   4 40.0892 6.83358   2
  -6   2  -4 11.1300 3.48089   5
   6  -2   4 16.8629 4.24985   2
   6  -2   4 16.9578 6.00153   3
   6  -2   4 25.9340 4.13752   6
   6  -2   4 24.8078 7.74720   7
   7  -2   4 1165.30 29.0322   6
   7  -2   4 1209.30 36.4119   7
   7  -2   4 1251.34 39.4485   2
  -8   2  -4 116.715 11.3456   5
   8  -2   4 117.839 10.8171   7
   8  -2   4 126.410 11.9272   2
  -9   2  -4 267.608 19.0343   5
   9  -2   4 282.743 17.7330   7
   9  -2   4 273.607 18.4583   2
  10  -2   4 2.57890 2.48373   4
  10  -2   4 0.13667 2.81888   7
  10  -2   4 4.83790 3.41535   2
  11  -2   4 3.85175 3.83130   2
  11  -2   4 10.5238 6.26058   7
  12  -2   4 128.133 12.9786   6
  12  -2   4 110.515 13.1414   2
  12  -2   4 132.129 13.3540   7
  12  -2   4 136.852 13.3109   4
  13  -2   4 1.60620 3.76720   4
  13  -2   4 -0.3134 3.52584   7
  13  -2   4 -0.7628 4.19222   6
  13  -2   4 -7.3122 4.52292   2
  13   1  -4 148.213 12.9247   4
  13   1  -4 147.648 14.9232   6
  12   1  -4 7.10838 3.57277   4
  12   1  -4 4.70914 3.81385   6
  11   1  -4 7.10094 5.09394   4
  11   1  -4 6.39211 4.29553   6
  10   1  -4 104.910 10.0545   4
  10   1  -4 102.170 12.5820   6
   9   1  -4 92.0369 10.4499   6
   9   1  -4 105.955 9.59239   4
   8   1  -4 -1.6281 1.06773   4
   8   1  -4 -1.4902 1.46646   6
   8   1  -4 0.15484 1.32163   7
  -8  -1   4 -1.1873 1.33782   3
   7   1  -4 616.098 25.1619   6
   7   1  -4 579.829 21.0420   4
   7   1  -4 598.181 17.1905   7
  -7  -1   4 569.308 21.8376   3
   6   1  -4 5.84609 1.98155   7
   6   1  -4 3.91005 1.97790   4
   6   1  -4 5.74343 2.40428   5
   6   1  -4 8.24086 3.52806   6
  -6  -1   4 2.49081 1.78468   3
  -6  -1   4 4.28872 1.66527   7
  -6  -1   4 7.94770 3.04570   4
   5   1  -4 1778.98 39.8306   4
   5   1  -4 1815.89 44.3510   6
   5   1  -4 1868.90 35.8072   7
   5   1  -4 1836.77 46.7556   8
  -5  -1   4 1910.61 41.4301   3
  -5  -1   4 1798.65 35.4053   7
   4   1  -4 240.906 8.56999   7
   4   1  -4 225.660 10.0550   4
   4   1  -4 243.245 12.2282   6
   4   1  -4 221.204 12.7794   8
  -4  -1   4 205.998 10.3225   4
  -4  -1   4 245.377 10.0965   7
  -4  -1   4 234.205 10.4314   3
   3   1  -4 3.21004 1.34789   7
   3   1  -4 2.55721 1.29434   6
   3   1  -4 -0.9379 1.39748   8
   3   1  -4 3.48124 1.34448   4
  -3  -1   4 4.45693 1.46518   7
  -3  -1   4 5.54395 2.34604   6
  -3  -1   4 4.58941 2.03281   4
   2   1  -4 341.595 10.9386   4
   2   1  -4 350.826 12.2764   6
   2   1  -4 344.549 14.2276   8
  -2  -1   4 339.901 11.5651   4
  -2  -1   4 353.619 13.2804   6
  -2  -1   4 354.400 10.4552   7
   1   1  -4 517.022 19.5315   8
   1   1  -4 527.299 13.4354   4
   1   1  -4 547.981 14.1496   6
  -1  -1   4 507.626 15.1858   6
  -1  -1   4 514.228 15.3118   2
  -1  -1   4 507.426 13.8516   4
   0   1  -4 553.122 13.5172   4
   0   1  -4 574.164 12.9624   6
   0   1  -4 569.147 16.6810   8
   0  -1   4 553.298 14.1181   6
   0  -1   4 558.691 17.4545   2
   0  -1   4 559.520 16.9478   8
  -1   1  -4 376.272 9.08385   6
  -1   1  -4 370.514 10.7090   5
  -1   1  -4 356.705 11.8565   8
   1  -1   4 388.318 12.5620   8
   1  -1   4 380.251 15.0707   2
   1  -1   4 375.372 10.4901   4
  -2   1  -4 27.7395 2.44258   6
  -2   1  -4 25.1079 2.65711   8
  -2   1  -4 22.9674 3.42893   5
   2  -1   4 21.8300 4.47268   2
   2  -1   4 24.1799 2.88459   8
   2  -1   4 21.5298 2.44234   5
   2  -1   4 27.7674 2.61100   4
  -3   1  -4 382.199 13.5362   5
  -3   1  -4 372.159 10.2642   8
   3  -1   4 384.637 17.2756   2
   3  -1   4 375.634 12.0146   5
   3  -1   4 369.074 17.6081   3
   3  -1   4 396.868 11.5737   8
   3  -1   4 387.283 9.67958   6
  -4   1  -4 23.8922 4.16359   5
   4  -1   4 24.1180 2.76621   6
   4  -1   4 21.3334 3.37055   5
   4  -1   4 22.6446 5.45091   3
   4  -1   4 22.7680 5.56768   2
   4  -1   4 23.2056 2.60798   8
  -5   1  -4 580.273 20.9289   5
   5  -1   4 572.756 15.3051   6
   5  -1   4 573.125 25.5095   3
   5  -1   4 566.938 23.8595   2
   5  -1   4 592.574 18.3959   5
   5  -1   4 603.545 15.2090   8
  -6   1  -4 8.18915 3.39326   5
   6  -1   4 6.52387 3.26145   2
   6  -1   4 3.00432 1.50051   6
  -7   1  -4 20.0536 5.09873   5
   7  -1   4 18.0427 3.22010   6
   7  -1   4 14.1267 4.42036   2
   7  -1   4 21.4534 5.28671   7
  -8   1  -4 4.75816 2.64565   5
   8  -1   4 2.32239 2.61093   7
   8  -1   4 1.55139 2.69605   2
  -9   1  -4 85.3214 13.0640   5
   9  -1   4 63.4309 10.3348   2
   9  -1   4 75.5045 9.36052   7
  10  -1   4 15.5130 4.71603   4
  10  -1   4 26.9958 7.01010   7
  10  -1   4 21.2642 6.32629   2
  11  -1   4 -2.8440 2.43533   4
  11  -1   4 4.02468 3.87561   2
  11  -1   4 3.61172 3.33267   6
  12  -1   4 36.3975 7.84679   4
  12  -1   4 30.9766 8.04150   6
  12  -1   4 44.6983 9.16606   2
  12  -1   4 52.7716 9.52599   7
  13  -1   4 34.6230 8.10674   2
  13  -1   4 33.6939 7.38240   4
  13  -1   4 14.2746 5.73484   6
  13  -1   4 36.8593 7.96511   7
  13   0  -4 8.26206 4.20236   4
  13   0  -4 10.1788 7.76392   6
  12   0  -4 151.887 10.2713   7
  12   0  -4 137.436 15.1115   6
  12   0  -4 145.635 13.2009   4
  11   0  -4 130.432 14.1982   6
  11   0  -4 134.604 9.85567   7
  10   0  -4 355.785 22.3124   6
  10   0  -4 361.850 16.0832   7
  10   0  -4 371.776 19.5860   4
   9   0  -4 683.907 22.0910   7
   9   0  -4 644.009 25.6318   4
   9   0  -4 707.266 30.6805   6
   8   0  -4 500.128 17.8362   7
   8   0  -4 513.164 21.2702   4
   8   0  -4 516.931 24.5430   6
   7   0  -4 674.272 27.1236   6
   7   0  -4 685.244 23.9242   4
   7   0  -4 737.523 21.2541   7
  -7   0   4 675.522 20.6061   7
  -7   0   4 704.573 21.3766   3
   6   0  -4 4.80959 2.51125   4
   6   0  -4 7.01359 3.39947   8
   6   0  -4 4.87314 2.10058   7
  -6   0   4 4.10758 1.91351   4
  -6   0   4 5.09099 1.74713   7
   5   0  -4 39.4842 4.06603   7
   5   0  -4 30.7019 5.65975   6
   5   0  -4 41.9675 4.78177   4
   5   0  -4 52.6302 8.09218   8
  -5   0   4 38.9404 3.92904   7
  -5   0   4 46.2660 5.10433   4
   4   0  -4 225.221 9.35839   7
   4   0  -4 209.789 10.0251   4
   4   0  -4 214.600 11.5911   6
   4   0  -4 218.390 12.2112   8
  -4   0   4 215.778 10.5656   7
  -4   0   4 200.717 10.2215   4
  -4   0   4 222.337 8.23032   3
   3   0  -4 74.1491 5.07591   7
   3   0  -4 71.9572 6.46330   8
   3   0  -4 86.9714 6.52128   6
   3   0  -4 72.3520 5.29780   4
  -3   0   4 77.3245 5.69619   4
  -3   0   4 75.8839 5.01657   7
   2   0  -4 251.936 10.1710   6
   2   0  -4 239.392 9.18817   4
   2   0  -4 255.206 11.8124   8
   2   0  -4 249.249 9.61941   7
  -2   0   4 248.977 9.39196   2
  -2   0   4 249.395 9.76100   4
  -2   0   4 247.895 9.36667   7
  -2   0   4 245.157 11.9776   8
  -2   0   4 242.751 10.5097   6
   1   0  -4 1452.29 28.9048   4
   1   0  -4 1486.94 33.8625   8
   1   0  -4 1462.36 29.1566   6
  -1   0   4 1506.26 30.9696   7
  -1   0   4 1511.20 32.9198   2
  -1   0   4 1469.50 29.7564   4
  -1   0   4 1465.77 30.6422   6
  -1   0   4 1517.13 34.3158   8
   0   0  -4 597.072 17.0047   8
   0   0  -4 574.714 13.8583   4
   0   0  -4 597.876 12.7449   6
   0   0   4 565.172 17.5013   8
   0   0   4 571.506 14.0742   6
   0   0   4 560.021 18.6218   2
  -1   0  -4 5109.62 85.5052   8
   1   0   4 5029.15 79.9632   6
   1   0   4 4995.64 86.6495   8
   1   0   4 5022.24 92.5622   3
  -2   0  -4 2.56300 1.29437   5
  -2   0  -4 1.05914 0.91700   8
   2   0   4 0.28220 1.32808   2
   2   0   4 0.59441 1.40546   3
   2   0   4 0.97320 0.73741   4
   2   0   4 2.84996 0.83107   6
   2   0   4 4.06789 1.37173   5
   2   0   4 1.35275 1.20002   8
  -3   0  -4 1891.16 39.7195   5
  -3   0  -4 1930.16 36.5410   8
   3   0   4 1894.43 37.0937   5
   3   0   4 1894.31 48.4511   3
   3   0   4 1897.43 32.1635   6
   3   0   4 1888.66 35.3822   4
   3   0   4 1901.99 38.1078   8
   3   0   4 1902.55 47.3520   2
  -4   0  -4 18.6867 4.04799   5
   4   0   4 12.2923 4.48560   2
   4   0   4 24.6709 5.86509   3
   4   0   4 15.4808 3.42680   5
   4   0   4 14.3544 2.89322   8
   4   0   4 18.8146 2.00554   6
  -5   0  -4 639.990 22.2721   5
   5   0   4 623.161 25.9912   2
   5   0   4 638.300 28.0900   3
   5   0   4 595.890 15.2456   6
   5   0   4 625.757 19.2526   5
   5   0   4 619.188 17.8354   8
  -6   0  -4 0.88191 1.61175   5
   6   0   4 -0.8733 0.72657   6
   6   0   4 -1.7359 0.86871   8
  -7   0  -4 43.7724 8.20410   5
   7   0   4 66.8804 11.6124   2
   7   0   4 51.5126 5.05863   8
   7   0   4 46.2364 4.47670   6
  -8   0  -4 905.667 33.9709   5
   8   0   4 897.478 25.1392   8
   8   0   4 883.113 35.4698   2
   8   0   4 976.094 33.0508   7
  -9   0  -4 34.1209 6.88874   5
   9   0   4 42.7831 8.78053   2
   9   0   4 63.8334 10.4821   7
   9   0   4 51.3311 7.66712   4
   9   0   4 45.4532 5.28463   8
   9   0   4 53.3665 8.34882   6
  10   0   4 25.7948 6.59100   7
  10   0   4 36.6415 7.28842   4
  10   0   4 18.0190 3.88584   8
  10   0   4 24.8308 6.04205   6
  10   0   4 32.2054 8.98623   2
  11   0   4 4.77214 3.54705   4
  11   0   4 2.08233 3.33928   7
  11   0   4 9.29421 3.65187   6
  11   0   4 7.64230 4.55787   2
  12   0   4 6.56538 3.99287   4
  12   0   4 5.22702 4.70584   6
  12   0   4 1.70104 4.07217   7
  12   0   4 4.50980 4.84312   2
  13  -1  -4 16.7712 5.98443   6
  13  -1  -4 14.2646 6.14798   4
  12  -1  -4 127.635 12.5557   4
  12  -1  -4 121.032 10.0853   7
  12  -1  -4 113.928 13.7348   6
  11  -1  -4 196.639 12.8294   7
  11  -1  -4 208.744 18.3683   4
  11  -1  -4 212.836 17.8490   6
  10  -1  -4 12.0756 4.04807   7
  10  -1  -4 19.5317 6.68262   6
  10  -1  -4 12.4092 4.78747   4
   9  -1  -4 395.956 22.9112   6
   9  -1  -4 421.873 20.4539   4
   8  -1  -4 49.8058 8.90986   6
   8  -1  -4 61.8684 6.32200   7
   8  -1  -4 75.7127 8.03366   4
  -8   1   4 48.5074 5.78355   7
   7  -1  -4 18.3407 4.29656   7
   7  -1  -4 6.74167 3.07204   6
   7  -1  -4 14.3110 4.00503   4
  -7   1   4 17.6416 3.98997   7
   6  -1  -4 184.277 12.1867   8
   6  -1  -4 188.968 11.4241   4
   6  -1  -4 167.408 12.5285   6
   6  -1  -4 182.142 9.99830   7
  -6   1   4 193.229 10.1965   7
   5  -1  -4 -2.6387 1.08633   8
   5  -1  -4 -0.0334 1.20025   4
   5  -1  -4 3.16705 1.67740   7
   5  -1  -4 1.74476 2.00086   6
  -5   1   4 1.96333 1.43779   4
  -5   1   4 -0.3811 0.84276   7
   4  -1  -4 2479.19 49.4447   4
   4  -1  -4 2326.83 48.7057   7
   4  -1  -4 2472.82 53.3188   8
   4  -1  -4 2443.89 52.4090   6
  -4   1   4 2488.77 47.9856   7
  -4   1   4 2441.45 50.1283   4
   3  -1  -4 3890.45 69.6235   7
   3  -1  -4 3851.47 68.9756   4
   3  -1  -4 3820.89 71.3918   6
   3  -1  -4 3842.22 73.4753   8
  -3   1   4 3929.52 69.1026   7
  -3   1   4 3709.81 69.4372   4
  -3   1   4 3928.93 75.1247   8
   2  -1  -4 1691.85 38.0313   8
   2  -1  -4 1663.78 34.8266   6
   2  -1  -4 1693.65 35.7023   7
   2  -1  -4 1647.75 33.5833   4
  -2   1   4 1670.69 35.0988   7
  -2   1   4 1663.85 34.6176   4
  -2   1   4 1705.56 33.4210   3
  -2   1   4 1643.93 38.6254   8
   1  -1  -4 2369.20 48.0760   8
   1  -1  -4 2397.61 43.2637   4
   1  -1  -4 2432.15 43.1503   6
  -1   1   4 2360.14 44.1237   4
  -1   1   4 2360.93 46.3812   7
  -1   1   4 2432.90 47.5704   3
  -1   1   4 2408.81 49.3860   8
   0  -1  -4 682.471 15.6202   4
   0  -1  -4 659.212 19.1238   8
   0  -1  -4 690.556 13.7321   6
   0   1   4 668.953 15.2683   6
   0   1   4 699.531 19.3377   7
   0   1   4 686.786 21.4330   3
  -1  -1  -4 445.648 12.6892   5
  -1  -1  -4 433.767 14.3149   8
  -1  -1  -4 458.026 11.6484   4
   1   1   4 448.357 18.2741   3
   1   1   4 449.997 15.4389   8
  -2  -1  -4 970.054 23.7410   8
  -2  -1  -4 1030.16 23.9409   5
   2   1   4 1053.49 32.0935   3
   2   1   4 986.745 20.7603   4
   2   1   4 1017.54 25.4854   8
  -3  -1  -4 1367.67 30.0640   8
  -3  -1  -4 1376.56 31.4806   5
   3   1   4 1312.57 26.4416   4
   3   1   4 1335.36 28.4622   5
   3   1   4 1335.14 31.2805   8
   3   1   4 1366.59 40.4802   3
  -4  -1  -4 1857.41 42.3017   5
   4   1   4 1850.81 38.1586   5
   4   1   4 1858.56 51.9647   3
   4   1   4 1855.30 40.1087   8
   4   1   4 1853.22 31.9969   6
   4   1   4 1907.16 35.5716   4
   5   1   4 2313.73 47.6421   8
   5   1   4 2237.37 40.0368   6
   5   1   4 2231.41 58.8407   2
  -6  -1  -4 14.3097 3.89935   5
   6   1   4 12.5660 3.23905   8
   6   1   4 14.2908 2.52044   6
   6   1   4 16.4837 5.76448   2
  -7  -1  -4 349.113 18.7970   5
   7   1   4 319.033 13.9637   6
   7   1   4 348.941 15.1971   8
   7   1   4 336.045 21.1216   2
  -8  -1  -4 221.722 15.9572   5
   8   1   4 247.126 18.6678   2
   8   1   4 238.040 15.2820   7
   8   1   4 241.243 12.9292   8
   8   1   4 219.695 12.1864   6
  -9  -1  -4 116.599 12.0697   5
   9   1   4 110.701 8.90314   8
   9   1   4 113.559 12.6257   2
   9   1   4 124.986 10.3207   4
   9   1   4 111.646 11.0308   7
   9   1   4 112.636 9.15459   6
  10   1   4 28.7433 7.99164   2
  10   1   4 24.8755 5.33359   8
  10   1   4 16.0210 4.41877   6
  10   1   4 17.5484 4.94537   4
  10   1   4 30.4315 6.93079   7
  11   1   4 58.8509 7.33709   8
  11   1   4 68.1881 7.79398   6
  11   1   4 58.1957 9.49418   7
  11   1   4 63.2909 9.09138   4
  12   1   4 -7.0567 3.55759   4
  12   1   4 10.8994 4.36624   7
  12   1   4 0.71287 5.40631   2
  14  -2  -4 127.382 13.6635   4
  14  -2  -4 148.612 18.8459   6
  13  -2  -4 30.1098 7.30661   4
  13  -2  -4 33.3759 9.36620   6
  13  -2  -4 35.3018 7.26004   7
  12  -2  -4 13.9803 4.78215   7
  12  -2  -4 4.32151 3.79558   6
  12  -2  -4 -0.2310 3.38961   4
  11  -2  -4 69.1847 13.0076   6
  11  -2  -4 52.1229 8.89283   4
  11  -2  -4 65.3165 9.73031   7
  10  -2  -4 113.341 9.86404   7
  10  -2  -4 103.625 10.5413   4
  10  -2  -4 98.6025 12.0632   6
   9  -2  -4 261.491 14.6160   7
   9  -2  -4 265.849 16.5422   4
   9  -2  -4 259.151 18.5221   6
   8  -2  -4 327.134 19.7552   6
   8  -2  -4 310.253 18.7864   7
   8  -2  -4 316.496 17.2443   4
   7  -2  -4 114.789 8.69084   7
   7  -2  -4 95.4961 8.90145   4
   7  -2  -4 97.2335 9.95861   6
  -7   2   4 107.048 8.35802   7
   6  -2  -4 31.4357 5.75625   8
   6  -2  -4 25.8160 4.87298   7
   6  -2  -4 24.0895 4.93443   4
   6  -2  -4 17.1100 5.48263   6
   5  -2  -4 72.7797 6.48232   7
   5  -2  -4 67.2922 6.36794   4
   5  -2  -4 60.3035 7.60005   8
  -5   2   4 64.1209 5.92611   7
  -5   2   4 65.9264 7.26602   8
  -5   2   4 65.6082 6.24733   4
   4  -2  -4 1.21928 1.59038   7
   4  -2  -4 1.48987 1.46008   8
   4  -2  -4 1.44999 1.37189   4
  -4   2   4 1.32228 1.35905   8
  -4   2   4 2.44751 1.29100   7
  -4   2   4 3.11451 1.78277   4
   3  -2  -4 4.44186 2.00788   6
   3  -2  -4 0.73312 0.95494   4
   3  -2  -4 2.79830 1.73907   8
   3  -2  -4 2.75095 1.46278   7
  -3   2   4 3.66745 2.35876   8
  -3   2   4 2.76807 1.42150   7
  -3   2   4 5.85331 1.86696   4
   2  -2  -4 1407.61 34.0755   8
   2  -2  -4 1428.35 30.9720   6
   2  -2  -4 1443.41 33.2820   7
   2  -2  -4 1358.65 29.7538   4
  -2   2   4 1438.36 30.5365   3
  -2   2   4 1381.74 30.8426   4
  -2   2   4 1482.41 32.9558   7
  -2   2   4 1424.05 35.4745   8
   1  -2  -4 776.088 22.4985   8
   1  -2  -4 821.907 18.7170   4
   1  -2  -4 773.614 22.2000   7
   1  -2  -4 798.962 18.1545   6
  -1   2   4 808.422 22.8104   3
  -1   2   4 800.784 21.8350   7
  -1   2   4 804.370 23.9419   8
  -1   2   4 769.568 19.3668   4
   0  -2  -4 147.962 9.95992   3
   0  -2  -4 149.534 8.44545   8
   0  -2  -4 140.950 5.87745   4
   0   2   4 138.906 8.82539   8
   0   2   4 152.976 9.86462   3
   0   2   4 129.806 7.91484   7
  -1  -2  -4 22.2761 2.25675   4
  -1  -2  -4 24.8130 2.88838   5
  -1  -2  -4 28.7268 4.69729   8
  -1  -2  -4 21.5525 5.39523   3
   1   2   4 16.1417 2.89288   7
   1   2   4 27.5053 2.67548   4
   1   2   4 26.2904 5.82885   3
   1   2   4 19.6982 3.48403   8
  -2  -2  -4 1137.28 27.7537   8
  -2  -2  -4 1126.09 26.3243   5
  -2  -2  -4 1061.37 35.3719   3
   2   2   4 1165.44 35.9937   3
   2   2   4 1154.05 29.5770   8
   2   2   4 1128.29 26.1216   4
  -3  -2  -4 116.387 7.60269   8
  -3  -2  -4 116.284 7.56542   5
  -3  -2  -4 118.557 11.5258   3
   3   2   4 111.408 7.94288   8
   3   2   4 115.257 5.30967   4
   3   2   4 104.906 10.3414   3
  -4  -2  -4 805.179 24.6378   5
  -4  -2  -4 748.654 32.4011   3
   4   2   4 835.261 24.7805   8
   4   2   4 795.673 20.9112   5
   4   2   4 809.882 18.3470   4
  -5  -2  -4 128.984 9.92059   5
  -5  -2  -4 150.455 14.7378   3
   5   2   4 120.767 6.06811   4
   5   2   4 125.616 9.06310   8
  -6  -2  -4 549.665 23.0787   5
  -6  -2  -4 600.670 31.6709   3
   6   2   4 579.156 21.5839   8
   6   2   4 589.318 17.0932   6
   6   2   4 591.525 16.1835   6
  -7  -2  -4 104.655 10.2711   5
   7   2   4 117.403 12.8997   2
   7   2   4 117.530 7.11331   6
   7   2   4 107.590 5.82508   6
   7   2   4 119.254 9.53790   8
   7   2   4 117.860 6.74934   4
  -8  -2  -4 60.3552 9.28284   5
   8   2   4 41.5321 9.34161   2
   8   2   4 54.7546 4.79871   6
   8   2   4 65.5483 6.67827   4
   8   2   4 67.8761 7.39493   8
   8   2   4 63.4340 9.50038   7
   8   2   4 64.0225 5.72513   6
  -9  -2  -4 2.48641 2.72443   5
   9   2   4 -1.5758 1.50829   8
   9   2   4 -2.2652 2.17208   4
   9   2   4 -1.8590 3.35192   2
   9   2   4 -3.8686 2.31483   7
  10   2   4 20.2423 4.18785   6
  10   2   4 7.13548 3.79643   4
  10   2   4 16.7528 4.54934   8
  10   2   4 17.5424 5.36493   7
  10   2   4 14.3052 4.97970   2
  11   2   4 2.92172 3.62339   8
  11   2   4 3.37275 4.74756   2
  11   2   4 -4.3980 3.32740   4
  11   2   4 9.93167 4.54726   7
  14  -3  -4 -0.0031 3.82606   6
  14  -3  -4 -0.9154 4.13802   4
  14  -3  -4 11.8894 4.26390   7
  13  -3  -4 144.395 16.5178   6
  13  -3  -4 143.778 13.1202   7
  13  -3  -4 181.325 16.3086   4
  12  -3  -4 6.71325 4.52015   6
  12  -3  -4 -3.5055 2.99772   7
  12  -3  -4 7.70684 3.64792   4
  11  -3  -4 12.2658 5.11257   6
  11  -3  -4 12.5243 4.73506   4
  11  -3  -4 13.5997 4.76046   7
  10  -3  -4 502.564 27.8706   6
  10  -3  -4 546.185 25.8170   4
  10  -3  -4 543.608 23.6646   7
   9  -3  -4 23.6161 5.78960   4
   9  -3  -4 21.7120 5.70515   6
   9  -3  -4 30.4790 6.73395   7
   8  -3  -4 368.484 17.7019   7
   8  -3  -4 329.545 17.8891   4
   7  -3  -4 247.920 14.1885   7
   7  -3  -4 258.632 14.7640   4
   6  -3  -4 136.304 10.0834   8
   6  -3  -4 123.901 9.40026   7
   6  -3  -4 123.114 9.53851   4
  -6   3   4 128.213 9.33978   7
  -6   3   4 129.205 10.7713   8
   5  -3  -4 1146.17 32.4493   8
   5  -3  -4 1134.45 30.9259   4
   5  -3  -4 1159.30 31.8966   7
  -5   3   4 1128.18 31.3100   4
  -5   3   4 1154.47 30.7950   7
  -5   3   4 1167.77 34.4565   8
   4  -3  -4 4.69603 2.17099   7
   4  -3  -4 0.92937 1.34258   4
   4  -3  -4 4.35385 2.28770   8
  -4   3   4 1.15835 1.43244   4
  -4   3   4 1.42239 1.54387   7
  -4   3   4 2.82453 2.07463   8
   3  -3  -4 1.00741 1.22064   4
   3  -3  -4 -0.0352 1.01361   7
  -3   3   4 0.78662 0.95859   4
  -3   3   4 -0.2659 0.95509   8
  -3   3   4 0.27626 1.25922   7
   2  -3  -4 3555.84 63.5131   4
   2  -3  -4 3580.76 69.1935   8
   2  -3  -4 3592.03 68.8845   7
   2  -3  -4 3582.68 67.3857   3
  -2   3   4 3624.28 71.6972   8
  -2   3   4 3522.74 64.8439   4
  -2   3   4 3639.57 66.1898   3
  -2   3   4 3478.88 67.5258   7
   1  -3  -4 210.020 10.9320   8
   1  -3  -4 210.670 7.79871   6
   1  -3  -4 215.768 11.9450   3
   1  -3  -4 205.751 7.99624   4
   1  -3  -4 214.657 11.0903   7
  -1   3   4 198.456 10.4352   7
  -1   3   4 212.615 9.01379   4
  -1   3   4 222.437 11.5308   3
  -1   3   4 213.065 11.8718   8
   0  -3  -4 2166.01 46.4207   8
   0  -3  -4 2190.15 38.8730   4
   0  -3  -4 2181.00 51.9197   3
   0   3   4 2168.47 48.2320   8
   0   3   4 2123.74 46.0511   7
   0   3   4 2216.55 50.7043   3
  -1  -3  -4 79.1852 8.62529   3
  -1  -3  -4 68.9548 4.92755   5
  -1  -3  -4 70.9442 6.15462   8
  -1  -3  -4 80.2625 4.09071   4
   1   3   4 60.0514 7.20709   3
   1   3   4 76.5458 6.97742   8
   1   3   4 70.1036 4.34149   4
   1   3   4 64.6883 6.07041   7
  -2  -3  -4 533.690 16.5408   5
  -2  -3  -4 516.017 24.6435   3
   2   3   4 512.898 19.3855   8
   2   3   4 542.026 13.4361   4
   2   3   4 505.141 19.5614   7
   2   3   4 540.212 24.0126   3
  -3  -3  -4 1878.68 40.9078   5
  -3  -3  -4 1708.40 62.0215   3
   3   3   4 1863.11 44.1219   8
   3   3   4 1860.08 43.4241   7
   3   3   4 1911.13 35.5597   4
  -4  -3  -4 1295.76 46.3697   3
  -4  -3  -4 1324.29 34.7470   5
   4   3   4 1338.01 26.3099   4
   4   3   4 1300.12 35.3099   7
   4   3   4 1349.05 36.4236   8
  -5  -3  -4 92.3256 12.4265   3
  -5  -3  -4 89.5131 8.46725   5
   5   3   4 92.2510 8.53466   8
   5   3   4 93.6351 5.07822   4
  -6  -3  -4 12.2022 4.50634   5
  -6  -3  -4 10.3941 5.37760   3
   6   3   4 9.29678 3.40260   8
   6   3   4 17.7465 2.73103   4
  -7  -3  -4 111.122 14.7057   3
  -7  -3  -4 103.958 10.4647   5
   7   3   4 123.337 13.8172   2
   7   3   4 94.6327 5.72355   4
   7   3   4 103.820 9.86590   8
   7   3   4 92.9401 7.27169   4
  -8  -3  -4 209.815 15.6140   5
   8   3   4 191.542 13.0446   4
   8   3   4 184.108 13.4087   8
   8   3   4 202.288 18.1134   2
  -9  -3  -4 73.0562 10.9141   5
   9   3   4 63.1988 9.77304   8
   9   3   4 87.7776 13.8523   2
   9   3   4 78.8948 10.6742   7
   9   3   4 79.4006 7.31647   4
  10   3   4 24.8354 8.68166   2
  10   3   4 22.5539 5.19796   4
  10   3   4 19.8753 5.92802   8
  10   3   4 19.0845 6.16366   7
  11   3   4 4.26338 4.16753   7
  11   3   4 3.86767 4.18282   8
  11   3   4 -1.0112 5.00027   2
  14  -4  -4 256.619 20.0443   4
  14  -4  -4 225.081 21.8140   6
  14  -4  -4 271.042 18.5746   7
  13  -4  -4 0.11433 4.18967   6
  13  -4  -4 0.24621 3.06749   4
  13  -4  -4 2.04175 3.09720   7
  12  -4  -4 29.1473 7.79484   4
  12  -4  -4 28.6799 8.53952   6
  11  -4  -4 237.121 16.3501   7
  11  -4  -4 238.310 17.8105   4
  10  -4  -4 42.0937 9.71893   6
  10  -4  -4 55.6976 8.79014   7
  10  -4  -4 46.0408 8.03634   4
   9  -4  -4 193.480 14.2502   4
   9  -4  -4 171.433 13.0816   7
   8  -4  -4 8.77294 3.28290   7
   8  -4  -4 3.91437 2.48084   4
   7  -4  -4 16.7685 4.95532   7
   7  -4  -4 6.10365 2.57521   4
  -7   4   4 4.78806 3.24317   8
   6  -4  -4 470.875 20.0335   7
   6  -4  -4 462.757 19.6546   8
   6  -4  -4 472.315 19.6333   4
  -6   4   4 443.042 15.9113   2
  -6   4   4 449.922 20.9648   8
   5  -4  -4 69.0532 7.07745   8
   5  -4  -4 59.7197 6.32607   4
   5  -4  -4 70.9809 7.23652   7
  -5   4   4 57.7200 5.69340   2
  -5   4   4 65.6175 6.77111   4
  -5   4   4 76.9690 10.7130   7
  -5   4   4 66.5348 7.73962   8
   4  -4  -4 19.9507 4.53128   8
   4  -4  -4 13.4973 3.81016   7
   4  -4  -4 9.46528 2.53455   4
  -4   4   4 14.0648 3.95129   7
  -4   4   4 18.5830 4.06720   4
  -4   4   4 8.77276 3.68316   8
  -4   4   4 10.6165 3.19121   2
   3  -4  -4 707.314 20.2450   4
   3  -4  -4 701.655 23.2160   8
   3  -4  -4 725.762 21.1116   3
   3  -4  -4 709.812 23.6429   7
  -3   4   4 685.124 22.4444   7
  -3   4   4 691.263 23.3958   2
  -3   4   4 682.677 20.8566   4
  -3   4   4 693.613 24.9669   8
  -3   4   4 683.902 19.0980   3
   2  -4  -4 47.6609 5.59119   7
   2  -4  -4 50.7800 4.41306   4
   2  -4  -4 56.5492 6.05953   3
   2  -4  -4 53.5627 5.78759   8
  -2   4   4 49.8645 4.67698   4
  -2   4   4 53.9965 5.40442   3
  -2   4   4 50.3620 6.18859   8
  -2   4   4 48.2017 5.36280   7
   1  -4  -4 123.470 8.72559   8
   1  -4  -4 134.125 9.18867   7
   1  -4  -4 112.859 9.48273   3
   1  -4  -4 114.593 5.80937   4
  -1   4   4 120.207 9.01810   3
  -1   4   4 114.605 9.58315   7
  -1   4   4 118.029 6.68770   4
  -1   4   4 133.326 9.84368   8
   0  -4  -4 465.391 17.9193   8
   0  -4  -4 483.807 22.1288   3
   0  -4  -4 503.190 12.4148   4
   0   4   4 470.931 18.0636   7
   0   4   4 517.038 17.4745   4
   0   4   4 476.579 19.5773   8
   0   4   4 478.436 20.7143   3
  -1  -4  -4 213.305 11.7633   8
  -1  -4  -4 217.365 9.42638   5
  -1  -4  -4 238.518 16.1302   3
   1   4   4 221.042 11.8708   7
   1   4   4 221.482 14.7910   3
   1   4   4 228.824 13.1969   8
   1   4   4 223.224 8.29225   4
  -2  -4  -4 1144.95 42.0236   3
  -2  -4  -4 1184.56 28.3089   5
   2   4   4 1195.73 32.2112   7
   2   4   4 1118.91 33.3988   8
   2   4   4 1163.20 23.7533   4
  -3  -4  -4 230.608 18.2738   3
  -3  -4  -4 222.527 11.3806   5
   3   4   4 225.816 7.70960   4
   3   4   4 223.603 12.4681   7
   3   4   4 210.534 13.2798   8
  -4  -4  -4 1.67055 1.89398   5
  -4  -4  -4 5.89393 4.14007   3
   4   4   4 14.7711 4.45750   8
   4   4   4 3.06571 1.01534   4
  -5  -4  -4 205.191 12.9295   5
  -5  -4  -4 173.063 17.6874   3
   5   4   4 208.540 14.0699   8
  -6  -4  -4 110.907 15.3356   3
  -6  -4  -4 131.946 11.0471   5
   6   4   4 103.600 10.2624   8
  -7  -4  -4 -2.3818 1.74045   5
  -7  -4  -4 0.22546 3.53260   3
   7   4   4 3.62963 2.63314   8
  -8  -4  -4 125.125 12.4925   5
   8   4   4 165.197 16.9441   2
   8   4   4 160.599 13.3456   8
  -9  -4  -4 14.8711 5.80702   5
   9   4   4 6.97415 6.78330   2
   9   4   4 31.5750 6.94920   7
  10   4   4 0.49564 4.25567   7
  10   4   4 2.98600 5.25764   2
  10   4   4 0.08309 3.48954   8
  14  -5  -4 19.2118 7.85529   7
  14  -5  -4 36.6048 10.0742   6
  14  -5  -4 21.7142 7.24604   4
  13  -5  -4 -2.8290 4.67958   6
  13  -5  -4 3.21404 3.80990   7
  13  -5  -4 8.70655 4.27584   4
  12  -5  -4 297.606 21.0700   4
  12  -5  -4 318.643 20.9943   7
  12  -5  -4 309.525 23.9115   6
  11  -5  -4 29.9838 7.81988   4
  11  -5  -4 19.8224 5.92320   6
  11  -5  -4 33.1957 7.67985   7
  10  -5  -4 131.961 12.4973   4
  10  -5  -4 128.800 12.1355   7
   9  -5  -4 43.9400 7.87807   7
   9  -5  -4 50.1385 8.06424   4
   8  -5  -4 13.4122 3.89051   4
   8  -5  -4 16.4111 5.30794   7
   7  -5  -4 159.883 12.3055   7
   7  -5  -4 148.380 11.5350   4
  -7   5   4 143.683 12.2127   8
   6  -5  -4 85.3966 8.90678   7
   6  -5  -4 89.9101 8.48270   4
  -6   5   4 98.5856 9.76729   8
  -6   5   4 88.0089 7.70140   2
   5  -5  -4 234.963 14.1594   7
  -5   5   4 239.675 17.9545   8
  -5   5   4 243.370 13.0683   2
   4  -5  -4 919.640 33.9812   8
   4  -5  -4 1134.20 32.8022   7
   4  -5  -4 1112.20 28.6949   4
  -4   5   4 1090.42 33.9610   8
  -4   5   4 1023.47 28.6980   4
  -4   5   4 866.747 41.3473   2
   3  -5  -4 158.336 8.62848   4
   3  -5  -4 151.033 10.9141   7
   3  -5  -4 138.543 9.64142   3
   3  -5  -4 158.099 10.5341   8
  -3   5   4 144.262 8.79926   4
  -3   5   4 147.574 10.8027   2
  -3   5   4 150.788 8.89662   3
  -3   5   4 147.099 11.2647   8
   2  -5  -4 58.7027 4.71568   4
   2  -5  -4 56.3474 6.71269   3
   2  -5  -4 45.5905 7.21190   7
   2  -5  -4 48.5308 7.79645   8
  -2   5   4 61.6491 7.25713   8
  -2   5   4 59.9236 6.95389   2
  -2   5   4 61.6793 6.26596   3
  -2   5   4 48.7636 5.69487   7
  -2   5   4 57.8837 5.02698   4
   1  -5  -4 364.765 19.1435   3
   1  -5  -4 384.622 11.4526   4
   1  -5  -4 381.302 17.0641   7
  -1   5   4 343.099 15.7998   7
  -1   5   4 373.314 17.8177   3
  -1   5   4 383.091 13.0945   4
  -1   5   4 383.470 19.8062   8
   0  -5  -4 18.3432 3.15164   5
   0  -5  -4 14.3850 2.27392   4
   0  -5  -4 9.49376 3.78406   3
   0   5   4 17.9696 4.94482   8
   0   5   4 14.5309 4.53391   3
   0   5   4 11.1474 3.14168   7
  -1  -5  -4 20.0806 3.80118   5
  -1  -5  -4 13.5876 4.65554   3
   1   5   4 17.1191 4.94921   8
   1   5   4 15.7171 4.20254   7
  -2  -5  -4 138.143 8.47294   5
  -2  -5  -4 151.712 14.8898   3
   2   5   4 137.787 11.1910   8
  -3  -5  -4 83.9115 15.0050   3
   3   5   4 71.7234 8.29337   8
  -4  -5  -4 250.237 13.6443   5
  -4  -5  -4 278.351 22.3274   3
   4   5   4 272.313 16.7871   8
  -5  -5  -4 12.7344 4.17437   5
  -5  -5  -4 18.0285 7.00129   3
   5   5   4 20.4712 6.01410   8
  -6  -5  -4 67.9441 8.11678   5
  -6  -5  -4 58.4588 14.4775   3
   6   5   4 68.9601 11.1071   8
  -7  -5  -4 5.00552 3.28608   5
  -7  -5  -4 12.3107 7.49644   3
   7   5   4 7.36125 4.42232   8
  -8  -5  -4 -2.0353 3.97713   3
  -8  -5  -4 -1.6992 2.76597   5
   8   5   4 0.79632 3.44394   2
   8   5   4 -3.5978 2.40223   8
   9   5   4 0.30374 4.43225   7
   9   5   4 3.91372 5.87348   2
   9   5   4 1.23221 3.84757   8
  10   5   4 12.2879 5.63768   8
  10   5   4 13.0849 7.52177   2
  14  -6  -4 23.4371 11.6507   6
  14  -6  -4 8.40939 5.56989   4
  14  -6  -4 25.9787 11.8906   7
  13  -6  -4 168.894 18.5275   6
  13  -6  -4 187.633 17.0078   7
  13  -6  -4 181.037 17.4370   4
  12  -6  -4 204.103 17.2602   7
  12  -6  -4 228.574 18.3795   4
  12  -6  -4 189.217 18.6417   6
  11  -6  -4 3.70191 3.75981   7
  11  -6  -4 6.69145 3.12689   4
  10  -6  -4 300.189 19.7910   7
   9  -6  -4 82.4095 9.60166   4
   9  -6  -4 58.6677 9.80910   7
   8  -6  -4 304.168 18.5106   7
   8  -6  -4 296.465 17.5028   4
  -8   6   4 298.411 18.4592   8
  -8   6   4 285.885 14.8894   2
   7  -6  -4 24.1090 5.27926   4
   7  -6  -4 33.9459 6.94878   7
  -7   6   4 37.3868 6.36983   2
  -7   6   4 40.6336 8.41674   8
   6  -6  -4 342.050 16.8201   4
   6  -6  -4 303.364 17.5822   7
  -6   6   4 331.487 18.9171   8
  -6   6   4 297.617 15.8213   2
   5  -6  -4 815.657 26.0280   4
   5  -6  -4 805.753 29.1512   7
  -5   6   4 868.796 31.3442   8
  -5   6   4 756.364 27.5285   2
   4  -6  -4 31.8272 4.99522   4
   4  -6  -4 19.5428 4.36870   7
   4  -6  -4 29.8692 5.91057   3
  -4   6   4 26.3377 5.07793   4
  -4   6   4 34.2952 7.21593   8
   3  -6  -4 191.784 12.8648   3
   3  -6  -4 175.618 12.4095   7
   3  -6  -4 193.146 9.67848   4
   3  -6  -4 182.208 8.44978   6
  -3   6   4 195.002 12.0528   4
   2  -6  -4 32.5288 7.18067   3
   2  -6  -4 29.3584 6.04316   7
   2  -6  -4 33.4740 3.58848   4
   2  -6  -4 29.5984 2.87724   6
  -2   6   4 28.8434 6.17115   8
  -2   6   4 28.1446 6.63735   3
  -2   6   4 35.7616 4.24064   4
   1  -6  -4 1592.49 42.4589   7
   1  -6  -4 1599.69 48.3168   3
   1  -6  -4 1629.56 31.0719   4
  -1   6   4 1619.86 34.0374   4
  -1   6   4 1498.21 44.1282   8
  -1   6   4 1558.93 43.9680   3
   0  -6  -4 724.502 31.9740   3
   0  -6  -4 733.883 15.7956   4
   0  -6  -4 737.917 19.9932   5
   0   6   4 738.562 28.5557   8
  -1  -6  -4 179.310 9.28596   5
  -1  -6  -4 187.722 16.5532   3
   1   6   4 174.581 13.2970   8
  -2  -6  -4 789.183 37.4829   3
   2   6   4 794.895 30.5052   8
  -3  -6  -4 44.6892 11.0789   3
  -3  -6  -4 34.7770 5.82122   5
   3   6   4 39.4477 7.64724   8
  -4  -6  -4 321.943 25.9423   3
  -4  -6  -4 364.108 17.0522   5
   4   6   4 384.219 21.5063   8
  -5  -6  -4 11.0173 5.20212   3
  -5  -6  -4 23.3617 5.47806   5
   5   6   4 34.0851 8.05141   8
  -6  -6  -4 67.9637 14.9836   3
   6   6   4 97.3255 11.8603   8
  -7  -6  -4 28.7416 10.7631   3
   7   6   4 53.3677 10.5655   8
  -8  -6  -4 65.7129 16.8097   3
   8   6   4 45.9595 8.80578   8
   8   6   4 49.6863 7.87931   7
   9   6   4 12.2868 5.93116   8
   9   6   4 1.18418 6.50136   2
  13  -7  -4 19.5296 10.2351   6
  13  -7  -4 48.9692 10.3573   7
  13  -7  -4 32.3873 8.89360   4
  12  -7  -4 41.1907 9.08687   4
  12  -7  -4 40.9343 10.3977   7
  11  -7  -4 83.9707 13.9821   7
  11  -7  -4 98.6356 11.7223   4
  10  -7  -4 250.258 18.2057   4
  10  -7  -4 279.770 20.9169   7
   9  -7  -4 13.4040 5.63124   7
   9  -7  -4 19.9659 6.10044   4
  -9   7   4 7.83500 3.78819   8
   8  -7  -4 81.7046 9.19507   4
   8  -7  -4 67.1770 10.7483   7
  -8   7   4 83.6629 13.0607   8
   7  -7  -4 91.9023 10.2832   7
   7  -7  -4 88.5980 9.09463   4
  -7   7   4 90.4601 10.4564   8
   6  -7  -4 12.4139 4.81523   7
   6  -7  -4 8.83330 3.28589   4
  -6   7   4 20.8543 6.29159   8
   5  -7  -4 2.27964 1.80808   4
   5  -7  -4 2.84373 1.89414   7
   5  -7  -4 3.01144 2.33901   3
  -5   7   4 4.50380 2.60299   8
   4  -7  -4 169.417 9.94469   4
   4  -7  -4 157.466 8.68069   6
   4  -7  -4 180.538 13.3218   7
   4  -7  -4 153.826 11.7519   3
  -4   7   4 147.021 12.7111   8
   3  -7  -4 399.637 20.7925   3
   3  -7  -4 396.668 12.7237   6
   3  -7  -4 414.622 20.3276   7
   3  -7  -4 390.991 14.3692   4
  -3   7   4 410.437 21.4856   8
   2  -7  -4 1674.40 31.5210   6
   2  -7  -4 1728.83 34.7648   4
   2  -7  -4 1690.07 46.4225   7
  -2   7   4 1672.94 48.8209   8
   1  -7  -4 167.948 6.67717   4
   1  -7  -4 161.368 14.9021   3
  -1   7   4 152.480 13.1000   8
   0  -7  -4 -0.3625 2.87348   3
   0  -7  -4 -1.2063 1.46338   5
   0   7   4 1.60174 1.87793   8
  -1  -7  -4 52.4402 5.44239   5
  -1  -7  -4 42.9285 9.11485   3
   1   7   4 64.6764 10.4895   8
  -2  -7  -4 171.302 18.0510   3
  -2  -7  -4 185.858 10.6092   5
   2   7   4 170.552 14.4357   8
  -3  -7  -4 271.835 14.0639   5
  -3  -7  -4 246.566 22.5319   3
   3   7   4 300.981 19.6046   8
  -4  -7  -4 29.2221 14.6957   3
   4   7   4 42.0574 9.38637   8
  -5  -7  -4 62.1807 15.8585   3
   5   7   4 36.1630 7.78089   8
  -6  -7  -4 68.5550 16.2538   3
   6   7   4 71.8468 12.8554   8
  -7  -7  -4 3.33898 3.66955   5
  -7  -7  -4 4.96367 7.99169   3
   7   7   4 3.43514 4.22392   8
  -8  -7  -4 14.4214 9.40261   3
   8   7   4 15.5215 5.97401   8
  13  -8  -4 1.12487 3.66538   4
  13  -8  -4 1.92701 4.86732   7
  12  -8  -4 14.5451 6.47101   7
  12  -8  -4 3.90673 4.16094   4
  11  -8  -4 112.367 13.0161   4
  11  -8  -4 121.565 14.2054   7
  10  -8  -4 0.97588 3.32159   4
  10  -8  -4 -0.8955 3.47458   7
   9  -8  -4 -2.4198 2.14919   7
   9  -8  -4 -0.2156 1.66886   4
  -9   8   4 2.35285 2.78227   8
   8  -8  -4 -1.9988 2.49209   4
   8  -8  -4 5.90391 3.76656   7
  -8   8   4 1.58968 3.15616   8
   7  -8  -4 504.973 25.7761   7
   7  -8  -4 532.696 23.1372   4
  -7   8   4 545.341 27.1557   8
   6  -8  -4 65.3229 7.28858   4
   6  -8  -4 51.8577 9.93407   7
  -6   8   4 47.8234 9.17689   8
   5  -8  -4 277.945 17.9205   7
   5  -8  -4 251.996 15.4114   3
   5  -8  -4 275.501 14.0641   4
  -5   8   4 275.898 18.7281   8
   4  -8  -4 39.5449 8.65359   3
   4  -8  -4 31.2841 5.10664   6
   4  -8  -4 34.3443 7.80475   7
   4  -8  -4 31.6407 6.52608   4
  -4   8   4 20.1764 5.30559   8
   3  -8  -4 513.238 16.6633   4
   3  -8  -4 511.122 24.1450   7
   3  -8  -4 507.003 25.6791   3
  -3   8   4 509.253 25.5902   8
   2  -8  -4 743.201 29.5700   7
   2  -8  -4 800.064 34.8248   3
  -2   8   4 802.394 32.8281   8
   1  -8  -4 237.089 10.6832   5
   1  -8  -4 224.459 18.7247   3
  -1   8   4 193.034 15.7517   8
   0  -8  -4 267.870 11.8918   5
   0  -8  -4 249.428 21.1223   3
   0   8   4 258.899 18.4029   8
  -1  -8  -4 2.02185 3.46308   3
  -1  -8  -4 9.73741 2.87406   5
   1   8   4 6.50182 3.63872   8
  -2  -8  -4 7.13062 4.45584   3
   2   8   4 15.3899 5.42013   8
  -3  -8  -4 112.894 15.8603   3
   3   8   4 130.510 13.7932   8
  -4  -8  -4 14.2348 6.52911   3
   4   8   4 9.17962 4.52414   8
  -5  -8  -4 83.0357 16.6983   3
   5   8   4 126.662 14.2961   8
  -6  -8  -4 127.447 22.5235   3
   6   8   4 106.979 13.6322   8
  -7  -8  -4 63.9852 16.2192   3
   7   8   4 47.3854 14.4357   8
  13  -9  -4 -4.2186 3.35129   4
  13  -9  -4 5.58788 5.50151   7
  12  -9  -4 0.90966 3.60942   4
  12  -9  -4 -2.7658 3.05476   7
  11  -9  -4 74.2161 13.2919   7
  11  -9  -4 64.2685 11.1892   4
  10  -9  -4 27.7951 8.06202   7
  10  -9  -4 16.9791 5.17854   4
   9  -9  -4 56.4916 9.03526   4
   9  -9  -4 75.6468 13.0692   7
  -9   9   4 54.5684 10.3027   8
   8  -9  -4 127.164 13.2812   7
   8  -9  -4 120.856 11.2889   4
  -8   9   4 117.759 12.9169   8
   7  -9  -4 8.26845 3.78280   7
   7  -9  -4 14.7386 4.71949   4
  -7   9   4 15.3149 5.03570   8
   6  -9  -4 232.346 14.4239   3
   6  -9  -4 217.798 16.8074   7
   6  -9  -4 203.502 13.0162   4
  -6   9   4 238.247 18.2080   8
   5  -9  -4 36.9569 6.31476   4
   5  -9  -4 39.0876 8.68878   7
  -5   9   4 42.9975 9.22920   8
   4  -9  -4 18.1442 4.97161   7
   4  -9  -4 28.0463 7.54992   3
  -4   9   4 21.3836 7.04895   8
   2  -9  -4 7.73638 3.91966   7
   2  -9  -4 6.73246 4.83943   3
  -2   9   4 7.55696 3.91332   8
   1  -9  -4 318.939 24.4269   3
  -1   9   4 365.409 23.1305   8
   0  -9  -4 45.4637 11.7894   3
   0   9   4 81.6718 13.3636   8
  -1  -9  -4 267.616 24.0520   3
   1   9   4 239.286 19.0133   8
  -2  -9  -4 -2.3116 1.48588   5
  -2  -9  -4 2.61992 3.42448   3
   2   9   4 -4.0979 2.83353   8
  -3  -9  -4 74.0376 15.7546   3
   3   9   4 93.0607 15.0992   8
  -4  -9  -4 5.80557 5.56248   3
  -4  -9  -4 -2.0159 2.59952   5
   4   9   4 10.7164 4.74486   8
  -5  -9  -4 13.0631 8.54995   3
   5   9   4 21.6283 8.08196   8
  -6  -9  -4 36.7463 12.1536   3
   6   9   4 31.9959 10.2840   8
  12 -10  -4 11.1934 4.51580   4
  12 -10  -4 10.9798 5.34935   7
  11 -10  -4 18.3141 6.51302   4
  11 -10  -4 11.9633 5.76997   7
  10 -10  -4 46.6244 9.42154   4
  10 -10  -4 50.3234 11.2102   7
   9 -10  -4 -1.9450 2.03489   7
   9 -10  -4 3.33703 3.48204   4
  -9  10   4 -1.0932 3.36980   8
   8 -10  -4 10.3722 4.13465   4
   8 -10  -4 13.7491 5.52306   7
  -8  10   4 15.0487 5.71794   8
   7 -10  -4 11.6366 4.29269   3
   7 -10  -4 10.1820 5.09707   7
   7 -10  -4 5.65433 3.25317   4
  -7  10   4 20.7023 5.75157   8
   6 -10  -4 99.1720 10.6085   3
   6 -10  -4 91.5396 11.5813   7
   6 -10  -4 95.1747 8.70027   4
  -6  10   4 93.1060 11.6332   8
   5 -10  -4 263.996 21.1178   7
   5 -10  -4 282.675 19.3298   3
  -5  10   4 265.329 20.1345   8
   4 -10  -4 4.38044 4.55911   3
   4 -10  -4 -0.6465 1.07353   4
   4 -10  -4 3.53906 2.70350   7
  -4  10   4 1.29319 2.97797   8
   3 -10  -4 28.3547 6.91379   7
   3 -10  -4 33.6326 8.73464   3
  -3  10   4 26.7709 8.84708   8
   2 -10  -4 27.9970 9.41600   3
  -2  10   4 30.7846 7.97213   8
   1 -10  -4 434.044 30.0812   3
  -1  10   4 429.443 26.8013   8
   0 -10  -4 4.80589 5.76739   3
   0 -10  -4 0.66716 1.71468   5
   0  10   4 2.48637 3.31641   8
  -1 -10  -4 2.87129 2.97799   3
  -1 -10  -4 5.23490 2.36281   5
   1  10   4 -1.9232 2.85679   8
  -2 -10  -4 3.75225 3.55529   3
  -2 -10  -4 3.17772 2.54332   5
   2  10   4 0.58278 2.78711   8
  -3 -10  -4 85.7541 17.6161   3
   3  10   4 138.142 16.1568   8
  -4 -10  -4 3.54752 7.92287   3
   4  10   4 13.7725 6.99596   8
   5  10   4 4.80910 5.96508   8
  11 -11  -4 -5.9500 2.85706   7
 -11  11   4 7.42127 5.90726   8
  10 -11  -4 238.713 17.8430   4
  10 -11  -4 217.214 19.8948   7
   9 -11  -4 14.2875 5.81938   7
   9 -11  -4 26.8865 7.01662   4
  -9  11   4 35.3708 9.17527   8
   8 -11  -4 7.24378 3.35811   4
   8 -11  -4 0.33516 4.34522   7
  -8  11   4 7.20276 4.93318   8
   7 -11  -4 128.412 14.1509   7
   7 -11  -4 101.711 10.8789   3
  -7  11   4 111.609 13.4709   8
   6 -11  -4 101.599 12.0864   3
   6 -11  -4 83.0837 12.7287   7
  -6  11   4 72.0936 12.7381   8
   5 -11  -4 176.583 16.1888   7
   5 -11  -4 190.722 16.9195   3
  -5  11   4 188.303 17.6984   8
   4 -11  -4 49.5556 11.5658   3
   4 -11  -4 60.8807 11.1045   7
  -4  11   4 85.6502 14.6949   8
   3 -11  -4 0.24817 1.44882   5
   3 -11  -4 6.06192 4.23567   7
   3 -11  -4 -5.5955 3.25871   3
  -3  11   4 1.48964 3.48763   8
   2 -11  -4 97.4068 13.6535   3
  -2  11   4 81.5023 14.1786   8
   1 -11  -4 2.75415 4.35838   3
   1 -11  -4 5.48538 2.12781   5
   0 -11  -4 -3.2551 3.79901   3
   0 -11  -4 1.47094 2.53830   5
   0  11   4 7.63830 4.58272   8
  -1 -11  -4 14.8106 7.77412   3
   1  11   4 13.5447 6.75312   8
  -2 -11  -4 11.0555 7.09564   3
  -3 -11  -4 9.09917 7.62326   3
   3  11   4 14.7290 6.92512   8
  10 -12  -4 1.72244 3.83664   4
  10 -12  -4 5.17471 4.54937   7
 -10  12   4 14.6698 5.68859   8
   9 -12  -4 60.8554 12.4984   7
   9 -12  -4 27.9787 6.53320   4
  -9  12   4 27.1813 8.07221   8
   8 -12  -4 23.4588 7.51431   7
  -8  12   4 29.9665 8.30088   8
   7 -12  -4 311.749 23.4199   7
  -7  12   4 352.513 25.3478   8
   6 -12  -4 117.694 14.1941   7
   6 -12  -4 89.4804 14.5219   3
  -6  12   4 116.774 14.7769   8
   5 -12  -4 56.5842 12.3489   3
   5 -12  -4 71.3876 12.3960   7
  -5  12   4 53.1417 11.3342   8
   4 -12  -4 146.938 16.5841   3
   4 -12  -4 144.702 14.6338   7
  -4  12   4 135.851 15.8480   8
   3 -12  -4 68.2325 13.9868   3
  -3  12   4 43.3139 10.5949   8
   2 -12  -4 121.438 21.4235   3
  -2  12   4 134.279 20.1781   8
   1 -12  -4 83.5999 16.0390   3
  -1  12   4 89.5264 16.5608   8
   0 -12  -4 93.1723 20.4499   3
   0  12   4 72.6142 13.2325   8
  -1 -12  -4 49.3736 16.0641   3
   1  12   4 73.2509 14.4760   8
   8 -13  -4 -3.5297 3.53932   4
   8 -13  -4 -2.0273 5.79293   7
  -8  13   4 -1.4018 4.65094   8
   7 -13  -4 0.36145 3.95923   4
   7 -13  -4 13.9830 5.54258   7
  -7  13   4 6.16077 6.97050   8
   6 -13  -4 -5.0409 8.14989   7
   6 -13  -4 -9.5365 5.59596   3
  -6  13   4 5.55961 4.61505   8
   5 -13  -4 45.9046 10.8382   3
   5 -13  -4 64.8475 12.2276   7
  -5  13   4 47.0655 12.3123   8
   4 -13  -4 34.3402 10.6257   3
  -4  13   4 34.6336 13.6120   8
   3 -13  -4 9.11564 6.87252   3
  -3  13   4 20.4249 8.42756   8
   2 -13  -4 12.5286 7.12997   3
  -2  13   4 4.58207 6.29436   8
   1 -13  -4 36.2502 10.4555   3
  -1  13   4 44.2825 16.2815   8
  -3  15  -5 2.82232 7.38178   8
   3 -15   5 8.66288 7.98118   3
  -4  15  -5 4.95728 4.53375   8
   4 -15   5 -2.7444 5.31594   7
   4 -15   5 37.4746 13.0270   3
  -5  15  -5 2.38325 4.76357   8
   5 -15   5 -6.9072 3.88625   7
   5 -15   5 25.6412 11.4604   3
  -6  15  -5 -12.382 5.66339   8
   6 -15   5 2.75012 5.53561   3
   6 -15   5 -2.0699 4.68014   7
   7 -15   5 9.72852 6.93711   3
   7 -15   5 -4.3522 5.32681   4
   0  14  -5 35.5625 8.84948   8
   0 -14   5 78.1826 19.5381   3
  -1  14  -5 5.93619 4.87949   8
   1 -14   5 -0.7465 7.86926   3
  -2  14  -5 29.3144 8.26000   8
   2 -14   5 43.3351 18.7068   3
  -3  14  -5 10.0757 4.31341   8
   3 -14   5 5.60873 7.27592   3
   3 -14   5 5.98283 3.74408   7
   4 -14   5 -12.160 5.68085   4
   4 -14   5 2.46791 3.86730   7
   4 -14   5 56.8440 14.9339   3
   6 -14   5 33.3215 10.7545   3
   6 -14   5 21.2066 6.69509   7
   6 -14   5 30.7491 9.93232   2
  -7  14  -5 9.56100 4.90484   8
   7 -14   5 19.8651 8.74997   3
   7 -14   5 14.3190 5.97130   7
   7 -14   5 7.57415 3.73086   4
   8 -14   5 -0.1276 6.42058   2
   8 -14   5 6.11607 4.54365   4
   8 -14   5 -7.2234 5.00097   3
   8 -14   5 0.09011 4.98691   7
   9 -14   5 19.5633 8.21158   2
   9 -14   5 22.3355 7.01304   4
   9 -14   5 30.6113 9.54968   3
   9 -14   5 23.3850 8.26112   7
   2  13  -5 3.05532 3.28676   8
   2  13  -5 2.72147 3.53168   6
  -2 -13   5 9.31144 7.29256   3
   1  13  -5 11.4345 5.37632   8
   1  13  -5 8.28962 3.07090   6
   0  13  -5 12.1101 5.12673   6
   0  13  -5 9.38933 4.92101   8
   0 -13   5 10.3116 8.40511   3
  -1  13  -5 307.025 21.2248   8
   1 -13   5 304.625 27.4413   3
  -2  13  -5 10.6368 4.81137   8
   2 -13   5 5.11571 5.58793   3
   2 -13   5 2.56065 2.53111   7
  -3  13  -5 13.2922 5.36330   8
   3 -13   5 1.24286 2.93466   7
   3 -13   5 6.60596 7.19446   3
  -4  13  -5 4.78152 2.93285   8
   4 -13   5 11.9825 5.91383   3
   4 -13   5 4.26417 2.58486   7
   4 -13   5 4.35159 2.89699   4
   5 -13   5 348.909 26.7908   7
   6 -13   5 123.039 13.1332   7
   6 -13   5 128.929 16.8384   2
   6 -13   5 139.605 17.5387   3
   7 -13   5 54.3353 10.0507   7
   7 -13   5 52.5410 11.7418   3
   7 -13   5 69.4043 13.7303   2
   8 -13   5 1.78828 4.34668   3
   8 -13   5 -1.1655 2.90748   7
   8 -13   5 9.68743 6.09367   2
   8 -13   5 -3.2238 2.28396   4
   9 -13   5 33.5463 9.52644   7
   9 -13   5 67.9180 14.7317   2
   9 -13   5 46.8207 11.0558   3
   9 -13   5 34.7413 9.07927   4
  10 -13   5 19.0275 6.46011   7
  10 -13   5 36.0745 10.2759   2
  10 -13   5 17.5481 7.80042   4
  11 -13   5 31.3450 8.75377   7
  11 -13   5 30.1683 9.37769   4
  11 -13   5 36.9669 11.6714   2
   4  12  -5 13.8892 4.12665   6
   4  12  -5 11.2587 7.45394   8
  -4 -12   5 7.70278 7.62733   3
   3  12  -5 202.077 30.8814   8
   3  12  -5 148.668 11.2175   6
  -3 -12   5 194.162 43.9198   3
   2  12  -5 22.0415 7.86040   8
   2  12  -5 30.6389 6.15396   6
  -2 -12   5 60.8452 15.4067   3
   1  12  -5 51.1029 8.06683   6
   1  12  -5 55.3719 10.0771   8
  -1 -12   5 70.5451 14.9643   3
   0  12  -5 5.03052 3.25038   8
   0  12  -5 9.11903 3.85317   6
   0 -12   5 8.61409 6.90643   3
  -1  12  -5 79.0333 8.92890   6
  -1  12  -5 96.3869 11.1923   8
   1 -12   5 117.871 16.0602   3
  -2  12  -5 52.0795 9.61077   6
  -2  12  -5 48.3063 9.20121   8
   2 -12   5 51.6788 12.2737   3
  -3  12  -5 37.8456 8.08246   8
   3 -12   5 39.7272 10.4965   2
   3 -12   5 25.7378 8.25499   3
  -4  12  -5 18.7682 5.20257   8
   4 -12   5 10.1021 6.68839   3
   4 -12   5 6.45141 5.42008   2
   4 -12   5 4.44718 3.88423   7
   5 -12   5 447.448 23.0210   7
   5 -12   5 459.174 29.8134   3
   5 -12   5 457.279 30.0761   2
   6 -12   5 15.0078 6.14379   3
   6 -12   5 29.2617 8.45503   2
   6 -12   5 19.2700 5.34036   7
   7 -12   5 40.9518 10.0483   2
   7 -12   5 37.2906 8.70388   7
   8 -12   5 53.1651 9.07901   4
   8 -12   5 54.2909 12.8264   2
   8 -12   5 73.1174 13.5648   7
   9 -12   5 136.317 17.2436   2
   9 -12   5 127.388 13.5763   4
   9 -12   5 136.739 14.3375   7
  10 -12   5 83.3193 15.0175   2
  10 -12   5 86.9180 14.7637   7
  10 -12   5 87.5353 12.7949   4
  11 -12   5 4.70606 3.58098   7
  11 -12   5 2.35653 7.81965   2
  12 -12   5 3.78269 6.15820   2
  12 -12   5 7.97332 5.39823   4
   5  11  -5 6.77609 3.96458   8
   5  11  -5 3.85326 2.93722   6
  -5 -11   5 5.43205 7.59810   3
   4  11  -5 6.66733 4.65190   8
   4  11  -5 9.01684 3.33617   6
  -4 -11   5 -0.9056 4.60679   3
   3  11  -5 70.0422 13.5215   8
   3  11  -5 54.3871 6.56788   6
  -3 -11   5 49.0875 13.6428   3
   2  11  -5 18.6207 5.90335   8
   2  11  -5 6.55833 2.77327   6
  -2 -11   5 13.8347 6.62395   3
   1  11  -5 73.1314 7.63260   6
   1  11  -5 81.8666 10.3710   8
  -1 -11   5 67.7269 14.5875   3
   0  11  -5 1.57542 1.92251   6
   0  11  -5 7.12564 3.58812   8
   0 -11   5 3.64844 4.43296   3
  -1  11  -5 33.3944 7.35324   8
  -1  11  -5 30.7025 5.78667   6
  -2  11  -5 23.4394 5.93946   8
  -2  11  -5 15.6328 4.06211   6
   2 -11   5 23.5523 7.43084   3
   2 -11   5 10.1243 5.76767   2
  -3  11  -5 68.6985 7.95982   8
   3 -11   5 85.8983 15.3354   3
   3 -11   5 67.9917 13.6954   2
  -4  11  -5 22.6282 5.44918   8
   4 -11   5 12.3904 4.43886   7
   4 -11   5 16.4046 5.71854   2
   4 -11   5 8.77115 5.44260   3
   6 -11   5 5.24861 2.73356   7
   7 -11   5 28.6181 7.27136   7
   7 -11   5 33.1572 8.05958   2
   8 -11   5 -1.6379 3.12395   7
   8 -11   5 10.0487 6.05879   2
   9 -11   5 15.5583 5.26136   7
   9 -11   5 14.0740 6.71906   2
  10 -11   5 15.3151 5.38508   4
  10 -11   5 48.1545 10.9583   7
  10 -11   5 24.2507 8.05724   2
  11 -11   5 21.2647 8.20107   2
  11 -11   5 24.3111 7.93148   7
  11 -11   5 40.7775 10.2989   4
  12 -11   5 28.0315 10.4468   2
  12 -11   5 36.3375 9.48274   7
  12 -11   5 57.1505 10.5443   4
   6  10  -5 6.28573 2.81160   6
   6  10  -5 4.86523 5.40714   8
  -6 -10   5 9.16763 7.39431   3
   5  10  -5 243.482 13.2947   6
   5  10  -5 240.250 19.9394   8
  -5 -10   5 234.357 24.1885   3
   4  10  -5 14.9512 5.02023   8
   4  10  -5 30.6134 5.74881   6
  -4 -10   5 28.7733 9.59320   3
   3  10  -5 152.665 14.8747   8
   3  10  -5 153.445 10.1926   6
  -3 -10   5 147.472 18.0229   3
   2  10  -5 204.843 17.8289   8
   2  10  -5 225.448 12.5465   6
  -2 -10   5 197.461 20.0538   3
   1  10  -5 61.4380 6.62871   6
   1  10  -5 69.2792 11.3679   8
  -1 -10   5 83.4328 15.7420   3
   0  10  -5 529.549 24.8537   8
   0  10  -5 523.854 20.1941   6
   0 -10   5 504.653 30.7348   3
  -1  10  -5 11.7626 3.62752   6
  -1  10  -5 -2.8519 1.34701   8
   1 -10   5 0.14373 1.07096   7
   1 -10   5 1.12422 3.14892   3
   1 -10   5 -2.5159 1.50193   4
   1 -10   5 0.33299 2.06837   2
  -2  10  -5 323.578 17.3120   8
  -2  10  -5 311.671 16.0489   6
   2 -10   5 324.503 22.2936   2
   2 -10   5 299.519 22.3466   3
   2 -10   5 302.163 11.4727   4
  -3  10  -5 486.925 21.1964   6
  -3  10  -5 528.500 21.7064   8
   3 -10   5 538.493 21.5198   7
   3 -10   5 471.454 32.0185   2
  -4  10  -5 55.1650 6.55594   8
   4 -10   5 71.5540 8.09294   7
   4 -10   5 50.3966 8.94381   2
   6 -10   5 27.7263 7.68723   2
   6 -10   5 31.2609 7.09147   7
   7 -10   5 12.7295 4.48283   7
   7 -10   5 7.07579 3.68699   2
   8 -10   5 138.274 15.4374   2
   8 -10   5 123.501 13.9929   7
   9 -10   5 16.4459 5.29139   2
   9 -10   5 9.64746 4.46212   7
  10 -10   5 46.1010 9.60723   7
  10 -10   5 38.2525 10.5443   2
  11 -10   5 94.0658 14.8730   7
  11 -10   5 117.448 13.7221   4
  11 -10   5 110.048 14.1909   2
  12 -10   5 30.7107 11.0330   4
  12 -10   5 13.0411 6.35712   2
  13 -10   5 59.7617 13.2876   4
  13 -10   5 70.0749 14.8510   7
  13 -10   5 62.2205 13.6908   2
   7   9  -5 4.51880 3.24941   6
   7   9  -5 17.9443 9.77124   8
  -7  -9   5 5.63146 7.11863   3
   6   9  -5 22.1834 4.69046   6
   6   9  -5 20.8589 6.02102   8
  -6  -9   5 22.2476 7.92532   3
   5   9  -5 65.6831 12.6346   8
   5   9  -5 78.0766 7.98904   6
  -5  -9   5 106.999 14.9859   3
   4   9  -5 3.66312 2.43538   6
   4   9  -5 1.80141 3.27566   8
  -4  -9   5 -1.2446 3.23918   3
   3   9  -5 126.526 12.7769   8
   3   9  -5 143.592 9.35215   6
  -3  -9   5 136.699 16.1793   3
   2   9  -5 5.50705 3.22772   8
   2   9  -5 3.79122 1.79102   6
  -2  -9   5 4.98651 4.39609   3
   1   9  -5 357.952 15.0673   6
   1   9  -5 310.243 18.7249   8
  -1  -9   5 334.263 24.5839   3
   0   9  -5 7.21701 3.20945   8
   0   9  -5 7.97443 2.98999   6
   0  -9   5 4.98703 3.39161   2
   0  -9   5 11.4411 5.59445   3
  -1   9  -5 204.016 11.6264   6
  -1   9  -5 197.085 13.2006   8
   1  -9   5 189.346 16.7925   3
   1  -9   5 194.712 16.1797   2
  -2   9  -5 3.92469 2.30559   8
  -2   9  -5 4.70767 2.57295   6
   2  -9   5 8.58886 2.10689   4
   2  -9   5 11.4770 3.40344   7
   2  -9   5 13.0367 5.59807   2
  -3   9  -5 28.3857 5.22040   6
  -3   9  -5 34.2978 5.91727   8
   3  -9   5 25.3028 6.40240   2
   3  -9   5 36.3887 6.22321   7
  -4   9  -5 344.829 14.9331   8
   4  -9   5 348.255 11.2101   5
   4  -9   5 376.493 22.8824   2
   4  -9   5 345.078 17.6252   7
   5  -9   5 293.495 20.5113   2
   5  -9   5 252.753 10.8443   5
   5  -9   5 266.951 16.1204   7
   6  -9   5 567.096 29.3110   2
   6  -9   5 495.936 23.8526   7
   7  -9   5 142.877 12.8253   7
   7  -9   5 111.873 13.1045   2
   8  -9   5 228.994 19.0804   2
   8  -9   5 243.861 17.7906   7
   9  -9   5 239.383 18.2776   7
   9  -9   5 243.307 20.1180   2
  10  -9   5 36.1618 8.54511   7
  10  -9   5 18.4970 6.80689   2
  11  -9   5 1.76363 3.46791   7
  11  -9   5 3.80425 3.71923   4
  11  -9   5 -8.2492 2.98852   2
  12  -9   5 52.3578 10.3027   4
  12  -9   5 70.9222 12.8963   2
  12  -9   5 83.3124 15.3592   7
  13  -9   5 163.235 18.6598   4
  13  -9   5 230.893 20.1324   7
  13  -9   5 171.781 17.6562   2
   8   8  -5 12.1458 3.22160   6
   8   8  -5 7.20594 6.01461   8
  -8  -8   5 6.27854 7.60809   3
   7   8  -5 36.3486 9.30795   8
   7   8  -5 34.4658 5.69077   6
  -7  -8   5 25.4304 9.30980   3
   6   8  -5 24.9636 5.82219   6
  -6  -8   5 23.5053 8.63429   3
   5   8  -5 7.85292 3.27579   6
  -5  -8   5 10.5069 4.39865   3
   4   8  -5 350.569 14.9068   6
  -4  -8   5 319.371 24.5267   3
   3   8  -5 3.78844 2.35254   6
  -3  -8   5 4.50129 3.82837   3
   2   8  -5 22.8995 4.00321   6
  -2  -8   5 33.9376 8.92141   3
   1   8  -5 0.97836 1.58606   6
  -1  -8   5 2.26446 1.37610   4
  -1  -8   5 -1.6316 1.50874   2
  -1  -8   5 -1.9262 1.59947   3
   0   8  -5 16.5072 3.73211   6
   0  -8   5 18.4837 3.33434   7
   0  -8   5 24.5581 7.45676   3
   0  -8   5 16.0016 2.86023   4
   0  -8   5 19.7275 6.12194   2
  -1   8  -5 462.360 16.8347   6
   1  -8   5 441.088 23.1349   2
   1  -8   5 444.965 15.8429   7
   1  -8   5 426.384 13.6600   4
  -2   8  -5 97.2151 7.71991   6
  -2   8  -5 85.7032 7.72099   8
   2  -8   5 88.8365 7.32758   7
   2  -8   5 79.9977 10.0124   2
   2  -8   5 99.3262 6.08090   4
  -3   8  -5 87.1601 7.02331   8
  -3   8  -5 75.5790 7.18161   6
   3  -8   5 86.4539 7.97436   7
   3  -8   5 81.5069 9.96016   2
   3  -8   5 83.8218 4.44030   5
  -4   8  -5 48.7431 4.93202   8
   4  -8   5 42.7033 7.16549   7
   4  -8   5 50.1918 4.22474   5
   4  -8   5 45.4367 9.01728   2
  -5   8  -5 18.6638 3.44172   8
   5  -8   5 24.2856 7.12915   2
   5  -8   5 19.8609 5.34316   7
   5  -8   5 25.1292 3.96774   5
   6  -8   5 38.6005 7.77089   7
   6  -8   5 26.0928 7.08074   2
   7  -8   5 99.4424 11.9172   2
   7  -8   5 112.714 10.9612   7
   8  -8   5 115.341 11.7526   7
   8  -8   5 114.577 12.8512   2
   9  -8   5 163.867 14.7625   7
   9  -8   5 172.228 16.1976   2
  10  -8   5 238.135 19.2804   2
  10  -8   5 233.162 18.4195   7
  11  -8   5 84.4109 14.2125   2
  11  -8   5 80.1359 12.7372   7
  12  -8   5 124.813 14.2549   2
  12  -8   5 93.9722 14.5433   7
  12  -8   5 116.610 13.7629   4
  13  -8   5 13.0595 5.71640   7
  13  -8   5 15.1407 6.43634   2
  13  -8   5 36.1217 8.89721   4
   9   7  -5 47.9611 7.49527   6
  -9  -7   5 23.7385 9.58768   3
   8   7  -5 55.5633 6.74709   6
  -8  -7   5 71.0721 14.8290   3
   7   7  -5 11.9101 3.65969   6
  -7  -7   5 20.7892 7.74069   3
   6   7  -5 111.160 8.87340   6
  -6  -7   5 115.449 14.5203   3
   5   7  -5 311.925 14.5512   6
  -5  -7   5 361.966 25.1699   3
   4   7  -5 31.9972 5.48118   6
  -4  -7   5 31.3165 8.52632   3
   3   7  -5 69.1719 6.04061   6
  -3  -7   5 67.7611 12.7366   3
   2   7  -5 576.121 18.2917   6
  -2  -7   5 573.464 16.9508   4
  -2  -7   5 603.863 29.0830   3
   1   7  -5 201.510 9.82396   6
  -1  -7   5 153.404 20.3004   2
  -1  -7   5 207.908 16.1738   3
  -1  -7   5 201.121 8.77623   4
   0   7  -5 1183.87 28.5216   6
   0  -7   5 1171.54 26.3498   7
   0  -7   5 1166.85 26.3330   4
   0  -7   5 1197.58 38.8657   2
  -1   7  -5 18.2036 3.51924   6
   1  -7   5 26.8940 4.53026   7
   1  -7   5 17.9464 5.47460   2
   1  -7   5 23.6682 3.64526   4
  -2   7  -5 287.086 12.7993   6
   2  -7   5 339.938 14.1718   7
   2  -7   5 309.181 18.0839   2
   2  -7   5 311.030 11.2166   4
  -3   7  -5 89.4441 7.37038   6
  -3   7  -5 95.9954 6.79544   8
   3  -7   5 95.3352 6.06411   4
   3  -7   5 116.089 11.0431   2
   3  -7   5 98.9136 8.26720   7
   3  -7   5 86.9956 4.90766   5
  -4   7  -5 217.300 9.37815   8
  -4   7  -5 212.264 11.9814   6
   4  -7   5 228.102 16.0957   2
   4  -7   5 227.252 9.47946   5
   5  -7   5 674.514 29.2967   2
   5  -7   5 660.500 20.0692   5
   5  -7   5 720.359 26.4512   7
   6  -7   5 535.066 23.6205   7
   6  -7   5 503.248 25.5654   2
   7  -7   5 776.508 32.8159   2
   7  -7   5 738.250 29.8971   7
   8  -7   5 110.418 11.4426   7
   8  -7   5 138.977 13.6982   2
   9  -7   5 -2.1514 1.88502   7
   9  -7   5 -2.5534 2.41912   2
  10  -7   5 45.2680 8.48067   7
  10  -7   5 52.5218 10.3152   2
  11  -7   5 67.1839 12.0263   7
  11  -7   5 70.3176 12.8443   2
  12  -7   5 81.4654 14.2822   2
  12  -7   5 88.5144 13.9082   7
  12  -7   5 84.4995 13.6943   4
  13  -7   5 71.3015 12.2378   2
  13  -7   5 72.7732 16.7398   4
  13  -7   5 69.5357 17.0792   7
   9   6  -5 53.6420 8.07368   6
   8   6  -5 44.5480 7.01662   6
   8   6  -5 41.4127 4.33277   4
  -8  -6   5 65.8063 16.5544   3
   7   6  -5 3.74386 2.23512   6
   7   6  -5 2.34428 1.56026   4
  -7  -6   5 5.75852 3.96047   3
   6   6  -5 115.017 6.37896   4
   6   6  -5 103.751 8.70097   6
  -6  -6   5 97.1557 12.8734   3
   5   6  -5 47.4763 3.96492   4
   5   6  -5 47.7686 5.69239   6
  -5  -6   5 57.3632 12.0471   3
   4   6  -5 965.962 27.0349   6
   4   6  -5 1008.90 22.2163   4
   4   6  -5 929.526 32.8152   2
  -4  -6   5 1013.90 39.2036   3
  -4  -6   5 958.609 25.3214   4
   3   6  -5 150.331 8.81176   6
   3   6  -5 160.886 7.02352   4
   3   6  -5 135.732 10.3458   2
  -3  -6   5 141.542 13.5689   3
  -3  -6   5 154.610 8.24615   4
   2   6  -5 2.02081 1.62812   6
   2   6  -5 0.86063 1.72667   2
  -2  -6   5 1.90858 1.31245   4
  -2  -6   5 5.14480 2.66627   2
  -2  -6   5 0.20092 2.03473   3
   1   6  -5 727.646 19.8837   6
   1   6  -5 731.921 25.9497   2
  -1  -6   5 700.904 18.7790   4
  -1  -6   5 728.924 26.2199   2
   0   6  -5 129.827 8.28999   6
   0   6  -5 138.375 10.6300   2
   0  -6   5 130.712 6.80640   7
   0  -6   5 140.645 10.8605   2
   0  -6   5 140.506 6.95197   4
  -1   6  -5 638.185 15.2184   5
  -1   6  -5 648.257 24.8222   2
  -1   6  -5 639.936 18.3814   6
   1  -6   5 634.402 16.8187   4
   1  -6   5 621.969 24.4777   2
   1  -6   5 645.216 21.8538   6
   1  -6   5 645.498 19.1363   7
  -2   6  -5 545.229 15.5160   5
  -2   6  -5 546.733 17.1930   6
  -2   6  -5 473.345 21.7054   2
   2  -6   5 558.937 17.2710   4
   2  -6   5 522.621 22.6986   2
   2  -6   5 536.537 18.4117   7
   2  -6   5 529.655 17.0485   6
   2  -6   5 551.114 12.8109   5
  -3   6  -5 177.532 10.0502   6
  -3   6  -5 173.833 9.17409   5
   3  -6   5 186.706 8.57385   4
   3  -6   5 195.554 7.73347   5
   3  -6   5 183.438 10.9821   7
   3  -6   5 178.526 13.3028   2
  -4   6  -5 734.388 22.4209   5
  -4   6  -5 663.471 21.6974   6
  -4   6  -5 687.304 16.7630   8
   4  -6   5 677.105 27.5930   2
   4  -6   5 663.732 18.4560   5
   4  -6   5 700.411 24.3712   7
  -5   6  -5 5.53596 2.77758   5
   5  -6   5 6.54900 2.21060   5
   5  -6   5 11.0323 4.81004   2
   5  -6   5 10.1506 3.84868   7
  -6   6  -5 13.7169 4.26109   5
   6  -6   5 12.4899 4.53136   7
   6  -6   5 14.6787 5.18403   2
  -7   6  -5 2.27253 1.95219   5
   7  -6   5 5.69420 2.87488   7
   7  -6   5 -0.1037 2.88319   2
   8  -6   5 155.560 14.1240   2
   8  -6   5 175.828 14.3803   7
   9  -6   5 19.7746 5.75684   7
   9  -6   5 27.1416 6.55352   2
  10  -6   5 116.003 13.2288   2
  10  -6   5 127.701 15.1925   7
  11  -6   5 6.24845 3.56419   7
  11  -6   5 14.1543 5.94152   2
  12  -6   5 34.9558 8.24894   7
  12  -6   5 49.8599 10.2592   2
  12  -6   5 40.6179 8.58307   4
  13  -6   5 -4.3914 3.63273   2
  13  -6   5 2.08853 5.15365   7
  13  -6   5 -3.9290 3.55062   4
  11   5  -5 35.3087 6.79047   6
 -11  -5   5 -1.5248 6.60321   3
  10   5  -5 144.848 8.63013   4
  10   5  -5 124.674 11.6362   6
   9   5  -5 59.0601 8.87603   6
   9   5  -5 55.2319 5.54950   4
   8   5  -5 9.10795 3.83757   6
   8   5  -5 9.80465 2.95117   4
  -8  -5   5 6.15821 6.56965   3
   7   5  -5 86.3282 6.37705   4
   7   5  -5 89.7424 7.25394   5
   7   5  -5 94.2271 8.81187   6
  -7  -5   5 92.5910 11.9413   3
   6   5  -5 114.139 7.01653   5
   6   5  -5 120.401 7.17708   4
   6   5  -5 111.610 9.26402   6
  -6  -5   5 126.154 8.74579   4
  -6  -5   5 97.5426 11.8164   3
   5   5  -5 220.738 9.29335   4
   5   5  -5 201.592 11.7576   6
   5   5  -5 207.316 9.05433   5
  -5  -5   5 218.225 16.6884   3
  -5  -5   5 185.464 10.5583   4
   4   5  -5 93.3394 5.61319   4
   4   5  -5 85.0106 7.06685   6
   4   5  -5 86.7492 5.22514   5
   4   5  -5 86.8775 7.12141   2
  -4  -5   5 94.7825 6.82541   4
  -4  -5   5 88.1863 10.1410   3
   3   5  -5 546.330 18.0928   6
   3   5  -5 532.685 19.4783   2
   3   5  -5 562.818 15.0919   4
  -3  -5   5 577.305 17.6225   4
  -3  -5   5 536.770 29.3198   3
   2   5  -5 1079.00 30.1980   2
   2   5  -5 1030.83 28.7827   6
   2   5  -5 1075.09 23.3013   4
  -2  -5   5 1047.22 25.3015   4
  -2  -5   5 1064.82 34.8461   3
  -2  -5   5 1083.95 30.6623   2
   1   5  -5 160.500 10.5116   2
   1   5  -5 158.191 7.88588   6
  -1  -5   5 157.751 9.56195   6
  -1  -5   5 156.227 7.56577   4
  -1  -5   5 154.190 6.25799   7
  -1  -5   5 177.291 10.9787   2
   0   5  -5 28.2842 4.82818   2
   0   5  -5 33.6188 3.52390   6
   0   5  -5 39.8333 2.75391   5
   0  -5   5 33.6304 3.52713   7
   0  -5   5 36.6545 4.16317   6
   0  -5   5 47.8254 3.88838   4
   0  -5   5 42.4172 5.56208   2
  -1   5  -5 115.458 6.50778   6
  -1   5  -5 116.882 9.43033   2
  -1   5  -5 124.336 5.83955   5
   1  -5   5 121.131 9.64593   2
   1  -5   5 115.215 6.12787   4
   1  -5   5 120.872 7.35063   7
   1  -5   5 119.249 6.91681   6
  -2   5  -5 124.928 7.03547   6
  -2   5  -5 120.943 10.0277   2
  -2   5  -5 120.046 6.61302   5
   2  -5   5 103.934 9.26098   2
   2  -5   5 106.863 6.06020   4
   2  -5   5 108.240 6.21598   6
   2  -5   5 112.278 5.13753   5
   2  -5   5 122.583 8.11141   7
  -3   5  -5 1223.15 29.8796   6
  -3   5  -5 1259.27 38.0863   2
  -3   5  -5 1326.21 30.6278   5
   3  -5   5 1315.66 33.7014   7
   3  -5   5 1313.10 37.9451   2
   3  -5   5 1274.69 27.6765   6
   3  -5   5 1269.00 26.9638   5
  -4   5  -5 458.626 17.0410   5
  -4   5  -5 436.581 21.2597   2
   4  -5   5 437.008 14.3640   5
   4  -5   5 429.676 13.6221   6
   4  -5   5 467.752 19.0279   7
   4  -5   5 443.142 20.9925   2
  -5   5  -5 3.52191 2.22443   5
   5  -5   5 6.72594 2.95863   2
   5  -5   5 0.50086 1.41504   5
   5  -5   5 5.93335 2.36036   7
  -6   5  -5 613.525 23.7888   5
   6  -5   5 629.886 27.4013   2
   6  -5   5 624.168 24.9626   7
  -7   5  -5 3.04225 2.45269   5
   7  -5   5 -0.1688 1.53673   2
   7  -5   5 0.33280 1.87432   7
  -8   5  -5 992.896 35.6083   5
   8  -5   5 1040.91 36.4050   7
   8  -5   5 984.410 37.5047   2
   9  -5   5 12.4853 5.54184   7
   9  -5   5 6.37163 4.42771   2
  10  -5   5 -1.2014 2.69423   2
  10  -5   5 -1.4589 3.60730   7
  11  -5   5 0.97598 3.68861   7
  11  -5   5 12.3202 5.05779   2
  12  -5   5 4.76430 4.04623   7
  12  -5   5 0.91552 3.05492   4
  12  -5   5 -1.5089 3.56081   2
  13  -5   5 7.93115 4.55985   4
  13  -5   5 4.19237 4.99829   2
  13  -5   5 5.83106 4.30124   7
  11   4  -5 87.7149 10.4399   6
  11   4  -5 82.3784 8.01885   4
  10   4  -5 11.9831 4.72848   6
  10   4  -5 13.9271 3.42451   4
 -10  -4   5 0.17930 3.96873   3
   9   4  -5 153.584 12.7737   6
   9   4  -5 162.395 10.2061   4
   8   4  -5 179.489 10.4057   4
   8   4  -5 167.069 12.7922   6
  -8  -4   5 157.937 15.1960   3
   7   4  -5 31.6153 4.89337   4
   7   4  -5 17.0820 4.66112   6
  -7  -4   5 23.4718 7.06593   3
   6   4  -5 546.241 17.5645   4
   6   4  -5 519.105 21.0617   5
   6   4  -5 535.134 21.5072   6
  -6  -4   5 543.042 26.2896   3
   5   4  -5 3.55742 2.40577   6
   5   4  -5 3.47065 1.84704   4
   5   4  -5 0.39916 1.33221   5
  -5  -4   5 4.68706 2.35264   4
  -5  -4   5 4.25140 2.71043   3
   4   4  -5 374.016 15.6306   6
   4   4  -5 393.615 13.4740   5
   4   4  -5 392.032 12.9547   4
  -4  -4   5 353.648 14.2088   4
  -4  -4   5 387.527 19.6872   3
   3   4  -5 632.133 19.9397   2
   3   4  -5 658.379 20.4961   6
   3   4  -5 647.982 17.0171   4
  -3  -4   5 682.473 20.5103   2
  -3  -4   5 625.013 24.7017   3
  -3  -4   5 614.795 18.9610   4
   2   4  -5 86.2219 5.16883   4
   2   4  -5 77.9950 6.62630   2
  -2  -4   5 92.8561 7.54655   6
  -2  -4   5 86.1239 5.86187   4
  -2  -4   5 99.7743 7.26365   2
   1   4  -5 317.743 8.16752   5
   1   4  -5 311.063 10.1962   4
   1   4  -5 307.631 11.0566   6
   1   4  -5 295.596 13.6723   2
  -1  -4   5 302.886 10.8391   4
  -1  -4   5 289.275 13.4234   2
   0   4  -5 406.748 12.3449   6
   0   4  -5 416.333 10.6518   5
   0   4  -5 385.176 16.4330   2
   0  -4   5 393.964 12.2854   4
   0  -4   5 404.376 16.6335   2
   0  -4   5 404.408 14.0595   6
  -1   4  -5 540.093 14.1011   5
  -1   4  -5 557.303 14.9124   6
  -1   4  -5 539.672 20.8404   2
   1  -4   5 536.124 14.7797   4
   1  -4   5 530.837 15.4521   6
   1  -4   5 555.868 20.5778   2
  -2   4  -5 1401.89 31.5065   8
  -2   4  -5 1380.20 29.9968   5
  -2   4  -5 1443.54 38.8361   2
  -2   4  -5 1409.87 29.6306   6
   2  -4   5 1384.90 27.3463   5
   2  -4   5 1428.83 28.9944   6
   2  -4   5 1361.55 37.4760   2
   2  -4   5 1397.81 29.1966   4
  -3   4  -5 1049.13 23.2451   8
  -3   4  -5 1031.22 26.2215   5
  -3   4  -5 1059.15 25.5085   6
   3  -4   5 1078.49 23.3100   6
   3  -4   5 1099.86 33.0466   2
   3  -4   5 1014.35 27.0550   4
   3  -4   5 1061.75 23.7588   5
  -4   4  -5 1299.69 32.8065   5
  -4   4  -5 1283.93 39.1982   2
   4  -4   5 1293.14 38.2316   2
   4  -4   5 1304.10 34.9226   7
   4  -4   5 1351.16 29.9450   5
  -5   4  -5 162.210 10.6416   5
   5  -4   5 149.980 8.66895   5
   5  -4   5 157.017 7.64646   6
   5  -4   5 173.658 15.1507   7
   5  -4   5 158.423 12.3637   2
  -6   4  -5 43.5126 7.51659   5
   6  -4   5 44.1516 7.79601   7
   6  -4   5 34.5157 6.62450   2
  -7   4  -5 220.688 14.5996   5
   7  -4   5 202.501 15.0781   2
   7  -4   5 207.386 14.4446   7
  -8   4  -5 46.2887 8.73728   5
   8  -4   5 63.1602 10.9645   2
   8  -4   5 70.8521 8.99154   7
  -9   4  -5 558.532 27.1663   5
   9  -4   5 506.005 26.3770   2
   9  -4   5 542.926 26.2946   7
  10  -4   5 19.2625 6.43504   2
  10  -4   5 11.6834 4.54749   7
  11  -4   5 113.916 12.9085   7
  11  -4   5 121.845 13.3824   2
  12  -4   5 443.781 25.9617   4
  12  -4   5 428.454 25.5966   2
  12  -4   5 421.767 26.0381   7
  13  -4   5 -1.7624 4.84670   4
  13  -4   5 4.13759 4.65284   2
  13  -4   5 5.94651 4.28302   7
  12   3  -5 0.74469 3.71523   4
  12   3  -5 1.26726 4.01742   6
  11   3  -5 40.4957 8.75783   6
  11   3  -5 28.4603 5.35228   4
  10   3  -5 2.85171 2.94396   6
  10   3  -5 -1.1529 1.83006   4
 -10  -3   5 0.65284 3.57363   3
   9   3  -5 138.922 10.1695   4
   9   3  -5 173.682 20.5693   6
   8   3  -5 180.658 13.6816   6
   8   3  -5 192.734 11.5592   4
   7   3  -5 64.6237 6.35191   4
   7   3  -5 77.5448 8.46219   6
   6   3  -5 150.282 9.68484   5
   6   3  -5 157.369 11.3283   6
  -6  -3   5 154.653 12.3089   3
   5   3  -5 188.848 9.40776   4
   5   3  -5 165.848 10.9841   6
   5   3  -5 162.850 9.60052   5
  -5  -3   5 167.791 10.0527   4
  -5  -3   5 181.023 12.6982   3
   4   3  -5 254.866 10.5244   4
   4   3  -5 275.828 20.6238   6
  -4  -3   5 227.088 11.2881   4
  -4  -3   5 254.977 14.3311   3
   3   3  -5 287.622 10.6098   4
   3   3  -5 277.657 11.1909   2
   3   3  -5 269.760 12.1497   6
  -3  -3   5 295.017 14.5306   6
  -3  -3   5 280.179 11.7747   4
  -3  -3   5 285.215 14.3320   3
   2   3  -5 82.8740 5.94400   6
   2   3  -5 91.5871 6.59412   2
   2   3  -5 88.1602 5.27467   4
  -2  -3   5 89.4597 6.30012   2
  -2  -3   5 90.2843 4.52494   7
  -2  -3   5 90.5613 7.36942   6
  -2  -3   5 92.9080 6.00884   4
   1   3  -5 191.966 8.24728   6
   1   3  -5 174.005 9.78261   2
   1   3  -5 166.185 7.21192   4
  -1  -3   5 187.836 9.71048   2
  -1  -3   5 187.421 9.50976   6
  -1  -3   5 188.962 8.21858   4
   0   3  -5 3425.84 57.9515   5
   0   3  -5 3396.47 67.8244   2
   0   3  -5 3456.68 59.9522   4
   0   3  -5 3476.58 66.9287   8
   0   3  -5 3431.67 59.6156   6
   0  -3   5 3524.45 62.7928   6
   0  -3   5 3551.39 67.5629   2
   0  -3   5 3467.51 60.6403   4
  -1   3  -5 185.925 7.23206   6
  -1   3  -5 178.156 10.9698   2
  -1   3  -5 176.629 7.20495   5
   1  -3   5 184.529 10.8779   2
   1  -3   5 177.907 7.51536   4
   1  -3   5 178.300 7.68923   6
  -2   3  -5 112.170 5.82224   6
  -2   3  -5 113.219 6.44433   8
  -2   3  -5 112.582 6.43837   5
  -2   3  -5 94.5616 8.40614   2
   2  -3   5 118.833 9.17659   2
   2  -3   5 100.211 5.60131   4
   2  -3   5 119.051 5.66013   6
   2  -3   5 112.143 5.49332   5
  -3   3  -5 610.885 17.2069   6
  -3   3  -5 656.225 19.3251   5
  -3   3  -5 632.428 24.2164   2
  -3   3  -5 631.814 15.4189   8
   3  -3   5 651.085 15.6442   6
   3  -3   5 645.054 16.9923   5
   3  -3   5 634.388 16.9837   4
  -4   3  -5 716.054 22.3962   5
  -4   3  -5 724.032 27.3673   2
   4  -3   5 732.339 27.1959   2
   4  -3   5 742.261 17.6929   6
  -5   3  -5 30.0500 6.02976   5
  -5   3  -5 14.4181 4.53483   2
   5  -3   5 20.4566 5.81338   2
   5  -3   5 23.4557 4.33327   5
   5  -3   5 13.6197 2.39712   6
  -6   3  -5 37.3565 6.06779   5
   6  -3   5 40.4076 8.05005   2
   6  -3   5 41.6683 4.06097   6
   6  -3   5 52.4369 6.72813   7
  -7   3  -5 414.421 20.4990   5
   7  -3   5 411.333 20.4097   7
   7  -3   5 381.274 21.5222   2
  -8   3  -5 847.545 32.6374   5
   8  -3   5 817.329 31.7346   7
   8  -3   5 847.717 34.1466   2
  -9   3  -5 1.76925 2.03608   5
   9  -3   5 4.14529 4.00043   2
   9  -3   5 5.05828 3.18715   7
 -10   3  -5 91.1991 17.6087   5
  10  -3   5 114.579 12.1008   7
  10  -3   5 111.933 13.0072   2
  11  -3   5 6.18059 4.36040   7
  11  -3   5 2.21037 3.14118   2
  11  -3   5 4.48382 3.12636   4
  12  -3   5 67.2433 12.7806   7
  12  -3   5 54.9075 10.0192   2
  12  -3   5 55.6839 10.2413   4
  13  -3   5 72.1811 12.0646   7
  13  -3   5 103.359 15.4448   4
  13  -3   5 112.699 12.8867   6
  13  -3   5 112.601 13.2901   2
  12   2  -5 16.6109 5.27218   6
  12   2  -5 2.38553 3.53207   4
  11   2  -5 1.83054 3.30879   6
  11   2  -5 6.57571 3.28250   4
  10   2  -5 294.239 19.7108   6
  10   2  -5 319.686 16.9319   4
   9   2  -5 16.0942 5.15500   6
   9   2  -5 15.3136 4.07524   4
   8   2  -5 243.669 16.1327   6
   8   2  -5 228.064 13.0532   4
   7   2  -5 173.919 12.8846   6
   7   2  -5 167.061 10.4636   4
  -7  -2   5 170.716 12.5038   3
   6   2  -5 1.71398 1.38016   4
   6   2  -5 5.79737 2.34621   5
   6   2  -5 2.19344 1.98529   6
  -6  -2   5 6.56994 2.69841   3
   5   2  -5 278.510 12.3655   4
  -5  -2   5 313.844 15.0819   3
  -5  -2   5 291.397 13.7263   4
   4   2  -5 15.8832 4.71207   8
   4   2  -5 18.5309 4.62056   6
   4   2  -5 8.73184 2.19519   4
  -4  -2   5 3.96414 2.35445   4
  -4  -2   5 10.7067 2.00693   7
  -4  -2   5 13.1704 3.93233   6
  -4  -2   5 15.9147 4.10087   3
   3   2  -5 0.92600 1.15801   6
   3   2  -5 4.61060 3.71219   8
   3   2  -5 3.97716 1.58134   4
  -3  -2   5 7.79120 2.62122   4
  -3  -2   5 7.02925 1.71445   7
   2   2  -5 196.779 9.27735   2
   2   2  -5 217.334 8.64597   4
  -2  -2   5 193.064 8.83726   2
  -2  -2   5 187.243 10.2538   6
  -2  -2   5 192.690 8.96654   4
  -2  -2   5 198.354 9.02596   7
   1   2  -5 11.3975 3.39233   8
   1   2  -5 4.26208 1.46553   4
   1   2  -5 4.52068 1.31890   6
   1   2  -5 3.80273 1.81739   2
  -1  -2   5 5.10748 1.51593   4
  -1  -2   5 7.72437 2.38303   6
  -1  -2   5 4.72563 2.15467   2
   0   2  -5 627.901 19.6562   8
   0   2  -5 662.113 15.5213   6
   0   2  -5 634.043 14.9912   5
   0   2  -5 625.050 15.9022   4
   0   2  -5 651.716 21.0320   2
   0  -2   5 639.071 16.5491   4
   0  -2   5 648.850 20.6994   2
   0  -2   5 621.507 17.1032   6
  -1   2  -5 36.3822 2.84894   6
  -1   2  -5 33.0600 5.32092   2
  -1   2  -5 37.8650 3.34681   5
  -1   2  -5 31.8941 3.78948   8
   1  -2   5 30.9495 2.97997   4
   1  -2   5 32.6160 3.02631   6
   1  -2   5 39.2509 6.54094   2
  -2   2  -5 774.426 26.1344   2
  -2   2  -5 808.450 20.3081   5
  -2   2  -5 782.547 19.7622   8
  -2   2  -5 804.039 17.9347   6
   2  -2   5 779.528 17.3073   6
   2  -2   5 775.147 18.7727   4
   2  -2   5 765.664 25.7686   2
   2  -2   5 789.453 18.3841   5
  -3   2  -5 712.938 18.0518   6
  -3   2  -5 747.315 17.0817   8
  -3   2  -5 718.107 20.6187   5
   3  -2   5 702.305 17.9393   8
   3  -2   5 723.572 18.3362   4
   3  -2   5 720.275 18.5741   5
   3  -2   5 742.849 16.3070   6
  -4   2  -5 479.435 17.5073   5
   4  -2   5 447.155 20.9048   2
   4  -2   5 461.647 15.0129   5
   4  -2   5 466.716 12.4213   6
  -5   2  -5 1027.24 31.2006   5
   5  -2   5 1060.18 23.0983   6
   5  -2   5 1068.69 35.5383   2
   5  -2   5 1030.22 39.3619   3
  -6   2  -5 108.117 9.66857   5
   6  -2   5 116.867 11.2602   2
   6  -2   5 103.875 6.21950   6
  -7   2  -5 129.174 11.3147   5
   7  -2   5 126.010 11.0143   7
   7  -2   5 116.303 7.09942   6
   7  -2   5 128.356 12.4550   2
  -8   2  -5 111.088 12.4508   5
   8  -2   5 119.548 11.3730   7
   8  -2   5 133.994 13.0783   2
  -9   2  -5 598.428 28.8444   5
   9  -2   5 591.461 29.6884   2
   9  -2   5 640.869 28.3555   7
 -10   2  -5 270.697 19.8970   5
  10  -2   5 260.090 18.4791   7
  10  -2   5 277.662 20.2459   2
  11  -2   5 6.21163 3.22215   4
  11  -2   5 0.82735 2.74516   7
  11  -2   5 6.48786 3.81271   2
  12  -2   5 8.75104 4.36516   4
  12  -2   5 6.47109 4.95048   7
  12  -2   5 7.62231 4.66710   2
  12  -2   5 9.03325 3.70654   6
  13  -2   5 53.2888 10.8702   4
  13  -2   5 93.1797 12.1973   2
  13  -2   5 66.4926 12.2188   7
  13  -2   5 58.6065 9.87680   6
  13   1  -5 8.51431 3.54914   4
  13   1  -5 -3.7634 3.50815   6
  12   1  -5 109.470 12.8392   6
  12   1  -5 85.7947 9.70779   4
  11   1  -5 10.3106 4.32991   4
  11   1  -5 9.04570 4.12535   6
  10   1  -5 -2.2413 1.76574   4
  10   1  -5 0.08188 2.28767   6
   9   1  -5 85.8346 6.40258   7
   9   1  -5 71.5090 11.4904   6
   9   1  -5 78.0195 8.42201   4
   8   1  -5 6.09164 2.76248   4
   8   1  -5 0.64827 1.29496   7
   8   1  -5 -2.0604 1.72223   6
  -8  -1   5 1.27725 1.46905   3
   7   1  -5 545.927 24.0598   6
   7   1  -5 554.428 16.7408   7
   7   1  -5 521.521 20.2106   4
  -7  -1   5 544.351 20.3238   3
  -7  -1   5 549.480 16.6853   7
   6   1  -5 243.702 10.0236   7
   6   1  -5 244.741 12.4296   4
  -6  -1   5 251.563 10.1485   7
  -6  -1   5 232.887 12.0311   3
   5   1  -5 196.359 10.4505   4
   5   1  -5 196.790 8.78799   7
  -5  -1   5 202.540 10.3786   3
  -5  -1   5 213.477 11.5619   4
   4   1  -5 2108.95 43.5188   4
   4   1  -5 2135.58 40.9010   7
   4   1  -5 2031.82 50.4281   8
   4   1  -5 2039.32 46.6995   6
  -4  -1   5 2082.74 40.1457   7
  -4  -1   5 2125.54 43.2311   3
   3   1  -5 668.600 23.3182   8
   3   1  -5 629.132 19.9201   6
   3   1  -5 626.021 17.9604   4
  -3  -1   5 624.092 16.7633   7
  -3  -1   5 643.224 19.5129   4
   2   1  -5 912.641 23.0614   6
   2   1  -5 889.196 26.6945   8
  -2  -1   5 911.843 22.3971   2
  -2  -1   5 913.328 22.9355   4
  -2  -1   5 900.860 21.5917   7
  -2  -1   5 881.987 24.7155   6
   1   1  -5 374.523 11.7752   6
   1   1  -5 367.104 11.5397   4
   1   1  -5 368.503 15.0418   8
  -1  -1   5 388.881 14.4772   2
  -1  -1   5 370.923 13.2483   6
  -1  -1   5 391.333 12.5843   4
  -1  -1   5 373.864 12.9031   7
   0   1  -5 22.9576 4.15890   8
   0   1  -5 22.0733 3.17341   4
   0   1  -5 17.9293 2.09505   6
   0  -1   5 24.0945 5.08132   2
   0  -1   5 27.2577 5.57595   6
   0  -1   5 12.7311 2.83820   8
   0  -1   5 15.1103 2.53467   4
  -1   1  -5 2306.84 49.4883   8
  -1   1  -5 2427.54 40.3081   6
  -1   1  -5 2389.91 43.4401   5
  -1   1  -5 2396.84 43.0533   4
   1  -1   5 2303.03 42.8765   4
   1  -1   5 2294.01 47.0485   8
   1  -1   5 2290.02 51.7977   2
   1  -1   5 2336.34 41.8964   6
  -2   1  -5 1019.02 20.8970   6
  -2   1  -5 1004.28 24.1943   5
  -2   1  -5 1077.71 24.3325   8
   2  -1   5 1010.33 31.2516   2
   2  -1   5 1045.21 25.4944   8
   2  -1   5 1021.72 20.4584   6
   2  -1   5 1050.93 22.7855   4
  -3   1  -5 65.6798 5.64541   5
  -3   1  -5 66.4119 4.49968   8
   3  -1   5 70.4471 3.61059   6
   3  -1   5 72.2814 8.02182   3
   3  -1   5 66.5518 4.71862   5
   3  -1   5 69.7156 4.60554   4
   3  -1   5 79.4100 5.53752   8
   3  -1   5 75.6698 8.18234   2
  -4   1  -5 300.884 9.84682   8
  -4   1  -5 301.950 13.8103   5
   4  -1   5 287.575 11.9124   4
   4  -1   5 302.454 17.2243   2
   4  -1   5 297.999 8.76538   6
   4  -1   5 306.585 11.1437   8
   4  -1   5 311.441 18.2169   3
   4  -1   5 292.408 11.5274   5
  -5   1  -5 862.687 27.5635   5
   5  -1   5 862.247 32.2451   2
   5  -1   5 872.737 21.4055   8
   5  -1   5 855.008 19.1802   6
  -6   1  -5 556.096 22.9701   5
   6  -1   5 561.976 26.2693   2
   6  -1   5 552.565 15.2213   6
   6  -1   5 568.503 16.1473   8
  -7   1  -5 308.111 17.7526   5
   7  -1   5 270.949 10.7385   6
   7  -1   5 288.658 19.4036   2
  -8   1  -5 107.458 11.1740   5
   8  -1   5 85.3309 10.9122   2
   8  -1   5 108.132 10.7248   7
  -9   1  -5 83.4191 13.1416   5
   9  -1   5 72.0797 11.7230   2
   9  -1   5 78.8025 10.0033   7
 -10   1  -5 21.7627 6.61750   5
  10  -1   5 32.0933 9.23880   2
  10  -1   5 36.9798 9.00451   7
  11  -1   5 9.68704 6.14849   2
  11  -1   5 10.7165 5.04289   4
  11  -1   5 4.82361 3.83961   7
  12  -1   5 4.68078 3.55226   7
  12  -1   5 -2.6583 2.97024   4
  12  -1   5 9.00023 5.06316   2
  13   0  -5 9.68756 5.63113   6
  13   0  -5 19.1655 6.03862   4
  12   0  -5 152.118 13.3736   4
  12   0  -5 162.733 16.4502   6
  11   0  -5 101.525 10.4804   4
  11   0  -5 90.8885 7.97311   7
  11   0  -5 104.110 12.4701   6
  10   0  -5 355.468 16.2273   7
  10   0  -5 318.884 23.4324   6
  10   0  -5 360.608 19.4997   4
   9   0  -5 1.31488 1.64268   7
   9   0  -5 -3.9017 1.54214   4
   9   0  -5 2.84542 2.09944   6
   8   0  -5 54.9865 5.67644   7
   8   0  -5 67.4398 11.4612   6
   8   0  -5 67.8704 7.38026   4
  -8   0   5 53.1633 6.28317   7
   7   0  -5 507.384 17.5345   7
   7   0  -5 476.589 19.7916   4
   7   0  -5 529.756 23.8006   6
  -7   0   5 501.468 17.4276   7
   6   0  -5 11.0965 3.47093   4
   6   0  -5 17.6562 3.61883   7
   6   0  -5 3.43755 2.46577   6
  -6   0   5 10.3456 3.01388   7
   5   0  -5 776.056 23.5213   4
   5   0  -5 801.460 26.7305   6
   5   0  -5 794.157 21.9491   7
   5   0  -5 788.888 27.8771   8
  -5   0   5 791.451 21.5892   7
  -5   0   5 798.213 24.9183   4
   4   0  -5 2.29425 1.52880   4
   4   0  -5 -0.8446 0.91536   6
   4   0  -5 2.06422 1.71526   8
   4   0  -5 0.79887 1.30949   7
  -4   0   5 0.06188 0.93303   7
  -4   0   5 2.22863 1.75723   4
   3   0  -5 581.283 21.3676   8
   3   0  -5 597.370 17.6700   7
   3   0  -5 589.407 17.5767   4
   3   0  -5 583.487 19.0374   6
  -3   0   5 573.866 17.0112   7
  -3   0   5 561.902 18.1992   4
   2   0  -5 132.602 8.95114   8
   2   0  -5 136.267 7.52588   6
  -2   0   5 120.099 7.75586   6
  -2   0   5 146.301 7.80899   4
  -2   0   5 143.213 7.65331   7
  -2   0   5 126.406 9.34650   8
  -2   0   5 153.557 8.30772   2
   1   0  -5 1.89223 1.32403   4
   1   0  -5 3.18284 1.41013   6
   1   0  -5 0.72294 1.48251   8
  -1   0   5 2.59241 1.99736   8
  -1   0   5 0.89756 1.00840   4
  -1   0   5 2.72289 1.50165   7
  -1   0   5 3.13414 1.90962   2
  -1   0   5 4.71575 1.85057   6
   0   0  -5 275.638 8.02181   6
   0   0  -5 265.932 11.7077   8
   0   0  -5 259.638 9.13363   4
   0   0   5 269.550 11.5408   7
   0   0   5 265.854 12.5150   8
   0   0   5 275.166 9.84620   4
   0   0   5 270.963 13.5556   2
   0   0   5 261.964 9.48560   6
  -1   0  -5 1804.46 34.0448   4
  -1   0  -5 1739.43 37.4461   8
  -1   0  -5 1826.88 30.4431   6
  -1   0  -5 1773.67 34.9235   5
   1   0   5 1720.46 32.3280   6
   1   0   5 1735.73 43.6580   2
   1   0   5 1738.93 43.6592   3
   1   0   5 1733.41 38.9215   8
   1   0   5 1780.92 34.3092   4
  -2   0  -5 176.751 5.96164   6
  -2   0  -5 163.196 8.17163   8
   2   0   5 172.136 5.73158   6
   2   0   5 178.167 9.40631   8
   2   0   5 173.724 7.25040   4
   2   0   5 169.036 12.1010   3
   2   0   5 174.240 12.1481   2
  -3   0  -5 572.133 16.2226   8
  -3   0  -5 562.081 18.2100   5
   3   0   5 583.467 12.0365   6
   3   0   5 572.143 15.2162   4
   3   0   5 502.974 16.7806   5
   3   0   5 586.582 27.8413   3
   3   0   5 574.175 17.8892   8
   3   0   5 557.991 23.7870   2
  -4   0  -5 118.032 8.43209   5
  -4   0  -5 93.4504 5.92659   8
   4   0   5 101.194 4.16906   6
   4   0   5 99.8278 10.4820   3
   4   0   5 100.959 6.85695   8
   4   0   5 94.0521 5.64014   4
   4   0   5 93.0021 9.89247   2
   4   0   5 96.7199 6.37885   5
  -5   0  -5 4.80251 2.34213   5
   5   0   5 10.9148 1.91889   6
   5   0   5 6.78911 2.37471   8
   5   0   5 7.15541 1.94764   4
   5   0   5 7.68271 3.71876   2
  -6   0  -5 64.9252 9.41860   5
   6   0   5 50.8803 3.79232   6
   6   0   5 64.7459 5.70341   8
   6   0   5 55.1418 9.39117   2
  -7   0  -5 170.279 13.3885   5
   7   0   5 157.275 9.32702   8
   7   0   5 159.264 14.5993   2
   7   0   5 168.521 7.71357   6
  -8   0  -5 10.7978 4.41237   5
   8   0   5 16.7621 3.04558   6
   8   0   5 7.09067 4.29249   2
   8   0   5 18.5014 3.77348   8
   8   0   5 14.3160 4.96915   7
  -9   0  -5 220.133 17.1406   5
   9   0   5 193.293 17.6271   2
   9   0   5 208.032 12.8204   6
   9   0   5 203.256 11.0824   8
   9   0   5 205.310 15.7032   7
 -10   0  -5 134.418 13.8147   5
  10   0   5 146.328 13.4919   7
  10   0   5 124.046 14.7136   2
  10   0   5 125.081 11.3467   4
  10   0   5 150.244 11.6152   6
  11   0   5 4.08694 4.20809   2
  11   0   5 4.38331 3.08588   7
  11   0   5 5.12204 3.13340   4
  12   0   5 -0.2129 4.15816   2
  12   0   5 -2.7187 3.54726   7
  12   0   5 4.84737 3.52030   4
  13  -1  -5 133.758 15.7766   6
  13  -1  -5 121.298 13.0673   4
  12  -1  -5 6.32169 3.71697   7
  12  -1  -5 3.71577 3.92801   4
  12  -1  -5 12.4734 5.49439   6
  11  -1  -5 319.606 16.5293   7
  11  -1  -5 339.544 20.1458   4
  11  -1  -5 295.472 21.6721   6
  10  -1  -5 16.1143 6.63926   6
  10  -1  -5 30.2879 7.31032   4
  10  -1  -5 29.0498 5.93473   7
   9  -1  -5 232.204 15.0610   4
   9  -1  -5 213.324 16.7312   6
   9  -1  -5 217.382 12.7807   7
   8  -1  -5 388.493 16.7031   7
   8  -1  -5 369.502 18.2534   4
  -8   1   5 339.817 15.7074   7
   7  -1  -5 1.81354 1.84129   4
   7  -1  -5 3.79537 2.50390   7
   7  -1  -5 -1.3600 1.13972   6
  -7   1   5 2.99180 1.91235   7
   6  -1  -5 0.57277 1.19603   4
   6  -1  -5 1.10695 1.26561   7
   6  -1  -5 -0.5341 1.46402   6
  -6   1   5 -0.5800 1.15853   7
   5  -1  -5 86.3174 8.15693   8
   5  -1  -5 82.1112 7.05422   4
   5  -1  -5 91.7357 7.15624   7
  -5   1   5 81.9098 6.46645   7
  -5   1   5 80.7576 7.17232   4
   4  -1  -5 3.74718 1.85727   6
   4  -1  -5 11.2451 3.62098   8
   4  -1  -5 7.97435 2.70027   4
   4  -1  -5 12.0746 2.94053   7
  -4   1   5 12.5252 3.87702   8
  -4   1   5 12.8543 3.08854   7
  -4   1   5 9.63943 2.93029   4
   3  -1  -5 5696.93 101.644   6
   3  -1  -5 5882.65 101.615   7
   3  -1  -5 5795.34 99.3961   4
   3  -1  -5 5636.69 105.246   8
  -3   1   5 5874.81 100.518   7
  -3   1   5 5662.77 107.346   8
  -3   1   5 6074.30 96.6211   3
  -3   1   5 5718.18 100.841   4
   2  -1  -5 739.945 23.6317   8
   2  -1  -5 782.600 20.7007   6
   2  -1  -5 793.702 20.1202   4
  -2   1   5 761.583 21.0927   4
  -2   1   5 791.470 21.9247   7
  -2   1   5 760.988 25.0493   8
  -2   1   5 766.121 23.0660   3
   1  -1  -5 726.590 18.1282   4
   1  -1  -5 731.281 22.2549   8
   1  -1  -5 712.806 17.3549   6
  -1   1   5 701.301 23.3378   8
  -1   1   5 738.484 21.2361   7
  -1   1   5 728.686 22.2755   3
  -1   1   5 718.284 19.1827   4
   0  -1  -5 929.688 18.2359   6
   0  -1  -5 943.693 21.0399   4
   0  -1  -5 964.474 25.7763   8
   0   1   5 909.103 20.6973   6
   0   1   5 930.827 25.4327   7
   0   1   5 951.705 28.3692   3
   0   1   5 952.540 27.1240   8
   0   1   5 946.317 22.1331   4
  -1  -1  -5 352.681 10.7548   4
  -1  -1  -5 351.511 11.8132   5
  -1  -1  -5 341.889 13.3399   8
   1   1   5 332.690 11.0289   4
   1   1   5 349.314 14.6125   8
   1   1   5 349.140 17.1503   3
  -2  -1  -5 906.762 23.8619   8
  -2  -1  -5 914.226 23.3353   5
   2   1   5 960.695 32.1850   3
   2   1   5 893.357 25.5742   8
   2   1   5 880.760 20.5741   4
  -3  -1  -5 181.064 9.21032   8
  -3  -1  -5 187.209 10.0291   5
   3   1   5 198.141 10.5715   8
   3   1   5 188.580 7.79676   4
   3   1   5 191.136 14.3013   3
  -4  -1  -5 347.503 13.5124   8
  -4  -1  -5 311.046 17.2499   5
   4   1   5 330.325 11.1414   4
   4   1   5 360.961 14.9167   8
  -5  -1  -5 119.673 9.79965   5
   5   1   5 137.072 9.11117   8
   5   1   5 138.929 13.3725   2
   5   1   5 131.636 6.92604   4
  -6  -1  -5 172.770 12.6415   5
   6   1   5 175.714 10.6194   8
   6   1   5 174.606 15.2314   2
   6   1   5 165.681 8.20557   4
  -7  -1  -5 142.012 12.3148   5
   7   1   5 139.994 6.31088   6
   7   1   5 120.620 13.3502   2
   7   1   5 144.004 8.37574   6
   7   1   5 137.953 9.64711   8
  -8  -1  -5 89.6764 10.2523   5
   8   1   5 101.102 12.4941   2
   8   1   5 71.0016 6.61771   6
   8   1   5 74.6885 8.79496   8
   8   1   5 74.7109 5.01419   6
   9   1   5 151.033 13.3595   7
   9   1   5 150.419 9.84504   6
   9   1   5 155.639 10.9677   8
   9   1   5 146.499 15.4716   2
   9   1   5 152.625 11.5813   4
  10   1   5 -0.4917 2.21395   8
  10   1   5 -0.8229 2.59105   4
  11   1   5 5.25507 4.60236   2
  11   1   5 3.70892 3.37374   7
  11   1   5 6.15124 3.73398   4
  12   1   5 -1.7606 4.32785   7
  12   1   5 0.55103 4.75417   4
  12   1   5 -2.1086 5.53024   2
  13  -2  -5 12.7028 5.73860   4
  13  -2  -5 27.8539 11.7926   6
  13  -2  -5 7.97838 5.27683   7
  12  -2  -5 -2.1896 1.87835   6
  12  -2  -5 0.91806 2.48769   7
  12  -2  -5 -0.6901 3.69629   4
  11  -2  -5 0.61244 2.60836   4
  11  -2  -5 4.04816 2.81967   7
  11  -2  -5 2.12507 3.31055   6
  10  -2  -5 33.1256 6.73980   4
  10  -2  -5 22.2521 5.77758   6
  10  -2  -5 37.9112 7.05705   7
   9  -2  -5 63.2432 9.44225   4
   9  -2  -5 68.8370 7.73810   7
   9  -2  -5 83.3169 12.6846   6
   8  -2  -5 222.020 14.3789   4
   8  -2  -5 191.658 12.4269   7
   8  -2  -5 201.487 15.5978   6
   7  -2  -5 448.376 19.7543   4
   7  -2  -5 486.268 19.4613   7
   7  -2  -5 423.198 21.7351   6
   6  -2  -5 1.32216 2.09866   6
   6  -2  -5 0.31380 1.79359   4
   6  -2  -5 2.84153 1.81883   7
  -6   2   5 4.68139 2.21507   7
   5  -2  -5 446.425 19.6789   8
   5  -2  -5 448.990 19.4859   6
   5  -2  -5 458.212 17.8096   7
   5  -2  -5 412.026 17.6664   4
  -5   2   5 438.198 17.2534   7
  -5   2   5 444.978 20.8536   8
   4  -2  -5 316.549 14.1838   7
   4  -2  -5 305.121 15.3203   8
   4  -2  -5 306.887 13.3386   4
   4  -2  -5 302.639 14.5536   6
  -4   2   5 308.169 13.9350   4
  -4   2   5 326.580 13.8162   7
  -4   2   5 305.284 16.3810   8
   3  -2  -5 667.658 21.7963   7
   3  -2  -5 693.134 21.2450   6
   3  -2  -5 659.256 26.0408   8
   3  -2  -5 678.681 19.8997   4
  -3   2   5 695.832 21.4754   7
  -3   2   5 677.193 24.7035   8
  -3   2   5 695.047 21.0392   4
   2  -2  -5 1680.89 39.9945   8
   2  -2  -5 1623.72 38.3542   7
   2  -2  -5 1613.49 34.8367   6
   2  -2  -5 1655.07 34.5701   4
  -2   2   5 1649.74 38.0407   7
  -2   2   5 1603.71 36.0936   4
  -2   2   5 1632.94 36.4806   3
  -2   2   5 1684.37 42.0999   8
   1  -2  -5 46.4107 3.55921   6
   1  -2  -5 43.2290 5.12563   8
   1  -2  -5 47.6735 3.98597   4
  -1   2   5 43.3358 5.15908   3
  -1   2   5 51.9223 5.21697   7
  -1   2   5 45.6885 4.28374   4
   0  -2  -5 3.09370 1.86963   8
   0   2   5 -0.2199 1.49953   3
   0   2   5 3.06563 1.32646   4
   0   2   5 1.75052 1.67967   8
   0   2   5 4.99446 2.10340   7
  -1  -2  -5 0.21694 0.81337   8
  -1  -2  -5 -0.2135 0.70350   4
  -1  -2  -5 -0.9834 0.74277   5
   1   2   5 1.25304 0.78127   4
   1   2   5 0.62948 1.22587   8
   1   2   5 0.02539 1.58342   3
   1   2   5 0.46620 1.00643   7
  -2  -2  -5 269.387 12.3115   8
  -2  -2  -5 288.820 11.9248   5
   2   2   5 289.391 13.9375   7
   2   2   5 290.926 9.97234   4
   2   2   5 288.687 13.9873   8
   2   2   5 279.173 17.0369   3
  -3  -2  -5 3972.49 75.5221   5
  -3  -2  -5 4010.63 80.1537   8
   3   2   5 4025.72 69.0279   4
   3   2   5 4134.16 78.9926   8
  -4  -2  -5 56.3162 6.34030   5
   4   2   5 63.0899 4.41492   4
   4   2   5 68.6463 6.89900   8
  -5  -2  -5 416.257 18.7382   5
   5   2   5 382.600 17.2891   8
   5   2   5 386.553 14.4331   4
  -6  -2  -5 179.788 13.2439   5
   6   2   5 191.815 16.7372   2
   6   2   5 187.705 8.56779   4
   6   2   5 203.412 12.9522   8
  -7  -2  -5 14.5431 5.32321   5
   7   2   5 7.18225 4.18277   2
   7   2   5 17.3095 4.61743   8
  -8  -2  -5 114.461 11.9669   5
   8   2   5 119.742 14.1187   2
   8   2   5 125.690 10.4113   8
  -9  -2  -5 2.73172 3.07970   5
   9   2   5 -2.5171 2.39323   7
   9   2   5 5.05440 4.14517   2
   9   2   5 -1.6602 2.03717   4
   9   2   5 -1.9245 2.10076   8
 -10  -2  -5 138.362 14.2671   5
  10   2   5 105.202 10.4943   8
  10   2   5 112.617 10.2399   4
  10   2   5 111.146 11.6425   7
  10   2   5 114.810 14.0763   2
  11   2   5 309.454 23.8461   2
  11   2   5 292.697 18.9979   7
  11   2   5 323.915 23.2496   4
  13  -3  -5 7.06732 3.89550   7
  13  -3  -5 5.87825 4.31041   4
  13  -3  -5 8.70499 6.06463   6
  12  -3  -5 4.70243 2.47334   7
  12  -3  -5 2.38667 2.73032   6
  12  -3  -5 0.18520 2.98747   4
  11  -3  -5 3.07645 2.86407   4
  11  -3  -5 0.99019 2.18290   7
  11  -3  -5 -1.6107 2.18534   6
  10  -3  -5 34.2011 7.05957   4
  10  -3  -5 33.2723 9.13357   6
  10  -3  -5 39.0591 7.38202   7
   9  -3  -5 171.822 12.7046   7
   9  -3  -5 164.878 13.2606   4
   9  -3  -5 172.006 15.5815   6
   8  -3  -5 -1.8548 1.14910   4
   8  -3  -5 3.20921 2.25848   7
   8  -3  -5 2.44910 2.38692   6
   7  -3  -5 186.619 12.3867   7
   7  -3  -5 186.939 12.6616   4
   7  -3  -5 177.632 13.8974   6
   6  -3  -5 84.2933 8.80063   6
   6  -3  -5 78.9040 7.70460   4
   6  -3  -5 84.8855 9.66042   7
  -6   3   5 86.3379 9.56232   8
   5  -3  -5 0.87972 1.55975   6
   5  -3  -5 0.64115 1.40776   7
   5  -3  -5 0.36967 1.47431   4
  -5   3   5 2.41897 2.14753   8
  -5   3   5 -0.4533 1.08503   2
  -5   3   5 1.04594 1.54980   7
   4  -3  -5 142.821 8.99421   4
   4  -3  -5 135.729 9.99495   8
   4  -3  -5 140.568 9.71765   6
   4  -3  -5 143.594 10.0500   7
  -4   3   5 122.856 8.80852   7
  -4   3   5 133.698 11.0525   8
  -4   3   5 135.823 9.18159   4
  -4   3   5 132.528 8.47087   2
   3  -3  -5 105.604 8.58173   8
   3  -3  -5 94.7988 7.17286   6
   3  -3  -5 101.362 6.97956   4
  -3   3   5 95.8414 6.13215   3
  -3   3   5 105.416 9.38984   8
  -3   3   5 101.810 7.87003   7
   2  -3  -5 1438.33 30.9067   6
   2  -3  -5 1328.42 35.3725   8
   2  -3  -5 1387.27 30.2855   4
   2  -3  -5 1295.32 34.8021   7
  -2   3   5 1295.58 37.0987   8
  -2   3   5 1368.17 34.6645   7
  -2   3   5 1325.03 31.6842   4
   1  -3  -5 78.6825 7.71384   3
   1  -3  -5 75.9993 4.49282   6
   1  -3  -5 80.8053 5.18349   4
   1  -3  -5 69.7938 6.66874   8
  -1   3   5 80.4154 7.40480   3
  -1   3   5 69.2013 7.34512   8
  -1   3   5 68.3598 5.37935   4
   0  -3  -5 948.164 27.9358   8
   0  -3  -5 1011.57 32.9636   3
   0  -3  -5 1001.30 21.9427   4
   0   3   5 992.102 31.6711   3
   0   3   5 977.892 28.3474   7
   0   3   5 1074.76 31.3258   8
   0   3   5 955.044 23.5055   4
  -1  -3  -5 196.745 14.5450   3
  -1  -3  -5 198.845 7.60107   4
  -1  -3  -5 205.266 9.46955   5
  -1  -3  -5 202.745 11.2229   8
   1   3   5 205.572 14.1205   3
   1   3   5 191.382 12.1040   8
   1   3   5 212.803 8.70026   4
   1   3   5 193.193 11.3971   7
  -2  -3  -5 4.84472 2.96644   3
  -2  -3  -5 12.2203 3.27648   5
  -2  -3  -5 7.46639 2.15117   8
   2   3   5 6.72384 2.88336   7
   2   3   5 5.60401 2.55342   8
   2   3   5 8.43663 2.29746   4
  -3  -3  -5 73.8595 7.85895   8
  -3  -3  -5 71.9328 10.0896   3
  -3  -3  -5 81.1008 9.42856   5
   3   3   5 77.4464 4.82260   4
   3   3   5 80.2584 7.89267   8
  -4  -3  -5 363.091 16.6697   5
  -4  -3  -5 378.398 24.5610   3
   4   3   5 377.591 11.7964   4
   4   3   5 386.488 18.1707   8
  -5  -3  -5 368.578 25.3324   3
  -5  -3  -5 381.418 18.2608   5
   5   3   5 355.327 11.7133   4
   5   3   5 361.287 18.0577   8
  -6  -3  -5 77.4527 8.68527   5
   6   3   5 67.9506 4.82931   4
   6   3   5 71.7585 8.12250   8
  -7  -3  -5 254.691 16.9458   5
   7   3   5 222.769 9.58497   4
   7   3   5 274.120 16.3409   8
   7   3   5 247.241 20.7590   2
  -8  -3  -5 0.10487 2.49278   5
   8   3   5 5.67783 3.23844   8
   8   3   5 6.94456 3.21464   4
   8   3   5 4.60307 3.91060   2
  -9  -3  -5 69.2887 11.0237   5
   9   3   5 63.2265 10.4554   7
   9   3   5 60.7284 7.03945   4
   9   3   5 76.4638 9.00196   8
   9   3   5 75.3216 14.3386   2
 -10  -3  -5 28.3428 8.32664   5
  10   3   5 43.7335 8.33194   7
  10   3   5 45.5566 10.2476   2
  10   3   5 54.6993 10.0630   8
  11   3   5 48.2824 11.7838   2
  11   3   5 30.9836 7.42260   7
  13  -4  -5 25.0642 6.51287   7
  13  -4  -5 68.2875 18.7798   6
  13  -4  -5 33.6917 8.19841   4
  12  -4  -5 106.830 16.9097   6
  12  -4  -5 107.895 12.3212   4
  12  -4  -5 100.283 11.5397   7
  11  -4  -5 19.8379 6.15450   4
  11  -4  -5 31.8337 8.83674   6
  11  -4  -5 34.0921 7.98983   7
  10  -4  -5 123.816 11.8098   7
  10  -4  -5 125.067 14.4311   6
  10  -4  -5 115.537 12.2670   4
   9  -4  -5 9.03052 3.93117   6
   9  -4  -5 26.6296 6.90587   4
   9  -4  -5 19.9546 6.04282   7
   8  -4  -5 -0.0407 1.54277   7
   8  -4  -5 -1.8093 0.97958   4
   8  -4  -5 0.98576 2.18501   6
   7  -4  -5 66.9143 7.88479   7
   7  -4  -5 64.2304 7.68470   4
  -7   4   5 73.8912 11.8642   8
   6  -4  -5 0.78630 1.51108   4
   6  -4  -5 -0.1753 1.32993   7
  -6   4   5 -1.6866 1.27892   8
  -6   4   5 -0.0434 1.43982   2
   5  -4  -5 372.590 17.9278   7
   5  -4  -5 385.973 16.7253   4
  -5   4   5 398.103 20.2405   8
  -5   4   5 373.356 15.6381   2
   4  -4  -5 1010.62 35.7681   7
   4  -4  -5 1164.31 29.9959   4
  -4   4   5 996.572 50.4911   8
  -4   4   5 1149.09 31.2373   4
  -4   4   5 1113.71 31.2175   2
   3  -4  -5 17.3395 4.19228   7
   3  -4  -5 30.1702 5.07952   4
   3  -4  -5 12.3016 5.27357   8
  -3   4   5 16.3360 4.01538   8
  -3   4   5 22.8979 4.21879   4
  -3   4   5 25.2964 4.34287   3
   2  -4  -5 1.42628 1.23461   4
   2  -4  -5 2.77786 2.39849   3
   2  -4  -5 2.55224 1.56358   6
   2  -4  -5 3.01974 2.22622   8
   2  -4  -5 3.11014 2.11554   7
  -2   4   5 5.38141 1.87547   4
  -2   4   5 1.75615 1.97892   3
  -2   4   5 5.71829 2.70736   7
  -2   4   5 4.53520 2.86903   8
   1  -4  -5 709.397 26.5289   3
   1  -4  -5 649.062 26.3191   8
   1  -4  -5 722.609 18.0498   4
  -1   4   5 691.960 23.7227   7
  -1   4   5 719.554 26.1691   8
  -1   4   5 656.279 24.5065   3
  -1   4   5 672.672 19.6744   4
   0  -4  -5 593.019 25.8036   3
   0  -4  -5 580.500 14.8996   4
   0  -4  -5 552.794 16.5869   5
   0   4   5 535.521 23.1260   8
   0   4   5 557.590 23.9025   3
   0   4   5 576.120 16.9975   4
  -1  -4  -5 1212.57 43.1897   3
  -1  -4  -5 1257.34 29.5341   5
   1   4   5 1236.95 37.1273   8
   1   4   5 1255.54 27.4838   4
  -2  -4  -5 2.74844 2.79861   3
   2   4   5 0.79207 1.77546   8
   2   4   5 -1.0580 0.91335   4
  -3  -4  -5 1.49772 1.63502   5
  -3  -4  -5 -1.3868 1.34558   3
   3   4   5 2.22876 1.17695   4
   3   4   5 2.83086 2.04541   8
  -4  -4  -5 1055.06 45.0188   3
  -4  -4  -5 1035.61 31.1965   5
   4   4   5 1043.33 23.0158   4
   4   4   5 1021.71 34.2148   8
  -5  -4  -5 217.467 20.4977   3
  -5  -4  -5 211.011 13.7106   5
   5   4   5 213.420 14.7456   8
  -6  -4  -5 61.2031 14.3073   3
  -6  -4  -5 68.1140 8.39616   5
   6   4   5 58.1166 9.38045   8
  -7  -4  -5 4.78158 3.00802   5
   7   4   5 11.5631 7.21279   2
   7   4   5 12.7917 4.43641   8
  -8  -4  -5 28.7877 7.67133   5
   8   4   5 36.1686 8.71346   2
   8   4   5 35.9780 6.85052   8
  -9  -4  -5 119.801 13.0777   5
   9   4   5 109.771 11.4912   8
   9   4   5 100.794 16.3423   2
   9   4   5 103.402 12.8002   7
  10   4   5 11.6261 5.11450   7
  10   4   5 7.50011 5.55151   2
  10   4   5 0.81053 4.40726   8
  13  -5  -5 302.859 26.3489   4
  13  -5  -5 284.222 19.8526   7
  12  -5  -5 14.8818 7.17800   6
  12  -5  -5 9.82540 4.74205   4
  12  -5  -5 4.02047 4.45005   7
  11  -5  -5 -2.7453 1.94895   4
  11  -5  -5 4.03016 3.21422   6
  10  -5  -5 416.896 23.0677   4
  10  -5  -5 394.268 22.3539   7
   9  -5  -5 0.09295 1.74102   4
   9  -5  -5 0.86107 1.91175   7
   8  -5  -5 268.505 16.6427   4
   8  -5  -5 268.889 17.2187   7
  -8   5   5 287.368 18.9098   8
   7  -5  -5 58.4900 8.88856   4
   7  -5  -5 65.1826 8.18753   7
  -7   5   5 43.9615 7.90927   8
   6  -5  -5 34.3915 6.16857   4
   6  -5  -5 61.8915 9.92010   7
  -6   5   5 42.8815 5.66974   2
  -6   5   5 41.3272 7.65163   8
   5  -5  -5 819.134 29.3847   7
   5  -5  -5 865.588 26.7761   4
  -5   5   5 824.387 31.6069   8
  -5   5   5 806.174 27.0318   2
   4  -5  -5 23.7196 4.58645   3
   4  -5  -5 31.1451 5.69668   4
   4  -5  -5 23.8000 5.60452   7
  -4   5   5 22.2691 4.96587   2
  -4   5   5 33.8421 7.68069   8
   3  -5  -5 -0.0129 1.05901   7
   3  -5  -5 -0.1132 1.17966   4
   3  -5  -5 -1.1774 1.12564   3
  -3   5   5 0.38574 1.42538   4
  -3   5   5 3.16950 2.38758   2
  -3   5   5 0.56269 1.25290   3
  -3   5   5 -1.0895 1.74231   8
   2  -5  -5 262.979 10.7127   4
   2  -5  -5 251.699 15.3613   3
   2  -5  -5 269.146 15.2197   7
  -2   5   5 258.693 14.1828   3
  -2   5   5 241.478 11.6910   4
  -2   5   5 274.950 16.3954   8
   1  -5  -5 303.430 10.6806   4
   1  -5  -5 314.122 18.4054   3
  -1   5   5 308.995 12.5364   4
  -1   5   5 344.708 18.3303   8
  -1   5   5 289.642 16.3837   3
   0  -5  -5 594.546 14.9770   4
   0  -5  -5 604.401 18.4385   5
   0   5   5 552.110 16.9088   4
   0   5   5 606.818 25.0803   8
  -1  -5  -5 111.751 7.86021   5
  -1  -5  -5 122.358 13.1337   3
   1   5   5 125.918 6.67956   4
   1   5   5 124.428 11.0671   8
  -2  -5  -5 18.9446 4.34677   5
  -2  -5  -5 15.9112 6.19073   3
   2   5   5 17.2705 2.98320   4
   2   5   5 11.9322 4.03259   8
  -3  -5  -5 126.478 14.9025   3
  -3  -5  -5 129.126 9.47525   5
   3   5   5 133.689 11.7933   8
  -4  -5  -5 109.241 14.5408   3
  -4  -5  -5 99.0715 9.11545   5
   4   5   5 109.072 10.8810   8
  -5  -5  -5 83.1607 8.77475   5
  -5  -5  -5 110.114 19.8901   3
   5   5   5 77.1188 9.68529   8
  -6  -5  -5 17.7752 7.60931   3
  -6  -5  -5 6.10359 3.30947   5
   6   5   5 9.75834 4.17018   8
  -7  -5  -5 18.0984 5.26217   5
  -7  -5  -5 18.6021 7.68255   3
   7   5   5 13.6133 6.16696   8
   8   5   5 63.1536 11.1955   8
   8   5   5 62.6872 12.9653   2
  -9  -5  -5 -2.1374 3.55340   5
   9   5   5 16.1727 6.44794   2
   9   5   5 -5.5940 3.45310   8
   9   5   5 6.40469 4.22127   7
  13  -6  -5 20.3323 7.16240   4
  13  -6  -5 14.6296 6.46239   7
  13  -6  -5 34.3576 10.3802   6
  12  -6  -5 141.861 14.7102   4
  12  -6  -5 121.116 19.6371   6
  12  -6  -5 140.846 14.5112   7
  11  -6  -5 -0.0263 2.63272   4
  11  -6  -5 -1.1260 2.47001   7
  11  -6  -5 -2.5465 2.50144   6
  10  -6  -5 25.2565 6.72911   4
  10  -6  -5 19.7288 6.20199   7
   9  -6  -5 308.120 19.0578   4
   9  -6  -5 338.752 20.8819   7
   8  -6  -5 184.602 13.8743   4
   8  -6  -5 221.854 16.0889   7
  -8   6   5 207.780 16.3289   8
   7  -6  -5 518.020 24.5261   7
   7  -6  -5 530.704 22.8934   4
  -7   6   5 509.458 25.8611   8
  -7   6   5 510.819 21.1042   2
   6  -6  -5 246.506 14.2185   4
   6  -6  -5 235.757 15.9060   7
  -6   6   5 242.569 17.1401   8
   5  -6  -5 272.417 13.9779   4
   5  -6  -5 251.007 16.2189   7
  -5   6   5 235.879 16.5778   8
   4  -6  -5 217.278 11.5753   4
   4  -6  -5 230.200 12.9904   3
   4  -6  -5 209.680 14.4595   7
  -4   6   5 217.777 15.5350   8
   3  -6  -5 484.889 21.6023   3
   3  -6  -5 461.292 16.3198   4
   3  -6  -5 483.482 22.1762   7
  -3   6   5 471.709 19.0980   3
  -3   6   5 425.095 17.2164   4
  -3   6   5 469.891 23.2580   8
   2  -6  -5 41.0111 4.06477   4
   2  -6  -5 37.4996 3.09878   6
   2  -6  -5 38.0504 7.61569   7
   2  -6  -5 36.3206 7.99543   3
  -2   6   5 43.1064 7.91362   3
  -2   6   5 40.0438 6.40173   4
  -2   6   5 29.0761 6.09926   8
   1  -6  -5 0.60147 0.85372   4
   1  -6  -5 2.40621 2.93114   3
  -1   6   5 1.52373 2.68129   8
  -1   6   5 -1.1685 1.05605   4
   0  -6  -5 118.987 7.61365   5
   0  -6  -5 121.904 13.1071   3
   0  -6  -5 122.464 5.62431   4
   0   6   5 117.118 11.3824   8
   0   6   5 111.866 6.72521   4
  -1  -6  -5 26.0082 4.47671   5
  -1  -6  -5 13.4159 5.85422   3
   1   6   5 26.4597 6.77874   8
  -2  -6  -5 70.9846 13.6909   3
  -2  -6  -5 98.0012 7.84025   5
   2   6   5 103.625 10.9062   8
  -3  -6  -5 128.221 15.5930   3
  -3  -6  -5 119.903 9.46964   5
   3   6   5 130.878 12.4717   8
  -4  -6  -5 180.948 12.4568   5
  -4  -6  -5 179.508 19.4364   3
   4   6   5 166.721 14.5881   8
  -5  -6  -5 22.4351 9.16010   3
  -5  -6  -5 24.1437 5.64707   5
   5   6   5 19.5326 6.11173   8
  -6  -6  -5 -1.7429 2.11866   5
  -6  -6  -5 -3.9727 3.02989   3
   6   6   5 2.10383 3.13146   8
  -7  -6  -5 2.73844 2.49587   5
  -7  -6  -5 11.3570 7.14611   3
   7   6   5 2.68712 3.69649   8
  -8  -6  -5 -5.8922 3.44791   5
   8   6   5 2.70623 5.50611   2
   8   6   5 8.19408 5.11990   8
  13  -7  -5 -4.4390 3.65739   6
  13  -7  -5 -3.2729 3.89577   4
  13  -7  -5 -6.8317 3.04527   7
  12  -7  -5 306.810 24.2263   6
  12  -7  -5 308.661 22.3965   7
  12  -7  -5 283.198 21.0218   4
  11  -7  -5 8.49082 4.37862   7
  11  -7  -5 10.9305 5.81309   4
  10  -7  -5 0.08718 2.23275   7
  10  -7  -5 3.34156 2.98910   4
   9  -7  -5 334.710 21.6984   7
   9  -7  -5 343.244 21.9778   4
  -9   7   5 354.224 22.5699   8
   8  -7  -5 -0.4656 1.73762   4
   8  -7  -5 -5.1409 1.83118   7
  -8   7   5 -2.9206 1.99829   8
   7  -7  -5 169.030 14.1241   7
   7  -7  -5 139.392 11.4108   4
  -7   7   5 164.347 14.7467   8
   6  -7  -5 28.3718 5.46824   4
   6  -7  -5 20.2044 5.05486   7
  -6   7   5 27.0175 6.47723   8
   5  -7  -5 26.8595 5.62813   4
   5  -7  -5 20.6232 5.14960   3
   5  -7  -5 22.0719 6.23452   7
  -5   7   5 24.9954 6.74934   8
   4  -7  -5 595.435 25.9800   7
   4  -7  -5 585.863 24.0886   3
   4  -7  -5 616.020 20.4566   4
   4  -7  -5 521.098 17.4479   6
  -4   7   5 574.190 27.5315   8
   3  -7  -5 15.7961 2.75876   6
   3  -7  -5 16.6343 3.65449   4
   3  -7  -5 19.4999 5.94715   3
   3  -7  -5 17.6323 5.19095   7
  -3   7   5 9.36422 3.82777   8
  -3   7   5 25.5605 4.77367   4
   2  -7  -5 569.345 27.8160   3
   2  -7  -5 610.013 26.1656   7
   2  -7  -5 588.085 17.0497   4
  -2   7   5 626.388 28.3888   8
   1  -7  -5 271.741 19.7836   3
   1  -7  -5 272.794 11.9878   5
  -1   7   5 273.980 11.6379   4
  -1   7   5 297.697 19.1087   8
   0  -7  -5 500.853 28.5438   3
   0  -7  -5 505.860 17.6140   5
   0   7   5 492.123 25.4483   8
  -1  -7  -5 100.802 13.4910   3
  -1  -7  -5 105.183 8.01670   5
   1   7   5 118.793 12.4598   8
  -2  -7  -5 59.4602 6.64093   5
  -2  -7  -5 60.5421 14.1716   3
   2   7   5 75.6254 9.91154   8
  -3  -7  -5 47.5544 12.5526   3
  -3  -7  -5 41.3589 7.17597   5
   3   7   5 48.5574 9.36166   8
  -4  -7  -5 41.3572 10.8628   3
   4   7   5 41.5485 9.78497   8
  -5  -7  -5 0.40767 1.98111   5
  -5  -7  -5 10.1309 5.95008   3
   5   7   5 7.60057 4.11034   8
  -6  -7  -5 148.291 20.1307   3
   6   7   5 133.705 14.6976   8
  -7  -7  -5 3.83785 4.00393   5
  -7  -7  -5 2.84760 6.61936   3
   7   7   5 -3.4698 3.80937   8
  13  -8  -5 -4.4808 4.76304   4
  13  -8  -5 -4.1565 4.43189   6
  13  -8  -5 6.77757 4.34816   7
  12  -8  -5 11.6901 5.57422   7
  12  -8  -5 21.3303 7.25247   4
  12  -8  -5 21.1405 7.37262   6
  11  -8  -5 -4.0341 2.23036   7
  11  -8  -5 -1.1720 2.98330   4
  10  -8  -5 149.781 13.9567   4
  10  -8  -5 148.367 15.0016   7
   9  -8  -5 86.7840 10.2331   4
   9  -8  -5 99.6003 11.8933   7
  -9   8   5 107.767 12.7988   8
   8  -8  -5 211.101 26.9918   7
   8  -8  -5 200.411 14.5307   4
  -8   8   5 208.307 17.3859   8
   7  -8  -5 2.18874 2.48636   4
   7  -8  -5 2.72373 2.45869   7
  -7   8   5 3.40075 3.32925   8
   6  -8  -5 173.011 11.9425   4
   6  -8  -5 167.628 14.6011   7
  -6   8   5 165.580 15.0973   8
   5  -8  -5 228.507 14.5455   3
   5  -8  -5 255.787 18.3725   7
   5  -8  -5 248.725 13.3601   4
  -5   8   5 235.728 17.8641   8
   4  -8  -5 536.180 25.9910   3
   4  -8  -5 580.404 27.3542   7
   4  -8  -5 531.294 17.4730   6
   4  -8  -5 609.874 20.3444   4
  -4   8   5 596.860 29.2183   8
   3  -8  -5 265.844 18.7238   3
   3  -8  -5 280.436 18.1258   7
   3  -8  -5 267.317 11.5641   4
  -3   8   5 267.271 19.0515   8
   2  -8  -5 7.99376 4.65170   3
  -2   8   5 4.39950 3.76301   8
   1  -8  -5 85.3648 6.85670   5
   1  -8  -5 94.2361 12.7658   3
  -1   8   5 86.3128 11.0938   8
   0  -8  -5 -0.5900 2.61334   3
   0  -8  -5 3.74725 1.81459   5
   0   8   5 4.88186 3.80080   8
  -1  -8  -5 62.7282 14.1897   3
  -1  -8  -5 60.8739 6.39923   5
   1   8   5 41.9318 8.40232   8
  -3  -8  -5 -0.8081 1.59376   5
  -3  -8  -5 0.59582 4.23578   3
   3   8   5 -3.3938 2.43713   8
  -4  -8  -5 407.378 32.7900   3
   4   8   5 425.294 26.5855   8
  -5  -8  -5 84.9025 16.7111   3
   5   8   5 113.001 14.0642   8
  -6  -8  -5 3.28485 4.45626   5
  -6  -8  -5 22.1431 10.7465   3
   6   8   5 13.9196 6.38305   8
  12  -9  -5 79.4015 14.0077   7
  12  -9  -5 73.3612 12.4440   4
  11  -9  -5 0.88443 3.71517   4
  10  -9  -5 58.0009 11.6177   7
  10  -9  -5 54.5554 10.1358   4
 -10   9   5 45.8746 10.5063   8
   9  -9  -5 -1.0450 3.05917   7
   9  -9  -5 3.88966 3.16437   4
  -9   9   5 2.75560 6.58178   8
   8  -9  -5 191.472 16.8188   7
   8  -9  -5 201.615 15.3098   4
  -8   9   5 176.939 16.8600   8
   7  -9  -5 17.4866 6.58639   7
   7  -9  -5 10.9859 3.89788   4
  -7   9   5 16.6607 6.82882   8
   6  -9  -5 127.834 10.0354   4
   6  -9  -5 130.611 10.8187   3
   6  -9  -5 134.742 24.6597   7
  -6   9   5 128.412 13.8672   8
   5  -9  -5 16.2841 5.86765   3
   5  -9  -5 1.03742 2.10474   7
   5  -9  -5 6.25909 2.90555   4
  -5   9   5 0.14138 3.29734   8
   4  -9  -5 79.5717 10.5893   3
   4  -9  -5 100.245 11.4541   7
  -4   9   5 90.9601 11.3848   8
   3  -9  -5 141.194 14.7675   3
   3  -9  -5 143.319 13.0284   7
  -3   9   5 140.418 14.7602   8
   2  -9  -5 -1.3888 0.88639   4
   2  -9  -5 -0.4819 1.68584   5
   2  -9  -5 3.26847 3.29786   3
  -2   9   5 0.10385 2.41764   8
   1  -9  -5 207.525 19.8352   3
   1  -9  -5 223.262 11.6105   5
  -1   9   5 229.000 28.8230   8
   0  -9  -5 60.3812 13.5326   3
   0   9   5 66.6590 12.0040   8
  -1  -9  -5 1.35307 1.85233   5
  -1  -9  -5 6.60204 5.26302   3
   1   9   5 0.05319 2.65415   8
  -2  -9  -5 0.61289 4.07086   3
  -2  -9  -5 -2.5362 1.57807   5
   2   9   5 5.90212 4.21017   8
  -3  -9  -5 9.19702 2.79481   5
  -3  -9  -5 17.5406 8.58840   3
   3   9   5 6.55199 4.69847   8
  -4  -9  -5 149.806 20.2068   3
   4   9   5 142.320 16.0277   8
  -5  -9  -5 -1.4372 4.61483   3
   5   9   5 9.30874 5.68896   8
  12 -10  -5 1.91555 4.14290   4
  12 -10  -5 2.89307 4.61878   7
  11 -10  -5 1.76680 3.56303   4
  11 -10  -5 8.34108 5.59281   7
  10 -10  -5 23.7032 7.08592   4
  10 -10  -5 23.8525 8.28417   7
 -10  10   5 19.9255 5.51409   8
   9 -10  -5 11.7471 4.46145   4
   9 -10  -5 2.44785 3.84995   7
  -9  10   5 1.20373 3.28911   8
   8 -10  -5 -0.1473 2.70239   4
   8 -10  -5 6.06220 4.62790   7
  -8  10   5 1.35704 3.42400   8
   7 -10  -5 49.6952 8.06717   4
   7 -10  -5 43.3800 9.80373   7
  -7  10   5 67.1063 13.2427   8
   6 -10  -5 -0.8905 2.76201   7
   6 -10  -5 0.92117 1.43520   4
   6 -10  -5 13.8527 4.34696   3
  -6  10   5 3.15322 3.45436   8
   5 -10  -5 444.557 24.6772   3
   5 -10  -5 458.812 26.4851   7
  -5  10   5 453.392 28.0670   8
   4 -10  -5 70.4492 13.3684   3
   4 -10  -5 66.6526 11.4842   7
  -4  10   5 46.6225 9.66269   8
   3 -10  -5 9.15047 3.87241   7
   3 -10  -5 12.8410 6.42499   3
  -3  10   5 15.2147 5.93649   8
   2 -10  -5 30.4007 9.08332   3
  -2  10   5 40.4016 10.5373   8
   1 -10  -5 113.620 24.1938   3
  -1  10   5 75.6507 12.5403   8
   0 -10  -5 182.246 20.0731   3
   0  10   5 157.724 16.4235   8
  -1 -10  -5 1.72522 2.48840   5
  -1 -10  -5 1.17343 4.05865   3
   1  10   5 3.30443 3.55041   8
  -2 -10  -5 1.83302 5.10245   3
  -2 -10  -5 3.00166 3.24696   5
   2  10   5 -1.1293 2.61934   8
  -3 -10  -5 -5.2913 4.47508   3
  -3 -10  -5 6.84823 4.41083   5
   3  10   5 7.34746 4.24149   8
  -4 -10  -5 33.7209 12.9053   3
   4  10   5 33.0401 9.44247   8
  11 -11  -5 17.1321 6.45373   7
  11 -11  -5 23.1894 7.27697   4
  10 -11  -5 13.6354 5.61407   4
  10 -11  -5 27.6622 9.00686   7
   9 -11  -5 57.9354 10.7885   7
   9 -11  -5 85.4085 9.91903   4
  -9  11   5 120.116 18.1489   8
   8 -11  -5 5.55461 4.85816   7
  -8  11   5 6.02715 5.72551   8
   7 -11  -5 15.6755 6.34304   7
  -7  11   5 16.8823 7.55541   8
   6 -11  -5 110.753 12.4705   3
   6 -11  -5 140.702 15.2003   7
  -6  11   5 128.565 15.2161   8
   5 -11  -5 6.09364 2.10393   4
   5 -11  -5 -3.5583 2.32428   7
   5 -11  -5 1.99531 3.81795   3
  -5  11   5 7.15764 4.69999   8
   4 -11  -5 41.7268 9.40759   3
   4 -11  -5 47.7359 10.3538   7
  -4  11   5 30.4470 8.40070   8
   3 -11  -5 -2.3088 1.43344   5
  -3  11   5 0.43142 3.58952   8
   2 -11  -5 36.4942 10.1255   3
  -2  11   5 21.7346 7.28725   8
   1 -11  -5 171.517 19.6840   3
  -1  11   5 181.811 18.7219   8
   0 -11  -5 28.5388 9.60320   3
   0  11   5 17.5820 6.96593   8
  -1 -11  -5 8.78779 4.45860   5
  -1 -11  -5 22.9423 9.46049   3
  -2 -11  -5 17.6460 10.0769   3
   2  11   5 15.3807 5.97818   8
   9 -12  -5 152.220 17.7605   7
  -9  12   5 95.3127 14.3173   8
   8 -12  -5 6.34591 5.23080   7
   8 -12  -5 1.26875 2.82848   4
  -8  12   5 7.65444 5.90152   8
   7 -12  -5 16.8697 7.10382   7
  -7  12   5 9.49134 5.29354   8
   6 -12  -5 87.9118 12.2825   3
   6 -12  -5 130.432 14.2749   7
  -6  12   5 149.336 17.1958   8
   5 -12  -5 8.95297 6.42022   7
   5 -12  -5 5.15296 2.81599   4
  -5  12   5 9.82912 5.43620   8
   4 -12  -5 54.6041 12.2691   3
  -4  12   5 66.0759 13.9218   8
   3 -12  -5 5.71170 3.19150   5
   3 -12  -5 0.56983 4.82754   3
  -3  12   5 -3.8321 4.24793   8
   2 -12  -5 5.39739 3.10625   5
   2 -12  -5 10.4621 6.91571   3
  -2  12   5 11.5331 10.4460   8
   1 -12  -5 40.0585 12.5013   3
  -1  12   5 41.0902 12.0279   8
   0 -12  -5 3.24277 8.34277   3
   0  12   5 13.4287 6.52276   8
   7 -13  -5 -1.0338 4.83725   7
  -7  13   5 -1.8274 5.15075   8
   6 -13  -5 50.7877 12.0761   7
  -6  13   5 45.8365 10.7897   8
   5 -13  -5 -2.1970 4.47062   3
   5 -13  -5 -4.0894 3.17687   5
  -5  13   5 10.3502 6.83127   8
   4 -13  -5 35.5159 10.8983   3
  -4  13   5 34.6883 9.41668   8
   3 -13  -5 48.3310 11.7814   3
  -3  13   5 63.4178 15.6550   8
  -4  15  -6 -5.9580 3.99804   8
   4 -15   6 24.4745 9.73355   3
  -5  15  -6 -6.1603 5.12065   8
   5 -15   6 -4.9443 4.73570   7
   5 -15   6 18.9480 9.44211   3
   6 -15   6 6.27651 4.70892   7
   6 -15   6 12.8429 7.40346   3
   0  14  -6 10.6351 5.82939   8
   0  14  -6 1.02338 5.91578   6
   0 -14   6 3.92572 7.04963   3
  -1  14  -6 30.1536 7.91192   8
   1 -14   6 33.4856 10.1205   3
  -2  14  -6 10.1012 4.81947   8
   2 -14   6 4.34339 7.83167   3
  -3  14  -6 5.07495 4.52156   8
   3 -14   6 8.13009 8.54464   3
   3 -14   6 4.74586 3.77625   7
  -5  14  -6 7.45421 4.20452   8
   5 -14   6 -7.7859 2.99395   7
   5 -14   6 -6.2758 4.65097   2
   5 -14   6 5.02081 5.34552   3
   5 -14   6 -5.5213 3.89844   4
   7 -14   6 32.0528 10.0335   3
   7 -14   6 74.7108 16.7960   2
   7 -14   6 51.3495 10.8911   7
   8 -14   6 6.95175 4.25771   7
   8 -14   6 2.65955 5.68069   3
   8 -14   6 -7.5639 3.41377   4
   8 -14   6 11.1571 6.50310   2
   9 -14   6 6.11090 9.52557   3
   9 -14   6 4.09265 6.08267   7
   9 -14   6 5.74573 7.53684   2
   2  13  -6 29.4004 6.55296   6
   2  13  -6 40.5313 9.37283   8
  -2 -13   6 22.5145 10.0570   3
   1  13  -6 -0.0172 3.27444   6
   1  13  -6 4.49858 4.20376   8
  -1 -13   6 -3.0267 5.50543   3
   0  13  -6 -1.7333 2.73019   6
   0  13  -6 0.10845 3.19169   8
   0 -13   6 -5.3111 3.76891   3
  -1  13  -6 3.35365 3.67024   8
  -1  13  -6 4.93267 4.16795   6
   1 -13   6 -3.4587 5.52895   3
  -2  13  -6 78.4454 12.4376   8
   2 -13   6 69.6819 15.4045   3
  -3  13  -6 30.5138 6.95199   8
   3 -13   6 45.1982 11.0250   3
   4 -13   6 8.66035 6.51707   2
   4 -13   6 13.6210 7.77994   3
   4 -13   6 0.31459 2.69042   7
  -5  13  -6 -0.7668 2.27281   8
   5 -13   6 -2.7664 4.48188   3
   5 -13   6 6.79246 5.46162   2
   6 -13   6 177.086 19.4925   3
   6 -13   6 169.221 19.9225   2
   6 -13   6 169.150 14.8462   7
   7 -13   6 25.2202 8.93507   2
   7 -13   6 50.5923 10.3547   7
   7 -13   6 39.1438 10.5038   3
   8 -13   6 -1.5226 3.92547   7
   8 -13   6 9.47205 5.16619   2
   8 -13   6 1.25456 3.40298   4
   9 -13   6 10.8216 5.61598   4
   9 -13   6 3.88758 3.72532   7
   9 -13   6 3.92543 5.06614   2
  10 -13   6 78.3819 18.2866   4
  10 -13   6 104.986 16.5823   7
  10 -13   6 91.1008 14.8060   2
   4  12  -6 116.868 18.0665   8
   4  12  -6 96.9748 9.58700   6
  -4 -12   6 57.3795 14.7767   3
   3  12  -6 10.4196 3.96548   6
   3  12  -6 10.1561 4.87685   8
  -3 -12   6 7.29890 6.27647   3
   2  12  -6 25.1680 5.56365   6
   2  12  -6 25.9870 7.96551   8
  -2 -12   6 16.2679 7.84173   3
   1  12  -6 46.7350 8.01921   6
   1  12  -6 46.9750 10.1529   8
  -1 -12   6 26.4794 9.74778   3
   0  12  -6 129.287 11.3216   6
   0  12  -6 99.6614 11.7961   8
   0 -12   6 125.661 16.8523   3
  -1  12  -6 5.66617 2.97141   6
  -1  12  -6 9.41593 3.62145   8
   1 -12   6 5.27240 5.78717   3
  -2  12  -6 112.305 10.7741   6
  -2  12  -6 106.216 11.3121   8
   2 -12   6 115.526 14.5713   2
   2 -12   6 111.969 18.9074   3
  -3  12  -6 94.5048 10.0737   8
   3 -12   6 119.324 15.3358   2
   3 -12   6 66.2004 13.7831   3
   4 -12   6 31.2937 9.28936   2
   4 -12   6 24.7538 8.06503   3
   5 -12   6 46.6524 9.41025   7
   5 -12   6 57.8899 13.2975   2
  -6  12  -6 3.05913 2.59851   8
   6 -12   6 0.56487 3.54006   2
   7 -12   6 90.8756 11.0780   7
   7 -12   6 91.6325 16.8288   2
   8 -12   6 -3.7269 3.21229   7
   8 -12   6 4.97145 5.09644   2
   9 -12   6 7.30775 4.84586   2
   9 -12   6 4.50723 4.19384   7
  10 -12   6 16.1950 6.65430   7
  10 -12   6 15.8754 8.02364   2
  10 -12   6 0.90020 4.08532   4
  11 -12   6 61.2375 13.0359   2
  11 -12   6 41.2182 9.26327   4
  11 -12   6 52.2226 10.0067   7
   5  11  -6 46.1177 10.2973   8
   5  11  -6 72.3323 7.80341   6
  -5 -11   6 60.6379 14.9327   3
   4  11  -6 -2.4572 2.82513   8
   4  11  -6 2.92884 2.94720   6
   3  11  -6 13.8196 4.27319   6
   3  11  -6 3.38118 4.42880   8
  -3 -11   6 9.11356 8.11628   3
   2  11  -6 12.0825 5.14852   8
   2  11  -6 10.6791 3.61839   6
  -2 -11   6 4.94753 5.98741   3
   1  11  -6 23.6874 6.64965   8
   1  11  -6 29.2536 6.04065   6
  -1 -11   6 23.3590 7.95181   3
   0  11  -6 -2.1537 2.81580   8
  -1  11  -6 19.3410 4.75899   6
  -1  11  -6 13.6324 4.91456   8
   1 -11   6 16.7285 6.93146   3
   1 -11   6 17.1826 5.44584   2
  -2  11  -6 0.06421 1.70056   8
  -2  11  -6 4.00494 2.52254   6
   2 -11   6 -0.9542 2.34896   2
   2 -11   6 0.84908 1.66398   7
  -3  11  -6 506.852 22.7928   8
  -3  11  -6 537.986 23.7728   6
   3 -11   6 565.039 32.5537   3
   3 -11   6 546.134 31.4565   2
   4 -11   6 217.933 14.5589   7
   4 -11   6 181.270 21.2244   2
   5 -11   6 13.8337 4.90551   7
   5 -11   6 18.3135 8.90211   2
   6 -11   6 108.160 11.2279   7
   6 -11   6 97.5549 17.0120   2
   7 -11   6 194.405 18.8132   2
   8 -11   6 230.070 21.0545   2
   8 -11   6 215.050 17.4903   7
   9 -11   6 8.00399 5.30720   7
   9 -11   6 3.62536 3.96699   2
  10 -11   6 6.67655 4.29078   7
  10 -11   6 -6.1876 3.13591   2
  11 -11   6 77.3353 15.2948   7
  11 -11   6 84.2809 14.0848   4
  11 -11   6 77.4840 14.3730   2
  12 -11   6 26.6534 8.24832   2
  12 -11   6 12.8178 7.75516   4
  12 -11   6 27.2399 7.86743   7
   6  10  -6 192.028 18.2116   8
   6  10  -6 173.193 11.8092   6
  -6 -10   6 172.646 28.2988   3
   5  10  -6 106.152 9.20885   6
   5  10  -6 137.678 15.1448   8
  -5 -10   6 111.411 20.1614   3
   4  10  -6 27.5122 8.24453   8
   4  10  -6 41.6744 6.79795   6
  -4 -10   6 42.4480 10.4519   3
   3  10  -6 -0.5924 3.58874   8
   3  10  -6 4.05126 2.45801   6
  -3 -10   6 3.77876 4.46183   3
   2  10  -6 86.6763 7.97820   6
   2  10  -6 83.2630 10.6723   8
  -2 -10   6 71.0671 13.8620   3
   1  10  -6 171.137 14.4958   8
   1  10  -6 172.363 11.2168   6
  -1 -10   6 173.496 20.4864   3
   0  10  -6 59.2039 10.2317   8
   0  10  -6 53.7990 6.48482   6
   0 -10   6 50.1708 10.1970   2
   0 -10   6 36.0923 8.97604   3
  -1  10  -6 4.26652 2.60629   6
  -1  10  -6 11.2871 4.41539   8
   1 -10   6 5.95248 4.63357   2
   1 -10   6 15.1203 5.66602   3
  -2  10  -6 7.63257 3.50252   8
  -2  10  -6 4.93981 3.02041   6
   2 -10   6 16.5572 5.73586   2
  -3  10  -6 75.2634 7.78410   8
  -3  10  -6 101.932 9.52979   6
   3 -10   6 83.4049 14.8513   2
   3 -10   6 74.1245 7.68038   7
  -4  10  -6 49.3156 5.72086   8
   4 -10   6 61.0543 7.43995   7
   4 -10   6 56.4791 11.9199   2
   5 -10   6 65.8195 8.31717   7
   5 -10   6 73.1389 13.8744   2
   6 -10   6 59.1670 11.2500   2
   6 -10   6 69.8580 8.80899   7
   7 -10   6 72.1335 12.7844   2
   7 -10   6 84.8821 10.4964   7
   8 -10   6 15.8560 5.33238   7
   8 -10   6 6.08009 4.59575   2
   9 -10   6 8.72534 5.85441   2
   9 -10   6 15.5684 5.77635   7
  10 -10   6 9.71323 5.81065   2
  10 -10   6 16.4359 6.34696   7
  11 -10   6 8.88091 4.94777   2
  11 -10   6 -0.7134 4.74655   7
  12 -10   6 0.26860 4.89395   2
  12 -10   6 1.14689 3.23657   4
  12 -10   6 13.0141 6.18279   7
   7   9  -6 2.06062 2.59486   6
   7   9  -6 1.38380 3.95232   8
  -7  -9   6 5.33885 7.19019   3
   6   9  -6 5.83575 4.10564   8
   6   9  -6 1.90976 2.43248   6
  -6  -9   6 0.27171 5.00101   3
   5   9  -6 3.96287 2.80416   6
  -5  -9   6 12.0661 5.67623   3
  -4  -9   6 251.429 22.8152   3
   3   9  -6 100.515 8.14792   6
  -3  -9   6 100.903 18.1866   3
   2   9  -6 13.7985 3.75321   6
  -2  -9   6 4.17549 4.67154   3
   1   9  -6 38.2963 5.93755   6
  -1  -9   6 35.1603 8.42254   2
  -1  -9   6 31.4242 8.87266   3
   0   9  -6 67.7077 6.73156   6
   0  -9   6 63.5086 12.9878   3
   0  -9   6 61.7771 5.38573   4
   0  -9   6 54.2198 9.95433   2
  -1   9  -6 1042.08 33.2789   8
  -1   9  -6 1079.87 30.1934   6
   1  -9   6 1046.50 40.0207   2
   1  -9   6 930.257 25.2773   4
  -2   9  -6 349.894 16.2897   6
  -2   9  -6 359.693 17.2565   8
   2  -9   6 334.566 21.6465   2
   2  -9   6 366.524 15.8603   7
  -3   9  -6 3.65412 2.24873   8
  -3   9  -6 2.48508 2.05165   6
   3  -9   6 3.51807 3.33099   2
   3  -9   6 4.00102 2.56282   7
  -4   9  -6 198.295 13.1535   6
  -4   9  -6 212.029 11.4181   8
   4  -9   6 193.319 17.1273   2
   4  -9   6 243.906 14.8236   7
   5  -9   6 32.1194 7.14256   7
   5  -9   6 30.1210 4.34420   5
   5  -9   6 40.3977 9.61677   2
   6  -9   6 293.618 21.3307   2
   6  -9   6 336.040 19.3403   7
   7  -9   6 260.896 17.7923   7
   7  -9   6 260.585 20.3764   2
   8  -9   6 3.14348 3.15481   2
   8  -9   6 4.34647 2.99914   7
   9  -9   6 266.306 21.6527   2
   9  -9   6 274.608 19.7518   7
  10  -9   6 18.7988 6.59749   7
  10  -9   6 29.8760 9.65617   2
  11  -9   6 11.7809 6.58924   2
  11  -9   6 15.0041 6.00081   7
  12  -9   6 110.366 14.1184   2
  12  -9   6 81.7631 15.7257   7
  12  -9   6 74.3955 16.4228   4
  13  -9   6 1.13341 5.23668   4
  13  -9   6 23.2539 10.7195   2
  13  -9   6 1.76945 7.62284   7
   8   8  -6 26.7789 5.37568   6
  -8  -8   6 34.7967 12.0643   3
   7   8  -6 29.6138 5.62702   6
  -7  -8   6 20.4070 8.10564   3
   6   8  -6 1.95587 2.36785   6
  -6  -8   6 -0.6492 4.58977   3
   5   8  -6 15.9562 4.06977   6
  -5  -8   6 1.68927 4.81492   3
   4   8  -6 0.12495 1.91294   6
  -4  -8   6 2.57196 2.71307   4
   3   8  -6 138.039 9.23771   6
  -3  -8   6 147.508 15.6826   3
   2   8  -6 25.3320 4.32196   6
  -2  -8   6 47.7338 10.8437   3
   1   8  -6 33.4904 5.19021   6
  -1  -8   6 29.7339 4.82879   4
  -1  -8   6 30.4670 6.67374   2
  -1  -8   6 33.7950 8.07200   3
   0   8  -6 421.105 16.1436   6
   0  -8   6 433.862 22.9036   2
   0  -8   6 370.914 13.5351   4
  -1   8  -6 11.1670 3.02815   6
   1  -8   6 10.3282 4.06152   2
   1  -8   6 7.80081 2.45541   7
   1  -8   6 7.43910 2.28366   4
  -2   8  -6 244.093 12.5756   6
   2  -8   6 225.171 16.7127   2
   2  -8   6 218.630 12.0296   7
  -3   8  -6 11.0071 3.44306   8
  -3   8  -6 8.48151 3.33332   6
   3  -8   6 6.27794 2.82403   2
  -4   8  -6 46.2827 4.78507   8
  -4   8  -6 27.5591 4.77748   6
   4  -8   6 47.0586 9.90623   2
   4  -8   6 43.8075 7.04655   7
   4  -8   6 50.2821 4.17505   5
   5  -8   6 787.493 34.1828   2
   5  -8   6 847.508 30.3796   7
   5  -8   6 760.369 21.4371   5
   6  -8   6 18.9551 5.35830   7
   6  -8   6 16.6952 6.12876   2
   7  -8   6 139.317 14.3036   2
   7  -8   6 145.023 13.0887   7
   8  -8   6 34.1878 8.69540   7
   8  -8   6 34.9109 9.64466   2
   9  -8   6 95.1747 16.0950   2
   9  -8   6 68.5264 11.5209   7
  10  -8   6 51.2783 10.2564   7
  10  -8   6 45.7651 9.40742   2
  11  -8   6 96.8905 16.1689   2
  11  -8   6 76.2176 12.6611   7
  12  -8   6 13.2951 6.15133   4
  12  -8   6 2.26297 4.19615   7
  12  -8   6 6.37002 4.61857   2
  13  -8   6 282.578 23.1232   7
  13  -8   6 315.763 23.8042   4
  13  -8   6 282.741 22.9010   2
   9   7  -6 2.22760 3.14280   6
  -9  -7   6 -1.7619 5.41077   3
   8   7  -6 3.90579 2.19939   6
  -8  -7   6 2.81047 4.33310   3
   7   7  -6 178.937 12.1649   6
  -7  -7   6 194.854 19.6948   3
   6   7  -6 7.22211 2.17830   4
   6   7  -6 9.16332 3.68229   6
  -6  -7   6 6.55681 6.43111   3
   5   7  -6 96.8078 8.11300   6
   5   7  -6 74.4507 5.25352   4
  -5  -7   6 84.7514 15.4341   3
   4   7  -6 22.9049 4.38698   6
  -4  -7   6 18.8722 6.16411   3
   3   7  -6 327.848 14.2134   6
  -3  -7   6 358.510 23.3894   3
  -3  -7   6 357.742 21.6347   4
   2   7  -6 47.3181 5.10878   6
  -2  -7   6 46.1885 7.92385   2
  -2  -7   6 50.7479 10.4769   3
   1   7  -6 82.1847 6.50304   6
  -1  -7   6 82.0420 10.3190   3
  -1  -7   6 74.3119 8.77360   2
  -1  -7   6 91.2747 7.37812   4
   0   7  -6 23.2592 4.34101   6
   0  -7   6 20.4326 4.89395   2
   0  -7   6 19.1422 3.27138   4
   0  -7   6 25.3860 3.17059   7
  -1   7  -6 1010.83 26.7562   6
   1  -7   6 1035.77 35.4747   2
   1  -7   6 1005.90 24.9259   4
   1  -7   6 1035.62 27.0405   7
  -2   7  -6 27.4615 3.35131   5
  -2   7  -6 18.9288 3.72428   6
   2  -7   6 33.5447 4.79976   4
   2  -7   6 43.6767 9.19178   2
   2  -7   6 21.1144 4.30416   7
  -3   7  -6 37.3311 4.46163   5
  -3   7  -6 39.0136 6.33861   6
   3  -7   6 36.0700 6.55697   7
   3  -7   6 39.1860 9.17502   2
   3  -7   6 32.4950 3.10492   5
  -4   7  -6 3.26500 2.39934   5
  -4   7  -6 3.68539 2.18023   6
  -4   7  -6 4.33893 1.74492   8
   4  -7   6 6.50182 3.60783   7
   4  -7   6 -0.0113 2.02234   2
  -5   7  -6 779.203 26.1377   5
   5  -7   6 808.957 33.2034   2
   5  -7   6 794.876 28.8080   7
  -6   7  -6 122.727 10.3527   5
   6  -7   6 131.344 11.6101   7
   6  -7   6 135.574 13.4522   2
  -7   7  -6 47.8725 8.68760   5
   7  -7   6 33.6220 6.89093   7
   7  -7   6 52.2191 11.1791   2
   8  -7   6 8.34748 3.63538   7
   8  -7   6 11.9255 4.65103   2
   9  -7   6 94.7355 12.0200   2
   9  -7   6 79.7002 13.3346   7
  10  -7   6 77.9524 12.8181   7
  10  -7   6 77.2145 12.5301   2
  11  -7   6 3.36310 3.17781   7
  11  -7   6 2.56063 3.53773   2
  12  -7   6 17.6456 6.88107   7
  12  -7   6 35.3465 10.0037   2
  13  -7   6 11.0979 5.48990   2
  13  -7   6 12.3345 5.34678   4
  13  -7   6 3.38158 4.96169   7
  10   6  -6 3.85452 4.63106   6
 -10  -6   6 -6.3362 5.87146   3
   9   6  -6 4.21816 2.31456   4
   9   6  -6 -2.7910 2.05523   6
  -9  -6   6 5.09955 5.22469   3
   8   6  -6 -0.1276 2.33498   6
   8   6  -6 1.82239 1.68779   4
  -8  -6   6 -2.2129 3.60622   3
   7   6  -6 198.177 15.4428   6
   7   6  -6 199.117 9.61090   4
  -7  -6   6 190.127 18.3320   3
   6   6  -6 96.8346 6.41763   4
   6   6  -6 104.361 9.05462   6
  -6  -6   6 79.3926 11.0267   3
   5   6  -6 97.1615 8.17304   6
   5   6  -6 88.1065 5.86398   4
   5   6  -6 81.4483 7.87511   2
  -5  -6   6 76.5575 7.17812   4
  -5  -6   6 79.0258 11.0944   3
   4   6  -6 12.8531 2.71461   4
   4   6  -6 7.20052 2.88749   6
  -4  -6   6 13.7796 4.22203   4
  -4  -6   6 15.1067 5.65855   3
   3   6  -6 317.872 13.7405   6
   3   6  -6 334.898 11.6252   4
   3   6  -6 313.516 16.1320   2
  -3  -6   6 336.946 20.5882   3
  -3  -6   6 336.423 16.8293   2
  -3  -6   6 317.424 13.4470   4
   2   6  -6 124.974 7.93742   6
   2   6  -6 133.130 10.3633   2
  -2  -6   6 124.025 10.1838   2
  -2  -6   6 137.577 12.7614   3
   1   6  -6 54.4088 5.08148   6
   1   6  -6 57.3509 6.99650   2
  -1  -6   6 55.9504 7.14078   2
  -1  -6   6 52.9315 3.76930   7
   0   6  -6 44.9992 4.53340   6
   0   6  -6 32.7892 5.80562   2
   0  -6   6 46.5498 4.42724   4
   0  -6   6 48.8287 4.51203   7
   0  -6   6 50.8742 6.69625   2
  -1   6  -6 828.125 22.2409   6
  -1   6  -6 834.451 19.6915   5
  -1   6  -6 757.682 32.9462   2
   1  -6   6 834.205 21.3439   4
   1  -6   6 838.747 23.5640   7
   1  -6   6 838.227 29.9356   2
  -2   6  -6 9.21177 2.71331   6
  -2   6  -6 5.60094 1.98615   5
   2  -6   6 5.57923 4.39380   2
   2  -6   6 9.16908 3.36230   7
   2  -6   6 1.71360 1.60486   4
  -3   6  -6 557.543 18.7661   6
  -3   6  -6 500.492 17.5756   5
   3  -6   6 551.198 24.6782   2
   3  -6   6 550.384 14.8995   5
   3  -6   6 585.737 21.4810   7
  -4   6  -6 364.928 15.7183   6
  -4   6  -6 379.113 13.0849   8
  -4   6  -6 380.653 15.9092   5
   4  -6   6 374.243 13.1061   5
   4  -6   6 371.193 17.9126   7
   4  -6   6 424.916 21.6222   2
  -5   6  -6 1.84688 1.91948   5
   5  -6   6 2.21527 2.42223   7
   5  -6   6 -1.6691 1.73648   2
  -6   6  -6 371.579 18.3590   5
   6  -6   6 369.352 21.7691   2
   6  -6   6 377.454 19.8190   7
  -7   6  -6 24.2170 6.16405   5
   7  -6   6 9.31898 4.80665   2
   7  -6   6 16.7272 6.10171   7
   8  -6   6 83.7766 10.8640   2
   8  -6   6 85.9774 10.2127   7
  -9   6  -6 135.664 13.3878   5
   9  -6   6 112.952 12.9229   2
   9  -6   6 115.078 12.2410   7
  10  -6   6 9.13765 4.42765   2
  10  -6   6 13.4884 5.98731   7
  11  -6   6 115.104 17.4053   7
  11  -6   6 112.605 13.7857   2
  12  -6   6 69.0993 11.8277   2
  12  -6   6 91.7945 15.3621   7
  13  -6   6 70.3098 12.7426   7
  13  -6   6 72.4731 12.3263   2
  13  -6   6 79.9629 13.9858   4
  10   5  -6 37.3424 5.19735   4
  10   5  -6 59.8803 9.52745   6
   9   5  -6 62.8627 10.1581   6
   9   5  -6 49.3496 5.42352   4
   8   5  -6 4.00770 3.26642   6
   8   5  -6 0.21994 2.17482   4
  -8  -5   6 -1.4785 2.33434   3
   7   5  -6 -0.8450 1.48725   4
   7   5  -6 0.57392 2.52601   5
   7   5  -6 -1.0177 1.69611   6
  -7  -5   6 0.30720 2.74742   3
   6   5  -6 57.7138 6.92475   6
   6   5  -6 60.2604 5.41570   4
   6   5  -6 54.5588 5.45817   5
  -6  -5   6 70.4751 12.9478   3
   5   5  -6 69.6853 5.30490   5
   5   5  -6 60.1490 6.56960   6
   5   5  -6 62.4890 6.13956   4
  -5  -5   6 58.7638 11.0070   3
   4   5  -6 105.116 8.14866   6
   4   5  -6 93.5937 5.90719   5
   4   5  -6 103.501 6.47280   4
  -4  -5   6 93.9531 7.55839   4
  -4  -5   6 84.5917 10.2341   3
   3   5  -6 1700.00 38.8116   6
   3   5  -6 1655.88 41.0681   2
   3   5  -6 1676.66 34.8043   4
  -3  -5   6 1657.85 38.4818   4
  -3  -5   6 1708.65 48.7682   3
  -3  -5   6 1749.23 41.5909   2
   2   5  -6 60.6993 6.75453   2
   2   5  -6 75.0056 5.22016   4
   2   5  -6 69.7688 3.53381   5
   2   5  -6 68.1043 5.79149   6
  -2  -5   6 59.1431 6.58734   2
   1   5  -6 77.4453 5.30233   4
   1   5  -6 73.7052 5.76123   6
   1   5  -6 75.9232 3.91022   5
   1   5  -6 64.4476 6.98867   2
  -1  -5   6 80.5275 6.02079   4
  -1  -5   6 69.7302 7.13265   2
  -1  -5   6 69.4695 4.70685   7
   0   5  -6 123.991 5.74112   5
   0   5  -6 122.111 6.99205   6
   0  -5   6 136.163 7.52452   7
   0  -5   6 125.730 9.95665   6
   0  -5   6 130.192 10.0629   2
  -1   5  -6 305.593 10.5917   5
  -1   5  -6 300.976 16.5431   2
  -1   5  -6 326.302 11.8097   6
   1  -5   6 292.292 11.2420   4
   1  -5   6 319.704 12.7823   6
   1  -5   6 319.648 16.5449   2
   1  -5   6 317.826 13.1547   7
  -2   5  -6 1625.14 38.1536   8
  -2   5  -6 1647.42 35.1975   6
  -2   5  -6 1654.39 34.9561   5
  -2   5  -6 1591.10 45.0506   2
   2  -5   6 1684.71 44.9141   2
   2  -5   6 1635.78 34.4071   4
   2  -5   6 1620.97 34.9919   6
   2  -5   6 1634.08 38.8155   7
  -3   5  -6 26.0137 4.40770   5
  -3   5  -6 26.7817 4.74307   6
   3  -5   6 18.7015 3.27419   6
   3  -5   6 16.8243 2.80461   5
   3  -5   6 20.6344 5.28621   2
   3  -5   6 14.1409 3.71540   7
   3  -5   6 18.4381 3.56852   4
  -4   5  -6 171.841 10.1825   6
  -4   5  -6 196.938 11.1515   5
   4  -5   6 182.234 13.8886   2
   4  -5   6 168.416 8.53861   5
   4  -5   6 181.288 15.5521   7
  -5   5  -6 523.050 25.1078   5
   5  -5   6 606.261 27.0110   2
   5  -5   6 616.459 24.2356   7
  -6   5  -6 7.95561 3.28709   5
   6  -5   6 8.88810 5.05870   2
   6  -5   6 13.5765 4.41633   7
  -7   5  -6 0.28151 1.65419   5
   7  -5   6 0.34529 1.72191   7
   7  -5   6 0.68657 2.27829   2
  -8   5  -6 22.6621 6.51467   5
   8  -5   6 21.0656 6.08347   2
   8  -5   6 27.8401 6.19184   7
  -9   5  -6 364.257 21.9366   5
   9  -5   6 377.897 23.7128   2
   9  -5   6 315.875 20.5326   7
  10  -5   6 130.963 13.2918   7
  10  -5   6 126.911 13.8987   2
  11  -5   6 267.562 20.2673   7
  11  -5   6 233.130 19.2864   2
  12  -5   6 18.3603 7.00774   7
  12  -5   6 24.5435 7.79220   4
  12  -5   6 17.2375 5.99345   2
  13  -5   6 46.3423 9.98774   2
  13  -5   6 39.8332 8.92117   7
  13  -5   6 41.5292 10.2899   4
  11   4  -6 2.66729 7.25899   6
  11   4  -6 -2.4507 2.74077   4
  10   4  -6 127.526 9.64274   4
  10   4  -6 141.986 12.9191   6
   9   4  -6 48.7755 5.86096   4
   9   4  -6 50.4591 9.79677   6
   8   4  -6 313.507 19.5377   6
   8   4  -6 314.889 14.6226   4
   7   4  -6 51.6213 5.60350   4
   7   4  -6 36.1159 6.38778   6
  -7  -4   6 65.1017 11.0852   3
   6   4  -6 10.5362 3.07500   4
   6   4  -6 3.51159 2.62814   5
   6   4  -6 3.24376 2.68612   6
  -6  -4   6 8.99462 4.48745   3
   5   4  -6 114.111 9.11320   6
   5   4  -6 93.4520 7.21224   5
   4   4  -6 234.515 12.4082   6
   4   4  -6 228.901 10.2307   4
  -4  -4   6 218.504 11.5831   4
  -4  -4   6 241.262 15.3222   3
   3   4  -6 276.347 12.8236   2
   3   4  -6 283.615 12.7981   6
   3   4  -6 292.931 11.0654   4
  -3  -4   6 257.321 12.0823   4
  -3  -4   6 268.895 15.7046   3
  -3  -4   6 283.216 12.6534   2
   2   4  -6 460.237 17.8353   6
   2   4  -6 507.691 15.0509   4
   2   4  -6 504.044 18.7856   2
  -2  -4   6 526.295 18.5139   2
   1   4  -6 99.4612 4.74520   5
   1   4  -6 93.6042 5.75167   4
   1   4  -6 84.0701 7.76767   2
   1   4  -6 93.7045 6.13668   6
  -1  -4   6 99.0521 7.94692   2
  -1  -4   6 97.1966 7.51694   6
  -1  -4   6 96.7216 6.38518   4
   0   4  -6 184.805 8.22789   6
   0   4  -6 189.078 7.31175   5
   0   4  -6 196.855 12.2069   2
   0   4  -6 165.364 10.8500   8
   0  -4   6 198.051 11.8122   2
   0  -4   6 182.493 9.70440   6
   0  -4   6 179.227 8.53432   4
  -1   4  -6 1.95818 1.55586   8
  -1   4  -6 -0.6217 1.57387   2
  -1   4  -6 -0.4652 0.72450   5
  -1   4  -6 -0.0592 0.92540   6
   1  -4   6 0.72687 1.08323   6
   1  -4   6 0.74509 1.48756   2
  -2   4  -6 843.655 21.9208   5
  -2   4  -6 867.362 21.3013   6
  -2   4  -6 797.038 28.9211   2
  -2   4  -6 830.453 23.2343   8
   2  -4   6 867.598 29.1411   2
   2  -4   6 853.138 21.3160   4
  -3   4  -6 646.903 20.0863   5
  -3   4  -6 652.470 18.9236   6
  -3   4  -6 630.385 26.2641   2
  -3   4  -6 663.997 18.0132   8
   3  -4   6 669.555 26.0824   2
   3  -4   6 641.514 17.2725   5
   3  -4   6 683.598 17.5296   6
   3  -4   6 642.290 18.2342   4
  -4   4  -6 1719.18 41.1562   5
   4  -4   6 1785.29 37.2911   5
   4  -4   6 1767.67 35.2315   6
  -5   4  -6 76.5202 7.61378   5
   5  -4   6 66.5893 4.95103   6
   5  -4   6 55.7933 7.16171   7
   5  -4   6 70.4248 9.05695   2
  -6   4  -6 11.6472 3.75288   5
   6  -4   6 24.6494 7.18270   2
   6  -4   6 16.5766 4.46805   7
  -7   4  -6 59.8231 9.10571   5
   7  -4   6 78.5912 9.21423   7
   7  -4   6 72.3760 9.63009   2
  -8   4  -6 71.0063 11.3839   5
   8  -4   6 50.5845 8.72432   7
   8  -4   6 66.6208 11.1066   2
  -9   4  -6 90.3001 10.6636   5
   9  -4   6 53.3674 9.16915   7
   9  -4   6 72.3143 12.2753   2
 -10   4  -6 -3.8434 2.21545   5
  10  -4   6 1.06293 2.06148   7
  10  -4   6 -5.8694 2.15486   2
  11  -4   6 8.19226 5.28156   2
  11  -4   6 2.40767 2.78867   7
  12  -4   6 39.9987 8.82051   4
  12  -4   6 52.9538 10.7727   7
  12  -4   6 52.5849 10.7476   2
  13  -4   6 49.4497 11.0475   2
  13  -4   6 75.9366 13.6775   7
  13  -4   6 71.3037 11.9709   4
  12   3  -6 39.5063 6.62943   4
  12   3  -6 36.3500 9.81128   6
  11   3  -6 1.16203 3.49042   6
  11   3  -6 3.82240 3.13253   4
 -11  -3   6 -2.7367 5.84547   3
  10   3  -6 215.733 16.6038   6
  10   3  -6 227.703 13.6800   4
   9   3  -6 7.22312 2.70669   4
   9   3  -6 10.3718 4.06686   6
  -9  -3   6 -1.2747 2.66993   3
   8   3  -6 10.7255 3.93112   6
   8   3  -6 15.9450 4.12528   4
  -8  -3   6 5.57421 2.56153   3
   7   3  -6 53.8382 5.86452   4
   7   3  -6 47.6905 8.16918   6
  -7  -3   6 63.4692 8.90614   3
   6   3  -6 1.34836 1.88712   6
   6   3  -6 -0.9717 1.12989   4
   6   3  -6 -4.0299 1.81373   5
  -6  -3   6 5.82775 2.74772   3
   5   3  -6 353.106 14.9501   4
   5   3  -6 327.582 16.1323   6
  -5  -3   6 355.061 17.7794   3
   4   3  -6 176.740 10.8514   6
   4   3  -6 187.609 9.37970   4
  -4  -3   6 174.720 11.9178   3
  -4  -3   6 184.265 10.5430   4
   3   3  -6 148.622 10.8880   6
   3   3  -6 152.970 8.01788   4
   3   3  -6 151.827 8.65645   2
  -3  -3   6 157.635 8.35124   2
  -3  -3   6 158.749 9.23763   4
   2   3  -6 1402.94 39.3623   8
   2   3  -6 1467.33 30.8304   4
   2   3  -6 1392.13 32.2257   6
   2   3  -6 1435.88 34.8323   2
  -2  -3   6 1422.48 29.4465   7
  -2  -3   6 1379.01 36.1942   6
  -2  -3   6 1420.85 36.3623   4
  -2  -3   6 1435.76 33.6100   2
   1   3  -6 164.275 7.71625   4
   1   3  -6 162.816 10.8492   8
   1   3  -6 170.784 10.5250   2
   1   3  -6 172.641 8.16253   6
  -1  -3   6 162.779 8.37339   4
  -1  -3   6 180.475 10.1935   2
   0   3  -6 891.476 21.3718   4
   0   3  -6 899.801 20.0080   5
   0   3  -6 844.002 26.0091   8
   0   3  -6 909.425 20.8120   6
   0   3  -6 847.325 27.3346   2
   0  -3   6 870.434 21.9721   4
   0  -3   6 901.029 27.0422   2
   0  -3   6 880.135 23.4822   6
  -1   3  -6 432.130 18.9779   2
  -1   3  -6 430.011 12.5060   6
  -1   3  -6 421.106 15.9217   8
  -1   3  -6 435.300 13.3030   5
   1  -3   6 434.825 18.7258   2
   1  -3   6 408.633 13.5948   6
   1  -3   6 426.595 13.5315   4
  -2   3  -6 157.151 9.69192   8
  -2   3  -6 149.859 8.03425   5
  -2   3  -6 150.019 7.10538   6
   2  -3   6 145.349 11.1014   2
   2  -3   6 155.389 7.71811   4
   2  -3   6 159.580 7.31554   6
  -3   3  -6 682.058 20.5590   5
  -3   3  -6 670.920 26.8588   2
  -3   3  -6 658.359 17.5277   8
  -3   3  -6 642.776 18.1421   6
   3  -3   6 651.928 18.2173   4
   3  -3   6 670.706 16.7258   6
   3  -3   6 681.420 26.3929   2
  -4   3  -6 17.6213 4.24308   5
   4  -3   6 12.9353 2.78817   5
   4  -3   6 11.6719 4.42687   2
   4  -3   6 12.6434 2.21582   6
  -5   3  -6 313.908 15.5514   5
   5  -3   6 287.539 17.9747   2
   5  -3   6 302.704 10.5414   6
  -6   3  -6 135.179 11.0762   5
   6  -3   6 174.068 14.3865   2
   6  -3   6 147.548 7.45681   6
  -7   3  -6 -0.6891 1.71227   5
   7  -3   6 2.81965 2.43467   2
   7  -3   6 1.20255 1.92402   7
  -8   3  -6 418.862 22.7410   5
   8  -3   6 448.326 23.4419   7
   8  -3   6 462.442 26.0394   2
  -9   3  -6 12.9694 4.57145   5
   9  -3   6 4.62578 3.56851   7
   9  -3   6 10.9976 5.84614   2
 -10   3  -6 460.394 26.7415   5
  10  -3   6 459.994 26.6294   7
  10  -3   6 468.353 27.5059   2
  11  -3   6 39.4996 9.38993   2
  11  -3   6 26.6926 7.72003   7
  12  -3   6 1.93101 2.97610   4
  12  -3   6 4.05482 3.99257   7
  13  -3   6 45.5480 8.79319   6
  13  -3   6 47.3269 10.2544   7
  13  -3   6 51.7418 11.1690   4
  13  -3   6 65.6785 12.4840   2
  12   2  -6 24.5242 7.30099   6
  12   2  -6 30.9230 5.92045   4
  11   2  -6 1.60121 3.26249   6
  11   2  -6 6.27192 2.98299   4
  10   2  -6 6.94947 2.77597   4
  10   2  -6 4.54713 3.71079   6
   9   2  -6 29.1840 5.89665   4
   9   2  -6 29.1180 9.52637   6
   8   2  -6 3.78993 2.33500   4
   8   2  -6 3.26571 2.26824   6
  -8  -2   6 -0.6743 1.75271   3
   7   2  -6 101.460 9.95290   6
   7   2  -6 84.8299 7.80335   4
   6   2  -6 96.4216 7.74043   4
  -6  -2   6 93.6214 8.47628   3
   5   2  -6 209.996 12.7745   6
   5   2  -6 190.426 10.3846   4
  -5  -2   6 199.297 11.7513   3
   4   2  -6 1055.34 26.7465   4
   4   2  -6 1005.87 29.3071   6
  -4  -2   6 1050.60 29.2716   3
  -4  -2   6 1063.71 23.4557   7
  -4  -2   6 979.920 28.2281   4
   3   2  -6 11.4736 2.72674   6
   3   2  -6 13.6304 2.97554   4
   3   2  -6 10.4804 3.06280   8
  -3  -2   6 9.40340 2.90065   6
  -3  -2   6 11.8146 2.58864   7
  -3  -2   6 16.0739 3.78103   4
   2   2  -6 249.821 10.1587   4
   2   2  -6 246.678 10.8383   6
   2   2  -6 220.042 15.5492   8
  -2  -2   6 237.657 9.85626   7
  -2  -2   6 265.940 11.5374   2
  -2  -2   6 233.454 10.9776   4
   1   2  -6 10.0467 2.49955   6
   1   2  -6 6.58221 2.76701   8
   1   2  -6 8.10300 2.36426   4
  -1  -2   6 9.57604 3.34626   2
  -1  -2   6 9.22913 2.69767   6
  -1  -2   6 7.27380 2.32680   7
  -1  -2   6 3.79481 1.49996   4
   0   2  -6 188.230 10.7876   8
   0   2  -6 198.208 7.73866   6
   0   2  -6 194.026 8.34085   4
   0   2  -6 201.086 7.91604   5
   0  -2   6 197.455 8.92058   4
   0  -2   6 192.028 9.22194   6
   0  -2   6 180.499 11.1398   2
  -1   2  -6 1593.38 36.8273   8
  -1   2  -6 1574.11 33.0971   5
  -1   2  -6 1665.70 31.2605   6
   1  -2   6 1658.05 33.9526   4
   1  -2   6 1651.44 42.2863   2
   1  -2   6 1647.70 33.5365   6
  -2   2  -6 426.885 14.5504   5
  -2   2  -6 409.865 14.2560   8
  -2   2  -6 445.226 12.4041   6
   2  -2   6 413.358 19.3856   2
   2  -2   6 429.516 12.4485   6
  -3   2  -6 66.5127 4.79991   8
  -3   2  -6 55.6077 5.44411   5
  -3   2  -6 62.9715 4.67419   6
   3  -2   6 60.5686 5.16677   8
   3  -2   6 63.2672 4.03289   6
   3  -2   6 68.5299 4.98942   4
   3  -2   6 59.5045 4.76007   5
   3  -2   6 58.2670 7.61500   2
  -4   2  -6 83.6496 4.85582   8
  -4   2  -6 81.7624 7.27111   5
   4  -2   6 60.5131 8.78338   5
   4  -2   6 84.5452 5.61985   8
   4  -2   6 85.4689 4.71279   6
   4  -2   6 81.1170 9.38283   2
   4  -2   6 91.2512 5.96661   4
  -5   2  -6 706.149 24.8857   5
   5  -2   6 709.796 29.9587   2
   5  -2   6 735.931 17.5252   6
  -6   2  -6 217.836 14.1303   5
   6  -2   6 209.084 9.55346   6
   6  -2   6 220.725 16.7822   2
  -7   2  -6 146.991 12.4991   5
   7  -2   6 142.485 13.8408   2
   7  -2   6 119.299 6.83677   6
  -8   2  -6 14.4302 5.00146   5
   8  -2   6 15.2665 5.21801   2
   8  -2   6 29.1736 7.31246   7
  -9   2  -6 175.263 15.5017   5
   9  -2   6 165.026 15.9364   2
   9  -2   6 171.182 15.0511   7
 -10   2  -6 47.6269 9.21715   5
  10  -2   6 88.5344 14.1272   7
  10  -2   6 68.1274 12.0823   2
 -11   2  -6 48.1810 10.7539   5
  11  -2   6 78.0550 12.6404   7
  11  -2   6 69.1196 12.2895   2
  12  -2   6 98.5194 14.1979   4
  12  -2   6 51.5015 10.3572   7
  12  -2   6 87.6711 14.2119   2
  12  -2   6 73.0671 10.9419   6
  12   1  -6 74.7142 13.7804   6
  12   1  -6 58.9062 9.00529   4
  11   1  -6 20.1015 5.95616   6
  11   1  -6 27.1702 6.17097   4
  10   1  -6 37.5703 7.63607   6
  10   1  -6 53.6346 8.98618   4
   9   1  -6 50.5556 9.65849   6
   9   1  -6 58.8402 9.21054   4
   8   1  -6 156.960 13.3551   6
   8   1  -6 179.403 12.0722   4
   7   1  -6 8.48116 2.95185   4
   7   1  -6 5.18827 2.72431   6
   7   1  -6 11.8557 2.93595   7
  -7  -1   6 0.15794 1.67074   7
   6   1  -6 42.6798 8.06637   6
   6   1  -6 40.6574 4.34464   7
   6   1  -6 51.3949 5.65576   4
  -6  -1   6 42.6504 5.00630   3
  -6  -1   6 43.1524 4.38881   7
   5   1  -6 880.040 28.3497   6
   5   1  -6 824.893 24.7472   4
  -5  -1   6 828.203 21.8228   7
  -5  -1   6 844.413 23.7056   3
   4   1  -6 39.2909 4.50624   4
   4   1  -6 27.0950 4.74317   6
  -4  -1   6 31.1363 4.97955   4
  -4  -1   6 28.8184 3.48539   7
   3   1  -6 400.854 18.6098   8
   3   1  -6 435.858 16.1705   6
  -3  -1   6 394.043 13.7930   7
  -3  -1   6 398.311 15.4615   4
  -3  -1   6 379.430 16.8968   6
   2   1  -6 276.255 11.3958   6
   2   1  -6 271.659 10.7626   4
   2   1  -6 277.903 14.6064   8
  -2  -1   6 256.842 11.0087   7
  -2  -1   6 243.695 12.4850   4
  -2  -1   6 260.293 12.5856   6
  -2  -1   6 265.033 11.8890   2
   1   1  -6 430.356 13.5321   4
   1   1  -6 434.346 13.2891   6
   1   1  -6 429.645 17.3679   8
  -1  -1   6 430.038 15.1831   7
  -1  -1   6 428.098 14.4458   4
  -1  -1   6 425.434 16.9603   2
  -1  -1   6 418.080 15.2821   6
   0   1  -6 768.648 19.2545   4
   0   1  -6 765.362 17.4619   6
   0   1  -6 776.033 23.3160   8
   0   1  -6 755.220 18.5805   5
   0  -1   6 744.454 24.1668   8
   0  -1   6 752.780 19.9786   4
   0  -1   6 786.753 25.6348   2
   0  -1   6 758.571 20.2580   6
  -1   1  -6 64.5489 5.60202   8
  -1   1  -6 66.1164 4.79390   4
  -1   1  -6 63.0713 4.81898   5
  -1   1  -6 56.6010 3.50040   6
   1  -1   6 68.5731 4.86994   4
   1  -1   6 64.7267 6.11531   8
   1  -1   6 57.5961 4.30429   6
   1  -1   6 62.8396 7.15624   2
  -2   1  -6 4.45353 2.10427   8
  -2   1  -6 8.58972 2.52057   5
  -2   1  -6 7.24874 1.70591   6
   2  -1   6 7.09946 2.60221   8
   2  -1   6 5.04960 2.49596   2
   2  -1   6 6.35608 1.69181   6
   2  -1   6 5.84620 1.86766   4
  -3   1  -6 72.9949 6.34197   5
  -3   1  -6 75.5630 5.35018   8
   3  -1   6 69.1671 8.33691   2
   3  -1   6 71.8486 4.01848   6
   3  -1   6 63.8070 4.84482   4
   3  -1   6 78.7718 8.86800   3
   3  -1   6 71.7014 5.18482   5
   3  -1   6 78.8117 6.28772   8
  -4   1  -6 355.464 16.9330   5
  -4   1  -6 351.082 11.9180   8
   4  -1   6 370.828 10.0261   6
   4  -1   6 337.421 13.2471   8
   4  -1   6 352.263 26.6965   2
   4  -1   6 345.766 12.3859   4
  -5   1  -6 11.3278 3.77584   5
   5  -1   6 12.1224 2.15425   6
   5  -1   6 13.1277 5.35002   2
   5  -1   6 14.3272 3.13397   8
  -6   1  -6 192.366 13.3635   5
   6  -1   6 184.710 9.05539   8
   6  -1   6 178.223 7.33948   6
   6  -1   6 177.009 15.3160   2
  -7   1  -6 199.234 14.8569   5
   7  -1   6 197.408 9.36837   8
   7  -1   6 183.909 16.2025   2
   7  -1   6 192.269 9.09683   6
  -8   1  -6 11.4367 4.48855   5
   8  -1   6 6.68783 4.31610   2
   8  -1   6 11.9597 4.42456   7
   8  -1   6 9.99505 3.07203   6
  -9   1  -6 159.864 19.4599   5
   9  -1   6 159.897 16.4080   2
   9  -1   6 178.386 15.0472   7
 -10   1  -6 -5.7063 3.15662   5
  10  -1   6 2.18340 4.17227   2
  10  -1   6 2.03012 2.47437   7
 -11   1  -6 10.7254 5.19247   5
  11  -1   6 14.7821 4.94973   6
  11  -1   6 20.9393 6.79828   2
  11  -1   6 11.0661 4.74604   7
  11  -1   6 14.5325 5.10534   4
  12  -1   6 2.09558 4.30433   7
  12  -1   6 8.89281 4.51028   4
  12  -1   6 2.51950 5.33738   2
  13   0  -6 2.24528 3.32052   4
  13   0  -6 0.45663 3.24366   6
  12   0  -6 187.584 17.7080   6
  12   0  -6 192.373 15.0064   4
  11   0  -6 9.82584 4.31234   4
  11   0  -6 14.2646 4.23835   7
  11   0  -6 18.8876 7.27946   6
  10   0  -6 17.8958 5.90347   6
  10   0  -6 19.0979 5.07445   4
   9   0  -6 51.6852 6.99070   7
   9   0  -6 51.0907 9.92202   6
   9   0  -6 51.1656 7.79396   4
   8   0  -6 236.189 16.7999   6
   8   0  -6 242.121 12.3448   7
   8   0  -6 268.989 15.1793   4
  -8   0   6 203.046 11.4086   7
   7   0  -6 39.8783 4.93313   7
   7   0  -6 42.3442 6.75543   4
   7   0  -6 24.9974 6.43022   6
  -7   0   6 40.9788 4.99681   7
   6   0  -6 713.698 22.1152   7
   6   0  -6 704.213 23.9226   4
   6   0  -6 719.252 27.2190   6
  -6   0   6 730.897 21.9565   7
   5   0  -6 2.16850 1.80788   6
   5   0  -6 6.36311 2.67120   7
   5   0  -6 5.20656 2.19262   4
  -5   0   6 7.63439 2.56527   7
   4   0  -6 672.849 23.0235   6
   4   0  -6 705.069 21.2538   7
   4   0  -6 695.819 21.3162   4
   4   0  -6 717.064 27.9642   8
  -4   0   6 664.251 20.1405   7
  -4   0   6 664.085 22.3568   4
   3   0  -6 300.171 15.5794   8
   3   0  -6 297.835 12.2816   4
   3   0  -6 297.275 13.2434   6
  -3   0   6 308.578 13.6072   4
  -3   0   6 306.872 12.7263   7
  -3   0   6 324.667 12.5820   2
   2   0  -6 188.646 8.95748   4
   2   0  -6 192.387 9.32199   6
   2   0  -6 171.693 11.2579   8
  -2   0   6 172.007 9.96585   6
  -2   0   6 184.610 10.4955   2
  -2   0   6 183.805 9.63221   7
   1   0  -6 349.215 11.4296   6
   1   0  -6 329.833 15.0737   8
   1   0  -6 347.341 11.9752   4
  -1   0   6 366.281 16.6981   8
  -1   0   6 351.578 15.9109   2
  -1   0   6 358.620 13.1225   4
  -1   0   6 350.669 13.4842   6
  -1   0   6 350.096 14.0574   7
   0   0  -6 810.781 17.2616   6
   0   0  -6 770.357 19.4527   5
   0   0  -6 762.231 23.5324   8
   0   0  -6 780.653 19.4351   4
   0   0   6 766.251 20.4225   4
   0   0   6 754.009 22.1520   6
   0   0   6 778.979 23.2481   7
   0   0   6 794.611 25.2444   8
   0   0   6 777.997 26.4109   3
   0   0   6 830.355 27.2108   2
  -1   0  -6 321.802 11.7804   5
  -1   0  -6 317.794 13.4543   8
  -1   0  -6 329.925 11.2014   4
  -1   0  -6 318.428 8.49825   6
   1   0   6 313.822 11.3875   4
   1   0   6 314.204 10.4256   6
   1   0   6 309.338 16.8811   3
   1   0   6 295.812 14.1963   8
   1   0   6 336.034 17.4034   2
  -2   0  -6 520.486 17.0375   5
  -2   0  -6 537.287 12.7621   6
  -2   0  -6 524.650 17.3501   8
   2   0   6 530.349 15.5061   4
   2   0   6 543.383 23.7397   2
   2   0   6 537.393 13.3894   6
   2   0   6 550.011 24.2210   3
   2   0   6 538.059 19.0707   8
  -3   0  -6 9.09635 2.73303   5
  -3   0  -6 8.76673 2.29857   8
   3   0   6 9.41268 2.48601   4
   3   0   6 9.58042 1.71588   6
   3   0   6 7.16888 3.67283   2
   3   0   6 15.6557 3.93308   8
   3   0   6 3.73199 3.11504   3
  -4   0  -6 213.232 12.1600   5
  -4   0  -6 197.979 9.58324   8
   4   0   6 217.018 16.1369   2
   4   0   6 215.447 9.33096   4
   4   0   6 214.689 6.61934   6
   4   0   6 209.758 11.0385   8
  -5   0  -6 426.647 19.1124   5
   5   0   6 417.279 23.7417   2
   5   0   6 418.410 12.2000   6
   5   0   6 417.962 16.1977   8
  -6   0  -6 12.5307 4.35998   5
   6   0   6 14.2943 4.97467   2
   6   0   6 14.6930 3.54793   8
   6   0   6 10.2698 1.94520   6
  -7   0  -6 53.8369 9.94956   5
   7   0   6 47.0452 9.67309   2
   7   0   6 42.4254 6.29140   8
   7   0   6 42.3847 3.40075   6
  -8   0  -6 352.379 21.3230   5
   8   0   6 330.547 12.1232   6
   8   0   6 355.322 24.0930   2
   8   0   6 328.450 14.6606   8
  -9   0  -6 4.13728 2.99972   5
   9   0   6 -3.5958 2.07692   7
   9   0   6 -1.3600 3.08480   2
   9   0   6 4.68133 3.35076   6
 -10   0  -6 113.084 12.9528   5
  10   0   6 128.116 13.6014   7
  10   0   6 136.078 15.5079   2
  10   0   6 123.470 9.87037   6
 -11   0  -6 11.6152 5.56310   5
  11   0   6 8.69195 5.42347   2
  11   0   6 11.1789 4.04674   4
  11   0   6 20.7217 5.92604   7
  12   0   6 60.0215 9.13598   4
  12   0   6 64.2400 11.4032   7
  12   0   6 95.9005 15.4272   2
  13  -1  -6 35.1504 9.75363   4
  13  -1  -6 43.9942 10.2652   6
  12  -1  -6 242.627 13.9924   7
  12  -1  -6 231.566 19.9068   6
  12  -1  -6 184.377 15.5438   4
  11  -1  -6 132.916 12.5218   4
  11  -1  -6 107.362 9.56751   7
  11  -1  -6 107.308 16.8501   6
  10  -1  -6 170.770 17.4559   4
  10  -1  -6 186.234 16.4902   6
  10  -1  -6 192.171 12.5705   7
   9  -1  -6 196.221 13.6881   4
   9  -1  -6 175.692 15.2749   6
   9  -1  -6 175.483 11.7173   7
   8  -1  -6 10.4480 4.94653   6
   8  -1  -6 15.4391 4.99476   7
   8  -1  -6 17.5077 4.68425   4
   7  -1  -6 552.512 22.3013   4
   7  -1  -6 594.182 26.0556   6
   7  -1  -6 570.839 21.0042   7
  -7   1   6 558.137 20.3419   7
   6  -1  -6 0.27655 1.36337   7
   6  -1  -6 -0.2261 1.21856   4
   6  -1  -6 -0.3290 1.45578   6
  -6   1   6 -0.3706 1.69561   7
   5  -1  -6 190.657 11.1139   7
   5  -1  -6 213.520 11.7679   4
   5  -1  -6 221.635 13.4367   6
  -5   1   6 187.907 12.2105   7
   4  -1  -6 2629.91 56.5107   6
   4  -1  -6 2664.69 55.0479   7
   4  -1  -6 2494.62 65.4718   8
   4  -1  -6 2605.42 53.7003   4
  -4   1   6 2569.65 53.4606   7
  -4   1   6 2657.92 62.6311   8
   3  -1  -6 78.2060 6.66903   6
   3  -1  -6 75.8841 7.69458   8
  -3   1   6 79.8064 6.63367   7
  -3   1   6 86.3806 8.81885   8
  -3   1   6 87.9860 7.04439   4
   2  -1  -6 2994.73 55.9683   6
   2  -1  -6 2964.99 55.8302   4
   2  -1  -6 3024.86 63.1208   8
  -2   1   6 3024.12 60.2491   3
  -2   1   6 2938.92 65.0100   8
  -2   1   6 2752.49 61.6871   4
  -2   1   6 2945.00 59.0461   7
   1  -1  -6 400.343 13.2115   4
   1  -1  -6 407.869 16.9026   8
   1  -1  -6 408.435 12.2077   6
  -1   1   6 388.346 17.0076   3
  -1   1   6 404.277 18.2506   8
  -1   1   6 394.299 14.2187   4
  -1   1   6 398.139 15.9266   7
   0  -1  -6 47.4715 5.45270   8
   0  -1  -6 52.7604 3.13112   6
   0  -1  -6 63.8664 4.68545   4
   0   1   6 48.2309 6.23123   3
   0   1   6 50.1273 4.46336   4
   0   1   6 49.2412 6.17980   8
   0   1   6 48.1072 7.71963   7
  -1  -1  -6 3.01482 1.60038   5
  -1  -1  -6 3.15931 2.27532   8
  -1  -1  -6 4.74609 1.74928   4
  -1  -1  -6 4.50124 1.05992   6
   1   1   6 4.63561 1.39143   6
   1   1   6 2.13752 1.85685   8
   1   1   6 3.13492 1.90452   7
   1   1   6 6.24424 2.70232   3
  -2  -1  -6 111.363 7.77871   8
  -2  -1  -6 124.025 7.83337   5
   2   1   6 114.327 6.50037   4
   2   1   6 113.627 8.68993   8
   2   1   6 101.880 10.3097   3
  -3  -1  -6 199.349 11.2724   5
  -3  -1  -6 198.754 10.3891   8
   3   1   6 186.602 11.3265   8
  -4  -1  -6 452.698 16.5228   8
  -4  -1  -6 459.498 18.8254   5
   4   1   6 455.462 14.4171   4
   4   1   6 475.264 25.2462   2
   4   1   6 456.542 18.3168   8
  -5  -1  -6 293.722 16.0867   5
   5   1   6 297.727 13.3959   4
   5   1   6 309.073 14.9713   8
   5   1   6 339.017 21.8027   2
  -6  -1  -6 31.3500 7.14915   5
   6   1   6 28.9526 7.48651   2
   6   1   6 20.4749 4.62020   8
  -7  -1  -6 82.2822 9.46873   5
   7   1   6 57.5708 6.60489   8
   7   1   6 55.4964 10.4475   2
  -8  -1  -6 183.298 15.3317   5
   8   1   6 175.798 11.5611   8
   8   1   6 205.494 19.1712   2
  -9  -1  -6 213.115 17.7953   5
   9   1   6 249.451 18.1121   7
   9   1   6 239.206 13.8487   8
 -10  -1  -6 24.4383 7.39217   5
  10   1   6 34.2203 9.26177   2
  10   1   6 28.8604 6.01599   4
  10   1   6 21.5361 6.43352   7
 -11  -1  -6 15.7248 6.54591   5
  11   1   6 17.9222 5.62941   4
  11   1   6 18.0244 8.14989   2
  11   1   6 19.3207 6.59381   7
  13  -2  -6 4.81714 5.65031   7
  13  -2  -6 -1.3908 3.80362   6
  13  -2  -6 13.6421 7.10010   4
  12  -2  -6 2.80081 3.47179   4
  12  -2  -6 1.22665 3.56659   6
  12  -2  -6 1.23311 2.45282   7
  11  -2  -6 7.27517 3.40611   4
  11  -2  -6 1.42094 3.46624   6
  11  -2  -6 3.23202 2.77571   7
  10  -2  -6 7.74711 5.76960   4
  10  -2  -6 7.36039 3.13569   7
  10  -2  -6 4.85150 3.44950   6
   9  -2  -6 81.8067 13.3459   6
   9  -2  -6 81.3508 8.43393   7
   9  -2  -6 72.4434 8.70954   4
   8  -2  -6 281.130 18.6356   6
   8  -2  -6 251.676 14.7385   7
   8  -2  -6 275.114 16.1817   4
   7  -2  -6 175.868 12.2011   4
   7  -2  -6 168.424 11.6158   7
   7  -2  -6 156.262 13.1827   6
   6  -2  -6 32.6260 7.23037   7
   6  -2  -6 37.7575 6.37219   4
   6  -2  -6 26.7861 5.83970   6
   5  -2  -6 531.024 19.7912   4
   5  -2  -6 567.778 29.0554   6
   5  -2  -6 510.587 19.9886   7
  -5   2   6 516.722 24.1937   8
  -5   2   6 523.380 19.6836   7
   4  -2  -6 1067.31 30.6390   7
   4  -2  -6 1014.32 29.8829   6
  -4   2   6 996.533 28.7819   7
   3  -2  -6 61.7866 7.01923   8
   3  -2  -6 89.1195 6.98433   6
   3  -2  -6 63.9706 5.75234   4
   3  -2  -6 76.0056 7.18583   7
  -3   2   6 75.0560 6.86407   7
  -3   2   6 75.2501 6.46171   3
  -3   2   6 81.7705 8.77833   8
  -3   2   6 79.8328 6.81844   4
   2  -2  -6 986.293 30.2079   8
   2  -2  -6 1046.86 25.6399   4
   2  -2  -6 1058.07 25.3828   6
  -2   2   6 993.305 28.1005   3
  -2   2   6 1011.77 27.2015   4
  -2   2   6 1001.97 28.7811   7
   1  -2  -6 54.4201 3.94037   6
   1  -2  -6 56.6068 4.69505   4
   1  -2  -6 49.4573 5.87065   8
  -1   2   6 60.4655 7.05223   8
  -1   2   6 67.2218 6.96272   3
  -1   2   6 51.3318 4.83514   4
  -1   2   6 54.1751 5.78891   7
   0  -2  -6 72.1805 4.98386   4
   0  -2  -6 83.4290 7.19269   8
   0   2   6 72.3160 5.54848   4
   0   2   6 80.1464 7.98064   8
   0   2   6 69.8722 8.04794   3
   0   2   6 69.2099 6.78797   7
  -1  -2  -6 485.617 16.0157   5
  -1  -2  -6 492.982 14.2858   4
  -1  -2  -6 482.827 18.3335   8
   1   2   6 504.934 20.5638   8
   1   2   6 492.793 22.8879   3
   1   2   6 478.729 15.1973   4
   1   2   6 487.887 19.4742   7
  -2  -2  -6 1.47523 1.49052   8
   2   2   6 -0.2166 1.09039   8
   2   2   6 -0.0338 1.12517   4
  -3  -2  -6 584.494 20.4980   8
  -3  -2  -6 587.192 20.7215   5
   3   2   6 598.008 22.5988   8
   3   2   6 596.585 16.8397   4
  -4  -2  -6 791.216 25.5318   8
  -4  -2  -6 806.071 26.6794   5
   4   2   6 830.150 27.7779   8
   4   2   6 802.366 20.7702   4
  -5  -2  -6 212.933 13.7625   5
   5   2   6 211.325 18.0631   2
   5   2   6 204.521 9.33295   4
   5   2   6 204.613 13.1880   8
  -6  -2  -6 96.1333 9.91815   5
   6   2   6 100.830 9.39270   8
   6   2   6 114.481 13.6564   2
  -7  -2  -6 3.68840 3.22233   5
   7   2   6 10.8441 5.78280   2
   7   2   6 5.06145 2.73607   8
   8   2   6 8.00668 5.96328   2
   8   2   6 1.92948 2.70725   8
  -9  -2  -6 110.815 13.0281   5
   9   2   6 129.311 14.2333   7
   9   2   6 112.732 10.1459   8
   9   2   6 114.579 15.1448   2
   9   2   6 126.330 10.2853   4
 -10  -2  -6 3.76739 4.36299   5
  10   2   6 -4.8821 3.77577   2
  10   2   6 -2.0659 3.72965   7
  10   2   6 2.79771 3.52990   8
  10   2   6 3.10738 3.22633   4
  11   2   6 39.5872 8.45314   7
  11   2   6 40.5896 12.0842   2
  13  -3  -6 -3.4199 3.01006   4
  13  -3  -6 4.68780 4.50293   6
  13  -3  -6 4.02631 3.26355   7
  12  -3  -6 0.13124 3.77024   6
  12  -3  -6 4.85624 3.03609   4
  11  -3  -6 13.2179 5.00718   4
  11  -3  -6 8.94995 4.01647   7
  11  -3  -6 15.0967 6.25347   6
  10  -3  -6 3.15276 2.88495   4
  10  -3  -6 0.96326 2.33030   6
  10  -3  -6 -3.6383 1.66545   7
   9  -3  -6 418.050 20.8892   7
   9  -3  -6 447.755 22.1534   4
   9  -3  -6 373.489 23.3957   6
   8  -3  -6 317.195 17.4466   7
   8  -3  -6 307.315 17.4550   4
   8  -3  -6 273.736 18.6935   6
   7  -3  -6 37.6294 7.10338   4
   7  -3  -6 40.5839 8.54520   6
   7  -3  -6 23.8073 5.16223   7
   6  -3  -6 19.1693 5.35872   6
   6  -3  -6 22.4482 5.53017   7
   6  -3  -6 20.0343 5.22473   4
  -6   3   6 26.2715 6.56914   8
   5  -3  -6 14.3629 3.85092   7
   5  -3  -6 21.4338 4.95690   4
  -5   3   6 23.7542 4.76169   2
  -5   3   6 27.2491 6.75240   8
   4  -3  -6 246.999 12.4221   4
   4  -3  -6 206.424 13.9794   7
   4  -3  -6 236.703 12.9852   6
  -4   3   6 263.712 16.4766   8
   3  -3  -6 69.0054 6.09565   4
   3  -3  -6 61.6474 7.52890   7
   3  -3  -6 69.4550 6.24494   6
  -3   3   6 49.8506 5.12272   3
  -3   3   6 65.8234 6.36689   4
  -3   3   6 54.7019 10.3725   8
   2  -3  -6 58.9935 5.20377   4
   2  -3  -6 62.8875 5.13717   6
  -2   3   6 64.2329 6.55321   3
  -2   3   6 67.6954 6.19377   4
  -2   3   6 59.9869 7.70558   8
   1  -3  -6 1212.33 24.5038   6
   1  -3  -6 1238.23 49.5094   8
   1  -3  -6 1166.46 27.0462   4
  -1   3   6 1182.03 35.2211   3
  -1   3   6 1179.28 30.0584   4
  -1   3   6 1207.68 36.8274   8
   0  -3  -6 2.45495 1.21480   4
   0  -3  -6 2.14833 1.60271   5
   0   3   6 2.79282 1.34609   4
   0   3   6 1.02970 1.89186   3
   0   3   6 2.64414 1.92545   8
  -1  -3  -6 275.809 10.0295   4
  -1  -3  -6 273.896 14.2821   5
   1   3   6 281.977 11.2390   4
   1   3   6 262.195 18.3237   8
   1   3   6 274.711 20.4002   3
  -2  -3  -6 3.41644 2.29733   5
   2   3   6 4.58482 1.74916   4
   2   3   6 -0.2923 1.70442   8
  -3  -3  -6 8.01349 3.08327   5
   3   3   6 14.9250 4.40302   8
   3   3   6 5.79255 1.92609   4
  -4  -3  -6 538.598 21.5808   5
   4   3   6 557.975 23.5208   8
  -5  -3  -6 1.11692 2.20272   5
   5   3   6 0.87529 2.26468   8
   5   3   6 -0.4151 1.51361   4
  -6  -3  -6 13.6642 4.49143   5
   6   3   6 20.8368 7.61737   2
   6   3   6 25.9859 4.24375   4
   6   3   6 16.4335 4.70029   8
  -7  -3  -6 191.415 15.4443   5
   7   3   6 197.783 14.4526   8
   7   3   6 194.413 19.1147   2
  -8  -3  -6 6.81739 3.28666   5
   8   3   6 -0.9293 2.72562   8
   8   3   6 -2.8813 2.03947   4
   8   3   6 4.24224 3.69143   2
  -9  -3  -6 255.040 19.6836   5
   9   3   6 220.841 13.0544   4
   9   3   6 229.965 22.1258   2
   9   3   6 249.331 16.5031   8
   9   3   6 245.124 17.5513   7
 -10  -3  -6 9.13500 6.03425   5
  10   3   6 18.2981 6.52088   7
  10   3   6 26.3709 9.53022   2
  13  -4  -6 64.4842 13.3879   6
  13  -4  -6 49.1140 10.7068   4
  13  -4  -6 57.9736 10.4413   7
  12  -4  -6 12.7830 4.39326   7
  12  -4  -6 2.67094 3.21580   4
  12  -4  -6 6.83156 3.83814   6
  11  -4  -6 4.16014 3.25954   7
  11  -4  -6 -3.4855 2.36158   4
  11  -4  -6 -1.5586 3.21228   6
  10  -4  -6 33.0366 7.27188   4
  10  -4  -6 43.1389 10.1537   6
  10  -4  -6 28.8608 6.54096   7
   9  -4  -6 47.0971 11.0274   6
   9  -4  -6 31.8425 7.63644   7
   9  -4  -6 16.6574 5.11260   4
   8  -4  -6 94.1652 10.8410   6
   8  -4  -6 119.820 10.8553   4
   8  -4  -6 105.449 10.5573   7
   7  -4  -6 34.3985 7.36504   7
   7  -4  -6 25.7776 5.59473   4
   7  -4  -6 25.2311 5.97266   6
  -7   4   6 32.5471 8.07452   8
   6  -4  -6 674.353 24.6251   4
   6  -4  -6 689.223 27.2966   6
   6  -4  -6 681.543 26.8080   7
  -6   4   6 697.118 30.0617   8
  -6   4   6 642.350 21.3136   2
   5  -4  -6 611.579 21.8066   4
   5  -4  -6 596.622 24.3222   7
  -5   4   6 555.571 20.7698   2
  -5   4   6 550.734 25.9542   8
   4  -4  -6 3.31405 2.67924   7
   4  -4  -6 5.32032 2.36428   4
   4  -4  -6 5.82794 2.94783   6
  -4   4   6 0.96441 2.51935   8
   3  -4  -6 259.491 12.3702   6
   3  -4  -6 273.442 12.2547   4
   3  -4  -6 265.633 15.3347   7
  -3   4   6 256.122 12.4260   3
  -3   4   6 252.644 15.6075   4
  -3   4   6 251.394 16.2553   8
   2  -4  -6 71.8941 5.77117   4
   2  -4  -6 69.6885 5.40585   6
  -2   4   6 74.2260 6.43355   4
  -2   4   6 78.3938 7.69477   3
  -2   4   6 64.8368 8.11658   8
   1  -4  -6 994.044 23.7139   4
   1  -4  -6 1012.90 34.3641   3
  -1   4   6 940.336 36.4617   3
  -1   4   6 984.050 33.7761   8
   0  -4  -6 161.975 13.8435   3
   0  -4  -6 173.708 7.77597   4
   0  -4  -6 167.527 9.08250   5
   0   4   6 159.932 8.85151   4
   0   4   6 156.302 12.8858   3
  -1  -4  -6 1.49966 1.34976   5
  -1  -4  -6 1.57789 1.98467   3
   1   4   6 1.09040 1.72368   8
  -2  -4  -6 12.2748 4.94931   3
  -2  -4  -6 24.2160 4.98278   5
   2   4   6 19.6206 3.46865   4
   2   4   6 20.8900 5.48863   8
  -3  -4  -6 4.30446 3.29572   3
  -3  -4  -6 7.43286 2.99399   5
   3   4   6 3.70057 2.18048   8
   3   4   6 2.58463 1.52404   4
  -4  -4  -6 2.90307 3.80628   3
  -4  -4  -6 -0.2519 1.73477   5
   4   4   6 -0.5030 1.76809   8
   4   4   6 5.06700 1.57164   4
  -5  -4  -6 574.187 24.5468   5
   5   4   6 583.258 26.4675   8
   5   4   6 563.115 16.3924   4
  -6  -4  -6 -1.0926 2.13053   5
   6   4   6 2.06880 2.51652   8
  -7  -4  -6 73.8478 15.9900   5
   7   4   6 56.3634 10.1994   8
   7   4   6 70.3635 14.3942   2
  -8  -4  -6 45.5324 10.3108   5
   8   4   6 59.9666 13.0598   2
  -9  -4  -6 -0.6654 4.16943   5
   9   4   6 2.33096 5.95818   2
   9   4   6 8.68970 4.50711   8
   9   4   6 1.79052 4.55331   7
  13  -5  -6 0.78133 4.16633   7
  13  -5  -6 -1.2236 3.08817   4
  13  -5  -6 14.7422 6.47983   6
  12  -5  -6 129.351 15.7557   6
  12  -5  -6 146.071 14.0471   7
  12  -5  -6 159.396 14.8504   4
  11  -5  -6 23.4363 7.16690   7
  11  -5  -6 24.4960 7.21465   4
  11  -5  -6 34.8580 9.68839   6
  10  -5  -6 30.5613 6.87820   7
  10  -5  -6 19.0640 6.57264   4
  10  -5  -6 39.9095 9.79918   6
   9  -5  -6 506.479 27.7202   6
   9  -5  -6 527.020 25.1568   4
   9  -5  -6 549.522 26.2825   7
   8  -5  -6 -1.7959 1.41401   6
   8  -5  -6 -1.8519 1.90683   4
   8  -5  -6 2.23619 2.08629   7
  -8   5   6 -3.2755 1.69873   8
   7  -5  -6 295.963 18.4785   6
   7  -5  -6 288.780 18.0818   7
   7  -5  -6 314.072 17.2003   4
  -7   5   6 288.859 19.5746   8
   6  -5  -6 43.1267 8.41474   7
   6  -5  -6 30.7303 5.67405   4
   6  -5  -6 28.6892 5.90568   6
  -6   5   6 30.0039 6.77943   8
  -6   5   6 52.2857 7.85768   2
   5  -5  -6 14.1525 3.62372   4
   5  -5  -6 17.6130 5.06486   6
   5  -5  -6 20.0071 5.78953   7
  -5   5   6 6.99117 3.68452   8
  -5   5   6 16.4154 4.65367   2
   4  -5  -6 509.459 19.0101   4
   4  -5  -6 532.875 20.5322   6
   4  -5  -6 539.870 23.8740   7
  -4   5   6 531.794 25.5519   8
   3  -5  -6 298.878 13.3864   6
   3  -5  -6 322.435 17.8579   7
  -3   5   6 283.645 14.2384   3
  -3   5   6 304.996 18.7368   8
   2  -5  -6 1.41068 1.97947   3
   2  -5  -6 1.43503 1.37583   6
   2  -5  -6 -0.9130 1.02393   4
  -2   5   6 3.13535 2.58548   3
  -2   5   6 2.24315 2.72398   8
  -2   5   6 -1.3089 1.45063   4
   1  -5  -6 99.9022 10.7795   3
   1  -5  -6 100.664 6.16230   4
  -1   5   6 101.934 10.6077   8
  -1   5   6 86.0317 9.94318   3
  -1   5   6 105.738 7.64227   4
   0  -5  -6 297.129 12.8111   5
   0  -5  -6 305.485 10.5880   4
   0  -5  -6 331.542 21.1263   3
   0   5   6 291.172 17.9565   8
   0   5   6 274.992 12.0806   4
  -1  -5  -6 1.99012 1.68553   5
  -1  -5  -6 -2.1634 1.77089   3
   1   5   6 -1.5067 1.03846   4
   1   5   6 -2.4406 1.32090   8
  -2  -5  -6 87.8729 7.60345   5
  -2  -5  -6 63.1160 11.0695   3
   2   5   6 76.2115 9.04828   8
   2   5   6 85.0881 5.89452   4
  -3  -5  -6 11.2292 3.59709   5
  -3  -5  -6 24.5535 8.35949   3
   3   5   6 17.8513 5.31578   8
   3   5   6 20.8766 3.46214   4
  -4  -5  -6 85.1141 16.9025   3
  -4  -5  -6 67.5205 7.93867   5
   4   5   6 89.4274 10.4649   8
  -5  -5  -6 195.354 21.3088   3
  -5  -5  -6 192.968 14.0672   5
   5   5   6 192.732 15.8347   8
  -6  -5  -6 31.0673 7.19799   5
   6   5   6 27.5090 6.82438   8
  -7  -5  -6 10.8733 4.28232   5
   7   5   6 9.99871 3.92001   8
   7   5   6 14.2717 8.66325   2
  -8  -5  -6 23.6578 6.92369   5
   8   5   6 17.2540 6.59097   8
   8   5   6 25.2360 8.34596   2
  -9  -5  -6 -2.0226 4.63485   5
   9   5   6 -0.8688 5.78117   2
   9   5   6 -2.4227 5.16910   7
   9   5   6 4.84210 5.37441   8
  13  -6  -6 5.38083 5.49092   6
  13  -6  -6 -0.3980 3.33692   4
  13  -6  -6 0.99161 4.91555   7
  12  -6  -6 258.676 19.5406   4
  12  -6  -6 259.300 22.8230   6
  12  -6  -6 263.223 19.8972   7
  11  -6  -6 6.20622 4.80058   6
  11  -6  -6 12.7529 5.24071   7
  11  -6  -6 11.4203 4.23959   4
  10  -6  -6 29.2698 8.43908   6
  10  -6  -6 22.9312 6.32432   7
  10  -6  -6 30.8927 6.79076   4
   9  -6  -6 62.5816 10.9955   7
   9  -6  -6 40.1354 7.90641   6
   9  -6  -6 43.8468 12.3087   4
   8  -6  -6 69.4849 12.1498   7
   8  -6  -6 49.4755 9.89438   6
   8  -6  -6 46.1387 8.99293   4
  -8   6   6 79.3885 13.1820   8
   7  -6  -6 877.934 34.0339   7
   7  -6  -6 790.684 29.0122   4
  -7   6   6 734.311 33.5207   8
   6  -6  -6 218.912 15.9285   7
   6  -6  -6 249.105 14.4370   4
  -6   6   6 255.465 18.6871   8
   5  -6  -6 33.4283 7.52243   7
   5  -6  -6 36.3862 6.33681   4
  -5   6   6 29.1732 7.85806   8
   4  -6  -6 131.586 9.62048   6
   4  -6  -6 128.910 9.14089   4
   4  -6  -6 122.186 11.6072   7
  -4   6   6 126.766 12.7369   8
   3  -6  -6 8.18975 3.84776   3
   3  -6  -6 7.12956 2.51841   6
   3  -6  -6 3.55531 2.16962   4
   3  -6  -6 4.48102 2.73527   7
  -3   6   6 6.95102 4.09523   8
  -3   6   6 2.44870 2.22403   3
   2  -6  -6 106.237 6.83342   4
   2  -6  -6 121.720 12.2892   3
  -2   6   6 95.9987 7.47702   4
  -2   6   6 109.138 11.6139   8
   1  -6  -6 453.514 24.9101   3
   1  -6  -6 449.935 13.9117   4
  -1   6   6 405.349 22.8497   8
  -1   6   6 409.057 15.9493   4
   0  -6  -6 0.18779 1.11191   4
   0  -6  -6 2.17008 1.68151   5
   0  -6  -6 -0.0536 2.60147   3
   0   6   6 3.09773 1.71265   4
   0   6   6 0.93110 2.25617   8
  -1  -6  -6 216.071 18.9987   3
  -1  -6  -6 186.781 10.9912   5
   1   6   6 175.235 8.66485   4
   1   6   6 183.795 15.3345   8
  -2  -6  -6 16.4577 6.48447   3
  -2  -6  -6 29.9677 5.59711   5
   2   6   6 36.0818 8.41461   8
  -3  -6  -6 34.6230 10.8531   3
  -3  -6  -6 29.7126 5.76521   5
   3   6   6 42.7653 9.52934   8
  -4  -6  -6 265.306 16.0144   5
  -4  -6  -6 282.098 25.4957   3
   4   6   6 258.936 19.1453   8
  -5  -6  -6 -4.5113 2.25948   5
  -5  -6  -6 -0.5871 4.03467   3
   5   6   6 -0.0508 2.72962   8
  -6  -6  -6 103.937 10.8098   5
   6   6   6 106.328 15.6905   8
  -7  -6  -6 6.52484 3.20206   5
   7   6   6 0.39940 3.18210   8
  -8  -6  -6 5.75172 4.74544   5
   8   6   6 2.34308 5.14699   8
   8   6   6 5.40837 5.98965   2
  13  -7  -6 62.3108 13.0617   4
  13  -7  -6 51.8799 10.9431   7
  13  -7  -6 76.2701 15.3486   6
  12  -7  -6 1.44116 3.78169   4
  12  -7  -6 -0.3451 3.43775   7
  12  -7  -6 9.72254 5.00119   6
  11  -7  -6 579.999 30.8985   7
  11  -7  -6 595.437 29.7353   4
  11  -7  -6 563.374 32.4647   6
  10  -7  -6 3.58824 3.00691   4
  10  -7  -6 3.66645 2.92323   7
  10  -7  -6 5.41646 3.57155   6
   9  -7  -6 41.1978 9.89844   7
   9  -7  -6 34.7578 8.14938   4
  -9   7   6 57.7713 11.6276   8
   8  -7  -6 516.458 27.4634   7
   8  -7  -6 534.360 24.5328   4
  -8   7   6 536.265 28.9951   8
   7  -7  -6 30.6129 6.73777   7
   7  -7  -6 47.4968 7.77588   4
  -7   7   6 52.5004 9.53588   8
   6  -7  -6 270.982 18.5751   7
   6  -7  -6 268.835 15.1281   4
  -6   7   6 254.908 19.0162   8
   5  -7  -6 51.1670 9.43774   7
   5  -7  -6 37.7383 6.16287   4
  -5   7   6 60.5946 11.5704   8
   4  -7  -6 10.0503 3.42155   6
   4  -7  -6 12.1098 4.09137   3
   4  -7  -6 13.0780 3.48233   4
   4  -7  -6 14.2053 4.59599   7
  -4   7   6 12.5098 4.89224   8
   2  -7  -6 5.68662 4.27083   3
   2  -7  -6 6.67036 2.28398   4
  -2   7   6 6.46800 2.59302   4
  -2   7   6 12.5877 4.95410   8
   1  -7  -6 30.5570 4.78009   5
   1  -7  -6 31.4097 8.40887   3
  -1   7   6 18.1870 5.44346   8
  -1   7   6 33.0033 5.04083   4
   0  -7  -6 19.3868 6.38607   3
   0  -7  -6 22.7780 4.75210   5
   0   7   6 34.4852 8.71500   8
   0   7   6 22.6696 3.99681   4
  -1  -7  -6 202.813 19.4963   3
  -1  -7  -6 211.928 12.2807   5
   1   7   6 226.410 17.8486   8
  -2  -7  -6 79.3325 14.4885   3
  -2  -7  -6 99.9774 8.89806   5
   2   7   6 99.7431 11.8229   8
  -3  -7  -6 48.8907 8.10386   5
  -3  -7  -6 42.2773 11.4893   3
   3   7   6 52.7808 9.96262   8
  -4  -7  -6 3.67965 2.94139   5
  -4  -7  -6 8.57172 6.05101   3
   4   7   6 5.40746 4.75270   8
  -5  -7  -6 124.601 21.2468   3
   5   7   6 103.442 13.1159   8
  -6  -7  -6 61.6240 15.8451   3
   6   7   6 63.6507 12.7938   8
   7   7   6 53.1968 13.8128   8
  12  -8  -6 6.99359 6.44268   6
  12  -8  -6 7.50933 3.99156   4
  11  -8  -6 117.372 14.2932   7
  11  -8  -6 129.955 15.4473   6
  11  -8  -6 123.683 13.2607   4
  10  -8  -6 19.1021 6.50296   4
  10  -8  -6 16.2341 6.21723   7
  10  -8  -6 44.1663 10.5635   6
   9  -8  -6 49.1041 10.8357   7
   9  -8  -6 37.8406 7.50112   4
  -9   8   6 50.9717 11.0048   8
   8  -8  -6 68.9472 13.7700   4
   8  -8  -6 66.8296 11.8016   7
  -8   8   6 57.9949 10.8726   8
   7  -8  -6 45.9516 9.98397   7
   7  -8  -6 45.5428 7.76668   4
  -7   8   6 29.3418 7.58351   8
   6  -8  -6 242.208 17.9445   7
   6  -8  -6 216.734 13.5960   4
  -6   8   6 199.780 17.5569   8
   5  -8  -6 260.429 14.0630   4
   5  -8  -6 248.057 15.1611   3
   5  -8  -6 254.434 18.4423   7
  -5   8   6 247.741 19.7767   8
   4  -8  -6 122.359 12.8542   7
   4  -8  -6 120.182 11.7133   3
   4  -8  -6 128.028 8.83861   4
  -4   8   6 130.933 14.2883   8
   2  -8  -6 17.4107 6.59793   3
  -2   8   6 46.2051 10.2213   8
   1  -8  -6 10.7670 3.21635   5
   1  -8  -6 6.43847 4.55757   3
  -1   8   6 8.43242 4.58412   8
   0  -8  -6 3.03771 2.27623   5
   0  -8  -6 2.12199 4.03402   3
   0   8   6 -2.4660 2.45482   8
  -1  -8  -6 29.8177 9.87213   3
  -1  -8  -6 28.6489 5.54024   5
   1   8   6 35.6866 9.20711   8
  -2  -8  -6 90.9641 18.2675   3
   2   8   6 98.2030 15.7140   8
  -3  -8  -6 141.338 18.7527   3
   3   8   6 175.071 17.2726   8
  -4  -8  -6 6.06607 2.55285   5
  -4  -8  -6 0.95864 5.52000   3
   4   8   6 4.08312 3.91930   8
  -5  -8  -6 121.086 25.5470   3
   5   8   6 111.311 14.4871   8
  -6  -8  -6 -7.4933 4.29971   5
  12  -9  -6 9.12024 6.49306   6
  12  -9  -6 4.90533 5.36132   7
  12  -9  -6 14.7011 5.97988   4
  11  -9  -6 30.6748 12.9061   7
  11  -9  -6 14.7901 7.00910   6
  11  -9  -6 23.7789 7.30282   4
  10  -9  -6 166.246 17.1204   7
  10  -9  -6 176.367 15.5402   4
 -10   9   6 198.809 18.7008   8
   9  -9  -6 12.3339 5.03465   7
   9  -9  -6 6.98599 3.72134   4
  -9   9   6 24.5362 7.38515   8
   8  -9  -6 16.3368 5.93074   7
   8  -9  -6 6.13319 3.12844   4
  -8   9   6 12.0956 6.66730   8
   7  -9  -6 34.5923 9.06855   7
   7  -9  -6 9.63619 3.61722   4
  -7   9   6 17.9861 5.72739   8
   6  -9  -6 52.2377 8.46252   4
   6  -9  -6 56.8696 11.5481   7
  -6   9   6 42.6041 10.1473   8
   5  -9  -6 33.0538 5.77636   4
   5  -9  -6 23.5411 6.32931   7
   5  -9  -6 38.1213 8.43059   3
  -5   9   6 40.7577 9.53921   8
   4  -9  -6 134.167 14.5796   7
   4  -9  -6 113.008 12.6661   3
  -4   9   6 113.169 13.8418   8
   3  -9  -6 19.4227 6.93120   3
  -3   9   6 33.9455 9.23369   8
   2  -9  -6 48.3078 5.66668   5
   2  -9  -6 56.4228 11.8444   3
  -2   9   6 75.2224 14.4140   8
   1  -9  -6 56.2329 6.18681   5
   1  -9  -6 62.3550 14.4272   3
  -1   9   6 44.9939 10.7270   8
   0  -9  -6 232.539 22.0347   3
   0   9   6 215.215 19.4484   8
  -1  -9  -6 26.4375 9.35501   3
   1   9   6 46.6658 10.2390   8
  -2  -9  -6 143.319 18.9658   3
   2   9   6 133.103 15.6631   8
  -3  -9  -6 32.0661 12.4745   3
   3   9   6 52.6648 11.6810   8
  -4  -9  -6 13.2046 9.51388   3
   4   9   6 45.0948 19.1281   8
   5   9   6 129.021 16.6350   8
  11 -10  -6 79.2052 15.4361   6
  11 -10  -6 85.8501 15.5328   7
  11 -10  -6 105.770 12.3256   4
  10 -10  -6 0.30053 6.02689   7
  10 -10  -6 -2.0351 3.52690   4
 -10  10   6 -0.5672 4.99864   8
   9 -10  -6 12.8003 5.62732   7
   9 -10  -6 9.35434 3.89653   4
  -9  10   6 11.1272 6.01262   8
   8 -10  -6 36.6426 9.62582   7
   8 -10  -6 26.7779 6.04915   4
  -8  10   6 34.3018 9.61261   8
   7 -10  -6 51.6895 10.5419   7
   7 -10  -6 67.1282 10.3103   4
  -7  10   6 67.9628 14.4505   8
   6 -10  -6 177.273 17.1302   7
  -6  10   6 169.914 17.5178   8
   5 -10  -6 16.7158 6.01348   3
   5 -10  -6 10.0068 5.08728   7
  -5  10   6 -1.0457 3.17924   8
   4 -10  -6 23.1702 6.94918   7
   4 -10  -6 44.1543 9.74741   3
  -4  10   6 37.2128 9.24025   8
   3 -10  -6 5.50197 3.81167   3
   3 -10  -6 -0.1230 2.13865   5
  -3  10   6 -0.7401 2.70844   8
   2 -10  -6 -2.8001 2.44698   3
   2 -10  -6 -0.5625 1.45933   5
  -2  10   6 -0.4867 2.61462   8
   1 -10  -6 143.089 17.3815   3
  -1  10   6 160.038 17.1307   8
   0 -10  -6 4.80056 5.56207   3
   0  10   6 8.09645 5.57916   8
  -1 -10  -6 4.16983 5.52368   3
  -1 -10  -6 2.11342 2.31845   5
   1  10   6 -0.8259 2.85725   8
  -2 -10  -6 -0.0263 8.19355   3
  -2 -10  -6 -5.1390 3.76500   5
   2  10   6 7.75858 6.33013   8
  -3 -10  -6 7.48472 5.47058   3
  -3 -10  -6 -8.5632 5.05529   5
   3  10   6 12.0311 6.57222   8
  10 -11  -6 29.8460 7.21410   4
  10 -11  -6 29.2168 9.21377   7
 -10  11   6 25.5808 7.99092   8
   9 -11  -6 -0.4089 3.91917   7
   9 -11  -6 -2.0850 3.33357   4
  -9  11   6 -4.5587 3.52212   8
   8 -11  -6 30.8561 8.58154   7
  -8  11   6 20.1396 8.59799   8
   7 -11  -6 -3.1514 1.97768   4
   7 -11  -6 -2.6279 3.23800   7
  -7  11   6 1.47732 3.76910   8
   6 -11  -6 48.2272 9.87103   3
   6 -11  -6 47.0098 10.6086   7
  -6  11   6 44.4508 9.96300   8
   5 -11  -6 2.96823 2.00084   4
   5 -11  -6 -0.6118 3.75661   6
   5 -11  -6 13.9543 5.58468   3
   5 -11  -6 9.64635 5.18313   7
  -5  11   6 10.2097 5.24888   8
   4 -11  -6 18.3086 8.04620   3
  -4  11   6 14.9551 6.71020   8
   3 -11  -6 22.2769 8.83716   3
  -3  11   6 23.2867 8.42260   8
   2 -11  -6 3.10939 4.20682   3
   2 -11  -6 -1.2208 2.22318   5
  -2  11   6 14.7833 7.43457   8
   1 -11  -6 0.18475 5.01252   3
   1 -11  -6 -3.4153 2.65485   5
  -1  11   6 3.81012 4.03882   8
   0 -11  -6 61.0978 16.1929   3
   0  11   6 59.5361 13.4484   8
  -1 -11  -6 12.3695 7.67376   3
  -1 -11  -6 2.76710 4.78331   5
   1  11   6 10.6111 5.76121   8
   8 -12  -6 164.325 18.8390   7
  -8  12   6 149.997 18.8381   8
   7 -12  -6 1.90591 3.46070   4
   7 -12  -6 14.9126 5.87286   7
  -7  12   6 1.91709 5.51208   8
   6 -12  -6 1.55110 4.89074   7
   6 -12  -6 5.14099 3.67528   4
  -6  12   6 -1.6525 6.54880   8
   5 -12  -6 106.386 14.2525   3
  -5  12   6 107.927 23.2887   8
   4 -12  -6 3.91196 2.88279   5
   4 -12  -6 -6.2343 5.28600   3
  -4  12   6 7.62345 5.72290   8
   3 -12  -6 75.7739 12.9187   3
  -3  12   6 126.336 16.5444   8
   2 -12  -6 4.79693 3.90383   5
   2 -12  -6 17.0351 7.06348   3
  -2  12   6 12.7702 8.01353   8
   1 -12  -6 3.73603 6.31674   3
  -1  12   6 14.9126 10.9359   8
   0  14  -7 6.36313 5.22866   8
   0  14  -7 18.9311 5.84885   6
  -1  14  -7 22.3614 13.7516   8
   1 -14   7 -0.5020 7.98033   3
  -2  14  -7 41.1082 8.60588   8
   2 -14   7 41.8150 11.9708   3
  -3  14  -7 0.54484 3.00631   8
   3 -14   7 8.07870 5.98342   3
   4 -14   7 5.06855 4.43829   7
   4 -14   7 5.09891 6.00221   2
   5 -14   7 196.739 25.7032   2
   6 -14   7 20.5138 10.0704   3
   6 -14   7 13.9522 4.86753   7
   6 -14   7 23.7409 10.0680   2
   7 -14   7 70.5453 13.3374   2
   7 -14   7 35.8927 18.1064   3
   7 -14   7 38.0981 9.86910   7
   8 -14   7 33.2328 9.95215   3
   8 -14   7 30.9409 7.82191   4
   8 -14   7 80.6068 15.4550   2
   2  13  -7 68.9164 10.5488   6
   2  13  -7 73.4268 12.7432   8
  -2 -13   7 82.7977 19.6447   3
   1  13  -7 2.65813 3.54866   6
  -1 -13   7 3.93970 6.91859   3
   0  13  -7 34.5212 7.11807   6
   0  13  -7 26.2237 7.86174   8
   0 -13   7 42.4812 13.6669   3
  -1  13  -7 121.262 13.4259   8
  -1  13  -7 111.896 11.4844   6
   1 -13   7 115.079 20.5940   3
  -2  13  -7 38.7510 7.41478   6
  -2  13  -7 47.2088 8.60420   8
   2 -13   7 51.4943 13.0371   3
  -3  13  -7 -2.6661 2.14058   8
   3 -13   7 -0.3229 4.59470   2
   3 -13   7 -4.5044 2.64659   7
   3 -13   7 -1.1192 3.69753   3
   4 -13   7 114.367 18.3073   2
   6 -13   7 21.1154 8.77739   2
   6 -13   7 20.1532 6.49830   7
   7 -13   7 84.1973 16.8378   2
   7 -13   7 70.3550 11.6049   7
   8 -13   7 6.15775 4.90477   7
   8 -13   7 -1.7080 3.86214   2
   9 -13   7 28.7121 8.66749   2
   9 -13   7 21.7966 10.8276   7
  10 -13   7 40.1026 9.42573   4
  10 -13   7 40.7626 12.4119   2
  10 -13   7 46.6949 11.2660   7
   3  12  -7 19.5448 6.74018   8
   3  12  -7 7.97044 4.20521   6
  -3 -12   7 26.7225 11.3647   3
   2  12  -7 63.1721 7.62691   6
   2  12  -7 61.2138 11.7383   8
  -2 -12   7 51.5673 12.5502   3
   1  12  -7 7.00402 3.58235   6
  -1 -12   7 6.25921 6.62014   3
   0  12  -7 52.7009 10.0807   8
   0  12  -7 53.8544 9.12255   6
   0 -12   7 59.4075 12.7523   3
  -1  12  -7 19.6890 5.89959   8
  -1  12  -7 21.0961 5.63449   6
   1 -12   7 13.2149 7.01237   3
  -2  12  -7 14.2047 6.57873   8
  -2  12  -7 6.42441 3.94403   6
   2 -12   7 1.55415 2.37681   7
   2 -12   7 13.5669 5.68991   2
   2 -12   7 7.82022 5.32415   3
  -3  12  -7 2.60226 2.56377   6
  -3  12  -7 5.63394 2.76316   8
   3 -12   7 1.30645 3.58032   2
   3 -12   7 -0.4436 2.15765   7
   3 -12   7 0.77910 4.80710   3
   5 -12   7 18.3666 5.33421   7
   5 -12   7 44.1028 12.0326   2
   6 -12   7 163.868 14.2722   7
   6 -12   7 169.707 18.8894   2
   7 -12   7 1.04541 3.89901   2
   7 -12   7 13.0494 5.00592   7
   8 -12   7 137.842 17.5796   2
   8 -12   7 125.802 14.2293   7
   9 -12   7 15.4709 6.17214   2
   9 -12   7 18.7567 7.46535   7
  11 -12   7 11.3369 6.44766   7
  11 -12   7 21.8197 7.58915   4
  11 -12   7 17.2395 7.74363   2
   5  11  -7 2.14449 3.53431   8
  -5 -11   7 13.5534 8.46513   3
   4  11  -7 8.58597 6.43224   8
   4  11  -7 3.54586 3.00232   6
  -4 -11   7 18.4858 8.28247   3
   3  11  -7 36.9019 8.94631   8
   3  11  -7 39.5789 7.06043   6
  -3 -11   7 33.9063 10.9607   3
   2  11  -7 36.3291 6.77822   6
   2  11  -7 39.8970 9.11334   8
  -2 -11   7 28.7438 10.1250   3
   1  11  -7 23.5157 6.50052   8
   1  11  -7 22.2360 4.95688   6
  -1 -11   7 22.2554 10.3121   3
   0  11  -7 3.55211 3.00536   8
   0  11  -7 -2.8250 1.58778   6
   0 -11   7 0.55478 3.74982   3
  -1  11  -7 85.6572 8.78838   6
  -1  11  -7 65.3137 10.4416   8
   1 -11   7 69.3131 13.8397   3
  -2  11  -7 175.256 13.3254   6
  -2  11  -7 190.904 14.0172   8
   2 -11   7 197.393 19.1901   3
  -3  11  -7 125.040 11.2788   6
  -3  11  -7 123.320 10.6474   8
   3 -11   7 105.228 22.5601   2
   4 -11   7 56.8924 10.4734   2
   4 -11   7 62.3886 7.97689   7
   5 -11   7 84.4218 15.7066   2
   5 -11   7 74.3953 9.01682   7
   6 -11   7 89.4645 17.5916   2
   6 -11   7 65.2669 11.0390   7
   7 -11   7 -2.7114 2.87625   7
   7 -11   7 -1.1101 3.64345   2
   8 -11   7 181.583 16.2964   7
   8 -11   7 161.841 18.4420   2
   9 -11   7 15.6392 8.24976   2
   9 -11   7 14.4036 6.44877   7
  10 -11   7 57.2601 13.6783   2
  10 -11   7 58.2479 12.7244   7
  11 -11   7 7.49845 8.55051   2
  11 -11   7 25.5378 7.76784   7
   6  10  -7 3.78790 3.83930   8
   6  10  -7 3.59769 2.57198   6
  -6 -10   7 4.45138 10.1439   3
   5  10  -7 -2.3598 2.26086   8
   5  10  -7 -3.5526 2.00304   6
  -5 -10   7 5.73074 5.76388   3
   4  10  -7 111.256 13.3052   8
   4  10  -7 83.0760 8.42318   6
  -4 -10   7 96.5322 16.9010   3
   3  10  -7 22.7603 4.64843   6
  -3 -10   7 33.3824 9.85534   3
   2  10  -7 206.455 12.8017   6
  -2 -10   7 238.880 22.5984   3
   1  10  -7 2.08423 2.05964   6
  -1 -10   7 0.35334 3.43668   3
   0  10  -7 172.190 11.5906   6
   0  10  -7 194.383 14.6987   8
   0 -10   7 164.292 15.8073   2
   0 -10   7 199.919 19.5536   3
  -1  10  -7 36.3612 6.12005   6
  -1  10  -7 35.2827 7.98390   8
   1 -10   7 41.7311 10.9151   3
   1 -10   7 31.2329 9.36720   2
  -2  10  -7 161.930 11.7647   6
  -2  10  -7 161.105 12.0157   8
   2 -10   7 161.617 15.8044   2
  -3  10  -7 2.55588 1.84058   8
  -3  10  -7 2.25319 2.15203   6
   3 -10   7 3.81588 2.57918   7
   3 -10   7 4.32401 2.91696   2
  -4  10  -7 199.049 13.9869   6
   4 -10   7 199.047 17.9820   2
   4 -10   7 236.158 15.1725   7
  -5  10  -7 0.47149 1.47057   8
   5 -10   7 -1.7853 1.78846   7
   5 -10   7 0.66472 2.38143   2
   5 -10   7 -1.7733 1.79333   5
   6 -10   7 0.71082 2.56294   7
   6 -10   7 3.86230 3.76615   2
   7 -10   7 16.5103 8.01998   2
   7 -10   7 35.9404 7.69929   7
   8 -10   7 18.3424 6.24896   7
   8 -10   7 9.37696 5.88575   2
   9 -10   7 84.0814 13.3768   7
   9 -10   7 106.505 13.9764   2
  10 -10   7 8.79361 5.56354   7
  10 -10   7 14.5514 6.64226   2
  11 -10   7 3.61336 4.51849   7
  11 -10   7 9.50887 5.55905   2
  12 -10   7 11.1967 5.65622   4
  12 -10   7 12.7864 8.78572   2
  12 -10   7 34.1140 9.67568   7
   7   9  -7 4.80820 3.21973   6
  -7  -9   7 2.66059 7.23402   3
   6   9  -7 58.1851 7.18306   6
  -6  -9   7 63.6831 15.8922   3
   5   9  -7 280.205 15.1649   6
  -5  -9   7 335.273 27.4052   3
   4   9  -7 58.7736 6.85303   6
  -4  -9   7 62.0587 14.5526   3
   3   9  -7 116.398 11.8799   6
  -3  -9   7 83.4690 20.3860   3
   2   9  -7 37.8478 5.93171   6
  -2  -9   7 51.1529 12.6352   3
   1   9  -7 100.482 8.35100   6
  -1  -9   7 93.0606 11.2925   2
  -1  -9   7 87.2331 14.6989   3
   0   9  -7 341.736 15.8331   6
   0  -9   7 344.018 24.0078   3
   0  -9   7 351.795 22.1265   2
  -1   9  -7 46.1147 5.75704   6
   1  -9   7 34.5099 9.38805   2
  -2   9  -7 448.569 19.0653   6
   2  -9   7 428.266 24.9613   2
   2  -9   7 421.696 21.2387   7
  -3   9  -7 373.427 16.6589   8
  -3   9  -7 363.136 17.7354   6
   3  -9   7 350.618 17.4211   7
   3  -9   7 379.308 23.6710   2
  -4   9  -7 17.3344 4.37317   6
   4  -9   7 16.6050 4.82165   7
   4  -9   7 16.6593 5.02424   2
   6  -9   7 74.7344 9.21315   7
   6  -9   7 62.8332 12.7288   2
   7  -9   7 143.621 13.2509   7
   7  -9   7 152.787 15.8440   2
   8  -9   7 176.512 17.7982   7
   8  -9   7 162.144 18.0726   2
   9  -9   7 -1.0169 3.06010   2
   9  -9   7 -0.9016 2.50343   7
  10  -9   7 8.43843 5.26590   2
  10  -9   7 18.4773 6.15671   7
  11  -9   7 2.84314 3.94088   7
  11  -9   7 -0.5281 4.43321   2
  12  -9   7 6.56025 5.53837   2
  12  -9   7 3.33080 5.31378   7
   8   8  -7 92.0653 14.1971   6
  -8  -8   7 104.061 18.2880   3
   7   8  -7 16.0171 4.67336   6
  -7  -8   7 19.9699 7.89883   3
   6   8  -7 0.82984 2.22704   6
  -6  -8   7 -0.2501 5.05761   3
  -5  -8   7 8.31499 6.29861   3
   4   8  -7 334.559 15.6532   6
  -4  -8   7 332.684 24.7908   3
  -3  -8   7 5.48488 4.87380   3
   2   8  -7 200.189 11.3704   6
  -2  -8   7 218.967 16.0136   2
  -2  -8   7 216.482 18.6544   3
   1   8  -7 6.29681 2.53834   6
  -1  -8   7 5.66993 3.85583   3
   0   8  -7 16.4261 3.82669   6
   0  -8   7 18.4945 6.19709   2
  -1   8  -7 245.695 12.6096   6
   1  -8   7 248.536 17.5073   2
   1  -8   7 248.803 12.0999   7
  -2   8  -7 303.851 14.6773   6
   2  -8   7 298.891 19.6969   2
   2  -8   7 329.777 15.4151   7
  -3   8  -7 67.0912 7.08817   6
  -3   8  -7 67.0054 5.97797   5
   3  -8   7 58.1699 7.04091   7
   3  -8   7 44.3341 7.60836   2
  -4   8  -7 18.3392 4.51651   6
  -4   8  -7 11.7625 3.02231   8
  -4   8  -7 19.9396 4.54050   5
   4  -8   7 16.3174 5.99123   2
   4  -8   7 20.5196 5.20787   7
   4  -8   7 18.3281 3.15113   5
  -5   8  -7 130.887 9.96692   5
   5  -8   7 97.2059 11.7021   2
   5  -8   7 114.951 10.8644   7
  -6   8  -7 176.879 12.7264   5
   6  -8   7 177.450 14.1325   7
   6  -8   7 174.067 16.5108   2
   7  -8   7 9.05926 4.79324   2
   7  -8   7 17.9347 5.39477   7
   8  -8   7 154.046 16.1558   2
   8  -8   7 141.352 13.8172   7
   9  -8   7 4.06294 3.20307   7
   9  -8   7 10.9919 5.71923   2
  10  -8   7 193.513 18.7812   2
  10  -8   7 200.654 17.5213   7
  11  -8   7 94.7577 16.5657   2
  11  -8   7 57.0169 10.5301   7
  12  -8   7 -3.6878 6.62039   7
  12  -8   7 2.79424 4.58802   2
  13  -8   7 42.8020 11.8190   2
   9   7  -7 4.30345 3.18430   6
  -9  -7   7 -2.9543 5.96553   3
   8   7  -7 34.7853 7.07587   6
   8   7  -7 33.1779 5.72541   4
   7   7  -7 41.2296 4.38677   4
   7   7  -7 51.7967 7.73638   6
  -7  -7   7 60.1884 13.0943   3
   6   7  -7 61.8090 7.26788   6
   6   7  -7 57.1572 5.26597   4
  -6  -7   7 46.1287 12.2832   3
   5   7  -7 32.7245 3.75190   4
   5   7  -7 27.6499 5.44492   6
  -5  -7   7 26.4032 7.92311   3
   4   7  -7 22.4188 4.95081   6
  -4  -7   7 27.6628 7.16995   3
   3   7  -7 10.0429 3.17082   6
  -3  -7   7 15.5140 5.81729   3
   2   7  -7 524.131 18.5875   6
  -2  -7   7 548.709 28.3273   3
  -2  -7   7 535.755 24.0659   2
   1   7  -7 28.4942 4.65431   6
  -1  -7   7 28.4488 6.77717   2
   0   7  -7 67.6363 6.10321   6
   0  -7   7 73.3711 5.80348   7
   0  -7   7 64.6977 10.9774   2
  -1   7  -7 305.078 13.4210   6
  -1   7  -7 306.562 10.8691   5
   1  -7   7 316.030 18.9228   2
   1  -7   7 299.706 13.6324   7
  -2   7  -7 107.215 7.95636   6
  -2   7  -7 110.159 7.04968   5
   2  -7   7 115.378 8.79951   7
   2  -7   7 104.335 11.0528   2
  -3   7  -7 744.718 23.9544   6
  -3   7  -7 740.128 22.4174   5
   3  -7   7 714.568 25.7134   7
   3  -7   7 748.702 31.5015   2
  -4   7  -7 39.7549 6.66956   5
  -4   7  -7 35.9451 4.34665   8
  -4   7  -7 28.3674 4.95111   6
   4  -7   7 31.1298 8.31458   2
   4  -7   7 42.2278 7.96891   7
   4  -7   7 29.6817 4.02198   5
  -5   7  -7 -0.5176 1.67059   5
   5  -7   7 3.55281 3.25995   2
   5  -7   7 2.90684 2.25490   7
  -6   7  -7 357.003 18.5346   5
   6  -7   7 361.545 20.3106   7
   6  -7   7 371.683 23.1219   2
  -7   7  -7 27.3763 6.46177   5
   7  -7   7 24.6157 7.94454   2
   7  -7   7 26.1762 7.17397   7
  -8   7  -7 -2.7732 1.41322   5
   8  -7   7 0.94658 2.27670   7
   8  -7   7 7.29996 4.80716   2
   9  -7   7 1.04457 4.61818   2
  10  -7   7 1.86388 4.02506   2
  10  -7   7 2.01579 3.63081   7
  11  -7   7 149.511 15.3199   7
  11  -7   7 168.101 17.3895   2
  12  -7   7 21.1458 7.77201   2
  12  -7   7 24.9479 8.03761   7
  13  -7   7 25.8513 8.31691   4
  13  -7   7 16.8622 7.00099   7
   9   6  -7 56.3127 9.30963   6
   9   6  -7 47.7144 5.44837   4
   8   6  -7 32.8936 4.61664   4
   8   6  -7 38.2431 6.91604   6
   7   6  -7 2.02561 1.86463   4
   7   6  -7 2.32127 2.81553   6
  -7  -6   7 -2.0346 3.56740   3
   6   6  -7 138.582 10.7027   6
   6   6  -7 153.117 8.66773   4
  -6  -6   7 180.031 16.7857   3
   5   6  -7 3.33880 2.05132   6
   5   6  -7 3.21114 1.78114   4
  -5  -6   7 5.62987 4.89022   3
   4   6  -7 101.447 10.5727   2
   4   6  -7 101.453 6.73252   4
   4   6  -7 111.391 8.55456   6
  -4  -6   7 98.5941 12.0888   3
   3   6  -7 117.153 8.75740   4
   3   6  -7 112.697 9.87024   2
   3   6  -7 141.124 9.16292   6
  -3  -6   7 132.357 10.3096   2
  -3  -6   7 117.524 12.2568   3
   2   6  -7 7.99182 3.19605   2
   2   6  -7 5.22511 2.12474   6
   2   6  -7 9.95904 2.55003   4
  -2  -6   7 10.3311 3.72646   2
   1   6  -7 358.902 13.9477   6
   1   6  -7 312.709 17.6389   2
   1   6  -7 352.566 10.1619   5
  -1  -6   7 368.997 18.4999   2
  -1  -6   7 362.158 12.0215   7
   0   6  -7 339.278 10.9639   5
   0   6  -7 373.970 13.9828   6
   0  -6   7 360.142 13.8616   7
  -1   6  -7 14.7015 3.72273   6
  -1   6  -7 5.09518 1.89225   5
   1  -6   7 8.04280 3.98886   2
   1  -6   7 10.4797 3.39265   7
  -2   6  -7 452.657 16.2731   6
  -2   6  -7 459.044 15.6572   5
  -2   6  -7 420.335 18.1853   8
   2  -6   7 486.643 18.9890   7
   2  -6   7 475.075 22.9880   2
  -3   6  -7 652.621 20.8744   5
  -3   6  -7 635.027 20.8366   6
  -3   6  -7 630.540 20.9661   8
   3  -6   7 639.222 27.6566   2
  -4   6  -7 239.199 12.7678   6
  -4   6  -7 248.159 13.2008   5
   4  -6   7 244.137 10.3131   5
   4  -6   7 239.948 14.7170   7
   4  -6   7 260.668 17.7853   2
  -5   6  -7 2.35012 1.93672   5
   5  -6   7 0.65832 1.63804   7
   5  -6   7 3.26576 2.69211   2
  -6   6  -7 60.5022 7.38644   5
   6  -6   7 47.8941 9.33838   2
   6  -6   7 51.5981 9.11478   7
  -7   6  -7 99.5496 10.3721   5
   7  -6   7 83.1054 10.8908   2
   7  -6   7 95.4534 10.6805   7
  -8   6  -7 7.50346 3.66641   5
   8  -6   7 14.3482 5.84246   2
   8  -6   7 3.20382 3.64750   7
  -9   6  -7 91.6721 11.1861   5
   9  -6   7 114.588 22.2636   7
   9  -6   7 116.281 13.6220   2
  10  -6   7 12.0896 5.65374   2
  10  -6   7 11.9094 5.35908   7
  11  -6   7 36.0738 9.41909   7
  11  -6   7 21.8006 8.04482   2
  12  -6   7 1.32325 5.08495   2
  12  -6   7 4.08932 3.74329   7
  13  -6   7 -2.5529 4.02557   7
  13  -6   7 4.93157 4.50758   4
  13  -6   7 18.4565 7.49416   2
  10   5  -7 10.4201 5.24474   6
  10   5  -7 10.2311 3.35837   4
 -10  -5   7 5.63274 6.45278   3
   9   5  -7 47.3001 8.82372   6
   9   5  -7 35.3745 5.61682   4
   8   5  -7 5.34308 3.65020   6
   8   5  -7 3.80397 1.62703   4
  -8  -5   7 -3.1918 3.08874   3
   7   5  -7 279.486 12.8072   4
   7   5  -7 218.956 18.9809   6
  -7  -5   7 265.968 20.0153   3
   6   5  -7 0.83856 1.59198   4
   6   5  -7 6.38965 2.98217   6
   6   5  -7 7.31303 2.63446   5
  -6  -5   7 4.47948 3.92109   3
   5   5  -7 643.316 19.5132   4
   5   5  -7 582.565 19.0758   5
   5   5  -7 615.377 22.8994   6
  -5  -5   7 631.344 29.3621   3
   4   5  -7 390.552 16.8448   6
   4   5  -7 410.279 14.6147   4
  -4  -5   7 410.836 22.2863   3
   3   5  -7 117.068 8.35440   6
   3   5  -7 114.515 9.51695   4
   3   5  -7 113.249 9.00341   2
  -3  -5   7 119.185 9.10859   2
  -3  -5   7 114.988 11.2776   3
   2   5  -7 469.525 19.9823   2
   2   5  -7 440.228 16.0740   6
   2   5  -7 461.583 12.0303   5
   2   5  -7 457.580 15.0355   4
  -2  -5   7 406.867 19.0731   4
  -2  -5   7 467.953 19.3282   2
   1   5  -7 626.441 18.2211   4
   1   5  -7 600.931 24.1238   2
   1   5  -7 645.794 15.6452   5
   1   5  -7 634.773 18.9243   6
  -1  -5   7 603.863 19.4995   4
  -1  -5   7 654.620 24.2334   2
   0   5  -7 1.77284 1.37187   6
   0   5  -7 1.59762 1.29716   5
   0   5  -7 2.76509 1.88655   8
   0   5  -7 2.67956 1.97489   2
   0  -5   7 1.23536 2.10781   2
   0  -5   7 2.88631 1.33527   4
  -1   5  -7 135.778 10.1869   8
  -1   5  -7 128.748 7.52636   6
  -1   5  -7 140.200 11.5553   2
  -1   5  -7 134.306 7.25156   5
   1  -5   7 128.172 10.9135   2
  -2   5  -7 80.7733 7.15176   8
  -2   5  -7 87.0418 6.55257   6
  -2   5  -7 93.3072 6.65412   5
   2  -5   7 88.5424 10.0628   2
  -3   5  -7 862.121 24.1124   8
  -3   5  -7 873.942 25.0981   5
  -3   5  -7 878.662 24.3445   6
   3  -5   7 864.530 32.4952   2
  -4   5  -7 51.8256 4.26064   8
  -4   5  -7 45.4173 5.32459   6
  -4   5  -7 55.2746 7.92703   5
   4  -5   7 42.4351 7.73185   2
   4  -5   7 55.6966 7.04205   7
  -5   5  -7 124.986 10.0442   5
   5  -5   7 156.600 13.9040   2
   5  -5   7 148.285 11.9011   7
  -6   5  -7 118.839 10.5431   5
   6  -5   7 121.176 12.3819   2
   6  -5   7 119.872 11.3721   7
  -7   5  -7 494.875 23.5018   5
   7  -5   7 467.385 26.1316   2
   7  -5   7 450.913 23.5710   7
  -8   5  -7 129.503 12.4864   5
   8  -5   7 151.778 13.8682   7
   8  -5   7 106.598 12.5574   2
  -9   5  -7 0.17051 2.67332   5
   9  -5   7 0.54698 3.10880   2
   9  -5   7 10.9299 4.80409   7
 -10   5  -7 -0.6429 2.31572   5
  10  -5   7 2.27882 3.15115   7
  10  -5   7 0.31079 3.47005   2
  11  -5   7 6.38410 5.12115   2
  11  -5   7 6.18917 5.02869   7
  12  -5   7 20.7705 8.38847   2
  12  -5   7 30.4599 7.76240   7
  13  -5   7 2.92330 5.48066   2
  13  -5   7 -6.4766 4.10419   7
  13  -5   7 1.18293 3.69598   4
  11   4  -7 2.23141 4.33592   6
  11   4  -7 6.96589 3.63820   4
  10   4  -7 161.891 14.2151   6
  10   4  -7 143.228 10.2272   4
   9   4  -7 65.1838 11.3523   6
   9   4  -7 51.6342 6.19776   4
   8   4  -7 21.8703 5.84125   6
   8   4  -7 17.0513 4.33668   4
   7   4  -7 9.61156 3.62996   6
   7   4  -7 16.5930 3.99804   4
   6   4  -7 20.4526 4.73848   6
   6   4  -7 28.3773 4.73034   4
   6   4  -7 24.4634 5.18491   5
  -6  -4   7 34.8953 8.08687   3
   5   4  -7 422.003 15.8463   4
   5   4  -7 410.770 18.4149   6
  -5  -4   7 406.785 21.3438   3
   4   4  -7 70.3538 5.82015   4
   4   4  -7 67.7038 6.88928   6
  -4  -4   7 69.6389 8.37743   3
   3   4  -7 44.2776 5.21612   2
   3   4  -7 42.2982 5.05591   6
  -3  -4   7 41.1852 4.95902   2
   2   4  -7 955.919 24.2176   4
   2   4  -7 996.327 25.9989   6
   2   4  -7 941.345 29.2471   2
  -2  -4   7 982.302 27.1784   4
  -2  -4   7 1011.49 28.8823   2
   1   4  -7 3.36200 2.30469   8
   1   4  -7 0.56841 1.02646   5
   1   4  -7 0.22318 1.10893   6
   1   4  -7 1.50722 1.22311   4
   1   4  -7 -0.4833 1.41286   2
  -1  -4   7 -0.2648 1.27955   2
  -1  -4   7 0.75167 1.40375   4
   0   4  -7 6.28829 1.88339   5
   0   4  -7 9.07765 4.36456   2
   0   4  -7 5.95052 3.14636   8
   0   4  -7 9.59965 2.47424   6
   0  -4   7 11.6261 2.71018   4
   0  -4   7 10.0883 3.35465   2
   0  -4   7 5.07171 2.34699   6
  -1   4  -7 149.553 7.58339   6
  -1   4  -7 143.692 11.7295   2
  -1   4  -7 142.939 7.62792   5
  -1   4  -7 131.321 9.44349   8
   1  -4   7 129.201 7.60940   4
   1  -4   7 135.535 10.9713   2
   1  -4   7 133.648 8.19417   6
  -2   4  -7 720.509 22.2372   8
  -2   4  -7 729.030 19.4644   6
  -2   4  -7 659.029 27.5735   2
  -2   4  -7 678.387 20.1497   5
   2  -4   7 679.960 26.9348   2
   2  -4   7 689.121 19.7757   6
  -3   4  -7 1570.46 37.0986   5
  -3   4  -7 1536.62 34.6635   6
  -3   4  -7 1552.13 34.6548   8
   3  -4   7 1570.04 33.5039   6
   3  -4   7 1563.55 45.8021   2
  -4   4  -7 -0.7797 1.26869   5
  -4   4  -7 1.74267 1.17680   8
  -4   4  -7 0.70377 1.45177   6
   4  -4   7 -0.8397 1.92126   2
   4  -4   7 2.41740 1.32607   6
  -5   4  -7 55.7771 8.73937   5
   5  -4   7 56.8675 10.7641   2
  -6   4  -7 -0.9743 1.49634   5
   6  -4   7 -0.2270 1.90913   7
   6  -4   7 -0.2490 2.14955   2
  -7   4  -7 27.2848 6.16716   5
   7  -4   7 22.8141 5.96513   2
   7  -4   7 17.6919 4.71510   7
  -8   4  -7 52.2219 9.26679   5
   8  -4   7 82.1411 10.4218   7
   8  -4   7 92.6682 14.8295   2
  -9   4  -7 478.185 38.1700   5
   9  -4   7 491.843 28.7701   2
   9  -4   7 465.243 26.1403   7
 -10   4  -7 32.2111 8.88392   5
  10  -4   7 24.6023 8.37819   2
  10  -4   7 15.0931 5.27856   7
 -11   4  -7 122.756 14.6794   5
  11  -4   7 132.710 14.9626   7
  11  -4   7 114.132 15.0967   2
  12  -4   7 20.3172 7.00159   7
  12  -4   7 11.0804 6.11590   2
  11   3  -7 5.70793 3.49098   4
  11   3  -7 4.18186 5.80185   6
  10   3  -7 22.6216 4.78613   4
  10   3  -7 22.0389 7.04978   6
   9   3  -7 441.949 19.5671   4
   9   3  -7 455.687 24.0032   6
   8   3  -7 -3.7054 1.52899   4
  -8  -3   7 1.56247 2.69706   3
   7   3  -7 207.869 12.0199   4
   7   3  -7 199.536 14.2509   6
   6   3  -7 197.080 11.2795   4
   6   3  -7 218.220 14.0388   6
  -6  -3   7 195.756 13.6408   3
   5   3  -7 53.0655 6.72448   6
   5   3  -7 59.8366 5.83264   4
  -5  -3   7 57.2252 7.29567   3
   4   3  -7 930.422 27.9328   6
   4   3  -7 908.189 24.8697   4
  -4  -3   7 882.415 20.6503   7
  -4  -3   7 927.003 30.1131   3
   3   3  -7 200.837 10.7262   2
   3   3  -7 199.154 10.8805   6
  -3  -3   7 186.935 9.94181   2
  -3  -3   7 197.124 9.90659   7
   2   3  -7 217.585 9.97230   4
   2   3  -7 214.220 12.1707   2
  -2  -3   7 209.848 9.61196   7
  -2  -3   7 214.654 10.9967   4
  -2  -3   7 221.222 11.6243   2
   1   3  -7 1181.17 35.2967   8
   1   3  -7 1223.10 28.2077   6
   1   3  -7 1236.39 26.1907   5
   1   3  -7 1240.04 28.5028   4
   1   3  -7 1195.19 34.3285   2
  -1  -3   7 1264.07 30.0284   7
  -1  -3   7 1269.43 34.1487   2
  -1  -3   7 1235.34 32.8548   6
  -1  -3   7 1206.11 30.1184   4
   0   3  -7 141.209 10.7850   2
   0   3  -7 157.321 7.52300   6
   0   3  -7 151.124 7.37142   5
   0   3  -7 151.457 10.5014   8
   0   3  -7 150.265 7.97556   4
   0  -3   7 156.584 9.23826   6
   0  -3   7 173.553 11.5825   2
   0  -3   7 165.449 8.75305   4
  -1   3  -7 1047.81 25.0690   5
  -1   3  -7 1036.86 29.2113   8
  -1   3  -7 1058.92 23.6092   6
  -1   3  -7 1020.35 33.7418   2
   1  -3   7 1007.80 25.5006   4
   1  -3   7 1016.59 32.8906   2
  -2   3  -7 118.895 10.8197   2
  -2   3  -7 108.930 7.60856   8
  -2   3  -7 117.350 7.55904   5
  -2   3  -7 118.858 6.57414   6
   2  -3   7 118.013 10.7075   2
   2  -3   7 117.030 8.31096   4
   2  -3   7 107.189 6.71770   6
  -3   3  -7 26.3604 3.94899   6
  -3   3  -7 26.9594 3.49218   8
  -3   3  -7 28.4702 5.06007   5
   3  -3   7 33.0278 4.10521   6
   3  -3   7 26.0702 6.71488   2
  -4   3  -7 427.080 17.9637   5
  -4   3  -7 432.386 13.0302   8
   4  -3   7 431.505 22.7101   2
   4  -3   7 429.339 13.1833   6
  -5   3  -7 166.997 11.5813   5
   5  -3   7 153.609 13.9355   2
   5  -3   7 148.102 7.21705   6
  -6   3  -7 55.1216 9.06169   5
   6  -3   7 35.4661 7.26073   2
  -7   3  -7 193.226 14.6769   5
   7  -3   7 201.003 15.4143   7
   7  -3   7 195.080 16.8101   2
  -8   3  -7 7.20647 3.98675   5
   8  -3   7 -3.1164 1.87332   2
   8  -3   7 -1.0344 1.79940   7
  -9   3  -7 162.726 15.5635   5
   9  -3   7 140.249 15.4018   2
   9  -3   7 133.211 14.4584   7
 -10   3  -7 81.9753 13.9431   5
  10  -3   7 75.6373 13.7409   2
  10  -3   7 79.9675 12.5996   7
 -11   3  -7 135.038 15.4026   5
  11  -3   7 119.482 14.3370   7
  11  -3   7 127.291 15.1732   2
  12  -3   7 55.1238 10.8887   2
  12  -3   7 60.4104 11.8991   7
  12  -3   7 51.1117 10.3349   4
  12   2  -7 -3.0361 4.22780   6
  12   2  -7 5.29975 3.72503   4
  11   2  -7 0.31683 2.66647   6
  11   2  -7 -3.6043 2.12581   4
  10   2  -7 178.568 13.0167   4
  10   2  -7 198.524 16.5716   6
   9   2  -7 0.51654 1.78245   6
   9   2  -7 1.71248 2.03444   4
  -9  -2   7 2.11199 2.69407   3
   8   2  -7 3.70026 2.42129   6
  -8  -2   7 3.94780 2.60336   3
   7   2  -7 2.13034 2.36146   6
   7   2  -7 1.81244 1.92902   4
  -7  -2   7 2.23218 1.87927   3
   6   2  -7 27.8347 6.30393   6
   6   2  -7 33.2862 5.97874   4
  -6  -2   7 34.3255 6.39806   3
   5   2  -7 10.1177 3.71495   6
   5   2  -7 19.2193 4.37029   4
  -5  -2   7 15.8651 4.10654   3
  -5  -2   7 15.9515 3.03147   7
   4   2  -7 174.859 11.1344   6
   4   2  -7 190.022 10.2223   4
  -4  -2   7 185.691 8.86522   7
   3   2  -7 195.791 11.1644   6
  -3  -2   7 208.236 9.69382   7
   2   2  -7 111.321 9.67037   8
   2   2  -7 122.137 7.33643   4
   2   2  -7 107.163 7.23417   6
  -2  -2   7 103.000 7.51313   4
  -2  -2   7 102.750 8.43645   6
  -2  -2   7 115.881 8.25359   2
  -2  -2   7 125.431 7.68314   7
   1   2  -7 434.778 19.2033   8
   1   2  -7 432.915 14.0965   6
   1   2  -7 451.988 14.7961   4
  -1  -2   7 422.586 15.5906   4
  -1  -2   7 452.567 16.2885   7
  -1  -2   7 455.794 18.4888   2
  -1  -2   7 461.722 17.6436   6
   0   2  -7 36.2817 3.91046   4
   0   2  -7 33.6646 3.56481   5
   0   2  -7 26.5331 4.62247   8
   0   2  -7 30.0196 3.19148   6
   0  -2   7 34.2294 5.06368   6
   0  -2   7 26.5079 5.34419   2
   0  -2   7 34.0343 3.83041   4
  -1   2  -7 3.26120 1.96917   8
  -1   2  -7 5.55263 2.04877   5
  -1   2  -7 3.23631 1.46209   6
   1  -2   7 3.99556 1.60705   6
   1  -2   7 0.34098 2.07406   2
   1  -2   7 3.31950 1.52307   4
  -2   2  -7 127.106 8.03825   8
  -2   2  -7 124.538 6.30977   6
  -2   2  -7 133.358 8.13746   5
   2  -2   7 119.069 6.62738   6
   2  -2   7 123.403 7.28458   4
   2  -2   7 119.916 10.9095   2
  -3   2  -7 31.7462 3.86362   8
  -3   2  -7 40.7353 7.09903   5
  -3   2  -7 38.6195 3.83200   6
   3  -2   7 33.3833 3.34229   6
   3  -2   7 21.5191 5.44698   2
   3  -2   7 34.9274 4.54808   8
  -4   2  -7 367.597 12.3818   8
  -4   2  -7 357.005 16.4339   5
   4  -2   7 365.695 11.4095   6
   4  -2   7 366.437 21.3435   2
   4  -2   7 369.925 14.0150   8
  -5   2  -7 223.064 8.61924   8
  -5   2  -7 221.439 13.7132   5
   5  -2   7 230.517 17.4433   2
   5  -2   7 239.148 10.2703   8
   5  -2   7 237.272 8.78527   6
  -6   2  -7 181.463 13.3077   5
   6  -2   7 180.777 7.78976   6
   6  -2   7 175.299 15.8713   2
  -7   2  -7 202.196 15.0466   5
   7  -2   7 181.863 8.30108   6
   7  -2   7 175.169 16.5465   2
  -8   2  -7 28.8721 7.46097   5
   8  -2   7 28.5705 8.87108   2
   8  -2   7 27.0900 7.07948   7
  -9   2  -7 144.499 14.5095   5
   9  -2   7 209.499 31.3840   7
   9  -2   7 148.680 15.9814   2
 -10   2  -7 73.0121 12.8349   5
  10  -2   7 83.4452 14.0711   2
  10  -2   7 60.5813 10.7804   7
 -11   2  -7 134.078 15.6848   5
  11  -2   7 121.256 14.7518   2
  11  -2   7 128.841 14.5704   7
  12  -2   7 28.6216 6.47389   4
  12  -2   7 25.7535 8.46356   7
  12  -2   7 22.3127 7.72611   2
  12   1  -7 14.5904 5.55482   6
  12   1  -7 6.67268 3.98591   4
  11   1  -7 26.3068 6.59060   4
  11   1  -7 37.0786 8.75026   6
  10   1  -7 3.59774 3.51141   6
  10   1  -7 13.9977 4.41953   4
   9   1  -7 4.04269 2.85124   4
   9   1  -7 1.90166 2.15291   6
   7   1  -7 381.371 20.4124   6
   7   1  -7 423.188 18.6208   4
   6   1  -7 227.908 12.6711   4
   6   1  -7 215.415 14.2528   6
  -6  -1   7 207.200 10.4167   7
   5   1  -7 71.3475 6.72162   4
   5   1  -7 57.2540 6.86075   6
  -5  -1   7 67.4157 5.78946   7
  -5  -1   7 67.9696 5.95646   3
   4   1  -7 561.914 19.1397   4
   4   1  -7 593.165 21.4205   6
  -4  -1   7 544.802 18.0231   7
   3   1  -7 1144.31 30.1523   6
  -3  -1   7 1164.21 29.1573   7
  -3  -1   7 1051.22 32.5936   6
  -3  -1   7 1193.34 29.1395   2
   2   1  -7 60.1886 5.37484   6
   2   1  -7 62.0658 5.36136   4
   2   1  -7 68.9915 7.41179   8
  -2  -1   7 63.3676 5.88592   7
  -2  -1   7 60.5179 5.79827   4
  -2  -1   7 61.5210 6.33386   6
  -2  -1   7 66.1712 6.61613   2
   1   1  -7 845.557 22.2261   4
   1   1  -7 890.576 21.5187   6
   1   1  -7 875.112 27.9876   8
  -1  -1   7 820.492 27.3286   2
  -1  -1   7 855.822 25.0307   6
  -1  -1   7 877.594 25.2625   7
  -1  -1   7 855.838 23.9235   4
   0   1  -7 5.02084 1.85479   5
   0   1  -7 2.65868 1.89273   8
   0   1  -7 1.66913 1.33252   4
   0   1  -7 5.55253 1.67076   6
   0  -1   7 2.26704 1.87711   8
   0  -1   7 2.90002 1.78924   6
   0  -1   7 2.26249 1.54102   4
   0  -1   7 4.40222 2.89737   2
  -1   1  -7 22.3934 3.84785   5
  -1   1  -7 23.0862 4.02792   4
  -1   1  -7 16.9470 2.59211   6
  -1   1  -7 17.5457 3.85454   8
   1  -1   7 9.73059 2.38979   4
   1  -1   7 21.6625 6.08696   2
   1  -1   7 21.5782 4.93252   8
   1  -1   7 27.0941 4.36889   6
  -2   1  -7 89.5339 4.97774   6
  -2   1  -7 80.6410 6.61434   8
  -2   1  -7 95.0815 6.99238   5
   2  -1   7 81.3330 5.25352   6
   2  -1   7 89.7428 7.62318   8
   2  -1   7 88.6726 6.11179   4
   2  -1   7 71.6005 8.78080   2
   2  -1   7 82.1195 9.62098   3
  -3   1  -7 66.5695 5.60491   8
   3  -1   7 62.4886 6.29660   8
   3  -1   7 68.1697 4.45882   6
   3  -1   7 77.7028 9.49204   2
  -4   1  -7 0.98677 1.82120   5
  -4   1  -7 -0.4837 0.92083   8
   4  -1   7 2.42686 2.16267   2
   4  -1   7 -0.4460 0.75375   6
   4  -1   7 1.51027 1.49447   8
  -5   1  -7 317.982 12.0152   8
  -5   1  -7 312.380 16.7577   5
   5  -1   7 327.366 9.94671   6
   5  -1   7 340.215 21.6862   2
   5  -1   7 304.760 13.4370   8
  -6   1  -7 5.93883 2.79673   5
   6  -1   7 2.32271 2.85138   2
   6  -1   7 2.66826 1.33590   6
   6  -1   7 6.43063 2.25348   8
  -7   1  -7 9.37979 6.32137   5
   7  -1   7 14.7552 5.90196   2
   7  -1   7 15.0384 3.34600   8
   7  -1   7 13.4060 3.81971   6
  -8   1  -7 8.74076 3.96994   5
   8  -1   7 2.42926 1.99261   6
   8  -1   7 10.4252 5.73941   2
  -9   1  -7 8.26196 4.63381   5
   9  -1   7 5.11277 4.09913   2
   9  -1   7 3.71078 3.50157   7
 -10   1  -7 371.932 24.8350   5
  10  -1   7 374.554 24.3279   7
  10  -1   7 369.288 26.7811   2
 -11   1  -7 1.78772 4.56252   5
  11  -1   7 -2.4241 4.51124   2
  11  -1   7 7.49961 4.45202   7
  12  -1   7 36.8817 9.06940   4
  12  -1   7 79.2544 13.6201   2
  12  -1   7 53.3934 10.2791   7
  12   0  -7 116.478 11.4110   4
  12   0  -7 109.266 24.7379   6
  11   0  -7 67.3434 10.3873   4
  11   0  -7 64.0114 12.3392   6
  10   0  -7 3.88036 2.46622   6
  10   0  -7 2.23345 2.04441   7
  10   0  -7 3.75845 2.83100   4
   9   0  -7 329.827 18.2669   4
   9   0  -7 264.289 28.5840   6
   8   0  -7 -1.0745 2.16266   6
   8   0  -7 0.86779 1.66800   7
   8   0  -7 1.48181 1.62711   4
  -8   0   7 -3.7910 1.87361   7
   7   0  -7 766.029 24.2396   7
   7   0  -7 789.450 27.0365   4
   7   0  -7 733.006 29.8484   6
  -7   0   7 720.173 23.3890   7
   6   0  -7 30.6162 5.83406   4
   6   0  -7 29.5339 6.54974   6
   6   0  -7 18.2604 4.33467   7
  -6   0   7 30.1304 5.14819   7
   5   0  -7 6.88604 2.52624   4
   5   0  -7 10.1791 3.83064   6
  -5   0   7 9.26779 3.57833   7
   4   0  -7 56.1611 6.48501   6
   4   0  -7 68.0282 6.32403   4
  -4   0   7 76.5338 7.71369   7
   3   0  -7 64.2262 6.22390   6
   3   0  -7 60.0145 8.34117   4
  -3   0   7 81.3360 6.78853   2
  -3   0   7 69.1208 7.28922   7
   2   0  -7 1733.76 45.3498   8
   2   0  -7 1789.88 38.1854   6
   2   0  -7 1780.27 38.2589   4
  -2   0   7 1866.90 44.2705   2
  -2   0   7 1700.82 40.2115   4
  -2   0   7 1748.35 47.4109   8
   1   0  -7 238.066 9.37212   6
   1   0  -7 234.118 10.2021   4
   1   0  -7 247.655 13.5886   8
  -1   0   7 246.521 14.3062   2
  -1   0   7 239.852 12.2752   7
  -1   0   7 230.397 11.4294   6
  -1   0   7 228.742 11.0861   4
  -1   0   7 232.068 14.3571   8
   0   0  -7 15.2106 2.86102   5
   0   0  -7 12.8435 4.51535   8
   0   0  -7 20.5311 2.32495   6
   0   0  -7 17.2163 2.97135   4
   0   0   7 11.4825 2.86676   4
   0   0   7 26.0108 5.10153   2
   0   0   7 16.9690 3.43334   6
   0   0   7 27.8578 5.79180   8
   0   0   7 13.6802 4.21469   3
   0   0   7 8.23713 2.62830   7
  -1   0  -7 602.035 21.0063   8
  -1   0  -7 588.951 18.2994   5
  -1   0  -7 616.863 17.6362   4
  -1   0  -7 614.989 14.0803   6
   1   0   7 645.829 23.5338   8
   1   0   7 619.327 26.1398   3
   1   0   7 612.186 26.0664   2
   1   0   7 603.413 17.1055   6
   1   0   7 625.391 18.5803   4
  -2   0  -7 35.7489 4.56821   8
  -2   0  -7 36.2338 2.98413   6
  -2   0  -7 44.8384 6.55286   5
   2   0   7 36.9348 3.41083   6
   2   0   7 50.6627 11.7214   3
   2   0   7 34.1529 4.92396   4
   2   0   7 40.1995 6.34115   8
  -3   0  -7 289.755 14.0180   5
  -3   0  -7 305.596 13.1730   8
   3   0   7 318.001 15.0891   8
   3   0   7 300.594 19.4423   2
   3   0   7 288.929 13.7645   4
   3   0   7 304.111 9.52251   6
  -4   0  -7 8.50253 3.22024   5
  -4   0  -7 7.56232 2.19852   8
   4   0   7 6.88749 2.81160   8
   4   0   7 15.0557 6.23308   2
   4   0   7 5.09594 1.33687   6
  -5   0  -7 70.8605 8.07137   5
   5   0   7 65.7812 6.80694   8
   5   0   7 79.4027 13.7860   2
  -6   0  -7 177.701 13.4970   5
   6   0   7 134.209 9.74424   8
   6   0   7 136.065 14.8964   2
  -7   0  -7 2.39784 2.81329   5
   7   0   7 3.06193 2.32501   2
   7   0   7 0.31675 2.09352   8
   7   0   7 2.80004 1.19649   6
  -8   0  -7 2.56135 3.27148   5
   8   0   7 9.36863 2.94994   8
   8   0   7 11.4510 5.21757   2
  -9   0  -7 223.684 18.2422   5
   9   0   7 195.048 16.6904   7
   9   0   7 227.623 21.0199   2
 -10   0  -7 16.0387 5.88426   5
  10   0   7 31.0927 7.98131   7
  10   0   7 32.4431 10.5286   2
  11   0   7 23.7445 6.25227   4
  11   0   7 19.7183 7.35563   7
  11   0   7 11.6813 7.45749   2
  13  -1  -7 6.91720 6.46767   6
  13  -1  -7 9.58737 5.05876   4
  12  -1  -7 -7.0465 2.46467   6
  12  -1  -7 1.50048 3.23344   7
  12  -1  -7 -0.2049 3.88016   4
  11  -1  -7 309.118 16.4497   7
  11  -1  -7 285.370 21.5188   6
  11  -1  -7 294.599 18.8232   4
  10  -1  -7 16.4900 5.75126   6
  10  -1  -7 24.9542 5.86084   4
  10  -1  -7 26.5410 5.58425   7
   9  -1  -7 3.70151 2.43830   7
   9  -1  -7 1.84643 1.82162   4
   9  -1  -7 2.50737 2.92623   6
   8  -1  -7 0.27819 1.80000   7
   8  -1  -7 -0.6552 1.58738   4
   8  -1  -7 -0.8817 2.25837   6
   7  -1  -7 346.576 17.3975   4
   7  -1  -7 332.534 19.3578   6
   7  -1  -7 325.612 16.1766   7
   6  -1  -7 605.710 25.3597   6
   6  -1  -7 648.693 23.4817   4
   6  -1  -7 642.710 24.7374   7
   5  -1  -7 21.5399 5.04730   7
   5  -1  -7 30.5392 6.91598   6
   5  -1  -7 15.4466 3.82723   4
  -5   1   7 18.4200 3.74051   7
   4  -1  -7 75.2374 7.38870   6
   4  -1  -7 68.6297 6.45920   4
  -4   1   7 62.9789 6.40525   7
   3  -1  -7 998.446 26.9044   4
   3  -1  -7 999.220 27.5491   6
  -3   1   7 1044.89 35.1852   8
  -3   1   7 1001.80 29.6593   2
  -3   1   7 972.671 28.7610   7
   2  -1  -7 227.811 10.3053   6
   2  -1  -7 208.940 10.2158   4
  -2   1   7 232.806 12.4110   7
  -2   1   7 218.539 12.5116   3
  -2   1   7 232.754 13.8505   2
  -2   1   7 227.678 13.0297   4
  -2   1   7 245.490 15.3624   8
   1  -1  -7 -0.2266 0.68729   6
   1  -1  -7 0.15562 0.99394   4
   1  -1  -7 -0.9098 1.30041   8
  -1   1   7 1.75075 1.19658   4
  -1   1   7 -0.8769 1.25797   7
  -1   1   7 -0.7504 1.59871   3
  -1   1   7 0.93790 1.53144   8
   0  -1  -7 267.765 10.6814   4
   0  -1  -7 260.213 11.1263   5
   0  -1  -7 270.499 8.07277   6
   0  -1  -7 241.549 13.3670   8
   0   1   7 208.551 16.1334   7
   0   1   7 275.195 16.4821   3
   0   1   7 267.012 11.6805   4
   0   1   7 263.842 15.3068   8
  -1  -1  -7 66.0538 5.16079   4
  -1  -1  -7 68.7882 6.02938   5
  -1  -1  -7 64.1655 6.45956   8
   1   1   7 68.1146 7.43583   8
   1   1   7 69.7278 8.28728   3
   1   1   7 53.0773 5.03261   4
   1   1   7 61.7593 4.55851   6
  -2  -1  -7 342.237 15.1227   8
  -2  -1  -7 334.960 14.3342   5
   2   1   7 326.393 16.4933   8
   2   1   7 341.449 20.6638   2
   2   1   7 327.325 12.7647   4
  -3  -1  -7 63.7663 6.21593   8
  -3  -1  -7 73.2663 7.04586   5
   3   1   7 68.2539 5.62526   4
   3   1   7 75.8310 10.1321   2
   3   1   7 72.9290 7.77528   8
  -4  -1  -7 21.7873 4.37454   8
  -4  -1  -7 12.6935 3.93205   5
   4   1   7 24.0093 7.51775   2
   4   1   7 23.8217 5.52701   8
  -5  -1  -7 31.8419 7.11285   5
   5   1   7 38.0058 6.82745   8
   5   1   7 18.4410 6.38493   2
  -6  -1  -7 200.492 14.5950   5
   6   1   7 216.108 19.1361   2
  -7  -1  -7 22.8915 6.40764   5
   7   1   7 25.5084 8.24315   2
   7   1   7 26.7514 5.71311   8
  -8  -1  -7 92.5869 11.1487   5
   8   1   7 73.2304 7.93457   8
  -9  -1  -7 149.768 14.9680   5
   9   1   7 101.417 15.8905   2
   9   1   7 137.787 14.0989   7
   9   1   7 132.737 10.6132   8
 -10  -1  -7 3.22915 3.76397   5
  10   1   7 -1.5294 2.63104   4
  10   1   7 1.59804 3.80873   7
 -11  -1  -7 10.2182 6.16587   5
  11   1   7 17.7932 5.94492   7
  11   1   7 19.8149 4.90021   4
  11   1   7 6.61947 6.54980   2
  13  -2  -7 17.6844 7.06152   6
  13  -2  -7 3.78761 4.66683   4
  12  -2  -7 63.3587 10.0370   4
  12  -2  -7 54.2036 9.05159   7
  12  -2  -7 40.7781 9.01953   6
  11  -2  -7 236.507 17.2659   4
  11  -2  -7 246.441 20.1653   6
  11  -2  -7 246.184 15.5371   7
  10  -2  -7 8.17632 3.57926   4
  10  -2  -7 5.85807 3.20048   7
  10  -2  -7 19.3635 6.31983   6
   9  -2  -7 29.2354 6.65755   7
   9  -2  -7 21.0247 6.28725   6
   9  -2  -7 27.6079 5.97210   4
   8  -2  -7 486.278 21.5722   7
   8  -2  -7 458.603 24.5286   6
   8  -2  -7 503.630 22.5802   4
   7  -2  -7 12.2954 4.21434   7
   7  -2  -7 3.75401 2.65410   4
   7  -2  -7 4.82388 2.68017   6
   6  -2  -7 1367.57 37.9085   4
   6  -2  -7 1379.31 38.9741   7
   6  -2  -7 1358.57 40.9629   6
   5  -2  -7 307.087 16.3525   6
   5  -2  -7 298.660 15.8227   7
   5  -2  -7 291.702 14.7355   4
  -5   2   7 316.149 19.6456   8
   4  -2  -7 2354.66 55.3882   7
   4  -2  -7 2461.21 54.0246   6
   4  -2  -7 2413.51 51.8144   4
  -4   2   7 2355.88 61.6050   8
   3  -2  -7 1371.96 34.0498   6
  -3   2   7 1411.25 39.0253   3
  -3   2   7 1376.45 42.7217   8
   2  -2  -7 3.17791 1.94577   6
   2  -2  -7 3.13733 1.49124   4
  -2   2   7 6.01287 2.86926   3
  -2   2   7 5.22858 3.40094   8
   1  -2  -7 336.628 12.6669   4
   1  -2  -7 336.668 10.6068   6
  -1   2   7 311.032 13.7313   4
  -1   2   7 338.530 17.5539   3
   0  -2  -7 151.128 5.13210   6
   0  -2  -7 152.717 8.56732   5
   0  -2  -7 155.867 7.97582   4
   0   2   7 144.196 13.8027   8
   0   2   7 151.427 12.3534   3
   0   2   7 151.150 8.87732   4
  -1  -2  -7 36.1855 3.91611   4
  -1  -2  -7 35.2245 5.03181   5
   1   2   7 39.6117 8.56139   8
   1   2   7 41.0101 5.79673   4
  -2  -2  -7 993.376 27.9470   5
   2   2   7 973.053 25.2004   4
  -3  -2  -7 276.742 14.3417   5
   3   2   7 278.541 15.8769   8
   3   2   7 273.645 11.4805   4
  -4  -2  -7 359.242 17.6419   5
   4   2   7 323.245 17.3393   8
  -5  -2  -7 258.038 15.8894   5
   5   2   7 256.890 15.7027   8
   5   2   7 260.149 21.1460   2
  -6  -2  -7 56.9490 8.81020   5
   6   2   7 65.6391 7.74533   8
   6   2   7 57.9446 11.0159   2
  -7  -2  -7 296.519 19.5317   5
   7   2   7 267.976 16.2739   8
   7   2   7 322.258 24.9633   2
  -8  -2  -7 0.84975 2.92022   5
   8   2   7 -0.3810 4.72210   2
   8   2   7 5.27255 3.76182   8
  -9  -2  -7 17.4203 6.33520   5
   9   2   7 6.18043 6.20152   2
   9   2   7 -0.4109 4.20667   8
 -10  -2  -7 136.535 15.4417   5
  10   2   7 131.582 13.3811   4
  10   2   7 176.759 18.3675   2
  10   2   7 141.064 14.6888   7
  13  -3  -7 8.45581 5.53363   7
  13  -3  -7 1.40065 4.18361   4
  13  -3  -7 15.8924 7.30697   6
  12  -3  -7 21.7599 6.58420   6
  12  -3  -7 15.8949 5.51813   7
  12  -3  -7 36.2004 7.55890   4
  11  -3  -7 6.25454 4.26189   6
  11  -3  -7 3.85764 3.21048   7
  11  -3  -7 -3.2290 2.42820   4
  10  -3  -7 134.282 12.0281   7
  10  -3  -7 129.352 12.5103   4
  10  -3  -7 160.574 15.7123   6
   9  -3  -7 8.28542 3.49727   7
   9  -3  -7 8.98011 4.17765   6
   9  -3  -7 5.15142 3.13070   4
   8  -3  -7 168.483 14.5256   6
   8  -3  -7 157.768 12.4666   4
   8  -3  -7 163.182 12.9263   7
   7  -3  -7 270.742 17.5576   6
   7  -3  -7 276.901 16.3371   7
   7  -3  -7 249.318 15.1017   4
   6  -3  -7 133.757 11.4658   6
   6  -3  -7 129.249 10.3008   4
   6  -3  -7 138.456 11.3594   7
  -6   3   7 118.091 12.6219   8
   5  -3  -7 77.2074 8.36838   7
   5  -3  -7 92.4879 8.87020   6
   5  -3  -7 79.9427 7.78429   4
  -5   3   7 98.2429 7.66979   2
  -5   3   7 86.9072 10.5915   8
   4  -3  -7 86.9911 7.55558   4
   4  -3  -7 89.0675 7.89640   6
   4  -3  -7 82.5722 8.52767   7
  -4   3   7 87.2840 9.97475   8
   3  -3  -7 41.7560 4.95101   6
   3  -3  -7 32.9753 5.32358   4
  -3   3   7 36.0215 8.18516   8
  -3   3   7 30.7386 5.31669   3
   2  -3  -7 420.068 14.0911   6
  -2   3   7 426.818 21.8092   8
  -2   3   7 397.769 18.2644   3
   1  -3  -7 118.753 5.50842   6
   1  -3  -7 117.768 7.22738   4
  -1   3   7 122.088 11.2061   8
  -1   3   7 122.876 12.3282   3
  -1   3   7 120.618 8.53274   4
   0  -3  -7 379.468 14.6504   5
   0  -3  -7 367.745 13.0405   4
   0   3   7 383.651 15.0433   4
   0   3   7 383.152 20.1936   8
   0   3   7 382.802 20.9617   3
  -1  -3  -7 7.63903 2.45062   5
   1   3   7 17.1785 5.08755   8
   1   3   7 15.8439 3.24218   4
  -2  -3  -7 371.190 16.1619   5
   2   3   7 363.845 19.4337   8
   2   3   7 353.651 13.6911   4
  -3  -3  -7 9.32929 3.45506   5
   3   3   7 6.08330 2.15438   4
   3   3   7 2.19164 2.48035   8
  -4  -3  -7 3.04759 2.31306   5
   4   3   7 0.04910 1.47992   8
   4   3   7 5.19656 2.35586   4
  -5  -3  -7 303.448 17.6515   5
   5   3   7 268.640 17.1560   8
  -6  -3  -7 12.0572 5.11411   5
   6   3   7 11.7245 5.57124   2
   6   3   7 7.83820 4.36920   8
  -7  -3  -7 18.1391 6.13473   5
   7   3   7 13.8036 4.65089   8
   7   3   7 2.26144 5.43244   2
  -8  -3  -7 58.0607 11.4618   5
   8   3   7 47.9759 12.2356   2
   8   3   7 49.2447 8.06335   8
  -9  -3  -7 7.14842 4.86229   5
   9   3   7 6.51292 5.08253   8
   9   3   7 0.52328 4.53845   2
 -10  -3  -7 303.442 22.5487   5
  10   3   7 272.947 24.5666   2
  10   3   7 291.434 20.5005   7
  13  -4  -7 5.79677 5.15757   6
  13  -4  -7 14.8773 5.54949   7
  13  -4  -7 -0.6517 4.64077   4
  12  -4  -7 11.5858 5.41631   7
  12  -4  -7 9.44675 5.09843   4
  12  -4  -7 5.12037 4.87042   6
  11  -4  -7 61.5684 9.97823   7
  11  -4  -7 60.1068 11.2175   6
  11  -4  -7 64.1292 10.9319   4
  10  -4  -7 56.4252 10.3714   7
  10  -4  -7 66.2761 11.8307   6
  10  -4  -7 53.3849 9.27392   4
   9  -4  -7 43.3967 9.39151   6
   9  -4  -7 18.4515 6.39326   4
   9  -4  -7 26.6050 6.48627   7
   8  -4  -7 10.9040 4.34379   4
   8  -4  -7 10.5208 4.53903   7
   8  -4  -7 17.5895 5.82156   6
   7  -4  -7 -1.0800 1.94194   4
   7  -4  -7 2.35320 2.14824   6
   7  -4  -7 1.41376 2.08875   7
  -7   4   7 0.72211 2.46822   8
   6  -4  -7 69.3179 7.76083   4
   6  -4  -7 79.2098 9.05000   6
   6  -4  -7 67.0929 8.48515   7
  -6   4   7 92.7847 11.0954   8
  -6   4   7 79.0432 7.21780   2
   5  -4  -7 117.828 9.33252   4
   5  -4  -7 117.068 10.1197   6
   5  -4  -7 126.347 11.3708   7
  -5   4   7 89.6296 8.29953   2
  -5   4   7 114.943 12.4074   8
   4  -4  -7 12.5321 3.76402   4
   4  -4  -7 4.16315 2.28478   7
   4  -4  -7 4.98568 2.31647   6
  -4   4   7 2.26844 2.98263   8
   3  -4  -7 389.870 15.6619   4
   3  -4  -7 429.320 16.1783   6
  -3   4   7 401.476 22.3120   8
  -3   4   7 394.522 16.9848   3
   2  -4  -7 78.8943 5.46786   6
   2  -4  -7 65.1180 5.77847   4
  -2   4   7 70.6939 9.23162   8
  -2   4   7 86.8077 8.69273   3
   1  -4  -7 94.5642 6.41938   4
  -1   4   7 86.0076 8.76519   4
  -1   4   7 85.3814 9.91580   8
  -1   4   7 92.8836 9.61383   3
   0  -4  -7 229.665 9.74249   4
   0  -4  -7 203.140 10.8380   5
   0   4   7 222.470 11.3662   4
   0   4   7 216.164 15.5468   8
  -1  -4  -7 0.70832 1.79353   5
   1   4   7 0.45643 1.95500   8
   1   4   7 4.33851 1.84847   4
  -2  -4  -7 -1.4518 0.85272   5
   2   4   7 -1.2962 1.97928   8
   2   4   7 0.33624 1.54591   4
  -3  -4  -7 5.00828 2.42171   5
   3   4   7 -0.9881 1.69666   8
   3   4   7 1.52876 1.65520   4
  -4  -4  -7 69.7525 8.07047   5
   4   4   7 65.2003 5.66273   4
   4   4   7 71.4774 9.34745   8
  -5  -4  -7 594.801 25.9400   5
   5   4   7 520.609 18.6425   4
   5   4   7 591.614 27.5970   8
  -6  -4  -7 198.778 19.9639   5
   6   4   7 186.960 15.2836   8
   6   4   7 183.230 19.4871   2
  -7  -4  -7 0.14797 2.86695   5
   7   4   7 -3.3815 4.22443   2
   7   4   7 6.30443 4.72940   8
  -8  -4  -7 8.75399 4.90035   5
   8   4   7 9.24395 6.83598   2
   8   4   7 4.40189 3.91833   8
  -9  -4  -7 20.2795 8.04010   5
   9   4   7 35.1786 8.27753   8
   9   4   7 45.8891 15.1233   2
  13  -5  -7 65.3664 12.9376   4
  13  -5  -7 62.1290 10.8803   7
  13  -5  -7 47.9148 11.7001   6
  12  -5  -7 52.9122 10.1700   7
  12  -5  -7 49.0999 10.0517   6
  12  -5  -7 36.1249 9.56625   4
  11  -5  -7 171.238 15.2526   4
  11  -5  -7 205.882 16.6518   7
  11  -5  -7 191.252 18.4539   6
  10  -5  -7 1.89598 2.55581   6
  10  -5  -7 -5.3764 1.89948   4
  10  -5  -7 2.94271 3.00561   7
   9  -5  -7 38.3354 7.79126   4
   9  -5  -7 46.0686 10.5740   6
   9  -5  -7 48.5584 9.71617   7
   8  -5  -7 5.20706 3.40671   6
   8  -5  -7 9.32505 4.12937   4
   8  -5  -7 8.59361 4.05102   7
  -8   5   7 9.57901 4.08151   8
   7  -5  -7 566.605 26.4505   7
   7  -5  -7 532.826 23.2914   4
   7  -5  -7 527.958 25.6731   6
  -7   5   7 557.620 29.1915   8
   6  -5  -7 478.626 24.1870   7
   6  -5  -7 509.627 23.5330   6
   6  -5  -7 494.894 21.2660   4
  -6   5   7 537.093 28.0089   8
  -6   5   7 477.340 20.8717   2
   5  -5  -7 47.1479 8.45559   6
   5  -5  -7 43.5783 7.82366   7
   5  -5  -7 38.9670 6.43508   4
  -5   5   7 44.1624 9.69571   8
   4  -5  -7 5.76774 2.81813   6
   4  -5  -7 3.91219 2.35908   4
   4  -5  -7 7.98098 3.64922   7
  -4   5   7 8.13048 4.54540   8
  -4   5   7 2.74338 2.12713   3
   3  -5  -7 15.1212 3.61537   6
   3  -5  -7 10.8306 3.44194   4
  -3   5   7 7.34719 4.30067   8
  -3   5   7 12.0539 3.66292   3
   2  -5  -7 101.283 7.10961   4
  -2   5   7 84.9278 9.09546   3
  -2   5   7 120.109 12.1013   8
   1  -5  -7 18.1835 3.45392   4
  -1   5   7 30.2633 7.53728   8
   0  -5  -7 3.42205 2.29699   5
   0  -5  -7 4.99659 1.76353   4
   0   5   7 5.52628 3.36581   8
   0   5   7 2.54508 1.93327   4
  -1  -5  -7 191.514 17.6853   3
  -1  -5  -7 218.452 12.1719   5
   1   5   7 189.204 10.3588   4
   1   5   7 213.785 16.3517   8
  -2  -5  -7 67.9189 7.14147   5
  -2  -5  -7 65.3684 13.3365   3
   2   5   7 61.3073 5.56070   4
   2   5   7 68.1822 11.8819   8
  -3  -5  -7 43.9280 6.94306   5
   3   5   7 81.9854 10.3323   8
  -4  -5  -7 84.8435 9.32432   5
   4   5   7 113.616 12.3307   8
  -5  -5  -7 -0.0798 2.65746   5
   5   5   7 -2.4466 2.35753   8
  -6  -5  -7 308.708 19.9613   5
   6   5   7 293.734 20.6168   8
  -7  -5  -7 12.7272 5.78675   5
   7   5   7 15.4887 7.11543   2
   7   5   7 11.0501 4.37514   8
  -8  -5  -7 35.9349 8.68984   5
   8   5   7 66.3184 11.5998   8
  12  -6  -7 17.5238 6.41172   7
  12  -6  -7 30.0624 11.7318   6
  12  -6  -7 23.3005 7.00346   4
  11  -6  -7 250.923 18.5443   4
  11  -6  -7 217.034 18.1310   7
  11  -6  -7 253.198 21.0660   6
  10  -6  -7 1.13406 3.05799   4
  10  -6  -7 3.64321 4.74248   6
  10  -6  -7 5.85673 3.50029   7
   9  -6  -7 34.8136 8.19329   7
   9  -6  -7 53.7714 8.94911   4
   9  -6  -7 42.7879 8.57063   6
   8  -6  -7 755.652 33.0963   7
   8  -6  -7 723.826 32.5650   6
   8  -6  -7 751.311 30.0921   4
  -8   6   7 775.792 36.7023   8
   7  -6  -7 63.9320 11.2862   7
   7  -6  -7 78.2000 12.3688   6
   7  -6  -7 72.8900 10.9674   4
  -7   6   7 84.0598 13.3069   8
   6  -6  -7 176.684 14.8993   7
   6  -6  -7 179.281 13.4273   6
   6  -6  -7 181.754 12.4780   4
  -6   6   7 193.761 16.7889   8
   5  -6  -7 -1.1356 1.89104   7
   5  -6  -7 -0.7488 2.26228   6
   5  -6  -7 1.46935 1.57078   4
  -5   6   7 0.82666 2.13286   8
   4  -6  -7 1.94037 1.70896   7
   4  -6  -7 1.67955 2.39688   6
   4  -6  -7 -0.0785 1.29924   4
  -4   6   7 0.43767 2.65315   8
   3  -6  -7 721.354 22.1389   4
  -3   6   7 691.194 31.9545   8
  -3   6   7 649.771 25.3079   3
  -2   6   7 3.97526 3.59446   8
   1  -6  -7 0.53249 1.80135   5
   1  -6  -7 4.56273 3.36824   3
   1  -6  -7 6.16937 3.16803   4
   0  -6  -7 505.009 19.3108   5
   0  -6  -7 517.847 29.5146   3
   0   6   7 511.350 27.0256   8
   0   6   7 469.618 17.6181   4
  -1  -6  -7 6.26210 2.80282   5
  -1  -6  -7 2.84553 3.76369   3
   1   6   7 -1.4786 2.13430   4
   1   6   7 3.42019 2.59274   8
  -2  -6  -7 13.4726 3.98464   5
  -2  -6  -7 25.2717 9.11868   3
   2   6   7 8.27253 2.89482   4
   2   6   7 20.9416 6.59917   8
  -3  -6  -7 -1.0004 1.77101   5
  -3  -6  -7 -2.8524 6.74513   3
   3   6   7 -0.0611 3.08941   8
  -4  -6  -7 4.32907 2.24477   5
   4   6   7 -2.8383 2.53431   8
  -5  -6  -7 286.610 18.3791   5
   5   6   7 280.815 21.0083   8
  -6  -6  -7 6.25950 4.36196   5
   6   6   7 8.34889 3.95136   8
  -7  -6  -7 -3.6242 3.87129   5
   7   6   7 -8.3935 3.66055   8
  12  -7  -7 157.856 15.2490   4
  12  -7  -7 194.428 28.0038   7
  12  -7  -7 165.959 17.7022   6
  11  -7  -7 32.9989 7.90716   7
  11  -7  -7 16.3801 5.85954   4
  11  -7  -7 16.1330 6.67675   6
  10  -7  -7 5.16391 3.95152   7
  10  -7  -7 7.11208 4.62819   4
  10  -7  -7 11.0826 6.13485   6
   9  -7  -7 73.1359 11.7427   6
   9  -7  -7 116.181 11.4646   4
   9  -7  -7 129.431 13.8066   7
  -9   7   7 105.637 13.4621   8
   8  -7  -7 148.889 14.0084   6
   8  -7  -7 143.162 12.3257   4
   8  -7  -7 146.084 14.2411   7
   7  -7  -7 1.44210 2.17001   6
   7  -7  -7 0.18407 2.16392   4
  -7   7   7 2.33694 2.49414   8
   6  -7  -7 61.8099 9.88568   6
   6  -7  -7 47.1173 10.0741   7
   6  -7  -7 69.9946 7.67536   4
  -6   7   7 61.7133 12.0408   8
   5  -7  -7 42.1849 9.15008   7
   5  -7  -7 23.1616 4.83314   4
  -5   7   7 30.4596 8.65764   8
   4  -7  -7 5.69475 3.50284   7
   4  -7  -7 10.9572 3.31493   4
  -4   7   7 17.7650 6.72533   8
   3  -7  -7 -2.6401 1.14898   4
   3  -7  -7 0.27775 1.37882   6
  -3   7   7 4.14931 2.89745   8
   2  -7  -7 28.1188 8.73703   3
  -2   7   7 21.0785 5.88043   8
   1  -7  -7 43.4430 9.56234   3
   1  -7  -7 66.6482 6.75981   5
  -1   7   7 52.8425 9.55496   8
   0  -7  -7 303.595 15.0468   5
   0  -7  -7 281.228 22.8886   3
   0   7   7 280.970 12.9040   4
   0   7   7 287.438 20.9532   8
  -1  -7  -7 2.91632 4.38147   3
  -1  -7  -7 7.83607 3.15584   5
   1   7   7 3.51722 4.28552   8
  -2  -7  -7 258.792 15.3466   5
  -2  -7  -7 264.152 24.2390   3
   2   7   7 264.309 20.6344   8
  -3  -7  -7 33.9550 6.64263   5
  -3  -7  -7 38.4821 11.9080   3
   3   7   7 39.9708 10.3186   8
  -4  -7  -7 9.76534 6.05243   3
  -4  -7  -7 6.66482 3.62337   5
   4   7   7 7.81086 4.82376   8
  -5  -7  -7 -0.9395 2.92340   5
   5   7   7 12.0012 5.45806   8
  -6  -7  -7 -5.0984 4.06219   5
   6   7   7 -1.3208 4.69462   8
  12  -8  -7 63.2552 12.3381   7
  12  -8  -7 69.9802 11.9026   4
  12  -8  -7 72.0265 13.8840   6
  11  -8  -7 15.8673 6.54975   4
  11  -8  -7 13.1968 6.03144   7
  11  -8  -7 8.53747 5.80248   6
  10  -8  -7 669.865 30.8416   4
  10  -8  -7 722.097 35.9235   6
  10  -8  -7 725.279 36.1662   7
   9  -8  -7 15.1686 5.77183   6
   9  -8  -7 15.4577 5.55133   4
   9  -8  -7 1.71728 3.92750   7
  -9   8   7 14.4577 6.41892   8
   8  -8  -7 65.5565 9.79835   4
   8  -8  -7 88.1270 14.8511   7
   8  -8  -7 63.7048 10.4113   6
  -8   8   7 99.9064 16.6555   8
   7  -8  -7 126.022 12.2985   6
   7  -8  -7 137.325 11.6940   4
   7  -8  -7 175.020 16.1595   7
  -7   8   7 173.883 17.2027   8
   6  -8  -7 24.2229 5.74533   4
   6  -8  -7 31.3759 7.63129   7
  -6   8   7 22.4114 7.47128   8
   5  -8  -7 716.154 33.4661   7
   5  -8  -7 709.686 24.6882   4
  -5   8   7 670.093 50.4299   8
   3  -8  -7 -0.8594 0.82712   4
   3  -8  -7 1.16021 2.81972   3
  -3   8   7 -3.1729 3.85570   8
   2  -8  -7 247.643 13.2995   5
   2  -8  -7 267.848 20.6149   3
  -2   8   7 276.478 21.2792   8
   1  -8  -7 11.7535 6.56050   3
   1  -8  -7 12.2428 3.89145   5
  -1   8   7 24.1846 7.76999   8
   0  -8  -7 26.5963 10.2031   3
   0  -8  -7 9.87466 3.99599   5
   0   8   7 10.5392 5.62027   8
  -1  -8  -7 241.612 14.6254   5
  -1  -8  -7 253.374 23.5437   3
   1   8   7 273.574 21.6579   8
  -2  -8  -7 3.06535 6.90196   3
   2   8   7 6.64950 4.79435   8
  -3  -8  -7 167.979 21.4584   3
   3   8   7 182.547 18.6859   8
  -4  -8  -7 96.3512 20.0387   3
   4   8   7 77.3657 14.6242   8
   5   8   7 103.342 18.1491   8
  11  -9  -7 34.1738 9.63749   7
  11  -9  -7 24.8824 7.53959   4
  11  -9  -7 20.9222 14.0096   6
  10  -9  -7 1.34991 5.47023   7
  10  -9  -7 -0.5932 5.20426   6
  10  -9  -7 17.2639 6.29651   4
 -10   9   7 1.83964 6.31371   8
   9  -9  -7 1.74988 3.64094   6
   9  -9  -7 5.55243 4.39247   4
   9  -9  -7 6.64532 4.44425   7
  -9   9   7 -3.7325 4.07886   8
   8  -9  -7 22.9484 7.45064   7
   8  -9  -7 19.0473 6.27964   6
   8  -9  -7 26.8816 6.50166   4
  -8   9   7 20.1869 8.29299   8
   7  -9  -7 55.0145 11.2504   7
   7  -9  -7 55.7746 9.44490   4
  -7   9   7 49.4274 11.6533   8
   6  -9  -7 -1.7523 3.24181   7
   6  -9  -7 -0.8351 2.35048   6
   6  -9  -7 6.27265 3.02622   4
  -6   9   7 6.47881 4.28222   8
   5  -9  -7 52.4170 10.4590   7
  -5   9   7 78.8016 14.3795   8
  -4   9   7 11.2472 6.03586   8
   3  -9  -7 -1.2155 1.05211   4
   3  -9  -7 5.87282 3.19818   3
  -3   9   7 -2.1785 2.98919   8
   2  -9  -7 18.6672 4.58215   5
   2  -9  -7 14.8346 6.58893   3
  -2   9   7 17.3676 6.16098   8
   1  -9  -7 14.5985 3.87569   5
  -1   9   7 17.6516 6.39962   8
   0  -9  -7 -1.1695 4.91904   3
   0  -9  -7 1.29422 2.03383   5
  -1  -9  -7 242.430 24.4283   3
   1   9   7 238.439 21.4085   8
  -2  -9  -7 24.0602 10.9578   3
   2   9   7 22.5118 8.15292   8
   3   9   7 49.6125 15.6550   8
  -4  -9  -7 1.47908 5.17360   5
   4   9   7 16.4405 7.86623   8
  10 -10  -7 -0.2003 3.19702   7
  10 -10  -7 0.16933 4.12024   4
   9 -10  -7 55.4034 12.8214   7
   9 -10  -7 51.7315 9.90935   4
  -9  10   7 66.6192 13.8282   8
   8 -10  -7 0.83357 3.22491   6
   8 -10  -7 0.99998 3.49108   4
  -8  10   7 9.38684 6.31933   8
   7 -10  -7 15.1633 6.93331   7
   7 -10  -7 12.3282 3.75221   4
  -7  10   7 19.5506 7.85475   8
   6 -10  -7 11.9671 5.88451   7
  -6  10   7 3.50721 4.03269   8
   5 -10  -7 -1.8785 1.38043   4
  -5  10   7 19.3903 7.05238   8
   4 -10  -7 36.1247 9.60268   3
  -4  10   7 29.9505 8.53286   8
   3 -10  -7 44.2296 10.4364   3
   3 -10  -7 52.4315 6.35919   5
  -3  10   7 29.0664 9.27111   8
   2 -10  -7 10.5932 4.43059   5
   2 -10  -7 13.3437 7.40546   3
  -2  10   7 25.9179 8.31183   8
   1 -10  -7 91.4791 16.1735   3
  -1  10   7 133.228 16.1565   8
   0 -10  -7 51.9547 13.7646   3
   0  10   7 33.5901 8.53819   8
  -1 -10  -7 14.4901 7.63888   3
   1  10   7 7.47058 6.79273   8
  -2 -10  -7 67.5943 16.5426   3
   2  10   7 36.1565 9.76785   8
   9 -11  -7 -8.6313 4.00068   6
   9 -11  -7 20.6701 6.67554   4
   9 -11  -7 -2.8269 5.41422   7
  -9  11   7 5.04397 5.31568   8
   8 -11  -7 76.3880 13.7058   7
  -8  11   7 32.5804 10.8719   8
   7 -11  -7 36.7876 9.93206   7
   7 -11  -7 9.11538 5.15292   6
  -7  11   7 23.1635 8.44706   8
   6 -11  -7 16.0063 5.73516   6
   6 -11  -7 1.86910 3.86435   7
   6 -11  -7 0.57708 2.44325   4
  -6  11   7 0.71083 4.61994   8
  -5  11   7 104.771 16.4931   8
   4 -11  -7 37.8264 9.97224   3
  -4  11   7 32.1938 8.75580   8
   3 -11  -7 12.2033 6.80012   3
  -3  11   7 11.8179 7.68196   8
   2 -11  -7 4.82824 5.86463   3
  -2  11   7 6.51881 5.19880   8
   1 -11  -7 -2.3962 3.43051   5
   1 -11  -7 2.07288 5.85577   3
   0 -11  -7 183.089 24.3245   3
   0  11   7 195.679 21.6958   8
  -6  12   7 19.8316 8.84423   8
   5 -12  -7 3.65095 3.12969   5
  -5  12   7 -1.1030 5.23705   8
   4 -12  -7 24.9926 8.23142   3
  -4  12   7 23.6051 9.00377   8
  -1  14  -8 -4.8768 3.52815   8
  -1  14  -8 1.78379 4.21916   6
   1 -14   8 -5.8180 10.9638   3
  -2  14  -8 22.1928 7.20577   8
   2 -14   8 28.5914 10.7401   3
  -3  14  -8 1.51747 3.49369   8
  -4  14  -8 1.10242 3.69953   8
   4 -14   8 -6.7846 4.52897   3
   4 -14   8 -0.6816 5.28425   2
   4 -14   8 5.12583 4.75151   7
  -5  14  -8 -0.6579 4.61679   8
   5 -14   8 1.22052 4.10393   7
   5 -14   8 1.39999 4.95821   2
   5 -14   8 14.6002 9.09594   3
   6 -14   8 8.61668 6.00849   2
   6 -14   8 11.0235 7.82717   3
   6 -14   8 -2.9623 3.46654   7
   7 -14   8 113.570 21.2814   2
   7 -14   8 106.362 19.1714   3
   7 -14   8 57.9317 11.9450   7
   1  13  -8 20.5550 7.13158   8
   1  13  -8 23.8640 6.40548   6
  -1 -13   8 38.3909 12.8839   3
   0  13  -8 -2.0493 3.10155   6
   0  13  -8 3.73511 3.63969   8
  -1  13  -8 51.1555 9.94519   8
  -1  13  -8 75.3822 11.3565   6
   1 -13   8 76.4376 16.1197   3
  -2  13  -8 13.7665 5.11928   6
  -2  13  -8 9.52198 4.36911   8
   2 -13   8 10.7218 6.27059   2
   2 -13   8 8.79910 7.40666   3
  -4  13  -8 -6.4541 3.12555   8
   4 -13   8 3.00558 4.98928   2
   4 -13   8 1.01810 2.99575   7
   4 -13   8 11.1009 6.53746   3
  -5  13  -8 4.28725 2.87418   8
   5 -13   8 5.88600 5.28803   2
   5 -13   8 4.68368 3.40855   7
   6 -13   8 110.286 11.9914   7
   7 -13   8 -0.5835 3.15297   7
   8 -13   8 7.57177 5.00429   2
   8 -13   8 1.26890 4.32532   7
   9 -13   8 15.6188 7.78739   7
   9 -13   8 18.7682 7.92139   2
   3  12  -8 16.4914 5.35278   6
   3  12  -8 34.3467 9.23479   8
  -3 -12   8 -0.8537 7.45425   3
   2  12  -8 -1.1184 3.75199   8
   2  12  -8 3.60504 3.44507   6
  -2 -12   8 6.38693 8.60378   3
   1  12  -8 137.023 11.7538   6
   1  12  -8 119.238 13.8455   8
  -1 -12   8 158.950 20.0112   3
   0  12  -8 69.3794 8.60925   6
   0  12  -8 58.9895 10.0752   8
   0 -12   8 90.5202 19.1453   3
  -1  12  -8 7.37904 3.54143   6
  -1  12  -8 0.40128 3.39029   8
   1 -12   8 5.20683 4.31442   3
   1 -12   8 3.07449 3.68650   2
  -2  12  -8 -2.5001 2.48165   8
  -2  12  -8 -3.2171 2.24247   6
   2 -12   8 1.46822 4.20476   3
   2 -12   8 -0.2822 2.53130   7
   2 -12   8 -0.2428 3.21056   2
  -3  12  -8 79.8246 9.95443   6
   3 -12   8 50.7396 13.0603   3
   3 -12   8 46.9710 9.78905   2
   4 -12   8 21.3138 7.92290   2
   5 -12   8 23.2196 6.01000   7
   5 -12   8 65.2965 15.3908   2
   6 -12   8 13.9044 7.52663   2
   6 -12   8 16.0338 5.34316   7
   7 -12   8 43.9482 11.0596   2
   7 -12   8 24.4091 7.05708   7
   8 -12   8 23.6904 6.50622   2
   8 -12   8 14.3628 5.89944   7
   9 -12   8 -0.7104 4.13750   2
   9 -12   8 2.64088 4.18415   7
  10 -12   8 25.3687 7.80821   7
  10 -12   8 27.8807 9.63355   2
   5  11  -8 107.191 10.0445   6
  -5 -11   8 83.2874 17.7970   3
   4  11  -8 167.165 12.6030   6
   4  11  -8 169.565 17.4169   8
   3  11  -8 37.6231 9.03631   8
   3  11  -8 25.2617 5.41362   6
  -3 -11   8 29.6060 9.73734   3
   2  11  -8 4.62009 3.22389   6
   2  11  -8 6.98558 4.15732   8
  -2 -11   8 2.98823 4.57798   3
   1  11  -8 52.8824 9.14988   8
   1  11  -8 44.1060 7.11464   6
  -1 -11   8 48.7174 11.8998   3
   0  11  -8 0.19842 1.76320   6
   0  11  -8 -1.5250 2.43321   8
   0 -11   8 -6.6144 3.07801   2
   0 -11   8 -5.2790 3.46418   3
  -1  11  -8 22.4921 5.62230   8
  -1  11  -8 30.3767 6.73800   6
   1 -11   8 28.5155 7.49451   2
   1 -11   8 25.6247 8.78809   3
  -2  11  -8 95.2110 9.70080   6
  -2  11  -8 75.5654 9.09557   8
   2 -11   8 92.6659 15.9166   2
   4 -11   8 210.982 19.7622   2
   4 -11   8 136.272 11.8673   7
  -5  11  -8 1.91644 1.69008   8
   5 -11   8 2.47122 3.08082   7
   5 -11   8 -4.1843 2.29289   2
   6 -11   8 3.91606 4.59514   2
   7 -11   8 230.342 17.9168   7
   7 -11   8 244.519 22.3061   2
   8 -11   8 7.38402 4.54280   2
   8 -11   8 5.04698 4.23280   7
   9 -11   8 44.6592 11.5155   2
   9 -11   8 32.9493 9.12505   7
  10 -11   8 50.8269 12.0857   7
  10 -11   8 28.2529 8.49954   2
  11 -11   8 -2.0600 5.48200   2
  11 -11   8 15.9681 7.55600   7
   6  10  -8 106.010 16.5268   8
   6  10  -8 127.337 12.0746   6
  -6 -10   8 129.109 23.3490   3
   5  10  -8 86.9668 8.81217   6
  -5 -10   8 75.1244 15.0994   3
   4  10  -8 16.0485 4.35261   6
  -4 -10   8 21.3417 9.46167   3
  -3 -10   8 14.5517 6.50534   3
   2  10  -8 208.654 13.2068   6
  -2 -10   8 219.401 21.5159   3
   1  10  -8 1.93027 2.12704   6
  -1 -10   8 6.07962 3.65859   2
  -1 -10   8 -5.1033 3.74201   3
   0  10  -8 153.158 11.2543   6
   0 -10   8 153.377 15.3414   2
   0 -10   8 133.870 15.8492   3
  -1  10  -8 65.9012 11.5858   6
   1 -10   8 78.5526 13.9879   2
  -2  10  -8 87.1477 9.36659   8
  -2  10  -8 107.336 9.83103   6
   2 -10   8 114.241 13.3350   2
  -3  10  -8 116.356 9.65998   8
   3 -10   8 151.828 11.4912   7
  -4  10  -8 14.1492 4.86612   6
   4 -10   8 23.0485 6.03171   7
   4 -10   8 13.9602 4.77617   2
   5 -10   8 22.1216 7.98489   2
   5 -10   8 37.7675 7.40881   7
   6 -10   8 5.03212 2.86299   7
   6 -10   8 0.13332 2.69997   2
   7 -10   8 33.1484 10.5681   2
   7 -10   8 46.8485 9.40252   7
   8 -10   8 244.194 22.1495   2
   8 -10   8 244.878 18.7832   7
   9 -10   8 25.5247 6.99842   7
   9 -10   8 38.5397 11.7339   2
  10 -10   8 8.93629 5.17389   2
  10 -10   8 3.05093 4.31720   7
  11 -10   8 17.4081 10.9375   2
  11 -10   8 25.3934 7.74129   7
   7   9  -8 14.3892 4.30522   6
  -7  -9   8 -0.2112 8.90504   3
  -6  -9   8 50.9772 14.1031   3
   5   9  -8 38.6900 6.34749   6
  -5  -9   8 55.3501 12.6797   3
   4   9  -8 399.018 18.3448   6
  -4  -9   8 401.839 29.4750   3
   3   9  -8 3.79515 2.05437   6
  -3  -9   8 5.81404 4.33735   3
   2   9  -8 18.9945 6.55589   6
  -2  -9   8 11.0463 6.88731   3
  -2  -9   8 27.8005 8.20296   2
   1   9  -8 93.3204 8.27718   6
  -1  -9   8 83.1873 10.5912   2
  -1  -9   8 103.179 13.3893   3
   0   9  -8 46.1385 5.83051   6
   0  -9   8 54.1869 9.98099   2
  -1   9  -8 176.697 11.6387   6
   1  -9   8 191.255 16.4735   2
  -2   9  -8 39.1384 6.37616   6
   2  -9   8 47.0698 5.73572   7
   2  -9   8 36.4783 8.04446   2
  -3   9  -8 158.736 11.6800   6
   3  -9   8 170.174 12.1993   7
   3  -9   8 172.004 16.1827   2
  -4   9  -8 80.5519 8.71364   6
   4  -9   8 83.6338 9.24041   7
   4  -9   8 102.474 17.1042   2
   5  -9   8 18.6172 5.96919   2
   5  -9   8 21.3906 6.07079   7
   6  -9   8 0.51224 2.41399   7
   6  -9   8 0.78638 3.62599   2
   7  -9   8 58.7062 11.9551   2
   7  -9   8 57.7181 9.57536   7
   8  -9   8 4.79873 3.27075   2
   8  -9   8 5.97010 4.24779   7
   9  -9   8 6.79424 3.56612   7
   9  -9   8 0.10960 3.71801   2
  10  -9   8 16.2722 6.20920   2
  10  -9   8 25.6625 7.92075   7
  11  -9   8 19.8715 6.63709   2
  11  -9   8 5.39610 5.50288   7
  12  -9   8 34.1833 8.68345   7
  12  -9   8 24.6594 9.13333   2
   8   8  -8 4.78627 3.57263   6
  -8  -8   8 4.26582 6.83193   3
   7   8  -8 38.2341 6.56337   6
  -7  -8   8 24.8391 8.61534   3
   6   8  -8 9.50344 3.68177   6
  -6  -8   8 -1.9380 5.04042   3
  -5  -8   8 4.49721 6.38588   3
   4   8  -8 151.435 10.6819   6
  -4  -8   8 159.660 16.9559   3
   3   8  -8 1.30336 1.63490   6
  -3  -8   8 1.12670 3.41314   3
   2   8  -8 194.414 11.5666   6
  -2  -8   8 241.793 19.8171   3
  -2  -8   8 195.441 15.3543   2
   1   8  -8 186.937 11.1790   6
  -1  -8   8 184.818 14.9939   2
   0   8  -8 109.483 8.52208   6
   0  -8   8 109.906 11.8904   2
  -1   8  -8 517.697 19.6033   6
   1  -8   8 505.095 26.2359   2
  -2   8  -8 197.512 9.70974   5
  -2   8  -8 174.069 11.2005   6
   2  -8   8 177.209 15.4974   2
   2  -8   8 184.351 11.9053   7
  -3   8  -8 207.729 13.4659   8
  -3   8  -8 213.249 11.4603   5
  -3   8  -8 222.873 13.1455   6
   3  -8   8 215.574 17.5444   2
   3  -8   8 221.526 13.9981   7
  -4   8  -8 57.5352 7.11525   6
   4  -8   8 70.2767 14.4247   2
   4  -8   8 50.8411 8.38981   7
  -5   8  -8 121.076 10.1660   5
   5  -8   8 141.093 12.2275   7
   5  -8   8 120.675 13.5991   2
  -6   8  -8 444.291 21.2598   5
   6  -8   8 421.825 26.4456   2
   6  -8   8 448.167 23.3243   7
  -7   8  -8 151.447 13.1419   5
   7  -8   8 180.216 17.4678   2
   7  -8   8 155.603 14.1732   7
  -8   8  -8 64.7618 10.5657   5
   8  -8   8 54.0193 10.4652   7
   8  -8   8 37.8809 9.21965   2
   9  -8   8 199.888 19.1715   2
   9  -8   8 208.043 17.8873   7
  10  -8   8 -1.0115 2.91282   2
  10  -8   8 -5.5795 2.31251   7
  11  -8   8 94.4585 16.3916   7
  11  -8   8 108.474 14.6608   2
  12  -8   8 29.8853 14.4967   2
  12  -8   8 24.5507 8.80238   7
   9   7  -8 38.1506 7.48947   6
  -9  -7   8 20.7636 8.42469   3
   8   7  -8 -1.2760 1.86605   4
   8   7  -8 -2.2132 2.43899   6
  -8  -7   8 3.95639 4.71323   3
   7   7  -8 67.0367 5.86671   4
   7   7  -8 62.6445 7.72253   6
  -7  -7   8 82.5042 16.0046   3
   6   7  -8 96.9791 9.14622   6
   6   7  -8 124.766 7.97145   4
  -6  -7   8 89.6097 15.5175   3
   5   7  -8 140.833 8.37786   4
   5   7  -8 113.359 9.46972   6
  -5  -7   8 134.371 15.1320   3
   4   7  -8 31.7235 5.52237   6
  -4  -7   8 41.2656 10.0681   3
   3   7  -8 716.262 23.7777   6
  -3  -7   8 752.058 35.1636   3
   2   7  -8 11.5853 3.27128   6
  -2  -7   8 15.2968 5.73578   3
  -2  -7   8 14.4609 5.13117   2
   1   7  -8 38.7856 4.91874   6
  -1  -7   8 55.2136 9.98788   2
   0   7  -8 -1.2054 0.89225   6
   0  -7   8 1.27323 1.12778   7
   0  -7   8 -2.6233 1.44933   2
  -1   7  -8 76.6753 6.89501   6
  -1   7  -8 83.9453 5.96818   5
   1  -7   8 92.2760 7.77861   7
   1  -7   8 85.4719 9.90762   2
  -2   7  -8 227.537 11.0861   5
  -2   7  -8 223.213 11.9579   6
   2  -7   8 214.807 16.4026   2
  -3   7  -8 3.32572 2.39906   6
  -3   7  -8 8.21595 3.56148   8
  -3   7  -8 1.50032 2.05848   5
   3  -7   8 1.33053 2.24887   2
   3  -7   8 4.75002 3.10743   7
  -4   7  -8 258.836 14.2862   6
  -4   7  -8 273.202 14.4709   5
   4  -7   8 278.737 16.6964   7
   4  -7   8 275.159 19.6627   2
  -5   7  -8 298.789 16.2090   5
   5  -7   8 314.113 18.5785   7
  -6   7  -8 183.549 13.4049   5
   6  -7   8 153.421 13.4887   7
   6  -7   8 153.702 15.2785   2
  -7   7  -8 3.37412 2.66181   5
   7  -7   8 8.61058 5.19453   2
   7  -7   8 0.76151 2.89494   7
  -8   7  -8 23.8522 6.46913   5
   8  -7   8 43.1698 11.2361   2
   8  -7   8 25.2833 13.1630   7
  -9   7  -8 127.704 13.2542   5
   9  -7   8 106.804 12.3613   7
   9  -7   8 109.301 14.0141   2
  10  -7   8 134.195 14.8245   7
  10  -7   8 116.082 15.4397   2
  11  -7   8 -4.3217 3.64653   2
  11  -7   8 5.20111 3.11339   7
  12  -7   8 32.8815 8.87173   7
  12  -7   8 36.6950 10.4928   2
   9   6  -8 7.80487 3.64519   4
  -9  -6   8 -1.5849 6.27826   3
   8   6  -8 121.818 8.47083   4
   8   6  -8 117.622 11.0403   6
   7   6  -8 94.4342 7.31588   4
   7   6  -8 91.8681 9.38489   6
   6   6  -8 42.1230 4.88904   4
   6   6  -8 46.2417 7.02675   6
  -6  -6   8 65.8528 12.5497   3
   5   6  -8 85.2824 8.16014   6
   5   6  -8 92.4615 7.11613   4
  -5  -6   8 97.2638 11.8090   3
   4   6  -8 26.9926 4.82083   6
   4   6  -8 24.6712 4.34849   4
  -4  -6   8 30.6454 8.18211   3
   3   6  -8 10.4371 2.79440   4
   3   6  -8 12.0829 4.19856   2
   3   6  -8 5.79765 2.69422   6
  -3  -6   8 8.24440 4.14204   3
  -3  -6   8 9.85391 3.62381   2
   2   6  -8 70.7266 6.51393   6
   2   6  -8 83.8527 6.54942   4
   2   6  -8 81.4048 4.69031   5
  -2  -6   8 82.9736 8.85205   2
   1   6  -8 409.287 12.3337   5
   1   6  -8 399.040 15.3933   6
  -1  -6   8 348.463 13.3931   7
  -1  -6   8 430.703 20.6034   2
   0   6  -8 159.071 7.81216   5
   0   6  -8 151.046 9.01773   6
   0  -6   8 163.312 9.63816   7
   0  -6   8 163.369 12.8761   2
  -1   6  -8 50.7514 4.90198   5
  -1   6  -8 55.3138 5.42378   6
   1  -6   8 48.9639 5.77081   7
   1  -6   8 64.3233 8.58198   2
  -2   6  -8 78.1234 7.93617   8
  -2   6  -8 81.6946 6.55949   5
  -2   6  -8 88.9081 7.08550   6
   2  -6   8 70.5555 9.32984   2
   2  -6   8 82.5847 12.7914   7
  -3   6  -8 35.4066 5.89446   6
  -3   6  -8 29.1422 4.92643   8
  -3   6  -8 34.8027 5.72385   5
   3  -6   8 25.5282 5.51125   7
   3  -6   8 22.7095 5.36438   2
  -4   6  -8 1046.88 31.2010   5
  -4   6  -8 999.499 29.8813   6
  -4   6  -8 1025.12 26.5544   8
   4  -6   8 1074.60 34.8090   7
   4  -6   8 1040.84 39.3592   2
  -5   6  -8 31.0708 6.19398   5
   5  -6   8 30.5016 8.15223   2
   5  -6   8 29.3174 6.35861   7
  -6   6  -8 81.6236 9.07758   5
   6  -6   8 78.5323 13.4924   2
   6  -6   8 83.9452 9.98829   7
  -7   6  -8 16.2292 5.51527   5
   7  -6   8 15.9151 5.77211   7
   7  -6   8 15.3997 6.54414   2
  -8   6  -8 31.3047 8.02862   5
   8  -6   8 20.1585 6.65426   2
   8  -6   8 16.0658 5.17016   7
  -9   6  -8 15.1060 5.61386   5
   9  -6   8 13.6938 5.40584   2
   9  -6   8 15.0686 5.69883   7
 -10   6  -8 134.493 14.4716   5
  10  -6   8 121.879 14.2714   7
  10  -6   8 148.421 16.5425   2
  11  -6   8 13.5183 6.37644   2
  11  -6   8 7.37630 3.81652   7
  12  -6   8 139.891 15.6080   7
  12  -6   8 129.943 16.3878   2
  10   5  -8 37.9674 7.54047   6
  10   5  -8 30.4334 5.84984   4
   9   5  -8 52.8809 7.12215   4
   9   5  -8 40.6833 7.58989   6
   8   5  -8 49.4298 5.95048   4
   8   5  -8 57.7124 9.93217   6
   7   5  -8 72.2729 6.80418   4
   7   5  -8 84.5651 9.13990   6
   6   5  -8 230.830 14.2895   5
   6   5  -8 234.351 11.9485   4
   6   5  -8 236.953 14.6411   6
  -6  -5   8 237.511 18.2309   3
   5   5  -8 178.408 10.1905   4
   5   5  -8 171.116 11.7129   6
  -5  -5   8 185.179 15.5754   3
   4   5  -8 638.411 20.1276   4
   4   5  -8 651.530 22.9093   6
  -4  -5   8 621.354 28.5693   3
   3   5  -8 89.7299 9.06716   2
   3   5  -8 102.422 8.02915   6
   3   5  -8 87.4890 6.75636   4
  -3  -5   8 100.402 8.57946   2
   2   5  -8 876.674 30.4385   2
   2   5  -8 935.610 24.7099   4
   2   5  -8 941.848 21.1486   5
   2   5  -8 930.619 25.8443   6
  -2  -5   8 932.250 29.8086   2
  -2  -5   8 878.562 22.2305   7
   1   5  -8 38.5276 3.67535   5
   1   5  -8 28.9564 4.64033   6
   1   5  -8 32.5697 6.49365   2
   1   5  -8 29.4136 4.34637   4
  -1  -5   8 38.1039 7.11582   2
   0   5  -8 203.115 9.96575   6
   0   5  -8 201.941 8.97605   5
   0  -5   8 167.832 19.3089   2
  -1   5  -8 7.81429 2.46224   6
  -1   5  -8 10.3769 2.81906   5
  -1   5  -8 10.3507 2.98520   8
   1  -5   8 11.6319 4.47830   2
  -2   5  -8 62.0678 5.84178   5
  -2   5  -8 49.0126 6.11317   8
  -2   5  -8 69.8597 5.98692   6
   2  -5   8 48.4449 7.93566   2
  -3   5  -8 328.660 13.9510   6
  -3   5  -8 301.222 13.5787   8
   3  -5   8 315.681 19.7772   2
  -4   5  -8 102.943 8.75845   5
  -4   5  -8 102.206 6.53465   8
  -4   5  -8 92.7359 7.75668   6
   4  -5   8 110.922 11.8468   2
  -5   5  -8 35.9595 6.74541   5
   5  -5   8 25.9908 7.62067   2
   5  -5   8 22.7170 6.36173   7
  -6   5  -8 117.452 10.8152   5
   6  -5   8 108.554 11.1525   7
   6  -5   8 106.971 12.5769   2
  -7   5  -8 1.56133 2.35293   5
   7  -5   8 0.72870 2.41353   7
   7  -5   8 3.97446 3.52281   2
  -8   5  -8 142.428 13.6862   5
   8  -5   8 187.418 17.6820   2
   8  -5   8 142.139 14.0118   7
  -9   5  -8 4.92896 4.45924   5
   9  -5   8 13.4783 5.49902   7
   9  -5   8 20.2939 7.23374   2
 -10   5  -8 18.7256 6.19256   5
  10  -5   8 19.0299 7.48589   2
  10  -5   8 22.0678 7.07763   7
 -11   5  -8 0.67770 2.98384   5
  11  -5   8 -2.1308 4.08915   7
  11  -5   8 -7.1007 2.79657   2
  12  -5   8 15.1873 6.77675   2
  12  -5   8 20.6880 6.79821   7
  10   4  -8 59.3629 8.17529   4
  10   4  -8 50.9455 8.79848   6
   9   4  -8 233.897 16.8069   6
   9   4  -8 250.506 13.9828   4
   8   4  -8 123.451 11.8188   6
   8   4  -8 127.288 9.48779   4
   7   4  -8 2.38974 1.99677   4
   7   4  -8 0.29757 1.98937   6
  -7  -4   8 -4.0150 2.06629   3
   6   4  -8 389.204 19.2674   6
   6   4  -8 412.548 16.8429   4
  -6  -4   8 350.807 20.4949   3
   5   4  -8 3.05487 2.02831   4
   5   4  -8 3.05240 2.08036   6
  -5  -4   8 6.09292 3.40771   3
   4   4  -8 278.355 12.6486   4
   4   4  -8 280.547 14.4025   6
  -4  -4   8 294.600 17.5944   3
   3   4  -8 6.34556 2.45842   4
   3   4  -8 3.89089 2.11122   6
   3   4  -8 0.62292 2.49581   2
  -3  -4   8 4.01933 1.58678   7
  -3  -4   8 6.67113 2.47959   2
   2   4  -8 21.9894 4.04347   4
   2   4  -8 23.5572 5.98716   2
   2   4  -8 21.6501 4.40353   6
  -2  -4   8 35.4038 6.69721   2
  -2  -4   8 31.7654 3.84306   7
   1   4  -8 253.131 11.3747   4
   1   4  -8 272.353 10.2130   5
   1   4  -8 235.933 14.7874   2
   1   4  -8 265.629 11.4198   6
  -1  -4   8 236.490 11.5840   7
  -1  -4   8 251.072 14.4912   2
   0   4  -8 160.223 8.41549   6
   0   4  -8 167.183 11.8733   8
   0   4  -8 175.912 8.51108   5
   0   4  -8 162.484 12.6482   2
   0  -4   8 181.271 12.8486   2
  -1   4  -8 97.2735 6.38076   6
  -1   4  -8 81.9369 6.18958   5
  -1   4  -8 77.6046 7.95460   8
  -2   4  -8 1722.04 41.5280   8
  -2   4  -8 1759.58 39.6593   5
   2  -4   8 1727.64 49.4771   2
  -3   4  -8 216.879 11.9916   5
  -3   4  -8 191.621 10.2648   8
   3  -4   8 216.660 16.1127   2
  -4   4  -8 349.568 14.7234   6
  -4   4  -8 350.023 12.6678   8
  -4   4  -8 367.500 17.0782   5
   4  -4   8 377.601 22.1320   2
  -5   4  -8 83.9901 8.75656   5
   5  -4   8 102.838 11.9820   2
  -6   4  -8 6.26168 3.58378   5
   6  -4   8 6.84910 3.10119   2
  -7   4  -8 451.340 23.4953   5
   7  -4   8 430.012 23.7859   7
   7  -4   8 449.705 27.1115   2
  -8   4  -8 5.81323 3.63893   5
   8  -4   8 3.91114 3.59257   7
   8  -4   8 3.64604 3.27497   2
  -9   4  -8 153.490 15.1547   5
   9  -4   8 143.269 14.7173   7
   9  -4   8 124.213 14.9896   2
 -10   4  -8 183.003 17.3644   5
  10  -4   8 214.054 20.1507   2
  10  -4   8 189.304 17.4800   7
 -11   4  -8 -0.7506 3.08588   5
  11  -4   8 -0.1558 3.70731   2
  11  -4   8 0.22361 3.29229   7
  12  -4   8 -3.4818 4.85211   2
  12  -4   8 3.67456 4.79664   7
  11   3  -8 10.0711 4.33722   4
  11   3  -8 25.3428 7.26945   6
  10   3  -8 128.368 10.7262   4
  10   3  -8 157.040 14.2819   6
   9   3  -8 13.9879 5.41798   6
   9   3  -8 20.7670 4.87065   4
   8   3  -8 47.3156 9.26300   6
   8   3  -8 35.2382 6.67934   4
   7   3  -8 12.9669 3.95556   4
   7   3  -8 7.75767 3.08545   6
   5   3  -8 16.6767 4.80403   6
   5   3  -8 7.78410 2.90644   4
  -5  -3   8 10.3782 4.20169   3
   4   3  -8 301.672 13.5341   4
   4   3  -8 318.752 15.3084   6
  -4  -3   8 299.819 11.4740   7
   3   3  -8 862.786 24.0549   4
   3   3  -8 850.396 25.4177   6
  -3  -3   8 848.377 24.8781   2
  -3  -3   8 803.549 22.4714   7
   2   3  -8 234.585 11.1876   4
   2   3  -8 247.170 11.6210   6
  -2  -3   8 253.878 13.4575   2
  -2  -3   8 252.003 11.6098   7
   1   3  -8 310.051 11.4070   5
   1   3  -8 299.384 12.4757   4
   1   3  -8 304.302 12.1130   6
  -1  -3   8 293.533 13.4268   7
  -1  -3   8 333.417 16.4734   2
   0   3  -8 306.612 12.5892   4
   0   3  -8 311.288 11.8814   5
   0   3  -8 316.498 11.6165   6
   0   3  -8 310.145 16.2011   8
   0  -3   8 293.251 16.2282   6
   0  -3   8 317.912 17.2340   2
  -1   3  -8 325.160 13.0363   5
  -1   3  -8 347.844 11.9564   6
   1  -3   8 330.198 18.6319   2
   1  -3   8 315.746 13.8381   6
  -2   3  -8 88.8603 5.98539   6
  -2   3  -8 86.0621 7.27677   8
   2  -3   8 89.2214 9.99219   2
   2  -3   8 79.7687 6.25978   6
  -3   3  -8 26.0315 5.04200   5
  -3   3  -8 25.8579 4.45489   8
  -3   3  -8 29.7435 4.42507   6
   3  -3   8 28.0830 4.18525   6
   3  -3   8 27.4435 7.54573   2
  -4   3  -8 125.243 9.79391   5
  -4   3  -8 108.960 6.68269   8
   4  -3   8 102.235 11.4515   2
   4  -3   8 112.255 6.65469   6
  -5   3  -8 147.679 11.4817   5
   5  -3   8 131.268 13.6296   2
   5  -3   8 134.759 7.32842   6
  -6   3  -8 27.3635 6.48211   5
   6  -3   8 19.3218 6.67201   2
  -7   3  -8 45.1851 9.09501   5
   7  -3   8 20.5836 6.63960   2
  -8   3  -8 4.66991 3.31855   5
   8  -3   8 4.87062 2.67365   7
   8  -3   8 7.20355 4.51374   2
  -9   3  -8 176.429 16.0508   5
   9  -3   8 172.331 16.1208   7
   9  -3   8 148.953 16.9461   2
 -10   3  -8 225.577 19.3066   5
  10  -3   8 255.855 20.4579   7
  10  -3   8 238.520 21.6789   2
 -11   3  -8 119.797 17.8550   5
  11  -3   8 118.846 15.3346   2
  11  -3   8 105.927 13.6082   7
  12  -3   8 43.0208 10.5956   7
  12  -3   8 55.2168 14.5693   2
  11   2  -8 31.9379 10.1343   6
  11   2  -8 28.2925 6.14046   4
  10   2  -8 22.2760 6.44065   6
  10   2  -8 21.6783 5.36644   4
   9   2  -8 21.8407 5.66532   4
   9   2  -8 41.1931 9.30798   6
   8   2  -8 383.671 18.5910   4
   8   2  -8 399.248 22.0964   6
   7   2  -8 63.6249 10.0925   6
   7   2  -8 62.5857 6.86508   4
   5   2  -8 227.170 12.2563   4
   5   2  -8 237.684 14.1753   6
  -5  -2   8 233.746 13.2822   3
  -5  -2   8 228.508 10.5448   7
   4   2  -8 96.8082 7.64068   4
   4   2  -8 112.119 8.98078   6
  -4  -2   8 121.835 7.79489   7
   3   2  -8 814.691 24.7111   6
   3   2  -8 820.588 23.6053   4
  -3  -2   8 818.668 24.4242   2
  -3  -2   8 790.920 23.4481   7
   2   2  -8 11.7496 2.66534   4
   2   2  -8 18.0793 3.70560   6
  -2  -2   8 13.3102 3.22191   7
  -2  -2   8 15.6129 4.32584   2
   1   2  -8 475.210 15.1656   6
   1   2  -8 470.280 15.9806   4
  -1  -2   8 443.200 18.3780   6
  -1  -2   8 483.001 20.6828   2
  -1  -2   8 453.180 17.7766   7
   0   2  -8 2093.39 39.8551   6
   0   2  -8 1987.04 48.9534   8
   0   2  -8 2026.59 42.4895   4
   0   2  -8 2018.14 41.5472   5
   0  -2   8 2091.79 52.6668   2
   0  -2   8 1993.13 45.2438   6
  -1   2  -8 266.932 9.76219   6
  -1   2  -8 270.530 16.0797   8
  -1   2  -8 254.125 11.7935   5
   1  -2   8 252.719 16.3800   2
  -2   2  -8 100.159 7.60761   5
  -2   2  -8 99.5147 7.84080   8
  -2   2  -8 113.354 6.32718   6
   2  -2   8 95.4626 6.66658   6
   2  -2   8 121.080 11.7030   2
  -3   2  -8 212.308 12.1119   5
  -3   2  -8 210.738 10.6833   8
  -3   2  -8 215.370 9.61271   6
   3  -2   8 213.378 12.0339   8
   3  -2   8 203.926 9.22383   6
  -4   2  -8 13.3796 3.03997   8
  -4   2  -8 18.9805 4.81051   5
   4  -2   8 8.07529 3.13027   8
   4  -2   8 12.3181 2.76165   6
   4  -2   8 12.2690 4.81285   2
  -5   2  -8 957.974 24.5764   8
  -5   2  -8 1057.02 34.2946   5
   5  -2   8 1134.41 28.7698   8
   5  -2   8 1169.36 43.5561   2
   5  -2   8 1106.12 25.1287   6
  -6   2  -8 35.0706 7.52004   5
   6  -2   8 27.8334 3.21613   6
   6  -2   8 26.9554 6.97814   2
  -7   2  -8 85.5533 9.92219   5
   7  -2   8 110.150 18.8400   2
  -8   2  -8 184.158 21.0277   5
   8  -2   8 172.669 17.4994   2
  -9   2  -8 -3.9889 2.00948   5
   9  -2   8 2.38312 3.30422   2
   9  -2   8 -0.4469 3.17629   7
 -10   2  -8 236.501 20.1365   5
  10  -2   8 247.541 20.3004   7
  10  -2   8 249.942 22.7567   2
 -11   2  -8 22.8768 8.71065   5
  11  -2   8 45.5926 10.9970   7
  11  -2   8 42.1274 11.0584   2
  12   1  -8 36.8648 9.10589   6
  12   1  -8 30.7421 6.52641   4
  11   1  -8 55.0551 9.09474   4
  11   1  -8 40.2646 8.73398   6
  10   1  -8 0.25681 2.13527   4
  10   1  -8 -0.5747 2.08769   6
   9   1  -8 200.714 16.1223   6
   9   1  -8 177.833 13.2116   4
   8   1  -8 16.5795 4.54195   4
   8   1  -8 13.2682 4.49074   6
   7   1  -8 -1.2975 2.14622   6
   7   1  -8 -0.8547 1.32471   4
  -7  -1   8 -2.5984 2.05556   7
   6   1  -8 14.1892 4.30354   4
   6   1  -8 11.9086 4.18068   6
  -6  -1   8 11.7447 3.75999   7
   5   1  -8 146.968 11.1726   6
   5   1  -8 141.746 9.84295   4
  -5  -1   8 125.988 8.53873   3
  -5  -1   8 121.919 9.55074   7
   4   1  -8 15.5073 3.97359   4
   4   1  -8 19.6982 4.72052   6
  -4  -1   8 12.5606 3.36849   7
   3   1  -8 75.8081 6.57835   4
   3   1  -8 75.1382 6.79573   6
  -3  -1   8 88.4678 7.43137   2
  -3  -1   8 77.0886 6.95651   7
   2   1  -8 38.0604 4.52003   4
   2   1  -8 42.8041 4.69883   6
  -2  -1   8 34.4908 6.15080   2
  -2  -1   8 33.4918 5.28170   7
  -2  -1   8 42.2196 7.43254   6
   1   1  -8 62.0810 4.94542   6
   1   1  -8 54.6173 5.19745   4
  -1  -1   8 46.8284 5.79802   7
  -1  -1   8 61.6747 7.44708   2
  -1  -1   8 50.6119 5.70967   6
   0   1  -8 100.649 8.75716   8
   0   1  -8 106.981 5.80423   6
   0   1  -8 109.158 7.18395   4
   0  -1   8 100.383 7.55983   6
   0  -1   8 116.572 10.0789   8
   0  -1   8 104.265 10.2147   2
  -1   1  -8 230.595 8.44277   6
  -1   1  -8 210.821 12.2937   8
  -1   1  -8 223.901 11.0099   5
   1  -1   8 239.669 10.9794   6
   1  -1   8 215.927 13.5660   8
  -2   1  -8 6.26053 2.88011   5
  -2   1  -8 6.03827 1.85915   6
   2  -1   8 4.24042 2.63102   8
   2  -1   8 3.88735 3.09273   2
  -3   1  -8 342.249 14.5572   8
  -3   1  -8 343.235 16.0030   5
   3  -1   8 370.200 16.8968   8
   3  -1   8 348.429 21.6483   2
   3  -1   8 345.932 12.0056   6
  -4   1  -8 142.089 8.52635   8
  -4   1  -8 149.018 11.0770   5
   4  -1   8 168.956 7.52566   6
   4  -1   8 157.344 10.4674   8
   4  -1   8 146.329 14.4396   2
  -5   1  -8 15.3760 4.82516   5
  -5   1  -8 7.13806 2.56254   8
   5  -1   8 8.82517 2.20383   6
   5  -1   8 12.5728 3.46979   8
   5  -1   8 10.4438 4.39272   2
  -6   1  -8 216.385 15.2533   5
   6  -1   8 194.152 17.7275   2
   6  -1   8 203.389 11.3283   8
   6  -1   8 188.934 7.80380   6
  -7   1  -8 31.5830 6.99803   5
   7  -1   8 26.7733 7.91443   2
  -8   1  -8 3.12101 3.60914   5
  -9   1  -8 1.30763 2.52347   5
   9  -1   8 3.49381 4.20412   2
 -10   1  -8 91.5353 15.7093   5
  10  -1   8 86.9205 14.0871   7
  10  -1   8 81.4001 15.2117   2
 -11   1  -8 123.705 14.8305   5
  11  -1   8 125.372 14.5718   7
  11  -1   8 115.705 19.0123   2
  12   0  -8 47.4726 9.24703   6
  11   0  -8 23.5276 6.04801   4
  11   0  -8 19.9101 6.00035   6
  10   0  -8 25.2324 5.91045   4
  10   0  -8 38.1374 9.57361   6
   9   0  -8 86.5533 9.48332   4
   9   0  -8 62.1619 9.69472   6
   8   0  -8 202.629 13.8301   4
   8   0  -8 210.873 15.9814   6
   7   0  -8 406.881 19.0408   4
   7   0  -8 380.848 20.8066   6
   6   0  -8 690.230 24.5868   4
   6   0  -8 690.198 27.2341   6
   5   0  -8 335.011 15.6219   4
   5   0  -8 327.534 16.8774   6
  -5   0   8 286.136 14.3148   7
   4   0  -8 97.1525 8.37500   6
  -4   0   8 94.9248 7.81056   7
   3   0  -8 13.4254 3.10721   4
  -3   0   8 16.9045 3.99769   7
  -3   0   8 32.2691 6.22951   2
   2   0  -8 1234.07 29.5500   6
   2   0  -8 1203.63 30.1128   4
  -2   0   8 1222.49 35.9292   3
  -2   0   8 1121.79 37.3118   7
  -2   0   8 1234.42 36.3638   2
  -2   0   8 1284.96 40.5890   8
   1   0  -8 313.674 11.1614   6
   1   0  -8 315.212 12.7348   4
  -1   0   8 277.422 13.6123   6
  -1   0   8 335.291 18.1921   2
  -1   0   8 254.854 18.8583   8
  -1   0   8 304.988 17.3126   3
   0   0  -8 8.22163 3.60940   8
   0   0  -8 13.5196 2.99717   4
   0   0  -8 11.6476 2.26360   6
   0   0  -8 17.9601 3.68158   5
   0   0   8 15.2263 4.96760   2
   0   0   8 10.5263 4.45974   3
   0   0   8 11.5365 3.12058   6
   0   0   8 21.7880 5.68009   8
  -1   0  -8 2.69560 2.09038   8
  -1   0  -8 -0.4933 0.76901   6
  -1   0  -8 0.22913 0.95320   4
  -1   0  -8 -0.0640 0.93058   5
   1   0   8 2.68900 1.99027   8
   1   0   8 -0.1767 1.03110   6
   1   0   8 -0.7920 1.90767   2
  -2   0  -8 236.580 12.3772   5
  -2   0  -8 225.573 8.18691   6
  -2   0  -8 217.778 12.2410   8
   2   0   8 228.002 9.64783   6
   2   0   8 263.192 18.4043   2
   2   0   8 243.477 14.5460   8
  -3   0  -8 125.797 9.52744   5
  -3   0  -8 122.939 8.85759   8
   3   0   8 145.409 10.9496   8
   3   0   8 129.270 13.5272   2
  -4   0  -8 33.1008 5.81037   5
  -4   0  -8 35.6549 4.60227   8
   4   0   8 31.4467 7.88218   2
   4   0   8 49.1217 6.40230   8
  -5   0  -8 8.42345 3.20258   8
  -5   0  -8 10.0170 3.93357   5
   5   0   8 6.85142 3.54303   8
   5   0   8 16.2378 6.05878   2
  -6   0  -8 187.764 14.5728   5
   6   0   8 203.055 18.9768   2
   6   0   8 184.446 11.7445   8
  -7   0  -8 9.70028 4.60186   5
   7   0   8 10.9717 5.70556   2
   7   0   8 11.2801 3.40193   8
  -8   0  -8 72.7874 11.8166   5
   8   0   8 64.4459 11.6385   2
  -9   0  -8 57.9228 11.7885   5
   9   0   8 44.1952 12.0077   2
   9   0   8 75.2972 13.7989   7
 -10   0  -8 10.3795 6.67533   5
  10   0   8 13.6822 5.17094   7
  10   0   8 16.6906 6.82127   2
 -11   0  -8 77.6947 14.9984   5
  11   0   8 89.1480 18.4654   2
  11   0   8 111.631 16.0850   7
  11   0   8 76.8167 11.2462   4
  12  -1  -8 36.5756 8.83921   6
  11  -1  -8 128.755 12.8344   4
  11  -1  -8 158.865 15.8271   6
  10  -1  -8 115.050 10.0256   7
  10  -1  -8 107.950 11.3407   4
  10  -1  -8 98.0537 15.3432   6
   9  -1  -8 9.40362 4.71520   6
   9  -1  -8 22.2811 5.30348   7
   9  -1  -8 15.0657 5.05877   4
   8  -1  -8 223.923 16.7415   6
   8  -1  -8 240.707 14.4985   7
   8  -1  -8 219.359 14.7487   4
   7  -1  -8 74.8736 9.31608   6
   7  -1  -8 81.7711 8.49257   7
   7  -1  -8 77.9014 8.43476   4
   6  -1  -8 181.360 13.3860   6
   6  -1  -8 177.570 11.9911   4
   5  -1  -8 185.974 11.7532   4
   5  -1  -8 208.512 13.3659   6
   4  -1  -8 3.37600 2.00711   6
   4  -1  -8 3.19467 1.75432   4
  -4   1   8 10.6457 4.48969   8
  -4   1   8 5.62660 2.65346   2
   3  -1  -8 746.395 22.9460   6
   3  -1  -8 701.873 22.3629   4
  -3   1   8 724.122 24.3190   3
  -3   1   8 746.306 26.5829   2
  -3   1   8 694.360 30.0872   8
   2  -1  -8 690.523 19.8672   6
   2  -1  -8 688.678 21.0364   4
  -2   1   8 653.612 24.8390   3
  -2   1   8 673.201 26.5173   2
  -2   1   8 683.865 28.7230   8
   1  -1  -8 658.141 17.0747   6
   1  -1  -8 648.893 19.8032   4
  -1   1   8 637.131 27.0291   8
  -1   1   8 654.026 27.5654   2
   0  -1  -8 25.4386 3.85775   4
   0  -1  -8 32.6060 2.74742   6
   0  -1  -8 27.1254 4.38702   5
   0   1   8 34.3090 7.43259   8
   0   1   8 18.6064 5.52070   2
   0   1   8 42.4923 8.72575   3
  -1  -1  -8 16.3167 3.71903   5
  -1  -1  -8 13.5630 3.25497   4
  -1  -1  -8 14.2753 1.76711   6
   1   1   8 6.79561 3.31227   8
   1   1   8 9.75499 4.72472   2
  -2  -1  -8 193.233 11.3964   5
   2   1   8 191.526 16.2614   2
   2   1   8 217.447 17.1771   8
  -3  -1  -8 47.7071 7.47093   5
   3   1   8 34.7790 7.09038   8
   3   1   8 36.4390 7.90850   2
  -4  -1  -8 66.9931 7.83446   5
   4   1   8 102.279 17.2064   2
   4   1   8 80.0091 8.51168   8
  -5  -1  -8 332.722 18.6334   5
   5   1   8 292.232 16.5440   8
   5   1   8 329.404 23.9886   2
  -6  -1  -8 2.97195 2.48581   5
   6   1   8 4.15041 3.89142   2
   6   1   8 4.33350 2.86000   8
  -7  -1  -8 416.836 23.8353   5
   7   1   8 374.261 19.0240   8
   7   1   8 434.271 30.1237   2
  -8  -1  -8 3.20051 3.44672   5
   8   1   8 -0.5880 3.09719   8
   8   1   8 -5.5677 3.00600   2
  -9  -1  -8 2.30412 3.80487   5
   9   1   8 5.67359 3.89154   2
  10   1   8 41.7066 10.8728   2
  10   1   8 52.6064 10.9235   7
  12  -2  -8 7.41711 7.88632   4
  12  -2  -8 7.84521 4.48350   7
  12  -2  -8 3.30859 3.49897   6
  11  -2  -8 3.23863 2.95855   6
  11  -2  -8 -0.0086 3.02453   7
  11  -2  -8 -3.8868 2.28910   4
  10  -2  -8 125.416 11.3579   7
  10  -2  -8 150.316 13.5379   4
  10  -2  -8 125.006 13.7464   6
   9  -2  -8 44.9608 9.61506   6
   9  -2  -8 38.6532 7.38717   7
   9  -2  -8 31.4005 7.22742   4
   8  -2  -8 43.7834 7.75027   4
   8  -2  -8 39.4117 7.64956   6
   8  -2  -8 23.7153 6.18574   7
   7  -2  -8 253.948 17.0358   6
   7  -2  -8 279.414 16.2041   4
   7  -2  -8 283.276 16.6387   7
   6  -2  -8 87.3468 9.14786   7
   6  -2  -8 92.7572 9.64725   6
   6  -2  -8 100.437 9.12582   4
   5  -2  -8 809.784 28.1187   6
   5  -2  -8 778.127 26.0019   4
  -5   2   8 773.767 33.7434   8
  -5   2   8 758.894 25.0303   2
   4  -2  -8 5.82626 2.53852   6
   4  -2  -8 9.43371 2.84305   4
  -4   2   8 15.7641 3.95292   3
  -4   2   8 15.6786 5.91891   8
  -4   2   8 21.2307 5.55494   2
   3  -2  -8 189.339 10.5295   6
   3  -2  -8 179.989 10.4970   4
  -3   2   8 188.438 11.4581   3
  -3   2   8 173.018 14.5444   8
   2  -2  -8 65.9007 5.31952   6
   2  -2  -8 63.7877 5.94224   4
  -2   2   8 57.2266 9.42265   8
  -2   2   8 66.6778 7.55080   3
   1  -2  -8 67.6789 5.84511   4
   1  -2  -8 63.3901 4.29076   6
  -1   2   8 67.4490 8.27021   3
  -1   2   8 64.7001 10.7756   8
   0  -2  -8 358.320 9.19498   6
   0  -2  -8 363.546 13.6425   4
   0  -2  -8 341.262 14.3081   5
   0   2   8 361.280 19.9092   8
  -1  -2  -8 453.222 17.6081   5
   1   2   8 491.356 23.1617   8
  -2  -2  -8 23.3369 5.08124   5
   2   2   8 26.3158 6.50727   8
  -3  -2  -8 760.185 26.5630   5
   3   2   8 708.922 35.3072   2
   3   2   8 779.388 29.9572   8
  -4  -2  -8 97.9200 9.50115   5
   4   2   8 103.620 13.5734   2
   4   2   8 96.2061 9.94765   8
  -5  -2  -8 83.9823 9.54536   5
   5   2   8 63.7978 13.0804   2
   5   2   8 101.887 10.0811   8
  -6  -2  -8 35.1483 7.79800   5
   6   2   8 44.3447 13.7723   2
   6   2   8 31.5741 7.36646   8
  -7  -2  -8 241.775 18.3592   5
   7   2   8 278.908 24.4766   2
   7   2   8 276.795 17.0164   8
  -8  -2  -8 50.3647 10.2786   5
   8   2   8 52.2520 13.2040   2
   8   2   8 55.4453 9.78677   8
  -9  -2  -8 59.7957 12.1805   5
   9   2   8 54.4444 13.2220   2
   9   2   8 46.8008 8.48344   8
 -10  -2  -8 34.8134 9.43859   5
  10   2   8 26.2742 9.34371   2
  12  -3  -8 15.8964 5.77294   7
  12  -3  -8 29.5967 9.44159   6
  12  -3  -8 31.8720 7.93713   4
  11  -3  -8 22.6067 6.27973   7
  11  -3  -8 25.1341 7.49310   6
  11  -3  -8 6.78852 4.28988   4
  10  -3  -8 316.649 19.2772   7
  10  -3  -8 328.737 20.2431   4
  10  -3  -8 355.817 23.8308   6
   9  -3  -8 294.126 20.4758   6
   9  -3  -8 262.731 17.4357   4
   9  -3  -8 283.091 18.0662   7
   8  -3  -8 -2.0967 3.62043   6
   8  -3  -8 4.18206 3.28431   7
   8  -3  -8 6.30364 3.84814   4
   7  -3  -8 6.09654 3.91989   6
   7  -3  -8 10.1540 4.21878   7
   7  -3  -8 4.91657 3.24279   4
   6  -3  -8 397.257 20.5913   7
   6  -3  -8 366.211 18.2152   4
   6  -3  -8 403.687 20.4702   6
  -6   3   8 380.014 23.9437   8
   5  -3  -8 1476.36 43.9751   7
   5  -3  -8 1548.14 41.9981   6
   5  -3  -8 1497.53 39.7145   4
  -5   3   8 1511.16 50.2190   8
  -5   3   8 1481.43 39.7780   2
   4  -3  -8 10.7771 4.01796   6
   4  -3  -8 5.49962 2.78082   4
  -4   3   8 7.71988 4.13389   8
   3  -3  -8 7.73559 2.44061   4
   3  -3  -8 10.3014 2.96610   6
  -3   3   8 11.8572 4.53306   8
  -3   3   8 11.4221 3.72587   3
   2  -3  -8 29.4691 4.25808   6
   2  -3  -8 39.1591 6.00572   4
  -2   3   8 46.4558 9.84727   8
   1  -3  -8 160.269 6.31162   6
   1  -3  -8 157.212 8.92398   4
  -1   3   8 156.707 12.9209   3
  -1   3   8 151.587 13.3786   8
   0  -3  -8 530.478 17.1540   4
   0  -3  -8 551.735 19.2017   5
   0   3   8 506.061 25.0440   8
  -1  -3  -8 15.6738 3.76573   5
   1   3   8 14.5575 4.73645   8
  -2  -3  -8 186.420 11.8960   5
   2   3   8 182.214 14.4070   8
  -3  -3  -8 899.533 30.1948   5
   3   3   8 897.653 34.1036   8
  -4  -3  -8 72.1534 8.49439   5
   4   3   8 87.2367 9.99331   8
  -5  -3  -8 130.365 11.8907   5
   5   3   8 105.118 17.6886   2
   5   3   8 145.193 12.9392   8
  -6  -3  -8 164.999 14.3884   5
   6   3   8 175.750 18.8644   2
   6   3   8 179.352 14.3512   8
  -7  -3  -8 1.40193 3.48978   5
   7   3   8 0.66912 4.58295   2
   7   3   8 10.2596 4.19194   8
  -8  -3  -8 143.989 15.2778   5
   8   3   8 158.867 13.7815   8
   8   3   8 137.298 17.7590   2
   9   3   8 1.85555 5.56839   8
   9   3   8 0.96518 5.12106   2
  12  -4  -8 43.4313 11.3325   6
  12  -4  -8 47.9380 9.09615   7
  12  -4  -8 51.6230 9.95338   4
  11  -4  -8 4.29118 5.08759   6
  11  -4  -8 17.6464 6.27873   4
  11  -4  -8 16.9678 5.28223   7
  10  -4  -8 10.3903 4.56310   6
  10  -4  -8 12.0182 4.92668   7
  10  -4  -8 22.8862 6.37585   4
   9  -4  -8 87.1717 11.0589   6
   9  -4  -8 92.9498 10.7450   7
   9  -4  -8 78.6659 9.37980   4
   8  -4  -8 25.8246 6.80245   7
   8  -4  -8 38.9778 8.86037   6
   8  -4  -8 56.4063 12.2981   4
   7  -4  -8 28.3303 6.55427   7
   7  -4  -8 31.3190 6.05714   4
   7  -4  -8 24.8712 6.03224   6
  -7   4   8 32.9031 8.44662   8
   6  -4  -8 703.646 27.9779   6
   6  -4  -8 670.714 28.8963   7
   6  -4  -8 681.530 25.8208   4
  -6   4   8 691.885 33.2972   8
   5  -4  -8 45.8864 8.68155   7
   5  -4  -8 51.7508 8.22015   6
   5  -4  -8 48.8568 7.58748   4
  -5   4   8 41.7233 8.61414   8
   4  -4  -8 66.1611 6.79446   4
  -4   4   8 65.5064 12.6507   8
   3  -4  -8 40.8308 4.87125   6
   3  -4  -8 35.6276 5.91918   4
  -3   4   8 46.4220 6.10313   3
  -3   4   8 46.8605 9.75408   8
   2  -4  -8 314.775 13.4449   4
  -2   4   8 320.971 20.5615   8
  -2   4   8 301.696 17.2314   3
   1  -4  -8 605.737 19.3377   4
   1  -4  -8 648.975 21.5086   5
  -1   4   8 676.045 30.3791   8
   0  -4  -8 48.6421 6.88624   5
   0  -4  -8 51.7707 4.96764   4
   0   4   8 43.2211 8.77742   8
  -1  -4  -8 94.6254 8.24494   5
   1   4   8 89.8127 10.7350   8
  -2  -4  -8 120.729 9.80401   5
   2   4   8 118.964 12.2025   8
  -3  -4  -8 1.71874 1.99833   5
   3   4   8 -1.1391 2.01086   8
  -4  -4  -8 88.9183 9.52555   5
   4   4   8 79.6120 10.4287   8
  -5  -4  -8 134.522 21.7011   5
   5   4   8 125.809 16.2807   2
   5   4   8 145.274 13.8297   8
  -6  -4  -8 307.530 20.3339   5
   6   4   8 337.457 21.2528   8
   6   4   8 322.681 27.3032   2
  -7  -4  -8 33.0711 8.56565   5
   7   4   8 22.4636 8.63830   2
   7   4   8 37.9218 8.47444   8
  -8  -4  -8 42.0814 9.07650   5
   8   4   8 43.5829 16.1966   2
   8   4   8 31.4510 7.43994   8
  12  -5  -8 -4.1217 3.53448   7
  12  -5  -8 6.86900 3.37558   4
  12  -5  -8 7.27608 4.78825   6
  11  -5  -8 41.4228 8.92297   4
  11  -5  -8 66.9005 12.6573   6
  11  -5  -8 53.1379 9.73466   7
  10  -5  -8 -1.6871 2.77734   7
  10  -5  -8 4.36087 2.90399   6
  10  -5  -8 2.77684 3.08858   4
   9  -5  -8 34.6761 8.08350   7
   9  -5  -8 36.3579 8.12928   6
   9  -5  -8 34.1333 7.61134   4
   8  -5  -8 2.50025 2.69425   6
   8  -5  -8 0.76775 2.87304   7
   8  -5  -8 -2.1979 1.82083   4
   7  -5  -8 16.3077 4.70621   6
   7  -5  -8 15.5956 5.49055   7
   7  -5  -8 12.8095 4.38863   4
  -7   5   8 7.64077 4.46793   8
   6  -5  -8 -0.5940 1.14461   4
   6  -5  -8 -2.0276 1.63086   6
   6  -5  -8 -2.0033 1.73770   7
  -6   5   8 3.03411 3.19727   8
   5  -5  -8 10.5120 3.69887   4
   5  -5  -8 12.1857 5.57034   7
   5  -5  -8 8.50739 3.30747   6
  -5   5   8 14.4940 6.58137   8
   4  -5  -8 5.57037 2.67650   6
   4  -5  -8 1.75121 1.84528   4
  -4   5   8 1.37841 2.14494   3
   3  -5  -8 7.00491 2.55188   4
  -3   5   8 12.0123 5.18225   8
  -3   5   8 6.26937 4.08153   3
   2  -5  -8 5.31246 2.22213   4
  -2   5   8 4.19532 3.29817   8
   1  -5  -8 17.6965 4.22594   5
   1  -5  -8 15.0578 3.14122   4
  -1   5   8 15.4958 5.00969   8
   0  -5  -8 196.092 9.65483   4
   0  -5  -8 197.385 11.8187   5
   0   5   8 206.640 16.8613   8
  -1  -5  -8 74.6250 7.60210   5
   1   5   8 56.6792 10.1632   8
  -2  -5  -8 11.0292 3.69311   5
   2   5   8 17.9028 6.15976   8
  -3  -5  -8 113.497 10.3257   5
   3   5   8 129.556 13.4251   8
  -4  -5  -8 197.085 22.1168   5
   4   5   8 186.292 16.7975   8
  -5  -5  -8 89.0436 10.1876   5
   5   5   8 110.219 13.0510   8
  -6  -5  -8 22.0174 6.28723   5
   6   5   8 8.30107 5.27136   8
   6   5   8 9.28007 5.83043   2
  -7  -5  -8 5.63040 4.91470   5
   7   5   8 24.5382 10.1281   2
   7   5   8 17.6070 5.99849   8
  12  -6  -8 74.1295 12.5429   6
  12  -6  -8 88.6808 13.5139   4
  12  -6  -8 106.024 17.5991   7
  11  -6  -8 -6.5443 2.91904   6
  11  -6  -8 7.45000 4.53118   7
  11  -6  -8 7.12446 4.03079   4
  10  -6  -8 90.0413 15.3811   6
  10  -6  -8 85.4537 13.2277   4
  10  -6  -8 81.6906 12.8590   7
   9  -6  -8 75.2401 12.1637   7
   9  -6  -8 82.8095 9.82417   4
   9  -6  -8 90.5751 11.4391   6
   8  -6  -8 202.788 16.2911   6
   8  -6  -8 210.770 17.5520   7
   8  -6  -8 230.667 15.6985   4
  -8   6   8 235.817 20.4075   8
   7  -6  -8 398.257 20.4729   4
   7  -6  -8 406.739 22.3696   6
  -7   6   8 437.574 31.7619   8
   6  -6  -8 6.42399 2.75479   4
   6  -6  -8 5.81568 4.47150   7
   6  -6  -8 -1.4913 2.06724   6
   5  -6  -8 102.137 8.95683   4
   5  -6  -8 86.8305 11.0359   7
  -5   6   8 105.143 13.2420   8
   4  -6  -8 32.5516 5.55590   4
  -4   6   8 25.4996 7.08680   8
   3  -6  -8 0.51951 1.73113   4
   3  -6  -8 1.30189 1.17056   6
  -3   6   8 -0.0129 2.10383   8
   2  -6  -8 197.043 10.3824   4
  -2   6   8 189.620 17.0760   8
   1  -6  -8 9.66402 2.64615   4
   1  -6  -8 14.0227 3.89525   5
  -1   6   8 9.45551 4.57838   8
   0  -6  -8 180.171 11.7495   5
   0   6   8 182.838 16.7489   8
  -1  -6  -8 141.465 10.9378   5
   1   6   8 128.379 13.8569   8
  -2  -6  -8 130.474 10.9273   5
   3   6   8 67.3140 12.3706   8
  -4  -6  -8 24.9798 6.76116   5
   4   6   8 22.2579 8.44670   8
  -5  -6  -8 3.16854 3.27591   5
   5   6   8 12.1661 5.66700   8
  -6  -6  -8 1.67940 4.00609   5
   6   6   8 -0.2822 3.45809   8
  12  -7  -8 52.5704 12.2542   6
  12  -7  -8 62.9044 12.4995   7
  11  -7  -8 140.601 15.8404   6
  11  -7  -8 150.327 16.8184   4
  11  -7  -8 139.829 15.1374   7
  10  -7  -8 220.570 17.2101   4
  10  -7  -8 217.176 18.9157   6
  10  -7  -8 239.299 19.9051   7
   9  -7  -8 -5.3784 2.72493   6
   9  -7  -8 -2.8823 2.35945   4
   9  -7  -8 6.41181 5.20314   7
  -9   7   8 0.90841 4.18010   8
   8  -7  -8 56.4352 12.3404   6
   8  -7  -8 69.1723 11.9077   7
   8  -7  -8 86.4598 9.83334   4
  -8   7   8 87.5852 16.6087   8
   7  -7  -8 187.894 16.6312   7
   7  -7  -8 212.395 14.5197   4
   7  -7  -8 202.468 15.4170   6
  -7   7   8 183.722 17.9993   8
   6  -7  -8 1.38485 2.06799   6
   6  -7  -8 15.1525 5.85933   7
   6  -7  -8 7.68323 3.51665   4
  -6   7   8 15.1080 6.40097   8
   5  -7  -8 99.1999 12.1373   7
   5  -7  -8 90.5175 8.23024   4
  -5   7   8 77.9710 13.6804   8
  -4   7   8 96.0542 22.7992   8
   3  -7  -8 100.465 7.69924   4
  -3   7   8 102.051 22.6243   8
   1  -7  -8 104.464 8.80183   5
  -1   7   8 84.3290 13.9289   8
   0  -7  -8 8.91482 3.52246   5
   0   7   8 13.5434 6.48665   8
  -1  -7  -8 225.349 14.2226   5
   1   7   8 201.095 18.5180   8
  -2  -7  -8 6.52471 3.82983   5
   2   7   8 4.08059 4.07368   8
  -3  -7  -8 108.800 10.9546   5
   3   7   8 108.853 14.3111   8
  -4  -7  -8 63.2726 10.9343   5
   4   7   8 61.7282 13.1226   8
   5   7   8 37.3255 9.99673   8
  11  -8  -8 21.2947 7.94509   7
  11  -8  -8 14.8188 8.28019   6
  11  -8  -8 12.3266 5.09840   4
  10  -8  -8 50.9024 10.6350   6
  10  -8  -8 55.6278 12.2020   7
  10  -8  -8 44.9960 9.07506   4
   9  -8  -8 -0.1076 3.01272   4
   9  -8  -8 4.27321 4.57162   6
   9  -8  -8 -5.7159 2.65063   7
  -9   8   8 5.11058 4.70392   8
   8  -8  -8 2.78452 2.51513   4
   8  -8  -8 7.86111 4.13565   6
   8  -8  -8 5.61715 3.68286   7
  -8   8   8 -0.3241 4.38431   8
   7  -8  -8 2.12486 2.48869   6
   7  -8  -8 0.74690 1.76341   4
   7  -8  -8 2.50608 3.89447   7
  -7   8   8 -2.3433 3.46118   8
   6  -8  -8 245.403 19.4219   7
   6  -8  -8 208.891 16.3887   4
  -6   8   8 242.665 21.4185   8
   5  -8  -8 45.2973 7.13199   4
  -5   8   8 35.2272 8.45490   8
  -4   8   8 77.4296 13.8280   8
  -3   8   8 2.67445 3.12930   8
  -2   8   8 7.97560 5.73409   8
  -1   8   8 33.8806 8.82675   8
   0  -8  -8 49.2301 7.60865   5
   0   8   8 62.7040 13.2077   8
  -1  -8  -8 164.694 12.7024   5
   1   8   8 154.411 16.5855   8
  -2  -8  -8 109.318 10.4487   5
   2   8   8 77.4531 12.9378   8
  -3  -8  -8 -6.9257 2.71881   5
   3   8   8 3.16782 4.57170   8
   4   8   8 35.0416 10.5620   8
  10  -9  -8 161.986 16.0073   6
  10  -9  -8 151.524 14.1770   4
  10  -9  -8 155.517 17.4351   7
 -10   9   8 117.352 24.9819   8
  -9   9   8 51.0018 11.5117   8
   8  -9  -8 41.6753 8.46517   4
   8  -9  -8 32.6807 9.20881   7
  -8   9   8 38.0370 11.1054   8
   7  -9  -8 4.41856 4.46299   7
   7  -9  -8 -1.9135 2.71458   6
   7  -9  -8 1.12985 3.57137   4
  -7   9   8 2.51334 4.24846   8
   6  -9  -8 249.176 20.6350   7
   6  -9  -8 237.254 14.4490   4
  -6   9   8 240.376 22.4553   8
   5  -9  -8 1.55289 1.72521   4
   3  -9  -8 83.6747 8.34594   5
  -3   9   8 107.122 17.9209   8
   2  -9  -8 82.5988 8.64017   5
  -2   9   8 111.512 18.3909   8
   1  -9  -8 72.3058 7.92508   5
  -1   9   8 72.1181 14.4491   8
   0  -9  -8 70.0343 8.12880   5
   0   9   8 76.8516 14.9939   8
   1   9   8 104.243 17.6255   8
   3   9   8 35.8182 11.7073   8
   9 -10  -8 5.99007 6.30120   4
   9 -10  -8 -1.4340 4.31908   6
   9 -10  -8 9.84040 6.59219   7
  -9  10   8 9.28122 6.63080   8
   8 -10  -8 -1.3437 2.47643   4
   8 -10  -8 15.6104 7.14129   7
   8 -10  -8 4.60039 4.32067   6
  -8  10   8 7.66366 10.6247   8
  -7  10   8 15.8984 7.02616   8
  -6  10   8 38.4047 10.2616   8
   5 -10  -8 2.85546 4.07781   4
  -5  10   8 10.3104 5.63980   8
   4 -10  -8 24.3962 5.80774   5
  -4  10   8 21.1051 8.03187   8
   3 -10  -8 5.33696 2.57635   4
   3 -10  -8 19.9610 5.11832   5
  -3  10   8 4.21678 3.87996   8
  -2  10   8 17.0681 6.78902   8
   1 -10  -8 -4.7551 2.66836   5
   0  10   8 66.7859 14.7600   8
  -1 -10  -8 -1.3947 3.61008   5
   1  10   8 8.32555 8.25349   8
   7 -11  -8 4.48883 3.61089   4
  -7  11   8 15.3110 7.74410   8
  -6  11   8 39.3663 12.4539   8
   5 -11  -8 2.16096 2.81400   4
  -5  11   8 7.73368 5.20281   8
   4 -11  -8 14.5624 4.61037   5
  -4  11   8 20.2205 7.42296   8
  -3  11   8 71.8972 13.0751   8
  -2  11   8 50.6780 12.5794   8
  -2  14  -9 4.65418 5.11531   6
  -2  14  -9 -7.1933 4.11863   8
  -3  14  -9 -0.1983 4.16745   8
   3 -14   9 14.5792 8.74249   3
   3 -14   9 -2.9327 5.53388   2
  -4  14  -9 -11.391 4.46082   8
   4 -14   9 3.92829 5.55999   3
   4 -14   9 10.5915 7.25589   2
   5 -14   9 7.62720 5.24130   7
   5 -14   9 -8.1204 6.00487   2
   5 -14   9 13.0914 8.01698   3
   6 -14   9 56.3489 18.0259   2
   6 -14   9 44.3443 12.8975   3
   1  13  -9 3.09738 4.83976   8
   1  13  -9 12.4802 5.13930   6
  -1 -13   9 23.1152 12.3146   3
   0  13  -9 9.52357 5.77467   8
   0  13  -9 8.49117 4.40569   6
   0 -13   9 10.9379 7.76051   3
  -1  13  -9 11.5084 4.92963   8
  -1  13  -9 14.2957 6.81909   6
   1 -13   9 18.5501 8.11623   3
  -2  13  -9 24.5365 6.84416   6
   2 -13   9 17.0944 11.8193   3
   2 -13   9 41.8146 11.5733   2
  -3  13  -9 76.2291 11.7262   6
   3 -13   9 85.6887 18.0872   3
   3 -13   9 67.5439 13.5277   2
   4 -13   9 132.243 18.1305   3
   4 -13   9 165.824 19.0200   2
  -5  13  -9 8.64500 4.22038   8
   5 -13   9 -2.0477 4.54510   2
   5 -13   9 -0.8487 3.73607   7
   6 -13   9 9.12046 7.95352   2
   6 -13   9 6.21626 3.66645   7
   7 -13   9 1.99275 6.18560   2
   7 -13   9 0.21288 4.94233   7
   8 -13   9 15.4319 7.84165   2
   3  12  -9 6.84800 4.41694   6
   3  12  -9 8.07608 5.49112   8
  -3 -12   9 15.5787 9.77856   3
   2  12  -9 38.5854 8.58908   6
   2  12  -9 27.9295 7.48685   8
  -2 -12   9 41.8359 12.9182   3
   1  12  -9 69.0702 12.2418   8
   1  12  -9 82.6536 9.07538   6
  -1 -12   9 98.0679 21.3894   3
   0  12  -9 36.8925 8.74871   8
   0  12  -9 25.0218 6.00228   6
   0 -12   9 44.8450 12.2325   3
  -1  12  -9 54.9522 10.4792   8
  -1  12  -9 50.2928 8.92718   6
   1 -12   9 67.9798 14.4356   3
   1 -12   9 42.9331 10.8148   2
  -2  12  -9 47.3805 9.29477   6
  -2  12  -9 30.5440 7.03059   8
   2 -12   9 44.0339 11.5621   3
   2 -12   9 62.1687 13.8106   2
  -3  12  -9 29.1682 6.81885   6
   3 -12   9 35.8792 10.8139   2
  -5  12  -9 -1.2176 2.82805   8
   5 -12   9 -4.0294 2.53038   7
   5 -12   9 0.94415 4.58211   2
   6 -12   9 130.273 13.1390   7
   6 -12   9 155.336 18.6587   2
   7 -12   9 19.0849 7.28322   2
   7 -12   9 16.1107 7.03745   7
   8 -12   9 -6.9055 3.11863   7
   8 -12   9 -3.2659 4.98134   2
   9 -12   9 198.210 21.9511   7
   9 -12   9 224.768 22.7949   2
  10 -12   9 124.547 18.9258   7
  10 -12   9 78.9617 20.5506   2
   4  11  -9 -1.7763 4.11007   8
   4  11  -9 8.70145 4.01070   6
  -4 -11   9 13.8948 8.48414   3
   3  11  -9 65.3743 8.13140   6
  -3 -11   9 77.3380 15.1385   3
   2  11  -9 45.3387 7.50593   6
  -2 -11   9 63.2130 14.8466   3
   1  11  -9 3.18005 2.78743   6
  -1 -11   9 -3.7869 3.66982   3
   0  11  -9 20.8003 5.76954   8
   0  11  -9 30.1230 6.43504   6
   0 -11   9 11.1511 6.33476   3
   0 -11   9 24.4758 6.96011   2
  -1  11  -9 46.7816 10.0671   8
  -1  11  -9 64.6121 9.99721   6
   1 -11   9 82.0800 17.4061   3
   1 -11   9 40.5836 9.45668   2
  -2  11  -9 45.1185 8.29780   8
  -2  11  -9 51.3472 8.40477   6
   2 -11   9 70.2140 15.0765   2
  -3  11  -9 4.27040 2.12762   8
  -3  11  -9 2.78691 2.23356   6
   3 -11   9 4.19472 3.16834   2
   3 -11   9 -2.4713 2.06254   7
  -4  11  -9 -1.7268 1.83778   8
  -4  11  -9 2.71563 3.00055   6
   4 -11   9 -0.9128 2.42995   7
   4 -11   9 1.09058 2.88563   2
  -5  11  -9 6.08364 2.18584   8
   5 -11   9 24.1397 6.38212   7
   5 -11   9 14.2712 5.69459   2
   6 -11   9 0.64315 3.28455   7
   6 -11   9 2.31602 4.54927   2
   7 -11   9 1.04590 3.57379   7
   7 -11   9 -8.5857 3.76859   2
   8 -11   9 44.3193 9.94264   7
   8 -11   9 30.6393 8.44066   2
   9 -11   9 3.06327 3.62717   2
   9 -11   9 3.89985 4.70582   7
  10 -11   9 52.5549 11.9922   7
  10 -11   9 46.1879 11.3606   2
   5  10  -9 17.5140 4.95011   6
  -5 -10   9 10.0194 7.39773   3
   4  10  -9 222.497 14.3415   6
  -4 -10   9 218.348 22.5421   3
   3  10  -9 17.4014 4.78231   6
  -3 -10   9 11.8369 6.37395   3
   2  10  -9 35.9297 6.81143   6
  -2 -10   9 46.9990 13.1407   3
   1  10  -9 3.75341 2.94542   6
  -1 -10   9 2.73765 3.64952   2
  -1 -10   9 9.01949 4.77624   3
   0  10  -9 161.173 11.8183   6
   0 -10   9 135.756 14.7542   2
   0 -10   9 154.863 17.2969   3
  -1  10  -9 122.237 10.5180   6
   1 -10   9 154.543 15.7057   2
  -2  10  -9 7.27818 3.39290   6
   2 -10   9 1.28199 2.01114   7
   2 -10   9 14.1681 6.15280   2
   3 -10   9 122.325 23.9092   2
  -4  10  -9 126.309 11.6825   6
   4 -10   9 144.592 16.0207   2
   4 -10   9 127.897 11.4854   7
   5 -10   9 189.890 18.4971   2
   5 -10   9 180.676 14.2367   7
   6 -10   9 54.9550 10.7712   2
   7 -10   9 -3.9840 2.98762   2
   7 -10   9 2.29554 2.73385   7
   8 -10   9 160.387 18.1126   2
   8 -10   9 145.708 14.7958   7
   9 -10   9 65.5614 13.3743   2
   9 -10   9 103.987 12.5855   7
  10 -10   9 -2.1939 5.26429   2
  10 -10   9 22.6247 8.10830   7
  11 -10   9 5.24722 4.64549   2
  11 -10   9 -8.1032 3.57890   7
   6   9  -9 45.7075 11.2994   6
  -6  -9   9 55.5717 14.1561   3
   5   9  -9 75.1076 8.28846   6
  -5  -9   9 63.4980 15.0277   3
   4   9  -9 314.515 16.5276   6
  -4  -9   9 270.318 24.0749   3
   3   9  -9 187.349 12.5426   6
  -3  -9   9 204.300 20.4023   3
   2   9  -9 30.3787 6.18738   6
  -2  -9   9 29.0100 7.84331   2
  -2  -9   9 20.6450 7.20667   3
   1   9  -9 282.881 15.1521   6
  -1  -9   9 285.911 20.1070   2
   0   9  -9 35.3467 7.30023   6
   0  -9   9 58.1210 11.2915   2
  -1   9  -9 30.4550 5.65304   6
   1  -9   9 28.2666 7.06075   2
  -2   9  -9 164.053 11.8049   6
   2  -9   9 162.674 15.8690   2
  -3   9  -9 45.4623 5.54950   5
  -3   9  -9 59.5044 9.31236   6
   3  -9   9 33.5345 7.44980   2
   3  -9   9 50.9270 9.03003   7
  -4   9  -9 49.0401 7.25900   5
  -4   9  -9 41.4770 7.04328   6
   4  -9   9 43.2488 7.94295   7
   4  -9   9 35.3655 8.39540   2
  -5   9  -9 6.10833 3.29753   8
  -5   9  -9 17.1845 5.22519   5
   5  -9   9 11.9488 6.99236   2
   5  -9   9 11.9096 4.70459   7
  -6   9  -9 16.0476 4.96122   5
   6  -9   9 5.35510 4.19460   7
   6  -9   9 14.5209 6.35776   2
  -7   9  -9 405.596 21.8296   5
   7  -9   9 338.972 25.7213   2
   7  -9   9 354.585 22.6121   7
   8  -9   9 59.9365 10.5961   7
   8  -9   9 73.0022 15.5829   2
   9  -9   9 147.105 17.5480   2
   9  -9   9 123.018 14.0428   7
  10  -9   9 0.32834 4.92096   7
  10  -9   9 -2.1409 4.74153   2
  11  -9   9 27.3819 10.3234   2
  11  -9   9 11.5706 7.03433   7
   7   8  -9 65.9801 12.2177   6
   6   8  -9 53.6160 8.49528   6
  -6  -8   9 54.3647 12.6793   3
   5   8  -9 60.9811 8.84945   6
  -5  -8   9 61.4068 13.7589   3
   4   8  -9 54.9368 6.68488   6
  -4  -8   9 51.7588 11.6485   3
   3   8  -9 204.013 12.5907   6
  -3  -8   9 225.936 19.9221   3
   2   8  -9 61.6021 7.05973   6
  -2  -8   9 59.7953 12.6873   3
  -2  -8   9 62.1418 11.1218   2
   1   8  -9 77.1076 7.47326   6
  -1  -8   9 84.4954 13.5554   2
   0   8  -9 15.2399 3.80701   6
   0  -8   9 10.3347 4.36719   2
  -1   8  -9 147.099 10.2948   6
  -1   8  -9 153.323 8.28296   5
   1  -8   9 153.448 14.6121   2
  -2   8  -9 219.034 11.2784   5
  -2   8  -9 221.210 13.0752   6
   2  -8   9 253.363 18.9531   2
   2  -8   9 229.036 13.7644   7
  -3   8  -9 1.18856 1.82613   5
  -3   8  -9 1.44148 2.13924   6
   3  -8   9 2.98207 2.49242   7
   3  -8   9 3.00703 2.77365   2
  -4   8  -9 30.3852 6.01462   6
  -4   8  -9 30.5139 6.03669   5
   4  -8   9 24.7906 5.91389   7
   4  -8   9 48.7293 11.3515   2
  -5   8  -9 95.6473 9.37424   5
   5  -8   9 116.009 11.3722   7
   5  -8   9 100.641 12.9191   2
  -6   8  -9 8.21696 3.65610   5
   6  -8   9 1.52903 3.15852   7
   6  -8   9 5.94829 4.61942   2
  -7   8  -9 3.55446 3.00890   5
   7  -8   9 1.64172 3.47466   2
   7  -8   9 -0.5802 1.92588   7
   8  -8   9 29.4078 8.90857   2
   8  -8   9 57.6097 11.5343   7
  -9   8  -9 62.3423 11.6791   5
   9  -8   9 64.8700 11.2596   7
   9  -8   9 94.8228 17.4629   2
  10  -8   9 162.489 18.7503   2
  10  -8   9 185.258 17.8926   7
  11  -8   9 1.49207 5.56554   2
  11  -8   9 15.3697 6.70941   7
   8   7  -9 46.4309 6.10326   4
   8   7  -9 63.3188 9.89436   6
   7   7  -9 13.8310 3.62045   4
   7   7  -9 6.46969 3.47306   6
  -7  -7   9 9.34228 3.95619   3
   6   7  -9 -3.1023 2.02237   6
   6   7  -9 2.16552 2.05429   4
  -6  -7   9 -2.3484 3.53236   3
   5   7  -9 101.723 9.25587   6
   5   7  -9 103.949 7.61370   4
  -5  -7   9 103.084 13.3893   3
   4   7  -9 19.2911 4.68478   6
  -4  -7   9 22.5959 6.96226   3
   3   7  -9 329.521 15.7956   6
  -3  -7   9 367.017 24.1674   3
   2   7  -9 87.5698 7.63899   6
  -2  -7   9 103.203 10.5437   2
  -1  -7   9 56.4009 9.83863   2
   0   7  -9 105.838 6.73452   5
   0   7  -9 116.016 8.51365   6
   0  -7   9 117.045 11.8325   2
  -1   7  -9 15.1152 3.57934   5
  -1   7  -9 14.7606 3.83016   6
   1  -7   9 11.3695 3.95612   2
  -2   7  -9 4.50017 2.34631   5
  -2   7  -9 -0.5235 0.96177   6
   2  -7   9 1.09280 2.64456   2
   2  -7   9 0.27951 1.68795   7
  -3   7  -9 161.593 10.7661   5
  -3   7  -9 157.293 11.3869   8
  -3   7  -9 163.589 10.9184   6
   3  -7   9 182.677 15.8947   2
   3  -7   9 147.310 11.8876   7
  -4   7  -9 138.783 10.7421   5
  -4   7  -9 144.128 10.7372   6
   4  -7   9 152.900 12.7744   7
   4  -7   9 143.121 14.6311   2
  -5   7  -9 318.940 17.4910   5
   5  -7   9 333.178 22.9074   2
   5  -7   9 296.329 18.7668   7
  -6   7  -9 0.96927 2.65319   5
   6  -7   9 4.32283 3.87860   2
   6  -7   9 7.66777 3.67383   7
  -7   7  -9 158.087 13.8997   5
   7  -7   9 147.054 32.8060   2
   7  -7   9 159.705 15.1461   7
   8  -7   9 59.8018 10.3046   2
   8  -7   9 96.3061 15.5542   7
  -9   7  -9 15.7279 5.15983   5
   9  -7   9 6.26172 5.32729   2
   9  -7   9 8.86778 4.46767   7
 -10   7  -9 110.031 16.5510   5
  10  -7   9 132.784 16.4902   2
  10  -7   9 144.492 15.4794   7
  11  -7   9 19.4392 8.50802   2
  12  -7   9 37.6989 14.4913   7
  12  -7   9 57.8555 13.8622   2
   9   6  -9 91.2276 10.2773   6
   9   6  -9 65.9068 7.10998   4
   8   6  -9 2.54967 3.10537   6
   8   6  -9 -0.7565 1.89319   4
  -8  -6   9 -2.5271 5.14251   3
   7   6  -9 117.547 10.7523   6
   7   6  -9 131.771 8.98563   4
   6   6  -9 16.0925 4.84011   6
   6   6  -9 21.9651 4.35944   4
  -6  -6   9 23.6269 7.16378   3
   5   6  -9 83.3214 8.26654   6
   5   6  -9 80.2992 6.84179   4
  -5  -6   9 73.4595 12.9719   3
   4   6  -9 2.10771 1.80176   4
   4   6  -9 3.49241 1.39119   5
   4   6  -9 1.72482 1.88484   6
  -4  -6   9 0.80115 2.83888   3
   3   6  -9 3.63504 2.20443   6
   3   6  -9 4.75748 1.53263   5
   3   6  -9 2.32908 1.64807   4
  -3  -6   9 3.71253 3.12832   3
   2   6  -9 204.912 11.3400   6
   2   6  -9 178.791 8.11780   5
  -2  -6   9 182.814 13.3038   2
   1   6  -9 159.227 9.67091   6
   1   6  -9 148.127 7.76155   5
  -1  -6   9 132.236 11.8253   2
   0   6  -9 3.62959 1.97657   6
   0   6  -9 -3.0177 1.00084   5
   0  -6   9 -0.7211 2.41923   2
   0  -6   9 -2.0168 0.97330   7
  -1   6  -9 4.99594 2.32310   5
  -1   6  -9 5.97882 2.56463   6
   1  -6   9 4.36060 3.43448   2
  -2   6  -9 3.48566 3.41259   8
  -2   6  -9 -0.6714 1.45642   5
  -2   6  -9 0.00249 1.23443   6
   2  -6   9 1.86068 2.42858   2
   2  -6   9 2.38419 2.55995   7
  -3   6  -9 872.385 26.5371   6
  -3   6  -9 825.502 26.6967   5
  -3   6  -9 842.024 27.5211   8
   3  -6   9 879.437 30.9149   7
   3  -6   9 848.269 35.6335   2
  -4   6  -9 561.411 22.4388   5
  -4   6  -9 549.216 21.2437   6
   4  -6   9 554.949 24.8648   7
   4  -6   9 556.282 28.8154   2
  -5   6  -9 26.4064 6.44265   5
   5  -6   9 18.0216 6.73171   2
   5  -6   9 21.8444 6.38011   7
  -6   6  -9 -3.3511 1.75093   5
   6  -6   9 0.44462 2.26712   7
   6  -6   9 -1.9609 1.98144   2
  -7   6  -9 93.9806 10.7898   5
   7  -6   9 94.2514 12.4561   2
   7  -6   9 94.4923 11.3504   7
  -8   6  -9 169.362 16.4999   5
   8  -6   9 175.880 17.9771   2
   8  -6   9 170.844 16.0993   7
  -9   6  -9 111.802 13.3469   5
   9  -6   9 122.116 13.9041   7
   9  -6   9 110.491 14.5516   2
 -10   6  -9 40.7073 8.92824   5
  10  -6   9 48.4712 11.2208   2
  10  -6   9 45.8816 11.2155   7
 -11   6  -9 155.346 17.8181   5
  11  -6   9 155.981 18.6557   7
  11  -6   9 170.767 19.6235   2
  12  -6   9 -0.3455 5.84703   2
  12  -6   9 0.50154 5.41007   7
   9   5  -9 70.2775 7.36564   4
   9   5  -9 114.209 19.3176   6
   8   5  -9 81.8626 9.69416   6
   8   5  -9 89.1636 7.94271   4
   7   5  -9 17.5631 5.49611   6
   7   5  -9 15.8251 4.21086   4
   6   5  -9 61.7190 6.51879   4
   6   5  -9 60.7619 7.51312   6
   5   5  -9 181.916 10.8297   4
   5   5  -9 158.326 11.5317   6
  -5  -5   9 170.160 15.3211   3
   4   5  -9 13.8538 3.47338   4
   4   5  -9 16.1706 4.37702   6
  -4  -5   9 8.41621 4.23668   3
   3   5  -9 3.12360 2.34721   6
   3   5  -9 -0.3701 3.25904   2
   3   5  -9 5.82133 1.94600   5
   3   5  -9 6.71562 2.45464   4
  -3  -5   9 2.65027 1.97612   2
   2   5  -9 140.682 9.22975   6
   2   5  -9 144.793 7.45999   5
   2   5  -9 141.717 8.96062   4
  -2  -5   9 137.781 11.0048   2
   1   5  -9 599.648 19.9755   4
   1   5  -9 592.207 19.4356   6
   1   5  -9 621.769 17.7712   5
  -1  -5   9 641.538 25.7238   2
  -1  -5   9 513.368 21.5333   7
   0   5  -9 46.4392 4.64796   5
   0   5  -9 56.0065 5.39244   6
   0  -5   9 56.8771 10.1831   2
  -1   5  -9 309.024 13.0266   6
  -1   5  -9 299.315 13.1670   5
   1  -5   9 317.725 19.0066   2
  -2   5  -9 71.2031 7.43154   8
  -2   5  -9 95.8991 7.73117   5
  -2   5  -9 77.8062 6.63722   6
   2  -5   9 95.8052 10.9155   2
  -3   5  -9 125.944 8.70122   6
  -3   5  -9 124.529 9.48500   5
  -3   5  -9 112.039 8.48823   8
   3  -5   9 119.807 12.7281   2
  -4   5  -9 0.33632 1.81339   6
  -4   5  -9 3.14902 1.88433   5
  -4   5  -9 -2.7549 1.26319   8
   4  -5   9 0.44780 2.57010   2
  -5   5  -9 85.5567 9.18093   5
   5  -5   9 78.6463 12.9284   2
  -6   5  -9 20.1211 5.74396   5
   6  -5   9 21.4874 6.45012   7
   6  -5   9 12.3876 5.33620   2
  -7   5  -9 409.890 22.9046   5
   7  -5   9 403.601 23.9825   7
   7  -5   9 402.304 26.4542   2
  -8   5  -9 4.04752 3.69831   5
   8  -5   9 6.15616 4.22209   7
   8  -5   9 -1.6275 3.19150   2
  -9   5  -9 13.3626 5.70549   5
   9  -5   9 -0.3269 3.50055   2
   9  -5   9 2.90670 2.73502   7
 -10   5  -9 32.5340 8.80294   5
  10  -5   9 20.3178 7.08600   7
  10  -5   9 34.1705 10.2234   2
 -11   5  -9 99.6924 21.9252   5
  11  -5   9 106.109 18.4322   7
  11  -5   9 63.6757 12.8856   2
  12  -5   9 -9.6695 4.55179   7
  12  -5   9 6.86134 6.06308   2
  10   4  -9 74.9191 7.95379   4
  10   4  -9 80.4915 12.5255   6
   9   4  -9 0.31237 2.88125   6
   9   4  -9 0.72826 1.90650   4
  -9  -4   9 -1.4704 5.26643   3
   8   4  -9 209.918 15.2961   6
   8   4  -9 224.457 13.4471   4
   7   4  -9 10.0986 3.59658   4
   7   4  -9 13.1524 4.18427   6
  -7  -4   9 6.81771 3.62529   3
   6   4  -9 332.980 15.6787   4
   6   4  -9 321.418 20.2796   6
   5   4  -9 400.586 16.8213   4
   5   4  -9 388.777 18.5476   6
  -5  -4   9 411.474 21.8584   3
   4   4  -9 109.066 8.98611   6
   4   4  -9 115.534 8.44635   4
  -4  -4   9 110.682 10.8287   3
   3   4  -9 126.552 9.10629   6
   3   4  -9 125.206 8.54694   4
  -3  -4   9 146.241 10.2839   2
   2   4  -9 72.8519 6.40065   4
   2   4  -9 72.2621 6.53188   6
   2   4  -9 86.8463 5.93844   5
  -2  -4   9 79.5332 6.56611   7
  -2  -4   9 75.7004 7.94802   2
   1   4  -9 115.387 7.63519   6
   1   4  -9 121.797 8.15702   4
   1   4  -9 101.759 6.76447   5
  -1  -4   9 84.2236 7.25832   7
  -1  -4   9 92.3071 9.36657   2
   0   4  -9 180.784 9.41825   5
   0   4  -9 173.131 9.12663   6
   0  -4   9 154.924 12.7085   2
  -1   4  -9 147.722 9.03089   5
  -1   4  -9 168.423 8.87161   6
   1  -4   9 158.846 13.3062   2
  -2   4  -9 900.847 28.7790   8
  -2   4  -9 952.421 27.4546   5
  -2   4  -9 952.100 24.9486   6
   2  -4   9 919.603 35.5815   2
  -3   4  -9 982.436 28.4332   8
  -3   4  -9 1056.98 27.7902   6
  -3   4  -9 1047.31 30.8491   5
   3  -4   9 1047.00 39.7410   2
  -4   4  -9 140.686 8.30488   8
  -4   4  -9 146.368 11.0993   5
  -4   4  -9 152.206 9.64807   6
   4  -4   9 162.011 15.1226   2
  -5   4  -9 135.989 11.5091   5
  -6   4  -9 190.290 14.5089   5
   6  -4   9 201.338 18.0916   2
  -7   4  -9 93.3388 10.6821   5
   7  -4   9 63.8037 11.1070   2
   7  -4   9 97.0659 11.5172   7
  -8   4  -9 105.843 12.0936   5
   8  -4   9 105.044 13.8282   2
   8  -4   9 115.125 13.1965   7
  -9   4  -9 2.94284 3.46843   5
   9  -4   9 2.85890 5.46118   2
   9  -4   9 1.90022 4.67075   7
  10  -4   9 55.5265 12.0982   2
  10  -4   9 46.3564 11.0624   7
 -11   4  -9 6.37341 5.41664   5
  11  -4   9 -0.0767 5.89657   7
  11  -4   9 -4.6680 4.85264   2
  10   3  -9 157.088 19.4565   6
  10   3  -9 140.086 11.5826   4
   9   3  -9 255.885 17.9202   6
   9   3  -9 248.269 15.0599   4
   8   3  -9 229.254 15.0549   4
   8   3  -9 248.205 17.0567   6
   7   3  -9 2.35899 2.19773   6
   7   3  -9 2.86113 2.64838   4
   6   3  -9 9.19945 3.53235   4
   6   3  -9 11.6908 3.89860   6
  -6  -3   9 3.45987 4.54149   3
  -5  -3   9 90.7280 9.50501   3
   4   3  -9 86.2644 7.21587   4
   4   3  -9 85.4205 8.05643   6
  -4  -3   9 77.4877 6.20196   7
   3   3  -9 8.62950 3.08829   4
   3   3  -9 8.24097 3.12383   6
  -3  -3   9 7.39601 2.93064   2
  -3  -3   9 4.38277 1.85153   7
   2   3  -9 48.2350 5.25794   6
   2   3  -9 48.2756 5.21609   4
  -2  -3   9 44.2327 5.34558   7
  -2  -3   9 46.9956 6.18305   2
   1   3  -9 194.370 9.81511   5
   1   3  -9 213.067 10.1432   6
   1   3  -9 180.573 10.1759   4
  -1  -3   9 195.405 11.6869   7
  -1  -3   9 194.694 13.3787   2
   0   3  -9 903.298 24.4676   5
   0   3  -9 914.084 25.4070   4
   0   3  -9 898.338 23.0472   6
   0  -3   9 892.661 32.6399   2
  -1   3  -9 53.7414 4.81604   6
  -1   3  -9 48.2143 5.29339   5
  -1   3  -9 54.5083 6.64694   8
   1  -3   9 42.6490 8.53421   2
  -2   3  -9 163.700 10.1567   5
  -2   3  -9 140.224 10.0333   8
  -2   3  -9 105.000 10.2365   6
   2  -3   9 133.561 12.9205   2
  -3   3  -9 266.690 14.2297   5
  -3   3  -9 238.993 11.6566   6
  -3   3  -9 259.642 12.8086   8
   3  -3   9 274.558 19.1889   2
  -4   3  -9 60.4807 5.42345   8
  -4   3  -9 70.0282 7.85770   5
   4  -3   9 78.8628 14.2299   2
  -5   3  -9 442.077 21.4545   5
   5  -3   9 464.059 27.2309   2
  -6   3  -9 56.8560 9.54573   5
   6  -3   9 22.1014 6.15764   2
  -7   3  -9 2.29896 2.45765   5
   7  -3   9 0.48796 4.42362   2
  -8   3  -9 623.880 30.8580   5
   8  -3   9 561.629 30.1394   7
   8  -3   9 591.019 34.2027   2
  -9   3  -9 12.2307 5.91243   5
   9  -3   9 6.78869 5.80915   2
   9  -3   9 14.0591 6.55471   7
 -10   3  -9 27.2692 7.86282   5
  10  -3   9 30.5373 8.01302   7
  10  -3   9 19.8016 8.68917   2
 -11   3  -9 16.2355 6.41899   5
  11  -3   9 11.7030 7.52105   2
  11  -3   9 17.9343 8.65022   7
  11   2  -9 -2.1246 2.52229   4
  11   2  -9 4.64266 3.53401   6
  10   2  -9 0.38967 2.67980   6
  10   2  -9 -5.2772 2.25310   4
   9   2  -9 87.5524 13.5084   6
   9   2  -9 80.8553 9.05077   4
   8   2  -9 45.3014 9.08269   6
   8   2  -9 33.3189 8.66031   4
   7   2  -9 201.092 13.0087   4
   7   2  -9 203.330 15.3473   6
   6   2  -9 1.50450 2.31826   6
  -6  -2   9 3.62683 1.89690   3
   5   2  -9 522.219 21.8748   6
   5   2  -9 532.409 20.2396   4
  -5  -2   9 474.697 18.8666   7
   4   2  -9 199.285 11.4495   4
   4   2  -9 198.847 12.2188   6
  -4  -2   9 179.270 10.4484   7
   3   2  -9 12.8929 3.47206   6
   3   2  -9 16.7846 4.18669   4
  -3  -2   9 24.6518 5.17016   2
  -3  -2   9 16.0661 4.07707   7
   2   2  -9 140.458 9.06827   4
   2   2  -9 160.091 9.24524   6
  -2  -2   9 145.350 9.96825   7
  -2  -2   9 148.672 11.1340   2
   1   2  -9 -0.3229 0.90097   5
   1   2  -9 0.94380 1.64399   4
   1   2  -9 0.57438 1.18228   6
  -1  -2   9 1.09562 1.86658   2
   0   2  -9 221.880 11.2336   4
   0   2  -9 236.901 9.86226   6
   0   2  -9 252.017 11.6272   5
   0  -2   9 253.677 16.4762   2
  -1   2  -9 3.34688 2.00763   5
  -1   2  -9 8.84656 2.30299   6
  -1   2  -9 7.07518 3.49931   8
   1  -2   9 3.00470 2.14692   6
   1  -2   9 6.41128 3.20365   2
  -2   2  -9 9.23721 2.65565   5
  -2   2  -9 5.20665 2.00928   6
  -2   2  -9 5.42865 2.32180   8
   2  -2   9 8.47497 2.49187   6
   2  -2   9 7.44125 3.87840   2
  -3   2  -9 292.849 15.1203   5
  -3   2  -9 290.664 11.7748   6
  -3   2  -9 265.363 12.9807   8
   3  -2   9 268.574 11.8451   6
   3  -2   9 296.921 20.4243   2
  -4   2  -9 360.000 14.7161   8
  -4   2  -9 390.119 18.9137   5
   4  -2   9 409.455 17.6836   8
   4  -2   9 407.174 14.2462   6
   4  -2   9 407.047 24.9895   2
  -5   2  -9 0.56560 1.62061   5
  -5   2  -9 1.53441 1.57910   8
   5  -2   9 -1.2558 1.41785   6
   5  -2   9 -0.2574 2.47172   2
   5  -2   9 -0.7769 1.58935   8
  -6   2  -9 201.763 15.2034   5
   6  -2   9 172.250 8.60876   6
   6  -2   9 215.020 19.2724   2
  -7   2  -9 33.5257 9.14124   5
   7  -2   9 24.6223 8.07114   2
  -8   2  -9 93.5646 11.3516   5
   8  -2   9 59.8238 12.4921   2
   9  -2   9 2.09660 3.71770   7
   9  -2   9 2.52115 4.92821   2
 -10   2  -9 80.8904 14.4969   5
  10  -2   9 78.1607 13.0499   7
  10  -2   9 72.8660 13.9856   2
 -11   2  -9 138.486 16.7512   5
  11  -2   9 110.946 25.2699   2
  11  -2   9 167.939 17.7026   7
  11   1  -9 44.6022 7.66743   4
  11   1  -9 33.7833 8.30384   6
  10   1  -9 2.38915 1.98422   4
  10   1  -9 6.91250 4.74155   6
   9   1  -9 8.09978 3.91676   6
   9   1  -9 7.49277 3.61673   4
   8   1  -9 128.501 12.4145   6
   8   1  -9 140.554 21.2435   4
   7   1  -9 92.2463 9.09259   4
   7   1  -9 88.4182 10.0101   6
   6   1  -9 41.7996 6.39093   4
   6   1  -9 54.1765 9.31312   6
   5   1  -9 14.3896 4.49941   6
   5   1  -9 9.03043 2.83817   4
   4   1  -9 -2.3153 1.06141   6
   4   1  -9 1.79836 1.87752   4
  -4  -1   9 1.53689 1.41130   2
   3   1  -9 42.1770 5.20047   6
   3   1  -9 48.0321 5.53225   4
  -3  -1   9 44.6073 6.01678   2
   2   1  -9 515.821 18.4479   4
   2   1  -9 542.557 17.8047   6
  -2  -1   9 507.627 22.3832   2
   1   1  -9 496.265 15.3315   6
   1   1  -9 454.922 16.6635   4
   1   1  -9 473.796 16.3448   5
  -1  -1   9 451.606 22.1872   2
  -1  -1   9 391.959 19.9726   6
   0   1  -9 91.4270 7.10833   4
   0   1  -9 86.1137 6.91257   5
   0   1  -9 91.2708 5.63907   6
   0  -1   9 103.427 10.7497   2
   0  -1   9 113.641 10.7509   8
   0  -1   9 93.3689 7.78461   6
  -1   1  -9 292.979 10.1400   6
  -1   1  -9 265.765 12.9087   5
   1  -1   9 253.045 19.3348   8
   1  -1   9 258.134 18.0296   2
   1  -1   9 248.231 14.2681   6
  -2   1  -9 11.7815 3.92721   8
  -2   1  -9 10.5153 2.63298   6
  -2   1  -9 11.6586 3.70279   5
   2  -1   9 5.72062 3.61486   2
   2  -1   9 14.9186 4.23782   8
   2  -1   9 8.97378 2.48128   6
  -3   1  -9 153.385 11.0796   5
  -3   1  -9 156.118 10.1585   8
   3  -1   9 171.490 8.82462   6
   3  -1   9 168.993 12.0802   8
   3  -1   9 162.495 15.3509   2
  -4   1  -9 357.308 15.2718   8
  -4   1  -9 383.684 19.0343   5
   4  -1   9 412.060 18.6391   8
   4  -1   9 377.329 13.2607   6
   4  -1   9 421.946 25.8470   2
  -5   1  -9 3.94286 2.47244   5
  -5   1  -9 -1.4021 1.68812   8
   5  -1   9 -1.0656 1.86886   2
   5  -1   9 1.25941 1.24016   6
   5  -1   9 -1.5876 2.07825   8
  -6   1  -9 632.628 28.2731   5
   6  -1   9 612.555 22.1414   8
   6  -1   9 644.398 34.9821   2
   6  -1   9 627.907 17.0799   6
  -7   1  -9 99.0648 14.7993   5
   7  -1   9 57.8444 13.1221   2
  -8   1  -9 40.1278 8.59750   5
   8  -1   9 54.1390 12.8849   2
  -9   1  -9 127.245 14.1309   5
   9  -1   9 117.245 14.0118   7
   9  -1   9 90.6494 15.9156   2
 -10   1  -9 30.4809 9.42902   5
  10  -1   9 34.2320 10.3922   2
  10  -1   9 33.6003 8.06975   7
 -11   1  -9 82.2358 19.0477   5
  11  -1   9 61.9166 12.4350   7
  11  -1   9 61.9528 13.6775   2
  12   0  -9 -1.6712 3.53436   4
  11   0  -9 6.53571 3.43761   4
  10   0  -9 44.9638 8.84779   4
  10   0  -9 30.9851 8.68719   6
   9   0  -9 21.3229 6.51008   6
   9   0  -9 14.7050 4.72619   4
   8   0  -9 243.706 18.1373   4
   8   0  -9 242.414 17.5276   6
   7   0  -9 3.23612 2.68803   4
   7   0  -9 5.76037 3.71067   6
   6   0  -9 35.9749 7.14488   6
   6   0  -9 45.7246 7.95857   4
   5   0  -9 17.4256 4.03661   4
   5   0  -9 13.3080 4.16455   6
   4   0  -9 117.498 9.24558   6
   4   0  -9 102.302 8.39535   4
  -4   0   9 98.3462 8.59773   3
  -4   0   9 113.065 8.77147   2
   3   0  -9 10.2602 3.39285   4
   3   0  -9 6.46148 2.59468   6
  -3   0   9 8.92903 3.64282   3
  -3   0   9 7.19845 3.08134   2
   2   0  -9 973.714 26.0570   6
   2   0  -9 955.878 26.9019   4
  -2   0   9 965.313 33.2582   3
  -2   0   9 966.908 36.5018   8
  -2   0   9 992.880 33.7632   2
   1   0  -9 90.5546 7.05900   5
   1   0  -9 103.820 7.54563   4
   1   0  -9 87.6910 5.79354   6
  -1   0   9 99.8445 10.4838   3
  -1   0   9 108.039 11.1063   8
  -1   0   9 88.2205 7.90709   6
  -1   0   9 94.6634 10.5566   2
   0   0  -9 121.464 8.11555   4
   0   0  -9 127.217 8.39665   5
   0   0  -9 111.869 5.89117   6
   0   0   9 117.973 8.42209   6
   0   0   9 117.710 12.0769   2
   0   0   9 126.949 11.7528   8
  -1   0  -9 -0.5608 1.15759   5
  -1   0  -9 0.75796 0.91116   6
   1   0   9 3.28816 1.66332   6
   1   0   9 -0.9966 1.55806   8
   1   0   9 2.42389 2.60637   2
  -2   0  -9 234.329 8.76067   6
  -2   0  -9 233.044 13.0811   5
   2   0   9 215.224 17.7950   2
   2   0   9 228.361 15.1806   8
   2   0   9 223.901 10.2736   6
  -3   0  -9 438.061 19.4126   5
   3   0   9 439.792 26.4933   2
   3   0   9 389.276 13.2964   6
   3   0   9 423.355 20.7313   8
  -4   0  -9 117.648 10.3923   5
   4   0   9 114.178 10.4867   8
   4   0   9 116.534 13.9845   2
  -5   0  -9 105.626 10.6276   5
   5   0   9 99.2155 16.8369   2
   5   0   9 88.2923 8.95575   8
  -6   0  -9 24.8270 6.89526   5
   6   0   9 20.9671 7.86420   2
   6   0   9 12.7315 4.44208   8
  -7   0  -9 1.08314 3.00938   5
   7   0   9 0.42816 2.31503   2
   7   0   9 2.22754 3.22897   8
  -8   0  -9 66.0606 12.1548   5
   8   0   9 55.2825 13.5837   2
  -9   0  -9 1.31187 3.75911   5
   9   0   9 13.9730 7.85263   2
 -10   0  -9 16.6748 7.22769   5
  10   0   9 38.2977 13.0161   7
  10   0   9 58.0645 21.0919   2
  12  -1  -9 64.5795 12.5388   6
  12  -1  -9 73.4907 10.6763   4
  11  -1  -9 32.7643 8.15462   6
  11  -1  -9 43.0477 8.64277   4
  10  -1  -9 214.834 17.9730   6
  10  -1  -9 209.703 15.5258   4
   9  -1  -9 39.6017 7.88406   4
   9  -1  -9 43.6512 9.27894   6
   8  -1  -9 83.8514 9.28626   4
   8  -1  -9 59.7823 13.0636   6
   7  -1  -9 239.650 16.3804   6
   7  -1  -9 230.741 14.7529   4
   6  -1  -9 53.4259 7.99015   4
   6  -1  -9 66.4885 10.4034   6
   5  -1  -9 0.56196 1.36390   4
   5  -1  -9 2.42236 1.77467   6
   4  -1  -9 330.368 15.7026   4
   4  -1  -9 375.831 16.9095   6
  -4   1   9 341.808 17.0864   2
   3  -1  -9 3.77906 2.01009   6
   3  -1  -9 1.12972 1.41092   4
  -3   1   9 1.80427 2.45221   3
  -3   1   9 0.74575 2.26446   8
  -3   1   9 2.23884 2.39678   2
   2  -1  -9 598.177 18.3109   6
   2  -1  -9 596.803 20.1850   4
  -2   1   9 621.299 28.7122   8
  -2   1   9 594.313 24.8298   3
   1  -1  -9 9.87288 2.68739   4
   1  -1  -9 15.0069 2.88513   6
   1  -1  -9 9.19251 3.01944   5
  -1   1   9 10.7030 4.26010   8
  -1   1   9 11.0088 4.80637   3
  -1   1   9 8.03180 4.51798   2
   0  -1  -9 249.399 11.9313   4
   0  -1  -9 278.097 13.1625   5
   0  -1  -9 270.333 8.85030   6
   0   1   9 260.844 17.3442   8
   0   1   9 309.768 20.1146   2
  -1  -1  -9 3.53674 2.36932   5
   1   1   9 2.97657 3.17176   2
   1   1   9 2.81730 2.39006   8
  -2  -1  -9 8.98552 2.71987   5
   2   1   9 2.34467 2.96229   2
   2   1   9 2.31025 2.71126   8
  -3  -1  -9 29.4333 6.41161   5
   3   1   9 28.1925 6.19013   8
   3   1   9 30.9452 10.7146   2
   4   1   9 79.2098 15.3235   2
   4   1   9 73.4445 9.12748   8
  -5  -1  -9 141.043 12.5485   5
   5   1   9 125.261 15.7079   2
   5   1   9 140.476 11.9918   8
  -6  -1  -9 62.9495 10.8540   5
   6   1   9 59.7156 12.5388   2
   6   1   9 61.6003 9.36254   8
  -7  -1  -9 160.704 15.2582   5
   7   1   9 171.704 19.0555   2
   7   1   9 157.831 12.5804   8
  -8  -1  -9 73.4792 12.1103   5
   8   1   9 71.9127 15.9220   2
   8   1   9 94.9469 9.66214   8
  -9  -1  -9 15.4175 6.54200   5
   9   1   9 9.54025 6.01774   2
 -10  -1  -9 22.4722 7.81973   5
  10   1   9 5.04445 5.65955   7
  10   1   9 0.13202 7.56212   2
  12  -2  -9 110.822 12.6579   4
  12  -2  -9 114.963 14.5986   6
  11  -2  -9 -3.5460 2.26466   4
  11  -2  -9 2.85425 3.68421   6
  10  -2  -9 32.7783 8.85750   6
  10  -2  -9 27.3066 6.55115   4
   9  -2  -9 63.5430 10.1551   4
   9  -2  -9 67.1517 12.0228   6
   8  -2  -9 9.50869 6.63853   6
   8  -2  -9 5.28580 3.34918   4
   7  -2  -9 206.588 14.0530   4
   7  -2  -9 216.865 15.5993   6
   6  -2  -9 417.447 19.6577   4
   6  -2  -9 449.070 21.7066   6
   5  -2  -9 413.241 19.3733   6
   5  -2  -9 394.539 18.4086   4
  -5   2   9 413.055 25.2346   8
   4  -2  -9 869.589 27.7392   6
   4  -2  -9 886.282 27.9604   4
  -4   2   9 937.898 32.2915   2
  -4   2   9 925.208 38.3625   8
   3  -2  -9 63.4956 6.58074   4
   3  -2  -9 64.6247 7.83386   6
  -3   2   9 74.3170 13.4354   2
  -3   2   9 69.9866 11.9804   8
  -3   2   9 69.7202 7.69159   3
   2  -2  -9 11.2992 2.84824   6
   2  -2  -9 10.4954 3.05126   4
  -2   2   9 4.79781 3.31606   3
  -2   2   9 13.0776 4.78572   2
  -2   2   9 1.68662 2.80718   8
   1  -2  -9 271.570 13.0462   5
   1  -2  -9 246.121 8.92783   6
   1  -2  -9 236.171 11.6709   4
  -1   2   9 272.708 19.1425   2
  -1   2   9 239.538 17.7304   8
   0  -2  -9 331.154 14.9953   5
   0  -2  -9 351.730 14.1850   4
   0   2   9 340.263 22.5161   2
   0   2   9 339.033 20.6626   8
  -1  -2  -9 424.504 18.1670   5
   1   2   9 416.012 25.9484   2
   1   2   9 449.285 23.5733   8
  -2  -2  -9 326.964 16.4452   5
   2   2   9 291.224 22.1651   2
   2   2   9 315.024 19.3571   8
  -3  -2  -9 123.374 10.7661   5
   3   2   9 113.996 11.5873   8
   3   2   9 133.387 15.4084   2
  -4  -2  -9 217.733 15.1253   5
   4   2   9 218.320 19.8466   2
   4   2   9 259.427 17.1593   8
  -5  -2  -9 49.2169 10.1255   5
   5   2   9 55.0416 9.38052   8
   5   2   9 64.7307 13.4940   2
  -6  -2  -9 174.687 15.2261   5
   6   2   9 165.864 18.9757   2
   6   2   9 196.870 14.8429   8
  -7  -2  -9 3.44860 3.66901   5
   7   2   9 3.84315 3.61501   8
   7   2   9 1.03429 3.62590   2
  -8  -2  -9 43.3808 10.0221   5
   8   2   9 65.9479 10.2980   8
   8   2   9 44.5630 11.7684   2
  -9  -2  -9 -10.851 4.79801   5
   9   2   9 9.92625 7.89037   2
  12  -3  -9 141.329 16.0192   6
  12  -3  -9 145.911 14.4111   4
  11  -3  -9 13.9930 5.48138   7
  11  -3  -9 14.7380 7.93919   6
  11  -3  -9 13.7025 5.23281   4
  10  -3  -9 44.6904 9.00770   4
  10  -3  -9 36.7956 7.41106   7
  10  -3  -9 25.5201 7.23261   6
   9  -3  -9 170.019 14.4880   7
   9  -3  -9 164.958 13.7917   4
   9  -3  -9 154.704 14.7292   6
   8  -3  -9 32.0904 8.68534   6
   8  -3  -9 49.0961 9.70265   7
   8  -3  -9 29.3468 6.06262   4
   7  -3  -9 26.7158 6.91654   6
   7  -3  -9 36.7512 7.60882   4
   6  -3  -9 33.0040 6.17911   4
   6  -3  -9 49.4396 9.03637   6
  -6   3   9 28.3431 7.12099   8
   5  -3  -9 -0.9293 1.83850   6
   5  -3  -9 3.78293 2.45376   4
  -5   3   9 -3.5976 1.74059   2
  -5   3   9 0.43564 2.36025   8
   4  -3  -9 73.6798 7.13993   6
   4  -3  -9 78.1132 7.56496   4
  -4   3   9 64.1468 12.0797   8
   3  -3  -9 2.49005 2.08765   6
   3  -3  -9 6.06422 2.68768   4
  -3   3   9 1.46355 2.60457   8
  -3   3   9 -0.0867 2.56889   3
   2  -3  -9 154.643 9.58411   4
  -2   3   9 141.733 12.0760   3
  -2   3   9 149.082 14.7327   8
   1  -3  -9 652.483 22.0978   5
   1  -3  -9 675.386 21.0866   4
  -1   3   9 634.754 30.2554   8
   0  -3  -9 65.5189 6.08074   4
   0  -3  -9 64.1511 6.72276   5
   0   3   9 65.4146 10.7788   8
  -1  -3  -9 780.370 26.2549   5
   1   3   9 757.858 32.7731   8
  -2  -3  -9 220.262 13.9202   5
   2   3   9 243.263 17.6598   8
  -3  -3  -9 14.1204 4.78162   5
   3   3   9 2.95161 3.31212   8
   3   3   9 8.68906 4.50700   2
  -4  -3  -9 33.5666 7.38963   5
   4   3   9 17.6507 7.73065   2
   4   3   9 29.2609 8.59284   8
  -5  -3  -9 15.7385 5.08844   5
   5   3   9 20.3819 7.27418   2
   5   3   9 30.8800 7.01454   8
  -6  -3  -9 96.0077 13.8935   5
   6   3   9 87.5267 13.8915   8
   6   3   9 80.0042 15.2278   2
  -7  -3  -9 64.4680 11.1250   5
   7   3   9 70.1856 13.3438   8
   7   3   9 76.7930 16.3915   2
  -8  -3  -9 23.3019 8.35026   5
   8   3   9 41.1025 17.8717   2
   8   3   9 40.0812 8.51466   8
  12  -4  -9 14.5473 5.97746   6
  12  -4  -9 16.9745 5.86720   7
  12  -4  -9 16.1423 5.20360   4
  11  -4  -9 146.825 14.3160   7
  11  -4  -9 137.849 15.6303   4
  11  -4  -9 144.739 15.5236   6
  10  -4  -9 43.8694 10.1252   6
  10  -4  -9 37.9629 7.74390   4
  10  -4  -9 45.9966 9.59501   7
   9  -4  -9 20.5761 5.42577   4
   9  -4  -9 27.7317 7.34266   7
   9  -4  -9 36.2749 8.97072   6
   8  -4  -9 4.53565 3.05794   7
   8  -4  -9 -1.9188 3.10235   6
   8  -4  -9 1.96445 2.29008   4
   7  -4  -9 20.5503 7.71508   4
   7  -4  -9 25.6533 7.00868   7
   7  -4  -9 18.1147 5.74407   6
   6  -4  -9 30.5898 6.64134   6
   6  -4  -9 24.1599 5.97620   4
  -6   4   9 26.7766 8.33507   8
   5  -4  -9 235.846 14.2228   6
   5  -4  -9 219.531 13.5906   4
  -5   4   9 237.964 19.5441   8
   4  -4  -9 108.959 8.84077   4
   4  -4  -9 100.807 8.35686   6
  -4   4   9 112.060 13.0085   8
  -3   4   9 95.9028 12.4933   8
   2  -4  -9 50.0739 5.52898   4
  -2   4   9 43.2444 9.72608   8
   1  -4  -9 22.6518 4.45845   4
   1  -4  -9 15.6145 4.18627   5
  -1   4   9 22.4327 7.17959   8
   0  -4  -9 88.7275 6.89507   4
   0  -4  -9 95.2059 8.48852   5
   0   4   9 94.9391 11.6484   8
  -1  -4  -9 306.765 15.9614   5
   1   4   9 276.762 19.9418   8
  -2  -4  -9 74.5891 8.06739   5
   2   4   9 76.3180 13.2361   8
  -3  -4  -9 6.94282 3.28584   5
   3   4   9 1.92695 3.09387   8
  -4  -4  -9 240.492 16.5436   5
   4   4   9 241.003 18.6221   8
   4   4   9 196.133 21.0967   2
  -5  -4  -9 121.081 12.4448   5
   5   4   9 143.521 18.0448   2
  -6  -4  -9 5.67436 4.28846   5
   6   4   9 5.47858 4.22293   8
   6   4   9 12.0490 6.84427   2
  -7  -4  -9 12.7216 6.21835   5
   7   4   9 10.9274 8.11318   2
   7   4   9 18.3091 6.96659   8
  -8  -4  -9 125.304 14.8471   5
   8   4   9 139.606 14.8611   8
   8   4   9 102.049 18.5204   2
  12  -5  -9 40.3425 9.77553   6
  11  -5  -9 -7.3425 3.16779   7
  11  -5  -9 -0.7575 4.08552   6
  11  -5  -9 0.94065 3.11850   4
  10  -5  -9 2.55424 3.75012   6
  10  -5  -9 2.11985 1.89113   4
   9  -5  -9 -1.7329 2.08460   4
   9  -5  -9 1.00590 3.11584   6
   9  -5  -9 -3.2361 2.97294   7
   8  -5  -9 22.9299 6.45353   4
   8  -5  -9 29.8219 7.60446   7
   7  -5  -9 107.607 17.0308   7
   7  -5  -9 130.793 11.3305   4
   7  -5  -9 113.901 11.8070   6
  -7   5   9 156.751 16.8929   8
   6  -5  -9 18.1096 5.08268   6
   6  -5  -9 39.8542 7.77057   4
  -6   5   9 16.3620 8.44042   8
   5  -5  -9 106.194 9.19755   6
   5  -5  -9 104.412 9.26591   4
  -5   5   9 116.342 13.9429   8
   4  -5  -9 44.7829 6.96297   4
  -4   5   9 58.5744 12.4065   8
   3  -5  -9 168.990 10.5281   4
  -3   5   9 139.591 14.9456   8
   2  -5  -9 220.663 11.6294   4
  -2   5   9 214.018 18.3844   8
   1  -5  -9 3.02885 1.51373   4
   1  -5  -9 0.26802 1.53063   5
  -1   5   9 3.06171 3.54797   8
   0  -5  -9 183.496 12.1840   5
   0   5   9 180.164 16.8949   8
  -1  -5  -9 163.049 11.8744   5
   1   5   9 150.483 15.3024   8
  -2  -5  -9 90.8691 10.1166   5
   2   5   9 97.1505 12.4766   8
  -3  -5  -9 80.1475 9.35042   5
   3   5   9 80.1555 14.3782   8
  -4  -5  -9 45.2866 8.75691   5
   4   5   9 67.1283 11.9893   8
  -5  -5  -9 74.0187 12.2773   5
   5   5   9 63.3799 13.7764   2
   5   5   9 65.7996 11.4273   8
  -6  -5  -9 63.3651 11.0223   5
   6   5   9 118.304 29.1156   2
   6   5   9 90.4854 14.4840   8
  -7  -5  -9 82.6090 14.4264   5
   7   5   9 60.2792 14.9779   2
   7   5   9 41.8641 8.87393   8
  11  -6  -9 19.0530 11.5638   6
  11  -6  -9 24.0332 7.62185   7
  11  -6  -9 10.6368 4.77680   4
  10  -6  -9 17.7289 6.28275   6
  10  -6  -9 32.8763 8.56382   7
  10  -6  -9 21.2122 6.07891   4
   9  -6  -9 10.4588 4.39378   4
   9  -6  -9 2.11229 4.13931   6
   9  -6  -9 10.3811 5.08187   7
   8  -6  -9 100.023 10.1120   4
   8  -6  -9 83.0768 13.2752   7
   8  -6  -9 96.6260 11.4187   6
  -8   6   9 77.8472 13.7858   8
   7  -6  -9 3.54778 3.87414   7
   7  -6  -9 18.5180 5.51479   6
   7  -6  -9 5.37121 3.34070   4
  -7   6   9 19.5947 7.16293   8
   6  -6  -9 137.533 19.8532   4
  -6   6   9 89.9747 14.6593   8
   5  -6  -9 14.0316 4.40718   4
  -5   6   9 10.5417 5.06128   8
   4  -6  -9 133.005 9.74637   4
  -4   6   9 127.067 15.4162   8
   3  -6  -9 49.9374 5.77840   4
  -3   6   9 34.1284 13.5559   8
   2  -6  -9 29.5108 4.95224   4
   2  -6  -9 24.9637 5.19266   5
   1  -6  -9 47.1756 7.52184   5
  -1   6   9 52.9080 11.6594   8
   0  -6  -9 13.3333 4.22674   5
   0   6   9 1.63432 3.24801   8
  -1  -6  -9 38.2643 7.22227   5
   1   6   9 37.0255 9.78454   8
  -2  -6  -9 114.081 10.9446   5
   2   6   9 128.407 14.9686   8
  -3  -6  -9 49.4306 8.89991   5
   3   6   9 62.8425 12.9515   8
  -4  -6  -9 -1.8427 3.75242   5
   4   6   9 2.76275 3.49661   8
  -5  -6  -9 57.9560 10.6730   5
   5   6   9 27.4921 9.18591   8
   5   6   9 19.3693 9.08160   2
  -6  -6  -9 1.94896 4.67998   5
   6   6   9 28.7266 11.4296   2
  11  -7  -9 7.13336 6.69309   7
  11  -7  -9 10.3417 4.87057   4
  11  -7  -9 12.0482 7.19385   6
  10  -7  -9 6.75739 4.66223   6
  10  -7  -9 3.71969 8.02166   4
  10  -7  -9 5.25695 5.34111   7
   9  -7  -9 230.054 18.2943   6
   9  -7  -9 256.940 17.7667   4
   9  -7  -9 271.068 21.8796   7
   8  -7  -9 -0.5407 2.65427   6
   8  -7  -9 4.73067 4.13411   7
   8  -7  -9 -1.2559 2.38299   4
  -8   7   9 4.17755 4.05718   8
   7  -7  -9 21.0738 7.29746   7
   7  -7  -9 8.11940 3.57021   4
  -7   7   9 13.0976 5.05595   8
   6  -7  -9 39.5522 7.49089   4
  -6   7   9 55.5867 12.6702   8
   5  -7  -9 5.06709 2.73878   4
   5  -7  -9 -1.0713 2.26621   6
  -5   7   9 2.06065 3.55256   8
   4  -7  -9 122.201 9.39404   4
  -4   7   9 137.751 16.0647   8
   3  -7  -9 15.8846 3.53052   4
  -3   7   9 40.3377 10.7363   8
   2  -7  -9 -1.9658 1.49235   5
  -2   7   9 0.02703 3.04442   8
   1  -7  -9 395.776 19.0846   5
  -1   7   9 407.876 27.4138   8
   0  -7  -9 6.07978 2.82835   5
   0   7   9 7.92846 5.76502   8
  -1  -7  -9 92.0752 9.43054   5
   1   7   9 87.4994 15.8126   8
  -2  -7  -9 106.412 10.8693   5
   2   7   9 103.882 17.4828   8
  -3  -7  -9 23.6954 6.47026   5
   3   7   9 27.0001 8.46976   8
  -4  -7  -9 3.05447 3.74531   5
   4   7   9 -2.4207 4.43670   8
  10  -8  -9 83.9753 13.2947   6
  10  -8  -9 94.4572 15.7053   7
  10  -8  -9 107.056 12.0263   4
   9  -8  -9 67.9331 10.0223   4
   9  -8  -9 99.8700 21.5208   7
  -9   8   9 80.1243 14.3457   8
   8  -8  -9 0.19904 3.10796   6
   8  -8  -9 -0.9544 3.07995   7
   8  -8  -9 -0.1615 2.60190   4
  -8   8   9 6.83848 5.05122   8
   7  -8  -9 128.249 11.2105   4
  -7   8   9 145.747 16.8874   8
   6  -8  -9 132.623 10.8265   4
  -6   8   9 153.628 17.4610   8
   5  -8  -9 261.446 14.8826   4
  -5   8   9 258.461 22.9380   8
   4  -8  -9 -2.3298 1.57334   4
  -4   8   9 -0.2390 4.32595   8
   3  -8  -9 77.8475 8.11708   5
  -3   8   9 62.6686 13.0932   8
   2  -8  -9 11.0143 4.15755   5
  -2   8   9 13.5193 6.52449   8
   1  -8  -9 99.4369 9.46455   5
  -1   8   9 110.497 14.4171   8
   0  -8  -9 11.5667 4.93230   5
   0   8   9 8.74013 6.50796   8
  -1  -8  -9 12.3112 4.74326   5
   1   8   9 -3.0373 3.22979   8
  -2  -8  -9 97.1169 10.9945   5
   2   8   9 111.235 18.2502   8
  -3  -8  -9 25.4442 6.85686   5
   3   8   9 44.1974 10.0892   8
   9  -9  -9 27.8654 6.03837   4
   9  -9  -9 19.5266 7.69513   7
  -9   9   9 42.5968 10.8490   8
   8  -9  -9 38.7419 9.02396   7
   8  -9  -9 33.6381 6.83589   4
   7  -9  -9 8.39409 3.69827   4
  -7   9   9 3.35136 4.46658   8
   6  -9  -9 -7.0948 3.80583   6
   6  -9  -9 3.51754 2.39374   4
  -6   9   9 13.9325 6.82948   8
  -4   9   9 34.7425 10.4019   8
   3  -9  -9 32.9102 6.79820   5
  -3   9   9 30.9486 9.22795   8
   2  -9  -9 6.17375 3.58018   5
  -2   9   9 3.60063 4.05136   8
   1  -9  -9 10.2164 4.04876   5
  -1   9   9 25.1636 8.88801   8
   0  -9  -9 165.393 13.0306   5
   0   9   9 142.379 18.6006   8
   1   9   9 45.7944 11.4384   8
  -7  10   9 48.9676 11.2882   8
   6 -10  -9 -1.8733 2.47134   4
  -6  10   9 18.2711 7.29088   8
   5 -10  -9 3.11088 2.68368   4
  -5  10   9 4.84050 5.47243   8
   4 -10  -9 70.2811 10.1962   5
  -4  10   9 91.8378 15.2389   8
   3 -10  -9 3.62617 3.15465   5
  -3  10   9 2.20564 4.94216   8
   2 -10  -9 59.5363 8.81011   5
  -2  10   9 75.3170 14.7917   8
   1 -10  -9 -9.2672 3.41875   5
  -1  10   9 12.0109 6.09847   8
   0  13 -10 1.89768 4.50467   8
   0  13 -10 15.0228 5.16904   6
   0 -13  10 3.05594 11.0600   3
  -1  13 -10 20.3633 6.82307   6
  -1  13 -10 24.8781 6.86528   8
   1 -13  10 9.22456 8.35732   2
   1 -13  10 9.43758 9.07812   3
  -2  13 -10 121.794 12.9635   6
   2 -13  10 120.404 29.1076   2
   2 -13  10 139.274 19.4098   3
  -3  13 -10 63.4615 11.3812   6
   3 -13  10 85.2792 23.7182   2
   3 -13  10 74.3195 17.1940   3
  -4  13 -10 -0.3793 3.75787   8
   4 -13  10 -4.6204 4.23973   7
   4 -13  10 1.62634 5.80699   2
   5 -13  10 -2.8414 3.72656   7
   5 -13  10 13.2658 6.85859   2
   6 -13  10 12.6321 6.90727   2
   6 -13  10 -0.4630 3.57259   7
   7 -13  10 21.2798 7.07747   7
   7 -13  10 8.49752 6.92705   2
   2  12 -10 44.7020 10.4820   8
   2  12 -10 46.8427 7.47796   6
  -2 -12  10 66.7386 17.0713   3
   1  12 -10 4.78621 3.23518   6
   1  12 -10 1.88079 3.37382   8
  -1 -12  10 5.05986 6.79028   3
   0  12 -10 1.16731 3.12009   8
   0  12 -10 0.84039 2.86641   6
   0 -12  10 6.92340 5.37659   2
   0 -12  10 9.73298 6.60871   3
  -1  12 -10 18.4312 5.75744   8
  -1  12 -10 15.5234 5.09512   6
   1 -12  10 25.8686 10.5235   3
   1 -12  10 4.96787 6.20726   2
   2 -12  10 179.220 20.9034   3
   2 -12  10 181.831 19.7362   2
  -3  12 -10 58.6593 10.2061   6
   3 -12  10 65.3531 14.8844   2
   4 -12  10 16.9569 9.66482   2
   5 -12  10 72.7532 15.5702   2
   6 -12  10 -0.8628 4.69056   2
   7 -12  10 3.34194 5.12860   7
   7 -12  10 8.61990 6.49012   2
   8 -12  10 43.3479 10.8486   2
   8 -12  10 51.4824 12.5335   7
   9 -12  10 3.45527 6.02518   2
   9 -12  10 -0.8890 5.45551   7
   3  11 -10 12.7746 4.05535   6
  -3 -11  10 8.06392 9.48856   3
   2  11 -10 81.7717 9.54023   6
  -2 -11  10 113.814 21.2377   3
   1  11 -10 23.5637 5.77011   6
  -1 -11  10 9.84472 8.15560   3
  -1 -11  10 20.2622 7.78784   2
   0  11 -10 6.58040 3.93290   6
   0 -11  10 1.27802 3.84032   2
   0 -11  10 0.96298 5.04286   3
  -1  11 -10 9.48434 3.82735   6
   1 -11  10 1.53375 4.02867   3
   1 -11  10 7.68473 4.84697   2
  -2  11 -10 0.70092 2.67762   8
  -2  11 -10 6.97281 3.23449   6
   2 -11  10 -0.9470 2.57787   7
   2 -11  10 -8.3674 3.90190   2
  -3  11 -10 7.94297 3.67117   6
   3 -11  10 3.73498 2.54460   7
   3 -11  10 -2.7182 2.99782   2
   4 -11  10 106.195 18.2473   2
   5 -11  10 10.7321 6.31889   2
   5 -11  10 1.99420 3.88179   7
   6 -11  10 -0.7839 4.25730   2
   6 -11  10 -0.4549 3.50894   7
   7 -11  10 39.6667 11.2335   2
   7 -11  10 33.0031 8.01865   7
   8 -11  10 89.9419 18.5212   2
   8 -11  10 72.5460 13.1864   7
   9 -11  10 15.2929 6.47135   7
   9 -11  10 15.3888 6.69520   2
  10 -11  10 58.9490 12.3056   7
  10 -11  10 62.4735 21.8441   2
   5  10 -10 10.2582 4.53554   6
  -5 -10  10 15.0044 8.58845   3
  -4 -10  10 18.2539 8.96158   3
   3  10 -10 44.8446 7.67052   6
  -3 -10  10 36.7396 10.6806   3
   2  10 -10 9.58242 3.73525   6
  -2 -10  10 9.95499 6.13256   3
   1  10 -10 3.61138 2.85596   6
  -1 -10  10 -4.5225 2.74963   3
   0  10 -10 20.8110 5.44403   6
   0 -10  10 19.6234 7.08554   2
  -1  10 -10 24.4785 5.99044   6
   1 -10  10 22.8629 7.24161   2
  -2  10 -10 81.5540 8.83218   6
   2 -10  10 65.5250 13.0746   2
  -3  10 -10 -0.8735 1.70544   6
   3 -10  10 -1.7719 1.66566   7
   3 -10  10 4.40802 4.29067   2
  -4  10 -10 9.19505 3.50073   6
   4 -10  10 15.1396 5.29874   7
   4 -10  10 7.87328 5.07462   2
   5 -10  10 10.4534 5.56258   2
   5 -10  10 -0.5345 2.90490   7
   6 -10  10 59.3949 11.5803   2
   6 -10  10 66.3946 11.2881   7
   7 -10  10 42.3678 11.2118   2
   7 -10  10 61.5783 11.1744   7
   8 -10  10 276.352 25.3097   2
   8 -10  10 309.647 22.3810   7
   9 -10  10 -0.6685 3.67281   7
   9 -10  10 -0.2595 4.48623   2
  10 -10  10 -4.4222 4.89884   2
  10 -10  10 -4.6211 3.90710   7
   6   9 -10 17.5428 4.58014   6
  -6  -9  10 3.84094 6.98145   3
   5   9 -10 40.4964 7.58831   6
  -5  -9  10 53.6733 14.1345   3
   4   9 -10 81.9536 8.78890   6
  -4  -9  10 70.3003 15.4125   3
   3   9 -10 200.962 13.3356   6
  -3  -9  10 201.653 20.6024   3
   2   9 -10 2.02720 2.38274   6
  -2  -9  10 -0.4959 3.99377   3
   1   9 -10 1.42059 1.96715   6
  -1  -9  10 3.05498 3.49502   2
   0   9 -10 117.316 10.0218   6
   0  -9  10 142.980 14.2697   2
  -1   9 -10 5.45405 2.98918   6
   1  -9  10 -0.6057 1.77912   7
   1  -9  10 6.20928 3.52303   2
  -2   9 -10 65.0704 7.71654   6
  -2   9 -10 63.9836 6.21365   5
   2  -9  10 47.3740 9.96399   2
  -3   9 -10 79.1298 7.37550   5
  -3   9 -10 81.1958 8.80630   6
   3  -9  10 85.5366 9.48332   7
   3  -9  10 65.3987 14.4560   2
  -4   9 -10 47.4983 8.85005   6
  -4   9 -10 51.9496 7.85153   5
   4  -9  10 46.7846 9.26985   7
   4  -9  10 34.0936 9.17665   2
  -5   9 -10 91.4358 9.40060   5
   5  -9  10 78.9010 15.2646   2
   5  -9  10 64.0433 11.1971   7
  -6   9 -10 131.537 11.4309   5
   6  -9  10 113.085 14.5858   2
   6  -9  10 117.174 12.2688   7
  -7   9 -10 1.73813 2.98982   5
   7  -9  10 0.28298 3.88170   2
   7  -9  10 0.23623 2.88976   7
  -8   9 -10 92.4964 13.1514   5
   8  -9  10 53.5315 10.3630   2
   8  -9  10 66.4195 11.6847   7
   9  -9  10 46.8940 9.96169   7
   9  -9  10 67.7640 13.6782   2
  10  -9  10 66.2212 13.3222   7
  10  -9  10 71.4236 14.8711   2
  11  -9  10 13.1073 9.63463   2
   7   8 -10 25.1518 5.24189   6
  -7  -8  10 9.47261 6.08663   3
   6   8 -10 71.4685 8.31316   6
  -6  -8  10 39.8695 12.1995   3
   5   8 -10 71.1324 8.11901   6
  -5  -8  10 68.8057 15.0619   3
   4   8 -10 53.8008 8.01312   6
  -4  -8  10 62.5825 12.6462   3
   3   8 -10 80.4048 8.10229   6
  -3  -8  10 85.4644 15.5119   3
   2   8 -10 71.4503 7.52862   6
  -2  -8  10 65.6462 12.1752   3
   1   8 -10 34.1398 6.32187   6
  -1  -8  10 26.2877 7.24124   2
   0   8 -10 137.154 10.2031   6
   0  -8  10 124.955 13.1024   2
  -1   8 -10 156.946 11.0394   6
  -1   8 -10 135.897 8.64283   5
   1  -8  10 146.778 14.5911   2
  -2   8 -10 2.65150 2.59805   6
  -2   8 -10 10.2062 3.64107   5
   2  -8  10 6.48009 3.19646   7
   2  -8  10 2.19087 3.25645   2
  -3   8 -10 168.327 11.3036   5
  -3   8 -10 179.706 12.4171   6
   3  -8  10 191.056 17.2206   2
   3  -8  10 168.894 13.0939   7
  -4   8 -10 21.5389 5.29642   5
  -4   8 -10 26.9509 5.67735   6
   4  -8  10 27.1977 6.23557   7
   4  -8  10 22.1449 8.03453   2
  -5   8 -10 412.237 20.5691   5
   5  -8  10 377.095 30.8886   2
   5  -8  10 433.638 23.5975   7
  -6   8 -10 438.131 22.7028   5
   6  -8  10 438.948 28.6987   2
   7  -8  10 21.1780 6.43767   2
   7  -8  10 19.1744 5.63651   7
  -8   8 -10 108.236 12.3438   5
   8  -8  10 116.972 15.4114   2
   8  -8  10 119.416 13.9944   7
  -9   8 -10 15.7799 6.86458   5
   9  -8  10 33.6179 10.1830   2
   9  -8  10 22.9569 7.21527   7
  10  -8  10 132.550 17.5784   2
  10  -8  10 141.203 25.5378   7
  11  -8  10 32.6661 8.78339   7
  11  -8  10 34.5428 11.7872   2
   8   7 -10 19.3710 5.79540   6
   8   7 -10 23.7461 5.24011   4
  -8  -7  10 5.53194 7.43544   3
   6   7 -10 25.9092 5.38103   6
  -6  -7  10 3.62311 3.89291   3
   5   7 -10 14.1960 3.56789   4
   5   7 -10 11.7735 3.91113   6
   4   7 -10 50.9446 6.46618   6
  -4  -7  10 55.0915 12.2940   3
   3   7 -10 22.3595 4.53169   6
  -3  -7  10 21.5858 7.54799   3
   2   7 -10 258.247 13.8454   6
   2   7 -10 238.846 9.85392   5
  -2  -7  10 215.694 15.8350   2
   1   7 -10 57.3035 6.33713   6
   1   7 -10 52.4251 5.03339   5
  -1  -7  10 47.6898 8.89205   2
   0   7 -10 21.1367 4.08157   6
   0   7 -10 24.1002 4.42296   5
   0  -7  10 18.5304 5.37720   2
  -1   7 -10 18.0164 3.86105   5
  -1   7 -10 14.4123 3.80800   6
   1  -7  10 18.5075 4.57377   7
   1  -7  10 14.1830 5.05043   2
  -2   7 -10 8.80403 3.39776   5
  -2   7 -10 9.06986 2.93281   6
   2  -7  10 10.5823 4.14486   7
   2  -7  10 8.16539 4.86056   2
  -3   7 -10 19.9293 4.71837   5
  -3   7 -10 24.9732 4.90549   6
   3  -7  10 20.9139 6.28017   2
   3  -7  10 25.0170 6.51876   7
  -4   7 -10 118.512 9.91528   6
  -4   7 -10 105.499 9.83514   5
   4  -7  10 116.583 11.6514   7
   4  -7  10 93.2663 12.4150   2
  -5   7 -10 1.41936 2.94007   5
   5  -7  10 5.25302 3.72091   2
   5  -7  10 2.37180 2.99691   7
  -6   7 -10 40.3242 8.39293   5
   6  -7  10 15.7441 7.10742   2
   6  -7  10 32.6793 8.30432   7
  -7   7 -10 24.1089 7.09205   5
   7  -7  10 21.6017 6.33638   2
   7  -7  10 17.0700 5.62541   7
  -8   7 -10 129.458 13.5101   5
   8  -7  10 93.7930 17.2690   2
   8  -7  10 119.965 14.1158   7
  -9   7 -10 170.365 16.7487   5
   9  -7  10 133.450 15.1127   7
   9  -7  10 143.617 17.6677   2
 -10   7 -10 -0.7246 4.29775   5
  10  -7  10 -0.7187 3.35641   2
  10  -7  10 -0.5407 3.51890   7
  11  -7  10 42.7198 9.94078   7
  11  -7  10 24.8163 8.57393   2
   8   6 -10 91.7658 8.33212   4
   8   6 -10 107.939 10.9071   6
   7   6 -10 79.4245 8.78696   6
   7   6 -10 80.9167 7.68356   4
   6   6 -10 -2.2476 1.22500   4
   6   6 -10 1.07013 1.92093   6
  -6  -6  10 3.74973 3.27036   3
   5   6 -10 52.5037 6.12171   4
   5   6 -10 41.6086 7.19159   6
   5   6 -10 47.2781 7.86524   5
  -5  -6  10 62.8928 11.7207   3
   4   6 -10 58.6137 6.92999   6
   4   6 -10 51.3599 4.66813   5
   4   6 -10 41.6677 6.36317   4
  -4  -6  10 55.8456 10.6101   3
   3   6 -10 65.2902 6.90979   6
   3   6 -10 74.8267 7.01234   4
   3   6 -10 68.4930 5.34709   5
   2   6 -10 9.68229 3.27339   6
   2   6 -10 8.07430 2.50202   5
  -2  -6  10 7.91869 3.71198   2
   1   6 -10 148.246 9.72296   6
   1   6 -10 155.335 8.67534   5
  -1  -6  10 109.591 11.3067   2
   0   6 -10 56.1843 5.94743   6
   0  -6  10 54.7250 10.6929   2
  -1   6 -10 92.3059 7.63004   6
  -1   6 -10 108.930 8.16112   5
   1  -6  10 107.480 11.9562   2
  -2   6 -10 59.3184 6.72516   5
  -2   6 -10 65.8693 6.55133   6
   2  -6  10 50.4742 8.92332   2
  -3   6 -10 79.0124 7.47910   6
  -3   6 -10 80.2726 7.88630   5
  -3   6 -10 67.1979 7.55579   8
   3  -6  10 90.5959 15.2034   2
  -4   6 -10 605.431 23.1253   6
  -4   6 -10 616.697 24.8219   5
   4  -6  10 626.188 32.5606   2
   4  -6  10 622.496 27.8014   7
  -5   6 -10 5.74769 3.11116   5
   5  -6  10 6.44309 3.91951   7
   5  -6  10 10.9433 4.97956   2
  -6   6 -10 19.9582 5.81252   5
   6  -6  10 29.5026 8.49942   2
   6  -6  10 32.7638 7.98195   7
  -7   6 -10 -3.2998 2.91987   5
   7  -6  10 0.04219 3.10788   7
   7  -6  10 3.87614 3.37737   2
  -8   6 -10 8.73521 4.16126   5
   8  -6  10 9.82422 4.84478   2
   8  -6  10 13.4932 5.66543   7
  -9   6 -10 100.894 15.8820   5
   9  -6  10 94.0360 15.5503   2
   9  -6  10 52.0925 10.3633   7
 -10   6 -10 11.0464 5.03472   5
  10  -6  10 5.55298 5.58955   2
  10  -6  10 6.24604 5.79153   7
 -11   6 -10 31.5106 8.87985   5
  11  -6  10 48.0707 10.8879   7
  11  -6  10 41.1019 12.8492   2
   9   5 -10 22.9268 6.13097   6
   9   5 -10 25.7251 5.43294   4
   8   5 -10 142.091 12.7969   6
   8   5 -10 141.122 10.5946   4
   7   5 -10 51.2838 8.58769   6
   7   5 -10 45.2383 7.10886   4
   6   5 -10 70.5229 7.06547   4
   6   5 -10 63.6991 7.95464   6
   5   5 -10 3.24443 2.26450   4
   5   5 -10 3.50801 2.32197   6
  -5  -5  10 3.30934 3.07989   3
   4   5 -10 14.4220 3.98584   6
   4   5 -10 28.9621 5.60312   4
   4   5 -10 14.6482 3.10623   5
  -4  -5  10 10.7494 4.59573   3
   3   5 -10 39.9531 4.35520   5
   3   5 -10 46.8661 6.99212   4
   3   5 -10 40.8471 6.69363   6
   2   5 -10 174.936 10.7867   4
   2   5 -10 183.839 9.29000   5
   2   5 -10 185.034 10.9238   6
  -2  -5  10 187.899 13.4503   2
   1   5 -10 1.82665 1.78283   5
   1   5 -10 1.36940 1.59016   6
  -1  -5  10 5.72241 3.26623   2
  -1  -5  10 5.12160 2.65897   7
   0   5 -10 25.6417 4.66545   5
   0   5 -10 24.0755 4.83330   6
   0  -5  10 22.6438 6.44169   2
  -1   5 -10 37.8589 5.80309   5
  -1   5 -10 38.2984 4.80247   6
   1  -5  10 38.0482 8.78322   2
  -2   5 -10 9.05947 2.74849   6
  -2   5 -10 7.30254 3.30873   5
   2  -5  10 8.71372 3.98004   2
  -3   5 -10 286.349 13.7948   6
  -3   5 -10 227.779 13.1275   8
  -3   5 -10 271.909 15.0040   5
   3  -5  10 300.291 20.6918   2
  -4   5 -10 5.90368 2.75236   6
  -4   5 -10 6.51572 3.18239   5
   4  -5  10 4.08796 4.08056   2
  -5   5 -10 377.044 20.2409   5
   5  -5  10 386.090 25.3922   2
  -6   5 -10 24.2096 6.27587   5
   6  -5  10 13.5437 6.08760   7
   6  -5  10 6.25398 4.87284   2
  -7   5 -10 65.0440 12.0494   5
   7  -5  10 91.2599 16.4705   2
   7  -5  10 89.3481 14.2466   7
  -8   5 -10 45.9404 9.82951   5
   8  -5  10 29.0037 8.65789   2
   8  -5  10 46.3581 10.1375   7
  -9   5 -10 221.982 19.1275   5
   9  -5  10 220.172 21.3269   2
   9  -5  10 209.996 19.3740   7
 -10   5 -10 34.1300 9.10449   5
  10  -5  10 24.5366 8.53327   2
  10  -5  10 33.4976 9.34930   7
 -11   5 -10 -4.2119 3.33431   5
  11  -5  10 12.5303 6.26995   2
  11  -5  10 3.80725 5.41245   7
  10   4 -10 6.80168 3.94400   4
   9   4 -10 94.0883 9.11000   4
   8   4 -10 66.6120 7.78680   4
   8   4 -10 78.9273 9.46662   6
   7   4 -10 338.567 19.0370   6
   7   4 -10 333.773 16.6784   4
   6   4 -10 1.27223 1.78933   6
   6   4 -10 0.32054 1.71418   4
  -6  -4  10 0.11613 2.59447   3
   5   4 -10 306.520 16.4820   6
   5   4 -10 266.228 14.2589   4
   4   4 -10 64.0120 7.15528   6
   4   4 -10 69.3442 6.75952   4
   3   4 -10 67.2838 5.67934   5
   3   4 -10 87.7316 7.57993   6
   3   4 -10 75.7103 7.06940   4
   2   4 -10 10.0978 3.38456   4
   2   4 -10 4.68057 1.90470   5
   2   4 -10 5.06947 2.51154   6
  -2  -4  10 7.17402 2.61468   7
  -2  -4  10 6.42146 3.31776   2
   1   4 -10 76.7148 6.33062   5
   1   4 -10 87.4082 7.37648   4
   1   4 -10 77.8506 6.68038   6
  -1  -4  10 107.746 10.4366   2
   0   4 -10 280.526 12.9007   5
   0   4 -10 274.599 12.1780   6
   0  -4  10 275.663 18.0850   2
  -1   4 -10 187.230 11.0224   5
  -1   4 -10 202.299 10.2844   6
   1  -4  10 193.716 15.7133   2
  -2   4 -10 358.399 16.4963   5
  -2   4 -10 366.826 14.5726   6
   2  -4  10 355.083 22.2415   2
  -3   4 -10 52.8893 7.68703   5
  -3   4 -10 61.6129 6.14446   6
  -3   4 -10 49.3177 7.20054   8
   3  -4  10 38.5419 7.76077   2
  -4   4 -10 29.6848 6.34052   5
  -4   4 -10 33.8534 6.04693   6
   4  -4  10 13.4669 6.07701   2
  -5   4 -10 530.366 24.3359   5
   5  -4  10 498.758 29.5649   2
  -6   4 -10 40.8160 8.41430   5
   6  -4  10 27.6667 8.05465   2
  -7   4 -10 34.6308 7.49227   5
   7  -4  10 39.3609 10.2667   2
  -8   4 -10 4.44986 4.24732   5
   8  -4  10 6.61597 5.34131   2
   8  -4  10 8.04391 4.75730   7
  -9   4 -10 -0.9420 2.90126   5
   9  -4  10 3.25182 3.81635   7
   9  -4  10 12.4188 6.22046   2
 -10   4 -10 18.3283 7.48671   5
  10  -4  10 36.0252 9.54549   2
  10  -4  10 31.0815 9.61680   7
 -11   4 -10 -4.7185 4.22845   5
  11  -4  10 4.15053 5.19846   7
  11  -4  10 2.04919 5.36467   2
  10   3 -10 -1.3648 2.80653   4
  10   3 -10 -3.9902 3.33426   6
   9   3 -10 118.086 12.0607   6
   9   3 -10 88.9259 9.11803   4
   8   3 -10 26.2553 5.79280   4
   8   3 -10 26.4332 6.39676   6
   7   3 -10 73.6055 8.04273   4
   7   3 -10 69.0797 8.77184   6
   6   3 -10 5.83204 3.49875   6
   6   3 -10 -1.3000 2.01017   4
  -6  -3  10 -0.9164 2.30171   3
   5   3 -10 -0.4147 1.68919   6
   5   3 -10 5.02878 2.76374   4
  -5  -3  10 0.91607 2.01927   3
   4   3 -10 206.437 12.5731   6
   4   3 -10 204.911 12.0579   4
   3   3 -10 196.859 11.4232   4
   3   3 -10 193.475 11.3280   6
  -3  -3  10 156.918 12.2819   7
   2   3 -10 6.81200 2.57698   6
   2   3 -10 3.45410 2.61238   4
   2   3 -10 4.07227 1.93902   5
  -2  -3  10 4.26772 2.84442   2
   1   3 -10 104.585 8.12081   4
   1   3 -10 108.210 7.60899   5
   1   3 -10 116.016 7.63224   6
  -1  -3  10 114.866 10.9945   2
   0   3 -10 273.547 13.5885   4
   0   3 -10 285.796 11.9002   6
   0   3 -10 276.816 13.0850   5
   0  -3  10 299.452 18.8010   2
  -1   3 -10 1264.78 29.6018   6
  -1   3 -10 1188.82 32.6898   5
   1  -3  10 1255.33 43.5654   2
  -2   3 -10 0.56421 1.12347   6
  -2   3 -10 -0.6697 1.37643   5
  -3   3 -10 15.9029 3.83564   8
  -3   3 -10 15.1169 4.57578   5
  -3   3 -10 20.4693 4.21001   6
   3  -3  10 21.4341 7.06743   2
  -4   3 -10 76.5793 8.60796   5
   4  -3  10 74.3478 13.4276   2
  -5   3 -10 42.2138 7.56246   5
   5  -3  10 35.3065 7.84692   2
  -6   3 -10 242.916 17.1110   5
   6  -3  10 221.086 20.0748   2
  -7   3 -10 9.69034 4.81981   5
   7  -3  10 15.7791 7.74774   2
  -8   3 -10 28.6105 7.69275   5
   8  -3  10 25.8213 7.49371   7
   8  -3  10 46.3120 12.6108   2
  -9   3 -10 184.628 17.6311   5
   9  -3  10 159.222 16.9035   7
   9  -3  10 206.439 21.1783   2
 -10   3 -10 -9.8273 3.94557   5
  10  -3  10 0.35139 4.94288   2
  10  -3  10 -3.7302 4.89684   7
  11  -3  10 50.4276 12.7435   7
  11  -3  10 64.1145 13.7575   2
  10   2 -10 18.5390 5.32346   4
  10   2 -10 23.3402 7.52676   6
   9   2 -10 -0.2425 2.71850   4
   9   2 -10 -1.1583 2.34841   6
   8   2 -10 36.6047 7.25106   4
   8   2 -10 21.5554 5.24801   6
   7   2 -10 406.592 19.3402   4
   7   2 -10 370.323 20.5329   6
   6   2 -10 66.2171 7.46356   4
   5   2 -10 42.9943 6.92191   4
   5   2 -10 48.1872 7.85616   6
   4   2 -10 94.2548 8.25971   4
   4   2 -10 102.319 8.77187   6
   3   2 -10 156.070 10.1291   6
   3   2 -10 150.676 10.0875   4
  -3  -2  10 148.685 11.1048   2
   2   2 -10 15.4650 4.34686   4
   2   2 -10 14.3119 3.50439   6
  -2  -2  10 23.0627 7.44272   2
   1   2 -10 153.712 9.28145   5
   1   2 -10 134.563 9.27481   4
   1   2 -10 156.886 8.62335   6
  -1  -2  10 146.587 12.7470   2
   0   2 -10 700.963 19.4999   6
   0   2 -10 691.989 22.5168   4
   0   2 -10 697.746 22.3704   5
   0  -2  10 717.430 30.5749   2
  -1   2 -10 306.906 11.7638   6
  -1   2 -10 302.229 14.5056   5
   1  -2  10 309.812 20.6403   2
  -2   2 -10 47.8678 7.29620   5
  -2   2 -10 37.3595 4.24301   6
   2  -2  10 41.6855 10.2646   2
  -3   2 -10 25.8687 4.36132   6
  -3   2 -10 19.3044 4.52064   5
   3  -2  10 20.7299 6.52647   2
   3  -2  10 18.7563 4.31099   6
  -4   2 -10 543.397 19.7382   8
  -4   2 -10 590.761 24.7477   5
   4  -2  10 498.937 37.2462   2
   4  -2  10 574.197 18.8377   6
  -5   2 -10 257.450 16.9474   5
   5  -2  10 268.879 21.8753   2
   5  -2  10 259.471 11.9119   6
  -6   2 -10 239.182 25.7141   5
  -7   2 -10 17.8811 6.49163   5
   7  -2  10 22.4046 8.36371   2
   8  -2  10 2.56040 5.64819   2
  -9   2 -10 66.6884 11.8941   5
   9  -2  10 81.1925 14.3166   7
   9  -2  10 63.7567 12.3633   2
 -10   2 -10 7.49314 5.69185   5
  10  -2  10 -0.2504 4.49147   7
  11   1 -10 65.5617 13.2950   6
  11   1 -10 50.9408 8.52286   4
  10   1 -10 3.57561 3.97359   4
  10   1 -10 17.4369 5.60571   6
   9   1 -10 1.35489 2.47337   4
   9   1 -10 -1.8368 3.13996   6
   8   1 -10 32.8710 6.45514   4
   8   1 -10 43.6551 9.02025   6
   7   1 -10 7.98288 3.59890   6
   7   1 -10 16.2930 4.98480   4
   6   1 -10 67.7061 10.2830   6
   6   1 -10 64.1792 7.37369   4
   5   1 -10 17.7264 4.70308   6
   5   1 -10 8.29907 2.77021   4
   4   1 -10 60.6666 6.83711   6
   4   1 -10 68.8798 7.09281   4
   3   1 -10 8.41221 3.13853   4
   3   1 -10 16.3080 3.86944   6
  -3  -1  10 10.5304 3.97479   2
   2   1 -10 18.3431 4.05400   4
   2   1 -10 24.2468 4.10609   6
  -2  -1  10 19.9211 5.59586   2
   1   1 -10 127.788 7.45919   6
   1   1 -10 130.609 9.03587   4
   1   1 -10 110.108 8.10763   5
  -1  -1  10 119.447 11.7508   2
   0   1 -10 154.815 9.77243   4
   0   1 -10 158.236 10.0792   5
   0   1 -10 156.467 8.39975   6
   0  -1  10 151.455 14.0924   2
  -1   1 -10 51.2067 6.16608   5
  -1   1 -10 56.0119 4.51851   6
   1  -1  10 49.4217 9.36140   8
   1  -1  10 54.0504 10.7514   2
   1  -1  10 41.9273 6.31277   6
  -2   1 -10 186.285 11.9369   5
  -2   1 -10 182.890 8.61404   6
   2  -1  10 150.118 12.9218   8
   2  -1  10 194.699 17.0640   2
   2  -1  10 186.476 10.5473   6
  -3   1 -10 80.7747 8.43200   5
   3  -1  10 83.3920 9.21992   8
   3  -1  10 71.0959 6.23644   6
   3  -1  10 69.5029 12.3210   2
  -4   1 -10 132.642 11.7218   5
   4  -1  10 135.517 8.00980   6
   4  -1  10 142.639 15.6084   2
   4  -1  10 150.573 11.7641   8
  -5   1 -10 130.691 12.2711   5
   5  -1  10 141.991 15.9749   2
   5  -1  10 132.430 12.7156   8
   5  -1  10 142.595 7.89010   6
  -6   1 -10 2.44011 2.88798   5
   6  -1  10 8.21277 6.10865   2
   6  -1  10 5.15762 2.90763   8
  -7   1 -10 113.989 12.7463   5
   7  -1  10 119.629 15.8938   2
  -8   1 -10 25.0368 7.42839   5
   8  -1  10 21.7068 7.31364   2
  -9   1 -10 54.3878 11.8135   5
   9  -1  10 65.0974 13.7587   2
   9  -1  10 49.6170 10.6898   7
 -10   1 -10 41.7784 9.91267   5
  10  -1  10 44.5804 11.4421   2
  10  -1  10 54.3317 12.5218   7
  11   0 -10 5.14128 4.36344   6
  11   0 -10 -1.4832 2.85578   4
  10   0 -10 4.45362 3.55858   6
  10   0 -10 -0.9490 2.62033   4
   9   0 -10 -0.7048 1.77501   4
   9   0 -10 -1.3649 2.56851   6
   8   0 -10 42.3494 8.21890   4
   8   0 -10 36.6908 8.53618   6
   7   0 -10 296.589 16.9298   4
   6   0 -10 4.43875 2.24832   6
   6   0 -10 -2.4228 1.36191   4
   5   0 -10 24.0352 5.50183   4
   5   0 -10 28.2794 5.95541   6
   4   0 -10 34.8836 5.97397   6
   4   0 -10 31.2742 5.61359   4
   3   0 -10 -1.1624 1.01716   4
   3   0 -10 3.81469 2.07995   6
  -3   0  10 -3.3219 2.85298   3
  -3   0  10 3.36183 2.31166   2
   2   0 -10 324.946 13.2384   6
   2   0 -10 333.904 15.1900   4
  -2   0  10 360.401 20.3905   2
   1   0 -10 65.6217 5.25068   6
   1   0 -10 73.1109 6.87208   5
   1   0 -10 83.2879 7.21248   4
  -1   0  10 76.3677 9.95786   2
  -1   0  10 77.9656 13.0026   8
   0   0 -10 14.9578 3.95078   4
   0   0 -10 14.0319 2.73420   6
   0   0 -10 12.3527 3.46382   5
   0   0  10 15.1014 6.53242   2
   0   0  10 12.8165 4.70698   8
  -1   0 -10 50.4914 7.51963   5
   1   0  10 44.8491 9.82520   2
   1   0  10 28.6011 6.77525   8
   1   0  10 35.8707 5.61242   6
  -2   0 -10 264.596 14.9549   5
   2   0  10 342.866 23.4757   2
   2   0  10 320.621 18.9878   8
   2   0  10 264.928 11.9624   6
  -3   0 -10 86.8338 8.96112   5
   3   0  10 88.8633 21.4770   2
   3   0  10 79.3178 9.35434   8
  -4   0 -10 -0.8555 1.64381   5
   4   0  10 -3.0225 2.52255   2
   4   0  10 -1.3185 2.51382   8
  -5   0 -10 43.5910 12.6779   5
   5   0  10 39.1935 7.82625   8
   5   0  10 64.3635 20.0271   2
  -6   0 -10 6.44516 4.14735   5
   6   0  10 2.00965 4.64507   2
   6   0  10 2.13082 3.31920   8
  -7   0 -10 106.844 12.4955   5
   7   0  10 99.6379 19.0317   2
   7   0  10 71.4249 8.32450   8
  -8   0 -10 23.8434 6.84996   5
   8   0  10 16.5517 8.15887   2
  -9   0 -10 3.88593 5.76234   5
   9   0  10 -3.2557 9.26696   2
  11  -1 -10 17.7127 7.37259   6
  11  -1 -10 16.5313 5.14837   4
  10  -1 -10 124.313 13.4998   6
  10  -1 -10 109.864 11.5764   4
   9  -1 -10 153.490 13.3091   4
   9  -1 -10 161.489 14.8440   6
   8  -1 -10 6.61683 2.93410   4
   8  -1 -10 5.43099 3.22555   6
   7  -1 -10 9.43758 3.41067   4
   7  -1 -10 7.31127 4.56232   6
   6  -1 -10 0.49112 1.94204   4
   6  -1 -10 0.46659 2.35356   6
   5  -1 -10 7.56133 2.92914   4
   5  -1 -10 10.2899 3.98367   6
   3  -1 -10 19.6433 4.49513   6
   3  -1 -10 12.6025 3.53843   4
  -3   1  10 16.3415 5.52387   3
  -3   1  10 10.7177 5.28691   2
  -3   1  10 35.5181 9.70254   8
   2  -1 -10 7.98293 2.35693   4
   2  -1 -10 14.4215 3.30816   6
  -2   1  10 11.1469 5.27952   8
  -2   1  10 12.8143 4.62717   2
   1  -1 -10 853.223 26.2591   5
   1  -1 -10 843.117 25.6957   4
   1  -1 -10 868.512 20.9298   6
  -1   1  10 854.262 35.6667   8
  -1   1  10 844.317 35.7951   2
   0  -1 -10 86.0565 7.86715   5
   0  -1 -10 95.2018 7.67533   4
   0   1  10 105.811 12.6101   2
   0   1  10 87.1924 10.8777   8
  -1  -1 -10 295.774 15.2198   5
   1   1  10 328.482 22.8332   2
   1   1  10 280.405 18.8325   8
  -2  -1 -10 44.1058 7.73436   5
   2   1  10 35.0954 8.34123   8
   2   1  10 38.7563 9.00848   2
  -3  -1 -10 83.6926 8.96028   5
   3   1  10 81.0426 10.2000   8
   3   1  10 84.4951 14.9091   2
  -4  -1 -10 154.653 12.7611   5
   4   1  10 129.463 12.1793   8
   4   1  10 133.147 15.9376   2
  -5  -1 -10 0.48909 2.57740   5
   5   1  10 -2.3924 2.70771   8
   5   1  10 1.19358 4.10229   2
  -6  -1 -10 3.91258 3.64734   5
   6   1  10 -2.2235 2.81258   8
   6   1  10 4.71455 3.68266   2
  -7  -1 -10 14.8287 6.04490   5
   7   1  10 16.0463 7.37086   2
   7   1  10 10.6292 4.12872   8
  -8  -1 -10 25.4717 7.60915   5
   8   1  10 47.5037 10.4355   2
   8   1  10 21.4526 7.64116   8
  -9  -1 -10 -5.3569 5.20990   5
   9   1  10 8.02467 6.23910   2
  11  -2 -10 17.3109 6.37864   6
  11  -2 -10 28.0409 7.33043   4
  10  -2 -10 19.1211 5.71413   6
  10  -2 -10 11.1462 4.96198   4
   9  -2 -10 132.882 12.2697   4
   9  -2 -10 134.133 13.5892   6
   8  -2 -10 43.6571 8.61617   6
   8  -2 -10 37.0019 7.85673   4
   7  -2 -10 38.5186 6.54268   4
   7  -2 -10 52.8078 9.04487   6
   6  -2 -10 423.424 20.2531   4
   6  -2 -10 427.474 21.1427   6
   5  -2 -10 310.006 16.5917   4
   5  -2 -10 353.613 17.6491   6
   4  -2 -10 204.796 12.6420   4
   4  -2 -10 166.471 11.0461   6
  -4   2  10 213.070 18.3044   8
  -4   2  10 191.917 14.6102   2
   3  -2 -10 5.32655 2.84783   4
   3  -2 -10 5.65112 2.45064   6
  -3   2  10 4.29569 3.70120   3
  -3   2  10 8.20515 4.29568   2
   2  -2 -10 30.8911 4.94368   4
   2  -2 -10 43.6966 4.33166   6
  -2   2  10 45.5222 10.1057   8
  -2   2  10 51.4550 9.56535   2
   1  -2 -10 255.474 12.8716   4
   1  -2 -10 256.656 13.5641   5
  -1   2  10 257.339 19.1547   8
  -1   2  10 230.829 18.6267   2
   0  -2 -10 173.251 10.4218   4
   0  -2 -10 188.671 11.9559   5
   0   2  10 194.944 17.6945   2
   0   2  10 170.702 15.7241   8
  -1  -2 -10 15.5487 4.39511   5
   1   2  10 16.1773 6.37772   2
   1   2  10 6.54105 3.66838   8
  -2  -2 -10 34.7212 5.87727   5
   2   2  10 41.7482 11.0759   2
   2   2  10 46.7558 9.39564   8
  -3  -2 -10 27.7438 6.57862   5
   3   2  10 22.6390 6.44877   8
   3   2  10 27.5584 8.56537   2
  -4  -2 -10 112.084 11.2704   5
   4   2  10 108.868 11.7661   8
   4   2  10 98.3321 16.7738   2
  -5  -2 -10 8.64155 4.05587   5
   5   2  10 2.36203 2.89233   8
   5   2  10 -0.7987 3.16402   2
  -6  -2 -10 97.2940 11.9431   5
   6   2  10 98.7762 18.9013   2
   6   2  10 88.0834 12.7453   8
  -7  -2 -10 55.4287 10.3192   5
   7   2  10 63.3089 10.6815   8
   7   2  10 57.0202 13.0661   2
  -8  -2 -10 -3.8168 4.78457   5
   8   2  10 -5.8103 5.46992   2
  11  -3 -10 70.2836 11.4119   6
  11  -3 -10 59.7054 10.4710   4
  10  -3 -10 27.4045 7.69954   6
  10  -3 -10 32.5170 7.98918   4
   9  -3 -10 8.01971 3.52890   4
   9  -3 -10 15.1297 5.74225   6
   8  -3 -10 43.0105 8.10575   6
   8  -3 -10 57.3008 9.99504   4
   7  -3 -10 16.7837 5.05404   6
   7  -3 -10 14.1647 4.41596   4
   6  -3 -10 173.346 12.9923   6
   6  -3 -10 179.367 16.6544   4
   5  -3 -10 325.920 16.9824   4
   5  -3 -10 328.793 16.9305   6
  -5   3  10 315.295 23.7036   8
   4  -3 -10 -2.0294 1.45033   6
   4  -3 -10 -2.1554 0.76210   4
  -4   3  10 -3.2233 1.31202   8
  -4   3  10 4.24646 3.11703   2
   3  -3 -10 40.2768 5.94236   4
  -3   3  10 58.4684 11.2502   8
  -3   3  10 66.3954 11.3236   2
   2  -3 -10 1.70833 0.83484   6
   2  -3 -10 1.65961 1.67805   4
  -2   3  10 -1.4959 2.03124   8
   1  -3 -10 105.993 9.00209   5
   1  -3 -10 109.671 8.32622   4
  -1   3  10 86.9529 13.9610   8
   0  -3 -10 989.556 28.1584   4
   0  -3 -10 994.233 31.3164   5
   0   3  10 1093.83 42.4950   8
  -1  -3 -10 44.8409 7.72701   5
   1   3  10 46.5191 10.8800   8
   1   3  10 39.8433 10.9961   2
  -2  -3 -10 239.487 15.0517   5
   2   3  10 209.960 17.4505   8
   2   3  10 233.333 21.5316   2
  -3  -3 -10 16.6056 4.64922   5
   3   3  10 26.3296 7.36480   8
   3   3  10 15.7141 6.33840   2
  -4  -3 -10 28.5492 6.49460   5
   4   3  10 43.0610 10.1470   8
   4   3  10 22.2403 7.05546   2
  -5  -3 -10 15.6420 4.83835   5
   5   3  10 32.0941 6.71525   8
   5   3  10 32.1890 9.05233   2
  -6  -3 -10 8.22550 4.29263   5
   6   3  10 5.66250 5.56913   2
   6   3  10 13.5984 5.87754   8
  -7  -3 -10 37.4817 9.66835   5
   7   3  10 23.7361 9.55750   2
   7   3  10 19.4998 6.43980   8
  11  -4 -10 34.5293 7.14605   4
  11  -4 -10 64.6091 12.0235   6
  10  -4 -10 4.41862 3.16296   4
  10  -4 -10 -2.5554 3.26860   6
   9  -4 -10 3.25339 2.83166   6
   9  -4 -10 4.99148 3.33091   4
   8  -4 -10 31.5515 6.30048   4
   8  -4 -10 50.2888 9.73731   6
   7  -4 -10 2.07402 2.41480   4
   7  -4 -10 -2.3687 2.20102   6
   6  -4 -10 28.9838 5.60649   4
   6  -4 -10 45.2099 8.15909   6
  -6   4  10 45.4556 11.1225   8
   5  -4 -10 204.165 12.8461   6
   5  -4 -10 191.478 12.8543   4
  -5   4  10 191.837 32.0780   8
   3  -4 -10 146.960 10.2272   4
  -3   4  10 160.038 16.1389   8
   2  -4 -10 102.813 8.88916   5
   2  -4 -10 84.6884 7.54173   4
  -2   4  10 82.7026 14.0682   8
   1  -4 -10 -1.0017 1.83233   5
   1  -4 -10 0.69475 1.34268   4
  -1   4  10 2.26916 2.69823   8
   0  -4 -10 260.744 15.1276   5
   0   4  10 266.207 20.6016   8
  -1  -4 -10 3.87365 3.45345   5
   1   4  10 7.19060 4.48512   8
  -2  -4 -10 187.033 13.8815   5
   2   4  10 196.028 17.6536   8
  -3  -4 -10 7.41410 3.54139   5
   3   4  10 5.74777 4.46494   2
   3   4  10 13.2593 6.83547   8
  -4  -4 -10 -0.7004 2.80912   5
   4   4  10 5.83772 5.20863   2
   4   4  10 11.9901 5.82432   8
  -5  -4 -10 9.28827 3.89603   5
   5   4  10 18.6563 5.70014   8
   5   4  10 10.4964 5.65381   2
  -6  -4 -10 37.7677 9.14635   5
   6   4  10 41.2133 9.59819   8
   6   4  10 45.5861 16.7579   2
  -7  -4 -10 6.19933 6.01481   5
   7   4  10 5.02334 6.30454   2
  11  -5 -10 -2.9089 4.56088   6
  11  -5 -10 -4.0741 2.94722   4
  10  -5 -10 2.13661 4.39654   6
   9  -5 -10 23.8059 6.49728   4
   9  -5 -10 31.6507 7.97445   6
   8  -5 -10 7.99377 4.29347   4
   8  -5 -10 14.3693 4.88547   6
   7  -5 -10 20.7493 5.58036   4
   7  -5 -10 21.9214 5.99141   6
  -7   5  10 22.1503 7.65304   8
   6  -5 -10 22.7682 6.19059   4
  -6   5  10 7.56966 5.16906   8
   5  -5 -10 0.28586 1.22147   6
   5  -5 -10 1.35178 2.67444   4
  -5   5  10 3.38569 3.81142   8
   4  -5 -10 151.390 11.0264   4
  -4   5  10 175.093 17.5762   8
   3  -5 -10 78.9576 7.36653   4
  -3   5  10 61.9897 13.1734   8
   2  -5 -10 62.3192 10.0260   5
   2  -5 -10 76.8107 7.07991   4
  -2   5  10 107.126 13.6714   8
   1  -5 -10 129.837 9.03637   4
   1  -5 -10 125.546 10.6885   5
  -1   5  10 133.260 15.1220   8
   0  -5 -10 13.1363 4.46968   5
   0   5  10 14.5246 6.35988   8
  -1  -5 -10 112.422 10.8569   5
   1   5  10 141.849 15.6556   8
  -2  -5 -10 47.8350 7.55526   5
   2   5  10 58.9766 11.7590   8
  -3  -5 -10 151.208 13.2837   5
   3   5  10 136.313 15.3277   8
  -4  -5 -10 84.8115 13.2550   5
   4   5  10 92.7295 18.5049   2
   4   5  10 83.1364 14.5583   8
  -5  -5 -10 -4.6157 3.31865   5
   5   5  10 5.93371 5.36017   8
   5   5  10 1.28245 5.06830   2
  -6  -5 -10 -2.2451 4.81549   5
   6   5  10 -4.2653 5.07569   8
   6   5  10 1.78113 7.09970   2
  10  -6 -10 5.58906 3.98585   4
  10  -6 -10 2.96812 5.18735   6
   9  -6 -10 7.79852 4.88436   6
   9  -6 -10 11.4095 4.76260   4
   8  -6 -10 15.2566 4.29570   4
   8  -6 -10 19.8768 6.92926   6
  -8   6  10 20.1461 7.59895   8
   7  -6 -10 1.10582 2.79429   6
   7  -6 -10 12.0510 4.55001   4
  -7   6  10 20.6129 7.53522   8
   6  -6 -10 24.4293 5.66644   4
  -6   6  10 24.1303 8.32894   8
   5  -6 -10 14.9368 4.75732   4
  -5   6  10 13.2158 6.67569   8
   4  -6 -10 89.5343 8.15047   4
  -4   6  10 65.1229 13.4979   8
   3  -6 -10 3.54811 2.49890   4
  -3   6  10 6.84936 4.46368   8
   2  -6 -10 -2.5099 1.55846   5
   2  -6 -10 0.86717 1.66356   4
  -2   6  10 -3.9673 2.42814   8
   1  -6 -10 20.0699 5.06615   5
  -1   6  10 29.5898 8.97880   8
   0  -6 -10 12.2888 3.86970   5
   0   6  10 9.84638 5.46278   8
  -1  -6 -10 10.7395 3.78364   5
   1   6  10 8.55461 5.66915   8
  -2  -6 -10 21.5640 6.45276   5
   2   6  10 11.1977 5.54914   8
  -3  -6 -10 18.4339 5.38805   5
   3   6  10 32.7514 9.74755   8
  -4  -6 -10 2.88880 4.39755   5
   4   6  10 -1.1417 5.39782   2
   4   6  10 25.0375 9.65525   8
  -5  -6 -10 -12.665 4.23045   5
   5   6  10 1.75839 4.84074   8
   5   6  10 -14.995 7.15891   2
  10  -7 -10 101.718 11.3914   4
  10  -7 -10 62.2652 17.6378   6
   9  -7 -10 -2.3165 4.16184   6
   8  -7 -10 89.4130 10.1772   4
  -8   7  10 110.048 18.1638   8
   7  -7 -10 170.668 13.2613   4
  -7   7  10 136.952 21.7600   8
   6  -7 -10 19.0167 5.10757   4
   6  -7 -10 0.47215 2.34963   6
  -6   7  10 6.81381 6.55103   8
   5  -7 -10 92.6486 8.82471   4
  -5   7  10 113.969 14.8205   8
   4  -7 -10 -1.5307 1.86373   4
  -4   7  10 -2.9810 2.89018   8
   3  -7 -10 361.493 18.3108   5
  -3   7  10 344.434 26.6153   8
   2  -7 -10 67.9599 7.96397   5
  -2   7  10 67.6664 13.4126   8
   1  -7 -10 6.06741 3.61028   5
  -1   7  10 5.72948 4.63955   8
   0  -7 -10 20.7829 5.96261   5
   0   7  10 8.75892 6.49957   8
  -1  -7 -10 8.07004 3.94186   5
   1   7  10 4.59730 2.94075   8
  -2  -7 -10 41.3305 8.37333   5
   2   7  10 53.1442 11.9364   8
  -3  -7 -10 5.61413 4.67859   5
   3   7  10 -1.0091 6.31886   8
   9  -8 -10 27.3921 7.37441   4
  -9   8  10 60.4924 15.1537   8
   8  -8 -10 25.0129 5.82783   4
   8  -8 -10 -4.7606 3.62266   6
  -8   8  10 8.28186 7.06740   8
   7  -8 -10 3.79154 3.05377   4
   7  -8 -10 2.45427 3.64529   6
  -7   8  10 0.64347 5.09530   8
   6  -8 -10 113.371 10.3178   4
  -6   8  10 107.164 17.3130   8
   5  -8 -10 87.2006 8.46568   4
  -5   8  10 95.9542 17.6448   8
   3  -8 -10 36.7503 6.51393   5
  -3   8  10 38.5306 9.30192   8
   2  -8 -10 5.88468 3.33315   5
  -2   8  10 4.60452 6.02429   8
   1  -8 -10 0.95775 3.19391   5
  -1   8  10 6.92593 4.55789   8
   0  -8 -10 132.784 12.5092   5
   0   8  10 96.3147 18.1092   8
  -1  -8 -10 13.6901 4.92031   5
   1   8  10 12.3199 6.61692   8
  -2  -8 -10 -1.0983 5.22632   5
   2   8  10 11.3064 8.33586   8
   7  -9 -10 45.6263 7.34868   4
  -7   9  10 40.9864 12.1206   8
  -6   9  10 56.5881 13.8900   8
  -5   9  10 62.2683 14.8291   8
   4  -9 -10 34.5208 6.53221   5
  -4   9  10 32.6792 8.92761   8
   3  -9 -10 28.3528 6.61120   5
  -3   9  10 28.9483 11.1165   8
   2  -9 -10 12.4178 4.94376   5
  -2   9  10 11.1040 6.72516   8
   1  -9 -10 25.0255 7.09541   5
  -1   9  10 30.7571 9.36190   8
   0  -9 -10 4.57134 4.28913   5
   0   9  10 9.31618 8.48332   8
   2 -13  11 32.5292 10.7149   2
  -3  13 -11 42.9339 8.83749   6
   3 -13  11 33.5304 11.6561   3
   3 -13  11 46.7367 13.8137   2
   4 -13  11 -0.6415 4.74982   2
   4 -13  11 -0.8933 5.09230   7
   5 -13  11 4.97187 6.13873   2
   5 -13  11 -2.8916 6.12733   7
   1  12 -11 18.2236 5.86436   6
   1  12 -11 24.5966 7.88062   8
  -1 -12  11 16.0015 8.89445   3
   0  12 -11 23.4532 5.53084   6
   0  12 -11 19.2210 6.07420   8
   0 -12  11 14.7107 7.34482   2
   0 -12  11 16.4238 9.36837   3
  -1  12 -11 14.5661 5.61469   8
  -1  12 -11 11.5464 4.47616   6
   1 -12  11 19.1002 10.0352   3
   1 -12  11 15.4112 5.90471   2
  -2  12 -11 6.04906 4.43674   6
  -2  12 -11 -2.4633 2.66663   8
   2 -12  11 -2.2195 4.45616   2
   4 -12  11 47.3843 13.8583   2
   5 -12  11 -3.7655 7.52208   2
   5 -12  11 6.21930 3.90838   7
   6 -12  11 2.60321 4.62050   2
   6 -12  11 5.32669 5.31153   7
   7 -12  11 -5.0992 5.91959   7
   7 -12  11 7.64229 5.15741   2
   3  11 -11 70.2543 10.9978   6
  -3 -11  11 71.5130 16.8466   3
   2  11 -11 -1.1067 2.76874   6
  -2 -11  11 -1.2736 5.14616   3
  -1 -11  11 -3.7401 3.83752   2
  -1 -11  11 10.6005 7.20208   3
   0  11 -11 -2.6789 1.76258   6
   0 -11  11 0.52720 5.20945   2
   0 -11  11 4.57557 5.01586   3
  -1  11 -11 4.93971 2.71832   6
   1 -11  11 1.03777 5.23564   2
  -2  11 -11 0.08566 2.17355   8
  -2  11 -11 -0.1914 2.47645   6
   2 -11  11 4.19103 4.14098   2
  -3  11 -11 4.09432 2.92364   6
   3 -11  11 5.31835 2.89073   7
   3 -11  11 -2.2755 3.36545   2
  -4  11 -11 29.2446 7.16317   6
   4 -11  11 43.7844 11.5766   2
   5 -11  11 62.0206 10.8143   7
   5 -11  11 63.9685 13.1859   2
   6 -11  11 38.1389 11.4107   2
   6 -11  11 52.2956 10.1327   7
   7 -11  11 -4.0527 9.87656   2
   7 -11  11 0.86265 3.88330   7
   9 -11  11 54.8003 12.1073   7
   4  10 -11 4.10811 2.79474   6
  -4 -10  11 5.06536 8.07147   3
   3  10 -11 30.8452 8.12964   6
  -3 -10  11 38.0540 10.1922   3
   2  10 -11 -0.0536 2.30157   6
  -2 -10  11 0.32888 3.36018   2
  -2 -10  11 1.09028 5.03894   3
   1  10 -11 15.3120 4.53764   6
  -1 -10  11 19.4334 7.83679   3
   0  10 -11 19.6665 5.26302   6
   0 -10  11 31.8124 8.32148   2
  -1  10 -11 42.0406 7.67204   6
   1 -10  11 56.6631 11.5254   2
  -2  10 -11 0.22546 2.35130   6
   2 -10  11 -1.0041 3.59334   2
   2 -10  11 -0.2065 2.24756   7
  -3  10 -11 80.0780 9.72557   6
   3 -10  11 91.1301 16.9106   2
  -4  10 -11 3.26233 2.66291   5
  -4  10 -11 -1.2360 2.15934   6
  -4  10 -11 4.41681 1.87909   8
   4 -10  11 2.59576 3.22771   7
   4 -10  11 0.21680 3.40820   2
  -5  10 -11 207.036 13.8763   5
   5 -10  11 176.106 19.5719   2
   5 -10  11 203.318 16.4999   7
  -6  10 -11 7.75597 3.69800   5
   6 -10  11 0.47555 4.43511   7
   6 -10  11 20.5466 9.65012   2
   7 -10  11 -2.0331 4.09144   2
   7 -10  11 1.59212 3.88759   7
   8 -10  11 59.9098 12.2988   7
   8 -10  11 84.6939 25.8419   2
   9 -10  11 13.3283 4.68982   2
   9 -10  11 -2.1299 3.97094   7
   5   9 -11 16.4516 4.97660   6
  -5  -9  11 18.0657 8.81552   3
   4   9 -11 90.2506 9.95151   6
  -4  -9  11 84.5020 16.3129   3
   3   9 -11 29.7673 6.17866   6
  -3  -9  11 25.4047 8.62223   3
   2   9 -11 44.9882 7.36956   6
  -2  -9  11 65.4683 12.9489   3
   1   9 -11 46.2499 7.04902   6
  -1  -9  11 77.9208 10.3821   2
   0   9 -11 48.0155 7.45936   6
   0  -9  11 45.7135 9.40029   2
   1  -9  11 85.1618 18.3411   2
  -2   9 -11 8.61776 3.58105   6
  -2   9 -11 12.8298 3.93850   5
   2  -9  11 10.5224 4.70008   2
  -3   9 -11 -0.0237 2.46487   5
  -3   9 -11 -0.3969 1.96329   6
   3  -9  11 1.78232 3.21634   2
   3  -9  11 4.41854 2.42607   7
  -4   9 -11 1.21876 1.92298   6
  -4   9 -11 4.46885 2.64546   5
   4  -9  11 2.48864 3.91321   2
   4  -9  11 -0.6222 2.24090   7
   5  -9  11 26.3732 9.54606   2
   5  -9  11 19.5685 6.51250   7
  -6   9 -11 138.896 12.6490   5
   6  -9  11 118.361 16.0204   2
   6  -9  11 105.629 12.6618   7
  -7   9 -11 -5.2879 3.04929   5
   7  -9  11 2.89362 3.80114   2
   7  -9  11 2.82384 3.73596   7
  -8   9 -11 6.13904 3.87991   5
   8  -9  11 0.42329 5.13660   2
   8  -9  11 5.18436 4.37491   7
  -9   9 -11 56.3565 11.3867   5
   9  -9  11 77.1990 18.6524   2
   9  -9  11 32.1214 13.2831   7
  10  -9  11 48.9524 12.7957   2
  10  -9  11 47.0771 10.5465   7
   6   8 -11 3.81617 3.43334   6
  -6  -8  11 7.83175 6.81791   3
   5   8 -11 5.38106 3.00916   6
  -5  -8  11 10.5084 6.72091   3
   4   8 -11 24.3646 5.33477   6
  -4  -8  11 23.5548 8.29518   3
   3   8 -11 183.848 12.6710   6
  -3  -8  11 167.638 17.4968   3
   2   8 -11 251.277 14.5620   6
  -2  -8  11 249.143 21.2141   3
   1   8 -11 99.5519 9.03829   6
  -1  -8  11 100.167 11.6277   2
   0   8 -11 87.9615 8.43255   6
   0   8 -11 74.6010 6.56853   5
   0  -8  11 82.4064 12.9896   2
  -1   8 -11 262.573 13.1907   5
  -1   8 -11 277.475 15.2974   6
   1  -8  11 271.769 20.7756   2
  -2   8 -11 81.2840 7.68587   5
  -2   8 -11 64.7746 7.65085   6
   2  -8  11 61.7696 7.89870   7
   2  -8  11 84.0256 14.3627   2
  -3   8 -11 64.2022 7.20579   5
  -3   8 -11 61.0919 7.46814   6
   3  -8  11 55.8044 9.76082   7
  -4   8 -11 200.762 13.7172   5
  -4   8 -11 196.568 14.0829   6
   4  -8  11 195.595 15.5307   7
   4  -8  11 208.035 19.6861   2
  -5   8 -11 22.9243 6.33873   5
   5  -8  11 26.9391 10.7518   7
   5  -8  11 17.0549 6.94948   2
  -6   8 -11 250.562 17.4512   5
   6  -8  11 283.819 20.5330   7
   6  -8  11 231.808 21.5597   2
  -7   8 -11 6.15261 4.06657   5
   7  -8  11 -0.9137 4.33615   2
   7  -8  11 -1.4569 2.78354   7
  -8   8 -11 1.75817 3.82117   5
   8  -8  11 2.97888 5.00236   7
   8  -8  11 0.66957 5.47711   2
  -9   8 -11 53.3211 11.1697   5
   9  -8  11 50.8912 12.1697   7
   9  -8  11 52.1995 11.5637   2
  10  -8  11 2.01165 4.43104   2
  10  -8  11 18.2975 7.42843   7
   7   7 -11 39.5818 7.38495   6
   7   7 -11 33.0962 5.62433   4
   6   7 -11 113.830 10.3347   6
   6   7 -11 96.9433 8.62625   4
   5   7 -11 7.40729 2.80422   6
  -5  -7  11 9.01445 5.26235   3
   4   7 -11 32.3226 5.90630   6
  -4  -7  11 32.1930 9.92014   3
   3   7 -11 12.5206 3.50300   6
  -3  -7  11 12.3662 6.03989   3
   2   7 -11 30.6482 4.60935   5
   2   7 -11 34.4259 6.08420   6
   1   7 -11 96.7014 8.74147   6
  -1  -7  11 91.6687 10.9835   2
   0   7 -11 1.93496 1.91359   5
   0   7 -11 4.20502 2.26149   6
   0  -7  11 5.89705 2.32182   7
   0  -7  11 5.52310 3.76039   2
  -1   7 -11 -1.9646 1.78638   5
  -1   7 -11 -1.3176 1.35455   6
   1  -7  11 -3.5368 1.87542   7
   1  -7  11 -0.7383 3.35226   2
  -2   7 -11 77.6666 7.67130   6
  -2   7 -11 81.2802 7.88939   5
   2  -7  11 96.1722 12.0911   2
   2  -7  11 65.0764 9.69385   7
  -3   7 -11 6.19036 3.47552   5
  -3   7 -11 2.48019 2.32544   6
   3  -7  11 12.3374 6.15640   2
   3  -7  11 8.04710 3.29233   7
  -4   7 -11 281.315 16.6323   5
  -4   7 -11 269.316 15.8071   6
   4  -7  11 253.285 17.9938   7
   4  -7  11 312.122 34.4769   2
  -5   7 -11 82.0559 9.56521   5
   5  -7  11 90.4096 15.7658   2
   5  -7  11 55.4654 11.2904   7
  -6   7 -11 157.010 14.6436   5
   6  -7  11 160.557 17.7204   2
   6  -7  11 170.033 15.9322   7
  -7   7 -11 79.1217 12.6462   5
   7  -7  11 93.2705 11.9088   7
   7  -7  11 55.2928 10.2993   2
  -8   7 -11 37.5772 9.53364   5
   8  -7  11 31.6136 10.5245   2
   8  -7  11 33.5486 8.91285   7
  -9   7 -11 59.2120 11.1837   5
   9  -7  11 69.7284 14.3407   7
   9  -7  11 64.6082 13.8924   2
 -10   7 -11 41.5981 10.2632   5
  10  -7  11 35.1192 8.41809   2
  10  -7  11 38.4303 9.08394   7
   8   6 -11 19.0673 6.07455   6
   8   6 -11 22.3340 5.03086   4
  -8  -6  11 9.49966 11.2180   3
   7   6 -11 43.7322 6.81071   4
   7   6 -11 40.9349 10.0238   6
   6   6 -11 252.250 15.9826   6
   6   6 -11 269.912 14.6251   4
   6   6 -11 263.910 10.9215   5
   5   6 -11 5.76528 2.21269   5
   5   6 -11 5.11319 2.56612   4
   5   6 -11 -0.1679 2.23739   6
  -5  -6  11 -7.4883 2.85784   3
   4   6 -11 116.091 7.30163   5
   4   6 -11 87.0688 8.55367   6
   4   6 -11 104.944 9.54558   4
  -4  -6  11 95.9077 12.2490   3
   3   6 -11 78.5825 7.74748   4
   3   6 -11 70.4880 5.95526   5
   3   6 -11 71.3157 7.51916   6
   1   6 -11 11.8579 3.36834   6
   1   6 -11 12.2921 3.67802   5
  -1  -6  11 11.9504 4.41326   2
   0   6 -11 6.73865 2.82048   5
   0   6 -11 10.7348 3.27558   6
   0  -6  11 5.13352 3.30720   2
  -1   6 -11 2.88489 2.50212   5
  -1   6 -11 0.89040 1.61415   6
   1  -6  11 2.65783 3.25032   2
  -2   6 -11 328.745 15.5624   6
  -2   6 -11 323.784 16.3271   5
   2  -6  11 288.157 21.0894   2
  -3   6 -11 180.423 12.9000   5
  -3   6 -11 204.386 12.6186   6
   3  -6  11 207.795 18.0375   2
  -4   6 -11 0.79357 2.29718   6
  -4   6 -11 4.79991 3.69174   8
  -4   6 -11 1.89295 2.97411   5
   4  -6  11 3.47434 3.91231   2
  -5   6 -11 38.6165 8.07186   5
   5  -6  11 40.9403 8.96457   7
   5  -6  11 47.8514 11.5173   2
   6  -6  11 31.2721 9.05704   2
   6  -6  11 36.1655 8.86623   7
  -7   6 -11 75.3474 12.8036   5
   7  -6  11 79.8767 13.4365   7
   7  -6  11 84.5944 15.3399   2
  -8   6 -11 26.5030 7.85620   5
   8  -6  11 34.9753 9.53225   7
   8  -6  11 38.5961 10.7735   2
  -9   6 -11 -1.4720 3.89580   5
   9  -6  11 6.34806 4.77881   7
   9  -6  11 -6.7563 3.86248   2
 -10   6 -11 49.6045 10.9129   5
  10  -6  11 39.8005 10.1412   7
  10  -6  11 58.9946 14.6589   2
   8   5 -11 15.9917 5.14506   6
   8   5 -11 7.98849 3.75055   4
  -8  -5  11 -12.917 7.60217   3
   7   5 -11 33.8099 7.40726   6
   7   5 -11 22.8877 5.17827   4
   6   5 -11 38.2001 7.78545   6
   6   5 -11 36.1791 5.81694   4
   5   5 -11 40.3633 4.88578   5
   5   5 -11 49.0619 8.17997   6
   5   5 -11 52.0635 7.96528   4
   4   5 -11 93.0812 8.67867   6
   4   5 -11 78.4297 6.42135   5
   4   5 -11 84.7252 7.99354   4
  -4  -5  11 91.2253 10.9969   3
   3   5 -11 14.7552 3.28908   5
   3   5 -11 13.1684 3.78269   6
   3   5 -11 20.2771 4.92323   4
  -3  -5  11 8.07447 3.46070   7
   2   5 -11 186.781 11.1952   6
   2   5 -11 185.874 10.2157   5
   2   5 -11 190.767 11.7286   4
  -2  -5  11 149.263 12.5443   2
   1   5 -11 85.6315 7.35215   6
   1   5 -11 68.1057 6.45944   5
  -1  -5  11 93.5849 10.4779   2
   0   5 -11 121.495 8.86740   5
   0   5 -11 118.813 8.50931   6
   0  -5  11 118.469 12.4675   2
  -1   5 -11 0.66943 1.37756   6
  -1   5 -11 -1.1489 1.47726   5
   1  -5  11 -0.1259 3.08134   2
  -2   5 -11 177.085 12.0550   5
  -2   5 -11 181.377 10.9295   6
   2  -5  11 168.274 16.1394   2
  -3   5 -11 81.9646 7.60645   6
  -3   5 -11 62.6663 7.71706   5
   3  -5  11 81.6533 13.9769   2
  -4   5 -11 105.400 8.89286   6
  -4   5 -11 103.087 10.3863   5
   4  -5  11 72.2838 13.4197   2
  -5   5 -11 48.9089 9.49917   5
  -6   5 -11 10.7396 4.13702   5
   6  -5  11 5.39986 4.85414   2
  -7   5 -11 34.2503 7.87159   5
   7  -5  11 47.8405 10.3608   7
   7  -5  11 49.4392 12.1562   2
  -8   5 -11 36.1433 8.48792   5
   8  -5  11 30.2998 8.83745   2
   8  -5  11 28.2769 8.03770   7
  -9   5 -11 0.50056 3.29455   5
 -10   5 -11 24.4996 8.48750   5
  10  -5  11 16.5545 7.39624   7
  10  -5  11 22.6980 8.44882   2
   9   4 -11 57.0849 8.40319   4
   9   4 -11 68.2089 10.3224   6
   8   4 -11 62.2389 9.91691   6
   8   4 -11 71.5408 9.87644   4
   7   4 -11 0.50746 2.53552   4
   7   4 -11 2.24347 2.56584   6
  -7  -4  11 3.45040 4.01349   3
   6   4 -11 1.06245 2.39882   6
   6   4 -11 5.16709 2.88372   4
  -6  -4  11 -0.9777 2.75111   3
   5   4 -11 17.8713 4.65505   6
   5   4 -11 6.85998 5.47336   4
  -5  -4  11 1.05480 2.55247   3
   4   4 -11 75.0534 7.58932   4
   4   4 -11 82.2748 8.32130   6
   3   4 -11 6.83383 2.50203   5
   3   4 -11 9.04226 3.50953   4
   3   4 -11 1.54492 2.10874   6
   2   4 -11 3.76703 2.07774   4
   2   4 -11 -0.2261 1.31355   6
   2   4 -11 2.62253 1.98472   5
  -2  -4  11 -1.2722 1.95100   2
   1   4 -11 187.688 11.7268   4
   1   4 -11 189.328 10.8627   5
   1   4 -11 187.371 10.5764   6
  -1  -4  11 192.484 14.7883   2
   0   4 -11 243.757 12.9390   5
   0   4 -11 242.084 11.7947   6
   0  -4  11 248.790 18.0206   2
  -1   4 -11 126.795 8.45707   6
  -1   4 -11 115.633 9.31125   5
   1  -4  11 114.882 12.8199   2
  -2   4 -11 25.4306 5.22888   5
  -2   4 -11 30.9171 5.58908   6
   2  -4  11 17.4534 5.16790   2
  -3   4 -11 2.06721 1.70786   6
  -3   4 -11 0.61063 2.19947   5
   3  -4  11 -1.5040 2.71866   2
  -4   4 -11 176.300 13.6548   5
   4  -4  11 165.592 16.9942   2
  -5   4 -11 51.1744 8.75450   5
  -6   4 -11 305.399 19.7997   5
   6  -4  11 253.982 22.1944   2
  -7   4 -11 31.4047 8.23577   5
   7  -4  11 11.4139 6.89291   2
  -8   4 -11 51.0075 10.9639   5
   8  -4  11 34.1696 9.20069   7
   8  -4  11 57.5519 13.9440   2
  -9   4 -11 13.3016 5.95893   5
   9  -4  11 18.0306 7.88006   2
   9  -4  11 5.27159 5.05074   7
 -10   4 -11 16.0310 7.01483   5
  10  -4  11 27.7946 8.50872   7
  10  -4  11 -2.5089 6.22296   2
   9   3 -11 17.1251 5.15119   4
   9   3 -11 12.2392 4.73372   6
   8   3 -11 97.0490 9.70503   4
   8   3 -11 91.0876 10.8381   6
   7   3 -11 127.851 10.8450   4
   7   3 -11 122.153 11.7366   6
   6   3 -11 386.659 19.9600   6
   6   3 -11 380.916 18.4779   4
   5   3 -11 105.245 10.5595   6
   5   3 -11 114.480 11.1876   4
   4   3 -11 9.88851 4.00452   6
   4   3 -11 16.9168 4.69564   4
   3   3 -11 34.9055 5.74458   6
   3   3 -11 34.8438 6.05881   4
   3   3 -11 29.8040 5.17736   5
   2   3 -11 35.4219 5.70778   5
   2   3 -11 34.5422 5.26504   6
   2   3 -11 41.0905 6.52796   4
  -2  -3  11 37.6632 7.79987   2
   1   3 -11 385.087 16.1208   5
   1   3 -11 368.511 16.6444   4
   1   3 -11 383.743 15.0418   6
  -1  -3  11 383.359 21.5125   2
   0   3 -11 487.567 16.7745   6
   0   3 -11 457.382 18.5175   5
   0  -3  11 492.697 26.0306   2
  -1   3 -11 462.128 16.3154   6
  -1   3 -11 449.730 19.1390   5
   1  -3  11 450.984 25.9137   2
  -2   3 -11 180.672 12.3867   5
  -2   3 -11 183.886 10.0133   6
   2  -3  11 175.545 16.2926   2
  -3   3 -11 6.64278 2.82845   6
  -3   3 -11 9.68300 3.52751   5
   3  -3  11 14.2804 6.50712   2
  -4   3 -11 47.3829 8.96154   5
   4  -3  11 44.7251 11.7787   2
  -5   3 -11 83.8605 13.3613   5
   5  -3  11 58.2128 13.5065   2
  -6   3 -11 138.694 13.4596   5
   6  -3  11 119.767 15.1258   2
  -7   3 -11 108.033 12.9463   5
   7  -3  11 95.5298 17.3869   2
  -8   3 -11 93.8582 15.2933   5
   8  -3  11 88.2926 16.9818   2
  -9   3 -11 0.42952 4.40210   5
   9  -3  11 7.51750 5.94830   2
   9  -3  11 3.79057 4.49773   7
 -10   3 -11 3.33488 4.53027   5
  10  -3  11 6.59593 4.84756   7
  10  -3  11 9.57458 7.16628   2
  10   2 -11 17.4275 5.16365   6
  10   2 -11 12.5179 5.12243   4
   9   2 -11 74.0120 8.65384   4
   9   2 -11 72.3123 12.5845   6
   8   2 -11 9.02394 4.05755   6
   8   2 -11 4.28172 3.35815   4
   7   2 -11 113.606 10.3325   4
   7   2 -11 139.411 12.4642   6
   6   2 -11 42.0515 7.08858   4
   6   2 -11 61.4034 9.64881   6
   5   2 -11 178.976 12.5225   6
   5   2 -11 157.669 11.6139   4
   4   2 -11 135.925 10.3363   4
   4   2 -11 158.190 11.0425   6
   3   2 -11 257.441 13.2378   6
   3   2 -11 243.893 13.6707   4
   2   2 -11 262.345 12.5308   6
   2   2 -11 285.763 14.3875   4
   2   2 -11 256.217 12.9485   5
  -2  -2  11 247.916 16.8252   2
   1   2 -11 22.9146 4.62464   4
   1   2 -11 27.6575 5.05869   5
   1   2 -11 29.5246 4.89674   6
  -1  -2  11 23.9888 6.31758   2
   0   2 -11 164.729 10.9116   5
   0   2 -11 161.930 10.7962   4
   0   2 -11 168.473 8.89403   6
   0  -2  11 184.113 15.8444   2
  -1   2 -11 40.7275 6.44951   5
  -1   2 -11 41.0224 4.47773   6
   1  -2  11 30.3852 7.09626   2
  -2   2 -11 167.305 9.19665   6
  -2   2 -11 162.138 11.9351   5
   2  -2  11 183.397 17.2898   2
  -3   2 -11 -0.0772 2.02250   5
  -3   2 -11 0.38883 0.90621   6
   3  -2  11 2.67065 2.98846   2
  -4   2 -11 3.11609 2.41551   5
   4  -2  11 10.5367 5.21664   2
  -5   2 -11 161.326 13.8462   5
   5  -2  11 141.574 16.7001   2
  -6   2 -11 28.8506 7.15447   5
   6  -2  11 8.87428 5.87705   2
  -7   2 -11 78.5725 12.9695   5
   7  -2  11 90.6022 14.8646   2
  -8   2 -11 4.17596 3.54653   5
   8  -2  11 6.93126 5.43135   2
  -9   2 -11 -1.4703 4.04051   5
   9  -2  11 -8.2748 3.26605   7
   9  -2  11 2.77008 5.75182   2
  10   1 -11 -1.7422 2.53690   4
  10   1 -11 -2.0724 2.93707   6
   9   1 -11 234.294 17.6405   6
   9   1 -11 221.470 15.5378   4
   8   1 -11 13.9449 4.39061   4
   8   1 -11 27.1615 6.62739   6
   7   1 -11 202.713 13.9567   4
   7   1 -11 199.267 14.8031   6
   6   1 -11 14.0897 4.29941   6
   6   1 -11 24.2794 6.22476   4
   5   1 -11 1.78902 2.41743   6
   5   1 -11 -1.0269 1.48199   4
   4   1 -11 11.3304 3.52686   4
   4   1 -11 14.8807 4.14915   6
  -4  -1  11 3.89752 4.95953   3
   3   1 -11 85.1064 7.37737   6
   3   1 -11 89.7279 8.13021   4
   2   1 -11 178.858 10.8406   5
   2   1 -11 177.138 9.91862   6
   2   1 -11 182.209 11.4707   4
  -2  -1  11 181.275 14.4643   2
   1   1 -11 8.63729 2.96023   5
   1   1 -11 10.2852 2.89865   6
   1   1 -11 10.9452 4.32774   4
  -1  -1  11 7.05625 4.38621   2
   0   1 -11 220.757 12.5908   4
   0   1 -11 216.093 9.66120   6
   0   1 -11 226.301 13.0268   5
   0  -1  11 194.210 16.8253   2
  -1   1 -11 331.653 16.6049   5
   1  -1  11 324.801 22.8958   2
  -2   1 -11 557.984 23.1757   5
   2  -1  11 586.808 32.0191   2
   2  -1  11 511.620 19.8775   6
   2  -1  11 595.265 27.4304   8
  -3   1 -11 106.630 10.2800   5
   3  -1  11 94.6139 7.79339   6
   3  -1  11 89.0244 10.2148   8
   3  -1  11 107.109 13.7778   2
  -4   1 -11 15.2341 5.62261   5
   4  -1  11 21.7108 6.05006   6
   4  -1  11 23.6877 8.17120   2
   4  -1  11 22.5287 6.10461   8
  -5   1 -11 86.4484 10.3801   5
   5  -1  11 80.4488 9.41118   8
   5  -1  11 67.2380 15.7577   2
  -6   1 -11 8.25281 3.52103   5
   6  -1  11 15.3343 4.61661   8
   6  -1  11 8.19715 5.05532   2
  -7   1 -11 92.2514 14.7803   5
   7  -1  11 83.8896 17.0442   2
  -8   1 -11 16.2921 7.19883   5
   8  -1  11 16.5936 7.44944   2
  -9   1 -11 34.5589 8.78864   5
   9  -1  11 39.1154 10.4800   2
   9  -1  11 23.4184 7.50817   7
  10   0 -11 5.86186 5.09997   6
  10   0 -11 -0.1625 2.92271   4
   9   0 -11 56.9736 9.25603   4
   9   0 -11 50.8239 9.14658   6
   8   0 -11 112.955 10.9242   4
   8   0 -11 128.543 12.2915   6
   7   0 -11 -1.7138 1.60210   4
   7   0 -11 2.14887 2.00462   6
   6   0 -11 93.3998 9.19412   4
   6   0 -11 97.4582 10.0448   6
   5   0 -11 41.1429 7.85807   4
   5   0 -11 65.7600 7.51817   6
   3   0 -11 29.5653 5.11696   6
   3   0 -11 20.5457 4.59598   4
  -3   0  11 25.7560 7.24835   2
   2   0 -11 2.52863 2.02828   5
   2   0 -11 0.13431 1.22826   4
   2   0 -11 -1.1386 1.15780   6
  -2   0  11 -2.1448 1.69819   2
   1   0 -11 234.664 10.1020   6
   1   0 -11 232.636 12.8990   4
   1   0 -11 202.702 12.1908   5
  -1   0  11 262.482 19.6277   8
  -1   0  11 228.187 17.8474   2
   0   0 -11 2.00702 1.81930   4
   0   0 -11 -1.5442 1.18099   5
   0   0 -11 -0.4490 0.62984   6
   0   0  11 1.89539 3.16751   8
   0   0  11 1.27234 2.79688   2
  -1   0 -11 108.437 9.64609   5
   1   0  11 106.949 12.0586   8
   1   0  11 129.975 14.4556   2
  -2   0 -11 -1.4465 1.25036   5
   2   0  11 6.58903 4.06261   8
   2   0  11 -0.9688 1.59245   2
  -3   0 -11 154.050 12.5258   5
   3   0  11 127.344 15.8057   2
   3   0  11 153.733 13.5646   8
  -4   0 -11 78.4265 9.52850   5
   4   0  11 70.1860 9.16432   8
   4   0  11 59.4733 11.6222   2
  -5   0 -11 3.62550 2.42876   5
   5   0  11 14.2032 7.37045   2
   5   0  11 2.13843 3.99432   8
  -6   0 -11 13.5184 5.52248   5
   6   0  11 33.2927 8.50616   2
   6   0  11 8.88802 5.07621   8
  -7   0 -11 -2.6421 2.55295   5
   7   0  11 -4.0356 3.55104   8
   7   0  11 -2.5833 4.14867   2
  -8   0 -11 48.7335 12.9955   5
   9   0  11 14.3654 9.31017   2
  10  -1 -11 -3.3229 2.10886   4
  10  -1 -11 -1.6391 3.07438   6
   9  -1 -11 15.8228 5.32993   6
   9  -1 -11 23.5885 6.34235   4
   8  -1 -11 10.4077 3.87575   4
   8  -1 -11 6.22672 3.68249   6
   7  -1 -11 167.802 12.9111   4
   7  -1 -11 152.010 13.0861   6
   6  -1 -11 70.7896 8.14270   4
   6  -1 -11 78.7593 8.80312   6
   5  -1 -11 13.3323 3.63590   6
   4  -1 -11 0.51783 2.16730   4
   4  -1 -11 4.87771 3.06710   6
  -4   1  11 -0.1873 1.59357   2
  -4   1  11 -1.8916 5.18702   3
   3  -1 -11 203.874 12.6879   4
   3  -1 -11 212.083 11.3386   6
  -3   1  11 213.379 16.1581   2
   2  -1 -11 55.2975 5.07463   6
   2  -1 -11 55.1558 6.35620   4
   2  -1 -11 31.6452 5.41763   5
  -2   1  11 60.6952 12.5558   8
  -2   1  11 43.7294 9.00898   2
   1  -1 -11 55.0336 6.50409   5
   1  -1 -11 53.3395 6.20999   4
  -1   1  11 60.4787 11.1852   2
  -1   1  11 40.7821 9.28707   8
   0  -1 -11 0.79539 1.89071   5
   0  -1 -11 1.85038 1.84421   4
   0  -1 -11 0.70917 0.86735   6
   0   1  11 -3.2623 1.76529   2
   0   1  11 -0.7644 2.85771   8
  -1  -1 -11 140.894 11.1231   5
   1   1  11 125.461 14.8019   2
   1   1  11 147.592 14.2419   8
  -2  -1 -11 119.378 10.5430   5
   2   1  11 115.593 14.6240   2
   2   1  11 127.362 13.0001   8
  -3  -1 -11 5.06632 2.88902   5
   3   1  11 3.07153 3.49169   8
   3   1  11 1.62494 2.90390   2
  -4  -1 -11 33.7164 7.67137   5
   4   1  11 37.4781 8.48520   8
   4   1  11 49.1988 11.9595   2
  -5  -1 -11 14.2535 5.34989   5
   5   1  11 16.1822 7.25646   2
   5   1  11 18.9242 5.06376   8
  -6  -1 -11 8.02221 4.39212   5
   6   1  11 3.25418 3.71536   8
   6   1  11 7.81997 5.16092   2
  -7  -1 -11 47.4080 10.8392   5
   7   1  11 56.7408 9.12432   8
   7   1  11 45.4671 13.4586   2
  -8  -1 -11 16.1150 5.35734   5
   8   1  11 1.78919 6.75785   2
  10  -2 -11 17.0199 9.43586   6
  10  -2 -11 7.17232 3.45734   4
   9  -2 -11 54.7878 9.02700   4
   9  -2 -11 37.3464 8.24217   6
   8  -2 -11 6.08337 3.78203   6
   8  -2 -11 10.1420 4.71084   4
   7  -2 -11 78.6592 8.95105   4
   7  -2 -11 91.5069 10.2749   6
   6  -2 -11 18.8653 5.29722   4
   6  -2 -11 12.7305 3.92853   6
   5  -2 -11 172.058 11.9906   6
   5  -2 -11 165.504 12.3664   4
   4  -2 -11 -1.0377 1.57568   4
   4  -2 -11 1.52560 2.03420   6
  -4   2  11 5.32142 2.80050   2
  -4   2  11 -0.5021 3.22042   8
   3  -2 -11 712.493 25.1216   4
  -3   2  11 676.168 31.8188   2
  -3   2  11 693.693 35.5608   8
   2  -2 -11 0.44735 1.66188   5
   2  -2 -11 1.45443 1.08248   6
   2  -2 -11 3.91544 2.37024   4
  -2   2  11 -1.2786 2.66104   2
  -2   2  11 5.52560 3.93635   8
   1  -2 -11 1.64728 2.07840   5
   1  -2 -11 1.21382 0.98322   6
   1  -2 -11 1.46739 2.11435   4
  -1   2  11 -2.2683 2.76067   8
  -1   2  11 3.13327 4.18205   2
   0  -2 -11 132.699 9.61197   4
   0  -2 -11 131.293 10.5809   5
   0   2  11 129.798 14.9944   2
   0   2  11 128.577 13.9786   8
  -1  -2 -11 13.6664 4.39463   5
   1   2  11 3.69320 4.34123   2
   1   2  11 11.1386 5.50659   8
  -2  -2 -11 7.57954 3.27286   5
   2   2  11 2.60249 4.06822   2
   2   2  11 18.3401 6.64362   8
  -3  -2 -11 25.2170 6.51888   5
   3   2  11 25.5531 6.96769   8
   3   2  11 25.5499 8.15111   2
  -4  -2 -11 37.8896 8.60793   5
   4   2  11 34.6859 7.97107   8
   4   2  11 41.7108 12.0873   2
  -5  -2 -11 133.200 13.4846   5
   5   2  11 145.901 19.0615   2
   5   2  11 142.363 13.6585   8
  -6  -2 -11 11.0160 4.96796   5
   6   2  11 7.67870 6.99517   2
  -7  -2 -11 3.12367 3.59115   5
   7   2  11 2.12159 5.53391   8
   7   2  11 -9.5026 6.93008   2
  10  -3 -11 3.69154 3.46775   4
   9  -3 -11 40.8172 8.85345   4
   9  -3 -11 47.6938 8.94118   6
   8  -3 -11 291.863 19.2148   6
   8  -3 -11 291.414 18.4272   4
   7  -3 -11 314.481 19.0092   6
   7  -3 -11 306.604 18.2609   4
   6  -3 -11 82.7049 9.09550   4
   6  -3 -11 82.8114 9.05713   6
   5  -3 -11 145.235 11.5294   4
   5  -3 -11 164.430 11.4906   6
  -5   3  11 181.466 18.5805   8
   3  -3 -11 18.4118 4.30156   4
  -3   3  11 12.8803 9.42969   8
  -3   3  11 15.8054 5.40249   2
   2  -3 -11 31.5519 5.90006   4
  -2   3  11 26.6428 7.27826   2
  -2   3  11 23.0331 8.70551   8
   1  -3 -11 57.7325 6.95112   4
   1  -3 -11 47.4934 9.64739   5
  -1   3  11 74.6785 13.8357   2
  -1   3  11 68.3862 13.0813   8
   0  -3 -11 410.612 19.8470   5
   0   3  11 413.771 26.6752   8
   0   3  11 396.144 27.9512   2
  -1  -3 -11 870.875 31.3448   5
   1   3  11 847.477 42.8759   2
   1   3  11 861.538 39.0311   8
  -2  -3 -11 1.79421 3.03291   5
   2   3  11 -0.2015 3.28738   2
   2   3  11 -0.5490 3.14885   8
  -3  -3 -11 9.33681 3.86908   5
   3   3  11 20.1020 7.32145   2
  -4  -3 -11 -1.2763 2.35648   5
   4   3  11 4.98284 5.07604   2
   4   3  11 -3.5730 3.21570   8
  -5  -3 -11 37.4676 7.85983   5
   5   3  11 55.5932 11.2690   8
   5   3  11 49.0189 12.8287   2
  -6  -3 -11 48.1914 14.2811   5
   6   3  11 86.5104 12.9387   8
   6   3  11 76.9376 16.0965   2
  -7  -3 -11 39.1215 9.38716   5
   7   3  11 44.7813 9.70434   8
  10  -4 -11 -1.9699 3.52554   6
  10  -4 -11 1.88746 3.49327   4
   9  -4 -11 1.75623 3.70104   6
   9  -4 -11 -2.7596 2.11800   4
   8  -4 -11 13.1429 4.27084   4
   8  -4 -11 14.7667 5.17287   6
   7  -4 -11 11.6662 3.82396   4
   7  -4 -11 8.96810 4.63589   6
   6  -4 -11 5.27265 2.91119   4
   6  -4 -11 4.65046 2.35324   6
  -6   4  11 5.17840 4.12007   2
  -6   4  11 0.55459 3.50200   8
   5  -4 -11 0.72721 2.03219   4
  -5   4  11 4.88409 2.89421   2
  -5   4  11 16.0039 6.86714   8
   4  -4 -11 173.161 12.1497   4
  -4   4  11 184.145 16.7908   2
  -4   4  11 187.902 19.0298   8
   3  -4 -11 -1.4877 1.01465   6
   3  -4 -11 3.46517 2.11807   4
  -3   4  11 -3.5290 2.16773   2
  -3   4  11 1.19756 3.69539   8
   2  -4 -11 160.511 11.8141   5
   2  -4 -11 147.167 10.5131   4
  -2   4  11 186.057 17.8401   8
  -2   4  11 164.591 17.1731   2
   1  -4 -11 -1.9200 1.65227   5
   1  -4 -11 4.19577 2.00598   4
  -1   4  11 -0.3084 3.33832   8
  -1   4  11 9.39821 6.96470   2
   0  -4 -11 2.37501 2.25456   5
   0   4  11 10.6424 4.35829   8
   0   4  11 0.80669 3.34606   2
  -1  -4 -11 31.3745 6.27036   5
   1   4  11 45.4110 10.8464   8
   1   4  11 51.4300 12.3141   2
  -2  -4 -11 28.8648 7.17325   5
   2   4  11 23.9352 7.87520   2
   2   4  11 19.1907 6.82810   8
  -3  -4 -11 3.98751 3.13560   5
   3   4  11 -4.7958 3.88924   8
   3   4  11 2.38063 5.21557   2
  -4  -4 -11 73.5129 12.2803   5
   4   4  11 34.6150 9.35607   8
   4   4  11 31.2365 11.9152   2
  -5  -4 -11 1.13996 4.59321   5
   5   4  11 17.5838 8.36842   2
   5   4  11 6.24110 5.26890   8
  -6  -4 -11 37.4171 8.99331   5
   6   4  11 35.6346 9.05187   8
   6   4  11 40.7328 15.0107   2
  10  -5 -11 17.3385 6.84974   4
  10  -5 -11 29.3029 9.15133   6
   9  -5 -11 13.4221 5.30414   6
   9  -5 -11 7.19487 4.90508   4
   8  -5 -11 108.870 11.1811   4
   8  -5 -11 74.6451 10.7528   6
   7  -5 -11 35.2605 6.59264   4
  -7   5  11 45.3600 11.0225   8
   5  -5 -11 28.5495 6.46527   4
  -5   5  11 44.1605 10.9978   8
   4  -5 -11 160.622 11.5947   4
  -4   5  11 140.725 16.4763   8
   3  -5 -11 96.2003 9.28203   4
   3  -5 -11 104.295 9.61342   5
  -3   5  11 104.465 16.8831   8
   2  -5 -11 189.976 13.3377   5
   2  -5 -11 204.240 12.1981   4
  -2   5  11 205.409 20.2965   8
   1  -5 -11 19.0923 4.75179   5
  -1   5  11 19.6658 7.63439   8
   0  -5 -11 -2.7248 1.56769   5
   0   5  11 -3.6731 2.82133   8
  -1  -5 -11 66.4715 10.4935   5
   1   5  11 47.4427 10.6232   8
  -2  -5 -11 136.590 12.8703   5
   2   5  11 131.435 17.5694   2
   2   5  11 118.915 15.1898   8
  -3  -5 -11 3.13542 3.51193   5
   3   5  11 4.86202 4.23118   8
   3   5  11 10.2161 5.50741   2
  -4  -5 -11 1.10344 4.52719   5
   4   5  11 10.2294 6.40228   2
   4   5  11 10.1478 5.22214   8
  -5  -5 -11 9.16457 5.20060   5
   5   5  11 17.0157 11.6277   8
   9  -6 -11 42.8321 8.25209   6
   9  -6 -11 33.5944 7.30695   4
   8  -6 -11 -3.5134 2.86043   6
   8  -6 -11 14.8325 5.30429   4
   7  -6 -11 49.8825 8.57500   4
  -7   6  11 26.3270 8.57265   8
   6  -6 -11 2.32587 2.19501   4
   6  -6 -11 3.72561 2.73337   6
  -6   6  11 -7.5537 3.61304   8
   5  -6 -11 1.31687 2.04742   6
   5  -6 -11 0.91758 1.99135   4
  -5   6  11 7.98090 5.25576   8
   4  -6 -11 1.24710 2.41858   4
  -4   6  11 7.47889 4.72582   8
   3  -6 -11 266.233 14.3855   4
   3  -6 -11 233.011 15.1839   5
  -3   6  11 253.867 22.8138   8
   2  -6 -11 67.4044 8.26741   5
  -2   6  11 68.5506 14.8001   8
   1  -6 -11 24.8245 5.99591   5
  -1   6  11 25.0618 9.35169   8
   0  -6 -11 1.84907 2.92892   5
   0   6  11 2.94613 5.43711   8
  -1  -6 -11 3.73406 2.58300   5
   1   6  11 -4.4303 3.43008   8
  -2  -6 -11 75.6154 11.6826   5
   2   6  11 107.715 16.5438   8
  -3  -6 -11 -0.1321 7.36392   5
   3   6  11 9.08997 6.27628   2
   3   6  11 6.66753 7.90786   8
   8  -7 -11 33.3962 6.55372   4
  -8   7  11 43.4805 13.5182   8
   7  -7 -11 17.3277 5.25598   4
  -7   7  11 16.9156 8.27933   8
   6  -7 -11 4.83986 3.21024   6
   6  -7 -11 5.42724 3.17415   4
  -6   7  11 6.10124 6.05273   8
   5  -7 -11 23.9317 5.37445   4
  -5   7  11 32.1552 10.1570   8
   4  -7 -11 34.9690 5.76214   4
   4  -7 -11 22.7191 5.28199   5
  -4   7  11 32.5794 10.1087   8
   3  -7 -11 0.54137 1.73726   4
   3  -7 -11 2.39742 3.35563   5
  -3   7  11 14.1610 6.19360   8
   2  -7 -11 0.78357 2.16451   4
   2  -7 -11 11.5145 4.41186   5
  -2   7  11 4.18052 6.66456   8
   1  -7 -11 -2.1285 2.72853   5
  -1   7  11 -1.4027 2.93010   8
   0  -7 -11 7.68992 4.14869   5
   0   7  11 -0.0966 4.96660   8
  -1  -7 -11 18.5099 6.15788   5
   1   7  11 9.62238 7.20638   8
  -2  -7 -11 41.8960 9.47568   5
   2   7  11 56.1072 12.8072   8
   7  -8 -11 10.4706 3.74038   4
  -7   8  11 8.39040 7.12923   8
   6  -8 -11 12.1041 4.39398   4
  -6   8  11 8.75856 7.17840   8
  -5   8  11 47.8164 13.5030   8
   4  -8 -11 175.407 18.6451   5
  -4   8  11 198.323 21.1149   8
   3  -8 -11 2.50264 5.53153   5
   3  -8 -11 -0.9421 2.13368   4
  -3   8  11 0.37106 5.60483   8
  -2   8  11 160.626 19.4115   8
   1  -8 -11 10.3456 4.76734   5
  -1   8  11 14.9628 6.28649   8
   0  -8 -11 -4.2455 3.04910   5
   0   8  11 13.8541 7.89002   8
  -1  12 -12 -0.7101 3.93747   8
  -1  12 -12 7.22945 4.64787   6
   1 -12  12 -1.6057 5.10256   3
   1 -12  12 -4.3301 7.38435   2
  -2  12 -12 80.9362 12.1359   6
   2 -12  12 85.8418 15.6188   2
  -3  12 -12 44.8324 8.30705   6
   3 -12  12 82.4483 14.7258   2
   4 -12  12 9.90668 7.47756   2
   4 -12  12 -10.218 4.38065   7
   5 -12  12 -4.0215 3.98611   7
   5 -12  12 1.61172 5.14941   2
   6 -12  12 21.1287 12.5969   2
   6 -12  12 4.01557 5.64865   7
  -2 -11  12 27.8257 9.99487   3
   1  11 -12 -0.8117 2.56711   6
  -1 -11  12 -3.9465 5.60654   3
  -1 -11  12 12.7290 6.04559   2
   0  11 -12 36.7196 7.35137   6
   0 -11  12 33.1268 11.9889   3
   0 -11  12 38.3667 10.1467   2
  -1  11 -12 200.169 19.9836   6
   1 -11  12 196.851 19.8595   2
  -2  11 -12 18.8259 7.02019   6
   2 -11  12 4.29708 4.42470   7
   2 -11  12 30.2514 8.74391   2
  -3  11 -12 66.7135 10.6222   6
   3 -11  12 48.6077 11.0667   2
  -4  11 -12 12.0077 4.51768   8
  -4  11 -12 -1.8907 2.98673   6
   4 -11  12 15.2087 6.86010   2
   4 -11  12 -4.2776 2.67791   7
   5 -11  12 3.07762 3.15334   7
   5 -11  12 15.3580 6.61112   2
   6 -11  12 7.19823 7.23475   2
   6 -11  12 -4.1903 4.11431   7
   7 -11  12 33.9434 10.6746   2
   7 -11  12 38.8161 13.6482   7
   3  10 -12 1.95191 2.61121   6
  -3 -10  12 3.03659 6.32379   3
   2  10 -12 67.7243 10.2697   6
  -2 -10  12 104.742 18.0165   3
   1  10 -12 48.1494 8.54765   6
  -1 -10  12 48.0497 14.4849   3
   0  10 -12 2.41500 2.74671   6
   0 -10  12 6.80407 4.73065   2
  -1  10 -12 239.893 16.2545   6
   1 -10  12 235.398 20.6532   2
  -2  10 -12 38.4111 7.99419   6
   2 -10  12 17.8536 7.21637   2
  -3  10 -12 64.8231 7.49550   5
  -3  10 -12 60.9397 10.2958   6
   3 -10  12 83.9169 16.5279   2
  -4  10 -12 0.05465 2.43230   6
  -4  10 -12 -0.5040 2.64347   8
  -4  10 -12 5.48666 3.31122   5
   4 -10  12 9.79714 5.57138   2
   4 -10  12 -5.0928 3.02251   7
  -5  10 -12 68.6493 10.0251   5
   5 -10  12 93.1527 11.6713   7
   5 -10  12 69.7907 12.9873   2
  -6  10 -12 74.1878 11.1882   5
   6 -10  12 65.4081 12.7565   2
   6 -10  12 71.0767 12.1320   7
  -7  10 -12 11.1394 6.22552   5
   7 -10  12 4.31969 4.66435   2
   7 -10  12 20.6985 6.89166   7
   8 -10  12 28.1989 8.45165   7
   8 -10  12 27.1487 8.41992   2
   4   9 -12 7.32825 3.63693   6
  -4  -9  12 -3.2603 4.81022   3
   3   9 -12 140.406 22.3128   6
  -3  -9  12 101.366 17.3782   3
   2   9 -12 20.1836 5.52872   6
  -2  -9  12 1.64734 4.15628   2
  -2  -9  12 8.46814 7.04976   3
   1   9 -12 -0.2195 1.82463   6
  -1  -9  12 2.37347 3.81057   2
   0   9 -12 19.2009 5.32661   6
   0  -9  12 26.0170 8.62028   2
  -1   9 -12 18.5575 3.99135   5
  -1   9 -12 19.8036 5.93324   6
   1  -9  12 6.92950 2.97494   7
   1  -9  12 16.0665 6.09237   2
  -2   9 -12 13.1700 4.03228   5
  -2   9 -12 12.4794 4.03738   6
   2  -9  12 11.2120 5.17967   2
  -3   9 -12 1.04809 2.33616   5
  -3   9 -12 2.57734 2.49745   6
   3  -9  12 5.06884 3.88061   2
  -4   9 -12 41.6828 8.05507   5
  -4   9 -12 36.6740 7.67366   6
   4  -9  12 26.6722 6.76385   7
   4  -9  12 40.2281 10.9405   2
  -5   9 -12 6.01204 3.09381   5
   5  -9  12 4.38148 3.84201   7
   5  -9  12 9.69177 5.19070   2
  -6   9 -12 99.7635 11.5534   5
   6  -9  12 100.178 18.5964   2
   6  -9  12 77.7877 13.4539   7
  -7   9 -12 15.7907 5.41088   5
   7  -9  12 17.7572 6.71381   2
   7  -9  12 9.44652 5.44655   7
  -8   9 -12 1.29095 4.64390   5
   8  -9  12 4.10338 5.55069   2
   8  -9  12 2.69323 5.02401   7
  -9   9 -12 -2.9739 4.39657   5
   9  -9  12 -4.2876 3.95054   7
   9  -9  12 9.96622 5.12834   2
   5   8 -12 7.83116 4.07221   6
  -5  -8  12 -4.3705 4.29403   3
   4   8 -12 -2.0395 2.09976   6
  -4  -8  12 2.96323 6.02859   3
   3   8 -12 6.22098 2.97456   6
  -3  -8  12 16.2436 7.12643   3
  -3  -8  12 6.42074 3.30246   2
   2   8 -12 0.95373 2.43582   6
  -2  -8  12 -1.1565 3.03590   2
   0   8 -12 48.4069 5.86264   5
   0   8 -12 49.0038 7.86218   6
   0  -8  12 63.7340 12.9169   2
  -1   8 -12 19.4735 5.22050   6
  -1   8 -12 19.7265 4.82982   5
   1  -8  12 16.9542 5.77485   2
  -2   8 -12 87.6985 8.44157   5
  -2   8 -12 100.907 9.56207   6
   2  -8  12 82.5730 15.1876   2
  -3   8 -12 5.47873 3.02807   5
  -3   8 -12 4.55330 3.12676   6
   3  -8  12 9.01854 5.49925   2
   3  -8  12 13.4644 5.57250   7
  -4   8 -12 52.4097 8.73167   5
  -4   8 -12 39.0080 8.71053   6
   4  -8  12 21.0098 6.55463   2
   4  -8  12 31.0237 7.25258   7
  -5   8 -12 21.4601 7.82905   5
   5  -8  12 22.9178 6.65469   7
   5  -8  12 19.8728 7.05620   2
  -6   8 -12 -5.6831 3.05127   5
   6  -8  12 -0.3722 3.79561   7
   6  -8  12 5.77615 4.80139   2
  -7   8 -12 110.884 13.0245   5
   7  -8  12 120.419 14.1136   7
   7  -8  12 137.028 17.3368   2
  -8   8 -12 4.66048 4.28471   5
   8  -8  12 6.16596 5.35819   7
  -9   8 -12 -0.8864 4.51897   5
   9  -8  12 3.24138 4.76945   7
   9  -8  12 13.1545 7.77597   2
   6   7 -12 36.8018 6.92413   6
   5   7 -12 50.5661 8.12164   6
   4   7 -12 24.9957 5.92833   6
  -4  -7  12 14.4329 6.14927   3
   3   7 -12 16.1557 4.78052   6
   3   7 -12 20.4767 3.85612   5
  -3  -7  12 7.91630 3.66094   2
  -3  -7  12 5.47533 5.45598   3
   2   7 -12 435.275 19.5602   6
   2   7 -12 404.843 15.9230   5
   1   7 -12 66.1051 7.39483   6
   1   7 -12 59.8745 6.54525   5
  -1  -7  12 44.9273 8.88414   2
   0   7 -12 59.7373 6.86553   6
   0   7 -12 50.2796 7.26390   5
   0  -7  12 45.7152 9.85898   2
  -1   7 -12 11.6694 3.58955   5
  -1   7 -12 21.6030 5.13243   6
   1  -7  12 19.6792 6.06496   2
  -2   7 -12 329.422 17.0991   5
  -2   7 -12 333.503 17.1691   6
   2  -7  12 318.737 37.8086   2
   2  -7  12 338.103 19.8991   7
  -3   7 -12 127.000 10.9237   5
  -3   7 -12 143.929 11.4855   6
   3  -7  12 118.066 14.5045   2
   3  -7  12 117.810 12.0990   7
  -4   7 -12 27.0852 6.35047   6
  -4   7 -12 32.7627 7.19522   5
   4  -7  12 35.4063 9.69764   7
   4  -7  12 25.5312 8.47000   2
  -5   7 -12 168.411 19.5702   5
   5  -7  12 196.789 19.8673   2
   5  -7  12 170.570 15.8453   7
  -6   7 -12 71.2669 11.9639   5
   6  -7  12 79.8562 14.3049   7
   6  -7  12 75.1613 16.1017   2
  -7   7 -12 87.6919 13.7117   5
   7  -7  12 106.808 13.2902   7
   7  -7  12 65.1027 13.6614   2
  -8   7 -12 0.19468 3.48827   5
   8  -7  12 -2.3022 3.97466   2
   8  -7  12 6.93766 4.96013   7
  -9   7 -12 7.55219 4.85198   5
   9  -7  12 10.5085 5.28063   7
   9  -7  12 12.3851 7.87777   2
   7   6 -12 45.9520 6.94620   4
   7   6 -12 39.0842 8.43721   6
   6   6 -12 22.6193 5.96277   6
   6   6 -12 14.1009 3.94717   4
   5   6 -12 -0.5751 2.05800   5
   5   6 -12 -1.1604 1.71886   6
   5   6 -12 2.13474 2.66273   4
  -5  -6  12 -0.7876 4.07318   3
   4   6 -12 26.3451 6.12287   6
   4   6 -12 37.2109 6.54778   4
   4   6 -12 37.0870 5.20850   5
   3   6 -12 17.0925 4.72654   6
   3   6 -12 11.1603 3.16872   5
  -3  -6  12 2.45924 3.17401   2
   2   6 -12 -1.0435 1.63348   5
   2   6 -12 -0.0933 1.66732   6
  -2  -6  12 0.65847 2.24457   2
   1   6 -12 82.5133 7.72827   6
   1   6 -12 88.6151 7.77632   5
  -1  -6  12 78.1540 10.2031   2
   0   6 -12 93.2808 8.29607   5
   0   6 -12 70.6135 7.94898   6
   0  -6  12 90.2742 11.3385   2
  -1   6 -12 131.199 9.87136   6
  -1   6 -12 138.756 10.5253   5
   1  -6  12 154.168 15.2850   2
  -2   6 -12 14.6311 4.36420   5
  -2   6 -12 12.7801 4.03096   6
   2  -6  12 5.79770 3.33615   2
  -3   6 -12 49.5624 8.12532   6
  -3   6 -12 34.6651 6.96570   5
   3  -6  12 34.2662 11.5713   2
  -4   6 -12 -0.1446 2.22614   6
  -4   6 -12 -2.8100 2.43802   5
   4  -6  12 -4.0916 2.16118   2
  -5   6 -12 40.6903 8.99545   5
   5  -6  12 41.4932 9.44782   2
   5  -6  12 44.6558 9.80175   7
  -6   6 -12 1.70762 3.57957   5
   6  -6  12 3.15764 4.23935   2
   6  -6  12 -4.2896 2.52571   7
  -7   6 -12 74.2792 12.0380   5
   7  -6  12 63.3587 12.8844   2
   7  -6  12 124.841 14.3504   7
  -8   6 -12 29.6005 8.19921   5
   8  -6  12 36.1407 10.6986   7
   8  -6  12 19.9951 7.43370   2
  -9   6 -12 12.8663 7.03308   5
   9  -6  12 2.27728 5.95470   2
   9  -6  12 20.4309 8.85533   7
   8   5 -12 -3.2198 2.91374   6
   8   5 -12 12.6210 6.10789   4
   7   5 -12 28.8684 7.78084   6
   7   5 -12 30.4200 6.16896   4
   6   5 -12 3.04056 2.43735   4
   6   5 -12 1.39690 2.59030   6
   6   5 -12 -0.8130 1.96396   5
  -6  -5  12 -0.9398 3.48544   3
   5   5 -12 225.283 13.8511   4
   5   5 -12 213.453 11.2067   5
   5   5 -12 209.097 14.0899   6
   4   5 -12 248.748 14.5498   4
   4   5 -12 227.385 11.6063   5
   4   5 -12 264.304 15.0928   6
   3   5 -12 172.751 10.2883   5
   3   5 -12 170.566 11.5349   6
   3   5 -12 192.273 12.5017   4
   2   5 -12 6.50412 2.99004   5
   2   5 -12 10.6367 4.48647   6
  -2  -5  12 3.02959 2.80443   2
   1   5 -12 61.4331 6.47844   6
   1   5 -12 57.7748 6.38086   5
  -1  -5  12 50.3304 9.55467   2
   0   5 -12 354.374 15.7807   6
   0   5 -12 342.871 16.5029   5
   0  -5  12 363.518 22.9503   2
  -1   5 -12 214.679 12.1650   6
  -1   5 -12 215.048 13.3483   5
   1  -5  12 189.699 17.1281   2
  -2   5 -12 6.95982 3.01532   6
  -2   5 -12 14.4148 4.22876   5
   2  -5  12 7.16496 3.80021   2
  -3   5 -12 120.880 9.68968   6
  -3   5 -12 133.369 11.7525   5
   3  -5  12 145.656 16.2201   2
  -4   5 -12 60.2388 9.51977   5
  -4   5 -12 96.1211 8.86644   6
   4  -5  12 99.5221 13.1355   2
  -5   5 -12 21.2485 6.07678   5
   5  -5  12 14.6257 7.28358   2
  -6   5 -12 65.3063 11.8747   5
   6  -5  12 76.0112 13.7746   2
  -7   5 -12 0.62025 3.65104   5
   7  -5  12 8.82454 4.39961   7
   7  -5  12 -6.5111 4.05915   2
  -8   5 -12 97.0609 14.4993   5
   8  -5  12 73.0675 12.9496   7
   8  -5  12 73.0984 15.2588   2
  -9   5 -12 24.8475 7.40739   5
   9  -5  12 55.3256 12.0971   7
   9  -5  12 53.9467 13.3862   2
   8   4 -12 148.188 12.0617   4
   8   4 -12 140.457 12.7729   6
   7   4 -12 381.667 20.8154   6
   7   4 -12 393.873 19.6695   4
   6   4 -12 48.9470 8.69962   4
   6   4 -12 39.7289 7.33341   6
   5   4 -12 141.197 11.1112   4
   5   4 -12 132.371 10.8643   6
   4   4 -12 2.17888 1.92581   5
   4   4 -12 -0.0654 1.42164   4
   4   4 -12 0.17505 1.81432   6
   3   4 -12 136.185 12.3371   6
   3   4 -12 136.365 10.4423   4
   3   4 -12 146.274 9.55628   5
   2   4 -12 36.4583 8.65347   4
   2   4 -12 20.0461 4.61561   6
   2   4 -12 20.5200 4.43755   5
   1   4 -12 50.2617 6.20914   5
   1   4 -12 56.3581 5.84813   6
  -1  -4  12 75.6913 12.5098   2
   0   4 -12 249.170 14.0455   5
   0   4 -12 272.087 13.0654   6
   0  -4  12 235.938 18.6261   2
  -1   4 -12 12.9526 3.59050   6
  -1   4 -12 16.6694 4.79848   5
   1  -4  12 8.80747 4.20536   2
  -2   4 -12 42.2848 6.69626   6
  -2   4 -12 44.4027 7.98010   5
   2  -4  12 32.9376 8.65663   2
  -3   4 -12 7.96433 3.63088   5
  -3   4 -12 6.05103 2.93054   6
   3  -4  12 7.36352 4.80296   2
   4  -4  12 -2.8452 2.78041   2
  -5   4 -12 58.9343 10.3033   5
   5  -4  12 36.7263 8.69421   2
  -6   4 -12 7.97161 3.68473   5
   6  -4  12 19.9005 8.39572   2
  -7   4 -12 23.1730 6.84489   5
   7  -4  12 9.22639 5.98332   2
  -8   4 -12 0.69975 3.30811   5
   8  -4  12 -0.1481 5.71828   2
   8  -4  12 5.49427 4.65598   7
  -9   4 -12 10.0551 5.32308   5
   9  -4  12 7.14973 6.06456   2
   9  -4  12 5.89706 5.99987   7
   9   3 -12 9.25659 3.35426   4
   9   3 -12 4.79570 4.38818   6
   8   3 -12 3.73862 3.02106   4
   8   3 -12 -9.6684 3.93244   6
   7   3 -12 -1.0711 3.00249   6
   7   3 -12 1.87339 2.96877   4
   6   3 -12 49.4178 8.43153   6
   6   3 -12 45.6783 7.97115   4
   5   3 -12 24.7212 5.40555   6
   5   3 -12 32.9243 6.38023   4
   4   3 -12 60.0155 6.95845   6
   4   3 -12 47.9261 7.55796   4
   3   3 -12 11.6655 4.01018   6
   3   3 -12 11.1260 3.49121   5
   3   3 -12 12.2760 3.98295   4
   2   3 -12 116.325 9.64792   4
   2   3 -12 117.208 9.12671   5
   2   3 -12 113.206 8.44998   6
  -2  -3  12 82.1895 9.76807   2
   1   3 -12 -0.4932 1.69264   5
   1   3 -12 0.82936 2.13407   4
   1   3 -12 0.19209 1.35201   6
  -1  -3  12 0.79697 2.54955   2
   0   3 -12 246.675 14.1342   5
   0   3 -12 259.825 12.1782   6
   0  -3  12 238.408 18.7032   2
  -1   3 -12 63.3639 6.04523   6
  -1   3 -12 73.4401 7.84092   5
   1  -3  12 55.4325 11.1836   2
  -2   3 -12 225.318 11.7751   6
  -2   3 -12 217.743 14.5158   5
   2  -3  12 217.560 19.3338   2
  -3   3 -12 70.6467 8.59720   5
   3  -3  12 58.7653 10.5636   2
  -4   3 -12 24.8862 5.77990   5
   4  -3  12 20.7244 7.20488   2
  -5   3 -12 88.7539 10.7693   5
   5  -3  12 72.0278 15.4294   2
  -6   3 -12 169.288 15.4682   5
   6  -3  12 151.329 17.9730   2
  -7   3 -12 13.2235 6.18979   5
   7  -3  12 15.6181 7.90874   2
  -8   3 -12 27.8976 8.40725   5
   8  -3  12 24.0785 10.9436   2
  -9   3 -12 8.69010 6.03370   5
   9  -3  12 10.0020 6.69296   2
   9  -3  12 11.9156 7.28792   7
   9   2 -12 3.02338 3.11971   4
   9   2 -12 3.94835 4.30129   6
   8   2 -12 10.4940 5.64356   6
   8   2 -12 9.37737 3.89963   4
   7   2 -12 383.544 21.2593   6
   7   2 -12 404.793 20.4848   4
   6   2 -12 170.749 12.5384   4
   6   2 -12 161.982 12.7594   6
   5   2 -12 35.1315 6.88024   6
   5   2 -12 49.2562 8.31498   4
   4   2 -12 75.8908 7.59276   6
   4   2 -12 76.8557 8.02470   4
   3   2 -12 38.7703 9.14089   4
   3   2 -12 46.2642 6.95740   5
   3   2 -12 46.8881 5.77409   6
   2   2 -12 297.791 13.6061   6
   2   2 -12 287.485 14.6184   5
   2   2 -12 291.815 15.4638   4
  -2  -2  12 288.835 18.9000   2
   1   2 -12 1.25656 2.34663   5
   1   2 -12 3.20396 2.15868   4
   1   2 -12 2.85604 1.99463   6
  -1  -2  12 2.03659 3.42184   2
   0   2 -12 203.041 10.2783   6
   0   2 -12 199.648 12.8482   5
   0  -2  12 198.459 17.2750   2
  -1   2 -12 451.353 20.6927   5
  -1   2 -12 448.182 16.0875   6
   1  -2  12 489.807 28.5219   2
  -2   2 -12 2.61952 2.09105   5
  -2   2 -12 0.75070 1.09920   6
   2  -2  12 5.57329 3.14997   2
  -3   2 -12 1.92064 3.98404   5
   4  -2  12 13.0070 6.12294   2
  -5   2 -12 27.5535 6.39164   5
   5  -2  12 51.3513 13.2488   2
  -6   2 -12 187.473 16.3183   5
   6  -2  12 207.298 21.3692   2
  -7   2 -12 26.2502 7.81834   5
   7  -2  12 12.1989 7.00811   2
  -8   2 -12 130.124 15.4401   5
   8  -2  12 143.494 19.1387   2
   9  -2  12 14.3045 12.5668   2
   9  -2  12 34.8085 12.8866   7
   9   1 -12 -0.7204 3.31185   6
   9   1 -12 -4.3237 2.44351   4
   8   1 -12 11.2986 4.00672   4
   8   1 -12 14.2129 5.01194   6
   7   1 -12 -3.3080 1.61711   6
   7   1 -12 -1.7305 1.94944   4
   6   1 -12 292.630 17.0164   4
   6   1 -12 251.992 15.9778   6
   5   1 -12 66.9531 7.73354   4
   5   1 -12 72.1520 8.40493   6
   4   1 -12 202.973 13.3176   4
   4   1 -12 203.204 12.5768   6
   3   1 -12 156.296 10.8960   5
   3   1 -12 175.578 10.6520   6
   3   1 -12 158.451 14.9937   4
   2   1 -12 51.4203 7.73520   5
   2   1 -12 36.6965 5.60213   4
   2   1 -12 66.3199 5.95362   6
  -2  -1  12 58.8334 10.1458   2
   1   1 -12 165.940 9.09318   6
   1   1 -12 148.015 10.8387   4
   1   1 -12 143.893 10.7206   5
  -1  -1  12 169.719 15.6662   2
   0   1 -12 -2.2844 1.62524   5
   0   1 -12 -0.5094 0.87307   6
   0  -1  12 2.81486 2.60034   2
  -1   1 -12 18.2018 4.96562   5
   1  -1  12 21.7220 6.97323   2
   2  -1  12 50.2124 10.7328   2
  -3   1 -12 198.828 14.8900   5
   3  -1  12 233.172 21.2401   2
  -4   1 -12 82.3326 10.1809   5
   4  -1  12 87.0979 16.8152   2
  -5   1 -12 231.353 17.6754   5
   5  -1  12 237.285 22.8731   2
  -6   1 -12 -1.7414 3.71175   5
   6  -1  12 -3.7234 2.78827   2
  -7   1 -12 61.1391 12.5397   5
   7  -1  12 66.0291 13.2759   2
  -8   1 -12 30.2698 8.80024   5
   8  -1  12 29.8360 9.02943   2
   9   0 -12 26.7035 9.50641   6
   9   0 -12 20.1741 6.05311   4
   8   0 -12 3.80752 3.48290   6
   8   0 -12 -1.3550 1.96355   4
   7   0 -12 158.030 13.1593   6
   7   0 -12 153.772 12.5452   4
   6   0 -12 57.5859 9.07683   4
   6   0 -12 56.7707 9.10429   6
   5   0 -12 -3.5889 1.75168   6
   5   0 -12 2.76768 2.68804   4
   4   0 -12 1.54288 1.68606   6
   4   0 -12 1.90880 1.70514   4
  -4   0  12 -2.6133 2.51028   2
   3   0 -12 10.9053 3.13868   6
   3   0 -12 6.01244 2.86756   4
  -3   0  12 1.47128 1.85029   2
   2   0 -12 124.616 7.93801   6
   2   0 -12 118.137 9.64012   5
   2   0 -12 119.480 10.1508   4
  -2   0  12 120.747 13.1058   2
   1   0 -12 83.6896 8.17014   4
   1   0 -12 92.7070 8.78960   5
  -1   0  12 87.4303 11.7763   2
   0   0 -12 3.89270 2.73266   5
   0   0  12 5.61954 4.68240   8
   0   0  12 4.45149 4.22601   2
  -1   0 -12 40.1886 10.9175   5
   1   0  12 38.6300 10.0025   2
   1   0  12 47.1764 10.8875   8
  -2   0 -12 109.469 10.8455   5
   2   0  12 129.928 13.3913   8
   2   0  12 124.023 21.8498   2
  -3   0 -12 105.327 10.9616   5
   3   0  12 90.4758 16.1521   2
   3   0  12 101.317 11.6559   8
  -4   0 -12 28.9426 7.27842   5
   4   0  12 16.3310 7.52334   2
   4   0  12 25.7525 7.45299   8
  -5   0 -12 16.7949 5.74971   5
   5   0  12 14.0893 6.54916   2
   5   0  12 12.7363 5.13695   8
  -6   0 -12 52.5929 9.64660   5
   6   0  12 58.7333 13.5481   2
   6   0  12 54.5010 9.25773   8
  -7   0 -12 78.9954 13.7625   5
   7   0  12 68.2219 13.3620   2
   8   0  12 0.69554 9.09501   2
  10  -1 -12 247.030 19.7837   6
   9  -1 -12 24.0365 6.68283   4
   9  -1 -12 44.1022 13.4426   6
   8  -1 -12 13.6243 4.86216   4
   8  -1 -12 11.8730 5.52466   6
   7  -1 -12 6.94729 3.35343   6
   7  -1 -12 4.98765 3.14177   4
   6  -1 -12 44.2353 8.06651   4
   6  -1 -12 39.8430 7.27769   6
   5  -1 -12 335.447 18.1230   4
   5  -1 -12 356.553 17.6518   6
   4  -1 -12 14.9451 4.00736   6
   4  -1 -12 22.7598 5.76669   4
   3  -1 -12 88.1897 7.10804   6
  -3   1  12 59.5577 10.9308   2
   2  -1 -12 155.418 11.7466   5
  -2   1  12 162.895 17.7006   8
  -2   1  12 167.878 16.0020   2
   1  -1 -12 35.9318 6.58059   5
   1  -1 -12 27.3034 5.78774   4
  -1   1  12 45.1094 11.3131   8
  -1   1  12 28.8537 8.79136   2
   0  -1 -12 84.5391 9.02987   5
   0   1  12 102.208 16.3921   8
   0   1  12 73.1239 13.3262   2
  -1  -1 -12 20.6682 5.56813   5
   1   1  12 14.2891 6.71217   8
  -2  -1 -12 233.604 16.0698   5
   2   1  12 238.243 21.9498   2
   2   1  12 227.330 18.4256   8
  -3  -1 -12 98.5376 10.8097   5
   3   1  12 90.8085 16.0805   2
   3   1  12 101.122 11.9642   8
  -4  -1 -12 -0.5665 3.37015   5
   4   1  12 6.73742 4.29671   2
   4   1  12 0.70864 3.59962   8
  -5  -1 -12 15.8575 6.14050   5
   5   1  12 19.4325 6.67397   8
   5   1  12 18.9718 9.50829   2
  -6  -1 -12 20.6173 7.57076   5
   6   1  12 35.6741 8.49693   8
   6   1  12 23.6076 10.3861   2
  -7  -1 -12 3.18753 4.47158   5
   7   1  12 10.8120 7.62284   2
  10  -2 -12 57.7812 11.5423   6
   9  -2 -12 90.0911 13.0654   4
   9  -2 -12 85.5622 13.0635   6
   8  -2 -12 49.7298 9.60139   6
   8  -2 -12 42.2990 8.30366   4
   7  -2 -12 10.5877 3.74464   4
   7  -2 -12 17.2771 5.45150   6
   6  -2 -12 294.863 17.4409   4
   6  -2 -12 299.472 17.2211   6
   5  -2 -12 44.0924 7.18779   6
   5  -2 -12 44.3458 7.43716   4
   3  -2 -12 0.47568 1.23273   6
   3  -2 -12 2.84508 1.57713   4
  -3   2  12 1.58551 2.92794   2
  -3   2  12 3.57179 4.78319   8
   2  -2 -12 15.5949 4.57188   5
   2  -2 -12 16.2268 4.25923   4
  -2   2  12 19.1857 7.85171   8
  -2   2  12 30.9801 8.88039   2
   1  -2 -12 5.24880 2.94364   5
  -1   2  12 3.46798 4.49391   8
  -1   2  12 12.1098 5.08505   2
   0   2  12 5.22968 8.19365   8
  -1  -2 -12 52.5483 9.58438   5
   1   2  12 70.2498 15.5052   2
   1   2  12 51.0450 16.4697   8
  -2  -2 -12 141.686 12.5755   5
   2   2  12 121.304 21.2431   8
   2   2  12 149.047 17.8036   2
  -3  -2 -12 4.05114 2.63965   5
   3   2  12 1.84294 4.10144   8
  -4  -2 -12 21.0299 6.47430   5
   4   2  12 18.4863 7.53229   2
   4   2  12 3.41019 4.50315   8
  -5  -2 -12 5.53455 4.78956   5
   5   2  12 3.83594 5.83011   2
   5   2  12 -1.2979 3.92838   8
  -6  -2 -12 71.5556 11.7166   5
   6   2  12 102.809 20.1652   2
   6   2  12 95.6225 12.5581   8
   9  -3 -12 16.8528 5.16143   4
   9  -3 -12 18.3368 6.04661   6
   8  -3 -12 44.1984 8.34616   6
   8  -3 -12 42.8868 8.41350   4
   7  -3 -12 185.565 13.9868   6
   7  -3 -12 174.297 14.0973   4
   6  -3 -12 89.2794 9.02361   6
   6  -3 -12 51.4906 9.10975   4
   5  -3 -12 0.85918 1.89478   6
   5  -3 -12 18.3014 4.77221   4
  -5   3  12 3.77984 3.38853   2
   3  -3 -12 17.3456 3.92742   4
   3  -3 -12 14.9304 4.02024   5
  -3   3  12 13.0963 6.05533   2
  -3   3  12 6.62107 5.46072   8
   2  -3 -12 152.565 11.8578   5
   2  -3 -12 178.107 11.8453   4
  -2   3  12 132.657 15.7635   2
  -2   3  12 133.722 16.1725   8
   1  -3 -12 14.4228 4.24709   4
   1  -3 -12 11.4015 4.28190   5
  -1   3  12 17.3824 7.10813   2
  -1   3  12 16.6525 6.61240   8
   0  -3 -12 138.206 11.6966   5
   0   3  12 115.716 18.7204   2
   0   3  12 133.224 15.6254   8
  -1  -3 -12 10.8686 4.42469   5
   1   3  12 13.5701 6.87030   8
   1   3  12 15.0083 6.71476   2
  -2  -3 -12 3.93800 3.05814   5
   2   3  12 4.09443 5.25846   8
   2   3  12 5.81309 6.12975   2
  -3  -3 -12 114.751 12.2691   5
   3   3  12 114.522 17.8166   8
   3   3  12 117.170 20.0726   2
  -4  -3 -12 47.8891 10.2144   5
   4   3  12 33.2510 11.6076   2
   4   3  12 16.0116 7.51557   8
  -5  -3 -12 15.7904 6.44839   5
   5   3  12 39.9014 11.5787   2
   5   3  12 28.4011 8.72969   8
   9  -4 -12 44.2531 10.3537   6
   9  -4 -12 50.4036 8.99558   4
   8  -4 -12 72.7469 10.9588   6
   8  -4 -12 69.1368 15.3990   4
   7  -4 -12 1.16755 2.71933   6
   7  -4 -12 13.8743 4.55641   4
   6  -4 -12 42.2175 6.98598   4
   4  -4 -12 -2.4142 1.56269   6
   4  -4 -12 8.91338 3.29128   4
  -4   4  12 -4.7120 3.24404   2
  -4   4  12 2.24972 2.35983   8
   3  -4 -12 77.8805 8.21528   4
   3  -4 -12 96.3622 9.44071   5
  -3   4  12 100.593 16.9897   8
   2  -4 -12 152.213 11.2427   4
   2  -4 -12 188.346 13.4475   5
  -2   4  12 175.286 18.0001   2
  -2   4  12 166.450 18.3145   8
   1  -4 -12 386.658 20.2902   5
   1  -4 -12 339.500 16.8526   4
  -1   4  12 351.467 26.1327   8
  -1   4  12 354.798 27.4182   2
   0  -4 -12 182.333 14.2590   5
   0   4  12 188.403 20.1600   2
   0   4  12 198.222 19.7381   8
  -1  -4 -12 3.33108 2.74419   5
   1   4  12 -1.7511 4.41311   2
   1   4  12 5.35649 4.47854   8
  -2  -4 -12 160.073 14.4653   5
   2   4  12 163.720 17.3465   8
   2   4  12 119.175 20.2235   2
  -3  -4 -12 2.36839 3.76348   5
   3   4  12 -1.0715 4.34976   8
   3   4  12 0.55644 6.12211   2
  -4  -4 -12 6.06920 4.50168   5
   4   4  12 12.7125 8.07258   2
   4   4  12 6.77697 5.93254   8
   9  -5 -12 1.92672 6.16692   4
   9  -5 -12 -6.0028 4.47249   6
   8  -5 -12 1.60713 3.73749   6
   8  -5 -12 0.89199 4.32670   4
   7  -5 -12 23.2994 5.42310   4
   6  -5 -12 68.2186 10.0975   4
  -6   5  12 60.7346 11.9001   8
   5  -5 -12 11.0247 2.71918   6
   5  -5 -12 23.5592 6.16552   4
  -5   5  12 12.2073 6.04303   8
   4  -5 -12 2.34338 1.94444   4
   4  -5 -12 2.52083 2.07865   6
  -4   5  12 -9.0625 3.22615   8
  -4   5  12 1.71592 3.02884   2
   3  -5 -12 53.0270 8.18284   4
   3  -5 -12 65.5575 9.92241   5
  -3   5  12 49.4792 11.6594   2
  -3   5  12 70.7139 14.7673   8
   2  -5 -12 11.3197 4.63595   5
   2  -5 -12 16.2542 4.38336   4
  -2   5  12 8.88189 5.24020   8
  -2   5  12 13.8937 5.81430   2
   1  -5 -12 37.5286 8.11092   5
  -1   5  12 34.2119 9.71174   8
  -1   5  12 13.7037 7.18189   2
   0  -5 -12 83.0817 10.1073   5
   0   5  12 70.8466 14.9704   2
   0   5  12 76.7717 14.1560   8
  -1  -5 -12 26.6105 6.43656   5
   1   5  12 16.0057 7.36738   8
   1   5  12 28.9924 10.3078   2
  -2  -5 -12 42.4684 9.04984   5
   2   5  12 49.7041 14.5641   2
   2   5  12 57.9101 12.0521   8
  -3  -5 -12 132.523 14.3017   5
   3   5  12 146.121 25.7009   8
   3   5  12 125.530 21.7322   2
   8  -6 -12 7.59517 4.63055   4
   8  -6 -12 -2.4104 3.86990   6
   7  -6 -12 54.7010 9.94955   4
  -7   6  12 54.3579 14.8155   8
   6  -6 -12 4.88635 3.48422   4
  -6   6  12 -7.3048 4.65721   2
  -6   6  12 2.89498 4.80345   8
   5  -6 -12 15.6145 4.76085   4
  -5   6  12 9.42733 7.37574   8
  -5   6  12 2.38456 4.56318   2
   4  -6 -12 -1.8410 2.48952   5
   4  -6 -12 3.10564 2.73725   4
  -4   6  12 6.50176 5.79448   2
  -4   6  12 3.72756 6.28445   8
   3  -6 -12 30.7920 7.34977   5
   3  -6 -12 27.0731 5.51838   4
  -3   6  12 30.2348 8.76263   8
   2  -6 -12 41.3815 7.43252   5
  -2   6  12 44.1077 10.7275   8
   1  -6 -12 58.0498 9.49314   5
  -1   6  12 61.0822 14.2487   8
   0  -6 -12 17.0454 6.06260   5
   0   6  12 34.8169 13.0692   2
   0   6  12 35.9224 12.1208   8
  -1  -6 -12 28.8581 7.39671   5
   1   6  12 24.4658 9.34549   2
   1   6  12 15.4678 7.42311   8
  -2  -6 -12 4.61916 4.35733   5
   2   6  12 -10.118 6.67777   2
   2   6  12 -8.9186 5.02547   8
   6  -7 -12 10.5036 5.76007   4
  -6   7  12 -6.0509 6.15611   2
  -6   7  12 14.1456 8.63903   8
   5  -7 -12 7.39355 3.96678   4
   4  -7 -12 43.5427 8.06330   5
   4  -7 -12 52.9016 7.98688   4
  -4   7  12 76.5966 15.7948   8
   3  -7 -12 232.906 16.4172   5
  -3   7  12 266.464 24.1089   8
  -2   7  12 6.68623 4.95372   8
   1  -7 -12 -0.7097 3.45147   5
  -1   7  12 -9.4691 4.86920   8
   0  -7 -12 2.83205 3.26162   5
   0   7  12 6.32796 6.33872   8
   0 -11  13 26.4774 9.67524   3
   0 -11  13 -4.9795 4.91544   2
  -1  11 -13 -0.7052 2.27387   6
   1 -11  13 -6.7018 5.72981   2
  -2  11 -13 4.38651 4.20348   6
  -3  11 -13 -2.8944 4.07737   8
  -3  11 -13 0.17031 3.92506   6
   3 -11  13 5.10806 7.80398   2
   3 -11  13 12.9860 5.72990   7
  -4  11 -13 35.9234 7.91159   6
   4 -11  13 36.6825 9.84954   2
   5 -11  13 26.5667 9.26204   2
   2  10 -13 27.9352 8.52015   6
  -2 -10  13 25.9798 11.0660   3
   1  10 -13 -0.7135 2.80725   6
  -1 -10  13 8.28926 5.19132   2
  -1 -10  13 -3.6347 6.97375   3
   0  10 -13 7.18242 3.49343   6
   0 -10  13 -3.5834 4.04926   2
  -1  10 -13 17.7541 7.46674   6
   1 -10  13 29.2798 9.60761   2
  -2  10 -13 3.83014 2.87710   6
   2 -10  13 6.89480 5.60856   2
  -3  10 -13 -0.2654 3.14616   6
   3 -10  13 8.10184 4.21976   7
  -4  10 -13 77.4546 8.89968   5
  -4  10 -13 50.4314 10.5447   6
   4 -10  13 37.7140 9.07239   2
  -5  10 -13 1.17383 3.68275   5
   5 -10  13 6.96533 4.10534   7
   5 -10  13 -3.7726 3.29825   2
  -6  10 -13 9.63218 4.20377   5
   6 -10  13 -7.0757 4.11426   7
   6 -10  13 -8.8751 4.12653   2
  -7  10 -13 34.2622 8.16917   5
   7 -10  13 29.8033 8.20944   7
   7 -10  13 46.1271 20.0355   2
   3   9 -13 26.9705 6.53130   6
  -3  -9  13 28.7384 11.2804   3
   2   9 -13 39.8144 7.20268   6
  -2  -9  13 44.2781 12.4276   3
   0   9 -13 192.951 14.2161   6
   0  -9  13 206.994 18.5154   2
  -1   9 -13 4.23803 2.87315   5
  -1   9 -13 3.88173 3.32357   6
   1  -9  13 4.38856 5.89169   2
   1  -9  13 -6.1542 2.68849   7
  -2   9 -13 11.8283 4.32024   5
  -2   9 -13 13.6740 4.45549   6
   2  -9  13 22.9073 7.55069   2
  -3   9 -13 40.7233 7.89254   6
  -3   9 -13 43.6376 7.15699   5
   3  -9  13 64.0331 14.5206   2
  -4   9 -13 110.936 11.6325   6
   4  -9  13 101.853 11.6666   7
   4  -9  13 123.924 15.7035   2
  -5   9 -13 60.7263 10.3044   5
   5  -9  13 45.1920 9.83026   7
   5  -9  13 48.8445 12.0862   2
  -6   9 -13 20.2374 6.67666   5
   6  -9  13 -3.9622 5.06258   2
   6  -9  13 2.98446 5.33034   7
  -7   9 -13 65.9736 10.5302   5
   7  -9  13 86.2714 17.9504   2
   7  -9  13 52.6509 11.3480   7
   4   8 -13 77.5084 8.80997   6
  -4  -8  13 37.0887 11.3788   3
  -3  -8  13 3.89165 5.37297   2
  -3  -8  13 8.84685 6.82569   3
   2   8 -13 81.6447 8.94255   6
   1   8 -13 14.4671 3.67707   5
   1   8 -13 11.6998 3.75197   6
  -1  -8  13 4.22280 3.66951   2
   0   8 -13 32.9008 6.09264   5
   0   8 -13 28.6989 6.11210   6
   0  -8  13 25.8379 7.13101   2
  -1   8 -13 44.9396 8.17809   6
  -1   8 -13 39.6196 6.53530   5
   1  -8  13 19.9832 6.80168   2
  -2   8 -13 -0.5467 2.79382   5
  -2   8 -13 9.42726 3.89476   6
   2  -8  13 3.90137 4.42334   2
   2  -8  13 -1.4748 2.68145   7
  -3   8 -13 49.2286 9.28195   5
  -3   8 -13 51.3142 8.94813   6
   3  -8  13 47.0702 8.88939   7
   3  -8  13 41.6256 9.70116   2
  -4   8 -13 25.3917 5.70180   5
  -4   8 -13 37.6124 8.24812   6
   4  -8  13 39.9452 9.78237   7
   4  -8  13 48.1574 11.9409   2
  -5   8 -13 5.01322 3.95629   5
   5  -8  13 7.35875 5.23673   7
   5  -8  13 2.89270 4.84847   2
  -6   8 -13 14.6206 5.06479   5
   6  -8  13 39.7607 12.5329   2
   6  -8  13 20.7341 6.96332   7
  -7   8 -13 2.74317 4.87064   5
   7  -8  13 2.11255 5.57238   2
   7  -8  13 11.9375 9.86060   7
  -8   8 -13 -5.6187 5.01307   5
   8  -8  13 5.52597 5.22550   7
   8  -8  13 4.16548 6.31074   2
   5   7 -13 47.2136 8.05151   6
   4   7 -13 3.45405 4.39531   6
  -4  -7  13 7.52294 5.26281   3
   3   7 -13 123.047 8.68653   5
   3   7 -13 123.404 10.7434   6
  -3  -7  13 124.788 15.1032   3
   2   7 -13 195.122 13.3195   6
   2   7 -13 200.606 11.3300   5
   0   7 -13 175.983 11.6019   5
   0   7 -13 165.434 11.9925   6
   0  -7  13 173.822 17.7157   2
  -1   7 -13 -1.7819 1.76723   6
  -1   7 -13 -0.6172 2.32753   5
   1  -7  13 4.04712 3.73544   2
   1  -7  13 1.71418 2.60101   7
  -2   7 -13 -1.9698 2.65501   5
  -2   7 -13 2.07325 2.13547   6
   2  -7  13 -5.6504 2.26848   7
  -3   7 -13 93.7254 9.62456   6
  -3   7 -13 94.7448 10.1629   5
   3  -7  13 111.385 18.4054   2
   3  -7  13 135.534 13.5556   7
  -4   7 -13 7.91622 3.74686   6
  -4   7 -13 -1.0808 2.68178   5
   4  -7  13 3.34084 4.53157   2
   4  -7  13 4.76787 4.05023   7
  -5   7 -13 39.5868 9.01182   5
   5  -7  13 53.7236 12.2732   7
   5  -7  13 42.8964 10.2580   2
  -6   7 -13 70.1000 12.2266   5
   6  -7  13 52.8252 12.9999   2
   6  -7  13 69.5346 12.8298   7
  -7   7 -13 18.7275 6.65029   5
   7  -7  13 15.3455 5.48396   7
   7  -7  13 -1.5116 11.7305   2
  -8   7 -13 78.6520 13.6515   5
   8  -7  13 74.7692 14.7306   2
   8  -7  13 60.4136 12.7955   7
   6   6 -13 271.716 16.8059   6
   6   6 -13 257.122 16.8290   4
   5   6 -13 -2.3867 2.51626   4
   5   6 -13 -3.0811 2.76422   6
  -5  -6  13 3.67744 4.73848   3
   4   6 -13 68.1362 6.81443   5
   4   6 -13 63.6095 9.05911   6
   3   6 -13 41.6107 6.78520   6
   3   6 -13 47.8221 6.65585   5
   2   6 -13 22.6327 5.84031   6
   2   6 -13 22.5692 4.60540   5
   1   6 -13 143.537 10.5657   5
   1   6 -13 180.631 11.9233   6
   0   6 -13 44.5077 6.88232   5
   0   6 -13 34.9355 6.12357   6
   0  -6  13 31.6598 8.57873   2
  -1   6 -13 158.905 11.9313   5
  -1   6 -13 136.788 10.4782   6
   1  -6  13 127.073 14.9651   2
  -2   6 -13 99.3597 8.96300   6
  -2   6 -13 108.791 10.4014   5
   2  -6  13 74.7023 14.3846   2
  -3   6 -13 35.3286 7.07703   6
  -3   6 -13 31.6605 10.5343   5
   3  -6  13 22.3067 7.80187   2
  -4   6 -13 41.3859 8.30031   5
  -4   6 -13 33.0354 6.53789   6
   4  -6  13 39.5809 11.2680   2
  -5   6 -13 4.44972 3.12217   5
   5  -6  13 -3.0411 4.13036   2
   5  -6  13 -4.2618 3.57303   7
  -6   6 -13 0.09858 3.60808   5
   6  -6  13 8.64991 6.03596   2
   6  -6  13 -5.0911 3.75921   7
  -7   6 -13 35.7171 8.95018   5
   7  -6  13 32.2904 8.50091   7
   7  -6  13 46.8367 13.3328   2
   8  -6  13 44.2156 12.1129   2
   8  -6  13 37.4003 9.96214   7
   7   5 -13 -1.8384 3.44565   6
   6   5 -13 18.6127 4.54770   4
   6   5 -13 23.6049 6.00859   6
   6   5 -13 12.6996 3.60136   5
  -6  -5  13 0.69091 6.23693   3
   5   5 -13 18.9647 5.02085   4
   5   5 -13 13.1473 3.94437   5
   5   5 -13 13.1778 4.56945   6
  -5  -5  13 4.28383 4.46593   3
   4   5 -13 5.90226 3.29482   6
   4   5 -13 9.36651 3.29808   5
   4   5 -13 3.37340 2.62652   4
  -4  -5  13 -0.5908 3.38113   3
   3   5 -13 32.6365 6.27192   4
   3   5 -13 28.9182 5.30360   5
   3   5 -13 35.4991 6.58273   6
   2   5 -13 33.5308 5.54760   5
   2   5 -13 26.4713 5.52400   6
   1   5 -13 36.3707 6.30469   5
   1   5 -13 41.5369 6.37807   6
  -1  -5  13 28.4986 7.75879   2
   0   5 -13 120.138 9.52924   6
   0   5 -13 93.7124 9.01306   5
   0  -5  13 97.4272 12.7017   2
  -1   5 -13 133.265 10.2734   6
  -1   5 -13 127.042 10.7928   5
   1  -5  13 122.189 22.1295   2
  -2   5 -13 13.9901 4.01737   6
  -2   5 -13 19.5040 5.71790   5
   2  -5  13 14.5942 5.63090   2
  -3   5 -13 5.10036 2.74386   6
  -3   5 -13 1.04360 3.62050   5
   3  -5  13 3.08464 3.37274   2
  -4   5 -13 24.7308 7.16881   5
   4  -5  13 21.2629 6.75545   2
  -5   5 -13 12.3254 4.64144   5
   5  -5  13 9.09664 4.66453   2
  -6   5 -13 11.2843 5.35241   5
   6  -5  13 8.09748 5.73010   2
  -7   5 -13 123.878 17.8275   5
   7  -5  13 115.481 19.5094   2
   7  -5  13 119.393 15.0617   7
  -8   5 -13 57.4017 11.5636   5
   8  -5  13 43.3168 10.3908   7
   8  -5  13 51.5044 13.3559   2
   7   4 -13 3.21119 3.10755   6
   6   4 -13 -3.0022 2.15322   4
   6   4 -13 1.57011 2.48168   5
   6   4 -13 -1.5177 1.46978   6
  -6  -4  13 -4.9607 4.68523   3
   5   4 -13 397.384 19.7655   4
   5   4 -13 394.116 19.4912   6
   5   4 -13 395.185 17.2877   5
   4   4 -13 6.77489 2.80463   5
   4   4 -13 3.05700 2.16371   6
   4   4 -13 2.25598 2.62199   4
   3   4 -13 11.6625 3.53521   5
   3   4 -13 13.3028 4.34996   4
   3   4 -13 8.50986 3.42293   6
   2   4 -13 5.35446 2.28790   6
   2   4 -13 -1.1451 2.57491   4
   2   4 -13 4.23201 2.38898   5
  -2  -4  13 0.19962 2.35004   2
   1   4 -13 -1.8797 1.85112   5
   1   4 -13 -1.0548 1.73328   6
  -1  -4  13 3.10626 3.89179   2
   0   4 -13 -1.7508 2.02471   5
   0   4 -13 1.43799 1.90637   6
   0  -4  13 -0.0317 3.17658   2
  -1   4 -13 52.4677 8.67083   5
  -1   4 -13 38.6827 6.08616   6
   1  -4  13 36.5862 9.59249   2
  -2   4 -13 74.7655 10.6774   5
  -2   4 -13 86.9579 7.71402   6
   2  -4  13 100.609 16.6826   2
  -3   4 -13 101.836 10.8253   5
   3  -4  13 95.8066 16.9724   2
  -4   4 -13 2.49710 2.27988   5
   4  -4  13 5.70914 4.54875   2
  -5   4 -13 5.98377 4.09545   5
   5  -4  13 3.67152 4.93233   2
  -6   4 -13 -4.6052 2.40453   5
   6  -4  13 4.16593 4.89945   2
  -7   4 -13 54.4467 11.0449   5
   7  -4  13 53.3503 18.2106   2
  -8   4 -13 -1.7561 3.85338   5
   8  -4  13 -5.2639 3.59649   7
   8  -4  13 7.66312 5.30379   2
   8   3 -13 10.1890 4.49716   6
   8   3 -13 12.0941 4.34598   4
   7   3 -13 96.0315 10.1211   4
   6   3 -13 124.505 11.2005   4
   6   3 -13 160.825 12.5955   6
   5   3 -13 29.4011 5.24778   5
   5   3 -13 33.9266 6.60643   4
   5   3 -13 38.6771 7.18123   6
   4   3 -13 27.1348 5.95290   5
   4   3 -13 29.0437 5.41687   6
   4   3 -13 24.4284 5.25293   4
   3   3 -13 8.60951 3.57230   4
   3   3 -13 2.54579 2.17634   6
   3   3 -13 6.12930 2.81651   5
   2   3 -13 303.561 15.7003   5
   2   3 -13 279.493 14.4850   6
   2   3 -13 301.183 16.3987   4
   1   3 -13 308.869 16.3020   5
   1   3 -13 307.879 14.2913   6
  -1  -3  13 315.266 21.4672   2
   0   3 -13 -2.3189 1.29474   6
   0   3 -13 2.24187 2.08301   5
   0  -3  13 8.14927 4.10564   2
  -1   3 -13 158.664 9.86874   6
  -1   3 -13 160.735 14.9659   5
   1  -3  13 182.919 17.5425   2
  -2   3 -13 11.1300 3.86248   5
  -2   3 -13 1.14121 1.30001   6
   2  -3  13 4.66650 3.80920   2
  -3   3 -13 5.46224 3.69238   5
  -3   3 -13 -0.7484 1.59849   6
   3  -3  13 13.0725 5.07601   2
  -4   3 -13 -2.6720 1.90989   5
   4  -3  13 2.02947 4.02154   2
  -5   3 -13 9.78481 4.16122   5
   5  -3  13 7.67465 4.41359   2
  -6   3 -13 155.851 15.7490   5
   6  -3  13 230.406 23.0415   2
  -7   3 -13 156.295 29.8158   5
   7  -3  13 193.120 25.4977   2
  -8   3 -13 8.10922 4.86276   5
   8  -3  13 21.0877 7.47814   2
   8  -3  13 1.56404 4.88334   7
   8   2 -13 -0.4974 2.84491   4
   8   2 -13 -4.0594 2.51161   6
   7   2 -13 0.09139 2.51222   4
   7   2 -13 1.02391 2.78401   6
   6   2 -13 185.258 13.5539   6
   6   2 -13 202.667 14.4022   4
   5   2 -13 42.1051 6.94150   4
   5   2 -13 51.5852 8.45676   6
   4   2 -13 17.4594 4.58659   4
   4   2 -13 22.6638 4.82122   5
   4   2 -13 28.7386 6.03790   6
   3   2 -13 24.3724 7.60581   6
   3   2 -13 31.8435 5.84783   4
   3   2 -13 23.3848 5.17468   5
   2   2 -13 60.4576 7.11813   4
   2   2 -13 53.5740 5.75015   6
   2   2 -13 55.8432 11.8544   5
   1   2 -13 42.6457 8.07131   5
   1   2 -13 43.9137 5.24528   6
   1   2 -13 51.4268 7.85965   4
  -1  -2  13 31.2758 7.81302   2
   0   2 -13 6.01872 3.37062   5
   0   2 -13 2.93045 1.81013   6
   0  -2  13 7.50210 4.73152   2
  -1   2 -13 2.17924 2.61861   5
  -1   2 -13 1.66935 1.25298   6
   1  -2  13 -3.8449 3.77532   2
  -2   2 -13 13.4628 4.58292   5
   2  -2  13 14.1763 7.72707   2
  -3   2 -13 68.3931 11.2327   5
   3  -2  13 39.3794 10.6903   2
  -4   2 -13 -1.2518 2.57765   5
   4  -2  13 -1.8908 3.34692   2
  -5   2 -13 138.192 14.2485   5
   5  -2  13 128.461 17.3210   2
  -6   2 -13 -3.3566 3.05597   5
   6  -2  13 2.60111 6.06790   2
  -7   2 -13 59.8190 11.5251   5
   7  -2  13 72.5921 15.4607   2
   8   1 -13 50.7048 9.04888   4
   8   1 -13 51.3065 9.25850   6
   7   1 -13 15.1144 6.02031   6
   7   1 -13 23.6699 6.27633   4
   6   1 -13 93.5716 9.94145   4
   6   1 -13 95.3761 9.93801   6
   5   1 -13 21.4151 5.57562   4
   5   1 -13 19.8999 4.72905   6
   4   1 -13 156.777 11.9778   4
   4   1 -13 151.126 11.2951   5
   4   1 -13 154.048 10.8927   6
   3   1 -13 91.2972 8.84372   4
   3   1 -13 99.7115 9.19653   5
   3   1 -13 98.0496 8.04977   6
   2   1 -13 -0.9556 1.25766   4
   2   1 -13 0.58427 1.81247   5
   2   1 -13 2.52325 2.02220   6
  -2  -1  13 0.91152 2.85550   2
   1   1 -13 150.096 11.6267   5
   1   1 -13 159.418 11.8174   4
  -1  -1  13 146.129 15.4885   2
   0   1 -13 99.0421 9.89680   5
   0  -1  13 134.268 15.3127   2
  -1   1 -13 4.85418 2.83583   5
  -1   1 -13 1.44900 1.64085   6
   1  -1  13 11.0722 6.85721   2
  -2   1 -13 184.757 14.5587   5
   2  -1  13 198.268 19.5681   2
  -3   1 -13 4.11935 3.41069   5
   3  -1  13 8.25423 5.42251   2
  -4   1 -13 49.4888 9.51748   5
   4  -1  13 46.5889 10.1017   2
  -5   1 -13 7.85458 4.54500   5
   5  -1  13 22.1151 10.8964   2
  -6   1 -13 37.4589 16.5369   5
   6  -1  13 1.75258 11.0757   2
  -7   1 -13 209.174 19.0384   5
   7  -1  13 181.879 22.5026   2
   8   0 -13 10.0103 6.28364   6
   8   0 -13 8.91953 4.48904   4
   7   0 -13 22.3623 6.21643   6
   7   0 -13 14.8309 5.02073   4
   6   0 -13 1.97892 3.01892   4
   6   0 -13 4.36661 3.29613   6
   5   0 -13 253.326 14.8849   6
   5   0 -13 255.061 16.0502   4
   4   0 -13 22.7873 5.56552   6
   4   0 -13 14.3553 3.86065   4
   3   0 -13 16.2300 4.16434   5
   3   0 -13 19.1438 4.34405   6
   3   0 -13 16.7984 4.20699   4
   2   0 -13 17.4781 5.17969   4
   2   0 -13 13.0851 4.15998   5
  -2   0  13 12.1945 5.01892   2
   1   0 -13 0.56715 2.01661   4
   1   0 -13 1.04091 1.11522   6
   1   0 -13 -0.9626 2.14703   5
  -1   0  13 -1.5867 2.97023   2
   0   0 -13 4.24790 2.99005   5
   0   0 -13 1.36622 1.38097   6
   0   0  13 4.72368 5.29624   2
  -1   0 -13 2.76105 2.42816   5
   1   0  13 6.25995 4.87093   2
  -2   0 -13 26.5282 6.38765   5
   2   0  13 51.1170 11.1704   8
   2   0  13 22.8669 7.31815   2
  -3   0 -13 397.675 22.8078   5
   3   0  13 361.604 28.5697   2
   3   0  13 386.986 23.9524   8
  -4   0 -13 6.77882 4.47439   5
   4   0  13 11.1869 5.98476   2
   4   0  13 7.78670 4.47649   8
  -5   0 -13 1.42661 4.30890   5
   5   0  13 1.56347 4.80031   2
   5   0  13 -0.9828 3.57130   8
  -6   0 -13 73.4866 13.2698   5
   6   0  13 64.4781 15.2643   2
   8  -1 -13 5.50541 3.92821   6
   8  -1 -13 6.10895 3.50297   4
   7  -1 -13 0.45290 2.68963   6
   7  -1 -13 -0.4247 3.05353   4
   6  -1 -13 42.1026 7.88923   4
   6  -1 -13 34.7595 6.27709   6
   5  -1 -13 73.7912 7.53844   6
   5  -1 -13 71.3770 10.6813   4
   4  -1 -13 0.31809 1.47915   6
   4  -1 -13 11.6834 3.64285   4
  -4   1  13 -0.3134 3.08502   2
   3  -1 -13 6.45609 3.45334   5
   3  -1 -13 6.68765 2.98902   4
   2  -1 -13 26.7521 5.58136   4
   2  -1 -13 13.9427 4.48750   5
  -2   1  13 18.9508 6.63628   2
   1  -1 -13 1.46221 2.42780   5
   1  -1 -13 2.16626 1.28021   6
   1  -1 -13 5.88497 3.42860   4
  -1   1  13 4.21508 5.07338   8
   0  -1 -13 14.6700 4.58272   5
   0  -1 -13 0.94755 1.60271   6
   0   1  13 11.4206 5.23395   8
   0   1  13 5.19220 4.86040   2
  -1  -1 -13 18.3326 4.78331   5
   1   1  13 18.9813 7.41885   2
   1   1  13 29.6484 8.06956   8
  -2  -1 -13 59.9094 9.95416   5
   2   1  13 53.0062 13.1743   2
   2   1  13 59.1134 11.4875   8
  -3  -1 -13 -1.5085 2.09659   5
   3   1  13 -0.7257 4.38216   2
   3   1  13 7.27387 4.69523   8
  -4  -1 -13 58.7046 9.79063   5
   4   1  13 87.8407 15.4728   8
   4   1  13 67.8294 16.2124   2
  -5  -1 -13 2.63545 3.20305   5
   5   1  13 9.89766 5.47285   2
   5   1  13 4.92629 5.42950   8
  -6  -1 -13 23.7885 6.84185   5
   6   1  13 33.3244 14.9250   2
   8  -2 -13 6.63984 3.99521   6
   8  -2 -13 -0.2069 2.84079   4
   7  -2 -13 0.72203 2.47417   4
   7  -2 -13 5.95427 4.00212   6
   6  -2 -13 9.82017 4.28805   6
   6  -2 -13 4.30074 2.99585   4
   5  -2 -13 4.47056 2.71550   4
   5  -2 -13 0.62877 1.82841   6
  -5   2  13 6.36186 3.34359   2
   3  -2 -13 69.6680 8.29428   5
   2  -2 -13 -1.6142 1.85664   5
   2  -2 -13 -2.2368 1.33220   6
   2  -2 -13 0.87515 1.65493   4
  -2   2  13 8.19852 5.18612   8
  -2   2  13 -4.7261 3.73152   2
   1  -2 -13 6.30886 3.22428   4
   1  -2 -13 6.40669 3.41095   5
  -1   2  13 2.13918 4.46161   2
  -1   2  13 0.34455 4.66485   8
   0  -2 -13 7.71797 3.54142   5
   0   2  13 6.15028 5.88619   8
   0   2  13 -4.9645 4.83786   2
  -1  -2 -13 91.9192 10.4197   5
   1   2  13 76.3312 15.9466   2
   1   2  13 99.0471 16.7079   8
  -2  -2 -13 66.8286 11.1502   5
   2   2  13 45.0560 10.8648   2
   2   2  13 48.1753 10.7932   8
  -3  -2 -13 11.2623 4.79733   5
   3   2  13 19.0707 7.40469   8
   3   2  13 5.18020 6.53760   2
  -4  -2 -13 158.809 16.2880   5
   4   2  13 148.785 15.9051   8
   4   2  13 128.434 20.9435   2
  -5  -2 -13 11.4534 5.32761   5
   5   2  13 -6.8610 5.33403   8
   5   2  13 18.3674 8.73255   2
   8  -3 -13 159.554 13.5031   6
   8  -3 -13 184.262 14.8034   4
   7  -3 -13 9.40701 5.10488   4
   7  -3 -13 7.53302 3.48845   6
   6  -3 -13 13.2702 4.71354   4
   5  -3 -13 75.8773 11.4706   4
   4  -3 -13 8.73665 4.32770   4
   4  -3 -13 4.25192 2.73828   5
  -4   3  13 11.4410 4.14292   2
  -4   3  13 15.4014 6.80729   8
   3  -3 -13 2.61708 2.75797   5
   3  -3 -13 -1.9225 2.11100   4
   3  -3 -13 -1.1552 1.47389   6
  -3   3  13 -6.7695 3.30350   2
  -3   3  13 4.40712 6.11825   8
   2  -3 -13 35.1465 7.13372   5
   2  -3 -13 37.4469 6.86078   4
  -2   3  13 30.6099 8.58656   8
  -2   3  13 57.2909 13.4034   2
  -1   3  13 8.98232 6.53189   8
  -1   3  13 9.07652 5.75078   2
   0  -3 -13 192.291 15.0651   5
   0   3  13 201.651 21.7316   2
   0   3  13 204.683 20.0644   8
  -1  -3 -13 265.622 18.3239   5
   1   3  13 253.442 22.0964   8
   1   3  13 282.126 26.1358   2
  -2  -3 -13 18.3225 6.47339   5
   2   3  13 38.4390 12.2723   2
   2   3  13 16.6435 7.36774   8
  -3  -3 -13 16.3273 6.15102   5
   3   3  13 7.36208 5.38093   8
   3   3  13 13.0675 8.23422   2
   4   3  13 75.3800 12.5738   8
   4   3  13 73.4919 17.3497   2
   8  -4 -13 40.4286 10.5444   4
   7  -4 -13 43.0118 8.47898   4
   6  -4 -13 -4.8853 2.10989   6
   6  -4 -13 10.5591 4.63894   4
   5  -4 -13 5.63524 2.18166   6
   5  -4 -13 5.59014 3.60641   4
  -5   4  13 -0.6339 5.05115   8
  -5   4  13 -6.6873 5.41055   2
   4  -4 -13 6.05928 3.06277   4
   4  -4 -13 6.78395 3.29430   5
  -4   4  13 -1.0109 4.58186   2
  -4   4  13 11.6408 7.24399   8
   3  -4 -13 50.0656 8.01418   5
   3  -4 -13 50.3610 7.78988   4
  -3   4  13 68.9885 14.5808   8
  -3   4  13 44.1191 10.3262   2
   2  -4 -13 108.400 9.88023   4
   2  -4 -13 115.123 11.3579   5
  -2   4  13 98.9572 17.1996   8
  -2   4  13 74.3074 16.0574   2
   1  -4 -13 35.2547 7.58752   5
  -1   4  13 60.7891 14.3853   8
  -1   4  13 55.9008 13.1957   2
   0  -4 -13 1.00551 2.89426   5
   0   4  13 -11.020 4.80358   8
   0   4  13 17.4244 7.25277   2
  -1  -4 -13 5.79895 5.00422   5
   1   4  13 5.31246 6.19343   2
   1   4  13 6.03447 6.02374   8
  -2  -4 -13 19.0554 6.23406   5
   2   4  13 22.4234 8.73497   8
   2   4  13 26.6280 10.0710   2
  -3  -4 -13 63.4725 11.1453   5
   3   4  13 43.8123 13.0887   2
   3   4  13 70.3062 19.4538   8
   7  -5 -13 59.4599 9.41522   4
   6  -5 -13 -0.7762 3.03418   6
   6  -5 -13 14.3264 5.37096   4
  -6   5  13 2.51181 7.58805   2
   5  -5 -13 1.73969 2.80580   4
   5  -5 -13 -8.0334 3.72253   6
  -5   5  13 6.08817 5.78742   2
  -5   5  13 -2.5091 4.16119   8
   4  -5 -13 16.0006 5.29626   5
   4  -5 -13 5.71893 3.32517   4
  -4   5  13 -1.8934 4.48105   2
  -4   5  13 7.97549 5.40479   8
   3  -5 -13 0.68253 5.04131   5
   3  -5 -13 -1.3137 2.39646   4
  -3   5  13 9.25227 7.82840   8
  -3   5  13 -4.3228 5.96789   2
   2  -5 -13 116.395 18.1704   5
   2  -5 -13 122.235 10.3138   4
  -2   5  13 155.564 19.6197   2
  -2   5  13 104.793 19.8922   8
   1  -5 -13 4.36098 4.59831   5
  -1   5  13 0.53126 5.81658   2
   0  -5 -13 5.43731 4.22374   5
   0   5  13 9.24260 7.83513   2
   0   5  13 5.90418 4.16070   8
  -1  -5 -13 58.7909 10.2367   5
   1   5  13 104.862 17.7853   8
   1   5  13 93.2908 18.3254   2
   5  -6 -13 28.7939 6.96539   5
   5  -6 -13 23.3453 6.21868   4
  -5   6  13 28.4559 11.9569   8
  -5   6  13 5.15133 6.60982   2
   4  -6 -13 4.25043 3.51979   5
   4  -6 -13 -0.3321 3.19807   4
  -4   6  13 8.31537 7.62588   8
  -4   6  13 7.40333 5.94684   2
   3  -6 -13 105.316 11.4254   5
   3  -6 -13 111.538 9.81977   4
  -3   6  13 103.287 17.5034   8
  -3   6  13 130.655 20.5678   2
   2  -6 -13 17.2535 4.92821   5
  -2   6  13 24.5499 9.75196   2
  -2   6  13 25.8038 9.45542   8
   1  -6 -13 -0.9639 3.58307   5
  -1   6  13 0.96030 5.84517   8
  -1   6  13 2.99163 7.17482   2
   0 -10  14 3.84751 6.12162   2
  -1  10 -14 0.98029 3.81035   6
   1 -10  14 -3.0446 9.64576   2
  -2  10 -14 16.8950 5.04739   6
   2 -10  14 -7.1563 5.59747   7
  -3  10 -14 6.56577 4.46835   6
   3 -10  14 -0.0575 4.22476   7
   3 -10  14 5.06499 5.94418   2
  -4  10 -14 4.55780 4.47748   6
   4 -10  14 -4.2309 4.85422   7
   4 -10  14 4.21935 6.03513   2
   2   9 -14 15.1125 7.15219   6
  -2  -9  14 4.40728 8.07160   3
  -2  -9  14 14.0396 7.72440   2
   1   9 -14 -1.3460 2.69948   6
  -1  -9  14 -2.1715 5.46182   2
   0   9 -14 58.0928 9.33674   6
  -1   9 -14 0.30135 3.25181   6
   1  -9  14 -0.8887 4.09169   2
   1  -9  14 2.07762 5.02418   7
  -2   9 -14 13.3366 4.50935   5
  -2   9 -14 10.5444 8.58701   6
   2  -9  14 5.98336 6.75687   2
  -3   9 -14 6.52705 4.05700   5
  -3   9 -14 -0.2375 3.39624   6
   3  -9  14 -8.9216 4.46071   2
  -4   9 -14 -3.0133 3.73007   5
   4  -9  14 7.67093 6.52409   2
   4  -9  14 12.2253 5.93577   7
  -5   9 -14 5.22383 4.42880   5
   5  -9  14 -8.7987 6.39356   2
   5  -9  14 -12.805 4.98217   7
  -6   9 -14 7.00242 5.36595   5
   6  -9  14 8.40902 7.07617   2
   6  -9  14 15.9006 7.79274   7
   3   8 -14 6.18129 3.89906   6
  -3  -8  14 -7.5063 5.77652   3
   2   8 -14 55.5371 9.13579   6
   0   8 -14 9.48141 4.08988   5
   0   8 -14 4.01315 2.97182   6
   0  -8  14 -2.8812 3.49137   7
   0  -8  14 2.86025 4.05597   2
  -1   8 -14 -2.8622 2.02661   6
  -1   8 -14 7.01591 3.82330   5
   1  -8  14 -3.3106 3.66585   2
   1  -8  14 1.84774 3.74002   7
  -2   8 -14 3.39731 3.11109   5
  -2   8 -14 0.93983 2.46403   6
   2  -8  14 -8.5331 3.14049   2
   2  -8  14 1.08283 3.77053   7
  -3   8 -14 17.3908 5.54542   5
  -3   8 -14 25.7711 6.09532   6
   3  -8  14 19.2174 9.28984   2
   3  -8  14 12.5783 6.04248   7
  -4   8 -14 16.4343 6.04597   5
  -4   8 -14 7.27726 4.63233   6
   4  -8  14 12.9267 6.28255   7
   4  -8  14 8.03098 5.67841   2
  -5   8 -14 -0.8909 4.08274   5
   5  -8  14 -2.1981 4.30114   2
   5  -8  14 -5.9503 4.48728   7
  -6   8 -14 17.0635 6.44167   5
   6  -8  14 42.1989 10.5695   7
   6  -8  14 21.1627 9.85723   2
   4   7 -14 47.4414 8.00094   6
   3   7 -14 22.4695 5.56829   6
  -3  -7  14 -0.0881 4.75410   3
  -3  -7  14 10.2032 6.02763   2
   2   7 -14 -6.6549 2.74871   5
   2   7 -14 -1.7476 2.04133   6
  -2  -7  14 1.03817 4.41946   2
   0   7 -14 16.6612 4.70936   5
   0   7 -14 22.6194 5.46624   6
   0  -7  14 25.2507 6.33227   2
  -1   7 -14 71.3693 8.35596   6
  -1   7 -14 67.8081 11.2194   5
   1  -7  14 89.1086 16.0599   2
  -2   7 -14 49.1682 8.61080   5
  -2   7 -14 60.6972 9.59387   6
   2  -7  14 36.3301 8.96105   2
   2  -7  14 47.8904 10.1432   7
  -3   7 -14 2.83606 3.02123   6
  -3   7 -14 -4.4590 2.67039   5
   3  -7  14 0.05239 4.45295   2
   3  -7  14 1.35014 4.13472   7
  -4   7 -14 35.9347 8.29517   6
  -4   7 -14 22.6955 5.64994   5
   4  -7  14 33.2750 8.36470   7
   4  -7  14 25.0165 9.77061   2
  -5   7 -14 54.9751 10.5092   5
   5  -7  14 38.3889 10.7993   2
   5  -7  14 44.6696 11.3524   7
  -6   7 -14 -1.2352 5.23993   5
   6  -7  14 -1.3865 6.57888   7
   6  -7  14 -1.6184 3.68323   2
  -7   7 -14 40.8347 9.77308   5
   7  -7  14 25.2391 12.9401   2
   7  -7  14 22.2080 8.90484   7
   5   6 -14 70.6975 10.4704   6
   4   6 -14 137.226 11.6540   6
   4   6 -14 119.355 9.57190   5
   3   6 -14 17.0162 4.28150   6
   2   6 -14 4.41463 4.14761   5
   2   6 -14 -3.0644 1.71805   6
  -2  -6  14 1.18902 3.69285   2
   1   6 -14 5.36259 2.95974   6
  -1  -6  14 5.76404 3.98646   2
   0   6 -14 86.6613 8.82272   6
   0   6 -14 73.1351 8.80813   5
   0  -6  14 103.805 13.0489   2
  -1   6 -14 70.0785 9.59857   5
  -1   6 -14 53.3827 8.61532   6
   1  -6  14 59.2459 11.9848   2
  -2   6 -14 3.66535 3.19971   5
  -2   6 -14 -1.6211 2.05729   6
  -3   6 -14 2.63296 3.02280   6
  -3   6 -14 7.54011 4.54399   5
   3  -6  14 4.65953 4.71980   2
  -4   6 -14 60.5894 9.83072   5
   4  -6  14 60.8929 11.9750   2
  -5   6 -14 32.5457 8.23654   5
   5  -6  14 37.3405 10.5009   7
   5  -6  14 33.7601 10.3028   2
  -6   6 -14 0.67669 4.57371   5
   6  -6  14 -4.6835 4.49652   2
   6  -6  14 5.42229 6.52047   7
  -7   6 -14 31.1912 8.91637   5
   7  -6  14 51.0670 13.3143   2
   7  -6  14 32.9996 9.79815   7
   6   5 -14 1.68907 3.17847   6
   6   5 -14 8.59283 4.06316   5
   6   5 -14 3.94241 3.48755   4
   5   5 -14 149.101 10.2299   5
   5   5 -14 159.714 23.9329   4
   5   5 -14 142.143 11.6803   6
   4   5 -14 16.9072 5.07064   6
   4   5 -14 21.6787 5.53630   4
   4   5 -14 24.6854 4.90160   5
  -4  -5  14 8.57295 5.56736   3
   3   5 -14 20.6359 4.75742   5
   3   5 -14 11.0132 3.28796   6
  -3  -5  14 3.81320 4.35217   2
   2   5 -14 0.84574 2.72359   5
   2   5 -14 2.81069 1.96526   6
  -2  -5  14 0.38632 2.92887   2
   1   5 -14 4.19237 3.13290   5
   1   5 -14 12.2836 3.91456   6
   0   5 -14 262.702 16.2617   5
   0   5 -14 258.630 14.5085   6
   0  -5  14 279.088 21.4356   2
  -1   5 -14 9.14244 3.92717   5
  -1   5 -14 14.3319 3.87240   6
   1  -5  14 5.25551 4.98290   2
  -2   5 -14 2.86981 2.40698   6
  -2   5 -14 -2.3330 2.93616   5
   2  -5  14 2.61808 3.94839   2
  -3   5 -14 8.75855 4.76476   5
  -3   5 -14 2.63723 2.36242   6
   3  -5  14 7.43191 6.46039   2
  -4   5 -14 15.7625 5.30211   5
   4  -5  14 5.40568 5.55463   2
  -5   5 -14 -8.0386 3.27232   5
  -6   5 -14 27.0931 8.65558   5
   6  -5  14 31.1316 10.8611   2
  -7   5 -14 9.40721 6.29509   5
   7  -5  14 -8.7001 5.17718   2
   7  -5  14 3.68086 6.79108   7
   6   4 -14 -5.5758 2.21790   4
   6   4 -14 -3.2665 2.60605   6
   6   4 -14 8.19963 3.84574   5
   5   4 -14 4.92076 3.40570   6
   5   4 -14 5.48086 3.30774   4
   5   4 -14 6.92124 3.49224   5
  -5  -4  14 3.07355 5.74155   3
   4   4 -14 194.817 14.2240   4
   4   4 -14 217.025 13.7452   6
   4   4 -14 206.259 12.7623   5
   3   4 -14 -1.6565 1.68957   6
   3   4 -14 4.87023 2.74481   4
  -3  -4  14 -1.9400 2.96088   2
   2   4 -14 0.44411 2.75824   5
   2   4 -14 0.12127 1.90462   6
   1   4 -14 31.9320 6.49696   5
   1   4 -14 23.0996 4.94449   6
   0   4 -14 -0.0944 2.26043   5
   0   4 -14 1.53559 2.39295   6
   0  -4  14 3.99213 3.51184   2
  -1   4 -14 34.6910 6.57336   5
  -1   4 -14 41.6639 7.31741   6
   1  -4  14 38.3490 9.22583   2
  -2   4 -14 1.70178 1.81993   6
  -2   4 -14 -1.5399 2.86022   5
   2  -4  14 0.15929 3.87727   2
  -3   4 -14 1.15924 1.73593   6
  -3   4 -14 0.95931 3.24848   5
   3  -4  14 3.17299 5.17873   2
  -4   4 -14 4.76053 3.28271   5
   4  -4  14 14.4404 7.61474   2
  -5   4 -14 1.34066 4.09940   5
   5  -4  14 0.64089 4.78933   2
  -6   4 -14 45.1176 9.78025   5
   6  -4  14 47.1327 13.8076   2
  -7   4 -14 10.6567 6.30273   5
   7  -4  14 -2.7029 6.33813   2
   7   3 -14 17.4899 5.56226   4
   7   3 -14 22.5936 5.74270   6
   6   3 -14 17.4905 4.67203   4
   6   3 -14 10.1246 4.21186   6
   6   3 -14 11.3373 3.96777   5
   5   3 -14 34.5101 7.04270   4
   5   3 -14 19.7131 5.51079   6
   5   3 -14 23.5389 4.94785   5
  -5  -3  14 8.66118 5.42686   3
   4   3 -14 56.4630 8.44539   4
   4   3 -14 60.8293 7.22454   5
   4   3 -14 63.9816 7.39353   6
   3   3 -14 4.42096 3.51762   4
   3   3 -14 6.07370 3.20052   5
   3   3 -14 5.97700 2.82199   6
  -3  -3  14 5.57227 3.15268   2
   2   3 -14 6.77441 3.31149   6
   2   3 -14 11.4535 4.09919   5
  -2  -3  14 10.9357 3.90531   2
   1   3 -14 13.9173 3.87122   6
   1   3 -14 18.9061 4.78612   5
  -1  -3  14 20.9985 7.47092   2
   0   3 -14 120.099 9.15496   6
   0   3 -14 136.688 11.7025   5
   0  -3  14 155.380 16.6000   2
  -1   3 -14 11.8004 4.98987   5
   1  -3  14 16.6142 6.23265   2
  -2   3 -14 40.6868 7.73264   5
   2  -3  14 59.8173 14.3947   2
   3  -3  14 27.9317 9.93584   2
  -4   3 -14 33.3234 8.33784   5
   4  -3  14 52.2749 14.0073   2
  -5   3 -14 29.4852 7.86992   5
   5  -3  14 23.3943 9.59422   2
  -6   3 -14 18.2180 6.23208   5
   6  -3  14 17.0689 8.87547   2
   7   2 -14 21.8419 6.34197   6
   7   2 -14 16.1942 5.41958   4
   6   2 -14 6.18332 3.42421   6
   6   2 -14 2.99532 2.88224   4
   5   2 -14 64.2040 7.63805   5
   5   2 -14 58.1837 8.41313   6
   5   2 -14 76.5469 11.0288   4
   4   2 -14 20.6609 5.31650   4
   4   2 -14 20.2298 4.74847   6
   4   2 -14 26.4974 5.76888   5
   3   2 -14 47.9050 7.36098   4
   3   2 -14 62.9042 7.77873   5
   3   2 -14 71.4646 7.14062   6
   2   2 -14 4.11648 2.08382   4
   2   2 -14 5.34032 3.03290   5
   2   2 -14 2.82302 2.12344   6
  -2  -2  14 2.75085 2.65843   2
   1   2 -14 38.9302 7.45295   5
  -1  -2  14 46.6686 16.6857   2
   0   2 -14 42.0339 7.88154   5
   0  -2  14 47.3901 11.4991   2
  -1   2 -14 37.2802 8.26765   5
   1  -2  14 41.6230 10.0253   2
  -2   2 -14 0.56852 1.61877   6
  -2   2 -14 3.15019 2.98173   5
   2  -2  14 1.71953 4.10234   2
  -3   2 -14 15.0647 5.55545   5
   3  -2  14 10.3813 7.05494   2
  -4   2 -14 60.1751 10.7786   5
   4  -2  14 55.6307 11.9796   2
  -5   2 -14 151.109 29.2795   5
   5  -2  14 189.814 38.6533   2
  -6   2 -14 85.9146 13.7294   5
   6  -2  14 115.797 21.9397   2
   7   1 -14 64.5975 9.37544   6
   7   1 -14 59.5846 9.00881   4
   6   1 -14 9.59258 4.50422   6
   6   1 -14 6.71993 3.76599   4
   5   1 -14 86.7806 9.01171   5
   5   1 -14 103.403 10.3959   4
   5   1 -14 100.213 9.26079   6
   4   1 -14 -1.5579 1.88512   6
   4   1 -14 -0.1034 2.24477   4
   4   1 -14 3.44004 2.62147   5
   3   1 -14 53.9967 8.74012   5
   3   1 -14 41.7215 7.45850   4
   3   1 -14 57.7198 6.29228   6
   2   1 -14 70.2029 8.30826   4
   1   1 -14 4.70756 3.78178   5
  -1  -1  14 5.91152 4.26288   2
   0   1 -14 15.4360 5.34781   5
   0  -1  14 30.0424 9.67149   2
  -1   1 -14 32.5547 7.74234   5
   1  -1  14 25.9584 9.53288   2
  -2   1 -14 -1.1063 2.16760   5
   2  -1  14 4.06920 5.10329   2
  -3   1 -14 218.650 17.1412   5
   3  -1  14 228.512 22.7707   2
  -4   1 -14 5.18551 4.41050   5
   4  -1  14 1.35120 5.83801   2
  -5   1 -14 -4.2893 3.03052   5
   5  -1  14 4.75912 5.56928   2
   7   0 -14 15.0192 7.87898   6
   6   0 -14 4.40270 3.21157   4
   6   0 -14 -1.2195 3.21579   6
   5   0 -14 6.93285 3.59889   4
   5   0 -14 7.31791 2.92540   6
   5   0 -14 14.2756 4.26692   5
   4   0 -14 31.2462 6.43854   5
   4   0 -14 37.6713 6.65565   4
  -4   0  14 15.5818 4.66551   2
   3   0 -14 6.34456 3.33173   4
   3   0 -14 1.28415 2.73641   5
  -3   0  14 -8.5861 3.40031   2
   2   0 -14 20.1868 5.16304   5
   2   0 -14 9.59037 4.26060   4
   2   0 -14 4.92638 1.68014   6
  -2   0  14 0.81190 3.05454   2
   1   0 -14 15.0315 4.62392   5
  -1   0  14 18.4786 8.07122   2
   0   0 -14 23.4392 6.47289   5
   0   0  14 15.8608 6.68422   2
  -1   0 -14 91.6776 10.3263   5
   1   0  14 102.763 19.0717   2
  -2   0 -14 7.64385 3.32649   5
   2   0  14 12.3841 6.44794   2
  -3   0 -14 105.652 12.1810   5
   3   0  14 82.0390 15.8714   2
  -4   0 -14 8.27971 4.97602   5
   4   0  14 12.6374 6.79492   2
  -5   0 -14 48.1026 10.5433   5
   5   0  14 60.1559 15.3478   2
   7  -1 -14 16.3964 5.96057   6
   7  -1 -14 10.7451 4.71641   4
   6  -1 -14 4.11799 2.85708   6
   6  -1 -14 11.0194 4.48731   4
   5  -1 -14 19.2600 5.34590   4
   4  -1 -14 33.7112 6.27659   4
   4  -1 -14 43.5961 8.09322   5
   3  -1 -14 0.34227 1.72805   6
   3  -1 -14 2.65627 2.53507   5
   3  -1 -14 0.85547 2.30926   4
  -3   1  14 -2.5446 3.49460   2
   2  -1 -14 20.0691 5.67578   4
   2  -1 -14 25.4292 5.89566   5
  -2   1  14 13.2582 6.16635   2
   1  -1 -14 2.84514 3.19420   5
   1  -1 -14 -0.5731 1.84424   6
  -1   1  14 10.5326 6.13600   2
   0  -1 -14 6.68041 3.80201   5
   0   1  14 5.91163 5.59363   2
  -1  -1 -14 27.9710 6.41185   5
   1   1  14 20.6454 9.23911   8
   1   1  14 16.8632 8.91008   2
  -2  -1 -14 67.0948 11.0235   5
   2   1  14 79.6208 14.4157   8
   2   1  14 65.0550 15.4080   2
  -3  -1 -14 10.7538 4.95658   5
   3   1  14 25.9710 8.26721   8
  -4  -1 -14 86.6907 13.3196   5
   4   1  14 102.833 17.4402   2
   4   1  14 68.1842 12.5640   8
   7  -2 -14 4.56273 4.45220   6
   7  -2 -14 12.1624 5.44871   4
   6  -2 -14 21.6719 6.36889   4
   4  -2 -14 3.87801 3.32464   5
   4  -2 -14 7.80868 3.38133   4
   4  -2 -14 -1.4661 2.05484   6
  -4   2  14 -3.7601 4.13461   2
   3  -2 -14 8.13504 3.73593   4
   3  -2 -14 1.95009 2.49540   5
   3  -2 -14 3.62322 2.07464   6
  -3   2  14 -3.9360 3.75628   2
   2  -2 -14 -2.9084 1.78431   6
   2  -2 -14 -0.0371 2.40093   5
   2  -2 -14 4.52329 3.21641   4
  -2   2  14 -2.3550 4.21246   2
   1  -2 -14 50.7384 9.12744   5
  -1   2  14 51.3177 12.1640   2
  -1   2  14 43.4211 11.8532   8
   0  -2 -14 17.1876 4.65178   5
   0   2  14 0.01155 4.65503   8
   0   2  14 -1.1790 5.35778   2
  -1  -2 -14 15.4187 6.03270   5
   1   2  14 25.4903 8.30480   8
   1   2  14 22.0671 9.78472   2
  -2  -2 -14 4.57376 2.81281   5
   2   2  14 8.47002 5.30845   8
   2   2  14 2.36225 9.26646   2
  -3  -2 -14 32.3623 8.16167   5
   3   2  14 21.0123 7.57509   8
   3   2  14 64.3052 14.6849   2
   6  -3 -14 -0.1532 2.73330   4
   5  -3 -14 3.15226 3.12399   5
   5  -3 -14 -4.8080 2.10314   4
  -5   3  14 3.76484 5.86177   2
   4  -3 -14 50.6176 8.14501   4
   4  -3 -14 62.2380 10.2364   5
   3  -3 -14 1.62743 2.75616   4
   3  -3 -14 3.51454 4.40436   5
  -3   3  14 -4.3366 4.88325   2
  -3   3  14 8.92089 5.80456   8
   2  -3 -14 51.7247 8.65239   4
  -2   3  14 30.3027 9.57828   2
  -2   3  14 47.2146 11.5245   8
   1  -3 -14 39.8304 12.4710   5
  -1   3  14 36.3317 10.8347   2
  -1   3  14 26.6466 9.65015   8
   0  -3 -14 1.69481 2.47538   5
   0   3  14 6.21250 6.82279   2
   0   3  14 -2.6858 5.78628   8
  -1  -3 -14 28.4263 6.46945   5
   1   3  14 42.8873 10.9835   8
   1   3  14 39.9947 10.8830   2
  -2  -3 -14 27.4708 8.30572   5
   2   3  14 43.1966 12.6394   2
   5  -4 -14 4.08564 3.24676   4
   5  -4 -14 6.64131 4.09038   5
  -5   4  14 6.38459 7.17496   2
   4  -4 -14 14.7414 4.12859   4
   4  -4 -14 19.5406 5.87252   5
  -4   4  14 19.5220 7.52387   8
  -4   4  14 0.29053 5.71072   2
   3  -4 -14 -2.9316 3.17133   5
  -3   4  14 -7.1356 4.68509   2
  -3   4  14 -3.4995 4.33708   8
   2  -4 -14 123.943 12.4918   5
  -2   4  14 124.363 16.3042   8
  -2   4  14 140.262 17.6866   2
   1  -4 -14 214.130 16.6933   5
  -1   4  14 183.717 21.2698   8
  -1   4  14 398.000 63.9346   2
   0  -4 -14 -4.6664 3.13995   5
   0   4  14 -2.8691 5.82503   2
   0   4  14 9.18865 5.29824   8
   1   8 -15 8.56633 4.43866   6
  -1  -8  15 8.72977 6.40942   2
   0   8 -15 37.3381 7.43995   6
  -1   8 -15 0.02305 2.77388   6
  -1   8 -15 5.85257 4.03826   5
   1  -8  15 -4.4149 4.90234   7
   1  -8  15 1.31808 5.63629   2
  -2   8 -15 13.4142 4.63223   5
  -2   8 -15 -4.7103 2.85474   6
   2  -8  15 -8.4034 4.63964   7
   2  -8  15 -5.9016 8.41950   2
  -3   8 -15 3.47103 4.14920   6
  -3   8 -15 14.1357 4.46862   5
   3  -8  15 -4.6096 5.03600   2
   3  -8  15 -0.8549 4.40537   7
  -4   8 -15 17.6897 6.32124   5
   4  -8  15 24.8184 12.1573   7
   4  -8  15 11.5003 6.64118   2
   2   7 -15 8.10307 3.74836   6
  -2  -7  15 9.31426 6.41052   2
   1   7 -15 -2.7958 3.10605   5
   1   7 -15 3.37128 3.27214   6
  -1  -7  15 -3.7801 5.15675   2
  -1  -7  15 -7.3553 5.76572   7
   0   7 -15 60.1915 8.60600   5
   0   7 -15 49.6449 10.5064   6
  -1   7 -15 2.93193 3.11311   5
  -1   7 -15 -2.4119 2.65507   6
   1  -7  15 -1.9854 4.01653   7
   1  -7  15 -1.6664 4.23964   2
  -2   7 -15 9.08058 4.71897   5
  -2   7 -15 8.27910 4.29402   6
   2  -7  15 1.61227 6.95045   2
   2  -7  15 -5.9133 4.06103   7
  -3   7 -15 75.6987 12.0906   5
  -3   7 -15 78.3612 9.42653   6
   3  -7  15 108.295 32.3179   2
   3  -7  15 59.6140 11.1227   7
  -4   7 -15 10.4123 5.26703   5
   4  -7  15 -2.6051 3.83937   2
  -5   7 -15 17.2910 7.04328   5
   5  -7  15 4.03720 7.02575   7
   5  -7  15 12.1545 6.36020   2
   3   6 -15 82.2795 9.00830   5
   3   6 -15 99.4935 10.0485   6
   2   6 -15 13.5887 5.03146   5
   1   6 -15 7.98183 3.56857   5
   1   6 -15 8.43167 3.71408   6
  -1  -6  15 -6.7094 3.49340   2
   0   6 -15 6.88114 3.43329   6
   0   6 -15 3.18321 3.10164   5
   0  -6  15 -1.2240 4.09585   2
  -1   6 -15 22.7742 5.66114   5
  -1   6 -15 23.7386 6.30312   6
   1  -6  15 5.65751 5.81254   2
  -2   6 -15 59.7532 9.23962   6
  -2   6 -15 55.4752 9.73598   5
   2  -6  15 69.8898 15.1159   2
  -3   6 -15 54.6353 9.05607   6
  -3   6 -15 50.0676 9.41065   5
   3  -6  15 40.6337 10.6721   2
  -4   6 -15 3.60219 3.91793   5
   4  -6  15 9.39904 7.77160   7
   4  -6  15 3.33871 6.79708   2
  -5   6 -15 38.5144 8.68791   5
   5  -6  15 21.2456 7.87875   7
   5  -6  15 34.5459 10.4434   2
   4   5 -15 79.2501 8.76441   6
   4   5 -15 68.9462 8.32747   5
   3   5 -15 -1.5092 2.77187   5
  -3  -5  15 8.04917 7.76801   2
   2   5 -15 6.03408 3.88287   5
   2   5 -15 0.86140 2.41032   6
  -2  -5  15 -2.4687 4.59286   2
   1   5 -15 4.70525 2.67055   5
   1   5 -15 4.71845 2.91350   6
  -1  -5  15 0.40758 3.50742   2
   0   5 -15 2.64644 3.30009   5
   0   5 -15 9.85878 3.61766   6
   0  -5  15 -3.6843 3.58229   2
  -1   5 -15 218.607 16.0095   5
  -1   5 -15 246.434 14.8391   6
   1  -5  15 229.826 21.6429   2
  -2   5 -15 12.9277 4.72354   5
  -2   5 -15 2.61920 3.12568   6
   2  -5  15 8.87414 6.30686   2
  -3   5 -15 -1.2777 2.26767   6
  -3   5 -15 4.43057 4.59641   5
   3  -5  15 16.3031 6.86383   2
  -4   5 -15 11.3562 5.10690   5
   4  -5  15 13.7904 7.32623   2
  -5   5 -15 6.51747 5.20632   5
   5  -5  15 5.67501 6.86734   2
   5   4 -15 14.6358 4.96167   6
   5   4 -15 18.3190 4.84344   5
   5   4 -15 18.1270 5.25419   4
   4   4 -15 35.4269 7.02868   4
   4   4 -15 37.9531 9.25808   6
   4   4 -15 34.9393 6.32488   5
   3   4 -15 -2.5128 2.53469   5
   3   4 -15 -1.1729 2.27249   6
  -3  -4  15 6.05163 6.21722   2
   2   4 -15 23.5983 5.30961   6
   2   4 -15 23.0933 5.69792   5
   1   4 -15 18.7638 4.53709   6
   1   4 -15 9.44525 4.45777   5
   0   4 -15 5.63893 2.67214   6
   0   4 -15 -8.0154 2.94672   5
   0  -4  15 -5.5833 4.38863   2
  -1   4 -15 -5.5942 2.35103   5
  -1   4 -15 5.47539 2.12137   6
   1  -4  15 -1.7661 4.22229   2
  -2   4 -15 25.1755 6.70092   5
   2  -4  15 23.1913 8.50021   2
  -3   4 -15 6.40337 5.40877   5
   3  -4  15 20.3021 8.17981   2
   4  -4  15 19.4157 8.95520   2
  -5   4 -15 8.23875 5.63079   5
   5  -4  15 2.53383 6.01721   2
   5   3 -15 22.4609 5.75135   5
   5   3 -15 32.9517 6.68195   6
   5   3 -15 30.5527 6.84939   4
   4   3 -15 75.6615 8.59302   5
   4   3 -15 52.9944 7.92300   6
   4   3 -15 54.5212 9.25132   4
   3   3 -15 5.64653 3.30487   5
   3   3 -15 7.99350 3.27272   6
  -3  -3  15 -7.1571 4.61459   2
   2   3 -15 -2.5565 2.18026   5
   2   3 -15 2.78670 2.14594   6
  -2  -3  15 3.43623 4.64674   2
   1   3 -15 -3.5787 3.16547   5
   1   3 -15 1.41493 1.54935   6
  -1  -3  15 1.63793 3.80126   2
   0   3 -15 31.6242 6.73031   5
   0  -3  15 21.0070 7.22871   2
  -1   3 -15 40.4024 7.77122   5
   1  -3  15 37.3576 10.5160   2
  -2   3 -15 102.822 11.6927   5
   2  -3  15 100.159 17.1466   2
  -3   3 -15 9.89538 4.52447   5
   3  -3  15 3.24148 5.63706   2
  -4   3 -15 3.37649 4.41618   5
   4  -3  15 -0.5621 6.00697   2
  -5   3 -15 -5.3953 3.73173   5
   5  -3  15 -7.0562 5.23210   2
   5   2 -15 3.04371 3.36609   4
   5   2 -15 5.02199 3.61438   5
   4   2 -15 58.9257 8.66205   5
   4   2 -15 69.2850 10.8562   4
   4   2 -15 76.3052 8.18781   6
   3   2 -15 29.9895 6.31434   5
   3   2 -15 42.6296 11.0963   4
   3   2 -15 45.7587 5.75072   6
   0   2 -15 0.72399 3.01979   5
   0   2 -15 -0.1845 1.60029   6
   0  -2  15 3.87933 5.00430   2
  -1   2 -15 26.6698 6.74163   5
   1  -2  15 21.2282 9.99808   2
  -2   2 -15 5.30796 3.51643   5
   2  -2  15 -0.5222 5.51508   2
  -3   2 -15 129.497 14.7730   5
   3  -2  15 129.856 22.7633   2
  -4   2 -15 23.8345 7.18027   5
   4  -2  15 56.0433 14.4995   2
   5   1 -15 8.05232 3.50225   6
   5   1 -15 1.06752 2.75216   4
   5   1 -15 4.98149 4.41607   5
   4   1 -15 8.45084 3.93739   4
   4   1 -15 8.19886 3.58141   5
   4   1 -15 11.3256 3.75956   6
   3   1 -15 -2.1767 1.79794   6
   3   1 -15 4.35234 3.10895   5
  -3  -1  15 16.5202 5.08998   2
   2   1 -15 0.80442 3.23605   5
   2   1 -15 -1.0287 1.55256   6
  -2  -1  15 -7.0851 4.36273   2
   1   1 -15 10.0270 4.70178   5
  -1  -1  15 18.5288 7.55771   2
   0   1 -15 14.7194 5.38499   5
   0  -1  15 8.03297 5.56494   2
  -1   1 -15 30.3081 6.98524   5
  -1   1 -15 7.25558 3.18808   6
   1  -1  15 18.7133 9.21234   2
  -2   1 -15 42.4922 12.4846   5
   2  -1  15 31.5055 10.6411   2
  -3   1 -15 10.3948 5.76502   5
   3  -1  15 12.1387 8.09678   2
  -4   1 -15 46.3371 10.8702   5
   4  -1  15 51.5382 15.0847   2
   5   0 -15 0.89365 2.55670   4
   5   0 -15 6.83086 3.78432   5
   5   0 -15 -2.1719 2.31756   6
   4   0 -15 123.903 14.4437   5
   4   0 -15 176.308 14.0039   4
   2   0 -15 0.62180 1.87707   6
  -2   0  15 2.19964 3.85367   2
   1   0 -15 58.2934 10.3951   5
  -1   0  15 63.7143 14.0807   2
   0   0 -15 4.18075 4.61049   5
   0   0  15 6.51947 6.49960   2
  -1   0 -15 47.0478 8.39233   5
   1   0  15 95.1814 19.5447   2
  -2   0 -15 77.6612 12.9252   5
   2   0  15 80.7031 17.7423   2
  -3   0 -15 10.3111 4.83209   5
   3   0  15 9.28725 6.54858   2
   5  -1 -15 18.8700 5.12271   5
   5  -1 -15 20.9542 5.92106   4
   4  -1 -15 89.8820 10.0296   4
   3  -1 -15 3.68163 3.21418   4
   3  -1 -15 0.27178 2.41548   6
   3  -1 -15 0.37603 3.29707   5
  -3   1  15 -3.6596 5.17971   2
   2  -1 -15 -0.4876 2.58031   5
   2  -1 -15 1.79918 3.14767   6
  -2   1  15 9.71291 5.71454   2
   1  -1 -15 16.3206 5.77147   5
  -1   1  15 22.0126 10.9066   2
   0  -1 -15 82.7286 10.0062   5
   0   1  15 90.4932 17.1700   2
  -1  -1 -15 -0.5731 3.67483   5
   1   1  15 1.61785 5.21065   2
  -2  -1 -15 6.14478 5.43063   5
   2   1  15 34.5247 10.0284   2
   3  -2 -15 10.5118 4.21322   5
   3  -2 -15 14.2220 5.61546   4
  -3   2  15 -2.4315 5.51370   2
   2  -2 -15 12.2633 4.33474   5
  -2   2  15 0.89818 5.70364   2
   1  -2 -15 10.6105 5.04938   5
  -1   2  15 4.03757 6.06225   2
   0  -2 -15 17.3346 5.93168   5
   0   2  15 18.4155 8.41456   2
   1   2  15 9.35014 8.60870   2
   1   2  15 28.6371 9.55085   8
   0   6 -16 14.8716 4.68692   6
   0   6 -16 23.3414 6.26582   5
   0  -6  16 3.07734 5.66508   2
  -1   6 -16 73.0851 9.07386   6
  -1   6 -16 64.4357 10.8093   5
   1  -6  16 71.4219 15.4856   2
   1   5 -16 -1.0306 3.40447   6
   1   5 -16 4.32176 3.76735   5
  -1  -5  16 -4.3915 4.94936   2
   0   5 -16 8.17400 3.39045   6
   0  -5  16 6.89865 4.95287   2
  -1   5 -16 1.13230 2.98767   6
   1  -5  16 5.67166 14.1251   2
  -2   5 -16 26.3762 7.44667   5
   2  -5  16 24.1239 8.80896   2
   2   4 -16 4.26459 3.91104   6
  -2  -4  16 7.54196 6.40695   2
   1   4 -16 71.9628 12.5497   5
   1   4 -16 52.9147 7.62933   6
   0  -4  16 46.8785 11.8526   2
  -1   4 -16 205.552 16.5960   5
   1  -4  16 191.938 33.5952   2
  -2   4 -16 34.2061 7.86312   5
   2  -4  16 32.1280 10.4404   2
   3   3 -16 45.2863 7.76015   5
   3   3 -16 53.6880 7.95774   6
   2   3 -16 -4.3508 2.52851   6
   2   3 -16 -7.6191 2.97827   5
  -2  -3  16 9.05226 6.26700   2
   1   3 -16 16.4660 5.66595   5
   1   3 -16 7.04087 2.74580   6
  -1  -3  16 13.8771 6.37342   2
   0   3 -16 20.0077 5.94541   5
   0  -3  16 36.3197 9.97470   2
  -1   3 -16 8.33485 4.98635   5
  -1   3 -16 -4.4659 3.51866   6
  -2   3 -16 1.72392 4.04863   5
   2  -3  16 3.55190 6.50126   2
   3   2 -16 23.3508 6.41106   5
   0   2 -16 -0.0846 2.78018   5
   0   2 -16 4.40397 3.30058   6
   0  -2  16 5.79969 6.29043   2
  -1   2 -16 22.4618 7.11110   5
   1  -2  16 19.9498 7.97732   2
  -2   2 -16 14.2488 6.75865   5
   2  -2  16 18.0359 8.65375   2
   2   1 -16 61.1615 10.6208   5
  -2  -1  16 2.87730 6.68473   2
   1   1 -16 -3.2212 3.70950   5
   1   1 -16 -5.9067 3.25525   6
  -1  -1  16 -6.4914 6.45341   2
   0   1 -16 15.9623 4.94953   5
   0  -1  16 2.79857 14.3006   2
  -1   1 -16 -1.3388 4.52061   5
   1  -1  16 14.6472 7.59681   2
   0   0   0    0.00    0.00   0
 _exptl_absorpt_process_details
)
 SADABS 2016/2: Krause, L., Herbst-Irmer, R., Sheldrick G.M. & Stalke D.,
 J. Appl. Cryst. 48 (2015) 3-10
)
 _exptl_absorpt_correction_type   multi-scan
 _exptl_absorpt_correction_T_max  0.7471
 _exptl_absorpt_correction_T_min  0.7127
 _exptl_special_details
)
 The following wavelength and cell were deduced by SADABS from the
 direction cosines etc. They are given here for emergency use only:
 CELL 0.71084    8.776    9.173    9.812  102.196   90.631  110.268
)
;
_shelx_hkl_checksum              36527
_shelx_res_file
;
    c0047_0m.res created by SHELXL-2014/7
TITL c0047_0m_a.res in P-1
REM Old TITL c0047_0m_a.res in P-1
REM SHELXT solution in P-1
REM R1 0.096, Rweak 0.005, Alpha 0.030, Orientation as input
REM Formula found by SHELXT: C17 O Si
CELL 0.71073 8.7737 9.1715 9.813 102.219 90.613 110.28
ZERR 2 0.0004 0.0004 0.0004 0.002 0.002 0.002
LATT 1
SFAC C H O Si
UNIT 34 36 2 2
EQIV $1 2-X,1-Y,1-Z
EQIV $2 +X,1+Y,+Z
L.S. 20
PLAN  2
SIZE 0.074 0.188 0.511
TEMP -173.15
CONF
HTAB C17 O1_$1
HTAB C15 O1_$2
BOND $H
list 4
MORE -1
fmap 2
acta
OMIT -3 68
OMIT 0 0 1
OMIT 1 0 0
OMIT 0 1 0
REM <olex2.extras>
REM <HklSrc "%.\\C0047_0m.hkl">
REM </olex2.extras>
WGHT    0.039100    0.295100
FVAR       1.51595
SI1   4    0.698544    0.375349    0.342971    11.00000    0.01095    0.01317 =
         0.01416    0.00181    0.00118    0.00328
O1    3    0.924169    0.222375    0.285398    11.00000    0.02024    0.01986 =
         0.03135    0.01027    0.00828    0.01132
C1    1    0.863665    0.328973    0.243558    11.00000    0.01121    0.01338 =
         0.01769    0.00197    0.00019    0.00398
C2    1    0.939452    0.388135    0.139243    11.00000    0.01557    0.02273 =
         0.01984    0.00544    0.00399    0.00837
C3    1    1.074239    0.324503    0.101082    11.00000    0.01756    0.03091 =
         0.02720    0.00506    0.00781    0.01037
H3A   2    1.181738    0.409864    0.124132    11.00000    0.03493
H3B   2    1.068050    0.281524    0.005219    11.00000    0.03717
C4    1    1.045740    0.200144    0.190816    11.00000    0.01937    0.02248 =
         0.03182    0.00193    0.00508    0.01158
H4A   2    1.003369    0.090655    0.132870    11.00000    0.03669
H4B   2    1.143461    0.212872    0.249763    11.00000    0.03363
C5    1    0.507110    0.194772    0.298396    11.00000    0.01145    0.01496 =
         0.01697    0.00359    0.00201    0.00418
C6    1    0.447469    0.117764    0.158863    11.00000    0.01435    0.01761 =
         0.01687    0.00151    0.00231    0.00440
H6    2    0.497636    0.161072    0.085724    11.00000    0.02099
C7    1    0.312737   -0.023891    0.125622    11.00000    0.01504    0.01858 =
         0.02167   -0.00136    0.00042    0.00439
H7    2    0.276082   -0.071582    0.029041    11.00000    0.02991
C8    1    0.234856   -0.091845    0.231868    11.00000    0.01582    0.01651 =
         0.03070    0.00356    0.00226    0.00300
H8    2    0.140651   -0.195353    0.208766    11.00000    0.02802
C9    1    0.289603   -0.016168    0.370536    11.00000    0.01979    0.02097 =
         0.02705    0.00877    0.00523    0.00189
H9    2    0.231665   -0.063307    0.449633    11.00000    0.03400
C10   1    0.424477    0.125712    0.403459    11.00000    0.01711    0.01974 =
         0.01920    0.00561    0.00246    0.00256
H10   2    0.459502    0.174138    0.500697    11.00000    0.02466
C11   1    0.680032    0.551984    0.287400    11.00000    0.01379    0.01491 =
         0.01776    0.00239    0.00378    0.00554
C12   1    0.546675    0.543713    0.202696    11.00000    0.01762    0.01852 =
         0.02144    0.00463    0.00166    0.00709
H12   2    0.458793    0.446644    0.168988    11.00000    0.02115
C13   1    0.537311    0.679913    0.166686    11.00000    0.02521    0.02493 =
         0.02486    0.00843    0.00201    0.01269
H13   2    0.446816    0.670169    0.110602    11.00000    0.02850
C14   1    0.662190    0.826260    0.213366    11.00000    0.03027    0.02063 =
         0.02651    0.01002    0.00830    0.01326
H14   2    0.656005    0.920275    0.190808    11.00000    0.02907
C15   1    0.797325    0.836984    0.295788    11.00000    0.02430    0.01589 =
         0.02923    0.00551    0.00699    0.00581
C16   1    0.805430    0.701452    0.332896    11.00000    0.01688    0.01686 =
         0.02650    0.00418    0.00192    0.00432
H16   2    0.902003    0.711211    0.392171    11.00000    0.02853
C17   1    0.761693    0.428548    0.533831    11.00000    0.02050    0.02374 =
         0.01606    0.00246    0.00011    0.00395
H17A  2    0.779085    0.341484    0.560702    11.00000    0.04226
H17B  2    0.678272    0.458920    0.584475    11.00000    0.04145
H15   2    0.885982    0.938092    0.329414    11.00000    0.02798
H17C  2    0.863462    0.523920    0.557392    11.00000    0.04453
H2    2    0.916125    0.467335    0.101446    11.00000    0.02790
HKLF 4
REM  c0047_0m_a.res in P-1
REM R1 =  0.0398 for    4937 Fo > 4sig(Fo)  and  0.0497 for all    5826 data
REM    244 parameters refined using      0 restraints
END
WGHT      0.0391      0.2951
REM Highest difference peak  0.484,  deepest hole -0.268,  1-sigma level  0.055
Q1    1   0.6223  0.5550  0.2479  11.00000  0.05    0.48
Q2    1   0.6844  0.4559  0.3099  11.00000  0.05    0.45
;
_shelx_res_checksum              70266
loop_
_space_group_symop_operation_xyz
'x, y, z'
'-x, -y, -z'
loop_
_atom_site_type_symbol
_atom_site_label
_atom_site_fract_x
_atom_site_fract_y
_atom_site_fract_z
_atom_site_U_iso_or_equiv
_atom_site_adp_type
_atom_site_calc_flag
_atom_site_occupancy
_atom_site_disorder_assembly
_atom_site_disorder_group
Si Si1 0.69854(3) 0.37535(3) 0.34297(3) 0.01325(7) Uani d 1 . .
O O1 0.92417(10) 0.22237(9) 0.28540(9) 0.02194(16) Uani d 1 . .
C C1 0.86366(11) 0.32897(11) 0.24356(10) 0.01447(16) Uani d 1 . .
C C2 0.93945(12) 0.38813(13) 0.13924(11) 0.01886(18) Uani d 1 . .
C C3 1.07424(14) 0.32450(15) 0.10108(13) 0.0250(2) Uani d 1 . .
H H3A 1.182(2) 0.410(2) 0.1241(18) 0.035(4) Uiso d 1 . .
H H3B 1.068(2) 0.282(2) 0.0052(19) 0.037(4) Uiso d 1 . .
C C4 1.04574(14) 0.20014(14) 0.19082(13) 0.0241(2) Uani d 1 . .
H H4A 1.003(2) 0.091(2) 0.1329(18) 0.037(4) Uiso d 1 . .
H H4B 1.143(2) 0.213(2) 0.2498(17) 0.034(4) Uiso d 1 . .
C C5 0.50711(11) 0.19477(11) 0.29840(10) 0.01461(16) Uani d 1 . .
C C6 0.44747(12) 0.11776(12) 0.15886(10) 0.01701(17) Uani d 1 . .
H H6 0.4976(18) 0.1611(17) 0.0857(15) 0.021(3) Uiso d 1 . .
C C7 0.31274(12) -0.02389(13) 0.12562(11) 0.01983(19) Uani d 1 . .
H H7 0.276(2) -0.0716(19) 0.0290(17) 0.030(4) Uiso d 1 . .
C C8 0.23486(13) -0.09184(13) 0.23187(13) 0.0221(2) Uani d 1 . .
H H8 0.1407(19) -0.1954(19) 0.2088(16) 0.028(4) Uiso d 1 . .
C C9 0.28960(13) -0.01617(13) 0.37054(12) 0.0235(2) Uani d 1 . .
H H9 0.232(2) -0.063(2) 0.4496(17) 0.034(4) Uiso d 1 . .
C C10 0.42448(12) 0.12571(13) 0.40346(11) 0.01958(18) Uani d 1 . .
H H10 0.4595(19) 0.1741(18) 0.5007(16) 0.025(4) Uiso d 1 . .
C C11 0.68003(11) 0.55198(11) 0.28740(10) 0.01557(16) Uani d 1 . .
C C12 0.54668(13) 0.54371(13) 0.20270(11) 0.01901(18) Uani d 1 . .
H H12 0.4588(18) 0.4466(18) 0.1690(15) 0.021(3) Uiso d 1 . .
C C13 0.53731(15) 0.67991(14) 0.16669(12) 0.0236(2) Uani d 1 . .
H H13 0.447(2) 0.6702(19) 0.1106(17) 0.029(4) Uiso d 1 . .
C C14 0.66219(15) 0.82626(14) 0.21337(12) 0.0239(2) Uani d 1 . .
H H14 0.6560(19) 0.9203(19) 0.1908(17) 0.029(4) Uiso d 1 . .
C C15 0.79733(14) 0.83698(13) 0.29579(13) 0.0234(2) Uani d 1 . .
C C16 0.80543(13) 0.70145(12) 0.33290(12) 0.02067(19) Uani d 1 . .
H H16 0.902(2) 0.7112(19) 0.3922(17) 0.029(4) Uiso d 1 . .
C C17 0.76169(14) 0.42855(14) 0.53383(11) 0.02152(19) Uani d 1 . .
H H17A 0.779(2) 0.341(2) 0.5607(19) 0.042(5) Uiso d 1 . .
H H17B 0.678(2) 0.459(2) 0.5845(19) 0.041(5) Uiso d 1 . .
H H15 0.886(2) 0.9381(19) 0.3294(16) 0.028(4) Uiso d 1 . .
H H17C 0.863(2) 0.524(2) 0.5574(19) 0.045(5) Uiso d 1 . .
H H2 0.9161(19) 0.4673(19) 0.1014(16) 0.028(4) Uiso d 1 . .
loop_
_atom_site_aniso_label
_atom_site_aniso_U_11
_atom_site_aniso_U_22
_atom_site_aniso_U_33
_atom_site_aniso_U_12
_atom_site_aniso_U_13
_atom_site_aniso_U_23
Si1 0.01095(11) 0.01317(12) 0.01416(12) 0.00328(9) 0.00118(8) 0.00181(9)
O1 0.0202(3) 0.0199(3) 0.0313(4) 0.0113(3) 0.0083(3) 0.0103(3)
C1 0.0112(3) 0.0134(4) 0.0177(4) 0.0040(3) 0.0002(3) 0.0020(3)
C2 0.0156(4) 0.0227(5) 0.0198(4) 0.0084(3) 0.0040(3) 0.0054(4)
C3 0.0176(4) 0.0309(6) 0.0272(5) 0.0104(4) 0.0078(4) 0.0051(4)
C4 0.0194(4) 0.0225(5) 0.0318(6) 0.0116(4) 0.0051(4) 0.0019(4)
C5 0.0114(3) 0.0150(4) 0.0170(4) 0.0042(3) 0.0020(3) 0.0036(3)
C6 0.0144(4) 0.0176(4) 0.0169(4) 0.0044(3) 0.0023(3) 0.0015(3)
C7 0.0150(4) 0.0186(4) 0.0217(4) 0.0044(3) 0.0004(3) -0.0014(3)
C8 0.0158(4) 0.0165(4) 0.0307(5) 0.0030(3) 0.0023(4) 0.0036(4)
C9 0.0198(4) 0.0210(5) 0.0270(5) 0.0019(4) 0.0052(4) 0.0088(4)
C10 0.0171(4) 0.0197(4) 0.0192(4) 0.0026(3) 0.0025(3) 0.0056(4)
C11 0.0138(4) 0.0149(4) 0.0178(4) 0.0055(3) 0.0038(3) 0.0024(3)
C12 0.0176(4) 0.0185(4) 0.0214(4) 0.0071(3) 0.0017(3) 0.0046(3)
C13 0.0252(5) 0.0249(5) 0.0249(5) 0.0127(4) 0.0020(4) 0.0084(4)
C14 0.0303(5) 0.0206(5) 0.0265(5) 0.0133(4) 0.0083(4) 0.0100(4)
C15 0.0243(5) 0.0159(4) 0.0292(5) 0.0058(4) 0.0070(4) 0.0055(4)
C16 0.0169(4) 0.0169(4) 0.0265(5) 0.0043(3) 0.0019(4) 0.0042(4)
C17 0.0205(4) 0.0237(5) 0.0161(4) 0.0040(4) 0.0001(3) 0.0025(4)
loop_
_atom_type_symbol
_atom_type_description
_atom_type_scat_dispersion_real
_atom_type_scat_dispersion_imag
_atom_type_scat_source
C C 0.0033 0.0016 'International Tables Vol C Tables 4.2.6.8 and 6.1.1.4'
H H 0.0000 0.0000 'International Tables Vol C Tables 4.2.6.8 and 6.1.1.4'
O O 0.0106 0.0060 'International Tables Vol C Tables 4.2.6.8 and 6.1.1.4'
Si Si 0.0817 0.0704 'International Tables Vol C Tables 4.2.6.8 and 6.1.1.4'
loop_
_geom_angle_atom_site_label_1
_geom_angle_atom_site_label_2
_geom_angle_atom_site_label_3
_geom_angle_site_symmetry_1
_geom_angle_site_symmetry_3
_geom_angle
_geom_angle_publ_flag
C5 Si1 C1 . . 108.44(4) ?
C11 Si1 C1 . . 105.50(4) ?
C11 Si1 C5 . . 113.08(4) ?
C17 Si1 C1 . . 109.26(5) ?
C17 Si1 C5 . . 110.48(5) ?
C17 Si1 C11 . . 109.89(5) ?
C1 O1 C4 . . 107.48(8) ?
O1 C1 Si1 . . 117.13(7) ?
C2 C1 Si1 . . 129.71(8) ?
C2 C1 O1 . . 113.10(9) ?
C1 C2 C3 . . 110.25(9) ?
C1 C2 H2 . . 123.6(9) ?
C3 C2 H2 . . 126.0(9) ?
C2 C3 H3A . . 111.2(10) ?
C2 C3 H3B . . 112.3(11) ?
C2 C3 C4 . . 101.51(9) ?
H3A C3 H3B . . 105.5(14) ?
C4 C3 H3A . . 112.9(10) ?
C4 C3 H3B . . 113.7(11) ?
O1 C4 C3 . . 106.70(8) ?
O1 C4 H4A . . 108.8(10) ?
O1 C4 H4B . . 107.0(10) ?
C3 C4 H4A . . 111.5(10) ?
C3 C4 H4B . . 114.2(10) ?
H4A C4 H4B . . 108.4(14) ?
C6 C5 Si1 . . 121.29(7) ?
C10 C5 Si1 . . 120.94(7) ?
C10 C5 C6 . . 117.64(9) ?
C5 C6 H6 . . 120.3(9) ?
C7 C6 C5 . . 121.26(9) ?
C7 C6 H6 . . 118.4(9) ?
C6 C7 H7 . . 118.2(10) ?
C8 C7 C6 . . 119.98(10) ?
C8 C7 H7 . . 121.8(10) ?
C7 C8 H8 . . 120.4(9) ?
C9 C8 C7 . . 119.76(10) ?
C9 C8 H8 . . 119.8(9) ?
C8 C9 H9 . . 120.5(9) ?
C8 C9 C10 . . 120.10(10) ?
C10 C9 H9 . . 119.4(9) ?
C5 C10 H10 . . 121.0(9) ?
C9 C10 C5 . . 121.24(10) ?
C9 C10 H10 . . 117.7(9) ?
C12 C11 Si1 . . 123.40(7) ?
C12 C11 C16 . . 117.71(9) ?
C16 C11 Si1 . . 118.89(8) ?
C11 C12 H12 . . 121.5(9) ?
C13 C12 C11 . . 121.09(10) ?
C13 C12 H12 . . 117.4(9) ?
C12 C13 H13 . . 118.8(10) ?
C14 C13 C12 . . 120.16(10) ?
C14 C13 H13 . . 121.0(10) ?
C13 C14 H14 . . 120.8(10) ?
C13 C14 C15 . . 119.80(10) ?
C15 C14 H14 . . 119.4(10) ?
C14 C15 C16 . . 119.92(10) ?
C14 C15 H15 . . 121.1(9) ?
C16 C15 H15 . . 119.0(9) ?
C11 C16 H16 . . 119.7(9) ?
C15 C16 C11 . . 121.32(10) ?
C15 C16 H16 . . 118.9(9) ?
Si1 C17 H17A . . 109.9(11) ?
Si1 C17 H17B . . 108.7(11) ?
Si1 C17 H17C . . 110.5(11) ?
H17A C17 H17B . . 112.2(15) ?
H17A C17 H17C . . 109.4(15) ?
H17B C17 H17C . . 106.1(15) ?
loop_
_geom_bond_atom_site_label_1
_geom_bond_atom_site_label_2
_geom_bond_site_symmetry_2
_geom_bond_distance
_geom_bond_publ_flag
Si1 C1 . 1.8743(10) ?
Si1 C5 . 1.8720(9) ?
Si1 C11 . 1.8715(10) ?
Si1 C17 . 1.8591(11) ?
O1 C1 . 1.3897(12) ?
O1 C4 . 1.4603(13) ?
C1 C2 . 1.3356(14) ?
C2 C3 . 1.5082(15) ?
C2 H2 . 0.961(16) ?
C3 H3A . 0.981(17) ?
C3 H3B . 0.933(18) ?
C3 C4 . 1.5398(18) ?
C4 H4A . 0.982(17) ?
C4 H4B . 0.987(17) ?
C5 C6 . 1.4023(14) ?
C5 C10 . 1.4014(13) ?
C6 H6 . 0.934(15) ?
C6 C7 . 1.3926(14) ?
C7 H7 . 0.956(16) ?
C7 C8 . 1.3919(16) ?
C8 H8 . 0.998(16) ?
C8 C9 . 1.3854(17) ?
C9 H9 . 1.023(16) ?
C9 C10 . 1.3944(15) ?
C10 H10 . 0.960(15) ?
C11 C12 . 1.3988(14) ?
C11 C16 . 1.4050(14) ?
C12 H12 . 0.944(15) ?
C12 C13 . 1.3962(15) ?
C13 H13 . 0.928(16) ?
C13 C14 . 1.3861(17) ?
C14 H14 . 0.953(16) ?
C14 C15 . 1.3909(17) ?
C15 C16 . 1.3911(15) ?
C15 H15 . 0.969(16) ?
C16 H16 . 0.990(16) ?
C17 H17A . 0.950(18) ?
C17 H17B . 0.975(19) ?
C17 H17C . 0.992(19) ?
loop_
_geom_hbond_atom_site_label_D
_geom_hbond_atom_site_label_H
_geom_hbond_atom_site_label_A
_geom_hbond_site_symmetry_A
_geom_hbond_distance_DH
_geom_hbond_distance_HA
_geom_hbond_distance_DA
_geom_hbond_angle_DHA
C15 H15 O1 1_565 0.969(16) 2.640(16) 3.3422(13) 129.6(12)
C17 H17C O1 2_766 0.992(19) 2.584(19) 3.5168(14) 156.5(15)
loop_
_geom_torsion_atom_site_label_1
_geom_torsion_atom_site_label_2
_geom_torsion_atom_site_label_3
_geom_torsion_atom_site_label_4
_geom_torsion_site_symmetry_1
_geom_torsion_site_symmetry_2
_geom_torsion_site_symmetry_3
_geom_torsion_site_symmetry_4
_geom_torsion
_geom_torsion_publ_flag
Si1 C1 C2 C3 . . . . 175.12(8) ?
Si1 C5 C6 C7 . . . . 174.69(8) ?
Si1 C5 C10 C9 . . . . -174.66(9) ?
Si1 C11 C12 C13 . . . . 178.63(8) ?
Si1 C11 C16 C15 . . . . -179.42(8) ?
O1 C1 C2 C3 . . . . -2.00(12) ?
C1 Si1 C5 C6 . . . . -51.23(9) ?
C1 Si1 C5 C10 . . . . 124.48(8) ?
C1 Si1 C11 C12 . . . . 109.11(9) ?
C1 Si1 C11 C16 . . . . -71.17(9) ?
C1 O1 C4 C3 . . . . 8.95(11) ?
C1 C2 C3 C4 . . . . 7.17(12) ?
C2 C3 C4 O1 . . . . -9.52(11) ?
C4 O1 C1 Si1 . . . . 177.92(7) ?
C4 O1 C1 C2 . . . . -4.57(12) ?
C5 Si1 C1 O1 . . . . -70.80(8) ?
C5 Si1 C1 C2 . . . . 112.17(10) ?
C5 Si1 C11 C12 . . . . -9.26(10) ?
C5 Si1 C11 C16 . . . . 170.46(8) ?
C5 C6 C7 C8 . . . . -0.15(16) ?
C6 C5 C10 C9 . . . . 1.20(15) ?
C6 C7 C8 C9 . . . . 1.46(16) ?
C7 C8 C9 C10 . . . . -1.42(17) ?
C8 C9 C10 C5 . . . . 0.07(17) ?
C10 C5 C6 C7 . . . . -1.15(15) ?
C11 Si1 C1 O1 . . . . 167.77(7) ?
C11 Si1 C1 C2 . . . . -9.26(11) ?
C11 Si1 C5 C6 . . . . 65.41(9) ?
C11 Si1 C5 C10 . . . . -118.88(9) ?
C11 C12 C13 C14 . . . . 0.82(17) ?
C12 C11 C16 C15 . . . . 0.31(15) ?
C12 C13 C14 C15 . . . . 0.27(17) ?
C13 C14 C15 C16 . . . . -1.03(17) ?
C14 C15 C16 C11 . . . . 0.74(17) ?
C16 C11 C12 C13 . . . . -1.09(15) ?
C17 Si1 C1 O1 . . . . 49.68(8) ?
C17 Si1 C1 C2 . . . . -127.35(10) ?
C17 Si1 C5 C6 . . . . -170.95(8) ?
C17 Si1 C5 C10 . . . . 4.76(10) ?
C17 Si1 C11 C12 . . . . -133.23(9) ?
C17 Si1 C11 C16 . . . . 46.49(9) ?

_cod_database_fobs_code 2243948
