#------------------------------------------------------------------------------
#$Date: 2020-11-28 07:19:17 +0200 (Sat, 28 Nov 2020) $
#$Revision: 259272 $
#$URL: file:///home/coder/svn-repositories/cod/cif/2/24/36/2243687.cif $
#------------------------------------------------------------------------------
#
# This file is available in the Crystallography Open Database (COD),
# http://www.crystallography.net/. The original data for this entry
# were provided by IUCr Journals, http://journals.iucr.org/.
#
# The file may be used within the scientific community so long as
# proper attribution is given to the journal article from which the
# data were obtained.
#
data_2243687
loop_
_publ_author_name
'Chong, Saehwa'
'Perry, Samuel'
'Riley, Brian J.'
'Nelson, Zayne J.'
_publ_section_title
;
 Crystal structures and comparisons of potassium rare-earth molybdates
 K<i>RE</i>(MoO~4~)~2~ (<i>RE</i> = Tb, Dy, Ho, Er, Yb, and Lu)
;
_journal_coeditor_code           RU2071
_journal_issue                   12
_journal_name_full               'Acta Crystallographica Section E'
_journal_page_first              1871
_journal_page_last               1875
_journal_paper_doi               10.1107/S205698902001542X
_journal_volume                  76
_journal_year                    2020
_chemical_formula_iupac          'K Dy (Mo O4)2'
_chemical_formula_moiety         'K Dy Mo2 O8'
_chemical_formula_sum            'Dy K Mo2 O8'
_chemical_formula_weight         521.48
_chemical_name_systematic
;
Potassium dysprosium bis(molybdate)
;
_space_group_IT_number           60
_space_group_name_Hall           '-P 2n 2ab'
_space_group_name_H-M_alt        'P b c n'
_symmetry_cell_setting           orthorhombic
_symmetry_space_group_name_Hall  '-P 2n 2ab'
_symmetry_space_group_name_H-M   'P b c n'
_atom_sites_solution_primary     dual
_cell_angle_alpha                90
_cell_angle_beta                 90
_cell_angle_gamma                90
_cell_formula_units_Z            4
_cell_length_a                   5.0776(2)
_cell_length_b                   18.1214(7)
_cell_length_c                   7.9428(3)
_cell_measurement_reflns_used    5121
_cell_measurement_temperature    100
_cell_measurement_theta_max      33.2820
_cell_measurement_theta_min      2.2630
_cell_volume                     730.84(5)
_computing_cell_refinement
;
CrysAlis Pro (Rigaku OD, 2019)
;
_computing_data_collection
;
CrysAlis Pro (Rigaku OD, 2019)
;
_computing_data_reduction
;
CrysAlis Pro (Rigaku OD, 2019)
;
_computing_molecular_graphics
;
<i>OLEX2</i> (Dolomanov <i>et al.</i>,  2009)
;
_computing_publication_material
;
publCIF (Westrip, 2010)
;
_computing_structure_refinement
;
SHELXL (Sheldrick, 2015b)
;
_computing_structure_solution
;
SHELXT (Sheldrick, 2015a)
;
_diffrn_ambient_temperature      100
_diffrn_detector_area_resol_mean 10.0000
_diffrn_measured_fraction_theta_full 1.000
_diffrn_measured_fraction_theta_max 0.933
_diffrn_measurement_device_type  'Rigaku XtaLAB Synergy-S, HyPix'
_diffrn_measurement_method       '\w scans'
_diffrn_radiation_monochromator  mirror
_diffrn_radiation_source         'micro-focus sealed X-ray tube'
_diffrn_radiation_type           'Mo K\a'
_diffrn_radiation_wavelength     0.71073
_diffrn_reflns_av_R_equivalents  0.0746
_diffrn_reflns_av_unetI/netI     0.0362
_diffrn_reflns_limit_h_max       7
_diffrn_reflns_limit_h_min       -7
_diffrn_reflns_limit_k_max       27
_diffrn_reflns_limit_k_min       -27
_diffrn_reflns_limit_l_max       11
_diffrn_reflns_limit_l_min       -11
_diffrn_reflns_number            17317
_diffrn_reflns_theta_full        25.242
_diffrn_reflns_theta_max         33.960
_diffrn_reflns_theta_min         2.248
_exptl_absorpt_coefficient_mu    14.071
_exptl_absorpt_correction_T_max  0.695
_exptl_absorpt_correction_T_min  0.247
_exptl_absorpt_correction_type   gaussian
_exptl_absorpt_process_details
;
(CrysAlisPro; Rigaku OD, 2019)
;
_exptl_crystal_colour            'light yellow'
_exptl_crystal_density_diffrn    4.739
_exptl_crystal_description       plate
_exptl_crystal_F_000             932
_exptl_crystal_size_max          0.107
_exptl_crystal_size_mid          0.106
_exptl_crystal_size_min          0.032
_refine_diff_density_max         2.379
_refine_diff_density_min         -2.654
_refine_ls_extinction_method     none
_refine_ls_goodness_of_fit_all   1.096
_refine_ls_goodness_of_fit_ref   1.096
_refine_ls_hydrogen_treatment    undef
_refine_ls_matrix_type           full
_refine_ls_number_constraints    0
_refine_ls_number_parameters     56
_refine_ls_number_reflns         1388
_refine_ls_number_restraints     0
_refine_ls_R_factor_all          0.0395
_refine_ls_R_factor_gt           0.0325
_refine_ls_shift/su_max          0.001
_refine_ls_shift/su_mean         0.000
_refine_ls_structure_factor_coef Fsqd
_refine_ls_weighting_details
'w=1/[\s^2^(Fo^2^)+(0.0343P)^2^+8.5380P] where P=(Fo^2^+2Fc^2^)/3'
_refine_ls_weighting_scheme      calc
_refine_ls_wR_factor_gt          0.0849
_refine_ls_wR_factor_ref         0.0882
_reflns_number_gt                1196
_reflns_number_total             1388
_reflns_threshold_expression     'I > 2\s(I)'
_iucr_refine_instructions_details
;
TITL kdymo2o8_a.res in Pbcn
 kdymo2o8.res created by SHELXL-2016/4 at 13:44:15 on 22-Sep-2020
REM Old TITL KDyMo2O8 in Pbcn
REM SHELXT solution in Pbcn
REM R1 0.059, Rweak 0.000, Alpha 0.074, Orientation a'=-a, b'=c, c'=b
REM Formula found by SHELXT: O8 K Mo2 Dy
CELL 0.71073 5.0776 18.1214 7.9428 90 90 90
ZERR 4 0.0002 0.0007 0.0003 0 0 0
LATT 1
SYMM 0.5-X,0.5-Y,0.5+Z
SYMM -X,+Y,0.5-Z
SYMM 0.5+X,0.5-Y,-Z
SFAC Dy K Mo O
UNIT 4 4 8 32
L.S. 10
PLAN  20
list 4
fmap 2 53
acta
REM <olex2.extras>
REM <HklSrc "%.\\KDyMo2O8.hkl">
REM </olex2.extras>
WGHT    0.034300    8.538000
FVAR       0.19485
Dy1   1    0.000000    0.494083    0.250000    10.50000    0.00510    0.01210 =
         0.00526    0.00000   -0.00001    0.00000
Mo1   3    0.480367    0.602385    0.483467    11.00000    0.00512    0.01147 =
         0.00648   -0.00023   -0.00022    0.00032
K1    2    0.500000    0.770759    0.750000    10.50000    0.01250    0.01474 =
         0.00825    0.00000   -0.00058    0.00000
O4    4    0.610144    0.689986    0.476952    11.00000    0.00982    0.01543 =
         0.01090   -0.00035    0.00063   -0.00201
O2    4    0.748943    0.534491    0.504941    11.00000    0.00658    0.01610 =
         0.00719   -0.00149   -0.00092    0.00183
O1    4    0.258817    0.594485    0.308328    11.00000    0.00811    0.01776 =
         0.00741    0.00013   -0.00101   -0.00126
O3    4    0.270937    0.601723    0.661033    11.00000    0.00730    0.01712 =
         0.00816    0.00058    0.00078   -0.00027
HKLF 4
REM  kdymo2o8_a.res in Pbcn
REM R1 =  0.0325 for    1196 Fo > 4sig(Fo)  and  0.0395 for all    1388 data
REM     56 parameters refined using      0 restraints
END
WGHT      0.0342      8.5380
REM Highest difference peak  2.379,  deepest hole -2.654,  1-sigma level  0.394
Q1    1   0.0000  0.4605  0.2500  10.50000  0.05    2.38
Q2    1   0.4427  0.6396  0.4786  11.00000  0.05    1.76
Q3    1   0.4446  0.5632  0.4782  11.00000  0.05    1.73
Q4    1   0.0000  0.5343  0.2500  10.50000  0.05    1.62
Q5    1   0.2884  0.6012  0.8215  11.00000  0.05    1.27
Q6    1   0.6084  0.6601  0.5600  11.00000  0.05    1.18
Q7    1   0.7709  0.5801  0.5134  11.00000  0.05    1.12
Q8    1  -0.0109  0.5435  0.3924  11.00000  0.05    1.12
Q9    1   0.5191  0.6433  0.5856  11.00000  0.05    1.06
Q10   1   0.7769  0.7026  0.4212  11.00000  0.05    1.06
Q11   1   0.7148  0.7010  0.5451  11.00000  0.05    1.05
Q12   1   0.5975  0.7184  0.5930  11.00000  0.05    1.01
Q13   1   0.0037  0.6394  0.3988  11.00000  0.05    0.98
Q14   1   0.4970  0.7823  0.4130  11.00000  0.05    0.95
Q15   1   1.0141  0.5639  0.5846  11.00000  0.05    0.94
Q16   1   0.5000  0.7396  0.7500  10.50000  0.05    0.93
Q17   1   0.4106  0.7163  0.5907  11.00000  0.05    0.92
Q18   1   0.0020  0.5828  0.3077  11.00000  0.05    0.91
Q19   1   0.5229  0.6793  0.6845  11.00000  0.05    0.91
Q20   1   0.3748  0.7430  0.8019  11.00000  0.05    0.90
  REM The information below was added by Olex2.
  REM
  REM R1 = 0.0325 for 1196 Fo > 4sig(Fo) and 0.0395 for all 19252 data
  REM n/a parameters refined using n/a restraints
  REM Highest difference peak 2.38, deepest hole -2.65
  REM Mean Shift 0, Max Shift -0.001.
  REM +++ Tabular Listing of Refinement Information +++
  REM R1_all = 0.0395
  REM R1_gt = 0.0325
  REM wR_ref = 0.0882
  REM GOOF = 1.096
  REM Shift_max = -0.001
  REM Shift_mean = 0
  REM Reflections_all = 19252
  REM Reflections_gt = 1196
  REM Parameters = n/a
  REM Hole = -2.65
  REM Peak = 2.38
  REM Flack = n/a
;
_cod_data_source_file            ru2071sup1.cif
_cod_data_source_block           Dy_Molybdate
_cod_original_formula_sum        'K Dy Mo2 O8'
_cod_database_code               2243687
_shelx_res_checksum              66742
loop_
_space_group_symop_operation_xyz
'x, y, z'
'-x+1/2, -y+1/2, z+1/2'
'-x, y, -z+1/2'
'x+1/2, -y+1/2, -z'
'-x, -y, -z'
'x-1/2, y-1/2, -z-1/2'
'x, -y, z-1/2'
'-x-1/2, y-1/2, z'
loop_
_atom_site_type_symbol
_atom_site_label
_atom_site_fract_x
_atom_site_fract_y
_atom_site_fract_z
_atom_site_U_iso_or_equiv
_atom_site_adp_type
_atom_site_calc_flag
_atom_site_occupancy
_atom_site_disorder_assembly
_atom_site_disorder_group
Dy Dy1 0.000000 0.49408(2) 0.250000 0.00749(11) Uani d 1 . .
Mo Mo1 0.48037(7) 0.60238(2) 0.48347(5) 0.00769(11) Uani d 1 . .
K K1 0.500000 0.77076(9) 0.750000 0.0118(3) Uani d 1 . .
O O4 0.6101(7) 0.6900(2) 0.4770(4) 0.0121(6) Uani d 1 . .
O O2 0.7489(7) 0.53449(19) 0.5049(4) 0.0100(6) Uani d 1 . .
O O1 0.2588(6) 0.59449(19) 0.3083(4) 0.0111(6) Uani d 1 . .
O O3 0.2709(6) 0.60172(19) 0.6610(4) 0.0109(6) Uani d 1 . .
loop_
_atom_site_aniso_label
_atom_site_aniso_U_11
_atom_site_aniso_U_22
_atom_site_aniso_U_33
_atom_site_aniso_U_12
_atom_site_aniso_U_13
_atom_site_aniso_U_23
Dy1 0.00510(15) 0.01210(17) 0.00526(16) 0.000 -0.00001(8) 0.000
Mo1 0.00512(18) 0.0115(2) 0.00648(18) 0.00032(12) -0.00022(10) -0.00023(12)
K1 0.0125(6) 0.0147(6) 0.0083(6) 0.000 -0.0006(4) 0.000
O4 0.0098(15) 0.0154(16) 0.0109(15) -0.0020(12) 0.0006(11) -0.0004(12)
O2 0.0066(13) 0.0161(16) 0.0072(14) 0.0018(11) -0.0009(11) -0.0015(11)
O1 0.0081(13) 0.0178(16) 0.0074(14) -0.0013(12) -0.0010(11) 0.0001(12)
O3 0.0073(13) 0.0171(16) 0.0082(14) -0.0003(12) 0.0008(11) 0.0006(11)
loop_
_atom_type_symbol
_atom_type_description
_atom_type_scat_dispersion_real
_atom_type_scat_dispersion_imag
_atom_type_scat_source
O O 0.0106 0.0060 'International Tables Vol C Tables 4.2.6.8 and 6.1.1.4'
K K 0.2009 0.2494 'International Tables Vol C Tables 4.2.6.8 and 6.1.1.4'
Mo Mo -1.6832 0.6857 'International Tables Vol C Tables 4.2.6.8 and 6.1.1.4'
Dy Dy -0.1892 4.4098 'International Tables Vol C Tables 4.2.6.8 and 6.1.1.4'
loop_
_diffrn_standard_refln_index_h
_diffrn_standard_refln_index_k
_diffrn_standard_refln_index_l
? ? ?
loop_
_geom_angle_atom_site_label_1
_geom_angle_atom_site_label_2
_geom_angle_atom_site_label_3
_geom_angle_site_symmetry_1
_geom_angle_site_symmetry_3
_geom_angle
_geom_angle_publ_flag
Dy1 Dy1 Dy1 5_566 5_565 173.818(18) ?
Dy1 Dy1 K1 5_566 2_564 86.909(9) ?
Dy1 Dy1 K1 5_565 2_564 86.909(9) ?
O2 Dy1 Dy1 5_666 5_565 145.80(8) ?
O2 Dy1 Dy1 7_465 5_565 36.52(8) ?
O2 Dy1 Dy1 3_655 5_565 34.53(8) ?
O2 Dy1 Dy1 1_455 5_565 142.40(8) ?
O2 Dy1 Dy1 5_666 5_566 36.52(8) ?
O2 Dy1 Dy1 7_465 5_566 145.80(8) ?
O2 Dy1 Dy1 3_655 5_566 142.40(8) ?
O2 Dy1 Dy1 1_455 5_566 34.53(8) ?
O2 Dy1 K1 3_655 2_564 72.98(8) ?
O2 Dy1 K1 1_455 2_564 72.98(8) ?
O2 Dy1 K1 7_465 2_564 102.55(8) ?
O2 Dy1 K1 5_666 2_564 102.55(8) ?
O2 Dy1 O2 1_455 3_655 145.97(16) ?
O2 Dy1 O2 5_666 3_655 116.87(14) ?
O2 Dy1 O2 5_666 1_455 71.05(13) ?
O2 Dy1 O2 7_465 3_655 71.05(13) ?
O2 Dy1 O2 7_465 1_455 116.87(14) ?
O2 Dy1 O2 7_465 5_666 154.91(17) ?
O1 Dy1 Dy1 3 5_565 75.84(8) ?
O1 Dy1 Dy1 . 5_565 99.15(8) ?
O1 Dy1 Dy1 3 5_566 99.15(8) ?
O1 Dy1 Dy1 . 5_566 75.84(8) ?
O1 Dy1 K1 . 2_564 37.45(8) ?
O1 Dy1 K1 3 2_564 37.45(8) ?
O1 Dy1 O2 . 5_666 72.59(12) ?
O1 Dy1 O2 3 3_655 84.04(12) ?
O1 Dy1 O2 . 1_455 84.04(12) ?
O1 Dy1 O2 . 3_655 68.85(11) ?
O1 Dy1 O2 3 5_666 130.11(12) ?
O1 Dy1 O2 3 1_455 68.85(11) ?
O1 Dy1 O2 . 7_465 130.11(12) ?
O1 Dy1 O2 3 7_465 72.59(12) ?
O1 Dy1 O1 3 . 74.89(17) ?
O1 Dy1 O3 . 7_565 108.36(12) ?
O1 Dy1 O3 . 5_566 150.54(12) ?
O1 Dy1 O3 3 7_565 150.54(12) ?
O1 Dy1 O3 3 5_566 108.36(12) ?
O3 Dy1 Dy1 7_565 5_565 74.74(8) ?
O3 Dy1 Dy1 7_565 5_566 110.11(8) ?
O3 Dy1 Dy1 5_566 5_566 74.74(8) ?
O3 Dy1 Dy1 5_566 5_565 110.11(8) ?
O3 Dy1 K1 5_566 2_564 138.31(8) ?
O3 Dy1 K1 7_565 2_564 138.31(8) ?
O3 Dy1 O2 7_565 1_455 139.98(11) ?
O3 Dy1 O2 7_565 5_666 76.68(11) ?
O3 Dy1 O2 5_566 1_455 70.80(12) ?
O3 Dy1 O2 5_566 7_465 76.68(11) ?
O3 Dy1 O2 7_565 7_465 84.61(12) ?
O3 Dy1 O2 7_565 3_655 70.80(12) ?
O3 Dy1 O2 5_566 5_666 84.61(12) ?
O3 Dy1 O2 5_566 3_655 139.98(11) ?
O3 Dy1 O3 5_566 7_565 83.39(16) ?
K1 Mo1 K1 . 2_564 78.467(11) ?
K1 Mo1 K1 . 2_664 76.833(11) ?
K1 Mo1 K1 2_564 2_664 81.33(3) ?
O4 Mo1 K1 . 2_664 36.37(12) ?
O4 Mo1 K1 . . 41.29(11) ?
O4 Mo1 K1 . 2_564 71.06(12) ?
O4 Mo1 O2 . . 109.59(16) ?
O4 Mo1 O1 . . 106.89(16) ?
O4 Mo1 O3 . . 105.13(16) ?
O2 Mo1 K1 . 2_664 86.44(11) ?
O2 Mo1 K1 . 2_564 156.32(9) ?
O2 Mo1 K1 . . 118.38(10) ?
O1 Mo1 K1 . 2_564 43.41(11) ?
O1 Mo1 K1 . . 121.60(11) ?
O1 Mo1 K1 . 2_664 95.79(11) ?
O1 Mo1 O2 . . 118.81(15) ?
O3 Mo1 K1 . 2_564 90.42(11) ?
O3 Mo1 K1 . 2_664 141.16(11) ?
O3 Mo1 K1 . . 64.32(11) ?
O3 Mo1 O2 . . 111.51(15) ?
O3 Mo1 O1 . . 103.94(16) ?
Mo1 K1 Mo1 . 4_566 103.540(12) ?
Mo1 K1 Mo1 . 3_656 69.57(3) ?
Mo1 K1 Mo1 . 2_565 138.737(15) ?
Mo1 K1 Mo1 3_656 4_566 138.737(15) ?
Mo1 K1 Mo1 4_566 2_565 106.24(4) ?
Mo1 K1 Mo1 3_656 2_565 103.540(12) ?
O4 K1 Mo1 2_665 3_656 79.68(8) ?
O4 K1 Mo1 . 3_656 90.40(9) ?
O4 K1 Mo1 4_466 2_565 72.90(7) ?
O4 K1 Mo1 3_656 . 90.40(9) ?
O4 K1 Mo1 3_656 2_565 78.63(8) ?
O4 K1 Mo1 2_665 . 126.93(8) ?
O4 K1 Mo1 4_466 . 79.68(8) ?
O4 K1 Mo1 . 4_566 78.63(8) ?
O4 K1 Mo1 . 2_565 148.63(8) ?
O4 K1 Mo1 3_656 4_566 148.63(8) ?
O4 K1 Mo1 2_665 2_565 89.19(8) ?
O4 K1 Mo1 2_665 4_566 72.90(7) ?
O4 K1 Mo1 . . 25.09(8) ?
O4 K1 Mo1 4_466 4_566 89.19(8) ?
O4 K1 Mo1 3_656 3_656 25.09(8) ?
O4 K1 Mo1 4_466 3_656 126.93(8) ?
O4 K1 O4 3_656 2_665 76.26(9) ?
O4 K1 O4 . 2_665 121.24(5) ?
O4 K1 O4 2_665 4_466 150.24(16) ?
O4 K1 O4 . 4_466 76.25(8) ?
O4 K1 O4 3_656 4_466 121.24(5) ?
O4 K1 O4 . 3_656 113.67(16) ?
O4 K1 O1 3_656 2_565 104.12(10) ?
O4 K1 O1 . 2_565 134.94(11) ?
O4 K1 O1 . 4_566 104.12(10) ?
O4 K1 O1 4_466 4_566 90.21(11) ?
O4 K1 O1 4_466 2_565 63.27(10) ?
O4 K1 O1 3_656 4_566 134.94(11) ?
O4 K1 O1 2_665 4_566 63.27(10) ?
O4 K1 O1 2_665 2_565 90.21(11) ?
O4 K1 O3 2_665 3_656 81.35(10) ?
O4 K1 O3 2_665 . 128.30(10) ?
O4 K1 O3 3_656 3_656 53.25(10) ?
O4 K1 O3 4_466 3_656 128.30(10) ?
O4 K1 O3 4_466 . 81.35(10) ?
O4 K1 O3 . . 53.25(10) ?
O4 K1 O3 . 3_656 66.32(10) ?
O4 K1 O3 3_656 . 66.32(10) ?
O1 K1 Mo1 4_566 . 129.20(7) ?
O1 K1 Mo1 4_566 2_565 81.73(8) ?
O1 K1 Mo1 2_565 3_656 129.20(7) ?
O1 K1 Mo1 2_565 . 142.63(7) ?
O1 K1 Mo1 4_566 3_656 142.63(7) ?
O1 K1 Mo1 4_566 4_566 26.02(7) ?
O1 K1 Mo1 2_565 4_566 81.73(8) ?
O1 K1 Mo1 2_565 2_565 26.02(7) ?
O1 K1 O1 4_566 2_565 59.42(14) ?
O1 K1 O3 4_566 . 157.10(9) ?
O1 K1 O3 2_565 3_656 157.10(9) ?
O1 K1 O3 2_565 . 131.78(9) ?
O1 K1 O3 4_566 3_656 131.78(9) ?
O3 K1 Mo1 3_656 4_566 115.44(6) ?
O3 K1 Mo1 3_656 . 51.60(6) ?
O3 K1 Mo1 . 2_565 115.44(6) ?
O3 K1 Mo1 . 4_566 131.86(6) ?
O3 K1 Mo1 . . 28.36(6) ?
O3 K1 Mo1 3_656 2_565 131.86(6) ?
O3 K1 Mo1 . 3_656 51.60(6) ?
O3 K1 Mo1 3_656 3_656 28.36(6) ?
O3 K1 O3 3_656 . 47.91(11) ?
Mo1 O4 K1 . 2_664 122.04(17) ?
Mo1 O4 K1 . . 113.61(16) ?
K1 O4 K1 . 2_664 122.44(13) ?
Dy1 O2 Dy1 5_666 1_655 108.95(13) ?
Mo1 O2 Dy1 . 1_655 119.80(14) ?
Mo1 O2 Dy1 . 5_666 128.01(15) ?
Dy1 O1 K1 . 2_564 112.84(12) ?
Mo1 O1 Dy1 . . 125.41(17) ?
Mo1 O1 K1 . 2_564 110.57(15) ?
Dy1 O3 K1 5_566 . 145.45(13) ?
Mo1 O3 Dy1 . 5_566 127.15(18) ?
Mo1 O3 K1 . . 87.32(12) ?
loop_
_geom_bond_atom_site_label_1
_geom_bond_atom_site_label_2
_geom_bond_site_symmetry_2
_geom_bond_distance
_geom_bond_publ_flag
Dy1 Dy1 5_565 3.97719(15) ?
Dy1 Dy1 5_566 3.97719(16) ?
Dy1 K1 2_564 4.2614(16) ?
Dy1 O2 5_666 2.384(3) ?
Dy1 O2 7_465 2.384(3) ?
Dy1 O2 3_655 2.502(3) ?
Dy1 O2 1_455 2.502(3) ?
Dy1 O1 . 2.292(3) ?
Dy1 O1 3 2.292(3) ?
Dy1 O3 7_565 2.325(3) ?
Dy1 O3 5_566 2.325(3) ?
Mo1 K1 . 3.7150(13) ?
Mo1 K1 2_664 3.9604(10) ?
Mo1 K1 2_564 3.8305(10) ?
Mo1 O4 . 1.720(4) ?
Mo1 O2 . 1.845(3) ?
Mo1 O1 . 1.795(3) ?
Mo1 O3 . 1.766(3) ?
K1 Mo1 2_565 3.8305(10) ?
K1 Mo1 3_656 3.7150(13) ?
K1 Mo1 4_566 3.8305(10) ?
K1 O4 . 2.676(4) ?
K1 O4 4_466 2.770(3) ?
K1 O4 3_656 2.676(4) ?
K1 O4 2_665 2.770(3) ?
K1 O1 4_566 2.812(4) ?
K1 O1 2_565 2.812(4) ?
K1 O3 3_656 3.352(4) ?
K1 O3 . 3.352(4) ?
O4 K1 2_664 2.770(3) ?
O2 Dy1 1_655 2.502(3) ?
O2 Dy1 5_666 2.384(3) ?
O1 K1 2_564 2.812(4) ?
O3 Dy1 5_566 2.325(3) ?
loop_
_refln_index_h
_refln_index_k
_refln_index_l
_refln_F_squared_meas
_refln_F_squared_sigma
0 -2 0 3056.71 17.73
0 2 0 -0.13 0.33
0 -3 0 -0.4 0.73
0 3 0 -0.19 0.95
0 3 0 -0.15 0.93
0 -4 0 7.1 1.46
0 4 0 8.74 1.77
0 4 0 10.07 1.8
0 -5 0 -0.6 1.02
0 5 0 -0.29 1.09
0 6 0 139.05 10.97
0 -6 0 141.85 11.02
0 6 0 148.22 11.59
0 -6 0 144.74 11.04
0 7 0 0.25 0.96
0 -7 0 -0.25 0.96
0 7 0 -0.36 1.05
0 -7 0 1.02 1.39
0 -7 0 -0.26 0.99
0 8 0 3102.02 219.93
0 -8 0 3088.29 219.89
0 -8 0 3227.25 220.57
0 8 0 3337.66 220.79
0 -8 0 3318.63 220.08
0 -9 0 0.41 1.38
0 9 0 0.87 1.52
0 -9 0 2.8 1.43
0 -10 0 7259.81 507.13
0 10 0 7658.18 507.48
0 -10 0 7322.5 506.6
0 11 0 1.02 1.4
0 -11 0 1.34 1.56
0 -11 0 1.04 1.21
0 -12 0 1098.21 79.89
0 12 0 1146.67 80.51
0 -12 0 1152.55 79.42
0 -13 0 2.45 1.59
0 13 0 -0.61 1.4
0 14 0 202.27 16.22
0 14 0 229.23 17.58
0 -14 0 177.77 16.2
0 15 0 0.5 1.3
0 15 0 0.72 1.77
0 -15 0 1.62 1.75
0 16 0 26.86 4.15
0 -16 0 25.79 4.34
0 16 0 29.79 5.25
0 17 0 0.55 1.57
0 17 0 1.75 2.52
0 -17 0 1.76 1.91
0 18 0 910.68 72.42
0 -18 0 1041.75 73.1
0 19 0 3.5 2.03
0 19 0 0.85 2.55
0 20 0 1332.5 100.18
0 20 0 1569.92 102.23
0 21 0 1.26 1.82
0 21 0 1.74 2.27
0 22 0 326.05 27
0 22 0 371.52 28.69
0 23 0 0.69 1.99
0 23 0 -1.8 2.48
0 24 0 177.45 15.54
0 24 0 198.75 17.16
0 -24 0 142.04 15.07
0 25 0 -0.7 2.65
0 25 0 4.68 2.93
0 -25 0 -1.53 2.49
0 26 0 7.11 2.89
0 -26 0 10.86 3.42
0 0 -1 0.12 0.44
0 0 1 -0.12 0.47
0 0 -1 -0.4 1.83
0 0 1 -0.1 0.35
0 0 -1 1.49 1.3
0 0 1 -0.11 0.43
0 0 -1 0.34 0.46
0 1 -1 -0.13 0.51
0 -1 1 -0.39 0.66
0 -1 -1 0.77 1.49
0 1 -1 -0.75 1.69
0 1 1 0.23 0.47
0 -1 -1 -0.22 0.52
0 -1 1 0.24 0.58
0 1 -1 0.29 1.19
0 1 1 0.12 0.54
0 1 -1 -0.13 0.61
0 -1 -1 -0.89 1.33
0 -1 -1 0.26 0.49
0 -1 1 0.13 0.57
0 2 -1 55.81 4.68
0 -2 1 56.73 4.6
0 -2 1 51.85 4.15
0 2 1 59.17 4.56
0 -2 -1 54.22 4.51
0 -2 -1 55.51 4.65
0 -2 1 62.42 4.7
0 2 -1 51.76 4.6
0 2 -1 68.49 5.5
0 -2 -1 61 5.93
0 3 -1 0.19 0.79
0 3 1 0.33 0.63
0 -3 -1 -0.35 1.74
0 -3 1 -0.19 0.98
0 -3 -1 0.45 0.8
0 -3 1 0.35 0.48
0 3 -1 -0.25 1.26
0 3 1 -0.46 0.45
0 -4 1 100.18 7.82
0 4 -1 110.77 8.06
0 4 1 93.45 7.27
0 -4 1 87.5 6.98
0 4 -1 109.05 8.03
0 -4 -1 99.76 8.37
0 5 -1 -0.54 1.43
0 5 -1 0.96 1.28
0 -5 -1 -0.3 1.36
0 -5 -1 0.35 0.81
0 5 1 0.18 0.75
0 5 -1 0.26 0.65
0 5 -1 -0.22 1.1
0 -5 -1 -0.23 1.14
0 6 -1 11.53 2.45
0 6 1 7.49 1.55
0 -6 -1 7.55 1.59
0 -6 -1 7.28 1.92
0 6 -1 8.25 1.39
0 6 -1 6.87 1.67
0 -6 -1 8.61 1.78
0 6 1 6.56 1.25
0 6 -1 7.07 1.8
0 -7 -1 0.78 1.01
0 7 1 -0.29 0.96
0 7 -1 1.94 1.52
0 7 1 -0.31 1.1
0 7 -1 -0.21 0.76
0 -7 1 0.19 0.71
0 7 -1 0.21 0.96
0 -7 -1 0.21 1.02
0 7 1 -0.18 0.83
0 -7 1 -0.37 0.92
0 -7 -1 0.26 1.14
0 7 -1 0.91 1.15
0 -8 1 613.37 45.37
0 8 -1 624.62 46.12
0 8 1 630.77 45.07
0 -8 -1 632.43 44.77
0 8 1 668.82 45.13
0 -8 1 608.36 44.27
0 8 -1 603.27 44.38
0 -8 -1 669.95 44.19
0 8 1 656.5 44.37
0 -8 1 641.44 44.25
0 8 -1 607.83 44.07
0 8 -1 619.53 44.11
0 -8 1 605.54 43.88
0 -8 -1 614.43 44.32
0 -8 1 695.93 45.51
0 8 1 631.41 44.37
0 8 1 644.68 44.06
0 9 -1 1.28 1.67
0 9 1 -1.34 1.51
0 -9 -1 -0.36 1.33
0 -9 1 -0.5 1.68
0 -9 1 1.43 1.26
0 9 1 0.82 1.23
0 9 -1 0.59 1.09
0 9 1 -0.38 0.8
0 -9 1 0.17 0.81
0 9 1 0.72 0.79
0 -9 1 0.92 1.6
0 9 1 -0.29 1.23
0 -9 1 0.13 0.73
0 10 -1 30.56 4.17
0 -10 1 32.32 4.23
0 10 1 34.89 4.74
0 10 -1 52.01 6.25
0 -10 1 48.31 5.68
0 -10 -1 25.52 4.21
0 10 1 56.32 5.62
0 10 1 39.88 4.54
0 -10 1 57.77 5.62
0 11 1 -0.47 1.34
0 11 -1 -0.37 1.15
0 -11 1 0.68 1.18
0 -11 -1 0.45 1.6
0 11 -1 1.42 2.05
0 11 1 2.64 1.72
0 -11 1 1.12 1.61
0 11 1 -0.36 1.26
0 -11 1 -1 1.51
0 12 1 274.96 22
0 12 -1 253.04 21.48
0 -12 1 284.98 21.49
0 12 -1 349.58 24.19
0 12 1 317.31 22.7
0 -12 1 317.87 23.01
0 -12 -1 257.98 21.92
0 -12 1 298.52 22.38
0 13 1 -0.92 1.38
0 13 -1 1.27 1.27
0 -13 1 -0.35 1.41
0 13 -1 -0.76 1.98
0 -13 1 -1.14 1.78
0 13 1 -0.53 1.39
0 -13 -1 0.98 1.7
0 -13 1 -0.5 1.55
0 14 -1 33.9 4.51
0 14 1 30.35 4.43
0 -14 1 31.5 4.1
0 -14 1 35.8 5.1
0 -14 -1 33.58 4.78
0 14 1 40.68 5.13
0 14 -1 41.34 5.86
0 -14 1 34.15 4.72
0 15 1 0.47 1.34
0 15 -1 0.48 1.17
0 -15 1 -1.22 2.11
0 -15 -1 0.53 1.66
0 15 1 1.73 1.81
0 15 -1 2.43 2.23
0 -15 1 -2.01 1.57
0 16 -1 381.36 29.2
0 16 1 344.23 29.44
0 -16 1 412.21 30.12
0 16 -1 420.49 31.32
0 -16 -1 397.97 29.67
0 -16 1 389.92 29.34
0 17 -1 -0.52 1.7
0 17 -1 1.71 2.35
0 -17 1 1.25 1.79
0 17 1 0.67 1.65
0 -17 -1 -1.14 1.99
0 -17 1 1.54 1.66
0 18 1 164.02 15.47
0 18 -1 181.6 15.32
0 18 -1 203.55 17.37
0 -18 -1 170.48 15.52
0 18 1 197.16 16.46
0 -18 1 177.18 15.1
0 19 1 1.3 1.69
0 19 -1 -1.8 2.34
0 19 1 -0.78 2.13
0 -19 -1 -1.2 2.02
0 20 1 276.06 24.66
0 20 -1 292.93 24.38
0 20 -1 384.32 27.24
0 20 1 388.09 27.25
0 -20 -1 293.88 24.59
0 21 1 4.14 2.24
0 21 -1 -1.19 1.93
0 21 1 2.58 2.36
0 21 -1 -0.94 2.59
0 -21 -1 0.63 1.65
0 22 1 98.8 10.93
0 22 -1 114.56 10.88
0 22 1 124.93 12.19
0 22 -1 112.57 12.48
0 -22 -1 103.41 10.79
0 23 1 -2.16 2.58
0 23 -1 1.24 1.94
0 23 1 -1.7 2.45
0 -23 -1 -1.31 2.06
0 24 1 121.54 12.28
0 24 -1 118.6 11.84
0 24 1 154.19 13.79
0 -24 -1 114.65 11.84
0 25 1 0.78 2.24
0 25 -1 0.64 2.35
0 25 1 -0.87 2.51
0 -25 -1 -1.36 2.13
0 26 1 168.06 15.79
0 27 1 3.26 2.65
0 -27 1 -0.89 3.09
0 0 -2 19.74 4.49
0 0 2 16.01 2.18
0 0 -2 19.78 2.37
0 0 2 19.11 2.18
0 0 -2 20.72 3.78
0 0 2 13.24 2.13
0 0 -2 15.06 2.17
0 1 -2 1.5 2.84
0 -1 -2 2.29 2.74
0 1 -2 0.25 0.81
0 1 2 -0.25 1.03
0 -1 2 0.24 0.99
0 -1 -2 -0.8 0.98
0 1 2 0.62 0.8
0 -1 -2 -0.58 2.15
0 -1 2 -1.13 1.11
0 1 2 -0.66 0.92
0 1 -2 1.7 2.31
0 -1 2 -0.47 1.01
0 1 -2 0.23 0.79
0 -1 -2 0.24 0.8
0 -2 2 450.39 33.66
0 2 -2 468.21 33.74
0 2 2 477.9 33.52
0 2 2 455.63 33.58
0 -2 2 499.15 33.78
0 -2 -2 456.35 33.64
0 -2 2 460.43 33.55
0 2 -2 540.68 35.62
0 -2 -2 518.54 36.59
0 -3 2 0.5 0.97
0 -3 -2 1.39 2.56
0 -3 2 0.28 1
0 3 -2 -0.29 0.8
0 3 2 -0.24 0.76
0 3 -2 -0.29 0.51
0 -3 -2 -0.29 0.86
0 3 -2 1.55 2.05
0 3 2 -0.53 0.98
0 -3 2 0.26 1.02
0 3 2 -0.41 0.53
0 -4 2 5850.92 418.51
0 4 -2 6161.57 418.85
0 -4 2 5939.34 417.6
0 4 2 6087.69 418.47
0 -4 -2 6126.03 418.75
0 4 -2 7055.85 420.24
0 -4 2 6199.48 418.53
0 4 2 5992.2 417.51
0 -4 -2 7246.84 421.56
0 -5 2 -0.33 1.15
0 5 -2 1.11 1.12
0 -5 -2 0.65 2.18
0 5 -2 -0.61 2.11
0 -5 2 0.5 0.63
0 5 2 1.45 0.98
0 -5 -2 0.49 1.65
0 5 -2 2.79 1.85
0 -5 -2 -0.11 0.58
0 5 2 0.22 0.51
0 6 2 2466.31 171.49
0 -6 2 2364.1 170.96
0 6 -2 2457.07 171.11
0 6 -2 2622.01 172.95
0 -6 -2 2840.41 173.24
0 -6 -2 2924.56 174.25
0 -6 -2 2440.47 171
0 6 -2 2700.2 173.74
0 7 -2 -0.48 1.25
0 -7 -2 0.56 1.74
0 7 -2 -0.52 1.8
0 7 2 0.49 0.83
0 -7 2 0.68 0.66
0 7 -2 0.18 0.73
0 -7 -2 0.87 1.5
0 7 -2 -0.84 1.54
0 -7 -2 0.16 0.63
0 8 -2 1138.43 75.2
0 8 2 1007.02 73.4
0 8 -2 1041.75 73.01
0 8 -2 1058.72 74.26
0 -8 -2 1071.18 74.26
0 -8 -2 1045.33 72.95
0 -8 -2 1039.52 74.87
0 8 -2 1102.28 74.76
0 9 2 0.65 0.8
0 9 -2 -1.24 1.7
0 9 -2 -0.24 0.83
0 -9 -2 -0.45 1.31
0 -9 -2 -0.41 1.33
0 9 -2 0.4 1.24
0 9 -2 -0.91 1.53
0 -9 -2 -1.51 1.7
0 -9 -2 -0.46 0.92
0 -10 2 5.04 2.11
0 10 2 9.74 2.17
0 10 -2 6.24 2.46
0 10 -2 7.7 1.71
0 -10 -2 4.64 2.06
0 10 2 8.35 2.15
0 -10 -2 8.55 2.24
0 10 -2 6.71 1.97
0 -10 2 8.54 2.23
0 10 2 5.67 2.03
0 10 2 9.73 2.2
0 10 2 7.83 1.58
0 -10 -2 6 2.21
0 10 -2 5.32 2.13
0 -10 -2 6.5 1.7
0 -10 2 6.6 1.85
0 11 2 -0.89 1.22
0 -11 2 0.57 1.63
0 11 -2 -1.55 1.77
0 11 -2 0.32 1.06
0 11 2 -0.51 1.32
0 -11 -2 -1.74 1.67
0 -11 2 -0.57 1.24
0 -11 -2 -0.71 1.35
0 11 2 0.42 1.42
0 11 -2 -1.04 1.41
0 -11 2 0.79 1.19
0 11 -2 0.37 1.21
0 -11 2 -0.59 1.25
0 11 2 -0.28 1.1
0 11 2 -0.32 1.07
0 -11 -2 -0.32 0.99
0 -11 -2 0.42 1.49
0 -11 2 1.79 2.01
0 -12 2 905.19 62.26
0 12 -2 736.84 62.48
0 12 2 922.64 61.61
0 -12 -2 997.79 62.62
0 12 -2 925.92 60.63
0 -12 2 834.17 60.22
0 12 2 914.65 61.77
0 12 2 840.22 60.51
0 -12 -2 865.33 60.3
0 -12 2 816.73 60.33
0 -12 2 898.31 62.27
0 -12 -2 810.06 60.44
0 12 2 898.12 60.34
0 12 2 841.14 59.97
0 -12 2 779.06 59.74
0 -12 -2 874.33 60.52
0 13 -2 2.59 2.48
0 13 2 0.62 1.78
0 -13 2 -0.73 2.09
0 -13 -2 -1.42 2.47
0 13 2 1.27 2.06
0 13 -2 1.22 1.42
0 -13 2 3.05 1.52
0 13 2 -0.61 1.2
0 -13 2 0.28 1.09
0 -13 2 2.83 2.12
0 -13 2 -0.61 1.03
0 -13 -2 0.41 1.23
0 13 2 0.7 1.07
0 14 -2 3217.82 138.74
0 -14 2 2822.91 136.6
0 14 2 2783.62 135.62
0 14 -2 2152.58 133.31
0 -14 -2 2072.53 135.21
0 -14 2 2340.86 133.36
0 14 2 2291.22 135.01
0 14 2 1675.31 131.33
0 -14 2 1461.75 131.08
0 14 2 1776.38 131.2
0 -14 -2 1745.71 132.78
0 14 2 2703.3 133.73
0 -14 2 2632.6 135.91
0 -15 2 -1.2 1.52
0 15 2 -1.3 1.79
0 -15 -2 3.29 2.47
0 15 -2 0.48 1.46
0 -15 2 3.72 2.58
0 15 2 4.47 2.15
0 15 -2 1.83 2.87
0 -15 -2 0.96 1.39
0 -15 2 -1.39 2.26
0 16 2 934.78 71.73
0 -16 2 976.36 70.57
0 16 -2 926.8 71.02
0 -16 2 1101.48 72.91
0 16 -2 1139.93 74.33
0 16 2 1085.8 72.15
0 -16 -2 957.15 71.07
0 -16 2 1053.85 72.42
0 17 2 -0.61 1.68
0 17 -2 -0.51 1.6
0 17 2 1.24 1.62
0 17 -2 -0.96 2.78
0 -17 2 -1.32 2.07
0 -17 -2 1.04 1.49
0 18 2 124.24 11.91
0 18 -2 112.81 11.3
0 18 -2 141.1 14.03
0 18 2 126.11 12.07
0 -18 -2 125.85 11.65
0 -18 2 144.41 12.52
0 19 -2 -1.07 1.74
0 19 2 -0.59 1.55
0 19 2 -0.68 1.95
0 -19 -2 -0.55 1.51
0 -19 2 1.31 1.98
0 20 -2 51.35 6.13
0 20 2 50.94 6.69
0 -20 -2 39.52 5.69
0 -20 2 48.74 6.46
0 21 -2 1.09 1.9
0 21 2 -3.96 2.66
0 -21 2 0.65 1.87
0 -21 -2 0.58 1.74
0 22 2 256 21.8
0 22 -2 226.71 20.46
0 22 2 283.89 22.72
0 -22 -2 277.49 21.2
0 23 -2 -1.65 2.14
0 23 2 -4.07 3.81
0 23 2 0.86 2.24
0 -23 -2 -5.36 3.7
0 24 2 518.01 41.59
0 24 -2 512.83 40.21
0 24 2 630.96 42.58
0 -24 -2 544.89 40.66
0 26 2 203.14 18.53
0 27 2 0.88 2.85
0 0 -3 1.17 2.87
0 0 -3 -0.37 0.92
0 0 3 2.13 1.15
0 0 3 -0.64 1.11
0 0 -3 0.89 2.31
0 0 3 0.33 1.03
0 0 -3 -0.34 0.73
0 -1 -3 -2.27 3.12
0 -1 3 -0.35 1.15
0 1 -3 0.38 0.93
0 1 3 -0.37 1.05
0 -1 -3 -1.48 1.06
0 1 -3 -1.12 3.49
0 1 3 -0.62 0.94
0 -1 -3 0.88 2.28
0 1 3 -0.65 1.17
0 1 -3 1.7 2.56
0 -1 3 -0.33 1.11
0 1 -3 0.68 1.03
0 -1 -3 0.36 0.88
0 -1 3 -0.34 1.16
0 -2 3 144.01 12.27
0 2 3 147.34 12.38
0 2 -3 131.78 12.17
0 -2 3 155.5 10.96
0 2 3 147.03 12.03
0 -2 3 158.79 12.4
0 -2 3 145.96 12.12
0 -2 -3 159.27 12.42
0 2 3 163.06 12.33
0 2 -3 171.34 14.87
0 -2 -3 167 16.03
0 -3 3 0.38 1.13
0 3 3 0.38 1.35
0 3 -3 -1.2 1.15
0 -3 -3 -1.05 3.16
0 3 3 -0.34 0.93
0 3 3 0.71 1.12
0 -3 -3 -0.39 1.01
0 -3 3 -0.7 1.22
0 3 -3 -1.57 2.16
0 -3 3 -0.37 1.21
0 -4 3 130.31 10.78
0 4 -3 111.72 10.81
0 -4 3 116.37 10.89
0 4 -3 123 9.52
0 4 3 142.13 10.88
0 -4 3 136.56 10.87
0 4 3 127.62 10.87
0 -4 3 146.74 11.26
0 -4 -3 125.66 10.97
0 4 -3 155.97 13.24
0 4 3 127.71 9.63
0 -4 -3 156.67 14.47
0 5 -3 0.93 2.81
0 5 -3 0.46 1.14
0 -5 -3 1.94 3.15
0 -5 3 0.39 1.07
0 5 -3 -0.16 0.69
0 5 3 0.38 0.8
0 -5 3 -0.71 0.83
0 -5 3 -0.77 1.25
0 5 -3 0.44 1.21
0 5 -3 -0.72 2.33
0 -5 -3 -0.45 1.1
0 -5 -3 0.74 2.31
0 5 3 0.6 0.65
0 -6 -3 11.02 3.62
0 -6 3 12.11 2.51
0 6 -3 6.96 2.28
0 6 -3 9.7 3.56
0 -6 3 8.23 1.48
0 6 -3 10.56 1.63
0 6 3 8.41 2.14
0 -6 -3 9.89 3
0 6 -3 6.93 2.82
0 -6 -3 13.05 2.69
0 6 -3 8.53 2.22
0 6 3 7.13 1.3
0 7 -3 0.83 2.03
0 7 3 0.3 1.06
0 -7 3 -0.53 1.78
0 7 -3 -1.1 1.26
0 -7 -3 0.88 2.29
0 -7 3 0.17 0.66
0 -7 -3 1.21 1.16
0 -7 -3 -1.36 1.97
0 7 -3 1.04 1.69
0 7 -3 1.32 1.72
0 8 3 78.92 7.1
0 -8 -3 82.64 7.73
0 -8 3 75.15 6.36
0 8 -3 89.84 8.82
0 8 -3 88.59 8.51
0 -8 -3 85.78 8.79
0 -8 -3 78.81 9.47
0 8 -3 81.22 9.41
0 9 3 -0.34 0.88
0 9 -3 -0.74 1.93
0 -9 -3 1.58 2.17
0 -9 3 -0.17 0.64
0 -9 -3 -0.47 1.24
0 9 -3 -0.61 1.31
0 9 -3 -0.62 1.78
0 -9 -3 -1.25 1.8
0 10 3 38.65 4.29
0 -10 -3 33.42 4.57
0 -10 -3 40.87 5.43
0 10 -3 31.61 5.14
0 10 -3 28.81 4.74
0 10 -3 25.18 4.73
0 -10 -3 31.52 3.39
0 -10 -3 37.94 5.73
0 11 3 -2.43 1.54
0 -11 3 0.57 1.4
0 -11 -3 -0.57 1.93
0 -11 -3 -0.59 1.55
0 11 -3 -0.58 1.81
0 11 3 0.7 2.21
0 -11 3 -1.35 1.76
0 11 -3 -0.77 2.11
0 -11 -3 0.5 0.92
0 11 -3 0.65 2.03
0 -11 -3 0.71 2.15
0 -11 3 1.02 1.65
0 12 3 899.14 59.53
0 -12 3 814.64 60.13
0 12 3 850.94 60.17
0 -12 -3 865.88 60.43
0 12 -3 890.31 58.62
0 12 3 790.35 60.21
0 -12 -3 774.09 59.74
0 12 -3 962.97 62.22
0 12 -3 819.27 59.76
0 -12 3 743.49 59.92
0 12 3 842.76 58.4
0 -12 -3 777.06 60.22
0 12 3 841.8 59.67
0 12 -3 749.43 59.77
0 -12 3 791.62 59.23
0 -12 -3 867.51 58.41
0 13 3 -1.55 2.2
0 -13 3 -0.7 2.1
0 13 3 3.94 2.13
0 13 -3 2.37 1.47
0 -13 -3 -0.69 2.25
0 13 -3 1.88 2.7
0 -13 3 4.05 2.3
0 -13 -3 0.53 1.59
0 13 3 0.61 1.84
0 13 -3 -1.03 1.8
0 -13 3 -0.86 1.58
0 13 3 0.92 1.49
0 -13 -3 3.06 2.43
0 13 -3 1.12 1.95
0 13 3 0.96 1.52
0 -13 -3 -0.32 1.15
0 14 3 73.03 7.74
0 -14 3 75.71 8.63
0 -14 3 58.55 6.39
0 -14 -3 71.21 8.36
0 14 -3 74.78 6.85
0 14 3 74.81 8.18
0 14 -3 82.31 9.76
0 -14 -3 60.88 7.01
0 14 3 57.32 7.24
0 -14 3 64.33 7.31
0 14 3 60.77 6.69
0 -14 3 73.21 8.72
0 14 3 66.94 6.6
0 -14 -3 67.63 7.6
0 -14 3 63.08 6.62
0 -14 -3 60.16 6.38
0 15 3 -0.68 1.97
0 15 3 0.78 2.04
0 15 -3 -0.41 1.33
0 15 3 -0.5 1.68
0 -15 3 -1.88 1.95
0 15 -3 1.12 2.39
0 15 3 0.37 1.33
0 -15 -3 0.8 1.3
0 -15 3 -3.55 2.78
0 15 3 2.03 1.77
0 -15 3 -2.43 1.68
0 16 3 94.09 10.63
0 16 -3 124.29 10.05
0 -16 3 106.24 9.76
0 16 3 123.1 11.91
0 16 3 93.62 9.17
0 16 -3 112.61 13.33
0 -16 3 83.72 8.88
0 -16 3 92.65 8.57
0 -16 -3 128.18 9.92
0 16 3 111.34 9.82
0 16 3 98.53 8.74
0 -16 3 104.55 11.64
0 17 3 1.42 2.22
0 -17 3 -0.47 1.79
0 17 -3 2.41 1.67
0 17 3 -1.71 2.1
0 17 -3 1.33 3.99
0 -17 -3 -0.48 1.5
0 17 3 -0.18 1.06
0 -17 3 -5.44 3.25
0 17 3 0.89 1.76
0 18 3 34.94 5.2
0 18 3 32.43 5.46
0 18 -3 31.79 4.52
0 -18 3 28.44 4.04
0 18 -3 15.14 5.54
0 -18 -3 22.08 3.96
0 -18 3 29.58 5.56
0 19 3 -1.33 1.92
0 19 3 0.77 1.89
0 19 -3 0.5 1.83
0 19 -3 -2.79 3.43
0 -19 -3 -0.51 1.59
0 -19 3 0.84 2.64
0 20 3 303.54 23.89
0 20 -3 271.03 22.68
0 20 3 299.91 24.14
0 20 -3 273.84 27.38
0 -20 -3 285.33 22.89
0 -20 3 322.09 24.84
0 21 3 -0.7 2.12
0 21 -3 2.44 2.08
0 21 3 -2.18 2.09
0 21 -3 1.44 3.31
0 -21 3 1.61 2.52
0 -21 -3 -0.52 1.73
0 22 3 363.52 26.67
0 22 -3 275.92 24.57
0 22 -3 332.86 30.1
0 -22 3 375.63 27.25
0 -22 -3 317.55 25.04
0 23 3 -0.8 2.77
0 23 3 -0.92 2.39
0 23 -3 -1.5 3.44
0 -23 3 0.78 2.14
0 24 3 158.13 16.03
0 24 -3 160.9 18.81
0 -24 3 178.68 15.94
0 25 -3 1.59 3.66
0 25 3 -1.89 2.72
0 25 -3 -1.54 3.27
0 26 3 54.35 8.39
0 26 -3 92.18 12.3
0 27 3 -1.91 3.43
0 0 -4 9291.35 621.22
0 0 4 9715.52 621.18
0 0 4 9771.99 620.9
0 0 -4 9516.88 621
0 0 -4 6814.07 623.3
0 0 4 9503.99 620.99
0 0 -4 6072.75 624.62
0 1 -4 4.09 1.82
0 1 4 8.71 3.22
0 1 -4 6.12 4.98
0 -1 -4 15.58 6.64
0 -1 4 3.28 2.3
0 -1 4 6.01 2.27
0 1 4 9.35 2.36
0 1 4 8.22 2.76
0 -1 4 0.87 1.46
0 1 -4 8.06 4.37
0 -1 -4 21.38 6.11
0 -1 4 7.75 2.85
0 1 -4 6.05 2.35
0 -1 -4 13.29 2.91
0 -2 4 1787.89 123.09
0 2 -4 1809.53 125.34
0 -2 4 1786.77 125.12
0 2 4 1774.17 125.17
0 2 4 1747.32 124.78
0 2 4 1824.3 124.93
0 2 -4 1978.43 129.4
0 -2 -4 1759.2 125.13
0 -2 4 1667.77 124.69
0 -2 4 1897.97 125.18
0 -2 -4 1995.84 131.71
0 3 -4 -0.53 1.29
0 -3 4 -0.48 1.63
0 -3 -4 1.44 3.54
0 3 4 1.51 1.45
0 3 4 -1.33 1.21
0 3 -4 -1.06 2.43
0 -3 4 -0.87 1.46
0 3 4 -1.35 1.36
0 -3 -4 -0.52 1.42
0 -3 4 1.45 1.57
0 -4 4 402.01 31.4
0 4 -4 405.78 31.6
0 4 4 429.66 31.27
0 -4 4 417.34 31.2
0 -4 -4 408.45 31.57
0 4 -4 503.62 35.03
0 4 4 393.16 31.14
0 -4 -4 538.38 37.67
0 -5 4 -0.47 1.36
0 5 -4 -1.14 1.21
0 -5 -4 -1.29 3.55
0 5 -4 3.76 3.44
0 -5 4 0.52 1.43
0 -5 -4 -0.44 1.07
0 5 4 0.47 1.22
0 5 -4 1.96 2.55
0 -5 -4 -0.56 1.28
0 5 -4 0.57 1.4
0 -5 -4 1 3
0 -5 4 -0.46 1.34
0 5 4 0.59 0.7
0 -6 -4 72.71 10.52
0 -6 4 93.47 8.32
0 6 -4 65.81 8.04
0 6 -4 76.17 6.41
0 -6 -4 79.38 7.71
0 -6 4 79.31 6.67
0 6 4 89.08 8.09
0 -6 -4 71.49 8.04
0 -6 -4 84.79 9.9
0 6 -4 78.57 8.22
0 -6 4 85.22 8.06
0 6 -4 78.78 9.71
0 6 -4 92.58 11.08
0 6 4 79.2 6.48
0 -7 4 0.54 1.42
0 7 -4 -1.13 3.25
0 -7 -4 -1.18 2.89
0 7 -4 0.65 1.48
0 -7 4 -0.43 0.79
0 -7 -4 0.48 1.19
0 7 -4 0.42 0.84
0 7 4 -0.51 1.25
0 7 -4 1.22 1.59
0 -7 -4 0.92 2.27
0 7 -4 0.9 2.07
0 7 4 0.93 0.78
0 8 -4 1669.82 127.15
0 8 -4 1615.05 124.64
0 -8 4 2027.49 127.23
0 -8 4 1786.16 124.56
0 8 4 1846.02 126.7
0 -8 -4 1832.63 126.31
0 8 -4 1945.22 128.69
0 8 -4 1873.61 127.1
0 -8 -4 1985.81 128.9
0 8 4 1823.47 124.43
0 -8 -4 1998.18 130.41
0 8 -4 1918.1 129.83
0 -9 -4 -1.1 2.33
0 9 4 -0.4 1.29
0 9 -4 -2.08 2.71
0 -9 4 -0.41 0.95
0 -9 -4 -1.09 1.63
0 9 -4 -0.29 0.99
0 9 -4 -0.69 1.89
0 -9 -4 0.87 2.39
0 9 -4 -0.85 2.22
0 10 -4 2753.56 200.33
0 10 4 3005.94 200.8
0 -10 4 2673.87 199.39
0 -10 -4 3088.45 201.89
0 -10 -4 3102.14 203.52
0 10 -4 3149.58 203.53
0 10 -4 3281.63 203.03
0 -10 -4 3143.85 204.82
0 10 -4 3070.62 204.34
0 11 4 -0.44 1.37
0 -11 -4 -0.62 1.77
0 -11 -4 2.49 2.49
0 11 -4 0.81 1.98
0 11 -4 0.82 1.59
0 -11 -4 -1 2.62
0 11 -4 -1.87 2.56
0 -12 4 604.19 47.07
0 12 4 688.85 46.42
0 -12 -4 653.25 47.37
0 12 -4 732.76 49.16
0 -12 4 593.54 48.16
0 12 -4 604.57 47.66
0 12 4 654.63 48.8
0 -12 -4 662.11 48.16
0 -12 -4 598.62 48.49
0 -12 4 604.38 47.12
0 12 -4 634.69 48.36
0 13 4 -0.5 1.51
0 -13 -4 1.44 2.07
0 -13 -4 -0.77 2.22
0 13 4 -2.64 2.54
0 13 -4 5.2 2.95
0 13 -4 0.98 1.9
0 -13 4 -0.84 2.54
0 13 -4 2.45 2.46
0 -13 4 3.11 2.35
0 -13 -4 -0.89 2.33
0 13 4 1.36 2.29
0 14 4 8.96 2.67
0 14 4 11.88 3.44
0 14 -4 18.49 4.02
0 -14 -4 5.83 2.84
0 -14 4 14.82 3.84
0 14 -4 7.36 3.49
0 14 4 6.56 3.18
0 14 4 5.55 2.82
0 14 4 11.46 2.38
0 -14 4 14.08 3.37
0 -14 -4 14.28 3.71
0 14 -4 13.17 3.81
0 15 4 -0.61 1.85
0 15 4 -0.84 2.2
0 15 4 0.78 2.15
0 -15 4 1.48 2.23
0 -15 -4 -0.7 2.1
0 15 -4 -0.68 2.45
0 15 -4 -1.14 2.43
0 -15 4 -1.96 2.56
0 15 4 -0.59 2.03
0 -15 -4 0.8 2.07
0 15 -4 -1.47 2.31
0 15 4 -1.12 1.41
0 -15 4 -0.54 1.7
0 16 4 6.85 2.83
0 -16 4 8.15 2.34
0 16 4 9.86 3.33
0 -16 -4 15.09 4.53
0 16 4 12.42 3.68
0 16 -4 6.13 3.86
0 -16 4 8.94 3.02
0 -16 4 7.64 2.39
0 16 4 2.13 1.97
0 16 4 6.39 2.16
0 -16 4 4.17 3.17
0 17 4 -0.78 2.79
0 17 -4 1.45 3.33
0 -17 4 0.94 1.79
0 17 4 -0.97 2.67
0 -17 -4 2.71 3.53
0 17 -4 -1.32 3.03
0 17 4 -1.29 2.24
0 17 4 -0.9 1.83
0 -17 4 1.35 1.84
0 -17 4 -2.2 3.02
0 18 -4 602.55 43.88
0 18 4 603.74 39.42
0 18 4 519.01 40.03
0 18 4 443.42 36.93
0 18 -4 742.84 44.82
0 -18 -4 636.75 43.94
0 -18 4 579.47 41.14
0 -18 4 402.79 35.93
0 19 4 -3.08 2.51
0 19 -4 -1.67 3.24
0 19 4 -1.04 2.72
0 19 -4 1.52 3.5
0 -19 -4 -1.57 3.85
0 -19 4 -1.1 2.87
0 20 -4 534.57 52.52
0 20 4 800.19 49.65
0 20 4 686.42 50.5
0 -20 -4 554.39 52.51
0 20 -4 491.9 51.55
0 -20 4 774.06 51.58
0 21 -4 1.71 3.31
0 21 4 -1.38 2.08
0 21 4 3.7 2.9
0 -21 -4 1.63 3.74
0 21 -4 4.77 4.57
0 -21 4 1.01 3.03
0 22 -4 269.33 26.27
0 22 4 245.74 21.84
0 -22 -4 242.83 25.36
0 22 -4 256.75 25.08
0 -22 4 230.89 21.92
0 23 -4 -1.73 4.5
0 23 4 -0.87 2.72
0 23 -4 9.61 5.02
0 -23 -4 1.66 3.81
0 -23 4 -4.71 3.17
0 24 -4 72.94 11.96
0 24 4 39.87 8.39
0 -24 -4 73.47 11.56
0 24 -4 82.08 11.88
0 -24 4 67.36 8.92
0 25 4 -3.14 3.28
0 25 -4 -1.62 3.16
0 -25 4 -0.89 2.99
0 0 -5 -0.63 1.64
0 0 5 0.59 1.45
0 0 -5 5.97 5.19
0 0 5 -0.56 1.18
0 0 5 0.54 1.25
0 0 -5 -1.51 4.15
0 0 -5 -0.59 1.25
0 1 -5 -1.89 4.34
0 1 5 -1.19 1.86
0 -1 5 1.78 1.46
0 -1 -5 1.95 4.48
0 1 -5 1.95 1.69
0 -1 5 -0.58 1.23
0 1 5 1.64 1.58
0 -1 5 -0.54 1.56
0 1 5 1.09 1.57
0 1 -5 1.46 2.83
0 -1 -5 -1.49 3.67
0 -1 -5 1.21 1.48
0 -1 5 0.57 1.48
0 1 -5 -0.6 1.38
0 -2 5 550.78 39.73
0 2 5 543.1 42.16
0 2 -5 591.77 42.68
0 -2 5 581.42 42.3
0 -2 5 640.09 42.64
0 2 5 544.26 41.81
0 2 5 567.36 41.98
0 -2 5 581.83 42.24
0 -2 5 560.34 41.8
0 2 -5 627.17 47.13
0 -2 -5 579.52 42.41
0 -2 -5 605.9 48.99
0 -3 -5 3.56 4.37
0 -3 5 -0.6 1.46
0 3 -5 -0.67 1.53
0 -3 -5 1.54 1.61
0 3 5 1.11 1.28
0 -3 5 0.53 1.45
0 3 5 -0.55 1.27
0 3 -5 1.35 3.11
0 -3 5 0.6 1.56
0 -3 -5 0.65 1.38
0 4 -5 3.31 3.22
0 -4 5 1.81 1.66
0 4 -5 2.72 1.96
0 -4 -5 1.71 3.33
0 -4 -5 0.52 1.28
0 4 5 6.08 2.1
0 4 -5 1.3 3.39
0 -4 5 3.28 1.85
0 4 5 1.67 1.53
0 -4 -5 1.99 2.08
0 -5 5 0.62 1.63
0 -5 5 1.68 1.53
0 5 -5 1.59 3.37
0 5 -5 -0.69 1.47
0 -5 -5 -1.63 3.75
0 5 5 -1.13 1.47
0 -5 -5 -1.04 1.5
0 5 -5 -1.25 2.66
0 -5 -5 6.39 4.15
0 -5 5 0.56 1.52
0 5 5 0.57 1.49
0 -5 -5 1.36 1.56
0 6 -5 209.56 18.12
0 -6 5 220.52 17.39
0 -6 5 234.75 17.97
0 -6 -5 206.68 16.91
0 6 5 213.88 17.28
0 -6 -5 201.87 17.85
0 -6 5 201.77 17.15
0 -6 -5 227.24 20.71
0 6 -5 203.2 20.24
0 6 -5 229.68 21.98
0 -6 -5 229.67 22.38
0 6 5 186.32 15.3
0 7 -5 4.35 3.56
0 7 -5 0.75 1.71
0 -7 5 1.24 1.78
0 -7 -5 1.5 3.45
0 7 5 -0.6 1.47
0 -7 -5 -0.55 1.72
0 -7 5 0.27 0.97
0 -7 5 -0.58 1.67
0 -7 -5 -1.18 2.9
0 7 -5 3.48 3.02
0 7 -5 0.73 2
0 7 5 0.23 0.83
0 -8 5 1154.85 77.94
0 8 -5 1072.66 78.46
0 -8 -5 1048.18 77.06
0 8 5 1059.09 77.43
0 -8 5 1002.15 75.23
0 8 -5 1162.66 78.51
0 8 -5 1259.89 81.12
0 -8 -5 1245.8 81.09
0 8 5 1051.93 75.13
0 -8 -5 1161.61 82.4
0 8 -5 1274.76 82.84
0 -9 5 -1.57 2.15
0 -9 -5 1.39 3.42
0 9 -5 1.33 3.66
0 9 5 -1.32 1.81
0 -9 -5 0.6 1.57
0 -9 5 -0.49 1.02
0 9 -5 -1.29 0.95
0 9 -5 -0.8 2.09
0 -9 -5 1.11 2.55
0 9 -5 1.09 2.51
0 9 5 -0.62 0.96
0 10 5 10.96 2.68
0 -10 -5 20.19 6.01
0 -10 5 11.52 1.94
0 10 -5 9.77 2.04
0 -10 -5 10.19 3.14
0 10 -5 13.04 4.3
0 -10 -5 16.21 4.85
0 10 -5 23.85 4.64
0 10 -5 11.61 4.55
0 11 5 0.97 1.4
0 -11 5 0.2 0.84
0 -11 -5 -0.67 1.94
0 11 -5 -1.02 1.21
0 -11 -5 -3.23 3.1
0 11 -5 3.45 2.48
0 11 -5 1.05 2.24
0 11 -5 -1.24 3.39
0 -11 -5 2.62 3.6
0 12 5 1.01 1.46
0 12 -5 3.89 1.76
0 12 -5 0.93 2.27
0 12 -5 1.02 2.93
0 -12 -5 2.1 2.41
0 12 5 4.73 3.41
0 -12 5 -0.86 2.59
0 12 -5 1.17 2.68
0 -12 -5 -1.25 3.44
0 13 5 0.55 1.59
0 13 -5 0.44 1.33
0 -13 -5 -1.01 2.49
0 -13 5 -3.31 3.32
0 13 -5 -1 2.12
0 13 -5 -0.99 2.71
0 13 5 -1.15 2.81
0 13 5 -0.87 2.5
0 -13 5 -1.63 2.55
0 -13 -5 1.19 2.91
0 13 -5 -1.1 2.86
0 14 5 13.72 3.07
0 14 -5 10.48 2.52
0 14 5 8.6 3.78
0 -14 -5 8.82 4.04
0 -14 5 3.09 3.27
0 14 -5 10.3 3.68
0 14 -5 20.47 4.98
0 -14 5 2.28 2.78
0 14 5 11.56 3.56
0 14 -5 7.25 3.64
0 -14 -5 4.48 3.68
0 15 5 2.45 1.99
0 15 -5 -0.56 1.82
0 15 5 -3.71 2.42
0 15 -5 0.91 2.63
0 -15 -5 -0.93 2.29
0 -15 -5 -1.22 2.81
0 -15 5 -0.97 2.93
0 15 5 -1.03 2.83
0 15 -5 -2.33 2.67
0 -15 5 -1.46 2.38
0 15 5 0.77 2.68
0 -15 -5 2.13 2.45
0 15 -5 1.99 2.99
0 16 -5 616.27 49.32
0 16 5 805.33 50.46
0 16 5 752.05 52.06
0 16 5 599.21 51.25
0 16 -5 856.52 54.52
0 -16 -5 780.64 54.23
0 16 -5 625.88 50.68
0 -16 -5 657.56 50.96
0 16 -5 656.76 51.29
0 -16 -5 666.68 51.71
0 -16 5 591.84 49.53
0 17 -5 2.95 3.62
0 17 5 -2.18 2.82
0 17 -5 -0.68 2.15
0 17 5 -1.05 2.58
0 -17 -5 0.87 2.49
0 17 -5 1.36 3.91
0 -17 -5 -1.41 3.24
0 17 5 -0.94 2.82
0 -17 5 -1.95 2.19
0 -17 5 -3.64 3.8
0 18 -5 342.97 31.07
0 18 5 336.61 26.81
0 18 5 355.93 28.72
0 18 5 303.53 26.95
0 -18 -5 363.59 30.75
0 18 -5 382.23 31.2
0 -18 5 326.04 29.05
0 -18 5 276.97 25.31
0 19 -5 1.69 3.58
0 19 5 -0.87 2.73
0 19 5 -1.21 4.21
0 -19 -5 -3.21 4.62
0 19 -5 -1.57 3.34
0 -19 5 2.67 3.85
0 20 5 142.04 12.8
0 20 -5 125.26 16.05
0 20 5 98.86 13.17
0 -20 -5 82.09 13.6
0 20 -5 98.76 14.61
0 -20 5 116.35 13.97
0 21 -5 1.89 4.63
0 -21 -5 -1.81 3.86
0 21 -5 1.78 4.08
0 -21 5 1.24 3.89
0 22 -5 3.74 4.6
0 22 5 1.14 2.61
0 -22 -5 1.81 4.71
0 22 -5 1.79 4.13
0 -22 5 2.35 3.54
0 23 -5 -5.6 5.13
0 23 5 -1.06 3.8
0 23 -5 1.78 3.1
0 -23 -5 -1.81 4.16
0 -23 5 1.11 3.35
0 24 5 103.11 12.07
0 24 -5 93.66 14.12
0 -24 5 100.65 12.34
0 25 5 6.66 3.62
0 -25 5 3.12 3.85
0 0 6 21.13 4.11
0 0 -6 21.31 7.84
0 0 -6 22.86 4.36
0 0 6 26.89 4.5
0 0 6 27.48 4.45
0 0 6 19.09 4.01
0 0 -6 20.36 6.61
0 0 -6 20.19 4.01
0 1 -6 -2.28 5.94
0 1 6 0.71 1.95
0 -1 -6 -2.33 5.71
0 -1 6 -0.72 1.96
0 1 -6 -0.78 1.51
0 -1 6 0.4 0.76
0 -1 6 1.41 1.61
0 1 6 -0.68 1.45
0 -1 6 -0.65 1.97
0 1 6 -0.66 1.52
0 -1 -6 1.83 4.2
0 1 -6 -1.79 4.1
0 -1 6 0.67 1.75
0 1 -6 -0.74 1.69
0 -1 -6 0.73 1.69
0 2 -6 166.03 15.63
0 -2 6 166.61 15.44
0 -2 6 168.44 12.68
0 2 6 162.49 15.1
0 -2 6 182.01 15.61
0 2 6 202.7 15.71
0 -2 -6 186.24 15.86
0 -2 6 163 14.9
0 -2 6 173.97 15.47
0 2 -6 203.14 20.71
0 -2 -6 147.9 20.55
0 -3 -6 6.44 5.89
0 -3 6 -2.84 2.61
0 3 -6 1.62 2.33
0 3 6 -0.68 2.35
0 -3 6 0.76 1.62
0 3 6 3.28 2.55
0 -3 6 -0.62 2.48
0 3 -6 -4.99 3.82
0 -3 -6 2.3 2.4
0 4 -6 3960.74 271.42
0 -4 6 3960.35 271.06
0 4 6 3726.93 270.59
0 -4 6 3995.08 271.52
0 4 -6 4267.45 276.73
0 -4 -6 3748.3 271.22
0 -4 6 3792.84 270.4
0 4 6 3824.16 270.67
0 4 -6 4357.2 279.43
0 -4 -6 4330.82 279.64
0 -5 -6 3.98 4.57
0 -5 6 0.65 1.58
0 -5 6 -0.73 2.38
0 5 -6 -1.94 4.76
0 5 -6 -0.83 1.91
0 -5 -6 0.62 1.94
0 5 6 0.67 2.17
0 5 -6 1.54 3.79
0 5 6 -0.66 2.3
0 -5 -6 1.57 3.6
0 -5 6 -1.93 3.26
0 -5 -6 -0.82 1.88
0 -6 6 2114.6 150.62
0 -6 6 2231.73 151.3
0 6 -6 2194.93 151.75
0 6 6 2099.44 150.67
0 -6 -6 2187.31 150.43
0 -6 6 2184.55 150.6
0 6 -6 2344.56 155.88
0 -6 -6 2171.1 151.57
0 -6 -6 2394.83 156.11
0 6 6 1964.87 148.3
0 6 -6 2425.94 158.67
0 -6 -6 2592.19 159.64
0 7 -6 3.58 4.11
0 -7 -6 5.54 5.32
0 7 -6 -0.87 2
0 -7 6 0.34 1.27
0 -7 -6 0.63 1.64
0 7 6 -0.69 1.46
0 -7 6 0.66 2.16
0 -7 -6 7.27 4.37
0 7 -6 1.44 3.54
0 7 6 -0.27 1.11
0 8 -6 438.32 33.81
0 8 6 442.79 32.91
0 -8 -6 411.16 32.16
0 -8 6 421.92 30.46
0 -8 -6 433.01 36.31
0 8 -6 456.7 36.56
0 -8 -6 474.04 38.93
0 8 -6 486.78 38.67
0 8 6 393.23 30.06
0 -9 -6 -1.71 3.93
0 9 -6 -1.65 4.52
0 -9 6 1.11 1.05
0 9 6 -0.73 1.68
0 -9 -6 -1.38 4.63
0 9 -6 2.73 3.56
0 9 6 -0.24 0.92
0 10 6 23.57 3.78
0 -10 6 14.78 2.48
0 10 6 27.73 5
0 -10 -6 26.93 6.43
0 10 -6 21.32 4.67
0 10 -6 22.72 5.95
0 -10 -6 21.58 6.58
0 10 -6 15.92 6.32
0 11 6 1.63 1.77
0 -11 6 -0.23 0.97
0 11 -6 1.3 3.57
0 -11 -6 -2.64 3.81
0 11 -6 -0.97 2.39
0 11 -6 -1.51 3.47
0 -11 -6 1.59 5.18
0 12 6 387.01 27.62
0 -12 6 321.89 25.37
0 12 -6 312.18 25.96
0 -12 -6 402.21 31.9
0 12 -6 434.78 30.76
0 12 6 419.62 33.2
0 -12 6 431.81 33.13
0 12 -6 415.86 31.99
0 -12 -6 450.73 34.01
0 12 -6 388.22 32.55
0 -12 6 390.26 30.69
0 13 6 -2.87 2.12
0 13 -6 0.37 1.2
0 -13 -6 2.52 3.45
0 13 -6 -1.23 3.22
0 -13 6 2.7 3.32
0 13 -6 1.09 3.28
0 13 6 1.4 3.21
0 13 6 -1.06 2.9
0 13 -6 -2.75 4.14
0 -13 6 -1.02 3.06
0 -13 -6 -1.47 4.03
0 14 -6 1647.21 132.98
0 14 6 2213.15 134.91
0 -14 6 1862.27 137.99
0 14 -6 1904.98 137.48
0 -14 -6 1998.98 138.12
0 14 6 1988.08 138.64
0 14 -6 2252.56 138.35
0 14 6 2048.1 137.08
0 14 -6 1930.65 138.34
0 -14 -6 1914.71 138.78
0 -14 6 1841.46 136.17
0 15 6 -5.09 3.12
0 15 -6 -0.47 1.41
0 15 -6 -1.2 3.31
0 15 6 7.57 4.52
0 -15 -6 5.14 3.35
0 15 -6 -2.27 3.11
0 -15 -6 1.17 3.37
0 -15 -6 1.34 3.5
0 15 -6 -1.25 3.61
0 -15 6 0.9 2.71
0 16 6 1082.12 63.86
0 16 -6 767.75 61.94
0 16 6 1053.4 66.41
0 16 6 821.6 66.06
0 16 -6 1012.89 67.23
0 -16 -6 797.6 65.17
0 -16 -6 978.9 67.77
0 16 -6 858.99 65.42
0 16 -6 831.68 65.87
0 -16 6 704.87 63.48
0 -16 -6 875.28 66.51
0 17 6 -0.73 2.38
0 17 -6 -4.63 4.02
0 17 6 -1.17 2.68
0 17 -6 4.31 3.97
0 17 -6 -1.35 2.87
0 -17 -6 1.1 3.03
0 -17 -6 1.25 3.76
0 17 -6 2.3 4.11
0 18 6 112.49 11.56
0 18 -6 116.43 15.09
0 18 6 112.46 13.19
0 18 -6 95.18 13.32
0 -18 -6 98.33 13.89
0 -18 6 106.82 13.73
0 19 -6 1.74 3.99
0 19 6 -2.59 3.55
0 -19 -6 3.31 3.53
0 19 -6 -1.53 3.99
0 -19 6 -1.45 4.17
0 20 -6 40.41 9.44
0 20 6 52.89 9.04
0 20 -6 63.26 10.46
0 -20 -6 61.51 10.83
0 -20 6 28.59 8.36
0 21 -6 1.93 3.76
0 21 -6 5.14 4.46
0 -21 -6 -1.86 4.27
0 -21 6 1.47 4.04
0 22 -6 89.73 15.55
0 22 6 144.3 15.83
0 22 -6 128.23 16.61
0 -22 -6 98.15 15.79
0 -22 6 156.56 16.66
0 23 6 -1.28 3.53
0 23 -6 5.52 5.05
0 -23 6 1.33 4
0 24 6 441.76 35.27
0 -24 6 385.88 34.94
0 0 -7 -2.79 6.4
0 0 7 -0.83 1.91
0 0 7 -0.77 2.01
0 0 -7 2.21 4.29
0 0 -7 0.89 1.89
0 1 -7 8.08 7.01
0 1 -7 1.82 2.23
0 -1 -7 -2.75 5.84
0 1 7 0.83 2.38
0 -1 7 0.21 0.89
0 -1 7 -1.68 2.19
0 -1 -7 2.18 5.68
0 1 -7 -2.13 5.56
0 -1 7 1.53 2.39
0 1 7 0.78 1.92
0 -1 -7 0.87 2
0 -2 7 443.73 32.69
0 2 -7 514.01 37.27
0 -2 7 498.4 36.81
0 2 7 529.25 36.85
0 2 -7 543.89 43.73
0 -2 -7 489.17 36.82
0 -2 7 439.91 35.63
0 -2 -7 476.44 45.59
0 -3 -7 2.55 5.43
0 3 -7 0.95 2.49
0 -3 7 0.88 2.03
0 3 7 -1.61 1.97
0 3 -7 -1.99 4.22
0 -3 7 -0.72 2.18
0 -3 -7 0.91 2.22
0 4 -7 243.16 21.45
0 -4 7 237.9 21.01
0 4 7 230.08 20.46
0 -4 7 226.37 20.21
0 -4 -7 258.89 21.61
0 4 -7 261.21 26.21
0 -4 -7 271.37 28.87
0 4 -7 229.16 27.26
0 -5 -7 -4.75 5.83
0 5 -7 2.32 4.93
0 5 -7 0.98 1.89
0 -5 7 0.93 1.98
0 5 7 -0.78 1.8
0 5 -7 5.59 5.36
0 -5 7 1.47 2.21
0 -5 -7 1.89 4.35
0 -5 -7 -0.94 2.59
0 6 -7 78.1 9.59
0 -6 -7 84.54 13.83
0 6 -7 77.91 13.23
0 6 7 67.18 8.32
0 -6 -7 69.29 11.71
0 6 -7 81.59 12.58
0 -6 -7 74.3 9.26
0 6 7 60.3 6.36
0 7 -7 -2.14 5.26
0 -7 -7 -2.2 5.4
0 7 -7 1.01 1.75
0 7 7 -0.79 2.05
0 -7 7 -0.4 1.56
0 7 -7 -1.75 4.29
0 -7 -7 -7.1 4.87
0 7 7 0.31 1.23
0 -8 -7 48.67 10.41
0 8 -7 37.24 6.33
0 8 -7 34.88 8.94
0 -8 7 24.39 3.56
0 8 7 30.29 5.35
0 -8 -7 29.41 7.61
0 8 -7 35.69 8.31
0 8 7 26.05 3.33
0 9 -7 -1.05 2.24
0 -9 7 1.89 1.25
0 9 7 -0.81 1.86
0 9 -7 -1.66 4.08
0 -9 -7 -1.67 4.34
0 9 7 -0.27 1.05
0 -9 -7 -2.05 5.03
0 9 -7 -1.98 4.21
0 -10 7 13.74 2.39
0 10 7 11.85 3.59
0 -10 -7 16.3 5.75
0 10 -7 16.08 5.5
0 10 -7 17.03 6.85
0 -10 -7 27.45 7.68
0 10 7 15.18 2.23
0 11 7 -1.82 1.9
0 11 -7 1.56 3.82
0 -11 -7 1.58 3.64
0 -11 -7 -1.88 4.63
0 11 -7 1.8 4.68
0 12 7 1018.43 74.33
0 12 -7 1073.17 79.65
0 -12 -7 1044.31 79.46
0 -12 -7 1052.82 80.94
0 12 -7 1055.35 80.57
0 13 7 2.46 2.2
0 -13 -7 6.02 4.33
0 13 -7 4.42 3.84
0 -13 -7 -3.49 4.29
0 13 -7 -1.64 4.04
0 14 7 143.04 12.4
0 14 -7 124.51 14.7
0 -14 -7 106.9 14.81
0 14 -7 136.83 15.75
0 14 -7 114.4 15.27
0 -14 -7 114.76 16.05
0 15 7 -0.68 2.06
0 -15 -7 -4.22 4.58
0 15 -7 -1.28 3.34
0 -15 -7 -5.42 3.11
0 15 -7 1.37 3.77
0 -15 -7 3.22 4.64
0 15 -7 -4.55 4.56
0 16 7 30.59 5.25
0 16 7 37.36 7.01
0 16 -7 25.42 6.49
0 -16 -7 34.45 7.35
0 -16 -7 27.6 7.09
0 16 -7 29.77 6.76
0 16 -7 29.21 7.68
0 -16 -7 28.23 7.62
0 17 -7 1.63 3.46
0 17 7 1.45 2.09
0 17 7 2.58 3.54
0 17 -7 -2.59 6.75
0 17 -7 -1.43 3.52
0 -17 -7 -1.53 3.25
0 -17 -7 -1.35 4.97
0 -17 -7 -1.52 5.6
0 18 -7 5.15 4.95
0 18 7 5.39 3.89
0 -18 -7 3.24 3.98
0 18 -7 9.1 4.76
0 -18 -7 1.31 3.61
0 -18 7 -1.5 4.51
0 19 -7 3.62 4.72
0 19 7 -2.78 4.68
0 -19 -7 -3.44 4.48
0 19 -7 1.6 3.41
0 -19 7 4.67 4.27
0 20 -7 195.87 23.19
0 20 7 224.99 22.01
0 -20 -7 197.53 22.89
0 20 -7 231.84 23.15
0 -20 7 186.68 21.79
0 21 7 4.68 4.89
0 21 -7 5.29 4.84
0 -21 7 -1.65 4.05
0 22 7 319.8 33.31
0 22 -7 396.37 36.06
0 -22 7 435.33 35.5
0 0 8 1885.27 142.77
0 0 8 2697.5 148.57
0 0 -8 2041.8 155.39
0 0 -8 2598.91 148.76
0 0 -8 1921.83 157.95
0 1 -8 21.93 9.83
0 -1 -8 25.61 11.14
0 -1 8 8.87 1.66
0 -1 8 6.95 4.01
0 1 8 14.55 4.59
0 -1 -8 5.19 6.79
0 1 -8 12.7 6.65
0 -1 -8 16.72 5.1
0 2 -8 711.62 55.49
0 2 8 781.46 55.53
0 -2 8 706.49 55.26
0 -2 -8 700.06 55.35
0 2 -8 815.12 63.93
0 -2 -8 734.71 65.57
0 3 -8 1.08 2.65
0 -3 -8 2.98 5.79
0 -3 8 5.05 3.04
0 3 8 -0.94 2.83
0 3 -8 7.11 6.51
0 -3 -8 -1.04 2.72
0 4 -8 389.29 32.17
0 -4 8 361.3 31.51
0 4 8 382.35 31.24
0 -4 -8 391.97 32.02
0 -4 -8 375.66 37.57
0 4 -8 413.77 38.19
0 -4 -8 390.27 40.47
0 4 -8 427.34 41.03
0 -5 -8 -2.77 6.35
0 5 -8 2.7 6.64
0 5 -8 1.12 2.93
0 -5 8 1.05 2.22
0 5 8 -0.9 1.92
0 -5 -8 -4.47 6.72
0 5 -8 -2.23 6.43
0 -5 -8 3.2 3.07
0 6 -8 130.54 14.26
0 6 8 124.45 13.16
0 -6 8 146.63 14.4
0 6 -8 148.14 18.91
0 -6 -8 139.33 18.74
0 -6 -8 141.21 14.29
0 6 8 107.18 10.59
0 6 -8 156.72 20.88
0 -6 -8 188.88 22.54
0 7 -8 1.15 2.64
0 7 8 -0.89 2.33
0 -7 8 2.18 2.84
0 -7 8 -1.87 1.82
0 7 -8 -2.1 6.04
0 -7 -8 -2.09 4.81
0 -7 -8 -2.57 6.32
0 7 -8 -2.51 6.17
0 8 -8 906.12 69.34
0 -8 8 895.73 69.2
0 8 8 885.52 68.01
0 -8 -8 919.85 74.15
0 8 -8 1043.28 75.3
0 -8 -8 994.65 77.28
0 8 -8 958.49 76.47
0 9 -8 -1.2 2.76
0 9 8 -3.61 2.48
0 -9 -8 1.98 4.21
0 9 -8 1.95 4.15
0 9 -8 2.28 4.85
0 -9 -8 -7.09 7.4
0 10 8 981.32 75.73
0 10 -8 1069.56 81.2
0 -10 -8 1135.28 82.06
0 -10 -8 1014.41 82.73
0 10 -8 1052.14 82.7
0 11 8 1.32 2.15
0 11 8 0.96 2.36
0 -11 -8 -5.55 4.82
0 11 -8 5.47 4.75
0 11 -8 2.08 4.43
0 -11 -8 -2.17 4.62
0 12 8 300.43 22.98
0 -12 -8 257.75 27.66
0 12 -8 314.51 29.26
0 12 -8 242.54 28.13
0 -12 -8 262.84 29.05
0 13 8 -1.32 2.22
0 -13 -8 1.75 5.27
0 13 -8 -3.41 7.39
0 14 8 14.75 3.53
0 -14 -8 15.17 6.28
0 14 -8 13.14 5.79
0 -14 -8 23.14 7.55
0 14 -8 9.14 5.81
0 15 8 0.7 2.28
0 15 -8 -6.41 6.82
0 -15 -8 -1.63 5.66
0 -15 -8 -5.58 7.05
0 -15 -8 2.88 3.54
0 15 -8 -5.29 8.39
0 -16 -8 43.93 8.44
0 16 -8 26.48 7.28
0 -16 -8 41.55 8.76
0 16 -8 37.61 8.59
0 -16 -8 27.14 7.89
0 17 -8 -5.03 4.37
0 17 8 1.39 4.34
0 -17 -8 4.79 4.81
0 -17 -8 -3.15 4.93
0 17 -8 -3.29 6.55
0 18 -8 409.2 37.93
0 18 8 484.48 37.62
0 -18 -8 344.88 36.09
0 -18 -8 444.38 38.25
0 -18 8 438.18 37.71
0 19 8 1.52 3.73
0 -19 8 -1.67 4.6
0 20 8 301.95 28.78
0 0 9 1.14 2.62
0 0 -9 -6.06 7.89
0 0 -9 -3.7 7.88
0 1 9 6.79 3.68
0 -1 9 3.43 3.44
0 -1 -9 -5.99 6.37
0 1 -9 2.94 5.7
0 -1 -9 3.66 7.11
0 -2 9 315.7 27.52
0 2 9 311.41 27.22
0 -2 -9 326.76 28.15
0 2 -9 343.05 35.99
0 -2 -9 286.43 36.41
0 3 -9 -1.21 2.78
0 3 9 -3.22 2.8
0 -3 9 3.47 3.17
0 3 -9 5.57 6.4
0 -3 -9 3.41 7.83
0 -3 -9 -1.19 2.07
0 4 -9 -2.44 2.81
0 -4 9 2.32 3.02
0 4 9 1.04 2.03
0 4 -9 -2.69 5.22
0 -4 -9 13.6 7.47
0 -4 -9 1.19 2.53
0 4 -9 3.22 6.26
0 -4 -9 -3.29 5.71
0 5 -9 1.25 2.66
0 -5 9 -4.66 3.2
0 5 9 -1.03 2.68
0 -5 -9 5.24 5.57
0 5 -9 -2.6 5.98
0 -5 -9 -3.14 7.22
0 -5 -9 1.2 2.34
0 5 -9 3.08 5.98
0 6 -9 150.06 15.64
0 6 9 127.84 14.02
0 -6 9 130.42 14.77
0 6 -9 127.82 19.27
0 -6 -9 116.56 18.8
0 -6 -9 123.13 14.46
0 6 -9 168.93 22.65
0 -6 -9 148.18 21.96
0 7 -9 1.3 2.76
0 -7 9 -1.2 2.33
0 7 9 1 2.76
0 -7 -9 -2.44 5.99
0 7 -9 4.84 6.96
0 -7 -9 2.91 7.58
0 7 -9 2.83 6.5
0 8 -9 585.92 47.74
0 8 9 555.85 46.14
0 -8 9 613.23 47.64
0 -8 -9 589.15 53.15
0 8 -9 652.77 53.99
0 -8 -9 622.1 55.79
0 8 -9 659.45 56.35
0 9 -9 5.35 3.48
0 9 9 -1 2.3
0 -9 9 -1.25 2.87
0 -9 -9 2.26 5.18
0 9 -9 13.46 6.75
0 -9 -9 -2.65 6.09
0 9 -9 12.94 7.11
0 10 9 1.03 2.19
0 -10 9 2.57 2.95
0 10 -9 6.52 6.8
0 -10 -9 4.36 5.68
0 -10 -9 5.07 6.6
0 10 -9 -2.47 5.26
0 11 9 0.72 2.09
0 11 9 -1.05 2.73
0 -11 9 -1.33 3.26
0 -11 -9 -4.23 6.09
0 11 -9 -10.51 9.48
0 -11 -9 2.45 9.01
0 11 -9 -7.06 8.67
0 12 9 9.34 3.12
0 12 -9 8.03 6.56
0 -12 -9 12.31 6.69
0 12 -9 15.75 7.07
0 -12 -9 4.68 6.13
0 13 9 -0.71 1.95
0 13 -9 -8.62 9.91
0 -13 -9 -6.74 10.33
0 14 -9 5.62 4.63
0 -14 -9 3.8 4.69
0 14 -9 6.23 6.26
0 -14 -9 10.82 6.53
0 -14 -9 9 4.54
0 15 -9 5.46 4.74
0 -15 -9 -1.85 4.81
0 -15 -9 -2.11 5.17
0 15 -9 -2.01 5.8
0 -15 -9 -1.56 3.32
0 -16 -9 442.33 40.12
0 -16 -9 460.87 41.35
0 16 -9 418.66 40.11
0 -17 -9 12.38 6.87
0 17 -9 -1.87 4.59
0 0 10 157.84 16.07
0 0 -10 110.42 20.93
0 0 -10 117.87 23.16
0 1 10 -1.26 3.29
0 -1 10 -1.29 2.97
0 1 -10 -3.35 10.48
0 -1 -10 -6.82 10.67
0 -1 -10 -4.03 13.54
0 -2 10 150.04 16.29
0 2 10 150.15 16.05
0 2 -10 158.86 23.68
0 -2 -10 120.56 23.36
0 3 10 8.37 4.43
0 -3 10 7.8 4.81
0 3 -10 6.29 7.24
0 -3 -10 2.71 3.14
0 -3 -10 15.02 10.82
0 3 -10 14.75 10.63
0 4 10 1046.16 80.26
0 -4 10 1064.64 80.98
0 4 -10 1176 91.14
0 -4 -10 1097.24 90.52
0 -4 -10 1085.35 81.39
0 4 -10 1075.85 92.61
0 -4 -10 1147.7 93.9
0 5 -10 4.09 3.74
0 -5 10 5.19 3.91
0 5 10 1.15 3.74
0 5 -10 -2.92 8.42
0 -5 -10 2.95 8.1
0 -5 -10 -1.33 3.64
0 5 -10 16.99 9.33
0 6 -10 639.32 50.99
0 6 10 618.01 49.58
0 -6 10 686.78 51.17
0 -6 -10 616.41 50.61
0 6 -10 613.18 57.8
0 -6 -10 601 57.61
0 6 -10 715.39 61.99
0 -6 -10 641.89 60.6
0 7 -10 -1.41 3.24
0 -7 10 6.53 4.09
0 7 10 3.36 3.37
0 -7 -10 -2.74 7.88
0 7 -10 2.72 6.24
0 7 -10 -3.12 7.65
0 -7 -10 -3.2 8.79
0 8 -10 301.12 28.08
0 -8 10 269.55 27.03
0 8 10 293.82 26.65
0 -8 -10 346.8 34.92
0 8 -10 343.85 34.6
0 8 -10 320.33 35.58
0 -8 -10 323.17 35.73
0 9 -10 -1.47 3.13
0 9 10 2.2 3.02
0 -9 10 -2.69 3.51
0 -9 -10 -7.61 12.27
0 9 -10 -5.06 13.55
0 10 10 56 8.86
0 -10 10 60.16 9.58
0 -10 -10 66.06 13.29
0 10 -10 29.23 10.18
0 10 -10 73.21 14.43
0 -10 -10 66.92 14.21
0 -11 10 1.4 2.98
0 11 10 1.13 3.27
0 -11 -10 -2.36 9.59
0 11 -10 -6.98 10.3
0 -11 -10 -2.66 11.09
0 11 -10 -2.61 10.86
0 -12 10 219.36 22.4
0 -12 -10 243.21 26.52
0 12 -10 183.09 24.44
0 -12 -10 235.1 27.33
0 12 -10 231.96 27.14
0 -13 -10 -10.84 8
0 13 -10 -8.64 8.4
0 13 -10 2.4 7.22
0 -13 -10 -2.47 8.03
0 -14 -10 513.15 46.58
0 14 -10 519.48 46.82
0 -14 -10 497.51 47.69
0 14 -10 550.01 48.38
0 -15 -10 6.2 5.95
0 -15 -10 -2.32 5.34
0 15 -10 6.71 5.83
0 -16 -10 287.43 29.93
0 16 -10 294.21 30.93
0 0 11 1.41 3.24
0 0 -11 3.79 8.06
0 0 -11 13.09 10.03
0 -1 11 1.43 3.73
0 1 11 6.89 4.32
0 1 -11 -3.68 11.07
0 -1 -11 18.71 12.16
0 -1 -11 -4.33 13.56
0 -2 11 515.24 44.01
0 2 11 577.42 44.26
0 2 -11 513.51 53.57
0 -2 -11 502.39 55.98
0 3 11 -1.32 3.04
0 -3 11 5.75 3.75
0 3 -11 3.97 9.75
0 -3 -11 4.04 10.52
0 -4 11 190.35 20.48
0 4 11 220.45 20.68
0 -4 -11 175.71 26.48
0 4 -11 214.5 28.48
0 -4 -11 218.14 31.02
0 4 -11 168.47 27.35
0 -5 11 1.43 3.04
0 5 11 -1.27 3.11
0 5 -11 -6.46 8.87
0 -5 -11 3.25 7.47
0 -5 -11 -3.75 7.28
0 -5 -11 -1.49 3.66
0 5 -11 -7.38 8.48
0 -6 11 127.34 15.16
0 6 11 113.33 13.87
0 6 -11 118.65 20.65
0 -6 -11 115.58 20.11
0 6 -11 119.39 21.15
0 -6 -11 160.44 24.16
0 -6 -11 109.07 14.46
0 7 11 -1.23 3.04
0 -7 -11 -12.04 15.25
0 7 -11 -3.37 16.56
0 -7 -11 -17.13 16.56
0 8 11 101.17 13.19
0 -8 -11 121.17 20.03
0 8 -11 119.99 19.4
0 -8 -11 146.57 22.77
0 8 -11 128.45 20.87
0 9 -11 -3.06 11.29
1 0 0 -1.04 0.84
-1 0 0 1.05 0.86
1 0 0 0.37 0.44
1 0 0 -0.33 0.77
-1 0 0 -0.21 0.59
-1 0 0 -0.14 0.77
1 0 0 1.05 0.82
1 -1 0 9.99 1.42
1 -1 0 8.45 1.46
1 1 0 6.6 1.4
-1 1 0 8.99 1.52
-1 -1 0 10.54 1.62
-1 1 0 10.45 1.42
1 -1 0 9.89 1.49
-1 1 0 12.58 1.51
-1 2 0 -0.19 0.82
1 2 0 -1.19 1.09
-1 -2 0 -0.18 0.89
1 -2 0 -0.2 0.78
1 -2 0 -2.08 1.01
-1 2 0 0.19 0.88
1 -2 0 -0.37 0.86
-1 2 0 0.17 0.77
-1 2 0 -0.2 0.99
-1 -3 0 5151.01 325.7
1 3 0 4678 325.47
-1 -3 0 4715.87 325.27
1 -3 0 4667.52 325.41
-1 3 0 4566.57 325.37
-1 3 0 4931.4 325.49
1 -3 0 4489.12 325.36
-1 3 0 4925.47 325.56
-1 -4 0 0.21 0.83
-1 -4 0 0.59 1.11
1 4 0 1.57 1.02
-1 4 0 0.28 0.88
1 -4 0 0.82 1.25
-1 4 0 1.63 1.25
1 -4 0 -0.26 0.81
-1 -5 0 8649.1 595.27
-1 -5 0 8395.01 594.62
1 -5 0 8765.53 595.22
-1 5 0 8852.15 595.28
-1 -5 0 8780.83 594.1
-1 5 0 8736.85 595.12
-1 -6 0 -0.39 1.35
-1 -6 0 0.17 0.71
1 -6 0 -0.39 1.31
-1 6 0 2.82 1.56
-1 -6 0 -0.32 1.19
-1 6 0 0.73 1.55
-1 7 0 1891.2 125.9
-1 -7 0 1792.83 124.18
-1 7 0 1804.78 123.62
-1 -7 0 1573.35 125.3
-1 7 0 1858.86 125.2
-1 -7 0 1839.34 125.29
-1 -7 0 1821.67 124.71
-1 7 0 1863 124.83
-1 7 0 1772.34 125.46
-1 -8 0 0.27 1.03
-1 8 0 -0.57 1.64
-1 -8 0 -1 1.68
-1 8 0 0.79 0.8
-1 8 0 -0.72 1.37
-1 -8 0 -0.76 1.41
-1 -8 0 0.83 1.18
-1 8 0 0.88 1.08
-1 8 0 -1.42 1.88
-1 9 0 45.72 5.91
-1 -9 0 35.08 4.58
-1 -9 0 42.07 5.3
-1 9 0 41.96 3.81
1 9 0 43.2 5.17
-1 -9 0 45.52 4.81
-1 9 0 47.57 4.8
-1 -9 0 51.24 4.47
-1 -9 0 36.35 4
-1 9 0 41.49 5.45
-1 9 0 42.73 4.43
-1 10 0 -0.67 1.85
-1 -10 0 0.39 1.3
1 10 0 0.4 1.1
1 -10 0 -0.55 1.65
-1 10 0 -0.35 0.77
-1 -10 0 2.49 1.67
-1 -10 0 -0.34 1.1
-1 10 0 0.32 1.21
-1 10 0 -0.55 1.73
-1 -10 0 0.22 0.93
-1 -10 0 0.23 0.95
-1 10 0 -0.52 1.12
1 -11 0 54.56 6.33
-1 11 0 55.98 6.69
-1 -11 0 43.95 5.15
1 11 0 59.39 6.01
1 11 0 37.67 5.52
-1 -11 0 48.25 5.77
-1 -11 0 49.28 4.89
-1 11 0 43.87 4.68
1 11 0 38.67 4.35
-1 -11 0 53.53 4.45
-1 11 0 55.44 6.41
-1 -11 0 55.6 4.62
-1 11 0 43.97 4.52
1 11 0 42.52 4.61
1 12 0 1.07 1.74
1 -12 0 -1.19 1.86
-1 -12 0 0.41 1.11
-1 12 0 -0.69 1.79
-1 -12 0 0.51 1.39
1 12 0 3 1.8
1 -12 0 -0.41 0.89
-1 -12 0 0.22 0.87
1 12 0 0.25 0.65
-1 -12 0 -0.24 0.94
-1 12 0 -0.18 0.82
-1 12 0 0.58 1.73
1 12 0 0.36 0.88
1 -12 0 0.21 0.94
1 13 0 2829.48 190.41
-1 -13 0 2801.68 189.7
1 13 0 2315.98 189.46
1 -13 0 2916.45 190.33
-1 -13 0 2827.94 189.22
-1 13 0 2793.67 190.74
-1 -13 0 2742.22 188.12
-1 -14 0 -0.51 1.53
1 14 0 -0.65 1.39
1 -14 0 -0.62 1.79
-1 14 0 0.72 1.64
-1 -14 0 1.36 1.62
1 14 0 0.6 1.48
1 15 0 2250.91 147.85
-1 -15 0 2071.36 146.25
1 15 0 2119.44 147.34
1 -15 0 2043.32 147.19
-1 15 0 2077.39 147.8
1 16 0 -0.71 1.73
-1 -16 0 0.95 1.64
1 -16 0 -0.65 1.87
-1 16 0 -1.51 1.85
1 17 0 674.38 48.77
-1 17 0 670.96 49.08
-1 -17 0 630.06 47.31
1 18 0 -1.53 2.39
-1 -18 0 1.54 1.61
-1 18 0 -0.83 2.05
1 19 0 50.65 7.03
-1 19 0 45.96 5.76
-1 -19 0 56.22 6.52
-1 19 0 54.19 7.51
1 -19 0 54.89 7.24
-1 -20 0 -1.1 1.72
-1 20 0 3.95 2.97
1 -20 0 0.81 2.11
-1 21 0 1.56 1.81
1 21 0 3.19 2.5
-1 21 0 5.28 3.18
1 -21 0 -0.82 2.15
-1 22 0 1.06 1.59
1 22 0 0.81 2.34
-1 22 0 -1.16 2.67
1 -22 0 2.52 2.52
1 23 0 618.25 41.48
-1 23 0 469.88 38.99
-1 23 0 624.61 43.37
1 -23 0 499.87 40.71
1 24 0 2.52 2.74
-1 24 0 0.56 1.89
-1 24 0 1.1 2.7
1 -24 0 7.76 3.18
-1 25 0 510.17 42.72
1 25 0 617.75 44.87
-1 25 0 686.35 46.96
1 -25 0 595.69 44.85
1 26 0 -3.42 2.78
-1 26 0 1.1 2.88
1 -26 0 -0.89 2.78
1 27 0 39.88 6.75
-1 27 0 54.44 8.23
1 -27 0 36.7 6.58
1 0 -1 0.12 0.58
1 0 1 0.13 0.68
1 0 1 -0.18 0.97
1 0 1 0.29 1.53
1 0 1 0.29 0.7
1 0 -1 -0.44 0.71
-1 0 1 -0.14 0.69
1 0 -1 0.36 0.63
-1 0 -1 -0.67 2.61
1 0 1 0.63 2.58
1 0 1 -0.3 1.6
-1 0 -1 -0.5 2.07
1 0 1 -0.28 0.7
1 0 1 0.38 0.72
1 0 1 2.87 2.32
1 -1 1 49.15 4.55
1 1 -1 46.53 3.92
-1 1 1 44.52 3.92
1 -1 -1 45.23 3.65
1 -1 1 42.77 3.74
1 1 1 54.72 3.8
1 -1 1 40.03 4.25
1 -1 1 43.17 3.73
-1 -1 1 47.04 4.19
1 1 1 54.48 4.14
1 1 1 45.79 4.82
1 -1 -1 44.85 4.02
1 -1 1 45.52 4.15
1 1 1 41.85 3.39
1 1 1 42.43 3.67
1 1 -1 40.42 3.63
-1 -1 -1 40.99 5.81
-1 1 -1 47.74 4.35
-1 1 -1 36.95 5.63
1 -1 1 52.12 6.14
1 1 1 35.48 5.59
1 -1 -1 50.55 3.98
1 -1 1 38.71 4.77
-1 1 -1 38.29 5.08
1 1 1 43.59 5.37
1 1 1 52.07 3.78
1 1 1 47.13 4.31
1 -1 1 43.06 5.41
-1 -1 -1 51.95 5.62
-1 1 1 45.33 4.08
1 -2 1 39.06 3.52
1 -2 1 40.48 3.86
1 -2 1 38.07 4.37
-1 -2 -1 38.9 4.26
1 2 1 44.82 4.78
1 2 1 43.49 3.94
-1 -2 -1 36.06 3.09
-1 2 -1 43.84 3.31
1 2 -1 42.17 4.01
1 -2 1 41.65 3.3
1 -2 1 33.85 3.62
1 2 1 38.26 3.1
-1 -2 1 35.2 3.72
1 -2 -1 46.44 3.83
-1 -2 -1 50.34 5.94
1 2 1 41.19 3.47
-1 2 -1 41.05 4.07
1 -2 1 51.61 5.9
-1 -2 1 39.46 3.39
-1 -2 -1 40.25 3.24
-1 2 1 38.46 3.73
1 2 1 53.89 5.44
-1 2 -1 35.04 4.62
1 2 1 39.36 3.27
1 2 1 43.9 3.61
-1 2 -1 45.55 5.14
1 -2 1 32.97 4.51
1 -2 -1 45.53 3.89
1 -3 1 421.97 29.04
-1 3 -1 350.08 29.51
1 -3 1 394.48 29.71
-1 3 1 389.49 28.89
1 -3 1 357.03 28.29
1 3 1 450.04 29.3
1 3 1 347.98 29.74
-1 -3 -1 326.58 29.28
-1 -3 -1 396.52 28.15
1 -3 -1 393.38 28.78
-1 -3 1 425.82 28.93
-1 3 -1 430.7 28.11
-1 -3 -1 470.6 31.42
-1 -3 -1 390.22 28.48
-1 3 -1 425.72 29.27
1 -3 1 443.1 30.99
-1 -3 -1 397.27 28.07
-1 3 -1 484.38 30.61
1 -3 1 408.34 30.06
1 3 1 434.49 28.14
1 3 1 447.88 30.28
-1 3 1 416.82 28.81
-1 3 -1 381.26 29.85
-1 4 -1 59.33 4.94
1 -4 1 57.84 5.9
-1 4 -1 51.32 5.79
-1 4 1 52.08 5.03
1 4 1 72.66 5.84
-1 -4 1 58.61 5.14
-1 -4 -1 51.99 5.78
-1 -4 -1 54.08 4.54
-1 4 -1 54.63 4.25
1 4 1 47.5 5.82
1 -4 -1 51.21 5.02
-1 4 -1 59.41 5.6
1 4 1 56.64 6.49
-1 -4 -1 61.97 6.83
1 -4 1 59.95 6.54
-1 4 1 59.8 5.05
-1 4 -1 68.03 6.33
-1 4 -1 50.34 5.94
1 -4 1 64.2 6.33
1 -4 1 57.17 6.01
1 4 1 50.82 5.85
-1 5 -1 2.81 1.42
1 -5 1 1.8 1.95
-1 5 1 1.7 1.19
1 -5 -1 1.46 1.2
1 5 1 4.27 1.62
1 5 1 3.47 2.02
-1 -5 -1 2.04 1.55
-1 -5 1 2 0.98
-1 -5 -1 1.69 1.83
1 -5 1 -0.48 1.79
-1 5 -1 0.56 1.96
1 5 1 -0.5 1.9
1 5 1 6.62 2.21
1 -5 1 2.3 1.57
-1 5 -1 1.27 1.57
1 5 1 1.54 1.5
-1 5 1 1.91 1.03
-1 -5 -1 5.61 1.78
1 -5 1 2.38 1.81
-1 6 1 441.36 31.89
1 -6 1 461.1 32.8
1 6 1 480.95 30.73
-1 6 -1 434.55 32.86
-1 -6 1 404.92 31.29
-1 -6 -1 416.35 30.57
-1 -6 -1 476.67 32.62
1 6 1 358.33 32.15
-1 -6 1 395.1 31.31
1 -6 1 482.45 32.78
1 -6 1 424.71 32.56
1 6 1 427.53 32.62
1 6 1 424.19 32.33
-1 -6 -1 478.95 33.2
-1 6 -1 452.43 33.04
1 -6 1 443.89 32.15
-1 -6 -1 452.49 32.23
1 6 1 477.87 32.9
1 -6 1 508.02 33.13
-1 6 -1 456.32 32.3
1 6 1 431.59 32.08
-1 -7 1 184.46 13.64
1 -7 1 171.38 14.67
-1 -7 -1 150.02 12.76
-1 7 -1 172.8 14.75
1 7 1 191.8 13.11
-1 7 1 164.41 13.81
1 7 -1 181.74 13.96
-1 -7 -1 186.92 14.51
-1 -7 1 159.44 13.33
-1 -7 -1 186.88 14.85
-1 7 -1 200.18 15.02
1 -7 1 184.44 14.39
1 7 1 183.17 14.16
1 7 1 180.15 14.46
1 -7 -1 176.22 13.82
-1 -7 -1 186.57 14.11
1 -7 1 184.52 14.63
-1 7 1 159.1 13.49
-1 7 -1 189.73 14.24
-1 8 1 329.1 23.4
-1 8 -1 329.48 24.32
-1 -8 1 347.75 23.02
1 8 1 299.81 22.45
-1 -8 1 295.8 22.9
-1 -8 1 297.23 22.59
1 8 -1 344.89 23.36
-1 -8 -1 358.55 23.92
-1 8 -1 344.1 23.91
1 -8 1 349.79 23.53
-1 -8 -1 344.34 23.93
1 8 1 326.19 23.12
-1 8 -1 335.76 23.27
1 8 1 308.24 23.35
-1 -8 -1 331.66 23.15
-1 8 1 316.82 22.97
1 -8 -1 348.93 23.35
1 -8 1 318.24 23.52
-1 9 1 42.04 4.78
1 -9 -1 34.69 4.61
-1 -9 -1 24.8 3.51
1 9 1 26.67 3.81
-1 -9 1 27.98 3.83
-1 9 -1 37.92 5.13
1 9 -1 42.42 4.63
-1 -9 1 36.15 4.29
1 9 1 38.18 4.8
1 9 1 33.16 4.05
-1 9 -1 33.84 4.59
1 -9 1 39.22 4.62
-1 -9 -1 44.16 4.93
-1 9 -1 33.51 4.2
1 -9 1 35.77 4.73
-1 9 1 34.59 4.18
1 9 1 31.82 4.4
1 -9 1 37.2 4.64
1 -9 -1 40.57 4.49
1 -10 -1 4.62 2.08
-1 10 -1 5.58 2.25
1 10 1 10.85 2.39
-1 -10 1 5.45 1.59
-1 10 1 1.6 1.58
-1 -10 -1 5.54 1.66
1 10 -1 7.8 2.19
-1 -10 1 7.3 2.11
1 10 1 6.5 2.24
1 -10 1 4.55 1.65
1 10 1 5.94 1.61
1 -10 1 2.75 1.89
-1 10 1 5.73 1.98
1 -10 -1 5.3 1.91
1 10 1 5.03 1.91
1 -10 1 5.51 2.11
-1 11 1 283.31 21.74
1 -11 -1 227.51 21.04
-1 11 -1 283.24 22
1 11 1 302.95 20.95
-1 -11 -1 274.04 20.17
-1 -11 1 271.52 20.69
-1 -11 1 253.21 20.88
1 11 -1 269.67 21.27
1 11 1 310.74 22.03
-1 11 1 265.76 20.03
1 11 1 288.07 21.52
1 -11 1 257.79 19.99
1 11 1 263.19 19.77
1 11 1 261.7 20.3
-1 11 1 265.34 20.89
1 -11 -1 266.07 21.26
1 -11 1 310.56 21.8
1 -11 1 246.71 20.18
-1 12 1 4.17 2.44
1 12 1 5.63 1.76
1 -12 1 11.42 2.83
1 -12 1 7.52 1.93
-1 12 -1 5.47 2.47
-1 -12 1 6.5 2.24
1 -12 -1 6.82 2.55
1 12 1 7.55 2.11
-1 -12 -1 4.87 1.64
1 12 1 5.59 2.12
-1 -12 1 6.08 2.18
1 12 1 7.8 2.35
1 12 -1 9.48 2.6
-1 12 1 1.4 1.16
1 12 1 5.2 1.45
1 -12 1 5.84 1.58
-1 -12 1 4.1 1.29
1 -12 -1 7.71 2.55
-1 -12 1 4.51 1.85
1 -12 1 7.5 2.63
-1 12 1 4.68 2.29
-1 -13 1 232.81 18.84
1 -13 -1 248.6 19.31
1 -13 1 325.26 20.19
-1 13 -1 288.4 20.41
1 13 1 358.18 19.51
-1 -13 -1 297.31 18.3
-1 13 1 253.13 20.17
-1 -13 1 222.43 18.84
1 13 1 348.97 20.69
-1 13 1 184.03 17.52
1 13 -1 199.14 18.72
1 13 1 326.39 19.77
-1 -13 1 232 17.06
-1 13 1 174.16 16.64
1 13 -1 200.78 16.44
1 -13 1 292.16 17.17
-1 13 1 239.84 19.09
-1 13 1 214.13 16.72
1 -13 1 315.99 19.91
-1 -13 1 213.69 18.07
1 -13 -1 174.93 18.39
1 13 -1 230.02 16.92
-1 -13 1 205.84 16.42
1 -14 1 27.81 4.37
-1 14 1 17.99 4.14
1 -14 -1 27.8 4.46
1 14 1 31.86 4.28
-1 14 -1 26.62 4.68
-1 -14 -1 28.85 3.52
-1 -14 1 14.08 3.3
-1 14 1 21.34 3.06
1 14 -1 11.34 3.28
-1 -14 1 21.5 3.84
1 14 1 25.78 4.4
1 -14 -1 11.25 1.78
1 -14 1 29.28 4.33
-1 -14 1 27.06 3.77
-1 14 1 23.93 4.15
1 -14 -1 23.14 4.13
-1 -15 1 118.66 11.28
1 15 -1 132.51 11.96
-1 15 1 113.06 10.1
1 15 1 120.82 11.76
-1 15 -1 111.44 9.97
-1 -15 -1 121.26 10.6
1 -15 1 132.6 12.04
1 15 1 149.5 11.63
-1 15 -1 125.67 12.51
-1 15 1 114.43 12.29
-1 -15 1 117.84 11.51
1 -15 -1 117.63 11.78
-1 -15 1 110.94 10.53
1 -15 -1 130.76 11.97
-1 15 1 126.9 11.96
1 -15 1 118.5 11.41
1 16 -1 14.67 3.47
1 16 1 12.83 3.31
-1 -16 1 12.35 2.91
-1 16 -1 11.61 2.33
-1 16 1 12.88 2.38
-1 -16 1 12.47 3.15
1 16 1 15.12 3.22
1 -16 -1 10.13 3.26
-1 16 1 7.27 3
-1 -16 -1 10.99 2.52
-1 16 -1 14.09 4.12
-1 -16 1 9.05 2.4
1 -16 1 16.09 3.41
1 -16 -1 10.63 3.24
1 17 -1 248.41 19.35
-1 17 -1 210.4 17.13
-1 -17 1 215.13 18.33
1 17 1 231.1 19.13
-1 17 1 205.87 19.17
-1 -17 -1 215.43 17.89
-1 -17 1 226.78 18.68
1 17 1 235.98 18.57
-1 17 -1 261.11 20.85
-1 -17 1 217.77 17.48
1 -17 -1 211.88 18.86
-1 -18 1 12.15 3.23
1 18 -1 13.91 3.56
1 18 1 11.29 3.22
-1 18 -1 13.56 2.45
-1 -18 -1 10.56 2.71
-1 18 -1 12.12 4.09
-1 18 1 9.75 3.16
-1 -18 1 6.17 2.62
1 18 1 9.68 2.88
-1 -18 1 10.86 2.6
1 -18 -1 11.12 3.3
-1 19 -1 74.67 7.9
1 19 1 98.43 10.07
1 19 -1 91.77 9.84
-1 19 1 89.43 10.02
1 19 1 91.27 9.38
-1 -19 -1 77.42 8.53
1 -19 -1 85.98 9.67
1 20 -1 23.57 4.49
1 20 1 16.14 4.15
-1 20 -1 10.87 2.65
-1 20 1 18.74 4.43
-1 -20 -1 14.64 3.34
-1 20 -1 14.95 4.56
1 -20 -1 13.85 3.68
1 21 1 388.78 29.2
-1 21 -1 296.91 26.46
1 21 -1 403.47 29.01
-1 21 -1 411.31 30.77
-1 -21 -1 337.9 27.4
-1 21 1 383.69 29.52
1 -21 -1 363.73 28.64
-1 22 1 14.12 3.47
1 22 1 7.79 4.23
-1 22 -1 21.54 3.49
1 22 -1 14.96 4.17
-1 22 -1 26.82 5.87
-1 22 1 22.82 5.31
1 -22 -1 23.79 4.57
-1 23 -1 102.46 10.21
-1 23 1 106.1 10.97
1 23 -1 138.49 12.54
1 23 1 132.55 12.79
-1 23 1 139.09 13.75
-1 23 -1 126.01 13.6
1 -23 -1 108.2 11.75
-1 -23 -1 97.21 10.38
1 24 -1 12.59 3.53
-1 24 1 6.58 2.85
-1 24 1 17.91 5.41
-1 24 -1 14.39 4.64
1 -24 -1 6.47 3.11
1 -24 1 12.15 3.76
-1 25 1 187.09 17.95
1 25 1 231.53 19.93
1 25 -1 213.57 19.07
-1 25 -1 222.9 21.22
-1 25 1 252.43 21.63
1 -25 1 196.07 19.33
1 -25 -1 229.29 19.36
-1 26 1 -2.01 2.4
1 26 -1 -0.78 2.44
-1 26 1 4.44 3.61
-1 26 -1 -1.13 2.95
1 -26 -1 -0.82 2.25
1 -26 1 2.88 3
1 27 1 73.32 8.65
1 -27 1 52.24 7.86
1 0 2 9.51 1.86
1 0 -2 7.22 1.86
1 0 2 6.64 1.91
1 0 -2 6.01 1.62
-1 0 2 4.54 1.18
1 0 2 6.64 3.98
1 0 2 8.42 4.41
-1 0 -2 12.9 4.83
1 0 2 8.54 2.1
-1 0 -2 13.12 4.18
-1 0 -2 11.19 3.7
1 0 2 8.74 3.68
1 0 -2 11.07 1.88
1 0 2 7.6 1.79
-1 0 -2 15.57 4.53
1 0 2 11.87 4.63
1 -1 2 7899.64 502.45
1 -1 -2 7192.7 502.17
1 1 -2 7331.4 501.45
1 1 2 9999 502.48
1 1 -2 7607.04 502.41
1 -1 2 7141.43 502.25
1 1 2 7455.63 502.46
-1 1 2 7601.82 502.32
1 1 2 7170.95 501.82
1 -1 -2 7648.82 502.43
1 -1 2 7737.71 502.85
1 -1 -2 7620.62 502.4
1 1 -2 7129.21 502.15
1 -1 2 6152.14 504.43
-1 1 -2 6690.39 505.87
-1 1 -2 7620.37 505.55
-1 -1 -2 6376.8 505.65
-1 -1 -2 6142.86 504.77
1 1 2 6277.64 505.35
1 1 2 7172.15 502.16
1 -1 2 7797.52 502.47
1 1 2 7223.78 504.86
1 -1 2 7012.31 505.84
1 1 2 5956.1 503.95
1 -1 2 7095.4 504.5
-1 1 -2 7653.41 506.12
-1 -1 -2 7090.78 504.79
1 -1 2 6210.35 504.87
-1 -1 -2 6571.6 505.4
1 1 2 6959.33 505.32
-1 1 -2 6286.38 504.48
-1 2 2 5.71 1.58
1 2 -2 4.04 1.4
1 2 2 3.71 0.91
1 -2 2 2.2 1.14
1 -2 2 4.92 1.61
-1 2 2 4.85 1.41
1 2 2 3.56 0.96
1 2 -2 4.68 0.83
-1 -2 -2 3.96 1
1 -2 2 3.89 1.24
1 -2 2 3.95 0.87
-1 -2 2 4.44 1.43
1 -2 -2 6.48 1.66
1 2 2 2.72 1.06
-1 -2 2 4.04 1.03
1 -2 2 5.23 1.74
-1 2 -2 6.77 2.94
1 -2 2 7.68 3.72
-1 2 -2 3.46 1.48
-1 -2 -2 4.59 3.3
1 2 2 4.73 2.95
1 -2 -2 4.54 1.42
-1 -2 -2 2.58 3.1
-1 2 -2 5.63 2.94
1 -2 2 3.16 3.16
1 2 2 7.58 3.07
-1 2 2 4.72 1.37
-1 -2 2 4.14 1.28
-1 3 2 265.47 19.05
1 3 -2 256.12 19.37
1 -3 2 277.56 19.71
1 -3 2 239.35 18.95
1 -3 2 266.05 19.18
1 -3 2 259.17 18.05
-1 -3 2 260.72 19.08
-1 -3 -2 237.61 18.51
1 -3 -2 263.32 19.31
-1 3 2 253.05 19.23
1 3 2 266.87 18.69
-1 3 -2 241 18.97
1 3 2 263.52 19.07
-1 -3 -2 290.16 22.74
1 -3 2 277.24 19.75
1 -3 2 311.29 22.73
1 -3 -2 275.11 19.45
1 3 2 321.24 21.87
1 3 -2 248.53 18.56
-1 -3 2 246.47 18.95
-1 3 -2 267.58 19.81
-1 -3 2 260.18 18.46
-1 3 2 255.81 18.94
1 -3 2 285.39 22.12
-1 3 -2 318.54 21.95
1 3 2 289.97 21.3
1 3 2 242.52 17.99
1 4 -2 2.18 1.45
1 -4 2 2.91 1.29
1 -4 2 1.19 1.38
1 -4 -2 3.43 1.31
1 4 2 0.58 0.66
-1 -4 -2 2.42 0.93
1 4 2 2.54 1.38
-1 4 -2 1.31 0.97
-1 -4 2 2.35 1.18
1 -4 2 1.71 1
-1 4 2 2.88 1.08
1 4 -2 -0.2 0.83
-1 -4 -2 3.37 2.54
1 -4 2 1.56 2.44
-1 -4 -2 3.47 1.26
-1 4 -2 3.39 1.52
1 -4 2 3.9 2.83
1 -4 2 2.69 1.5
1 -4 -2 2.73 1.3
1 4 2 5.64 2.97
1 4 2 -1.84 2.07
1 -4 2 0.74 2.67
1 4 2 1.47 2.64
-1 4 -2 5.88 2.6
1 -4 2 1.14 2.39
1 4 2 1.19 2
-1 4 2 2.74 1.13
-1 5 -2 89.97 8.24
-1 5 -2 72.07 6.75
-1 5 2 70.69 6.68
1 5 2 67.56 5.44
1 -5 2 66.59 7.4
-1 5 -2 68.17 6.48
-1 -5 -2 74.69 6.26
-1 5 2 77.19 6.92
-1 -5 2 81.73 6.65
1 5 2 96.21 7.99
1 5 -2 72.99 6.75
1 -5 -2 65.01 6.66
-1 5 -2 66.23 7.1
1 5 -2 78.7 6.38
1 5 2 85 9.13
1 -5 2 73.58 8.78
1 5 2 93.01 8.54
1 -5 2 89.93 8.69
-1 -5 -2 81.27 6.88
1 -5 2 83.18 8.12
1 -5 -2 74.22 6.51
-1 5 2 74.94 6.46
1 5 2 82.99 8.2
1 -5 2 76.64 7.93
1 -5 2 92.98 9.22
1 5 2 70.39 8.53
-1 6 2 2.1 1.3
-1 6 -2 1.24 1.94
1 6 2 1.44 0.58
1 -6 2 2.69 2.2
-1 6 -2 0.38 1.04
-1 6 -2 1.87 1.19
-1 -6 -2 1.24 0.99
-1 -6 2 2.32 1.16
1 6 -2 3.37 1.44
1 -6 -2 1.45 1.3
1 6 -2 1.7 1.16
-1 -6 -2 2.12 1.27
1 -6 2 1.43 2.23
1 6 2 3.28 2.02
1 -6 2 0.59 2
1 6 2 0.75 2.15
-1 6 -2 2.43 1.74
1 -6 2 0.53 1.83
1 6 2 0.69 2.38
1 -6 2 3.04 2.05
-1 6 2 1.35 1.03
1 -6 2 -0.69 2.33
1 6 2 3.3 2.35
1 -6 -2 1.46 1.08
1 7 2 382.14 25.85
-1 -7 2 346.71 26.87
1 -7 2 313.22 27.82
-1 7 -2 384.72 27.48
-1 7 -2 309.77 28.19
-1 7 -2 371.48 26.93
-1 7 2 342.4 26.85
1 -7 -2 358.42 27.16
1 7 -2 365.05 26.96
-1 -7 2 372.87 26.65
-1 -7 -2 348.3 26.48
1 7 2 363.3 27.79
-1 7 -2 372.12 28.03
1 -7 2 402.63 28.29
1 7 2 383.74 29.02
1 -7 2 366.27 28.56
1 7 2 412.15 28.2
1 -7 2 419.58 29
-1 7 2 356.13 26.54
1 7 2 390.32 28.71
1 -7 2 357.17 27.66
1 -7 -2 361.27 26.67
1 -8 2 -1.25 2.03
-1 -8 2 0.8 1.34
-1 8 -2 0.48 1.19
-1 8 -2 1.48 1.82
1 -8 2 3.28 1.97
1 8 2 -0.62 2.21
-1 8 2 0.41 1.17
1 8 2 0.22 0.85
-1 8 -2 -0.41 1.23
-1 -8 2 -0.3 0.98
1 8 -2 2.7 1.42
-1 -8 -2 1.64 1.21
1 -8 -2 -0.45 1.29
1 -8 2 0.62 1.62
1 8 2 -0.47 1.54
1 8 2 0.65 1.89
-1 8 -2 0.61 1.5
1 -8 2 -0.52 1.74
1 8 2 -0.98 1.64
1 -8 -2 3.46 1.44
1 -8 2 0.47 1.46
-1 -9 2 5687.95 339.99
-1 9 -2 5228.5 341.97
1 9 2 5322.38 338.49
1 -9 2 4602.89 340.59
-1 9 2 5215.53 339.72
1 9 -2 5679.58 339.59
-1 -9 -2 5221.36 339.31
1 -9 -2 5352.85 339.98
1 -9 2 4160.21 337.47
-1 -9 2 4931.95 338.7
1 9 2 4995.23 339.61
1 -9 2 5248.23 339.95
1 -9 2 4934.08 340.34
1 9 2 5072.85 340.62
-1 9 -2 4988.72 341.2
1 -9 2 4993.67 339.58
1 -9 -2 5359.57 339.35
1 9 2 5167.66 339.72
1 9 2 5041.17 340.45
1 -9 2 5267.65 340.57
1 10 2 3.51 2.27
-1 10 2 1.46 1.47
1 10 2 2.11 1.16
-1 -10 2 1.44 1.45
-1 10 -2 2.53 2.2
1 -10 2 1.13 1.78
1 10 2 1.48 1.7
1 -10 2 1.26 0.88
1 -10 -2 2.8 1.95
-1 -10 2 4.21 1.49
-1 -10 -2 2.18 1.42
1 10 -2 1.78 1.45
-1 10 -2 0.9 0.66
1 -10 2 2.72 1.85
1 10 2 3.39 1.9
1 -10 2 1.07 1.75
1 10 2 2.13 1.66
1 -10 2 2.52 1.72
1 -10 2 3.62 2.09
1 -10 -2 4.61 1.75
-1 10 2 2.56 1.46
1 10 2 3.84 1.78
-1 11 -2 2792.76 158.75
-1 -11 2 2390.03 155.29
1 11 2 2520.57 154.35
-1 11 2 2454.16 155.8
-1 -11 -2 2460.44 155.58
1 11 2 2028.47 156.19
1 -11 2 2123.69 153.04
-1 11 -2 1961.54 153.23
1 -11 -2 2479.04 156.47
1 11 -2 2463.77 155.5
1 -11 2 2403.89 155.05
1 11 2 2265.03 154.8
1 11 2 2007.13 155.07
1 -11 2 2050.61 155
1 11 2 2133.76 154.6
1 -11 2 2295.24 155.53
-1 11 2 2411.47 154.86
1 -11 2 2083.72 154.57
1 -11 2 2368.16 156.74
1 -11 -2 2519.98 155.42
1 11 2 2229.76 155.59
1 12 2 3.23 2.19
1 12 2 1.94 1.38
-1 12 -2 1.96 2.25
1 -12 2 -0.51 1.76
-1 12 2 -1.84 1.68
-1 -12 2 0.49 1.36
-1 -12 2 1.8 1.47
1 12 2 1.46 1.9
-1 12 -2 1.96 1.01
-1 -12 -2 1.68 1.54
1 12 -2 3.19 1.79
1 -12 2 0.41 1.5
1 12 -2 0.83 1.58
1 -12 -2 -0.51 1.25
-1 12 2 1.73 1.41
1 -12 2 -0.71 1.85
-1 -13 2 189.15 14.66
-1 13 -2 231.88 17.84
1 -13 2 214.97 15.83
-1 13 2 193.61 15.17
1 13 2 220.8 13.95
-1 -13 -2 183.53 14.92
-1 13 2 174.2 13.76
1 13 2 185.72 15.31
-1 13 -2 96.47 12.08
-1 -13 2 169.27 14.07
1 13 -2 179.51 14.54
1 -13 -2 156.31 13.49
1 13 -2 170.8 13.31
1 -13 -2 194.02 14.69
1 -13 -2 155.28 14.18
1 13 -2 149.09 13.65
-1 13 2 193.85 14.22
1 -13 2 206.03 15.66
1 -14 2 2.13 2.22
-1 14 2 0.75 1.72
-1 -14 2 -0.62 1.94
1 14 2 1.26 1.47
1 14 -2 0.36 1.5
-1 14 -2 0.97 2.07
1 -14 -2 -1.4 1.85
1 14 -2 1.88 1.8
-1 -14 -2 0.69 1.81
-1 14 -2 1.81 1.05
-1 -14 2 0.55 1.67
-1 14 2 3.37 1.96
1 14 2 2.82 2.12
1 -14 -2 1.4 1.46
1 14 -2 1.16 1.18
1 -14 2 2.85 2.05
-1 14 2 0.53 2.04
1 -14 -2 2.43 1.91
1 15 2 75.72 6.83
-1 15 2 68.48 8.1
-1 -15 2 61.12 7.3
-1 15 -2 88.34 9.39
-1 15 2 50.96 6.12
-1 -15 2 59.74 6.8
-1 -15 -2 54.52 7.08
1 15 -2 46.63 6.51
-1 15 -2 47.49 4.93
1 15 2 71.22 7.73
1 15 2 68.46 7.51
1 -15 -2 41.34 4.96
1 15 -2 33.32 4.46
-1 -15 2 51.94 6.69
1 -15 -2 44.33 5.25
-1 15 2 64.39 6.97
1 -15 -2 48.18 6.4
1 15 -2 40.98 4.81
1 -15 2 59.5 7.19
-1 -16 2 0.78 2.04
-1 16 -2 1 2.76
-1 16 2 -0.94 2.45
1 16 2 3.86 1.85
1 16 -2 1.41 2.03
-1 -16 2 2.7 2.27
1 16 2 6.87 2.65
-1 -16 -2 -0.77 2.31
-1 16 -2 0.31 1.19
-1 16 2 2.95 1.85
1 16 2 4.2 2.36
1 -16 -2 0.56 0.98
1 -16 -2 0.22 1.06
-1 16 2 -0.17 0.88
1 -16 -2 -0.71 1.94
-1 16 2 0.92 0.78
-1 -16 2 1.36 2.12
1 -16 2 1.45 2.18
1 17 2 468.67 33.28
1 17 -2 392.73 32.78
-1 -17 2 384.72 32.57
-1 17 -2 403.4 30.93
1 17 2 458.86 33.62
-1 17 2 386.72 31.98
-1 -17 2 420.65 33.68
1 17 2 555.42 32.88
-1 17 -2 525.49 35.64
-1 17 2 406.1 34.1
-1 17 2 403.66 32.88
1 -17 -2 407.59 32.87
-1 -17 2 408.65 32.63
-1 -17 -2 417.96 31.14
1 -17 2 482.41 33.61
-1 -18 2 -1.86 3.85
-1 18 -2 1.71 1.57
1 18 -2 1.44 2.17
1 18 2 2.42 2.33
-1 18 2 2.56 1.89
-1 18 -2 5.2 3.13
1 18 2 3.23 2.04
-1 18 2 1.86 2.43
1 -18 -2 2.17 2.35
1 -18 2 -0.73 1.91
-1 -18 2 3.03 2.17
-1 -18 -2 1.15 1.41
-1 18 2 -0.66 4.36
-1 19 -2 998.72 75.73
1 19 -2 1147.87 78.06
1 19 2 1102.1 78.46
-1 19 2 1030.37 76.4
-1 -19 2 1090.21 77.35
-1 19 2 1142.22 78.95
-1 19 -2 1263.24 80.5
1 19 2 1172.08 77.19
1 -19 2 1096.97 77.99
-1 -19 -2 997.11 75.86
1 -19 -2 1070.84 77.82
-1 -19 2 1137.57 77.18
1 20 -2 0.73 2.29
-1 20 -2 0.37 1.49
1 20 2 3.37 2.53
1 20 2 0.57 1.84
-1 20 2 -0.89 2.56
-1 20 -2 4.31 2.81
1 -20 -2 0.74 1.81
-1 -20 2 3.89 2.31
1 -20 2 -0.75 2.25
-1 -20 -2 -0.82 1.34
-1 21 -2 739.75 55.56
1 21 -2 854.96 57.98
1 21 2 762.12 58.15
1 21 2 835.04 57.03
-1 21 -2 823.67 59.84
-1 21 2 833.27 58.72
-1 -21 -2 751.89 55.85
-1 -21 2 751.32 56.51
1 -21 -2 816.23 57.82
-1 22 -2 0.74 1.47
1 22 -2 0.73 2.2
1 22 2 0.88 2.65
-1 22 2 -0.9 2.22
-1 22 -2 2.23 3.07
1 -22 -2 5.24 2.68
-1 -22 -2 0.44 1.32
-1 -22 2 -1.03 1.99
1 23 2 4.51 2.73
1 23 -2 5.1 2.63
-1 23 -2 7.95 3.71
-1 23 2 5.66 3.4
1 -23 -2 4.52 2.47
-1 -23 -2 4.41 2.12
1 24 -2 0.72 2.35
-1 24 2 3.15 2.46
1 24 2 -0.93 3.44
-1 24 2 1.03 2.97
-1 24 -2 -1.16 2.85
1 -24 -2 -0.76 2.94
1 25 -2 33.31 5.66
1 25 2 41.24 6.78
-1 25 2 36.5 5.95
-1 25 -2 37.88 8.51
1 -25 -2 32.66 5.77
1 26 2 -5.06 3.63
-1 26 2 -1.58 2.39
-1 26 2 -3.64 2.99
1 -26 2 -2.09 3.02
1 27 2 91.36 11.49
1 -27 2 112.93 12.44
1 0 3 1.15 3.31
1 0 3 0.71 1.16
1 0 3 1.94 1.32
-1 0 3 -0.36 1.3
1 0 -3 0.36 0.98
-1 0 3 0.35 0.53
1 0 3 0.29 0.95
1 0 3 -0.42 1.46
1 0 3 -0.9 3.12
1 0 3 1.19 3.1
-1 0 -3 -1.04 2.56
-1 0 -3 1.18 2.9
1 0 -3 1.04 1.04
1 0 3 -0.89 2.55
1 0 3 1.36 1.02
1 -1 3 351.83 27.37
1 1 -3 375.83 27.61
-1 1 3 394.73 27.65
1 -1 3 447.65 27.8
1 1 3 377.68 26.92
1 1 3 371.92 27.62
1 -1 -3 368.18 27.4
1 -1 -3 367.48 27.4
1 1 3 355.04 26.92
-1 1 3 400.94 27.72
1 -1 3 334.2 31.04
1 -1 3 381.54 27.57
-1 1 -3 388.59 30.99
-1 -1 -3 367 30.78
1 -1 3 301.06 29.48
1 1 3 380.3 30.25
1 1 3 351.63 31.32
1 1 -3 355.71 27.28
1 1 3 387.39 27.43
-1 -1 3 375.25 27.39
1 -1 -3 379.32 27.61
1 -1 3 389.22 27.94
1 1 3 328.84 29.72
-1 1 -3 378.09 31.63
1 1 3 412.22 31.87
1 -1 3 375.23 31.44
1 -1 3 354.72 29.92
-1 -1 -3 376.73 31.51
1 2 -3 281.59 20.49
-1 2 3 314.95 20.55
1 -2 3 312.74 20.63
1 -2 3 248.39 20.11
1 -2 3 265.84 19.7
1 2 3 269.73 20.37
-1 2 3 257.42 20.25
1 -2 -3 274.9 20.24
1 2 3 245.55 19.6
1 -2 3 295.39 24.46
1 -2 -3 265.1 20.32
1 2 -3 239.34 19.96
1 -2 3 275.6 20.6
1 -2 3 272.38 20.38
-1 2 -3 303.49 23.87
-1 -2 3 244.98 19.5
1 2 3 292.69 23
-1 -2 3 278.03 20.23
1 2 3 237.29 19.86
1 -2 3 277 24.01
1 2 3 278.73 22.82
-1 -2 -3 281.51 24.07
-1 3 3 5.26 1.79
1 -3 3 2.53 1.4
1 3 -3 5.2 1.79
1 -3 3 4.68 1.58
1 -3 3 7.17 3.99
1 -3 -3 4.96 1.78
-1 3 3 5.59 1.66
1 3 3 3.72 1.4
-1 -3 -3 4.82 1.37
1 -3 3 5.62 1.44
-1 3 -3 3.69 1.86
1 3 3 7.5 1.73
1 3 3 5.51 2.83
1 -3 3 5.27 3.18
-1 3 -3 2.81 3.06
1 -3 -3 5.9 1.82
1 -3 3 3.19 1.56
-1 -3 3 3.84 1.31
-1 -3 -3 6.47 3.64
-1 -3 3 5.66 1.77
-1 3 3 3.97 1.38
1 -3 3 3.67 1.69
1 3 3 5.64 3.06
1 4 3 60.26 8.66
1 -4 3 61.39 5.69
1 -4 3 58.32 6.09
-1 4 3 48.21 5.73
1 -4 3 63 8.95
1 4 -3 57.63 6.32
1 -4 3 62.79 6.21
1 4 3 57.06 5.57
1 -4 -3 55.31 6.03
-1 -4 3 61.87 5.81
-1 4 3 62.26 6.22
-1 -4 -3 54.62 5.47
1 4 3 66.43 9.24
-1 -4 3 61.44 6.09
1 -4 3 64.44 6.57
1 -4 3 67.06 9.22
1 4 3 61.38 6.09
1 -4 3 72.9 8.55
-1 4 -3 77.53 8.91
1 4 3 69.99 8.3
-1 -4 -3 64.03 6.14
-1 -4 3 62.25 5.57
-1 4 -3 63.34 6.85
1 -4 -3 61.55 6.34
-1 4 3 63.02 5.64
-1 -4 -3 65.62 9.14
1 4 3 56.26 7.63
1 -4 3 76.54 8.34
-1 5 -3 2.19 1.22
1 -5 3 2.85 2.74
1 5 3 3.75 3.05
1 5 -3 5.42 1.93
1 -5 3 3.26 1.68
1 -5 3 3.86 1.72
1 -5 -3 2.55 1.35
-1 5 3 3.04 1.48
-1 -5 3 2.24 1.29
-1 -5 -3 4.79 1.46
-1 5 -3 2.69 1.26
1 5 3 2.51 1.18
-1 5 -3 1.77 2.67
1 -5 -3 5.73 2.08
1 5 3 2.01 2.48
1 -5 3 4.45 1.93
1 -5 3 4.89 3.3
1 -5 3 6.84 3.1
1 5 -3 2.35 1.38
-1 -5 -3 0.9 2.6
-1 -5 -3 3.37 1.57
1 5 3 4.32 2.88
-1 5 -3 3.33 1.68
1 -5 3 2.9 2.61
-1 5 -3 3.9 2.82
-1 5 3 2.6 1.17
1 5 3 2.26 2.62
-1 -5 -3 1.01 2.49
-1 -5 3 5.11 1.68
-1 6 -3 29.06 3.81
1 -6 3 36.33 4.66
1 -6 3 43.06 6.66
1 6 -3 27.58 4.54
1 6 3 33.62 6.13
-1 6 -3 42.55 4.74
1 -6 -3 37.43 4.6
1 6 3 35.61 3.99
-1 6 3 31.11 4.36
-1 -6 3 38.69 4.13
-1 -6 -3 34.44 4
-1 -6 -3 35 4.47
1 -6 3 47.96 7.01
-1 6 -3 39.26 5.1
1 -6 -3 39.15 4.85
1 6 3 41.81 6.71
1 6 3 33.04 5.29
1 6 -3 37.57 4.23
-1 -6 -3 43.74 6.49
1 -6 3 35.78 5.62
-1 6 -3 43.7 6.46
1 6 3 38.14 5.79
1 -6 3 35.24 5.47
-1 -6 -3 36.18 6.47
-1 6 -3 41.24 6.5
-1 6 3 26.59 3.64
-1 7 -3 594.68 43.06
1 7 -3 623.11 44.7
-1 7 3 586.89 43.49
-1 7 -3 571.29 43.84
1 -7 3 609.69 44.1
-1 7 -3 620.58 44.95
1 7 3 564.66 42
-1 -7 -3 576.6 43.04
-1 -7 3 601.46 43.03
1 -7 -3 595.89 43.7
-1 -7 -3 616.29 43.97
1 7 3 632.02 45.05
1 7 3 654.66 46.73
1 7 -3 599.64 43.38
-1 7 -3 645.6 46.11
1 -7 3 642.92 45.28
1 -7 -3 565.63 44.24
1 -7 3 638.88 46.38
-1 -7 -3 672.86 46.34
-1 7 3 594.16 42.87
1 -7 3 650.42 45.12
-1 7 -3 594.49 46.02
-1 -7 -3 673.66 46.98
1 7 3 651.31 45.31
1 -7 3 613.19 46.09
1 7 3 600.29 46.08
-1 8 -3 -0.55 1.17
-1 8 3 -0.9 1.47
-1 8 -3 0.73 2.01
1 8 3 0.85 2.45
1 8 3 0.71 0.7
1 -8 3 1.72 1.66
1 8 -3 0.66 1.62
-1 -8 3 2.84 1.59
1 -8 3 0.85 2.32
1 -8 -3 0.99 1.36
-1 8 -3 0.75 1.08
-1 -8 3 0.67 1.06
-1 -8 -3 0.38 1.04
-1 -8 -3 1.07 1.31
1 -8 3 0.67 1.65
1 8 3 2.72 2.61
-1 -8 -3 -0.82 2.36
1 8 3 1.27 2.06
1 -8 3 -0.87 2.26
1 8 -3 2.19 1.47
1 8 3 2.64 2.07
1 -8 -3 1.73 1.2
1 -8 3 -0.63 1.65
-1 8 3 0.32 1.14
1 -9 3 234.01 18.96
1 9 -3 235.47 19.32
-1 9 -3 205.98 18.26
-1 9 3 213.46 17.6
-1 9 -3 214.36 19.3
1 9 3 213.6 16.29
-1 -9 3 216.83 17.89
-1 9 -3 230.81 17.55
-1 -9 -3 230.91 17.52
-1 -9 3 234.36 17.21
1 -9 -3 209.75 17.92
1 9 -3 230.82 17.91
-1 -9 -3 222.76 18.4
1 -9 3 232.54 18.87
1 9 3 234.03 18.64
1 -9 3 219.9 19.6
1 9 3 259.53 20.32
1 -9 3 228.48 18.61
1 -9 3 205.12 19.37
1 -9 -3 219.15 17.2
1 9 3 206.61 18.45
1 9 3 227.41 19.69
-1 10 -3 1.79 2.46
1 10 3 -0.25 0.88
-1 10 -3 1.37 1.88
-1 -10 3 0.58 1.66
1 10 3 0.81 2.33
-1 10 3 -1.01 1.45
1 -10 3 1.58 2.27
1 -10 3 0.73 2
-1 10 -3 0.47 1.29
-1 -10 -3 1.36 1.3
-1 -10 3 0.33 1.01
1 10 -3 -0.47 1.29
1 10 3 -0.71 1.75
1 10 3 1.67 2.52
1 -10 3 1.86 1.94
1 -10 3 0.8 1.83
1 10 -3 2.23 1.6
-1 -10 -3 -0.63 1.56
1 10 3 -0.6 1.88
1 10 3 1.85 2.01
1 -10 3 -0.59 1.62
1 -10 -3 1.2 1.16
-1 11 -3 8.68 3.76
-1 11 -3 26.51 4.79
-1 11 3 24.48 4.08
1 11 -3 13.83 4.3
1 -11 3 20.03 4.48
-1 -11 3 29.23 4.53
1 -11 -3 21.24 5.1
1 11 3 26.29 3.4
1 11 3 25.4 5.14
1 11 3 26.35 4.7
-1 -11 3 27.95 3.44
1 11 -3 25.11 3.86
-1 -11 -3 17.54 3.55
-1 11 -3 30.58 4.27
1 11 3 19.59 4.4
1 -11 3 27.89 4.4
1 11 3 21.63 3.98
1 11 -3 25.78 4.54
-1 -11 -3 27.4 4.72
1 -11 3 29.04 4.85
1 11 -3 21.52 4.09
1 -11 -3 22.29 3.54
1 -11 3 30.05 4.36
1 11 3 22.95 4.2
1 -11 3 17.6 4.63
1 11 3 14.9 2.2
-1 12 -3 50.58 6.03
-1 12 -3 51.13 7.11
-1 12 -3 41.47 6.87
1 12 -3 57.59 7.31
1 -12 -3 41.75 6.7
1 12 3 44.78 4.9
-1 -12 3 53.33 6.22
-1 12 3 42.19 5.64
1 12 -3 60.82 6.19
1 -12 3 35.08 3.78
1 12 3 49.18 6.78
-1 -12 -3 60.33 6.22
-1 -12 3 43.02 4.83
1 12 3 40.91 6.06
1 12 -3 53.29 6.65
1 -12 3 41.62 5.92
-1 -12 -3 50.67 6.66
1 12 -3 48.42 6.09
1 -12 -3 41.58 5.99
1 -12 3 32.5 6.23
1 -12 -3 53.48 5.54
1 12 3 26.4 3.71
1 12 3 40.62 5.53
1 -12 3 47.85 5.67
1 13 -3 24.53 4.62
1 13 3 30.68 3.67
-1 13 -3 32.38 5.81
1 -13 -3 24.95 5
-1 13 3 32.88 4.82
-1 13 -3 34.06 5.84
-1 -13 3 35.26 4.72
1 -13 3 15.83 2.41
-1 -13 -3 27.97 4.37
1 13 -3 36.29 4.76
1 13 3 21.97 4.73
1 13 -3 19.81 3.77
1 -13 3 27.85 4.56
1 13 3 25.79 4.61
1 -13 -3 24.29 4.24
1 13 -3 28.83 5.13
1 -13 -3 27.61 4.09
1 -13 3 34.44 5.79
-1 13 3 25.5 3.77
1 -13 3 19.41 3.55
1 13 3 27.79 4.16
-1 -13 -3 13.47 1.91
-1 14 3 0.71 1.86
-1 14 -3 4.15 2.85
1 14 3 1.07 1.28
1 -14 -3 0.73 2.36
-1 -14 3 -0.64 1.84
1 14 -3 1.27 2.33
-1 14 -3 3.02 3.03
-1 -14 -3 -0.67 2.72
1 -14 3 0.36 0.88
1 14 3 6.53 3.03
-1 -14 3 0.51 1.92
1 14 -3 -0.61 1.99
1 -14 3 2.33 1.96
1 -14 -3 2.73 1.9
1 14 -3 -0.5 1.8
-1 14 -3 -1.14 2.63
1 14 -3 -0.89 2.19
1 14 3 -0.61 2.18
1 -14 3 0.93 1.67
-1 14 3 -0.48 2.53
-1 -14 -3 2.79 0.89
1 -14 -3 3.31 1.92
1 -14 3 2.71 2.72
1 14 3 1.39 1.76
1 15 3 202.5 14.52
-1 15 -3 183.65 18.12
-1 -15 3 181.41 16.1
-1 15 -3 207.96 18.24
-1 15 3 250.61 17.4
1 15 3 170.07 16.73
-1 15 3 192.96 15.68
-1 -15 3 169.04 15.15
1 15 -3 208.69 16.18
-1 -15 -3 208.62 16.76
1 15 -3 184.29 17.44
1 15 -3 171.44 14.71
-1 15 -3 230.72 19.79
1 -15 -3 145.28 14.64
-1 -15 -3 168.75 13.11
1 -15 -3 143.38 15.29
1 15 3 135.06 14.25
1 -15 3 230.83 17.85
-1 15 3 200.21 15.52
1 15 -3 154 15.08
1 -15 -3 208.14 15.81
-1 16 -3 -1.2 2.94
-1 16 3 -3.35 2.82
1 16 3 0.81 1.4
-1 16 -3 1.08 2.81
-1 16 3 2.61 2.26
-1 -16 3 -4.15 3.85
1 16 3 2.62 2.39
1 16 -3 1.39 2.34
1 16 -3 -0.42 1.61
1 -16 -3 0.92 1.55
-1 16 -3 -2.71 3.72
1 16 -3 -1.08 2.82
1 16 -3 1.86 2.06
-1 16 3 -3.41 3.66
-1 -16 -3 0.41 0.94
1 -16 -3 1.91 1.83
1 -16 -3 1.74 2.42
1 -16 3 -0.89 2.57
-1 17 -3 490.58 34.29
-1 17 3 531.67 32.7
-1 17 -3 578.31 34.23
1 17 3 587.84 29.67
1 17 3 546.73 32.19
-1 17 3 501.68 30.76
-1 -17 3 433.82 30.09
1 17 -3 336.78 29.52
1 17 -3 333.53 27.5
-1 17 3 376.92 28.29
1 17 -3 254.52 30.72
1 -17 -3 375.68 28.13
-1 -17 3 356.54 28.08
-1 17 -3 423.94 34.35
-1 -17 -3 283.34 26.88
1 -17 -3 343.18 28.28
-1 -17 3 302.98 27.15
1 -17 -3 385.53 29.6
-1 -17 3 516.1 31.85
1 17 -3 367.84 27.73
-1 17 3 515.37 30.72
1 -17 3 556.44 32.41
-1 17 3 378.79 27.98
-1 18 -3 8.97 3.78
1 18 3 7.1 2.58
-1 18 3 2.09 2.89
-1 18 -3 2.81 3.24
1 18 -3 4.51 2.94
-1 18 3 3.86 2.78
1 18 3 6.74 2.94
1 18 3 11.4 3.42
-1 18 -3 12.57 4.93
-1 18 3 4.19 1.4
1 18 -3 3.65 3.18
1 -18 3 5.25 2.86
-1 -18 -3 3.93 1.49
1 -18 -3 7.16 2.73
-1 18 3 -7.67 6.15
-1 -18 3 1.78 2.69
-1 19 -3 161.46 15.7
-1 19 -3 123.4 15.61
1 19 3 180.37 13.02
-1 19 3 168.27 15.36
1 19 3 161.78 14.4
-1 19 3 113.33 12.75
1 19 3 143.39 13.76
1 19 -3 137.93 13.34
-1 19 -3 156.96 17.63
1 19 -3 131.37 15.47
1 -19 3 146.86 14.12
-1 -19 -3 107.49 10.65
-1 -19 3 120.91 13.45
1 -19 -3 143.99 13.28
-1 20 -3 18.64 5.27
-1 20 3 10.2 4.2
-1 20 -3 18.92 6.02
1 20 3 16.96 3.33
-1 20 3 0.68 3.86
1 20 3 25.54 4.86
1 20 -3 26.58 4.66
1 20 3 24.27 4.99
-1 20 -3 17.64 6
1 20 -3 12.63 4.77
-1 -20 -3 11.8 2.37
1 -20 -3 17.91 3.93
1 -20 3 28.18 5.29
-1 -20 3 20.72 4.5
-1 21 3 129.31 13.28
-1 21 -3 118.45 13.77
-1 21 -3 121.22 15.15
1 21 -3 131.46 12.42
-1 21 3 127.33 11.78
1 21 3 138.07 13.28
1 21 -3 128.61 14.82
-1 21 -3 107.16 14.9
1 -21 -3 118.89 11.94
1 -21 3 167.46 13.91
-1 -21 -3 88.38 9.44
-1 -21 3 143.74 12.82
-1 22 -3 -1.5 2.91
-1 22 3 -1.88 2.31
1 22 -3 0.73 2.28
1 22 3 -2.85 2.98
1 22 -3 -1.31 3.22
-1 22 -3 6.57 4.28
-1 -22 3 -2.12 2.53
1 -22 -3 -0.71 2.06
1 -22 3 -0.87 2.39
-1 23 -3 21.27 6.35
-1 23 3 25.3 5.34
1 23 3 16.52 4.45
1 23 -3 20.74 4.44
1 23 -3 22.61 6.48
-1 23 -3 11.51 5.88
1 -23 -3 31.93 5.05
-1 -23 3 17.55 4.18
-1 24 -3 -1.55 4.24
-1 24 3 -0.94 2.71
1 24 3 -0.99 4.3
1 24 -3 -1.36 3.12
-1 24 -3 -1.66 3.82
-1 -24 3 0.63 2.19
1 -24 -3 4.21 2.66
-1 25 -3 309.2 29.19
1 25 3 305.52 26.33
-1 25 -3 328.5 30.13
1 25 -3 280.57 27.96
1 26 3 -1.04 3.62
-1 26 3 2.76 2.65
1 26 -3 1.38 3.38
-1 27 3 172.36 16.69
1 0 -4 0.49 1.2
1 0 4 1.42 1.19
1 0 4 0.93 1.14
-1 0 4 2.92 1.69
1 0 4 -1.5 4.33
-1 0 4 0.97 1.03
1 0 4 1.2 1.2
1 0 4 1.55 3.8
1 0 4 4.49 3.09
-1 0 -4 1.36 3.33
1 0 4 0.52 1.58
-1 0 4 0.88 1.38
1 0 4 1.16 2.66
-1 0 -4 -1.55 3.55
1 0 4 1.34 1.28
1 0 -4 -0.47 1.28
1 -1 4 52.93 5.87
-1 1 4 55.97 6.14
1 1 -4 57.19 6.16
1 1 4 51.96 9.3
1 -1 -4 62.59 6.21
1 -1 4 64.87 5.95
1 -1 4 73.86 10.67
1 1 4 53.27 6.04
-1 -1 4 59.83 6.33
1 -1 -4 50.65 5.77
-1 1 4 63.36 6.28
1 1 4 51.16 5.43
-1 -1 4 53.64 5.96
1 1 4 47.52 8.89
-1 -1 4 62.04 6.14
1 -1 4 49.36 5.8
1 1 4 50.68 8.01
1 1 4 53.58 5.82
1 -1 4 42.24 7.91
1 -1 4 54.64 6.31
1 -1 -4 60.95 6.24
1 1 -4 57.42 6.01
-1 1 -4 39.15 7.85
1 -1 4 65.42 10.29
-1 -1 -4 45.35 8.56
-1 -1 -4 46.8 9.2
1 1 4 51.87 8.24
1 -1 4 52.09 8.46
-1 1 -4 66.15 10.11
1 -2 4 4.63 1.82
-1 2 4 3.4 1.9
1 -2 4 9.61 4.77
1 2 -4 4.19 1.84
1 -2 4 3.81 1.54
1 2 4 7.03 2.19
1 2 4 4.12 1.51
1 -2 4 3.32 1.28
1 -2 -4 3.62 1.73
-1 2 4 4.49 1.7
1 2 4 6.03 2.03
-1 2 -4 4.97 3.42
1 -2 4 8.55 4.3
1 2 4 2.07 2.99
1 -2 4 6.72 2.22
-1 -2 4 2.48 1.5
-1 -2 -4 5.77 3.77
1 2 -4 4.16 1.68
-1 -2 4 4.08 1.78
1 -2 -4 2.57 1.63
1 -2 4 0.96 1.47
1 2 4 3.26 2.99
1 3 4 2524.25 178.92
1 3 -4 2487.43 179.03
-1 3 4 2675.71 178.92
1 -3 4 2518.02 177.78
1 -3 4 2433.57 178.63
1 -3 4 2775.28 179.02
1 -3 -4 2521.97 178.55
-1 3 4 2519.14 178.83
1 3 4 2491.06 178.2
1 -3 4 2792.17 184.31
-1 3 -4 2846.74 183.68
1 -3 4 2683.6 179
1 3 4 2740.03 182.12
-1 -3 4 2424.44 177.89
1 -3 -4 2654.3 179.03
1 3 4 2487.9 178.51
1 -3 4 2517.81 179.03
-1 -3 4 2676.09 178.83
-1 -3 -4 2743.86 184.64
1 3 4 2805.77 182.5
1 -3 4 2905.47 184.38
-1 4 4 -0.49 1.66
1 -4 4 -0.48 1.89
1 4 -4 -0.57 1.31
1 -4 4 1.56 1.81
1 -4 4 -1.27 3.5
1 4 4 3.06 1.83
1 4 4 1.26 3.46
-1 4 4 -0.51 1.33
1 -4 -4 -0.48 1.49
1 4 4 -1.59 1.62
1 -4 4 -0.32 1.22
-1 -4 -4 -0.75 1.48
1 -4 -4 1.09 1.34
1 4 4 2.62 3.01
1 4 4 0.45 1.62
-1 4 -4 -1.15 2.82
-1 -4 4 -0.36 1.72
1 -4 4 1.29 2.75
1 -4 4 0.55 1.59
1 -4 4 -0.99 2.98
1 4 4 -0.95 2.6
-1 -4 4 -2.37 2.06
-1 -4 -4 -1.34 3.28
1 -4 4 -5.79 2.51
1 4 4 -0.99 2.43
-1 4 4 1.64 1.18
-1 -4 -4 2.6 1.57
1 -4 4 -0.51 1.54
1 -5 4 4864.14 356.82
1 5 -4 5083.01 357.5
-1 5 4 5009.95 356.81
1 -5 4 5152.08 357
-1 5 -4 4714.41 356.85
-1 -5 -4 4893.35 356.02
-1 -5 4 5102.52 356.08
1 5 4 5050.18 356.35
-1 5 4 5270.1 356.91
1 -5 -4 5141.69 356.75
1 5 4 5613.71 361.87
1 -5 4 5334.71 357.31
1 -5 -4 5318.46 357.28
1 -5 4 5571.03 361.65
1 5 4 5523.48 359.71
1 5 4 5105.31 356.73
-1 -5 -4 5555.18 361.13
1 -5 4 5651.27 359.99
-1 -5 4 5259.33 356.15
1 -5 4 5134.32 357.24
-1 5 -4 5815.78 360.75
-1 -5 -4 5044.03 357
-1 -5 4 5099.86 356.81
1 -5 4 5632.56 361.69
1 -5 4 5337.11 359.45
1 5 4 5854.7 360.13
-1 5 4 5008.92 355.76
-1 -5 -4 5650.89 362.18
-1 5 -4 5482.32 361.63
1 5 4 5549.48 361.39
1 6 4 1.18 2.9
1 -6 4 0.52 1.5
1 6 -4 -0.64 1.68
-1 6 -4 0.57 1.39
1 -6 4 -1.18 3.25
1 -6 4 0.52 1.86
-1 6 4 0.49 1.66
-1 -6 -4 -2.37 1.68
1 -6 -4 2.6 1.69
1 6 4 1.29 1.49
-1 6 4 -0.55 1.5
-1 -6 4 1.84 1.28
1 -6 4 -1.18 3.06
1 6 4 2.4 3.3
1 6 4 -0.88 2.3
1 -6 4 0.92 2.4
-1 -6 -4 0.55 1.52
-1 -6 -4 -1.1 3.43
-1 6 -4 1.07 2.93
1 -6 -4 0.61 1.6
1 -6 4 -0.59 1.85
-1 6 4 0.65 1.17
-1 6 -4 1.2 2.94
-1 -6 -4 1.24 2.85
-1 -6 4 -0.99 1.93
1 6 4 -0.91 2.36
1 -6 4 2.63 2.85
1 7 -4 1245.41 88.92
1 -7 4 1204.53 87.96
-1 7 -4 1187.9 88.32
-1 -7 -4 1190.98 87.23
-1 7 4 1167.86 88.13
1 7 4 1243.61 87.6
-1 7 -4 1190.95 86.89
-1 -7 4 1204.77 86.94
1 -7 -4 1259.06 88.11
1 -7 4 1400.45 90.66
1 7 4 1360.05 92.16
-1 -7 4 1204.34 88.05
1 -7 4 1239.43 91.54
1 7 -4 1228.42 87.73
1 -7 -4 1203.81 88.68
-1 7 -4 1293.4 91.03
-1 -7 -4 1376.18 91.57
1 7 4 1356.02 90.33
-1 -7 -4 1191.87 88.28
1 7 4 1382.62 90.56
1 -7 4 1378.72 92.04
1 -7 4 1297.69 90.14
-1 -7 -4 1360.78 92.22
-1 7 -4 1313.41 91.81
1 7 4 1266.81 91.57
-1 7 4 1248.14 86.88
1 8 -4 10.93 3.33
1 -8 4 12.82 2.93
1 8 4 8.89 1.81
-1 8 4 13.34 2.83
-1 8 -4 14.25 3.19
1 8 4 11.15 4.07
1 -8 4 11.07 4.04
-1 -8 -4 11.23 2.51
-1 -8 4 9.52 2.24
-1 8 4 12.19 3.28
-1 8 -4 9.69 2.25
1 8 4 24.78 5.51
1 -8 -4 9.73 2.95
-1 -8 -4 15.81 3.39
1 -8 4 11.99 3.87
1 -8 4 15.54 4.19
-1 -8 -4 16.51 4.47
-1 8 -4 8.09 3.38
1 8 -4 12.77 2.78
1 8 4 14.13 3.7
-1 -8 4 16.34 3.21
-1 8 4 12.53 2.4
-1 8 -4 14.42 4.59
1 8 4 11.8 3.89
-1 -8 -4 20.87 5
1 -8 4 13.76 3.74
1 9 4 83.6 7.25
-1 9 4 89.66 8.68
1 -9 -4 69.63 11.06
1 9 -4 75.58 9.46
-1 9 -4 79.21 7.95
-1 9 -4 94.24 9.5
1 -9 4 85.51 9.2
-1 -9 4 104.97 9.4
1 -9 4 69.05 10.48
-1 -9 4 94.89 8.06
-1 -9 -4 81.79 8.38
1 9 -4 93.28 10.89
-1 9 -4 71.55 9.95
1 -9 4 81.76 10.71
1 -9 -4 100.54 11.01
1 9 4 100.42 10.46
1 -9 -4 84.4 9.63
1 -9 4 103.41 10.73
-1 -9 -4 95.36 9.54
1 9 -4 82.16 8.57
1 9 4 100.47 11.5
-1 -9 -4 91.9 10.79
1 9 4 87.1 11.08
-1 -9 -4 82.86 10.75
1 9 4 81.3 9.71
-1 9 -4 99.29 11.31
-1 9 4 91.18 7.91
1 -9 4 71.3 9.28
1 9 -4 108.11 12.97
1 -10 -4 2.5 3.06
1 -10 4 -2.75 2.46
-1 10 4 1.1 1.51
-1 10 -4 0.74 1.71
-1 -10 4 -1.26 1.73
1 10 4 -0.27 0.89
1 10 -4 0.86 1.83
1 10 -4 2.37 3.09
-1 -10 -4 2.06 1.79
-1 10 -4 -0.44 1.08
-1 -10 4 0.37 1.2
-1 10 -4 0.95 2.48
1 -10 -4 2.85 2.61
1 -10 4 -1.02 2.35
1 10 -4 0.59 1.55
1 10 -4 0.91 2.08
-1 -10 -4 -0.72 1.77
1 -10 -4 -0.8 1.98
-1 -10 -4 0.98 2.41
1 -10 4 -1.63 2.35
1 10 4 -1.07 2.45
1 10 4 0.77 2.31
1 -10 4 -0.74 2.03
-1 -10 -4 -3.27 2.84
1 11 -4 10.48 3.64
1 -11 -4 4.66 3.82
-1 -11 4 6.99 2.82
1 11 4 7.08 1.77
1 -11 4 9.02 3.03
-1 11 -4 5.64 2.57
-1 11 4 9.76 2.59
1 11 -4 8.82 3.97
-1 -11 4 5.93 1.82
1 11 4 7.31 2.86
-1 -11 -4 11.06 2.63
-1 11 -4 6.28 2.07
1 11 -4 7.6 3.23
1 -11 -4 4.37 2.78
1 11 4 7.15 3.47
1 -11 4 4.88 3.21
-1 -11 -4 6.22 2.82
1 -11 -4 6.2 3.11
1 11 -4 3.95 2.26
1 11 4 14.14 3.57
1 -11 4 5.76 2.7
1 12 -4 1.04 2.22
-1 12 4 3.69 2.2
1 12 -4 3.06 2.94
-1 -12 4 2.23 2.33
-1 12 -4 7.01 3.05
1 -12 -4 8.8 3.7
1 12 4 2.3 1.41
-1 -12 -4 4.16 2.13
-1 12 -4 3.76 1.93
1 12 4 3.47 2.39
-1 -12 4 0.36 1.38
1 -12 -4 3.84 2.51
-1 12 -4 7.16 3.08
1 12 4 1.97 2.57
1 12 -4 4.75 3.08
1 -12 4 3.76 2.59
-1 -12 -4 -0.85 1.81
1 -12 -4 1.66 2.29
1 12 -4 1.46 2.01
1 -12 4 1.99 2.74
1 -12 4 -0.7 2.92
1 12 4 5.79 2.81
-1 13 -4 1815.1 126.44
1 13 4 1818.29 125.19
-1 13 -4 2017.17 129.11
-1 13 4 2026.43 127.16
1 13 -4 2185.02 130.76
1 13 4 1956.73 128.6
-1 -13 4 1811.34 125.19
-1 -13 -4 1983.86 127.01
1 13 -4 2060.91 128.17
1 -13 -4 1815.31 127.51
1 -13 4 1761.1 127.97
1 13 -4 1634.64 126.89
-1 -13 -4 1944.42 128.71
1 -13 -4 1968.11 129.77
1 13 4 1837.01 128.39
-1 13 -4 2065.36 130.12
1 13 4 1828.09 127.01
1 -13 4 1718.12 128.59
1 13 4 1548.81 123.94
1 13 -4 1844.81 128.67
1 -13 -4 1725.07 128.71
1 -13 4 1760.22 126.74
1 -14 -4 4.88 3.39
1 14 4 -0.44 1.73
-1 14 4 -0.69 2.17
1 14 -4 1.23 2.82
1 14 -4 0.88 2.87
-1 14 -4 11.54 3.97
-1 -14 -4 -0.69 2.82
1 14 4 4 3.01
-1 14 -4 2.61 2.12
1 -14 -4 2.98 2.51
1 -14 -4 5.72 3.59
1 14 -4 5.3 3.07
1 14 -4 3.53 2.61
-1 14 -4 5.97 3.44
1 14 4 2.64 2.96
1 -14 4 4.2 3.01
-1 -14 -4 -1 2.87
1 -14 -4 2.53 1.76
1 -14 4 4.41 2.69
1 14 4 5.87 2.89
1 -14 4 6.7 4.12
1 14 4 2.51 1.29
-1 15 4 1566.73 92.62
-1 15 -4 1571.21 95.32
-1 15 -4 1385.45 91.96
1 15 -4 1643.57 96.87
1 15 4 1362.25 90.1
1 -15 4 1046.8 88.67
1 15 4 1195.18 93.06
-1 -15 -4 1482.21 94.52
1 15 4 1234.32 92.05
1 -15 4 1212.42 91.76
1 -15 -4 1194.7 91.26
-1 15 -4 1653.12 96.66
1 15 -4 1184.44 91.1
1 15 -4 1554.62 93.92
1 -15 4 1157.32 90.68
-1 15 4 1430.03 90.76
1 -15 -4 1164.42 92.21
1 15 4 1232.17 90.88
1 -15 4 1171.64 93.26
1 15 -4 1217.25 91.97
1 -15 -4 1611.82 91.35
1 16 -4 -1.43 3.51
-1 16 -4 -2.47 3.4
1 -16 -4 -3.46 3.98
1 16 4 -0.4 1.57
-1 16 4 -0.83 2.5
-1 16 4 1.5 2.34
1 -16 4 0.47 1.17
-1 -16 4 -4.53 2.6
1 16 4 5.63 3.38
1 16 4 -0.75 2.24
1 -16 -4 0.69 2.31
1 16 -4 1.31 1.88
1 -16 4 0.71 2.13
-1 -16 -4 1.16 2.46
1 16 -4 -1.04 2.56
-1 16 -4 2.74 3.56
1 -16 4 -0.56 2.06
-1 16 4 -0.55 3.9
1 16 -4 2.29 2.73
1 16 4 2.82 2.13
1 -16 -4 -1.72 1.8
1 -16 4 -1.11 3.48
-1 17 -4 518.64 37.67
1 17 -4 488.37 38.46
1 17 4 475.25 31.75
-1 17 4 618.33 35.89
1 17 4 451.51 35.53
-1 17 4 488.66 34.19
-1 -17 4 481.4 33.19
1 17 4 311.76 32.3
1 17 -4 465.93 35.83
-1 17 -4 603.43 39.77
-1 -17 -4 517.93 37.2
1 -17 -4 395.33 32.81
-1 17 4 381.07 33.3
1 17 -4 396.16 32.5
-1 -17 4 380.52 32.11
1 -17 4 318.29 31.77
1 -17 -4 516.29 33.34
1 -17 4 478.72 35.71
-1 17 4 483.03 33.15
1 17 -4 363.3 32.61
1 -17 -4 393.1 33.47
-1 18 4 4.86 3.38
1 18 4 3.71 1.81
-1 18 -4 7.27 4.2
1 18 -4 1.65 3.52
1 18 4 -1.06 2.77
-1 18 4 4.22 2.55
1 18 -4 8.54 3.68
1 18 -4 3.06 2.14
-1 -18 -4 8.05 3.87
1 -18 -4 7.58 2.92
-1 18 -4 6.28 4.53
-1 18 4 7.01 2.78
-1 -18 4 3.03 3.05
-1 -18 4 4.75 2.11
1 -18 -4 2.7 2.36
1 18 -4 1.64 2.19
1 -18 -4 5.85 2.6
1 -18 4 4.24 3.2
-1 19 4 27.25 5.85
1 19 4 19.57 3.4
1 19 -4 13.94 6.14
-1 19 -4 4.68 4.4
1 19 4 15.16 4.42
-1 19 4 14.46 4.13
-1 -19 -4 20.15 5.82
1 -19 -4 19.23 3.49
-1 19 -4 26.84 7.06
1 19 -4 15.8 5.09
1 -19 4 20.01 4.86
1 -19 -4 13.66 3.66
-1 -19 4 9.76 2.52
-1 -19 4 14.79 5.21
1 20 -4 1.74 4.28
-1 20 -4 1.67 3.83
-1 20 4 -2.29 3.73
1 20 4 1 2.61
-1 20 4 1.93 3.14
1 20 4 -1.99 4.41
-1 -20 -4 -1.54 3.54
1 20 -4 -1.38 2.93
-1 -20 4 -1.09 3.41
1 -20 -4 0.67 2.32
1 -20 4 -1.03 2.68
-1 21 4 8.91 3.64
-1 21 -4 15.09 6.02
1 21 4 6.84 3.2
-1 21 4 9.83 3.74
1 21 4 2.01 2.93
-1 -21 -4 4.68 4.51
1 21 -4 1.39 3.64
-1 21 -4 3.54 4.09
-1 -21 4 3.08 4.1
1 -21 -4 7.87 2.93
1 -21 4 6.11 3.67
-1 22 4 7.27 3.25
-1 22 -4 -1.69 3.87
1 22 4 6.73 3.34
-1 22 4 -3.32 3.53
-1 -22 -4 -1.57 4.73
-1 22 -4 5.33 5.56
1 22 -4 -1.4 3.44
1 -22 -4 2.53 2.46
-1 -22 4 9.53 4.22
1 -22 4 4.07 3.31
-1 23 -4 395 37.04
-1 23 4 438.55 34.3
-1 23 4 413.65 32.8
1 23 4 385.37 33.8
1 23 -4 434.04 36.28
-1 -23 -4 387.41 36.57
-1 23 -4 441.06 38.31
-1 -23 4 390.99 33.08
1 -23 4 457.48 34.52
-1 24 -4 1.68 5.64
1 24 4 -3.21 4.92
-1 -24 -4 4.77 4.58
1 24 -4 5.7 5.1
-1 24 -4 7.12 5.36
-1 -24 4 5.79 3.29
1 -24 4 0.99 2.85
1 25 4 431.75 36.17
1 25 -4 458.88 38.51
1 26 -4 -1.45 4.17
1 0 5 0.45 1.23
1 0 5 -0.58 1.24
1 0 5 -3.69 4.53
-1 0 5 -1.22 1.76
1 0 -5 0.62 1.21
-1 0 5 0.61 1.3
1 0 5 -1.03 1.61
1 0 5 8.29 4.49
-1 0 5 -0.56 1.45
1 0 5 1.95 5.62
1 0 5 0.63 1.9
-1 0 -5 -1.71 3.32
1 0 -5 0.6 1.46
1 0 5 1.47 3.82
1 0 5 -0.55 1.18
-1 0 -5 -1.98 4.21
1 -1 5 47.92 10.23
1 1 5 65.44 7.12
-1 -1 5 72.92 7.47
1 -1 -5 72.92 7.2
-1 1 5 51.56 6.62
1 -1 5 60.63 6.48
1 1 5 62.06 10.79
1 1 -5 57.05 6.98
1 -1 5 55.73 6.69
1 -1 5 69.55 6.91
-1 1 5 74.45 7.44
1 1 5 67.35 6.67
-1 -1 5 66.65 7.06
-1 -1 5 57.87 6.67
1 1 5 48.84 6.37
-1 -1 5 51.07 6.17
-1 -1 -5 62.29 10.63
1 -1 5 52.86 6.57
1 1 5 61.56 11.03
1 1 -5 62.62 6.9
-1 1 5 69.52 7.06
1 -1 -5 58.23 6.84
1 1 5 69.02 9.96
1 -1 5 53.76 6.87
1 -1 5 46.8 10.07
-1 1 -5 75.68 11.18
1 -1 5 56.05 9.27
1 1 5 57.01 9.5
1 -1 5 56.01 9.45
-1 -1 -5 48.37 10.35
-1 1 -5 56.21 10.96
1 2 5 44.36 5.66
-1 2 5 36.64 5.38
1 -2 5 45.11 4.57
1 -2 5 38.49 5.3
1 -2 5 45.56 5.33
1 -2 5 41.04 9.08
1 2 -5 36.1 5.29
-1 -2 5 33.63 5.32
-1 -2 5 44.56 5.64
-1 2 5 45.16 5.56
1 2 5 41.14 5.02
1 -2 -5 45.93 5.49
1 -2 5 32.33 5.18
1 2 5 45.87 7.99
1 -2 5 32.24 8.24
-1 2 -5 39.6 8.47
-1 -2 5 38.38 4.92
1 2 5 38.25 5.21
1 2 -5 46.48 5.61
-1 -2 -5 58.86 10.09
-1 -2 5 36.33 5.2
1 -2 -5 34.01 5.11
1 -2 5 35.6 5.23
1 2 5 47.87 8.67
1 -3 5 741.14 54
-1 3 5 761.49 55.53
1 -3 5 785.15 55.49
1 3 5 796.84 55.74
1 -3 5 803.4 55.37
1 3 -5 725.04 55.83
1 3 5 709.74 54.79
-1 3 5 752.13 55.53
1 -3 -5 772.51 55.28
-1 -3 5 766.51 55.79
-1 -3 5 719.4 54.52
-1 -3 5 795.94 55.54
1 3 5 735.95 55.11
1 -3 -5 744.47 55.79
1 -3 5 707.18 55.4
1 -3 5 791.82 55.71
1 -3 5 867.62 62.48
1 3 5 922.32 60.21
-1 3 -5 833.15 61
1 -3 5 746.56 61.05
-1 -3 -5 829.8 62.3
1 3 5 866.08 60.22
1 4 -5 26.45 4.43
1 -4 5 23.6 4.15
1 4 5 22.08 4.11
1 -4 5 23.21 4.01
1 -4 5 23.93 6.83
1 4 5 22.22 6.65
-1 4 5 27.13 4.38
1 -4 5 21.38 3.23
1 4 5 17.54 3.4
1 -4 -5 27.61 4.07
-1 4 5 21.55 3.92
-1 4 -5 18.98 5.74
1 -4 5 19.72 3.99
1 4 5 19.75 3.72
1 -4 5 43.12 7.58
1 4 5 32.63 7.39
1 -4 5 35.61 8.23
1 4 5 23.7 5.76
-1 -4 5 26.26 3.8
-1 -4 5 28.35 4.3
-1 -4 -5 21.9 4.11
-1 -4 -5 20.42 6.63
1 4 5 27.25 6.38
1 -4 5 23.54 4.15
1 -4 -5 12.9 3.54
-1 4 5 26.72 3.43
1 -4 5 26.55 6.39
1 5 5 3.07 4.22
1 5 5 2.52 1.66
-1 5 5 2.43 1.91
1 -5 5 1.54 4.02
1 -5 5 2.53 1.91
1 -5 5 1.18 1.79
1 5 -5 9.47 5.46
1 5 -5 2.9 1.79
-1 5 5 3.12 2.04
1 5 5 2.04 1.48
-1 -5 5 0.45 1.48
1 -5 -5 3.99 1.86
-1 -5 -5 4.29 1.72
1 5 5 6.18 5.02
1 5 5 4.42 2.16
-1 -5 -5 2.85 3.28
-1 -5 5 3.2 1.65
1 -5 -5 5.84 4.21
-1 5 -5 4.17 3.62
1 -5 5 7.63 4.96
1 -5 5 4.77 3.44
1 -5 -5 6.26 2.43
1 5 5 4.59 3.46
1 -5 5 4.47 2.16
1 5 -5 5.77 3.97
-1 -5 -5 6.05 2.41
-1 -5 -5 6.49 4.23
-1 -5 5 1.19 1.48
1 -5 5 6.95 2.64
-1 5 5 5.51 1.73
1 5 5 2.38 2.93
1 -5 5 -1.14 2.97
-1 5 -5 4.71 4.31
1 -6 -5 112.81 16.32
1 -6 5 132.41 12.2
-1 6 5 99.94 11.46
1 6 -5 113.16 12.02
1 -6 5 131.94 12.03
-1 6 -5 120.32 12.09
1 6 5 112.44 11.65
1 6 5 121.82 11.3
-1 6 5 115.47 11.66
-1 -6 -5 138.63 11.43
-1 -6 5 117.63 10.9
-1 -6 -5 157.38 15.92
1 -6 5 110.62 11.78
1 -6 -5 113.97 12
-1 -6 5 140.85 11.51
1 6 -5 157.48 16.16
-1 -6 5 128.61 11.91
1 6 5 131.62 14.3
1 -6 5 136.54 14.62
1 6 5 149.98 16.28
1 -6 5 168.03 16.92
1 -6 -5 157.36 16.31
-1 6 -5 123.7 14.82
-1 -6 -5 126.9 12.17
1 -6 5 132.88 12.29
1 6 -5 136.16 17.29
1 6 5 132.75 14.43
1 -6 5 140.25 16.39
1 6 5 126.06 15.69
-1 6 -5 149.56 16.15
-1 -6 -5 141.22 16.2
1 -6 5 136.27 14.42
-1 6 5 133.5 10.73
1 7 -5 11.2 3.14
1 -7 5 8.25 2.73
-1 7 5 9.14 2.73
-1 7 -5 3.6 2.02
1 -7 -5 8.84 5.34
1 -7 5 2.87 3.76
1 7 -5 12.07 5.42
1 7 5 7.12 4.65
1 7 5 6.47 2.08
-1 -7 5 6.64 1.96
-1 -7 -5 5.88 2
1 -7 5 5.41 1.13
-1 7 5 5.25 2.45
1 -7 -5 13.44 5.37
1 7 5 5.64 3.7
-1 -7 -5 1.31 3.8
-1 7 -5 6.42 4.04
1 -7 5 5.54 4.19
1 -7 5 5.41 2.46
1 -7 5 6.7 3.9
1 7 -5 11.77 4.7
1 -7 -5 7.56 2.74
1 7 5 8.48 4.14
-1 -7 5 3.64 2.08
-1 7 5 6.85 1.88
1 7 5 11.7 4.35
-1 7 -5 1.43 3.32
1 -7 5 7.51 2.75
-1 -7 -5 7.02 2.62
-1 -7 -5 8.95 4.32
1 -7 5 11.33 4.02
-1 8 -5 146.22 13.88
-1 8 5 146.9 13.51
1 -8 5 128.73 13.07
1 8 -5 139.91 14.17
1 8 5 160.9 13.32
-1 -8 5 141 12.2
-1 8 5 124.95 13.27
-1 -8 -5 151.38 12.9
1 -8 -5 144.64 14.16
1 8 5 154.8 16.74
1 -8 5 136.69 13.81
1 8 -5 188.29 17.22
-1 -8 -5 149.44 16.3
1 -8 -5 181.76 17.28
-1 8 -5 143.99 16.17
-1 -8 -5 154.03 13.96
-1 -8 5 130.95 13.27
1 -8 5 177.62 17.54
-1 8 5 164.03 12.28
1 8 5 153.7 15.62
1 8 -5 164.86 18.19
1 -8 5 132.36 14.81
-1 -8 -5 169.33 17.62
1 -8 -5 160.03 18.47
-1 8 -5 151.54 16.6
1 9 -5 8.87 3.37
1 9 -5 1.52 3.75
1 -9 -5 3.15 3.88
-1 9 -5 1.56 1.94
1 9 5 7.15 1.81
-1 9 5 7.09 2.37
1 -9 5 5.33 2.54
-1 9 5 7.2 2.6
1 9 -5 2.21 0.83
-1 9 -5 4.06 1.6
-1 -9 5 5.96 1.85
-1 -9 -5 5.89 2.15
1 9 5 6.54 2.44
1 -9 -5 4.79 3.3
-1 -9 -5 5.31 2.65
-1 9 -5 4.67 2.58
1 9 -5 3.86 2.26
1 -9 -5 1.68 2.08
1 9 -5 11.63 4.17
1 9 5 3.94 3.96
1 -9 5 5.11 3.85
-1 -9 -5 8.58 4.13
-1 9 -5 4.82 3.48
-1 -9 -5 2.77 3.19
-1 9 -5 10.61 4.32
1 -9 5 8.57 3.52
-1 9 5 6.6 1.88
-1 -9 5 2.55 2.3
1 9 5 9.9 3.86
1 10 -5 2.88 3.76
1 10 -5 3.77 2.73
1 10 5 7.07 1.7
-1 10 5 2.44 2.21
1 -10 -5 5.98 4.11
-1 10 -5 3.39 2.34
-1 -10 -5 6.23 2.33
1 10 -5 2.51 1.08
-1 -10 5 7.1 2.08
-1 10 -5 5.55 1.84
1 -10 -5 9.08 4.08
1 10 -5 3.3 3.19
1 10 -5 2.74 1.81
1 10 5 10.22 4.31
-1 10 -5 1.17 3.06
-1 -10 -5 4.08 2.47
1 -10 5 3.71 3.23
-1 10 -5 10.65 3.58
-1 -10 -5 8.33 4.15
1 -10 -5 8.03 3.11
-1 10 5 6.32 1.94
1 -10 5 1.82 2.64
-1 -10 5 5.45 2.66
1 10 5 3.81 3.22
-1 10 -5 9 4.75
-1 -10 -5 1.34 3.32
1 11 -5 556.99 42
1 11 5 575.34 38.36
-1 11 -5 487.13 40.86
-1 11 5 499.5 39.58
-1 11 -5 483.33 38.71
1 11 5 591.98 41.61
-1 -11 5 534.47 38.57
-1 -11 -5 547.29 39.83
-1 -11 5 504.02 40.51
1 11 -5 490.26 41.69
1 11 5 553.31 43.33
1 -11 5 511.2 42.71
-1 -11 -5 560.16 41.38
1 11 -5 520.93 40.2
-1 11 -5 577.69 42.22
1 -11 -5 546.89 42.39
-1 -11 -5 534 42.69
1 -11 -5 573.87 42.08
-1 11 -5 569.13 43.1
1 -11 -5 530.5 44.05
1 11 -5 483.28 43.17
-1 11 -5 488.11 42.66
-1 -11 -5 592.14 44.06
1 -11 5 515.71 41.1
1 11 5 545.37 41.53
1 12 -5 1.31 3.8
-1 12 -5 4.81 2.83
1 -12 -5 2.76 3.22
1 12 -5 4.32 3.16
1 12 5 13.92 2.39
-1 12 5 9.03 2.91
-1 -12 -5 7.73 3.12
-1 12 -5 8.96 2.47
1 12 5 9.38 3.41
-1 -12 5 6.93 2.08
-1 -12 -5 8.34 3.17
1 -12 5 13.89 4.3
1 12 5 13.29 4.49
-1 12 -5 7.53 3.29
-1 -12 -5 11.4 4.12
1 -12 -5 8.31 3.76
1 12 -5 6.77 2.75
1 -12 -5 9.24 3.72
1 12 -5 12.98 4.28
1 -12 5 10.16 3.65
1 12 5 7.89 3.19
-1 -12 -5 10.25 4.48
-1 13 -5 635.88 46.35
-1 13 5 636.08 44.3
-1 13 -5 550.48 43.14
1 13 5 667.59 42.64
1 13 -5 688.86 47.52
1 13 5 648.64 46.17
-1 -13 5 555.5 42.28
1 13 5 569.49 46.61
1 13 -5 530.43 45.08
-1 13 -5 685.76 47.39
1 -13 -5 629.63 46.8
1 13 -5 609.02 44.85
1 -13 5 538.18 46.04
1 -13 -5 541.22 45.26
-1 -13 -5 581.78 45.59
1 -13 5 537.67 44.59
1 -13 5 607.1 46.56
1 13 -5 606.59 47.07
1 13 5 565.1 44.97
1 -13 -5 485.83 46.32
1 14 5 23.18 3.49
1 -14 -5 12.29 4.85
1 14 -5 21.4 5.53
-1 14 -5 22.24 5.29
-1 14 5 25.06 4.6
1 14 -5 18.19 5.12
-1 14 -5 16.59 3.64
1 14 5 11.53 3.99
-1 -14 5 18.57 3.14
1 14 -5 21.28 4.63
1 14 -5 20.16 4.77
1 -14 -5 39.63 6.89
1 14 5 22.71 5.57
1 -14 5 15.07 4.87
-1 14 -5 19.73 5.42
-1 -14 -5 35.13 6.21
1 -14 -5 18.1 4.8
1 -14 5 26.44 6.06
1 14 5 19.24 4.51
1 -14 5 19.34 4.36
1 15 -5 58.18 9.13
1 -15 -5 42.37 7.58
-1 15 -5 55.06 8.24
1 15 5 33.18 4.8
-1 15 5 50.35 6.65
1 15 -5 27.11 6.13
-1 15 -5 42.07 5.8
1 15 5 51.79 7.8
1 15 5 36.5 7.01
1 -15 -5 33.11 6.32
-1 -15 -5 46.96 7.67
1 -15 5 42.99 7.29
1 15 -5 40.43 6.49
-1 15 -5 42.34 7.76
1 -15 -5 37.33 7.57
1 15 -5 44.36 7.03
1 -15 5 37.07 6.05
1 -15 5 44.17 7.91
1 15 5 31.4 5.85
-1 16 5 3.23 2.44
1 16 5 1.93 1.74
-1 16 -5 6.43 3.71
1 16 -5 2.92 3.11
1 -16 -5 5.68 3.82
1 16 5 4.78 3.29
-1 16 -5 3.53 2.61
-1 16 -5 4.28 3.04
1 16 5 9.07 3.82
1 -16 -5 6.32 3.04
1 16 -5 0.88 3.06
1 16 -5 2.09 2.57
1 -16 -5 4.16 2.95
-1 -16 -5 1.23 3.02
1 16 -5 -2.07 3.61
1 -16 5 2.18 2.29
1 -16 5 -1.32 3.25
-1 16 5 5.43 2.32
1 17 -5 24.99 6.8
1 17 5 25.23 3.78
-1 17 -5 15.17 5.15
-1 17 5 26.89 5.31
1 17 5 12.97 5.12
-1 17 5 25.41 5.01
1 17 -5 23.66 5.73
-1 -17 -5 23.69 5.67
-1 17 -5 35.06 7.51
1 17 -5 16.68 4.53
1 -17 -5 27.65 5.45
1 -17 -5 29.6 6.96
1 17 5 19.77 5.12
1 -17 5 17.09 5.31
1 -17 5 17.9 4.14
-1 -17 5 24.36 4.55
1 -17 -5 18.41 5.01
1 17 -5 17.04 4.88
1 18 -5 10 5.27
-1 18 5 12.25 4.07
-1 18 -5 7.37 4.67
1 18 5 13.17 5.04
-1 18 5 8.65 3.8
-1 -18 -5 9.85 4.11
1 -18 -5 8.41 3.72
1 18 -5 13.45 4.68
-1 18 -5 14.76 5.37
1 -18 -5 4.76 4.19
1 18 -5 10.02 3.48
1 -18 -5 12.84 4.35
1 -18 5 15.57 5.33
-1 19 5 37.53 6.6
-1 19 -5 11 5.34
1 19 -5 35.72 8.21
-1 19 5 27.96 5.7
1 19 5 16.34 5.35
-1 -19 -5 15.04 5.61
1 -19 -5 16.48 4.21
1 19 -5 36.71 7.01
-1 19 -5 43.57 8.96
1 19 -5 22.75 4.69
-1 -19 5 30.37 6.68
1 -19 5 22.41 6.03
-1 20 5 -1.12 4.66
-1 20 -5 16.71 5.99
1 20 -5 7.59 4.95
1 20 5 9.83 4.41
-1 20 5 4.19 3.42
1 20 -5 7 4.22
-1 -20 -5 7.99 4.61
-1 20 -5 5.54 4.25
1 -20 5 7.34 4.39
-1 -20 5 -1.22 3.68
1 21 -5 321 36.02
-1 21 -5 357.69 36.24
-1 21 5 438.9 34.99
1 21 5 527.42 35.56
-1 21 5 416.42 34.04
-1 -21 -5 355.99 35.84
-1 21 -5 380.71 37.41
1 21 -5 338.19 34.55
-1 -21 5 372.97 34.12
1 -21 5 515.71 35.64
-1 22 5 15.13 5.62
-1 22 -5 18.18 7.13
1 22 5 21.53 5.2
1 22 5 7.81 4.44
-1 22 5 19.76 5.22
1 22 -5 6.12 4.1
-1 22 -5 13.88 6.04
-1 -22 -5 17.5 6.69
1 -22 5 18.7 5.82
-1 -22 5 13.39 5.05
-1 23 -5 293.46 27.47
1 23 5 254.07 23.08
-1 23 5 227.16 22.05
1 23 5 256.73 23.03
-1 23 -5 274.96 27.44
1 23 -5 192.26 23.45
-1 -23 -5 221.88 25.01
-1 -23 5 252.93 23.15
1 -23 5 286.96 23.98
1 24 5 12.84 4.97
1 24 -5 27.33 6.83
1 -24 5 18.13 5.34
-1 -24 5 16.4 5.02
1 25 -5 98.14 13.56
1 -25 5 107.81 12.76
1 0 -6 36.83 5.86
1 0 6 45.96 5.57
1 0 6 35.93 5.9
-1 0 6 43.05 6.45
1 0 -6 32.8 11.46
1 0 6 44.29 5.91
-1 0 6 47.28 6.5
1 0 -6 30.96 9.02
1 0 6 40.33 6.2
1 0 6 29.61 5.68
1 0 6 48.15 9.74
-1 0 -6 41.97 9.86
1 0 6 28.1 9.49
-1 0 6 50.18 6.6
-1 0 -6 55.53 11.99
1 0 -6 32.14 5.87
1 0 6 49.38 10.18
-1 -1 6 3370.23 213.33
1 -1 6 3171.6 212.81
-1 1 6 3306.7 213.08
1 1 -6 3284.69 213.49
1 -1 6 3083.86 212.07
1 1 6 3174.63 212.82
-1 -1 6 3166.1 213.23
1 -1 6 2829.78 210.8
1 -1 6 3085.51 212.57
1 1 6 3099.64 212.34
-1 1 6 3026.62 213.06
-1 1 6 3316.31 212.93
1 1 6 2733.6 219.92
1 1 6 3043.83 212.99
1 1 6 3119.72 212.61
1 -1 -6 3028.04 212.99
1 -1 6 2959.63 221
1 -1 6 3145.88 212.83
1 1 6 3124.77 218.09
-1 -1 6 2848.03 211.85
1 -1 -6 2549.79 218.33
1 1 -6 3180.12 220.28
-1 -1 6 3247.3 212.84
-1 1 -6 3125.29 220.3
1 1 -6 3012.32 212.79
1 -1 6 3023.91 212.81
-1 -1 -6 2688.58 218.91
1 -1 6 3229.21 218.77
1 1 -6 2933.88 222.74
1 -1 -6 2743.25 222.22
-1 -1 -6 2743.35 220.44
1 1 6 2651.92 217.23
-1 1 -6 2915.64 221
1 2 6 22.18 4.79
1 -2 6 26.68 4.38
-1 2 6 17.79 4.43
1 -2 -6 25.65 9.05
1 -2 6 28.88 4.92
-1 -2 6 30.66 5.23
1 2 -6 21.68 4.41
1 2 6 22.84 4.21
1 -2 6 29.34 4.92
-1 -2 6 18.3 4.47
-1 2 6 20.2 4.35
1 -2 6 28.92 3.71
1 -2 6 19.04 4.31
1 2 -6 20.99 7.57
-1 -2 6 18.68 3.88
1 -2 6 23.74 7.88
-1 2 -6 25.31 8.08
1 2 6 17.48 4.24
-1 -2 6 21.3 4.78
-1 2 6 29.43 4.94
1 2 6 24.69 7.03
1 -2 6 21.74 4.7
1 -2 -6 21.46 4.54
-1 -2 -6 25.07 8.77
1 -3 6 274.7 23.76
1 -3 6 281.55 23.56
-1 -3 6 321.98 24.65
1 -3 6 287.39 22.22
-1 3 6 306.73 24.24
1 3 6 265.46 23.77
1 3 -6 316.15 24.8
-1 3 6 284.01 24.04
1 -3 6 318.26 24.45
-1 -3 6 299.65 24.57
1 3 6 290.69 23.58
-1 -3 6 320.14 24.32
1 -3 6 342.26 31.85
1 -3 6 281.65 23.91
1 -3 6 281.95 24.07
1 -3 -6 306.5 24.57
-1 3 -6 328.51 30.22
1 3 -6 298.17 29.42
-1 -3 6 296.97 23.29
1 3 6 283.21 23.68
1 3 6 308.9 28.73
1 -3 -6 392.5 34.72
-1 -3 -6 382.73 32.89
1 4 6 21.26 4.34
-1 4 6 22.02 4.22
-1 -4 6 23.37 4.68
1 -4 6 22.55 4.57
1 -4 6 21.77 4.27
1 4 -6 13.79 7.35
1 -4 -6 21.07 8.26
1 4 -6 26.84 4.78
1 4 6 19.58 3.71
-1 4 6 26.26 4.5
-1 -4 6 21.62 4.37
1 -4 6 23.28 3.43
-1 -4 6 22.45 3.97
-1 4 -6 27.02 7.64
1 4 6 26.59 4.57
1 4 6 25.55 7.96
1 4 -6 19.19 6.77
1 -4 6 39.14 9.27
1 -4 6 17.42 4.01
-1 -4 -6 20.99 7.21
-1 -4 6 16.66 3.72
-1 4 -6 26.48 8.05
1 -4 6 19.6 4.25
1 -4 6 18.96 6.12
1 4 6 25.38 6.9
-1 -4 -6 19.24 4.17
1 -4 -6 20.5 4.29
1 5 6 80.87 8.99
1 5 -6 72.07 8.89
1 -5 6 76.76 8.76
1 5 -6 98.79 15.06
1 -5 6 67.78 8.73
-1 5 6 81.74 9.02
1 -5 -6 67.04 13.18
-1 5 6 71.31 8.51
1 5 6 73.7 8.17
-1 -5 6 76.57 8.05
1 -5 -6 81.35 9.11
-1 -5 6 76.63 8.78
1 5 -6 96.81 13.11
1 5 6 73.72 8.41
1 -5 6 68.82 8.64
1 -5 6 75.57 8.82
-1 -5 -6 65.98 8.5
-1 -5 -6 93.72 13.07
-1 5 -6 95.9 13.15
1 -5 -6 74.78 12.02
1 5 6 88.67 13.51
1 -5 6 76.72 12.71
-1 5 6 69.07 7.27
1 5 6 80.2 11.56
-1 5 -6 85.22 13.51
-1 -5 -6 81.96 13.32
1 -5 6 89.35 11.96
1 -6 -6 36.2 9.86
-1 6 -6 22.42 4.91
1 6 -6 28.9 5.4
1 6 -6 54.35 10.81
1 -6 6 38.2 5.65
-1 6 6 32.73 5.31
1 -6 6 20.52 4.56
-1 6 6 28.73 5.12
-1 -6 6 29.61 4.5
1 6 6 27.27 4.69
1 -6 -6 53.61 9.41
1 -6 6 40.58 8.54
1 6 6 29.71 4.93
-1 -6 -6 26.92 7.49
1 6 6 62.38 10.73
-1 -6 6 28.62 4.79
1 6 -6 38.18 8.24
1 -6 6 30.96 5.21
-1 6 -6 45.93 8.83
-1 6 -6 58.89 10.59
-1 -6 -6 38.39 9.25
1 -6 -6 38.17 5.75
-1 6 6 31.67 4.13
1 6 6 45.98 8.01
-1 -6 -6 44.25 6.15
1 -6 6 39.42 7.63
-1 -6 6 34.59 5.49
-1 7 6 242.69 21.4
1 7 -6 300.52 22.87
-1 7 -6 272.23 22.16
-1 -7 -6 291.32 21.09
-1 -7 6 259.77 20.14
-1 7 6 283.04 21.97
1 7 6 272.38 21.18
1 7 6 281.89 26.54
1 -7 6 266.29 26.37
-1 7 -6 280.41 25.94
1 -7 -6 251.19 21.93
1 7 -6 310.33 26.47
-1 -7 6 281.2 21.08
-1 -7 -6 349.71 27.73
-1 -7 -6 255.13 21.88
-1 -7 6 259.78 21.65
1 -7 -6 333.91 26.89
1 7 -6 285.9 27.92
1 -7 -6 290.98 28.45
-1 7 -6 272.56 26.38
-1 -7 -6 336.64 28.62
1 7 6 211.78 18.07
-1 7 6 262.39 19.74
1 -7 6 308.92 25.1
1 7 6 305.57 25.21
1 8 -6 15.01 6.73
1 8 -6 6.52 2.82
1 -8 -6 5.8 4.76
-1 8 -6 6.04 2.92
-1 -8 6 8.82 2.41
1 -8 6 3.76 1.13
1 8 6 2.59 2.2
-1 -8 -6 7.74 2.66
-1 8 6 6.85 2.74
-1 8 -6 9.03 4.72
1 -8 -6 8.82 4.79
1 -8 6 6.35 5.17
1 8 6 8.09 5.08
-1 -8 -6 12.32 4.83
1 8 -6 -1.44 3.97
1 -8 -6 0.89 2.21
-1 8 6 6.24 2.08
-1 8 -6 13.44 5.47
-1 -8 -6 6.03 3.1
1 -8 6 5.91 3.86
-1 -8 -6 12.27 5.9
1 8 6 7.33 4.12
-1 9 -6 2533.17 182
1 9 -6 2522.39 182.34
-1 -9 -6 2645.13 180.51
-1 -9 6 2408.11 179.25
1 9 6 2634.12 181.11
-1 9 6 2481.45 181.53
-1 9 -6 2752.46 183.21
1 -9 6 2745.93 185.99
1 9 6 2847.39 186.52
-1 9 -6 2614.09 185.19
1 9 -6 2657.73 185.05
1 -9 -6 2685.41 185.19
1 -9 -6 2502.29 182.17
-1 -9 -6 2682.94 185.73
-1 -9 -6 2624.81 182.09
1 -9 -6 2594.95 187.21
-1 -9 -6 2711.36 186.95
1 -9 6 2575.45 183.36
-1 9 -6 2749.72 186.57
1 9 -6 2523.67 186.75
1 9 6 2800.49 184.09
-1 9 6 2539.86 179.16
-1 10 -6 11.31 3.63
1 10 6 7.58 2.26
-1 10 6 6.66 2.79
1 10 -6 11.49 3.9
1 10 -6 8.67 5.25
1 -10 -6 10.56 5.75
-1 -10 -6 10.01 3.18
-1 -10 6 10.12 2.46
-1 10 6 5.81 2.68
1 10 -6 18.47 5.29
-1 10 -6 5.44 3.71
1 -10 -6 17.59 5.42
1 -10 6 16.13 5.59
-1 -10 -6 10.06 4.71
-1 10 -6 24.03 6.17
1 10 6 3.03 3.53
-1 -10 -6 4.59 3.15
1 -10 -6 16.77 4.41
-1 10 6 12.83 2.58
-1 10 -6 12.44 5.27
1 -10 6 8.74 3.85
1 10 6 13.62 4.67
-1 -10 -6 1.63 4.52
-1 11 -6 1131.7 87.54
-1 11 6 1188.47 86.1
1 11 6 1208.88 84.59
1 11 -6 1174.09 88.44
-1 -11 6 1180.33 84.67
1 11 -6 1182.33 89.23
1 -11 6 1246.14 90.47
1 -11 -6 1287.91 88.6
-1 11 -6 1317.22 89.22
-1 11 -6 1186.2 89.81
1 -11 -6 1184.35 89.42
1 11 6 1199.6 90.59
-1 -11 -6 1160.69 87.52
-1 -11 -6 1212.45 90.13
1 11 -6 1175.73 91.24
-1 -11 -6 1235.37 91.28
-1 11 6 1235.49 84.7
-1 11 -6 1216.7 90.77
1 -11 6 1225.04 88.36
1 11 6 1239.48 88.72
1 -11 -6 1222.84 91.94
-1 12 6 2.09 2.1
1 12 6 1.19 1.47
1 12 -6 1.17 3.06
-1 12 -6 -1.04 2.56
1 -12 -6 3.22 3.43
1 12 -6 7.73 4.84
1 12 6 10.09 3.82
-1 -12 6 2.43 1.8
1 12 -6 1.15 0.96
1 -12 -6 12.39 4.69
1 12 -6 1.68 2.42
1 12 -6 1.22 2.8
1 12 6 2.85 3.91
1 -12 6 2.75 3.37
-1 12 -6 4.07 3.9
-1 -12 -6 -2.74 3.57
-1 12 -6 6.02 3.31
-1 -12 -6 4 2.88
1 -12 -6 2.21 2.89
-1 12 -6 2.92 3.81
-1 -12 -6 7.64 4.2
1 12 6 -1.04 3.73
1 -12 6 3.01 3.14
1 13 -6 209.88 18.75
1 13 -6 105.88 12.41
-1 13 -6 210.97 18.14
1 13 6 217.27 14.35
-1 13 6 209.15 15.87
1 13 6 228.06 18.49
-1 -13 6 174.24 13.85
-1 13 -6 165.46 14.4
1 -13 -6 194.44 18.3
1 -13 -6 190.81 18
-1 -13 -6 158.64 16.68
1 13 6 206.12 19.5
1 -13 6 193.83 18.85
1 13 -6 156.01 17.25
-1 13 -6 228.89 19.33
-1 -13 -6 178.42 18.53
1 13 -6 181.75 16.4
1 -13 -6 157.53 18.64
1 13 -6 182.61 19.1
1 -13 6 169.1 16.65
1 13 6 206.23 17.69
-1 -13 -6 177.74 19.22
1 14 -6 1.41 3.88
1 14 6 7.2 2.04
-1 14 -6 8.35 3.89
1 14 -6 6.67 3.86
1 -14 -6 8.92 5.33
-1 14 6 7.49 2.93
1 14 6 4.58 3.16
1 14 -6 4.12 1.46
-1 14 -6 4.95 2.11
1 14 -6 -1.14 3.16
1 14 -6 2.87 2.78
1 -14 -6 8.13 3.36
1 14 6 12.14 4.98
1 -14 6 1.29 4.35
-1 14 -6 12.03 4.8
-1 -14 -6 4.58 3
1 -14 -6 7.56 3.64
1 -14 6 9.12 4.25
1 14 6 1.99 4.65
1 -14 6 0.96 3.35
1 15 6 19.45 3.25
-1 15 -6 19.2 5.19
1 15 -6 11.41 4.4
-1 15 6 20.87 4.41
1 15 -6 13.5 5.2
1 -15 -6 18.79 6.1
1 15 -6 10.31 2.31
-1 15 -6 10.07 3.12
1 15 6 12.09 4.56
-1 15 -6 11.19 4.65
1 -15 -6 14.86 4.94
1 -15 -6 13.7 4.54
1 15 -6 14.69 5
1 15 6 20.99 6
-1 -15 -6 17.07 4.95
1 15 -6 20.48 4.97
1 -15 6 15.03 5.4
1 -15 6 18.7 4.83
-1 16 6 16.49 4.22
1 16 -6 25.83 6.44
-1 16 -6 8.19 4.59
1 16 6 20.9 3.68
1 16 6 26.6 6.14
-1 16 -6 14.72 3.62
1 -16 -6 18.75 5.59
1 16 -6 19.54 4.95
1 16 -6 20.99 5.55
1 16 6 13.88 5.27
-1 -16 -6 16.98 5.45
1 -16 -6 15.86 4.86
-1 16 -6 19 6.2
1 16 -6 9 5.25
1 -16 6 22.91 6.45
1 -16 6 15.27 4.63
1 -16 -6 23.92 6.69
1 17 -6 294.27 28.17
-1 17 -6 300.89 27.62
-1 17 6 340.19 25.13
1 17 6 298.11 26.97
-1 17 -6 347.37 29.02
1 -17 -6 305.45 28.12
1 17 -6 284.25 25.8
-1 -17 -6 300.5 27.32
1 -17 -6 255.25 25.15
1 17 -6 266.55 25.14
1 -17 6 235.15 26.26
1 17 -6 265.83 25.82
1 -17 -6 270.29 26.62
1 18 -6 5.15 4.47
-1 18 -6 1.55 3
-1 18 6 0.94 3.15
-1 18 6 2.13 3.21
1 18 6 4.35 3.78
1 18 -6 -1.22 3.35
1 -18 -6 1.64 3.19
1 -18 -6 -2.16 3.25
-1 -18 -6 2.94 3.62
-1 18 -6 3.29 3.78
1 18 -6 -1.1 3.03
1 -18 6 -2.98 4.1
-1 19 -6 662.76 51.03
-1 19 6 704.93 47.7
1 19 -6 711.7 52.67
1 19 6 488.31 48.23
-1 19 6 700.88 48.27
1 -19 -6 530.97 46.48
-1 19 -6 700.18 51.98
1 19 -6 643.09 48.79
-1 -19 -6 688.75 50.72
1 19 -6 465.36 45.93
1 -19 6 553.4 48.66
-1 20 6 10.64 4.46
1 20 -6 5.77 5.04
-1 20 -6 6.94 4.55
1 20 6 8.85 5.15
-1 20 6 4.63 3.8
-1 20 -6 5.51 5.32
1 20 -6 14.94 5.68
-1 -20 -6 9.9 4.99
1 -20 6 15.71 5.97
-1 -20 6 3.98 3.86
-1 21 -6 403.35 38.81
1 21 -6 322.62 37.92
1 21 6 435.93 37.31
-1 21 6 448.08 36.46
-1 -21 -6 454.06 39.34
-1 21 -6 489.79 41.07
1 21 -6 428.39 37.44
-1 -21 6 427.67 37.15
1 -21 6 494.63 37.88
-1 22 -6 -5.78 5.02
-1 22 6 3.82 3.67
1 22 6 -2.71 3.9
-1 22 -6 -6.09 3.53
1 22 -6 -1.52 3.95
-1 -22 -6 -1.83 4.21
-1 -22 6 1.42 4.44
1 -22 6 -1.34 3.86
-1 23 6 -2.54 3.65
1 23 6 -1.28 2.95
1 23 -6 1.58 4.34
1 -23 6 -2.57 4.74
-1 -23 6 4.05 4.54
1 24 -6 1.55 3.82
-1 -24 6 -3.73 4.7
1 0 7 2.55 2.22
1 0 -7 2.67 2.56
1 0 -7 -3.04 6.47
1 0 7 -0.77 1.89
-1 0 7 3.61 2.82
1 0 -7 4.61 4.9
-1 0 7 0.7 2.12
-1 0 -7 2.43 5.58
-1 0 -7 5.52 8.65
1 0 -7 -0.87 2.13
1 1 -7 358.04 28.41
1 -1 7 327.42 25.63
1 1 7 371.85 27.25
1 -1 7 379.74 27.41
-1 -1 7 360.39 28.55
1 1 7 327.2 27.35
1 -1 7 351.37 27.74
-1 1 7 348.11 28.3
-1 1 -7 336.25 34.66
-1 -1 7 323.23 27.09
1 1 -7 357.46 28.29
1 1 -7 318.36 33.73
1 -1 -7 344.43 34.67
1 -1 -7 366.06 28.44
-1 -1 -7 287.27 33.75
1 -1 -7 314.03 36.7
-1 -1 -7 288.02 35.07
-1 1 -7 337.8 36.39
1 1 -7 349.08 37.52
1 -2 7 3.43 2.46
1 2 -7 0.95 2.33
1 -2 -7 -2.88 6.12
-1 2 7 4.41 2.54
-1 -2 7 1.82 2.09
1 2 7 0.75 1.84
1 -2 7 4.08 2.46
1 -2 7 1.56 1.4
1 2 -7 -4.29 4.93
-1 2 -7 2.27 6.22
-1 -2 7 0.66 1.97
1 -2 -7 2.71 2.36
-1 -2 -7 2.62 5.09
1 -3 7 78.46 7.39
1 -3 -7 85.67 15.92
1 3 -7 67.89 9.25
1 3 7 77.28 8.85
-1 -3 7 65.68 8.99
-1 3 7 95.31 9.92
1 -3 7 83.59 9.55
-1 -3 7 70.52 8.4
1 3 -7 90.83 14.45
-1 3 -7 85.19 14.44
1 -3 -7 89.1 10.07
-1 -3 -7 95.91 16.25
1 4 -7 -0.98 2.7
1 -4 -7 2.64 4.58
1 4 -7 2.59 5.95
1 -4 7 0.88 1.7
1 -4 7 1.5 1.45
-1 4 7 0.85 1.66
1 4 7 1.46 1.9
-1 -4 7 -0.92 1.79
-1 -4 7 -0.66 1.73
-1 -4 -7 2.14 4.56
-1 4 -7 -2.1 4.83
1 4 -7 1.98 4.56
1 -4 -7 1.89 2.46
-1 -4 -7 0.91 1.93
-1 -4 -7 4.87 5.59
-1 4 -7 -2.35 4.09
1 5 -7 4.96 6.11
-1 5 -7 8.69 3.38
1 -5 -7 7.57 6.22
1 5 -7 13.95 3.8
-1 5 7 2.53 2.24
1 5 7 10.14 2.92
-1 -5 7 11.29 3.4
1 -5 -7 7.73 5.33
1 5 -7 3.81 4.07
-1 -5 7 4.61 2.47
-1 -5 -7 2.06 5.39
-1 5 -7 12.04 6.05
-1 -5 -7 2.33 4.54
-1 5 7 4.29 1.9
-1 -5 -7 9.22 3.33
-1 5 -7 11.32 6.23
1 -5 -7 8.68 3.27
1 6 -7 33.34 9.97
-1 6 -7 36.93 6.18
1 -6 -7 43.59 10.77
1 6 -7 31.63 5.94
-1 -6 7 39.48 6.78
-1 6 7 30.48 5.65
1 6 7 36.21 5.68
-1 -6 7 35.45 5.04
-1 -6 -7 45.31 9.95
-1 6 -7 42.49 9.62
1 -6 -7 31.48 8.37
1 6 -7 22.1 7.17
-1 -6 7 30.8 5.39
-1 6 -7 51.92 10.71
1 -6 -7 44.58 6.9
-1 -6 -7 47.09 10.74
-1 6 7 28.33 4.2
-1 -6 -7 32.79 5.99
-1 7 -7 675.34 47.6
1 7 -7 665.66 47.84
-1 7 7 637.58 46.69
-1 -7 7 650.74 44.92
1 7 7 686.15 46.34
1 -7 -7 727.82 52.78
1 -7 -7 695.53 48
-1 -7 7 663 45.89
-1 -7 -7 654.78 47.3
-1 -7 -7 714.79 53.2
-1 7 -7 757.49 53.44
1 7 -7 750.96 52.99
-1 7 7 634.91 44.27
1 7 7 487.76 42.54
-1 7 -7 719.88 54.3
-1 -7 -7 757.81 55.23
1 -7 -7 740.98 56.25
1 7 -7 683.09 54.76
1 -8 -7 42.91 9.88
-1 8 -7 25.05 5.28
1 8 -7 37.63 9.87
1 8 -7 25.43 5.26
1 8 7 21.5 4.09
1 -8 7 20.35 2.43
-1 8 7 20.61 4.57
-1 -8 7 17.12 3.4
1 -8 -7 18.8 6.58
1 8 -7 38.62 8.2
-1 -8 -7 45.6 9.44
-1 8 -7 8.98 5.07
-1 8 7 25.15 3.45
-1 -8 -7 28.97 8.88
-1 8 -7 18.02 6.83
1 -8 -7 24.69 5.19
-1 -8 -7 32.87 5.66
1 9 -7 256.5 20.6
-1 9 -7 254.3 20.28
-1 -9 7 228.21 16.91
1 9 7 263.71 19.23
-1 9 7 236.35 19.27
1 -9 7 147.95 14.59
1 9 -7 267.31 23.78
1 -9 -7 252.31 20.36
1 -9 -7 277.09 24.05
-1 -9 -7 273.79 24.75
-1 -9 -7 283.62 20.78
-1 9 -7 280.58 24.66
1 9 -7 280.63 26.62
1 -9 -7 239.81 25.4
-1 9 -7 241.73 24.42
-1 -9 -7 301.74 26.49
-1 9 7 241.32 16.67
-1 10 -7 -2.13 2.61
1 -10 -7 2.03 3.94
1 10 -7 3.96 4.55
1 10 -7 -1.15 2.23
1 10 7 -0.79 1.95
-1 10 7 1.82 2.09
-1 -10 7 -1.34 1.6
1 -10 -7 1.56 3.59
1 10 -7 3.11 4.48
1 -10 -7 -1.09 2.11
-1 -10 -7 1.71 3.94
-1 10 -7 6.76 4.64
-1 10 7 0.4 1.36
-1 10 -7 1.86 3.96
-1 -10 -7 -1.05 2.42
-1 11 -7 4.37 2.86
1 11 -7 4.78 3.3
1 11 7 8.73 2.35
1 11 -7 -1.88 4.64
-1 11 7 7.39 2.74
1 -11 -7 11.63 5.84
1 -11 -7 7.56 4.37
1 11 -7 1.5 3.91
1 -11 -7 4.49 2.94
-1 -11 -7 5 4.35
-1 11 -7 6.55 4.28
-1 -11 -7 1.87 4.31
-1 11 -7 19.74 6.8
-1 -11 -7 1.09 2.34
1 12 7 2.26 1.71
1 12 -7 1.24 2.64
-1 12 7 -0.74 1.83
1 -12 -7 -1.86 4.28
1 12 -7 3.61 4.95
-1 12 -7 2.29 2.63
1 -12 -7 -1.17 2.28
1 12 -7 4.33 3.96
-1 12 -7 1.59 4.37
-1 -12 -7 1.62 5.44
1 -12 -7 -1.46 3.35
-1 12 -7 -5.19 5.62
-1 -12 -7 -3.64 5.91
-1 -12 -7 -1.13 1.96
1 13 -7 7.91 4.15
-1 13 -7 9.67 3.95
-1 13 7 9.06 2.89
1 13 -7 1.74 4.56
1 -13 -7 1.81 4.46
1 13 7 5.98 2.2
1 13 7 10.7 4.02
1 -13 -7 14.19 5.53
1 13 -7 5.65 4.27
1 -13 -7 2.51 3.11
-1 13 -7 7.78 5.08
-1 -13 -7 6.29 4.75
-1 13 -7 5.34 3.51
-1 13 -7 10.2 5.13
-1 -13 -7 5.85 3.4
-1 -13 -7 8.84 5.11
-1 14 -7 1.28 2.48
1 14 -7 -1.42 3.26
1 14 7 0.94 1.77
1 14 -7 1.68 4.37
-1 14 7 -1.55 2.12
1 -14 -7 -1.76 4.03
1 14 7 -3.77 3.09
-1 14 -7 2.82 3.67
1 14 -7 1.38 3.59
-1 -14 -7 -1.23 2.83
1 -14 -7 4.18 3.82
1 -14 -7 2.65 3.05
-1 15 7 156.26 15.47
-1 15 -7 180.04 18.42
1 15 -7 164.72 18.49
1 15 7 169.62 17.93
-1 -15 -7 165 17.72
1 15 -7 142.56 17.51
1 -15 -7 175.53 18.72
1 -15 -7 155.88 17.89
-1 15 -7 175.43 18.93
1 -15 7 214.58 20.18
1 -15 -7 153.7 18.89
1 15 -7 163.78 18.93
-1 16 -7 4.23 3.46
1 16 -7 -1.6 3.41
-1 16 7 -0.85 2.34
1 16 7 2.76 3.6
1 -16 -7 -1.51 3.22
-1 -16 -7 4.07 3.34
-1 16 -7 7.87 5.3
1 -16 -7 5.47 4.44
1 16 -7 3.99 3.65
1 -16 -7 4.97 4.98
1 16 -7 6.14 4.62
1 -16 7 -1.55 4.25
1 17 -7 680.36 51.81
-1 17 -7 624.15 50.11
-1 17 7 681.13 47.23
1 17 7 676.07 50.28
-1 -17 -7 681.21 50.39
1 -17 -7 629.39 50.93
-1 17 -7 725.7 52.36
1 -17 -7 539.06 48.66
1 17 -7 551.75 48.51
1 17 -7 668.05 48.94
1 -17 7 537.11 49.68
1 17 -7 506.21 48.81
1 -17 -7 520.63 49.66
-1 18 -7 1.59 3.66
1 18 -7 1.79 3.81
1 18 7 -6.19 4.84
-1 -18 -7 1.51 3.93
-1 18 -7 -3.52 4.05
1 18 -7 1.26 3.28
1 -18 -7 -2.59 3.9
1 -18 -7 3.4 4.42
1 18 -7 2.69 4.21
1 -18 7 -3.35 4.6
-1 19 -7 171.16 19.69
-1 19 7 193.66 17.78
1 19 -7 177.13 20.88
1 19 7 131.98 17.92
-1 19 7 213.65 18.95
-1 19 -7 181.62 21.08
1 19 -7 171.78 18.39
1 -19 -7 143.36 17.21
-1 -19 -7 156.36 18.93
1 -19 7 153.35 18.83
1 20 -7 3.97 4.9
-1 20 -7 8.99 5.2
-1 20 7 5.11 4.33
1 20 7 -5.08 7.93
-1 -20 -7 11.87 5.33
1 20 -7 14.03 5.33
-1 20 -7 17.51 6.56
1 -20 7 8.05 4.66
1 21 7 21.27 6.78
-1 21 7 31.51 7
-1 21 -7 28.55 8.52
1 21 -7 28.04 7.04
-1 -21 7 31.09 7.51
1 -21 7 26.53 7.54
-1 22 7 -2.74 7.45
1 22 -7 15.45 5.7
-1 -22 7 4.54 4.75
-1 23 7 1.43 3.92
1 23 -7 1.61 4.43
1 0 -8 -3.44 7.91
1 0 8 2.73 2.63
-1 0 8 4.21 3.04
1 0 8 4.09 1.95
1 0 -8 5.21 6.8
-1 0 -8 3.17 8.27
1 0 -8 3.13 2.58
1 -1 8 117.46 11.37
1 -1 -8 118.84 21.46
1 1 -8 151.85 14.69
1 -1 8 132.06 13.7
-1 -1 8 169.87 15.34
-1 1 8 184.14 15.61
1 1 8 144.99 13.89
1 -1 -8 118.68 19.04
1 -1 -8 145.6 14.53
-1 -1 -8 124.3 20.22
-1 1 -8 157.23 21.53
1 1 -8 108.44 18.33
-1 1 -8 127.66 21.02
-1 -1 -8 109.49 20.1
1 2 -8 4.32 3.65
1 -2 -8 3.27 8.04
1 -2 8 10.33 3.75
1 -2 8 3.18 1.75
-1 2 8 4.11 3.11
1 2 8 8.94 3.57
-1 -2 8 8.48 3.7
1 2 -8 7.27 5.96
-1 2 -8 2.61 5.57
-1 -2 -8 -3 6.38
1 -2 -8 6.28 3.53
1 -3 8 909.9 66.94
1 3 -8 996.55 71.11
-1 3 8 968.34 70.49
1 -3 8 951.7 70.11
-1 -3 8 1015.73 71.02
1 3 8 952.29 69.73
-1 3 -8 995.15 78.56
1 3 -8 1039.96 78.21
-1 -3 -8 924.73 70.41
1 -3 -8 878.58 70.23
-1 -3 -8 979.22 80.56
1 -3 -8 1051.67 82.64
1 4 -8 2.98 6.85
1 -4 -8 15.13 9.11
1 4 -8 1.13 2.79
-1 4 8 0.98 2.72
1 -4 8 4.94 3.22
-1 -4 8 1.06 3.46
1 4 8 5.08 3.46
1 -4 -8 2.28 5.95
1 4 -8 13.51 7.05
-1 -4 -8 9.8 6.73
-1 4 -8 4.82 5.92
1 -4 -8 4.28 3.72
-1 -4 -8 11.15 8.73
-1 4 -8 8.15 6.68
-1 -4 -8 8.32 3.95
-1 5 -8 1813.34 139.53
1 5 -8 1927.93 140.11
-1 -5 8 2003.97 140.03
1 -5 8 2004.37 139.76
1 5 8 1887.51 138.51
-1 5 8 1949.98 139.34
1 -5 -8 1927.35 145.7
-1 -5 -8 1985.75 139.87
-1 -5 -8 2115.42 147.79
-1 5 -8 2045.01 147.16
1 -5 -8 1987.56 140.08
1 5 -8 2225.4 147.24
1 5 -8 2183.53 150.97
-1 -5 -8 2268.11 150.66
-1 5 8 1795.86 136.6
-1 5 -8 2243.57 149.95
1 -5 -8 2135.32 150.77
1 6 -8 1.17 2.68
1 6 -8 2.72 5.78
1 -6 -8 -2.76 5.36
-1 6 -8 1.11 2.9
-1 -6 8 1.94 2.44
-1 6 8 0.96 3.02
1 6 8 -0.83 2.5
1 -6 8 -1.05 2.57
-1 -6 8 1.08 3.12
1 -6 -8 4.2 5.16
1 6 -8 4.17 5.43
-1 -6 -8 2.27 5.56
-1 6 -8 -2.23 5.47
-1 6 -8 -2.5 4.85
1 -6 -8 -2.22 2.89
-1 6 8 0.99 1.67
-1 -6 -8 10.29 7.74
-1 -6 -8 -1.07 2.78
1 7 -8 521.51 40.89
-1 7 -8 508.81 40.45
-1 7 8 530.72 40
1 7 8 496.23 39
-1 -7 8 465.53 37.61
-1 -7 8 573.78 41.06
1 -7 -8 532.11 40.85
1 -7 -8 532.81 45.27
1 7 -8 541 45.6
-1 -7 -8 586.34 47.09
-1 -7 -8 555.95 40.88
-1 7 -8 568.18 46.78
-1 7 -8 514.33 47.01
-1 -7 -8 571.88 48.53
1 -7 -8 517.63 48.06
-1 7 8 424.53 36.74
1 7 -8 493.57 47.3
1 8 -8 -1.21 2.35
1 -8 -8 -2.51 4.87
1 8 -8 7.34 6.01
-1 8 -8 -1.14 2.62
1 8 8 -0.84 2.63
-1 8 8 -0.96 2.21
1 -8 -8 5.84 5.34
1 8 -8 -1.93 5.3
-1 -8 -8 -4.22 6.07
-1 8 -8 2.07 5.08
-1 8 -8 2.31 5.68
-1 -8 -8 1.11 2.55
1 -8 -8 2.32 2.85
-1 -8 -8 -2.38 7.17
1 9 -8 138.61 19.38
1 9 -8 171.42 16.27
1 -9 -8 121.88 18.63
-1 9 -8 133.83 14.77
1 9 8 146.29 13.9
-1 9 8 117.92 13.61
1 -9 -8 119.58 16.94
1 9 -8 130.03 17.18
1 -9 -8 122.17 14.59
-1 -9 -8 156.72 15.37
-1 -9 -8 137.82 18.23
-1 9 -8 138.27 18.32
-1 9 -8 111.05 17.75
-1 -9 -8 140.3 19.38
-1 10 -8 1.19 2.32
1 10 -8 2.25 5.85
1 10 -8 3.82 3.5
1 -10 -8 -2.29 4.45
1 10 8 3.51 2.95
-1 10 8 3.98 2.45
1 -10 -8 1.8 4.42
1 10 -8 5.38 5.17
-1 -10 -8 5.9 5.13
-1 10 -8 1.95 5.61
-1 -10 -8 8.25 3.69
-1 -10 -8 2.23 5.8
-1 10 -8 2.14 6.45
1 -10 -8 1.22 2.8
1 11 -8 22.17 5.57
-1 11 -8 13.55 4.71
1 11 8 18.84 3.54
-1 11 8 15.12 3.93
1 11 -8 15.14 6.88
1 -11 -8 15.46 7.28
-1 11 8 15.31 4.52
1 11 -8 17.33 6.15
1 -11 -8 26.05 7.18
-1 -11 -8 36.4 8.89
-1 11 -8 18.95 6.9
-1 -11 -8 19.46 5.43
-1 -11 -8 30.23 8.88
-1 11 -8 29.06 8.16
1 -11 -8 15.1 4.8
1 12 8 0.51 1.66
-1 12 -8 -1.28 2.94
-1 12 8 -1.59 2.18
1 12 -8 5.44 3.74
1 -12 -8 4.28 4.16
1 12 -8 4.18 4.8
-1 -12 -8 1.87 5.38
1 -12 -8 -1.68 3.87
1 12 -8 1.69 4.65
-1 12 -8 1.85 4.54
-1 -12 -8 1.26 2.69
-1 12 -8 -2.01 5.24
-1 -12 -8 -2.1 6.31
1 -12 -8 7.81 3.75
-1 13 -8 852.41 63.95
-1 13 8 817.72 60.92
1 13 -8 871.82 64.66
1 13 8 839.33 63.74
-1 13 -8 772.01 66.03
1 -13 -8 884.13 64.38
1 -13 -8 802.24 65.54
-1 -13 -8 821.03 66.66
1 13 -8 779.06 65.44
-1 -13 -8 901.89 64.34
-1 -13 -8 837.81 67.77
-1 13 -8 807.06 67.5
1 13 -8 794.76 67.48
1 -13 -8 783.69 67.5
1 -14 -8 2.02 4.96
-1 14 -8 -1.37 3.15
1 14 -8 -1.5 2.91
-1 14 8 2.41 2.61
1 14 8 1.39 3.41
1 -14 -8 -1.64 3.77
-1 -14 -8 -1.78 4.1
1 14 -8 8.24 4.95
1 -14 -8 -1.41 3.25
1 14 -8 -3.91 5.63
-1 -14 -8 -1.35 3.71
-1 15 -8 566.75 46.77
-1 15 8 545.68 43.42
1 15 -8 645.31 48.32
1 15 8 640.28 47.49
-1 -15 -8 625.39 47.33
1 -15 -8 590.42 47.32
1 -15 -8 573.86 48
1 15 -8 474.93 46.61
1 15 -8 514.11 48.41
1 -15 8 605.32 48.19
1 -15 -8 524.87 49.05
-1 16 -8 1.51 3.48
1 16 -8 1.65 3.79
-1 16 8 1.74 2.39
1 16 8 5.98 4.11
1 -16 -8 4.76 4.36
1 16 -8 1.55 4.04
1 -16 -8 1.55 3.3
1 16 -8 8.86 5.76
1 -16 -8 -1.89 4.64
1 -16 8 -1.67 5.04
-1 -16 -8 10.37 4.82
1 17 -8 277.08 27.81
-1 17 8 313.57 24.42
-1 17 -8 305.62 27.87
1 17 8 301.16 27.61
1 -17 -8 291.31 27.93
-1 -17 -8 325.99 28.21
1 -17 -8 234.75 26.11
1 -17 8 260.17 27.25
1 17 -8 206.75 25.85
-1 18 -8 3.36 4.37
1 18 -8 -1.81 4.43
1 18 8 -3.28 6.82
1 -18 -8 -1.5 5.22
1 -18 -8 3.44 4.48
1 18 -8 1.56 4.5
1 -18 8 -3.58 4.4
-1 -18 -8 -1.62 3.72
1 19 8 -1.72 4.47
-1 19 8 3.99 3.66
-1 19 -8 1.85 3.59
-1 20 8 -2.77 4.34
1 0 -9 -3.72 7.23
-1 0 9 2.43 3.34
1 0 9 1.06 2.26
1 0 9 0.9 1.29
1 0 -9 5.8 6.66
-1 0 -9 9.45 7.24
-1 0 -9 -3.56 6.91
1 -1 9 73.47 7.4
1 -1 -9 132.65 21.64
1 1 9 69.67 9.65
1 -1 9 81.16 10.18
-1 1 9 109.53 11.88
1 1 9 68.59 7.65
-1 -1 9 93.42 11.26
1 -1 -9 74.56 15.25
1 1 -9 56.18 13.29
-1 -1 -9 52.77 13.7
-1 1 -9 76.22 15.66
1 -1 -9 107.06 11.98
-1 -1 -9 80.55 17.74
1 -2 -9 3.55 6.91
-1 2 9 5.83 3.38
1 2 9 3.07 2.54
-1 -2 9 7.31 3.53
1 -2 9 6.53 2.07
1 -2 9 4.33 2.84
1 2 -9 -2.72 6.25
-1 2 -9 8.84 7.25
-1 -2 -9 10.15 8.31
1 -2 -9 10.76 4.54
1 3 -9 605.73 47.56
-1 3 9 611.1 47.15
-1 -3 9 670.35 48.17
1 3 9 578.12 46.23
1 -3 9 593.1 46.79
-1 -3 -9 635.55 47.8
1 -3 -9 564.74 47.04
-1 3 -9 539.24 54.2
1 3 -9 548.3 53.66
-1 -3 -9 613.5 57.74
1 -3 -9 641.81 58.99
1 -4 -9 6.54 7.51
1 4 -9 3.76 3.45
1 4 -9 3.22 7.4
-1 4 9 3.37 3.1
1 4 9 2.91 2.68
1 -4 9 4.41 2.89
-1 -4 9 6.04 3.64
1 4 -9 -2.53 5.83
-1 -4 -9 2.78 6.83
-1 4 -9 27.38 9.81
1 -4 -9 5.12 7.38
1 -4 -9 2.4 2.97
-1 -4 -9 9.55 3.89
-1 4 -9 3.08 5.98
-1 -4 -9 6.3 7.74
-1 5 -9 -1.21 2.78
1 -5 -9 -3.15 6.11
1 5 -9 1.29 2.74
1 5 -9 3.1 7.12
-1 5 9 -3.29 2.86
1 5 9 -0.96 2.03
-1 -5 9 6.02 3.31
1 -5 9 3.39 2.6
1 5 -9 -2.44 6
1 -5 -9 2.46 5.24
-1 -5 -9 -2.67 6.14
-1 5 -9 2.63 5.6
-1 -5 -9 3.54 2.9
1 -5 -9 7.32 3.35
-1 -5 -9 6.07 6.45
-1 5 -9 8.88 7.71
-1 6 -9 -1.22 2.6
1 6 -9 14.84 8.93
1 6 -9 1.32 2.56
1 -6 -9 -3.01 5.22
-1 6 9 1.09 2.31
1 6 9 6.6 3.17
-1 -6 9 7.22 3.47
1 -6 9 8.04 3.46
1 -6 -9 4.73 6.16
1 6 -9 14.16 7.1
-1 -6 -9 5.14 5.91
-1 6 -9 10.19 6.99
-1 -6 -9 -8.76 7.17
1 -6 -9 1.23 2.39
-1 -6 -9 3.61 2.77
-1 6 -9 -2.84 6.54
1 7 -9 69.13 9.97
-1 7 -9 61.62 9.33
1 7 -9 85.53 15.8
1 -7 -9 66.47 14.12
-1 7 9 50.75 8.12
-1 -7 9 55.51 8.9
1 -7 9 64.95 9.39
1 7 9 58.11 8.27
1 -7 -9 66.12 12.56
1 7 -9 68.05 13.4
-1 -7 -9 62.15 13.23
-1 7 -9 71.09 13.74
-1 -7 -9 84.25 15.58
1 -7 -9 49.97 8.55
-1 7 -9 63.09 13.67
-1 -7 -9 49.74 8.5
1 8 -9 4.05 3.1
-1 8 -9 -2.56 2.94
1 8 -9 2.74 7.52
1 -8 -9 5.55 7.23
-1 8 9 -1.07 2.28
-1 -8 9 3.69 2.61
1 8 9 1.87 2.44
1 -8 9 6.04 3.48
1 -8 -9 2.19 4.25
1 8 -9 2.19 5.03
-1 -8 -9 -2.39 7.48
-1 8 -9 2.37 6.82
-1 8 -9 -2.63 7.57
1 -8 -9 2.55 2.48
-1 -8 -9 3.71 3.04
-1 -8 -9 -2.71 9.11
1 9 -9 23.82 9.55
-1 9 -9 23.45 5.78
1 -9 -9 13.36 7.06
1 9 -9 13.73 4.91
1 9 9 21.57 5.03
-1 9 9 17.12 4.61
-1 -9 9 16.17 4.85
1 -9 9 26.13 5.84
1 -9 -9 10.55 5.91
1 9 -9 6.4 6.52
-1 -9 -9 18.5 7.6
-1 9 -9 22.98 8.55
-1 -9 -9 12.61 4.54
-1 9 -9 22.8 9.15
-1 -9 -9 26.15 9.43
1 -9 -9 18.22 5.19
-1 10 -9 3.98 3.05
1 10 -9 2.81 3.66
1 -10 -9 2.58 6.34
1 10 -9 -7.64 6.99
1 10 9 -0.97 3.02
-1 10 9 -1.09 3.01
1 10 -9 6.17 6.19
-1 -10 -9 -4.49 5.16
-1 10 -9 4.46 5.47
1 -10 -9 6.17 5.35
1 -10 -9 1.34 2.6
-1 10 -9 2.44 4.75
-1 -10 -9 5.03 5.78
-1 -10 -9 -1.29 3.16
-1 11 9 408.46 33
-1 11 -9 439.39 35.93
1 11 -9 416.31 36.13
1 11 9 425.73 34.08
-1 11 9 415.26 34.57
1 -11 -9 385.53 38.28
-1 11 -9 375.44 39
1 11 -9 422.11 39.59
1 -11 -9 446.85 36.12
-1 -11 -9 458.74 36.17
-1 -11 -9 370.87 38.62
1 -11 -9 443.51 41.87
-1 11 -9 380.07 40.22
1 11 -9 427.14 41.21
-1 -11 -9 372.85 40.44
1 12 -9 7.48 4.32
-1 12 -9 2.8 3.85
-1 12 9 6.86 3.17
1 -12 -9 2.41 5.93
1 -12 -9 5.82 5.6
1 12 -9 9.84 6.4
-1 -12 -9 6.37 5.54
-1 12 -9 2.09 4.45
1 12 -9 9.51 7.16
1 -12 -9 2.86 3.3
-1 12 -9 4.58 5.97
-1 -12 -9 2.36 5.43
-1 -12 -9 1.37 3.58
1 13 -9 496.49 41.95
-1 13 9 503.69 38.21
-1 13 -9 507.12 41.46
1 13 9 546.08 41.86
1 -13 -9 563.4 42.45
-1 -13 -9 521.76 41.6
1 -13 -9 495.12 44.16
1 13 -9 457.64 43.66
-1 -13 -9 506.1 45.3
-1 13 -9 415.58 43.38
-1 13 -9 423.69 44.45
-1 -13 -9 439.12 44.79
1 -13 -9 434.46 45.22
1 13 -9 457.89 45.09
-1 14 -9 -1.5 3.44
-1 14 9 -1.68 2.31
1 14 -9 -3.21 3.68
1 14 9 1.48 3.63
1 -14 -9 1.89 4.33
1 14 -9 1.88 4.62
1 -14 -9 -4.52 5.2
-1 -14 -9 -1.46 3.6
1 -14 -9 -1.53 2.65
1 14 -9 -2.18 5.01
1 15 -9 11.58 5.04
-1 15 -9 17.16 5.64
-1 15 9 9.4 3.57
1 15 9 15.68 5.5
1 -15 -9 18.34 6.8
1 15 -9 10.93 6.17
-1 -15 -9 13.72 5.51
1 15 -9 10.44 6.33
1 -15 -9 3.18 3.74
1 -15 -9 13.09 6.61
1 -15 9 26.32 7.66
1 -16 -9 -1.79 6.4
-1 -16 -9 -3.19 4.38
1 16 -9 -3.94 7.46
1 -17 -9 1.74 4.79
1 17 -9 -1.87 3.98
1 0 -10 4.03 8.65
-1 0 10 20.22 6.4
1 0 10 16.91 5.46
1 0 -10 19.21 9.69
-1 0 -10 10.51 8.12
-1 0 -10 31.56 13.75
1 -1 10 1009.2 71.22
1 1 10 1087.18 71.49
-1 -1 10 1055.42 72.28
-1 1 10 995.03 71.7
-1 1 -10 866.13 80.62
1 -1 -10 757.14 77.93
-1 -1 -10 707.96 78.24
1 1 -10 838.52 78.74
1 -1 -10 810.91 82.64
-1 -1 -10 808.58 81.91
1 -2 -10 7.71 8.88
1 -2 10 8.53 4.14
-1 2 10 15.59 5.32
1 2 10 11.54 4.73
-1 -2 10 5.44 3.78
1 2 -10 -3.01 7.86
-1 2 -10 6.6 8.13
-1 -2 -10 18.87 10.88
1 -2 -10 8.14 4.29
1 3 -10 219.28 31.78
1 -3 -10 223.27 32.22
1 -3 10 221.09 21.7
-1 -3 10 249.75 23.08
-1 3 10 251.81 22.68
1 3 10 227.61 21.44
1 -3 -10 211 22.15
-1 3 -10 194.42 27.94
1 3 -10 244.52 30.15
-1 -3 -10 247.9 32.03
1 4 -10 2.76 3.18
1 4 -10 -7.09 9.24
1 -4 -10 3.58 8.24
-1 4 10 2.49 3.07
1 4 10 8.75 3.8
-1 -4 10 4.06 3.72
1 -4 10 4.94 3.39
1 -4 -10 -2.83 7.39
-1 -4 -10 -3.11 11.14
-1 4 -10 3.08 8.02
1 4 -10 -2.81 7.73
-1 4 -10 3.44 9.9
1 -4 -10 2.66 2.59
-1 -4 -10 -3.51 11
-1 -4 -10 8.07 3.7
1 5 -10 157.69 17.25
1 5 -10 150.18 23.52
1 -5 -10 169.71 24.91
1 5 10 154.59 15.7
-1 -5 10 128.03 15.95
1 -5 10 147.55 16.25
-1 5 10 137.98 15.9
1 -5 -10 151.34 16.68
1 -5 -10 139.28 20.9
1 5 -10 145.47 21.25
-1 -5 -10 173.75 17.43
-1 -5 -10 182.76 24.06
-1 5 -10 148.07 22.25
-1 5 -10 136.08 22.63
-1 -5 -10 169.77 25.03
1 -6 -10 13.31 9.15
-1 6 -10 5.37 3.51
1 6 -10 10 4.65
1 6 -10 23.04 10.7
-1 -6 10 6.7 4.05
-1 6 10 6.05 3.34
1 6 10 1.05 2.91
1 -6 10 6.27 3.63
1 -6 -10 13.28 7.66
1 6 -10 5.3 6.1
-1 -6 -10 -2.9 9.1
-1 6 -10 -2.87 8.27
-1 -6 -10 -6.53 10.61
1 -6 -10 13.5 4.84
-1 6 -10 3.19 9.19
-1 -6 -10 5.37 4.06
-1 7 -10 169.4 18.91
1 -7 -10 153.64 24.94
1 7 -10 193 26.77
1 7 -10 169.17 19.19
1 -7 10 182.23 18.94
1 7 10 167.58 17.8
-1 -7 10 211.44 19.93
-1 7 10 193.21 18.98
1 -7 -10 199.11 24.7
1 7 -10 173.01 23.67
-1 -7 -10 195.26 25.29
-1 7 -10 190.42 24.97
1 -7 -10 187.9 19.52
-1 -7 -10 199.75 19.64
-1 7 -10 190.72 26.2
-1 -7 -10 197.51 26.58
-1 8 -10 5.51 3.79
1 8 -10 7.41 4.08
1 -8 -10 15.38 9.63
1 8 -10 -3.04 7
-1 8 10 3.53 3.4
1 8 10 1.03 3.36
1 -8 10 3.9 3.58
-1 -8 10 9.38 4.2
1 -8 -10 -2.48 6.48
1 8 -10 4.97 6.48
-1 -8 -10 8.11 7.79
-1 8 -10 -2.67 7.34
1 -8 -10 9.69 4.66
-1 8 -10 5.9 7.68
-1 -8 -10 -3.03 9.11
-1 -8 -10 4.09 3.93
1 9 -10 899.97 68.19
-1 9 -10 875.65 67.49
1 -9 10 832.31 66.82
-1 9 10 837.47 66.06
1 9 10 891.66 65.82
-1 -9 10 866.66 67.26
1 -9 -10 871.06 72.84
1 9 -10 849.74 73.01
-1 9 -10 767.72 72.83
1 -9 -10 911.22 67.81
-1 -9 -10 952.86 67.95
-1 -9 -10 902.48 74.62
1 9 -10 843.78 75.24
1 -9 -10 861.34 75.61
-1 9 -10 925.09 75.95
-1 -9 -10 920.62 76.22
-1 10 -10 2.89 3.32
1 -10 -10 2.85 7.43
1 10 -10 -1.54 3.77
1 10 10 2.1 3.29
1 -10 10 1.37 2.91
-1 10 10 3.58 2.93
-1 -10 10 1.36 3.13
1 10 -10 -2.38 6.53
-1 -10 -10 -2.51 6.17
-1 10 -10 12.41 8.88
1 -10 -10 2.33 4.96
1 -10 -10 1.43 3.3
-1 -10 -10 1.41 3.23
-1 10 -10 2.73 6.71
-1 -10 -10 -2.8 6.44
1 10 -10 2.84 6.96
-1 11 10 346.66 30.34
1 11 -10 393.76 34.21
-1 11 -10 416.6 34.22
-1 11 10 342.61 31.9
1 -11 10 408.25 33.71
1 -11 -10 392.07 37.82
-1 11 -10 351.2 37.61
1 -11 -10 397.86 33.9
-1 -11 -10 363.82 33.04
1 11 -10 385.23 37.84
-1 -11 -10 343.55 37.51
-1 11 -10 340.88 38.44
-1 -11 -10 449.01 41.48
1 -11 -10 359 39.42
1 11 -10 363.38 39.15
-1 12 10 0.91 2.38
-1 12 -10 1.52 3.24
1 -12 10 -1.45 3.09
1 12 -10 -2.23 6.11
-1 -12 -10 -2.38 6.2
-1 12 -10 -2.35 7.35
1 -12 -10 -6.64 7.19
1 12 -10 -2.6 7.81
1 -12 -10 2.65 6.51
-1 12 -10 -2.54 6.61
-1 -12 -10 -2.62 7.56
-1 -12 -10 1.47 3.37
-1 13 10 174.78 16.86
-1 -13 -10 176.79 22.89
1 -13 -10 160.87 21.73
1 13 -10 183.04 22.42
1 13 -10 168.98 23.28
-1 -13 -10 200.09 24.85
1 -13 -10 188.23 24.29
1 -14 -10 -2.08 7
1 14 -10 2.1 7.5
1 14 -10 -2.38 8
1 -14 -10 2.44 8.22
1 -15 -10 8.11 5.88
1 -15 -10 21.16 8.45
1 15 -10 6.79 5.93
1 -16 -10 1.97 6.84
1 16 -10 2.15 6.74
1 0 -11 -4.37 9.28
1 0 11 1.32 3.02
-1 0 11 2.93 3.6
1 0 -11 3.55 8.15
-1 0 -11 -7.75 8.24
-1 0 -11 -4.32 9.92
1 -1 -11 173.4 31.32
-1 1 11 294.54 24.51
1 1 11 247.29 22.71
-1 -1 11 291.48 24.68
1 -1 11 218.49 22.31
1 -1 -11 186 29.11
1 1 -11 165.36 28.11
-1 -1 -11 198.67 30.62
-1 1 -11 199.41 30.97
-1 -1 -11 201.3 32.77
1 -2 -11 -4.19 10.28
-1 -2 11 10.49 4.51
-1 2 11 7.12 4.79
1 2 11 1.25 3.08
1 -2 11 4.04 3.52
1 2 -11 10.02 10.05
-1 2 -11 3.64 11.41
-1 -2 -11 -4.14 12.46
1 3 -11 87.45 20.62
1 -3 -11 84.95 20.34
-1 3 11 93.85 13.09
-1 -3 11 102.79 13.9
1 3 11 127.47 13.82
1 -3 11 121.17 14.09
1 3 -11 139.07 21.95
-1 3 -11 109.11 21.17
-1 3 -11 109.66 22
-1 -3 -11 127.95 22.94
1 4 -11 -11.53 10.55
1 -4 -11 -3.9 8.29
1 4 11 -1.19 2.93
-1 4 11 -1.37 3.77
1 -4 11 -1.36 3.13
-1 -4 11 4.47 4.48
1 -4 -11 -3.15 6.7
1 4 -11 -3.17 9.14
-1 -4 -11 3.43 7.29
-1 4 -11 -13.59 9.78
-1 4 -11 -3.79 7.37
-1 -4 -11 -7.74 9.5
1 -4 -11 -1.49 3.42
1 5 -11 18.52 10.17
1 -5 -11 -3.76 9.24
1 -5 11 2.73 3.37
1 5 11 4.68 3.38
-1 5 11 8.11 4.08
-1 -5 11 7.43 4.48
1 5 -11 3.06 5.95
-1 -5 -11 -3.33 7.66
-1 5 -11 23.11 11.83
1 -5 -11 6.15 7.56
-1 -5 -11 -3.72 9.71
-1 5 -11 3.65 9.51
1 -5 -11 7.46 4.31
1 -6 -11 3.61 9.94
-1 6 11 13.3 5.08
1 6 11 13.79 5.13
1 -6 11 5.48 3.63
1 6 -11 11.8 9.26
1 -6 -11 23.64 10.28
-1 -6 -11 6.4 8.81
-1 6 -11 3.17 7.32
1 6 -11 10.76 9.87
-1 6 -11 28.04 12.19
-1 -6 -11 3.58 8.24
1 -7 11 539.62 41.85
1 7 11 508.7 40.42
1 7 -11 513.78 49.32
-1 -7 -11 491.22 49.74
1 -7 -11 420.22 46.93
-1 7 -11 445.34 48.67
1 7 -11 531.51 52.57
-1 7 -11 455.89 50.14
1 8 11 7.81 3.91
1 9 11 153.46 16.27
1 10 11 2.26 3.4
-2 0 0 5456.09 383.51
2 0 0 5597.44 382.92
2 0 0 5687.57 384.16
-2 0 0 5541.37 383.41
2 0 0 5805.27 383.93
-2 -1 0 1.53 1.22
2 -1 0 4.03 1.08
2 -1 0 1.64 1.4
2 1 0 2.45 1.61
2 1 0 0.08 0.62
-2 1 0 2.42 1.44
2 1 0 1.77 1.08
2 -1 0 3.83 1.5
2 1 0 -0.29 0.96
2 -2 0 859.71 61.99
-2 2 0 916.22 62.06
-2 2 0 936.75 61.64
2 -2 0 847.02 60.99
2 2 0 908.75 62.04
-2 -2 0 850.39 60.35
-2 2 0 912.29 61.57
2 2 0 921.78 61
2 -2 0 878.45 61.87
-2 -2 0 863.53 61.47
2 -3 0 -0.31 1.02
2 3 0 -0.38 1.13
-2 3 0 -0.27 1.03
-2 -3 0 0.34 1.19
-2 3 0 0.37 1
-2 -3 0 0.08 0.44
2 -3 0 -0.38 0.99
-2 3 0 -0.63 1.16
-2 3 0 -0.64 1.01
-2 -3 0 -0.53 0.97
2 -3 0 0.36 0.98
-2 -4 0 349.08 25.72
-2 -4 0 407.15 26.63
2 4 0 350.03 26.01
-2 4 0 334.77 25.24
2 -4 0 332.5 25.66
-2 4 0 339.34 25.81
-2 -4 0 337.9 25.18
-2 4 0 348.5 25.62
-2 4 0 378.28 26.21
2 -4 0 332.75 25.82
-2 -5 0 -0.48 1.45
-2 -5 0 0.71 1.2
2 5 0 -0.45 1.22
-2 5 0 0.41 1.46
2 -5 0 0.8 1.34
2 -5 0 -0.43 1.34
-2 5 0 -0.44 1.48
2 6 0 128.56 10.75
-2 -6 0 119.44 10.68
-2 -6 0 107.14 9.78
-2 6 0 117.2 10.44
-2 6 0 114.2 10.16
2 -6 0 124.35 10.35
2 -6 0 113.32 10.3
-2 6 0 107.81 10.36
2 -7 0 0.49 1.42
-2 7 0 0.56 1.45
-2 -7 0 -0.19 0.83
-2 -7 0 1.14 1.85
-2 -7 0 1.2 1.25
-2 7 0 0.96 1.44
-2 -7 0 0.87 1.99
-2 7 0 -0.51 1.65
-2 -7 0 -0.67 1.92
2 -8 0 2683.47 184.91
-2 8 0 2630.99 185.21
-2 -8 0 2705.08 183.04
-2 8 0 2674.38 184.92
-2 -8 0 2593.38 184.17
-2 -8 0 2609.91 185.25
-2 -8 0 2653.01 186.43
-2 8 0 2584.15 186.07
-2 -8 0 2774.75 185.52
-2 8 0 2655.86 185.35
-2 8 0 2677.64 184.98
-2 -9 0 -0.46 0.9
-2 9 0 2.03 1.95
2 -9 0 0.6 1.74
-2 -9 0 -0.68 2.04
-2 9 0 0.6 1.37
-2 -9 0 3.16 2.47
-2 9 0 -0.75 1.95
-2 9 0 -1.21 1.66
-2 -9 0 0.59 1.86
-2 9 0 0.61 1.82
-2 -10 0 2943.45 205.33
-2 10 0 3149.65 208.59
-2 -10 0 2591.68 207.53
-2 -10 0 3052.68 208.46
-2 10 0 2985.42 208.07
-2 -10 0 3241.24 207.42
-2 10 0 3070.66 207.27
-2 10 0 2979.73 207.79
-2 -11 0 0.31 1.03
-2 11 0 2.57 2.68
2 11 0 -2.31 2
-2 -11 0 0.73 1.79
-2 -11 0 -1.49 1.82
-2 11 0 -0.7 1.82
2 -11 0 0.76 1.86
-2 11 0 -0.55 1.59
-2 -11 0 2.15 1.68
-2 11 0 1.44 2.26
-2 -12 0 695.08 57.77
-2 12 0 800.99 61.03
-2 -12 0 898.9 60.31
2 12 0 804.45 60.47
-2 12 0 814.08 59.6
-2 -12 0 877.51 60.14
-2 -12 0 921.74 59.13
-2 12 0 871.96 59.02
-2 -12 0 808.02 56.73
-2 12 0 794.5 60.2
2 -12 0 903.84 60.92
2 -13 0 2.91 2.28
-2 13 0 -1.9 2.18
-2 -13 0 1.97 1.53
2 13 0 -0.91 2.36
-2 -13 0 0.71 1.86
-2 -13 0 0.68 2.22
-2 13 0 -0.64 1.67
2 -13 0 1.77 2.18
-2 13 0 -2 1.9
-2 -13 0 -0.48 1.73
-2 13 0 -0.77 2.32
-2 -13 0 1 0.76
-2 -14 0 34.83 4.36
-2 14 0 34.78 6.11
-2 -14 0 36.38 5.45
2 14 0 32.98 5.9
-2 -14 0 32.29 5.14
-2 14 0 36.2 5.18
2 -14 0 28.88 5.64
-2 -14 0 27.92 4.38
-2 14 0 31.83 5.72
-2 14 0 33.53 4.6
-2 -15 0 0.8 1.31
-2 15 0 0.97 2.07
2 15 0 -0.93 2.28
-2 -15 0 0.7 1.93
-2 -15 0 2.26 1.77
-2 15 0 1.57 2.09
2 15 0 -0.39 1.7
2 -15 0 -0.46 1.76
2 -15 0 -2.82 2.31
2 -15 0 2.47 1.92
-2 -15 0 -0.39 1.39
-2 15 0 -0.83 1.44
2 15 0 -0.46 1.97
-2 15 0 -0.78 2.53
-2 16 0 73.52 8.87
-2 -16 0 77.32 6.75
2 16 0 85.57 9.31
2 16 0 54.81 5.83
-2 -16 0 52.82 6.62
2 -16 0 48.38 6.14
-2 16 0 56.37 6.47
-2 16 0 55.13 6.07
2 16 0 48.09 6.13
2 -16 0 75.74 8.99
2 -16 0 61.85 6.56
-2 -17 0 -0.41 1.44
-2 17 0 2.83 2.83
2 17 0 -0.76 1.26
2 17 0 -0.95 2.34
2 -17 0 0.3 1.37
2 17 0 0.29 0.81
2 -17 0 -2.18 1.64
2 -17 0 -0.96 2.2
2 18 0 1237.02 86.29
-2 -18 0 1139.9 83.07
-2 18 0 1195.24 86.05
2 -18 0 1215.72 86.12
2 19 0 0.98 2.69
-2 -19 0 1.34 1.64
-2 19 0 2.91 2.53
2 -19 0 0.98 2.24
2 20 0 955.41 62.34
-2 -20 0 755.86 58.64
-2 20 0 836.14 61.68
2 -20 0 841.72 61.64
2 21 0 -3.99 4.42
-2 21 0 -1.05 2.59
2 -21 0 -1.99 2.44
2 22 0 193.91 16.88
-2 22 0 183.59 17.17
2 -22 0 206.19 17.09
-2 23 0 -0.46 1.56
-2 23 0 -1.18 3.25
2 -23 0 2.01 2.9
2 24 0 79.16 10.54
-2 24 0 110.52 12.88
2 -24 0 82.86 10.51
2 25 0 1.01 2.91
-2 25 0 -1.42 3.26
2 -25 0 1.01 2.64
2 26 0 19.04 4.99
-2 26 0 16.04 5.45
2 -26 0 17.37 4.68
2 27 0 1 2.87
2 -27 0 1.02 2.5
2 0 1 -0.15 0.68
2 0 -1 -0.13 0.59
2 0 1 0.2 0.79
-2 0 -1 1.89 1.28
-2 0 -1 -0.52 1.93
-2 0 1 -0.2 0.66
2 0 1 2.38 1.21
2 0 -1 -0.32 0.88
2 0 -1 0.2 0.74
-2 0 -1 1.38 1.27
-2 0 -1 -1.18 3.23
2 0 -1 -0.14 0.56
-2 0 1 -0.12 0.62
2 0 1 -0.32 1.06
-2 0 -1 -0.89 2.2
-2 0 -1 0.26 0.91
2 0 1 0.44 0.65
2 0 1 0.57 0.93
-2 0 -1 2.27 2.01
2 -1 -1 0.17 0.44
2 -1 1 -0.24 0.95
2 1 -1 0.18 0.73
-2 -1 -1 1.06 1.19
2 1 1 0.17 0.7
-2 1 -1 0.74 1.28
2 -1 1 -0.25 0.56
-2 1 1 0.32 1.04
-2 -1 1 -0.39 0.64
2 -1 1 -0.39 0.95
-2 1 1 -0.87 0.78
-2 1 -1 0.45 1.61
2 -1 1 1.97 1.09
-2 -1 1 -0.67 1.33
2 1 1 0.32 0.88
2 -1 -1 0.24 0.77
-2 1 -1 0.78 1.03
2 1 -1 -0.32 1.11
2 1 -1 -0.18 0.63
2 1 1 -0.29 1.11
-2 1 -1 2.25 3.24
2 -1 1 -0.32 1.18
-2 -1 -1 -1.13 2.95
2 -1 -1 0.53 0.71
-2 1 -1 -0.35 1.05
-2 -1 -1 0.25 0.8
-2 -1 -1 1.27 1.76
2 1 -1 0.2 0.43
2 -1 1 0.61 0.96
-2 1 1 -1.29 1.12
2 1 1 0.54 0.84
2 -1 -1 -0.35 1.09
-2 1 -1 -0.87 2.25
-2 -1 -1 -0.86 2.46
2 1 1 -0.12 0.55
-2 2 1 13.62 1.37
-2 -2 -1 17.82 2.11
-2 2 -1 19.7 3.02
2 -2 1 11.07 1.54
2 -2 1 15.18 2.46
-2 2 -1 8.13 2.25
2 -2 1 15.61 2.2
-2 -2 1 13.57 1.81
2 2 -1 13.08 2.5
2 -2 1 10.61 2.21
2 -2 -1 12.3 2.03
-2 -2 1 9.98 2.2
2 2 1 17.13 2.54
-2 2 -1 12.35 2.01
-2 2 1 15.08 2.43
-2 2 -1 12.75 2.33
-2 -2 -1 10.91 4.33
2 2 1 13.27 2.21
-2 -2 1 14.96 1.45
2 -2 1 15.02 2.56
2 2 1 12.84 1.52
-2 2 -1 13.3 3.58
-2 -2 -1 14.11 2.07
2 -2 1 12.78 2.29
2 2 1 13.1 2.03
2 -2 -1 15.37 2.49
-2 -2 -1 8.09 2.37
-2 2 1 11.61 2.23
2 -2 1 16.65 2.76
-2 -3 -1 257.3 17.22
2 -3 1 261.98 18.39
-2 3 1 217.06 18.02
-2 3 -1 245.43 17.13
-2 3 1 245.04 16.86
2 -3 1 254.1 18.56
2 3 1 232.24 18.28
-2 -3 1 220.75 17.27
2 3 1 209.45 18.71
-2 3 -1 231.81 18.28
-2 3 -1 248.64 17.61
2 -3 -1 220.14 17.65
2 3 -1 263.24 18.72
-2 -3 1 244.07 18.27
-2 3 -1 254.86 17.97
-2 -3 1 232.91 16.79
-2 3 -1 245.39 18.48
-2 -3 -1 221.47 16.89
-2 -3 -1 285.27 22.5
-2 3 1 244.69 18.19
-2 -3 -1 224.35 17.39
-2 3 -1 263.96 20.88
2 -3 1 235.52 18.27
-2 -3 -1 230.4 17.98
2 -3 1 270.23 19.11
2 -3 -1 226.16 18.17
-2 4 -1 97.24 7.66
-2 4 -1 104.04 8.89
2 -4 1 101.44 9.03
-2 -4 -1 109.26 7.48
2 -4 1 94.95 8.84
-2 4 1 93.32 8.63
-2 4 1 93.6 8.55
2 4 1 72.69 8.95
2 4 1 106.09 9.06
-2 4 -1 108.14 8.01
-2 -4 -1 110.2 10.28
-2 4 -1 102.73 7.96
2 4 -1 100.86 9.04
2 -4 -1 88.25 8.2
-2 -4 1 102.62 8.8
-2 -4 -1 90.24 7.48
-2 -4 -1 109.75 11.81
-2 -4 1 97.82 7.43
-2 4 -1 93.79 8.83
-2 -4 -1 102.04 7.92
-2 4 -1 113.63 10.76
2 -4 1 104.32 9.03
-2 -4 -1 100.07 8.22
2 -4 1 93.81 9.27
2 -4 -1 88.27 8.55
-2 4 1 95.75 8.53
-2 5 -1 0.62 0.8
-2 5 1 0.82 1.29
2 -5 1 2.4 1.72
-2 -5 -1 8.11 2.66
-2 5 -1 4.14 1.53
-2 -5 -1 1.04 0.54
-2 5 -1 1.75 0.81
-2 5 -1 3.35 1.14
2 5 1 3.37 1.77
-2 -5 1 0.39 1.22
2 -5 -1 1 1.16
-2 5 1 0.4 1.17
2 5 1 1.22 1.5
-2 5 -1 0.97 2.65
-2 -5 -1 3.96 2.98
-2 -5 -1 2.07 0.85
-2 5 -1 2.83 1.64
-2 5 1 2.58 1.33
-2 -5 -1 2.11 0.91
2 -5 1 0.6 1.56
-2 -5 -1 1.55 1.08
-2 5 -1 1.32 2.44
-2 -5 -1 2.18 2.28
-2 5 -1 0.74 2.13
2 -5 1 0.95 1.24
-2 6 -1 36.51 3.53
2 -6 1 31.01 4.62
-2 6 1 28.78 4.09
-2 -6 -1 35.04 5.07
-2 6 -1 33.61 3.31
2 6 1 35.01 4.94
-2 6 1 30.66 4.21
-2 -6 -1 28.47 2.9
-2 -6 1 33.11 4.12
2 -6 -1 32.41 4.06
2 6 1 39.46 4.83
-2 6 -1 33.44 5.8
-2 6 -1 37.52 4.77
-2 -6 -1 25.47 3.18
-2 -6 -1 36.27 6.17
-2 -6 -1 27.57 3.16
2 -6 1 18.54 4.31
-2 -6 -1 28.47 3.06
-2 6 1 31.5 4.1
-2 6 -1 25.17 4.93
-2 -6 -1 39.17 5.33
-2 6 -1 37.7 5.37
2 -6 1 34.63 4.66
-2 7 -1 244.56 22.43
2 -7 1 232.04 21.65
-2 7 -1 283.66 20.59
-2 7 1 278.16 21.54
-2 -7 -1 280.56 22.28
-2 7 -1 262.83 20
2 -7 -1 291.05 21.4
-2 -7 1 276.65 21.14
2 7 1 298.33 22.48
-2 7 -1 307.25 23.97
-2 -7 -1 294.25 23.93
-2 -7 -1 305.88 22.77
-2 7 -1 293.34 22.67
-2 -7 -1 270.09 20.04
2 -7 1 271.37 22.08
-2 7 -1 272.91 22.67
2 -7 1 267.03 22.31
-2 7 1 282.89 21.24
-2 8 1 379.61 28.84
2 -8 1 267.78 28.57
-2 8 -1 345.92 29.81
2 -8 -1 441.05 29.23
-2 -8 -1 370.11 26.45
-2 -8 1 375.72 28.26
2 -8 -1 396.13 28.85
-2 -8 -1 425.73 29.81
2 8 1 422.57 29.94
-2 -8 1 369.24 28.53
-2 8 -1 402.31 30.83
-2 -8 -1 422.51 31.24
-2 8 -1 402.34 29.72
2 -8 1 419.14 30.1
-2 8 -1 364.03 29.78
-2 8 1 390.16 28.56
-2 -8 -1 385.88 29.56
-2 -9 -1 0.51 0.65
-2 9 1 0.59 1.44
-2 -9 1 1.35 1.14
-2 9 -1 1.61 1.72
2 -9 1 1.36 1.86
2 9 -1 1.19 1.55
-2 -9 1 -0.44 1.2
-2 -9 -1 0.65 1.77
-2 -9 1 -1.06 1.66
-2 -9 -1 0.88 2.29
-2 9 -1 0.85 1.95
2 -9 -1 0.57 1.49
-2 9 1 -0.5 1.56
-2 9 -1 0.73 2.19
-2 -9 -1 0.63 1.65
-2 9 -1 -0.65 2.02
-2 10 1 6.49 2.36
-2 -10 -1 4.31 1.11
-2 -10 1 7.39 2.01
2 -10 1 3.46 2.44
-2 10 -1 8.2 3.05
-2 -10 1 4.99 2.01
-2 -10 1 6.81 2.64
-2 -10 -1 6.51 2.68
2 10 -1 7.09 2.54
-2 -10 -1 6.72 2.85
-2 10 -1 12.21 3.56
2 -10 -1 6.26 2.4
-2 -10 -1 5.41 2.19
-2 10 -1 5.11 2.79
-2 10 1 10.15 2.77
-2 10 -1 4.33 2.19
-2 11 1 20.04 3.99
-2 11 -1 21.14 4.38
-2 -11 -1 14.93 2.09
-2 -11 1 20.93 3.08
2 -11 1 16.23 4.03
-2 -11 1 18.4 3.51
-2 -11 -1 19.66 3.94
2 11 -1 21.8 4.07
-2 -11 -1 12.18 3.63
-2 11 -1 17.29 4.02
2 11 1 12.6 3.4
-2 11 1 18.88 3.72
2 11 1 17.05 3.91
-2 -11 -1 15.29 3.27
-2 11 -1 12.35 3.26
-2 11 -1 16.32 3.81
2 -11 1 16.06 3.61
2 -11 -1 12.97 3.22
-2 -12 -1 209.42 15.62
2 -12 -1 199.52 18.18
-2 -12 1 223.05 16.58
-2 12 -1 229.12 18.94
-2 12 1 246.06 18.94
-2 12 -1 252.35 19.18
2 12 1 162.97 17.96
-2 -12 1 176.63 17.55
-2 -12 -1 229.79 18.23
2 12 -1 220.43 18.5
-2 12 -1 200.07 18.09
2 -12 1 229.41 17.98
-2 -12 -1 209.79 18.44
2 12 1 201.96 17.41
2 -12 1 190.57 17.77
2 12 1 196.19 17.77
-2 12 -1 191.84 17.15
-2 12 1 222.72 17.91
2 -12 -1 231.53 18.53
-2 -12 -1 210.42 17.35
-2 13 1 48.18 6.82
-2 -13 -1 36.57 3.99
-2 -13 1 50.56 5.16
2 -13 -1 28.11 5.54
-2 13 -1 51.64 6.71
-2 -13 -1 38.51 5.6
2 13 -1 32.13 5.74
-2 -13 1 34.2 5.54
-2 13 1 36.69 3.89
2 13 1 47.08 6.73
-2 13 1 29.88 5.08
-2 -13 1 28.71 5.21
2 13 1 34.82 5.07
-2 -13 -1 30.69 5.45
-2 13 -1 47.6 6.21
2 -13 1 32.36 5.15
2 -13 -1 50.31 6.58
-2 -13 1 31.58 4.79
-2 13 1 38.68 5.2
-2 13 1 34.54 5.77
-2 -13 -1 37.08 5.13
-2 13 -1 38.75 5.29
2 -13 1 36.85 5.44
2 13 1 34.48 5.3
-2 -14 -1 58.28 5.65
-2 14 1 72.22 8.82
-2 -14 1 61.04 6.64
-2 14 -1 73.97 8.58
2 14 -1 56.74 7.92
2 14 1 67.22 8.61
-2 -14 1 51.32 7.46
-2 14 1 47.29 5.39
-2 -14 -1 67.04 7.85
-2 14 -1 70.6 7.9
2 14 1 55.4 6.52
-2 14 1 53.79 6.87
-2 -14 1 59.69 7.25
2 -14 1 62.06 7.06
-2 14 -1 58.62 6.79
2 -14 -1 58.11 7.88
-2 14 1 50.57 6.36
2 -14 1 68.63 8.65
2 -14 1 57.11 7.02
2 14 1 54.7 7.02
-2 -14 1 62.16 6.61
-2 14 1 67.31 8.15
-2 15 -1 2.61 2.26
-2 -15 -1 0.59 1.15
-2 -15 1 2.88 2.3
-2 15 1 1.06 2.6
-2 15 1 0.5 1.09
2 15 -1 0.94 2.58
-2 -15 1 -1.61 3.2
2 15 1 -0.94 2.44
-2 -15 1 -0.6 1.95
2 15 1 2.03 1.73
-2 15 1 1.1 1.51
2 -15 1 2.43 1.74
-2 15 1 0.45 1.5
2 -15 -1 3.66 2.87
2 15 1 1.07 1.79
2 -15 1 1.62 1.93
-2 -15 1 0.76 1.59
-2 15 1 0.81 3.39
-2 -15 1 2.5 1.45
2 -15 1 -0.96 2.78
-2 -16 -1 428.75 28.58
-2 -16 1 371.87 30.03
-2 16 -1 492.07 32.48
-2 16 1 393.32 32.38
-2 16 1 381.66 27.77
2 16 -1 444.56 32.25
2 16 1 556.48 33.69
-2 -16 1 370.84 29.5
2 -16 1 386.12 28.95
-2 16 1 343.06 29.02
2 16 1 380.66 28.45
-2 -16 1 397.54 28.61
2 16 1 366.58 29.17
2 -16 1 326.6 28.96
-2 -16 1 394.26 28.54
2 -16 -1 372.57 31.42
2 -16 1 504.85 33.06
-2 16 1 371.14 28.73
-2 -17 -1 69.28 6.05
2 17 1 46.47 5.66
-2 -17 1 76.44 7.49
-2 17 -1 85.74 9.05
2 -17 1 51.52 5.79
-2 17 1 74.55 9.26
2 17 1 104.35 10.23
2 17 -1 72.85 8.72
2 -17 1 62.11 5.8
-2 -17 1 44.46 5.89
-2 17 1 40.64 5.53
2 17 1 52.09 5.1
2 17 -1 44.66 5.07
2 -17 1 71.89 8.94
2 -17 -1 64.22 8.31
-2 -17 1 43.6 5.07
-2 -17 1 60.32 5.6
-2 17 1 44.62 5.29
2 17 -1 48.92 5.45
-2 -18 1 134.42 10.14
-2 18 -1 133.6 12.01
-2 18 1 157.79 13.54
-2 -18 -1 115.81 8.5
2 18 -1 157.24 12.77
2 18 1 144.12 12.49
2 -18 -1 131.53 12.06
2 -18 1 133.66 12.16
-2 -18 1 112.84 7.81
-2 19 -1 -0.31 1.09
2 19 -1 -2.88 2.76
2 19 1 1.01 2.47
-2 -19 -1 1.86 1.58
-2 -19 1 0.57 1.93
-2 19 -1 1.04 2.54
-2 19 1 -1.04 2.56
2 -19 1 2.01 2.62
2 -19 -1 0.96 2.2
2 20 -1 150.19 15.52
-2 20 -1 122.21 12.2
2 20 1 204.88 16.98
-2 -20 1 174.95 14.23
-2 -20 -1 153.66 12.95
-2 20 -1 191.4 17.13
-2 20 1 163.23 16.18
2 -20 1 181.13 16.53
2 -20 -1 166.53 15.97
-2 21 -1 15.32 2.65
2 21 -1 25.91 5.33
2 21 1 14.31 4.32
-2 21 -1 15.23 4.8
-2 21 1 18.86 4.87
2 -21 -1 18.3 4.58
2 -21 1 18.51 4.61
2 22 1 67.03 9.59
2 22 -1 92.21 10.42
-2 22 -1 61.68 6.94
-2 22 -1 92.54 11.57
-2 22 1 88.15 10.66
2 -22 -1 99.62 10.74
2 -22 1 97.47 10.93
2 23 1 8.37 3.68
2 23 -1 14.39 4.29
-2 23 -1 11.5 4.61
-2 23 1 5.42 3.58
2 -23 1 8.35 3.68
2 -23 -1 8.69 3.8
2 24 1 174.56 17.47
2 24 -1 178.71 17.22
-2 24 -1 209.07 19.36
-2 24 1 177.27 18.18
2 -24 -1 170.15 16.89
2 -24 1 153.33 16.9
2 25 -1 1.89 2.84
2 25 1 1.07 2.62
-2 25 -1 -1.27 3.48
-2 25 1 -1.24 3.04
2 -25 1 1.07 2.78
2 -25 -1 -0.96 2.36
2 26 1 247.54 22.4
2 26 -1 240.08 21.57
-2 26 1 292.71 24.79
2 -26 -1 230.09 21.46
2 -26 1 214.2 21.67
2 -27 -1 26.75 5.92
2 0 -2 25.85 3.02
-2 0 -2 22.27 2.87
2 0 2 29.94 3.28
2 0 -2 21.47 2.69
2 0 2 26.54 2.94
-2 0 2 28.01 2.97
2 0 2 22.51 3.94
-2 0 2 22.9 3.48
2 0 -2 28.48 3.19
2 0 2 29.68 3.16
-2 0 2 27.4 3.2
2 0 2 22.6 3.47
2 0 2 17.09 5.13
2 0 -2 24.48 2.81
-2 0 -2 8.2 4.1
-2 0 2 24.59 3.32
2 0 2 36.12 4.34
-2 0 -2 18.03 5.04
2 0 2 17.9 4.84
2 0 2 18.09 2.66
2 0 2 24.57 3.01
2 1 2 0.28 0.9
2 -1 -2 -0.21 0.67
2 -1 2 -0.36 1.37
2 1 -2 -0.27 0.77
2 -1 2 -0.47 0.84
2 1 2 0.43 0.96
-2 1 2 0.64 0.81
-2 -1 -2 -0.24 0.94
-2 1 -2 -0.36 1.13
2 -1 2 -0.42 1.14
-2 1 2 -0.32 0.98
-2 -1 2 0.31 0.96
2 -1 2 -0.51 1.59
2 -1 -2 -0.63 1.09
2 1 2 -0.68 1.78
2 -1 2 -0.27 0.87
2 1 2 0.5 0.69
-2 -1 2 -0.39 1.36
2 1 2 -0.34 0.92
2 1 -2 -0.55 0.85
-2 1 2 -0.3 0.98
2 1 2 -0.41 1.48
2 -1 2 2.34 3.21
2 1 2 -1.18 2.89
-2 -1 2 -0.22 0.85
-2 -1 -2 -1.32 3.03
-2 1 -2 -1.31 3.02
2 -1 2 -0.87 1.61
2 -1 -2 0.83 0.93
2 1 2 -0.91 2.38
2 -1 2 -0.9 3.13
2 1 2 0.45 0.87
2 -1 2 0.65 1.06
2 1 2 0.78 0.96
2 1 2 -2.09 1.58
2 -1 2 3.45 2.06
-2 -1 -2 -1.92 2.51
-2 1 -2 -0.98 2.24
-2 1 2 -0.36 1
2 1 -2 -0.21 0.74
2 -1 2 0.27 1.03
-2 2 2 584.9 40.58
2 -2 2 658.9 42.23
2 2 -2 575.7 41.08
2 2 2 549.01 40.18
2 2 -2 585.01 40.91
-2 2 -2 622.48 40.99
-2 2 2 567.85 41.14
-2 -2 -2 635.39 40.51
-2 2 -2 544.52 41.6
2 -2 2 552.87 41.53
2 -2 2 546.81 40.6
2 -2 2 634.36 41.9
2 2 2 563.29 39.94
-2 -2 2 554.44 40.93
2 2 2 545.69 43
2 -2 2 592.49 40.72
2 -2 -2 588.85 41.29
-2 -2 2 579.84 41.51
-2 2 -2 601.99 40.73
-2 2 2 533.48 41.05
2 2 2 612.31 41.56
2 -2 2 567.6 45.39
-2 -2 -2 615.28 46.47
-2 -2 -2 569.41 40.68
-2 -2 2 590.05 40.54
2 -2 -2 557.96 41.05
2 2 2 548.42 40.53
-2 2 -2 581.72 42.05
-2 2 -2 540.76 44.19
-2 2 2 581.6 41.4
2 2 2 574.36 44.14
2 -2 2 562.61 41.39
2 -2 2 438.03 42.08
2 2 2 661.75 41.53
2 2 2 570.48 40.64
-2 -3 -2 2.4 0.79
2 3 2 2.38 0.65
2 -3 2 4.58 1.38
2 3 -2 3.48 1.43
-2 3 -2 2.3 1.24
-2 3 -2 1.54 1.62
2 -3 2 5.73 2.53
-2 3 2 2.3 1.26
-2 3 2 2.76 1.54
-2 3 2 3.18 1.45
-2 3 -2 2.81 1.17
2 -3 2 3.17 1.13
2 -3 2 5.47 1.79
2 -3 -2 5.8 1.7
-2 -3 2 5.07 1.74
2 3 2 3.6 2.51
-2 -3 2 5.24 1.5
2 -3 2 2.12 1.29
2 3 2 5.01 1.67
2 3 2 2.89 0.72
-2 3 -2 0.99 1.3
2 -3 2 2.12 3.19
2 3 2 2.38 1.27
2 -3 -2 2.02 1.22
-2 -3 -2 3.7 2.84
2 3 2 3.29 1.34
-2 -3 -2 1.94 1.05
2 3 2 0.85 2.65
-2 3 2 1.88 1.43
2 -3 2 1.72 1.55
2 3 2 2.36 1.03
-2 -3 2 1.51 1.02
2 -3 2 -0.69 2.18
-2 3 -2 8.22 3.55
2 4 -2 8070.04 562.77
-2 4 2 8415.56 562.94
-2 4 2 8478.07 562.59
2 -4 2 8387.69 562.95
-2 4 -2 5251.98 562.57
-2 4 2 8277.23 561.94
2 -4 2 6559.88 563.25
-2 4 -2 8344.84 562.18
2 4 2 8646.22 563.33
2 -4 -2 8336.23 562.56
-2 4 -2 8698.79 561.63
-2 -4 2 8096.96 562.4
2 4 2 8826.8 564.88
2 -4 2 7981.58 561.66
-2 -4 2 8172.8 562.74
2 -4 2 8707.17 562.03
-2 4 2 8288.59 562.62
-2 -4 -2 9210.87 567.78
2 4 2 8945.46 566.19
-2 -4 -2 7991.46 561.95
-2 4 -2 8436.98 563.44
2 -4 2 9081.1 566.6
-2 -4 2 8171.74 561.81
2 4 2 8285.66 566.73
2 -4 2 8576.92 565.33
-2 4 2 8237.11 562.68
2 4 2 8839.52 565.6
2 -4 2 8434.33 564.5
2 4 2 8391.1 561.64
-2 4 -2 8724.61 565.76
2 -5 2 6.37 2.5
-2 5 -2 7.67 1.79
-2 5 2 5 1.81
-2 5 2 3.3 1.69
2 -5 2 7.49 2.07
-2 -5 2 5.82 1.91
2 -5 -2 5.1 1.72
2 5 2 7.5 2.79
-2 -5 -2 5.17 1.15
-2 5 -2 7.57 1.4
2 5 2 6.29 2.26
2 -5 2 6.92 1.37
2 5 -2 3.39 0.89
-2 -5 -2 7.32 1.67
-2 5 -2 4.52 1.88
2 -5 2 6.75 3.48
2 5 2 6.01 3.5
-2 -5 -2 10.41 3.78
-2 5 -2 1.15 3.18
2 5 2 14.86 4.38
2 -5 2 12.58 3.92
-2 -5 -2 4.11 2.7
-2 -5 -2 5.91 1.22
2 -5 2 6.11 3.13
-2 5 2 6.32 2.04
2 5 2 12.51 3.68
2 -5 2 10.91 4.24
2 5 2 8.73 3.69
-2 5 -2 5.06 2.67
2 -5 2 9.49 3.07
-2 -5 2 4.76 1.56
-2 6 -2 4464.25 300.19
2 -6 2 4426.89 302.22
-2 6 2 4126.22 300.85
-2 6 -2 4340.46 300.81
2 6 2 4793.33 301.8
-2 -6 -2 4126.06 299.26
2 6 2 4990.32 303.1
2 -6 -2 4270.72 300.54
-2 6 -2 4414.93 299.15
-2 -6 2 4630.12 300.9
-2 -6 -2 4554.81 304.96
2 6 2 4535.82 303.94
-2 6 -2 4791.62 304.84
2 6 2 4809.45 303.65
-2 6 -2 4454.84 301.8
2 6 -2 3970.02 299.08
-2 -6 -2 4126.3 300.05
2 -6 2 4974.74 303.93
2 -6 2 4368.57 303.59
2 -6 2 4395.61 302.51
2 6 2 4337.54 302.56
2 -6 2 4918.75 304.35
2 6 2 4706.46 304.04
-2 -6 -2 4359.21 299.18
2 -6 2 4652.47 302.86
-2 6 -2 4570.2 303.15
-2 6 2 4282.05 300.62
-2 -6 -2 4638.24 303.05
-2 7 2 -0.5 1.23
2 -7 2 0.68 1.87
-2 7 -2 -0.37 1.02
2 7 2 2.32 1.9
2 7 -2 0.54 1.56
2 -7 -2 0.45 1.31
-2 -7 -2 -0.43 0.72
-2 -7 2 0.44 1.21
-2 7 -2 0.78 0.65
-2 7 -2 0.47 1.29
2 7 2 1.3 1.7
2 7 2 0.92 2.53
2 -7 2 0.83 2.04
-2 -7 -2 -3.18 2.76
-2 7 -2 1.05 2.42
2 7 -2 0.22 0.82
2 7 2 0.79 2.18
2 -7 2 1.77 2.55
-2 7 -2 -0.64 1.58
-2 -7 -2 0.36 1.03
2 -7 2 1.49 1.94
-2 7 2 1.26 1.21
2 7 2 0.72 1.97
2 -7 -2 -0.48 1.17
2 -7 2 2.12 2.38
2 -7 2 -0.91 2.61
-2 -7 -2 -0.77 1.9
-2 7 -2 3.17 2.48
2 7 2 1.79 2.91
-2 -7 -2 0.29 0.65
-2 8 -2 424.23 30.96
-2 8 -2 434.76 30.66
-2 8 2 420.82 31.17
2 -8 2 458.94 32.38
2 8 2 330.61 31.5
-2 -8 2 434.65 30.84
-2 8 -2 421.59 28.78
-2 -8 -2 387.65 29.46
2 8 -2 442.36 31.46
2 8 2 442.3 32.77
2 -8 -2 405.76 30.91
-2 -8 -2 404.81 33.43
-2 8 -2 429.24 33.61
2 8 2 419.47 32.35
-2 8 -2 420.75 32
2 -8 2 444.18 32.81
-2 -8 -2 410.42 30.42
-2 -8 -2 387.57 28.86
2 -8 2 443.46 33.16
2 8 2 409.82 32.83
2 -8 2 430.9 32.51
-2 -8 -2 390.79 31.97
-2 8 -2 421.92 32.38
-2 8 2 405.69 30.58
2 -8 -2 405.42 30.86
2 -9 2 1.4 1.72
-2 9 -2 0.48 1.1
-2 9 2 2.38 2
-2 9 -2 -0.74 1.94
-2 -9 2 2.96 1.56
2 9 -2 0.61 1.49
-2 -9 -2 0.59 1.06
-2 9 -2 1.63 1.33
-2 9 -2 0.62 0.65
2 9 2 1.59 1.95
2 -9 -2 -1.09 1.78
-2 -9 2 0.46 1.21
-2 -9 -2 1.35 1.46
-2 -9 -2 -0.98 2.24
-2 9 -2 0.97 2.23
2 9 2 -0.72 2.06
2 -9 2 3.05 2.73
-2 9 -2 0.78 1.79
2 -9 2 2.51 2.18
-2 -9 -2 1.27 0.72
2 -9 -2 1.63 1.42
-2 -9 -2 4.29 2.24
2 9 2 -0.82 2.48
-2 9 -2 2.97 2.14
-2 10 -2 208.87 15.66
-2 10 -2 186.37 15.5
-2 -10 2 190.35 14.75
-2 10 -2 208.56 16.72
-2 10 2 181.03 15.52
2 -10 2 214.45 16.68
-2 -10 -2 188.95 14.17
2 10 -2 200.08 15.88
2 10 2 164.65 16.17
-2 -10 2 171.65 14.62
2 -10 -2 181.95 15.52
-2 10 -2 158.76 12.69
-2 10 -2 223.86 17.39
-2 -10 -2 181.62 17.07
-2 10 -2 180.49 17
-2 -10 -2 182.47 15.02
2 10 2 182.48 16.09
2 -10 2 177.97 16.1
-2 -10 -2 189.94 16.15
-2 10 -2 188.31 16.07
2 -10 -2 212.57 15.72
-2 -10 -2 166.87 12.99
2 10 2 177.3 16.47
2 -10 2 162.61 16.16
-2 10 2 176.71 14.91
2 -11 2 -0.72 1.77
-2 -11 2 1 1.74
-2 11 2 -0.67 1.53
-2 11 -2 -0.62 1.62
-2 11 -2 -0.8 1.4
2 -11 -2 -0.66 1.61
2 11 -2 -1.35 2.11
-2 -11 2 0.96 1.44
-2 11 -2 0.41 0.57
-2 11 -2 1.3 1.38
-2 -11 -2 0.4 1.15
2 11 2 1.33 2.15
2 -11 2 2.85 2.14
-2 -11 -2 3.77 2.59
-2 11 -2 -0.94 2.57
-2 11 -2 -3.81 2.34
2 11 2 -2.36 2.46
-2 -11 -2 -0.69 1.91
2 -11 -2 -1.26 1.34
-2 11 2 -0.53 2.1
-2 11 -2 0.71 2.14
-2 -11 -2 -0.17 0.71
2 -11 2 0.79 2.36
-2 12 2 299.86 22.23
2 -12 2 291.77 22.33
-2 12 -2 290.47 22.23
-2 12 -2 276.49 21.93
-2 -12 2 303.44 21.42
-2 12 -2 285.15 22.79
2 -12 -2 307.84 22.45
-2 -12 2 249.48 21.01
-2 -12 -2 282.95 20.63
2 12 -2 311.79 22.33
-2 -12 2 276.36 20.93
-2 12 -2 216.07 18.5
2 12 2 264.57 22.09
-2 12 -2 298.52 23.97
2 12 2 237.15 21.2
2 -12 2 293.97 22.07
2 -12 2 291.63 22.49
-2 12 2 266.49 21.17
2 -12 2 254.94 22.09
2 12 2 252.77 22.12
2 -12 -2 323.37 22.25
-2 13 2 2.43 2.22
-2 -13 2 1.06 1.78
-2 13 -2 0.88 1.88
-2 13 -2 0.78 1.93
2 13 2 -0.74 2.39
-2 13 -2 0.13 0.81
2 13 -2 0.76 1.97
-2 13 -2 0.78 2.25
-2 -13 2 3.18 2.27
2 13 2 2.35 2.36
-2 13 -2 0.32 0.63
-2 -13 -2 0.51 1.83
2 13 2 -1.15 2
2 -13 2 -1.28 2.08
-2 13 -2 -2.27 2.6
2 -13 2 -2.4 2.5
2 -13 -2 -1.46 1.91
2 -13 2 0.74 2.32
-2 13 2 0.6 2.87
-2 -14 2 2348.43 139.59
-2 14 2 2479.04 142.13
-2 14 -2 2501.12 142.71
2 14 2 2415.98 142.2
-2 -14 2 2201.7 140.35
2 14 2 2307.72 141.28
2 14 -2 2226.96 141.18
-2 -14 -2 2152.57 139.63
2 14 2 2100.93 139.25
2 -14 2 2194.36 139.74
-2 14 -2 2346.42 144.47
2 -14 -2 2450.39 141.39
2 -14 2 2156.86 140.31
-2 14 2 2522.62 140.68
2 -14 2 2433.63 141.49
2 14 2 2053.94 140.12
-2 15 2 0.94 2.16
-2 15 -2 2.01 2.76
2 -15 2 0.64 2.29
2 15 2 1.31 2.21
-2 -15 2 0.57 1.73
-2 -15 2 2.25 2.53
-2 -15 -2 1.28 2.07
2 15 -2 4.31 2.7
-2 15 -2 0.95 0.84
-2 15 2 3.15 1.71
2 15 2 4.54 2.73
2 15 2 1.93 2.14
2 -15 2 0.53 1.79
-2 15 -2 -1.34 2.85
2 -15 -2 2.5 2.51
2 -15 2 1.6 2.31
-2 16 2 1086.75 66.8
-2 -16 2 1099.63 64.45
-2 16 -2 1195.04 67.84
-2 16 -2 780.97 60.75
2 16 -2 665.38 63.9
-2 16 2 987.82 62.61
-2 -16 -2 583.6 62.73
2 16 2 1172.27 66.72
-2 -16 2 839.13 63.31
-2 16 -2 796.41 67.35
2 16 2 964.14 62.7
2 -16 2 999.63 63.13
-2 -16 2 848.46 62.46
2 -16 2 921.02 63.54
2 -16 2 1094.19 65.49
2 16 2 952.14 63.75
2 -16 -2 814.01 64.49
-2 17 2 1.15 2.65
-2 -17 2 -0.74 2.02
-2 17 -2 -1.09 2.51
2 -17 2 -0.52 2.03
-2 -17 -2 0.71 2.06
2 17 -2 -0.94 2.31
-2 17 -2 -0.16 0.83
-2 17 2 -0.93 1.57
2 17 2 0.94 2.32
2 17 -2 1.54 1.67
2 -17 2 -0.44 1.79
-2 17 2 -0.5 1.72
-2 17 -2 4.67 3.58
-2 -17 2 -1.65 1.91
-2 17 2 0.43 1.57
2 -17 -2 0.94 2.31
2 -17 2 -1.64 2.26
-2 -17 2 -0.38 1.51
-2 -17 2 -0.58 1.87
2 18 -2 24.72 3.57
-2 18 -2 56.16 7.82
2 -18 -2 21.94 3.88
-2 18 2 20.94 5.66
2 18 2 50.93 7.02
-2 18 2 30.12 3.94
2 18 -2 24.26 5.22
-2 18 -2 23.52 2.58
2 -18 -2 26.43 3.73
-2 -18 2 20.33 3.69
2 18 -2 16.85 2.76
-2 18 2 17.07 3.38
-2 18 -2 53.79 9.34
-2 18 2 14.17 3.24
2 -18 -2 34.69 5.84
-2 -18 2 17.59 2.9
-2 -18 2 25.84 4.36
-2 19 -2 -1.29 3.16
-2 19 2 2.46 3.2
2 19 -2 -1.86 2.68
-2 19 -2 1.37 1.02
-2 19 2 -1.09 1.34
2 19 2 2.03 2.5
2 -19 -2 0.41 1.08
2 -19 -2 -0.94 2.3
-2 -19 2 3.54 2.33
2 20 2 140.01 13.11
2 20 -2 145.74 12.81
-2 20 -2 142.08 14.04
-2 20 2 152.96 14.44
-2 -20 2 116.77 9.59
2 -20 -2 125.22 12.15
2 21 -2 0.94 2.31
2 21 2 -1.06 2.43
-2 21 2 1.14 2.96
-2 21 -2 -1.22 2.99
-2 -21 -2 0.59 1.14
2 -21 -2 1.88 2.45
-2 -21 2 -0.4 1.71
2 -21 2 3.23 3.1
2 22 -2 195.18 18.36
2 22 2 184.16 18.7
-2 22 -2 219.07 20.25
-2 22 2 194.58 19.29
2 -22 -2 178.69 17.94
2 -22 2 202.05 19.05
2 23 -2 5.65 3.37
2 23 2 -2.2 3.31
-2 23 -2 -1.36 2.9
-2 23 2 1.12 2.92
-2 23 -2 1.24 2.84
2 -23 2 -1.1 2.52
2 -23 -2 -2.8 2.56
-2 24 -2 498.12 46.89
-2 24 -2 585.55 47.06
-2 24 2 613.73 46.62
2 24 -2 606.86 45.62
2 24 2 591.26 46.24
-2 24 -2 590.55 49.76
2 -24 -2 628.78 45.73
2 -24 2 562.15 46.04
2 25 -2 0.93 2.67
2 25 2 -1.11 3.35
-2 25 -2 -1.27 2.92
-2 25 2 1.17 2.88
-2 25 -2 -1.41 3.67
2 -25 2 6.73 3.51
2 -25 -2 -0.92 2.77
2 26 2 415.16 35.07
-2 26 -2 372.1 36.24
-2 26 2 491.85 36.92
2 -26 -2 429.43 34.35
2 27 -2 -1.18 2.9
2 0 -3 -1.75 1.09
-2 0 3 1.04 1.04
2 0 3 1.66 1.98
2 0 3 1.8 1.32
-2 0 -3 0.3 0.79
2 0 3 0.62 1.43
-2 0 3 0.43 1
2 0 3 0.64 0.84
2 0 -3 1.18 1.18
-2 0 3 0.67 1.1
2 0 3 -1.49 3.43
2 0 3 -1.18 3.23
-2 0 -3 -1.59 3.91
2 0 3 0.35 1.05
2 0 3 0.65 1.02
2 0 -3 1.08 0.99
2 0 3 0.79 2.27
2 0 3 -1.35 3.7
-2 0 -3 1.19 2.53
2 0 3 1.11 2.56
2 -1 3 1.83 1.91
2 -1 -3 1.94 1.16
2 1 3 2.71 1.34
2 1 -3 1.13 1.14
2 -1 3 0.69 1.12
-2 1 -3 1.1 1.23
-2 1 3 1.39 1.17
2 1 3 1.83 1.54
-2 -1 3 0.72 1.29
-2 1 3 1.74 1.2
-2 -1 3 -0.42 1.16
2 -1 3 0.59 1.61
2 -1 -3 1.61 1.05
-2 1 3 0.58 0.87
2 -1 3 0.45 1.04
2 1 3 0.68 0.65
2 -1 3 1.14 0.89
2 1 3 0.74 1.07
2 1 3 -0.66 1.63
2 1 3 0.52 1.56
2 -1 3 1.43 2.78
2 1 3 -1.44 2.8
-2 -1 3 1.97 1.21
2 1 3 2.26 2.78
2 -1 3 3.49 3.91
-2 -1 -3 4.62 3.54
-2 1 -3 1.54 2.98
2 -1 3 -1.3 3.92
2 1 3 -1.29 3.36
2 -1 3 1.47 1.01
2 -1 3 7.45 3.81
-2 -1 -3 1.14 2.43
-2 1 -3 1.16 2.67
-2 1 3 1.23 1.38
2 -1 3 0.83 2.59
2 -1 -3 -0.39 1.17
2 1 3 1.64 1.28
2 1 -3 1.33 1.12
2 1 3 2.51 1.14
2 1 3 1.08 2.66
2 1 3 2.17 2.27
-2 2 3 292.21 20.89
2 2 -3 267.5 20
2 -2 3 271.08 20.77
2 2 3 281.83 20.88
2 2 -3 264.6 21.04
2 -2 3 265.62 21.16
-2 2 3 264.36 20.52
-2 2 -3 286.5 21.37
2 -2 3 226.74 21.82
-2 2 -3 321.53 21.46
2 2 3 254.27 20.92
2 2 3 259.4 20.01
-2 2 3 279.78 21.29
2 2 3 341.73 23.36
2 -2 3 255.21 21.6
-2 -2 3 270.99 21.12
-2 -2 3 298.61 21.56
2 -2 -3 303.66 21.33
2 2 3 291.56 21.3
2 -2 3 277.93 20.25
-2 -2 3 307.62 20.86
2 2 3 269.52 20.67
2 -2 3 339.95 27.06
2 -2 -3 281.67 21.13
-2 -2 -3 276.09 26.26
-2 -2 3 259.12 19.62
2 -2 3 289.5 21.17
-2 -2 -3 264.94 20.79
2 2 3 299.9 24.99
2 2 -3 279.39 20.72
-2 2 -3 293.17 25.04
2 2 3 262.5 20.15
-2 2 3 293.84 21.24
2 2 3 307.13 24.86
2 2 3 272.26 22.23
2 -2 3 269.34 23.24
2 -2 3 288.86 25.48
2 3 -3 79.35 6.89
2 -3 3 81.58 9.19
2 3 -3 82.36 8.01
2 -3 3 76.48 7.48
-2 3 3 85.19 7.62
2 -3 3 89.83 8.09
-2 3 -3 98.55 8.65
-2 3 3 76.82 7.35
2 3 3 92.29 7.26
-2 3 -3 91.21 8.02
2 3 3 79.35 6.91
2 -3 -3 81 7.91
-2 -3 3 81.35 7.84
2 3 3 90.53 8.31
2 -3 3 89.28 6.99
2 3 3 79.59 9.07
2 -3 3 71.62 7.98
-2 -3 3 82.19 7.96
2 -3 3 77.01 7.81
2 -3 -3 90.01 8.12
2 -3 3 86.63 11.58
-2 -3 -3 107.05 13.1
-2 -3 3 82.79 7.46
2 3 3 85.61 7.58
-2 3 -3 82.32 8.7
-2 -3 -3 75.4 7.43
-2 -3 3 86.64 6.48
2 3 3 118.56 11.79
-2 3 -3 82.81 10.44
2 3 3 98.61 10.91
2 3 3 86.39 6.9
2 3 3 72.33 8.16
2 -3 3 73.91 9.41
-2 3 3 81.72 7.85
2 -3 3 110.41 12.22
-2 4 3 319.24 25.22
2 -4 3 356.51 27.33
2 -4 3 339.1 25.37
2 -4 3 321.52 25.65
-2 4 -3 381.87 27
2 4 3 370.21 24.21
2 4 -3 325.15 25.83
-2 4 -3 345.34 25.59
-2 4 3 341.33 25.27
2 -4 -3 324.54 25.67
2 4 -3 328.44 24.55
2 4 3 363.16 26.51
2 4 3 365.99 27.76
2 -4 3 341.82 25.69
2 -4 3 330.61 24.29
-2 -4 3 346.12 25.77
-2 -4 3 324.26 25.64
2 4 3 344.6 24.56
2 -4 -3 318.52 25.73
2 -4 3 386.99 30.66
-2 4 -3 348.91 26.83
-2 -4 3 349.37 25.22
2 4 3 421.14 31.34
-2 -4 -3 332.51 25.31
-2 -4 -3 387.67 31.24
2 -4 3 405.19 29.74
2 4 3 339.32 25.25
2 4 3 371.13 29.15
-2 4 3 322.64 25.42
2 4 3 323.14 24.2
2 4 3 403.91 29.27
2 -4 3 372.31 28.7
2 4 3 293.21 25.57
2 -4 3 288.48 27.56
-2 4 -3 347.24 29.01
2 -4 3 379.67 30.08
2 4 3 354.93 29.56
-2 5 3 0.37 1.21
-2 5 -3 0.43 1.05
-2 5 -3 0.75 1.84
2 5 -3 -0.53 1.12
2 -5 3 1.44 2.07
2 -5 3 0.4 1.09
2 5 3 0.61 1.69
2 -5 3 0.58 0.6
2 5 3 1.68 1.93
-2 -5 3 0.88 1.44
2 -5 -3 0.48 1.45
-2 -5 -3 0.46 0.85
2 5 3 1.38 0.8
2 -5 3 1.83 1.35
2 -5 3 -0.48 1.02
-2 5 -3 1.97 1.4
2 5 3 2.49 3.25
2 -5 3 3.6 3.13
2 -5 -3 0.51 1.08
2 5 3 7.84 3.4
2 -5 3 2.05 2.96
-2 -5 -3 -1.37 3.14
-2 5 -3 -4.13 3.58
-2 -5 3 0.7 1.14
-2 5 3 2.12 1.6
-2 5 -3 1.05 2.58
2 -5 3 1.14 2.61
2 -5 3 2.71 2.6
-2 -5 -3 6.2 3.11
2 5 3 6.76 3.66
2 5 3 1.13 1.38
2 -5 3 -0.93 2.28
-2 -5 -3 -0.4 0.98
2 5 3 -0.93 2.69
2 -6 3 39.4 5.73
-2 6 3 25.1 3.77
-2 6 -3 38.28 4.39
2 6 -3 33.84 4.88
-2 6 3 30.3 4.47
2 6 3 28.79 4.82
-2 -6 -3 28.64 3.36
2 -6 -3 27.47 4.11
-2 -6 3 31.3 4.2
2 -6 3 31.39 3.72
-2 6 -3 36.57 4.49
2 6 3 34.09 5.9
-2 6 -3 27.69 4.75
2 -6 -3 28.08 4.33
2 -6 3 29.83 6.5
2 6 3 44.25 7.43
2 6 3 31.05 5.93
2 -6 3 40.58 6.77
-2 -6 -3 24.06 6.39
-2 6 -3 29.67 6.65
-2 -6 3 31.46 4
-2 -6 -3 39.81 6.41
-2 -6 -3 29.68 3.96
-2 6 3 24.5 3.92
-2 6 -3 42.43 6.82
2 -6 3 32.13 6.3
2 6 3 33.6 3.64
2 -6 3 26.32 5.4
2 6 3 37.37 6.81
2 6 3 30.5 5.8
2 -6 3 32.98 5.88
-2 7 -3 104.44 10.11
2 -7 3 117.2 11.87
-2 7 3 122.4 10.8
-2 7 -3 125.56 10.58
2 7 -3 124.34 11.33
2 7 3 83.44 10.86
-2 -7 -3 108.12 9.31
2 7 3 99.61 11.89
2 -7 -3 107.23 10.47
2 -7 3 109.7 9.22
-2 -7 3 116.94 10.42
2 7 3 113.12 13.42
2 -7 3 125.49 13.7
-2 -7 -3 115.54 10.23
-2 -7 -3 120.57 13.78
-2 7 -3 132.07 14.4
2 -7 3 134.67 13.27
2 7 -3 110.74 9.21
-2 7 -3 128 11.69
2 -7 -3 115.11 10.99
2 7 3 119.63 12.63
-2 -7 3 111.01 9.96
-2 7 -3 131.36 13.11
2 -7 3 130 12.49
2 7 3 129.35 12.87
2 -7 3 116.08 12.4
2 7 3 113.17 8.83
2 -7 3 132.62 13.69
2 7 3 129.93 13.67
2 -7 -3 125.22 10.53
-2 7 3 118.53 10.29
-2 -7 -3 129.73 12.84
2 -8 3 12.24 3.31
-2 8 -3 9.18 2.55
2 8 -3 15.25 3.47
-2 8 3 8.15 2.58
2 8 3 15.23 3.85
2 -8 -3 14.83 3.14
-2 -8 -3 12.68 2.18
2 -8 3 12.79 2.06
-2 -8 3 16.76 3.04
-2 8 -3 11.52 2.65
2 8 3 17.76 4.54
2 8 -3 12.2 2.12
2 8 3 9.47 3.46
2 -8 3 20.55 4.97
2 -8 3 12.78 4.21
2 8 3 16.17 4.58
-2 -8 -3 16.78 3.13
-2 8 -3 10.31 3.21
2 8 3 13.97 3.74
2 -8 3 9.55 3.36
-2 8 3 15.05 2.83
2 8 3 17.59 4.84
2 -8 -3 12.36 2.75
2 -8 3 22.99 5.21
2 -8 3 14.8 4.19
-2 -8 3 13.84 2.7
-2 9 3 1.21 1.48
2 -9 3 -1.54 2.11
-2 9 -3 0.55 1.27
2 9 -3 0.76 1.75
2 -9 3 0.56 0.43
2 9 -3 1.28 1.76
2 -9 -3 -0.59 1.44
-2 -9 -3 -0.69 1.59
-2 -9 3 -0.49 1.19
-2 9 -3 2.12 1.38
2 9 3 0.82 1.88
-2 -9 -3 1.07 1.61
2 -9 3 -0.98 2.24
2 9 -3 1.74 1.17
2 9 3 1.65 2.48
2 -9 3 0.88 2.64
-2 9 -3 3.39 2.44
2 9 3 -1.02 2.51
2 -9 3 -1.02 3.07
2 9 3 3.92 2.55
-2 9 3 0.94 1.35
2 -9 3 -0.76 2.09
2 9 3 -1.01 2.78
2 -9 -3 1.63 1.42
2 -9 3 1.83 2.39
2 -10 3 33.32 5.67
-2 10 -3 27.18 4.61
-2 -10 3 43.65 5.13
-2 10 3 27 4.6
2 10 3 39.86 6.81
-2 -10 -3 31.56 4.05
2 10 -3 36.67 5.38
-2 -10 3 33.23 4.65
2 10 3 40.15 6.1
2 -10 -3 33.98 5
-2 10 -3 34.8 4.89
2 -10 3 30.53 5.78
2 10 3 28.08 5.83
2 10 3 37.79 5.88
2 -10 3 41.28 6.31
-2 -10 -3 38.67 5.22
2 10 -3 28.77 4.08
-2 10 -3 28.31 5.49
2 10 3 31.49 5.32
2 -10 -3 32.7 4.78
2 -10 3 23.72 5.55
2 -10 3 32.42 5.4
2 -11 3 2.83 2.98
2 -11 3 7.87 3.16
-2 -11 3 9.06 2.68
-2 11 -3 11.35 4.09
-2 11 -3 8.64 2.8
-2 11 3 4.21 2.32
2 11 3 9.38 3.93
2 11 3 6.83 2.81
2 11 -3 4.27 2.27
-2 -11 -3 4.61 1.87
-2 11 -3 8.61 2.76
-2 -11 3 6.42 2.27
2 -11 -3 7.5 2.81
2 -11 3 1.78 2.6
2 11 3 7.98 2.92
2 -11 3 6.3 2.85
-2 11 -3 5.87 2.98
-2 -11 -3 10.3 2.66
2 11 -3 5.56 2.14
2 11 3 8.35 3.35
2 11 3 5.03 2.61
2 -11 3 6.43 2.81
2 -11 -3 6.71 2.46
-2 12 3 883.43 62.72
-2 12 -3 854.41 62.72
-2 -12 3 924.62 62.24
-2 12 -3 1055.26 66.35
-2 12 -3 822.22 62.12
-2 -12 -3 826.64 61.09
-2 -12 3 817.63 61.25
2 12 3 873.04 63.73
2 12 -3 965.46 63.18
-2 12 -3 912.26 64.7
2 12 -3 830.28 61.44
2 12 3 812.73 62.24
2 -12 3 837.87 62.58
-2 -12 -3 844.84 62.49
2 -12 -3 894.19 62.31
2 12 3 793.8 63.3
2 -12 3 799.12 63.26
-2 -13 3 20.35 4.25
-2 13 -3 17.9 4.95
2 -13 3 10.38 3.73
-2 13 3 12.39 3.92
-2 13 -3 12.25 3.81
2 13 3 10.6 3.95
-2 -13 3 14.91 3.3
2 13 -3 18.8 4.19
-2 -13 -3 8.27 2.89
-2 13 -3 23.36 4.31
2 13 3 11.99 3.79
2 13 -3 14.9 3.37
2 13 3 15.27 3.63
2 -13 3 10.58 3.38
-2 -13 -3 10.12 3.38
-2 13 -3 18.32 5.35
2 -13 -3 13.92 3.5
-2 13 3 15.59 3.46
2 -13 3 20.91 4.7
-2 14 3 136.66 13.86
-2 14 -3 172.22 15.18
-2 14 -3 170.88 16.13
-2 -14 3 149.53 13.48
-2 -14 -3 151.83 13.11
-2 -14 3 142.04 13.22
2 14 3 127.03 13.9
-2 -14 3 139.23 12.75
2 14 -3 173.96 14.69
2 14 3 124.61 12.98
2 14 -3 141.88 13.59
-2 14 -3 151.07 15.98
2 -14 3 122.47 13.1
-2 -14 -3 145.47 14.24
2 -14 3 129.91 14.02
2 14 3 121.28 13.89
2 -14 3 141.51 14.29
-2 14 3 140.47 13.18
2 -14 -3 169.34 14.17
2 15 3 -1.67 2.8
-2 15 3 -1.85 2.78
-2 15 -3 1.16 2.48
-2 15 -3 -1.01 2.48
2 -15 3 1.6 2.7
2 15 -3 2.61 2.51
-2 -15 -3 1.88 1.97
2 15 3 -0.92 2.4
2 15 3 -2.45 2.06
2 -15 3 -1.93 2.24
-2 -15 -3 0.93 2.55
2 15 -3 0.79 1.68
-2 15 -3 1.34 2.84
2 -15 -3 0.79 2.05
2 -15 3 4.56 3.07
-2 16 -3 150.94 14.64
-2 16 -3 124.67 13.52
-2 16 3 135.04 13.13
2 16 3 113.03 12.38
2 16 3 126.7 12.73
2 16 -3 99.21 12.04
-2 -16 -3 113.77 11.51
2 16 -3 106.98 12.09
2 16 3 92.47 10.6
2 16 -3 115.62 11.29
2 -16 3 111.09 11.17
-2 -16 -3 148.89 13.94
2 -16 -3 98.58 11.53
2 -16 3 116.28 12.11
2 16 3 94.06 11.58
2 -16 3 127.01 12.78
-2 17 -3 52.39 7.83
2 -17 -3 40.99 6.56
-2 17 3 47.69 7.44
-2 17 -3 43.18 7.48
2 17 -3 37.75 5.98
2 17 -3 27.1 6.06
2 17 3 58.38 7.49
-2 17 3 47.82 5.77
2 17 3 38.08 6.56
-2 -17 -3 35.36 6.97
2 -17 -3 43.04 5.95
2 17 -3 28.03 6.06
2 17 -3 29.33 4.88
2 -17 3 46.63 7.1
2 -17 -3 36.22 6.19
-2 18 3 16.08 4.82
2 18 -3 12.16 3.27
-2 18 -3 10.68 4.29
-2 18 -3 10.38 4.95
2 -18 -3 10.77 3.52
2 18 3 21.75 4.82
2 18 -3 9.9 3.98
-2 18 3 5.27 2.46
2 18 3 4.58 2.82
2 -18 -3 10.39 3.06
-2 -18 -3 9.55 4.06
2 18 -3 7.65 2.48
2 18 -3 4.11 3.27
2 -18 -3 3.74 2.63
2 -18 3 14.85 4.23
-2 19 -3 -1.2 2.75
-2 19 -3 -1.4 4.38
-2 19 3 -2.57 3.53
2 19 -3 2.93 3.06
-2 19 3 1.27 1.91
2 19 3 -1.01 2.32
2 -19 -3 0.45 1.78
-2 19 3 0.45 1.7
2 19 -3 -1.06 2.9
-2 -19 -3 -2.57 4.73
2 -19 -3 1.87 2.43
-2 -19 3 2.34 2.79
2 19 -3 -0.8 1.86
2 -19 3 2.8 2.81
-2 -19 3 0.65 1.51
-2 20 -3 146.94 18.61
-2 20 -3 261.24 20.55
-2 20 3 196.06 19.6
2 20 3 235 18.92
-2 20 3 160.36 15.46
2 20 -3 225.39 18.67
-2 -20 -3 159 18.61
2 -20 -3 137 13.94
2 20 -3 192.7 18.68
2 -20 -3 248.15 18.72
-2 -20 3 171.58 16.57
2 -20 3 272.97 19.33
-2 21 -3 16.14 4.65
-2 21 -3 -1.49 4.36
-2 21 3 22.48 6.02
-2 21 3 18.39 3.39
2 21 -3 20.98 4.97
2 21 3 12.87 4.35
-2 -21 -3 6.86 4.69
2 21 -3 5.58 3.85
2 -21 -3 14.69 4.3
-2 -21 3 10.8 3.75
-2 22 -3 311.35 27.45
-2 22 -3 290.25 28.48
-2 22 3 314.08 27.84
2 22 3 272.12 26.09
2 22 -3 342.34 26.66
-2 22 -3 309.65 30.11
2 22 -3 263.45 26.34
-2 -22 -3 277.42 27.91
2 -22 -3 327.54 26.07
-2 -22 3 303.32 24.2
-2 23 -3 1.27 2.92
-2 23 -3 4.56 4.38
-2 23 3 1.21 3.32
2 23 -3 6.44 3.48
2 23 3 -3.37 6.08
-2 -23 -3 4.2 4.38
2 23 -3 -4.65 3.5
-2 23 -3 1.82 3.54
2 -23 -3 6.27 3.39
-2 24 -3 190.06 20.64
-2 24 -3 208.4 19.86
-2 24 3 219.73 19.78
2 24 -3 182.13 17.68
2 24 3 185.23 18.64
2 24 -3 165.02 18.26
-2 24 -3 197.26 21.86
-2 -24 -3 167.16 19.43
2 -24 -3 202.2 17.96
2 -24 3 164.07 18.19
-2 25 -3 -4.63 5.01
-2 25 3 1.17 2.49
2 25 -3 4.75 3.57
-2 -25 -3 1.41 3.88
2 26 -3 76.58 10.66
2 0 4 5407.06 376.51
-2 0 4 6289.08 377.03
2 0 4 5596.1 376.79
2 0 -4 5388.2 376.62
-2 0 4 6071.35 377.24
2 0 4 6089.7 376.27
2 0 4 5342.89 375.94
2 0 4 4083.35 379.75
2 0 4 3670.73 380.8
2 0 4 5635.99 376.57
2 0 -4 5773.97 376.66
-2 0 4 5955.74 376.67
2 0 4 3884.48 380.58
2 0 4 4250.84 379.81
2 -1 -4 9.39 2.79
2 1 4 10.23 2.75
2 1 -4 8.08 2.56
2 -1 4 7.23 2.59
-2 1 4 18.62 3.6
-2 -1 4 9.14 2.81
2 1 4 18.21 3.3
2 -1 4 21.94 3.92
2 -1 4 14.37 2.49
2 1 4 23.78 4.39
2 1 4 13.19 2.81
-2 1 4 8.44 1.88
-2 1 4 10.52 3.06
2 1 4 6.6 2.16
-2 -1 4 9.8 2.82
2 -1 -4 10.01 2.78
2 -1 4 15.65 3.09
-2 1 4 12.16 3.05
2 1 4 27.43 6.66
2 -1 4 24.22 5.89
2 -1 4 18.88 6.71
2 1 4 9.93 2.6
-2 -1 4 7.92 2.62
2 1 4 6.9 5.02
2 1 -4 5.46 2.42
2 -1 4 6.42 5.62
2 1 4 23.9 7.36
2 1 4 6.4 4.37
2 -1 4 27.78 6.62
2 -1 -4 14.79 3.37
2 -1 4 11.33 2.85
2 2 -4 1038.05 73.39
-2 -2 4 1097.17 73.34
-2 2 4 1131.05 73.23
2 -2 4 994.88 72.84
2 -2 4 1092.09 73.82
-2 2 -4 1155.87 73.76
-2 2 4 986.47 71.98
2 2 4 1001 72.51
2 -2 4 984.59 72.91
2 2 4 1006.16 73.18
2 2 4 946.3 72.07
-2 -2 4 1077.26 73.53
2 -2 -4 1030.78 73.18
2 2 4 1154.43 74.76
2 -2 4 997.4 71.91
-2 -2 4 1101.63 73
2 2 4 1004.73 72.73
2 -2 4 1151.43 80.38
-2 -2 4 980.64 71.78
2 -2 4 1004.16 73.11
2 -2 -4 1089.86 73.55
2 2 4 1174.8 78.21
2 2 -4 1004.67 72.9
-2 -2 -4 1007.91 73.07
2 2 4 1041.33 77.2
2 -2 4 1167.24 79.9
-2 2 4 991.7 72.85
2 3 -4 0.57 1.31
-2 3 -4 0.56 1.53
2 -3 4 1.86 1.62
-2 3 4 -0.47 1.79
2 3 4 -0.52 1.29
2 -3 4 0.45 1.25
2 3 4 1.73 1.34
2 3 4 2.24 2.15
-2 -3 4 1.57 1.76
2 3 4 0.34 0.88
2 -3 -4 -2.07 1.56
-2 -3 4 0.54 1.42
-2 3 4 1 1
2 -3 4 0.98 0.97
2 -3 4 0.48 1.1
2 -3 -4 1.11 1.52
-2 -3 4 0.87 1.42
2 3 4 2.38 2.92
2 -3 4 -1.58 3.63
2 3 4 0.44 1.26
-2 -3 4 -0.25 0.93
-2 -3 -4 0.49 1.41
2 3 4 1.61 0.96
2 -3 4 4.48 4.1
-2 3 4 0.46 1.48
2 -3 4 1.81 2.35
2 3 4 -1.19 2.93
2 -3 4 0.51 1.4
-2 4 4 47.03 5.45
2 -4 4 42.65 5.34
2 4 -4 38.15 5.33
-2 4 -4 61.6 6.37
2 -4 4 49.96 5.48
2 -4 4 60.56 9.44
2 4 4 49.36 8.75
-2 4 4 38.55 4.7
2 4 4 31.91 4.34
2 -4 4 39.39 5.98
2 4 4 43.11 5.46
-2 4 -4 53.49 5.84
2 4 4 44.72 6.27
-2 -4 4 37.91 5.21
-2 -4 4 52.2 5.79
2 -4 -4 39.57 5.4
2 4 4 50.63 4.93
2 -4 4 41.83 4.09
2 4 4 38.71 5.01
2 -4 -4 38.24 5.3
2 -4 4 58.51 8.89
-2 -4 4 43.35 4.34
2 4 4 46.32 8.9
2 -4 4 58.77 9.73
2 -4 4 54.24 5.95
-2 -4 -4 53.31 5.53
2 4 4 55.9 8.3
-2 -4 4 53.36 5.56
2 -4 4 52.87 8.09
-2 4 4 38.74 5.04
2 4 4 44.13 4.05
2 4 4 59.84 8.49
2 -4 4 35.93 6.39
-2 5 4 39.19 5.06
-2 5 -4 36.05 5.45
2 5 -4 37.55 3.46
2 -5 4 38.83 5.09
2 5 -4 41.65 5.65
2 -5 4 38.52 4.84
2 -5 4 48.44 8.66
2 5 4 36.66 7.75
2 5 4 32.58 3.89
2 -5 4 42.74 6.17
-2 5 -4 42.83 5.2
-2 -5 4 41.4 5.4
2 5 4 41.09 6.1
2 -5 -4 30.95 4.87
-2 -5 4 41.08 5.19
2 -5 4 37.5 3.53
2 5 4 43.97 4.58
2 5 4 33.56 6.65
2 5 4 47.59 8.5
2 -5 4 57.7 9.34
-2 -5 4 45.73 5.18
-2 -5 -4 39.35 5.04
2 -5 -4 39.17 5.35
-2 5 -4 37.05 5.92
2 5 4 44.89 5.2
2 -5 4 43.49 5.84
2 -5 4 76.11 9.4
2 5 4 35.72 3.38
2 -5 4 43.16 7.33
2 -5 4 36.43 5.26
2 -5 4 47.02 6.96
2 5 4 41.29 7.29
-2 5 4 46.91 5.12
-2 6 4 4.39 2.06
2 -6 4 5.61 2.53
-2 6 -4 3.41 1.74
-2 6 -4 2.87 2.18
2 6 -4 2.7 2.06
2 -6 4 6.08 2.18
2 6 4 5.22 1.22
2 -6 4 2.66 3.29
2 6 4 7.84 4.55
2 6 -4 3.4 1.05
2 6 4 5.17 2.5
2 6 4 4.56 1.67
-2 -6 4 3.9 1.87
2 -6 -4 5.75 2.2
-2 -6 -4 9.17 1.87
2 -6 4 7.45 2.19
2 -6 4 3.39 0.76
2 -6 -4 5.15 2.26
2 6 4 9.25 3.69
2 -6 4 6.6 3.32
2 6 4 12.8 4.95
2 -6 4 2.75 3.97
-2 6 -4 7.51 2.83
2 -6 4 10.97 3.05
-2 -6 -4 4.37 2.04
-2 6 4 6.44 1.98
-2 -6 4 3.3 1.72
2 -6 4 10.28 4
2 6 4 10.67 4.05
-2 7 -4 0.58 1.43
2 7 4 0.15 0.44
2 -7 4 3.42 2.46
-2 7 4 0.63 1.54
-2 7 -4 -1.59 2.19
2 7 -4 0.71 1.76
2 7 4 0.75 0.6
2 -7 4 1.28 3.15
2 7 4 -5.03 3.78
-2 7 4 0.5 1.61
-2 -7 4 -0.49 1.36
2 -7 -4 -0.6 1.46
-2 -7 -4 -0.7 1.21
2 7 4 0.9 2.36
-2 7 -4 1.69 2.54
2 7 4 -0.98 2.68
2 -7 4 -3.14 2.87
2 7 4 -1.36 3.34
2 -7 -4 -0.68 1.87
2 -7 4 -1.31 2.78
-2 7 4 -0.46 1.33
2 -7 4 0.98 2.81
2 -7 4 2.12 2.6
2 7 4 -1.02 2.52
-2 -7 -4 -1.13 2.15
-2 -7 4 0.48 1.45
2 8 -4 2202.6 145.12
-2 8 4 1952.27 144.13
2 -8 4 1850.43 145.25
-2 8 4 1841.74 143.36
-2 8 -4 2022.56 144.08
-2 -8 4 2120.41 143.61
-2 8 -4 2091.9 143.65
2 8 4 2206.07 146.49
-2 -8 -4 2030.82 142.74
2 -8 -4 2019.78 144.21
2 8 4 2131.32 148.38
2 -8 4 2216.72 148.23
-2 -8 -4 2002.32 143.97
2 8 4 2112.3 146.12
-2 -8 4 1999.41 143.53
2 -8 4 2218.19 146.75
-2 8 -4 2114.21 145.75
2 -8 -4 1982.05 144.78
2 -8 4 2197.1 147.99
-2 8 4 2149.92 143.49
2 8 4 2347.12 147.04
2 -8 4 2158.09 146.24
2 8 4 2101.43 142.58
2 -8 4 1776.76 146.13
2 8 4 2183.3 147.88
-2 9 4 9.93 3.03
-2 9 -4 8.33 2.67
2 9 -4 18.99 4.07
2 -9 4 12.99 4.65
2 9 4 21.02 5.79
2 -9 4 14.41 4.21
2 9 4 14.21 4.3
2 -9 -4 7.2 2.89
-2 -9 -4 12.7 2.63
-2 -9 4 14.31 3.08
-2 9 -4 7.47 2.81
2 9 -4 16 2.8
-2 9 -4 10.14 3.75
2 -9 4 15.32 4.31
2 -9 4 9.54 4.34
2 9 4 16.24 5.03
2 -9 -4 14.09 3.55
-2 -9 -4 10.54 3.05
2 9 4 11.74 3.84
2 9 4 18.65 4.5
-2 9 4 10.16 2.5
2 9 4 7.36 1.87
2 -9 4 13.54 5.06
-2 -9 4 13.86 3.15
2 -9 4 11.67 3.74
2 10 -4 3365.1 196.24
-2 10 4 3230.78 194.79
-2 10 -4 3126.65 193.93
-2 -10 4 3096.49 194.12
-2 10 -4 3085.74 194.89
-2 -10 4 3249.99 193.73
2 -10 4 2756.41 191.59
-2 -10 -4 3204.46 193.15
-2 -10 -4 3135.61 194.73
2 10 4 3184.49 198.01
2 10 4 3104.13 195.87
2 -10 4 3315.75 197.96
2 -10 4 3250.53 196.42
2 10 -4 2992.14 192.95
2 -10 -4 3137.84 195.9
-2 10 -4 3409.01 197.06
-2 -10 4 3200.04 194.06
2 10 4 3319.18 196.36
2 -10 4 3163.39 195.94
2 10 4 3058.79 197.48
2 -10 4 2596.61 196.36
2 10 4 2091.38 190.76
-2 10 4 3174.82 193.58
2 -10 4 3352.72 198.12
2 11 4 -1.13 3.79
-2 -11 4 0.64 1.75
-2 11 -4 0.75 2.06
2 11 -4 -0.99 2.43
2 -11 4 1.13 2.77
-2 11 4 2.85 1.95
2 -11 4 0.28 0.72
-2 -11 4 -0.52 1.76
-2 11 -4 -0.6 1.8
-2 11 -4 -2.11 3.04
2 11 -4 -0.48 1.5
2 11 4 1.69 2.74
2 -11 -4 -1.83 2.39
2 -11 4 -1.77 2.55
2 -11 4 1.09 2.5
2 11 4 -1.14 3.13
-2 -11 -4 -1.46 2
-2 11 4 -0.51 1.67
2 11 4 0.86 2.91
2 -11 4 0.84 2.52
-2 -11 4 0.59 1.76
-2 12 -4 891.92 64.33
-2 12 -4 878.34 65.24
-2 12 4 992.12 65.41
2 12 -4 1002.95 67.39
-2 -12 4 916.36 64.63
-2 -12 4 878.05 63.61
-2 -12 -4 952.6 63.85
2 12 4 975.74 66.4
2 -12 4 833.92 66.23
2 12 4 808.93 66.28
-2 -12 -4 900.53 65.18
2 -12 -4 939.85 66.66
2 12 -4 845.59 63.58
2 -12 4 896.85 65.61
2 12 4 866.25 65.28
-2 12 -4 961.06 67.56
2 -12 4 813.47 66.49
2 12 4 870.9 65.34
2 -12 4 824.34 64.95
2 12 4 788.45 66.28
-2 13 -4 3.52 2.53
2 13 -4 1.17 2.48
-2 13 4 -0.82 2.01
2 -13 4 1.05 2.73
2 13 4 -1.08 2.95
2 13 4 0.95 2.34
-2 -13 -4 -2.81 2.58
-2 13 -4 -0.69 1.79
2 13 4 -1.15 2.99
-2 -13 4 1.02 1.6
2 -13 -4 -1.1 2.13
2 13 4 -1.6 2.6
-2 -13 -4 0.85 2.45
2 -13 4 2.49 2.89
2 -13 4 -0.99 2.58
2 13 4 2.06 2.97
2 13 -4 -2.44 1.98
2 -13 4 2.36 2.55
2 -13 -4 0.69 1.79
2 13 4 0.79 2.75
-2 14 -4 2.37 2.94
-2 14 -4 4.78 2.91
-2 14 4 6.82 2.99
2 -14 4 7.21 3.71
2 14 -4 8.86 3.67
2 14 4 13.77 4.53
-2 -14 4 6.29 2.49
-2 -14 -4 4.87 2.41
2 14 4 19.15 4.81
2 14 4 7.1 3.17
2 -14 -4 11.92 4.29
2 -14 4 8.92 3.4
2 -14 4 7.59 3.32
2 14 4 2.95 2.87
-2 -14 -4 9.2 3.6
2 14 -4 2.75 1.85
2 14 4 6.08 3.19
2 -14 4 6.11 3
2 -14 4 7.49 3.62
2 -14 -4 11.51 3.22
-2 15 -4 16.87 4.87
-2 15 -4 14.54 4.31
2 15 -4 8.2 4.36
-2 15 4 9.81 3.65
2 -15 4 8.12 3.93
2 15 4 6.28 3.84
2 15 -4 7.99 4.05
-2 -15 4 10.75 3
2 15 4 21.82 5.25
-2 -15 -4 12.6 3.51
2 15 -4 17.51 4.38
2 -15 4 10.37 3.88
-2 -15 -4 15.94 4.14
2 15 -4 15.26 3.84
2 15 4 17.77 4.22
2 -15 4 21.31 5.05
2 -15 -4 8.35 2.92
-2 16 -4 17.14 5.23
2 -16 -4 15.88 4.97
-2 16 4 22.27 4.9
-2 16 -4 16.89 4.93
2 16 -4 24.94 6.22
2 16 -4 14.44 4.63
2 16 4 17.09 4.6
2 -16 -4 19.03 4.66
2 16 -4 15 4.17
2 16 -4 13.43 4.03
-2 -16 -4 22.64 5.26
2 -16 -4 15.15 4.03
2 -16 4 17.9 4.81
-2 17 4 2.09 2.72
-2 17 -4 -4.96 4.17
-2 17 -4 1.22 2.8
2 17 -4 1.58 3.06
2 17 -4 1.84 2.76
2 -17 -4 -1.05 3.14
2 17 4 1.06 2.61
2 17 -4 1.44 2.34
2 -17 -4 -0.79 2.48
-2 -17 -4 3.49 3.2
2 17 -4 -1.85 2.4
2 -17 4 -1.05 2.42
2 -17 -4 -0.85 2.33
-2 18 -4 1043.18 69.52
2 18 -4 796.33 69.45
-2 18 -4 1033.85 69.22
-2 18 4 1119.74 68.7
2 18 4 1020.69 67.65
2 18 4 936.83 67.31
-2 18 4 1059.67 65.88
2 18 -4 927.39 67.07
2 -18 -4 718.38 64.66
-2 -18 -4 1021.98 69.05
2 -18 -4 745.51 65.9
2 18 -4 741.05 65.19
2 -18 -4 763.56 65.45
2 -18 4 1067.24 68.05
-2 19 4 7.13 4.14
-2 19 -4 1.28 4.6
-2 19 -4 8.44 4.42
2 19 -4 5.34 4.65
2 19 -4 2.05 2.54
-2 19 4 6.65 3.16
2 19 4 11.62 4.12
2 19 4 14.5 4.14
2 -19 -4 1.95 2.42
-2 -19 -4 1.34 3.51
2 19 -4 7.65 4.15
2 -19 4 4.24 3.46
2 -19 -4 8.35 3.8
-2 20 -4 743.87 58.64
2 20 -4 629.12 58.69
-2 20 4 859.51 58.46
-2 20 -4 883.12 58.56
2 20 4 824.36 56.66
2 20 4 841.55 56.7
-2 20 4 768.45 54.69
-2 20 -4 547.58 58.48
-2 -20 -4 721.14 58.12
2 20 -4 467.7 54.6
2 -20 -4 734.43 55.29
-2 -20 4 752.21 55.72
2 -20 4 899.65 57.3
-2 21 -4 -2.63 4.42
-2 21 4 -1.43 3.72
-2 21 -4 -1.61 5.03
2 21 -4 -1.79 4.11
-2 21 4 2.44 2.65
-2 -21 -4 -1.52 4.95
2 21 -4 1.21 3.33
-2 21 -4 1.99 4.24
2 -21 -4 0.89 2.56
-2 -21 4 1.95 3.16
2 -21 4 -1.06 3.06
2 22 -4 181.21 20.63
-2 22 -4 119.1 17.7
-2 22 4 183.69 19.2
2 22 4 207.52 18.37
-2 22 4 158.07 15.5
2 22 -4 143.15 17.23
-2 22 -4 206.56 22.02
-2 -22 -4 147.72 18.41
2 -22 -4 194.54 16.98
-2 -22 4 185.99 17.02
2 -22 4 189.4 17.78
-2 23 -4 -3.25 4.47
2 23 -4 7.2 5.18
-2 23 4 -1.36 3.91
-2 -23 -4 3.11 4.48
2 23 -4 1.23 3.39
-2 23 -4 5.95 5.96
2 -23 -4 -0.84 2.83
-2 24 -4 81.4 12.6
-2 24 4 69.03 10.73
2 24 -4 85.78 11.45
-2 -24 -4 97.56 13.59
-2 25 4 17.12 5.22
-2 -25 -4 1.54 3.82
2 0 -5 -0.61 1.5
2 0 5 -0.57 1.49
-2 0 5 0.6 1.48
2 0 5 -0.5 1.44
2 0 5 1.9 4.66
2 0 5 -0.47 1.22
2 0 5 -1.48 3.4
2 0 5 2.04 5.02
-2 0 5 2.77 1.8
2 0 5 -0.56 1.28
2 0 5 1.5 2.91
2 0 -5 0.61 1.39
2 -1 -5 5.16 2
2 1 -5 4.49 2.24
2 -1 5 3.32 1.68
-2 1 5 5.42 2.52
-2 -1 5 3.03 1.91
2 1 5 2.87 1.63
2 -1 5 4.77 2.07
2 1 5 -1.82 3.89
2 1 5 2.38 1.57
2 -1 5 1.83 3.9
-2 -1 5 4.05 2.04
2 1 5 3.99 1.46
2 -1 5 3.56 1.67
2 -1 5 3.14 1.59
-2 1 5 1.51 1.13
2 -1 5 2.93 3.83
-2 -1 5 2.34 1.42
-2 -1 5 2.76 1.74
2 1 5 7.12 4.29
2 1 5 6.41 2.19
-2 1 5 6.15 2.13
2 1 5 1.97 4.53
2 -1 5 1.96 3.82
2 -1 5 0.58 1.54
2 1 5 7.29 4.01
2 -1 5 8.62 4.67
2 -1 -5 6.35 2.22
2 1 -5 2.92 1.7
-2 2 5 201.45 15.96
2 -2 5 185.36 15.23
2 -2 5 190.71 15.64
2 2 5 192.14 15.86
-2 2 5 163.51 13.96
-2 -2 5 191.85 16
2 2 5 199.1 15.18
2 -2 5 192.85 15.7
2 2 -5 185.84 15.98
2 -2 5 172.83 14.34
2 2 5 175.86 14.84
2 -2 -5 191.07 15.79
-2 -2 5 188.84 16.12
-2 -2 5 204.07 15.73
2 2 5 172.75 15.29
-2 -2 5 165.6 14.44
2 -2 -5 189.82 16.05
2 2 5 167.6 18.76
2 -2 5 168.77 15.47
2 -2 5 179.56 16.16
-2 2 5 199.36 15.84
2 2 -5 200.64 15.89
2 -2 5 182.76 21.51
-2 -2 -5 188.83 15.92
-2 2 5 184.4 15.28
2 -2 5 180.47 20.88
2 2 5 217.89 20.3
-2 3 5 70.41 7.15
-2 3 5 89.49 8.81
2 -3 5 75.36 8.32
-2 -3 5 81.54 8.66
-2 3 -5 84.61 9.03
2 -3 5 64.49 7.73
2 3 5 91.01 7.99
2 3 -5 83.85 8.94
2 -3 5 91.09 8.87
2 -3 5 76.85 12.23
2 3 5 88.68 8.87
2 3 5 80.61 7.83
-2 -3 5 72.15 8.49
2 -3 -5 83.4 8.6
-2 -3 5 78.76 8.57
2 -3 5 82.79 7.12
2 3 5 73.86 8.16
-2 -3 5 93.35 8.67
-2 -3 5 70.25 7.3
2 -3 -5 86.72 8.93
2 -3 5 86.79 13.09
2 -3 5 101.77 9.18
2 -3 5 95.87 9.5
2 3 5 106.11 12.45
-2 -3 -5 78.23 8.41
-2 3 5 83.7 8.21
2 3 5 94.9 12.08
-2 4 -5 1.39 1.9
2 4 5 0.65 1.49
2 4 -5 -0.72 1.77
-2 4 5 0.58 1.6
2 -4 5 0.56 1.61
2 4 5 0.8 1.1
2 -4 5 2.6 2.03
2 -4 5 4.97 5.38
2 4 5 -1.63 4
2 4 5 1.79 1.23
-2 -4 5 0.68 1.56
2 -4 -5 -0.62 1.52
2 -4 5 1.03 1.34
-2 -4 5 2.35 1.97
2 -4 5 0.47 0.87
-2 -4 5 -0.35 1.15
2 4 5 -1.26 3.79
2 -4 5 -1.32 3.8
2 4 5 -1.77 4.07
2 -4 5 8.7 5.65
2 4 5 1.09 1.42
2 -4 5 -0.74 1.81
2 4 5 0.44 0.81
-2 4 5 1.99 1.62
2 -4 5 1.89 1.73
2 4 5 -1.32 3.23
2 -4 5 10.25 4.45
-2 -4 5 -1.65 1.79
2 -4 -5 3.51 2.11
-2 -4 -5 0.63 1.44
2 5 5 3.92 2.41
-2 5 -5 2.08 2
-2 5 5 -1.17 1.77
2 5 -5 0.75 1.6
2 5 5 0.37 1.22
2 -5 5 -1.15 1.73
2 -5 5 3.19 4.16
2 -5 5 -0.69 1.71
2 5 5 1.58 3.37
2 5 5 1.35 1.17
2 5 5 1.7 2.22
-2 -5 5 -0.57 1.58
2 -5 5 -0.52 1.12
2 -5 -5 0.63 1.54
-2 -5 5 -0.7 1.49
2 -5 5 -0.2 0.81
2 5 5 1.71 3.92
2 5 5 -2.43 3.65
2 -5 5 2.55 3.67
2 5 5 -0.55 1.44
2 -5 5 1.67 3.55
2 -5 -5 -1.42 1.75
-2 -5 5 0.7 1.13
2 -5 5 -0.73 1.56
2 5 5 -0.16 0.79
-2 5 5 0.99 1.61
2 -5 5 -1.95 1.87
2 5 5 1.27 3.48
2 -5 5 -2.46 3.37
-2 -5 5 0.56 1.47
-2 -5 -5 -0.64 1.47
2 6 -5 99.01 10.1
2 -6 5 93.69 9.52
2 6 5 85.33 12.8
2 -6 5 81.9 9.65
2 6 5 100.45 8.35
2 -6 5 106.92 13.85
2 -6 5 84.81 8.93
-2 6 -5 97.43 9.72
2 6 5 78.32 9.23
-2 6 5 98.53 9.45
-2 -6 5 94.63 9.84
2 6 5 114.28 11.05
-2 -6 5 83.79 8.88
2 -6 5 77.07 6.83
2 -6 -5 77.7 9.04
2 6 5 104.16 8.87
2 -6 -5 93.3 9.85
2 -6 5 103.86 10.48
-2 -6 5 96.29 9.35
2 6 5 117.23 14.29
2 -6 5 80.37 12.28
-2 -6 -5 91.67 9.42
2 6 5 95.04 11.66
2 -6 5 105.8 12.51
2 -6 5 92.96 9.87
2 -6 5 92.12 11.19
-2 6 5 83.82 8.58
2 -6 5 97.66 11.85
2 6 5 115.79 12.75
-2 7 -5 85.22 9.66
-2 7 5 89.71 9.38
2 7 5 86.44 8.08
2 7 5 78.92 12.26
2 -7 5 84.11 10.18
2 7 -5 91.54 10.29
-2 -7 5 85.36 8.95
2 7 5 93.09 10.74
2 -7 -5 86.62 9.46
2 7 5 105.24 9.12
2 -7 -5 89.74 9.99
2 -7 5 101.37 12.16
-2 -7 -5 94.72 9.75
2 7 5 99.31 13.46
2 -7 5 117.9 14.19
-2 -7 5 82.25 9.19
2 7 5 98.32 11.78
-2 7 -5 110.19 11.39
2 -7 5 89.96 10.03
2 7 5 116.11 12.8
2 -7 5 116.48 14.1
2 -7 5 109.97 12.4
-2 7 5 94.81 8.98
2 -7 5 88.34 11.28
-2 8 -5 594.55 44.71
2 8 -5 578.05 45.31
-2 8 5 590.17 44.15
2 8 5 549.23 42.06
2 -8 5 566.23 45.37
-2 -8 -5 590 43.22
2 8 5 630.03 46.38
-2 -8 5 605.12 43.71
2 8 5 673.42 49.84
-2 -8 -5 639.57 44.94
-2 -8 5 610.97 44.13
2 -8 5 606.82 47.03
2 8 5 599.87 46.77
2 -8 5 614.77 48.91
-2 8 -5 612.99 46.44
2 -8 -5 570.37 45.08
-2 8 5 571.82 43.33
2 -8 5 668.17 49.68
2 8 5 626.43 48.98
2 -8 5 658.44 47.38
2 -8 5 601.24 47.16
2 8 5 646.11 47.41
-2 9 5 2.49 1.95
-2 9 -5 0.75 1.85
2 9 5 1.06 0.98
2 9 -5 -0.92 2.65
-2 9 5 2.18 2.1
2 9 5 1.39 3.41
2 9 5 0.36 0.72
2 -9 5 -2.8 4.04
-2 -9 5 0.54 1.61
-2 -9 -5 3.76 1.78
2 9 5 1.02 2.18
-2 9 -5 -1.06 2.26
2 -9 -5 -0.87 1.85
2 -9 5 2.21 3.04
2 9 5 2.93 3.37
2 -9 5 4.23 3.87
2 9 5 4.21 3.3
-2 -9 5 1.82 1.82
2 -9 5 2.11 2.75
-2 9 5 0.99 1.62
2 9 5 -1.1 3.03
2 -9 5 1.19 2.53
-2 -9 -5 -0.75 2.25
2 10 5 5.38 0.88
-2 10 5 6.97 2.78
-2 10 5 3.69 2.34
-2 10 -5 9.52 3.1
2 10 5 5.13 0.95
2 10 -5 0.98 2.43
2 -10 5 4.06 3.92
2 10 5 14.85 5.39
-2 -10 -5 8.8 2.32
-2 -10 5 4.83 2.17
2 10 5 5.36 3.25
2 -10 5 1.06 2.95
2 10 5 1.4 3.47
2 -10 5 9.44 4.55
2 10 5 3.05 2.67
2 -10 -5 11.12 3.53
-2 10 5 15.2 3.07
2 -10 5 5.04 3.41
2 -10 5 2.47 3.42
-2 -10 -5 8.51 2.95
2 10 5 6.33 3.68
-2 -10 5 8.1 2.78
-2 11 5 13.61 3.4
-2 11 5 13.83 3.29
-2 11 -5 7.49 2.95
2 11 -5 7.29 3.66
2 -11 5 9.27 4.78
2 11 5 9.31 4.66
-2 -11 -5 11.4 2.69
-2 -11 5 9.56 2.63
-2 11 -5 7.17 2.45
2 -11 5 9.3 3.85
2 11 5 18.87 5.76
2 -11 5 9.04 4.08
2 11 5 6.96 3.71
-2 -11 -5 6.49 2.96
2 -11 -5 8.92 3.6
2 -11 5 8.73 3.52
-2 11 5 5.68 2.18
2 11 5 7.08 1.8
2 11 5 9.04 3.94
-2 -11 5 9.7 2.92
-2 12 -5 16.81 4.36
2 12 5 14.42 5.52
2 12 -5 8.93 3.72
2 -12 5 20.7 5.79
-2 12 5 14.84 3.62
-2 -12 5 16.73 3.38
-2 -12 -5 17.17 3.3
-2 12 -5 14.36 3.36
2 12 5 15.71 4.51
2 -12 5 20.2 5.18
2 12 -5 17.13 3.43
2 12 5 23.44 5.93
2 -12 5 19.95 5.37
2 -12 -5 18.16 4.8
-2 -12 -5 18.02 4.23
2 12 5 7.88 1.32
2 12 5 13.57 4.04
2 -12 5 19.81 4.71
-2 13 -5 16.36 4.37
-2 13 5 27.11 4.74
2 13 -5 25.2 5.75
2 -13 5 22.93 6.57
2 13 5 23.42 6.22
-2 -13 -5 25.6 4.14
-2 -13 5 21.29 3.66
2 -13 5 12.17 2.05
-2 13 -5 21.2 4.07
2 13 5 16.5 5.08
2 -13 5 19.9 5.05
2 13 -5 21.32 3.93
2 -13 5 23.99 5.94
2 13 5 12.53 4.91
2 -13 -5 33.51 6.31
-2 -13 -5 25.04 5.13
2 13 -5 18.65 5.51
2 13 5 29.2 5.69
2 -13 5 19.22 4.87
-2 14 -5 11.42 3.86
2 14 -5 6.48 3.77
-2 14 5 7.07 3.48
2 14 -5 8.6 5.01
2 -14 -5 6.01 4.36
2 14 5 6.7 3.9
-2 -14 5 8.19 2.76
-2 -14 -5 8.31 3.19
2 14 -5 13.15 4.39
2 -14 5 6.85 4.24
2 14 5 13.11 4.66
2 -14 -5 6.82 4.22
2 -14 -5 14.9 4.73
-2 -14 -5 3.99 3.29
2 14 -5 8.39 3.09
2 -14 5 6.86 4.12
2 14 5 6.33 3.38
2 -14 5 6.25 3.95
2 -14 5 9.79 3.98
-2 15 -5 -1.11 2.37
2 15 -5 -2.79 3.21
-2 15 5 1.83 2.87
2 15 -5 -1.33 3.27
2 -15 -5 -5.66 3.25
2 15 5 -1.05 2.73
2 15 5 1.32 2.56
-2 -15 5 2.09 1.76
2 15 -5 -0.75 2.17
2 -15 -5 2.15 3.09
2 15 -5 1.02 3.07
2 -15 -5 -1.34 2.6
2 15 5 2.26 3.11
-2 -15 -5 -2.15 2.64
2 -15 5 -0.86 2.8
2 -15 5 -1.23 3.03
-2 16 -5 535.66 38.83
2 16 -5 558.41 40.73
-2 16 5 564.71 37.61
2 16 5 477.13 38.63
2 16 5 399.3 37.04
2 -16 -5 554.91 40.61
-2 -16 -5 551.19 38.72
2 -16 -5 390.58 36.38
2 16 -5 427.49 36.5
2 16 -5 503.36 36.4
2 16 -5 395.47 37.61
2 -16 -5 404.84 38.18
2 -16 5 371.23 35.74
2 -16 5 483.29 38.31
-2 17 5 44.53 7.41
-2 17 -5 59.17 9.09
2 17 -5 38.41 8.68
2 -17 -5 33.28 7.23
2 17 -5 37.84 7.44
2 17 5 36.82 7.51
-2 17 -5 46.04 9.23
2 -17 -5 43.24 7.04
2 17 -5 42.58 6.72
2 17 -5 33.85 6.52
2 -17 -5 59.85 10.09
-2 -17 -5 35.66 7.23
2 -17 5 40 7.37
-2 18 -5 274.37 24.97
2 18 -5 262.78 26.18
-2 18 5 325.17 24.58
2 18 5 271.37 23.91
-2 -18 -5 264.74 24.46
2 -18 -5 182.56 21.11
-2 18 -5 272.29 26.59
2 18 -5 278.78 22.95
2 -18 -5 228.37 24.93
2 -18 5 302.58 24.47
2 18 -5 201.05 21.88
-2 19 -5 -4.41 4.04
-2 19 5 -3.48 4.5
2 19 -5 1.83 5.5
2 19 -5 -0.93 2.91
-2 19 5 0.84 2.43
2 19 5 2.23 2.74
2 19 5 -1.21 3.15
-2 19 -5 -1.86 4.57
-2 -19 -5 2.79 4.2
2 -19 -5 -7.02 5.05
2 -19 -5 -0.84 3.11
2 19 -5 5.21 3.14
2 -19 5 1.2 3.28
-2 20 -5 129.92 16.42
-2 20 5 165.95 16.43
2 20 -5 79.47 15.42
2 20 5 159.91 15.53
2 20 5 149.02 15.51
-2 20 5 144.48 14.15
-2 20 -5 129.82 17.76
-2 -20 -5 151.17 17.09
2 -20 -5 104.66 16.49
2 20 -5 119.94 14.43
2 -20 5 155.53 15.77
-2 21 5 12.19 5.28
-2 21 -5 1.66 5.01
2 21 -5 1.98 4.58
-2 21 5 5.5 3.32
2 21 5 10.34 4.26
2 21 5 9.34 4.09
2 -21 -5 5.77 4.75
-2 21 -5 4.14 4.79
-2 -21 -5 21.94 6.26
2 21 -5 3.6 3.64
-2 -21 5 10.98 4.29
2 -21 5 15.47 4.87
-2 22 -5 10.5 5.74
2 22 -5 13.78 6.44
-2 22 5 8.81 4.83
2 22 5 10.5 4.13
-2 22 5 17.18 4.53
2 22 5 15.1 4.58
-2 22 -5 12.85 6.22
2 22 -5 5.11 3.77
-2 -22 -5 9.91 5.03
2 -22 -5 13.45 6.92
-2 -22 5 15.77 5.05
2 -22 5 11.94 4.7
-2 23 -5 1.78 5.14
2 23 -5 -1.28 3.69
-2 -23 -5 3.38 4.15
2 -23 5 4.7 3.54
-2 0 6 482.72 33.16
2 0 6 425.75 32.43
2 0 -6 385.88 32.39
2 0 6 449.07 32.15
2 0 6 395.63 31.63
-2 0 6 448.1 32.55
2 0 6 419.5 32.32
2 0 -6 400.11 32.57
-2 0 -6 353.52 38.32
-2 0 -6 397.7 40.55
2 1 -6 10.2 3.26
2 1 6 7.66 2.85
2 -1 6 8.67 2.8
-2 1 6 12.21 3.48
-2 -1 6 24.65 4.41
2 1 6 12.44 3.12
2 -1 6 18.29 3.49
2 -1 6 11.14 2.73
2 1 6 6.8 2.5
2 -1 6 11.65 2.84
-2 1 6 6.52 1.48
-2 -1 6 9.6 2.64
-2 -1 6 11.92 3.11
-2 1 6 7.34 2.86
2 1 6 11.03 3.2
-2 -1 -6 4.44 5.14
-2 1 -6 8.73 5.72
2 -1 6 8.91 3.05
2 1 -6 10.94 3.36
2 -1 -6 12.2 3.44
-2 -1 -6 19.86 7.5
-2 2 6 575.36 37.69
-2 -2 6 567.85 38.02
2 -2 6 461.03 35.99
2 -2 6 474 36.72
2 2 6 490.94 37.07
2 2 6 587.5 36.82
-2 2 6 380.17 34.31
2 -2 6 515.15 36.8
2 2 -6 491.91 37.54
2 2 6 471.06 36.11
-2 -2 6 491.68 37.59
2 -2 6 491.67 36.73
2 2 6 496.16 36.8
-2 -2 -6 484.8 37.28
2 2 -6 504.71 37.32
-2 -2 6 485.23 35.78
2 -2 6 480.81 37.02
2 -2 -6 473.72 37.28
-2 -2 6 535.87 37.12
-2 2 6 539.96 37.25
-2 2 -6 506.05 44.14
2 3 -6 2.5 2.51
-2 3 6 2.78 2.83
2 -3 6 -0.66 2.51
2 3 6 8.73 2.73
-2 -3 6 0.74 2.24
2 -3 6 9.72 3.09
2 3 6 5.12 3.12
-2 3 -6 2.43 2.44
-2 3 6 0.94 1.29
2 3 6 5.07 2.45
-2 -3 6 -0.81 2.24
2 -3 6 2.7 1.94
-2 -3 6 1.41 1.87
2 3 6 6.43 3.49
-2 -3 6 -0.66 2.68
-2 3 6 3.36 1.89
2 -3 6 3.61 2.59
2 -3 -6 0.81 2.01
-2 -3 -6 3.02 3.01
2 -4 6 2662.27 184.91
2 4 -6 2697.88 186.03
-2 4 6 2938.63 185.4
2 -4 6 2703.6 184.3
2 4 6 3279.55 184.89
-2 4 6 2098.47 182.69
2 -4 6 2768.26 185.14
-2 4 -6 2782.4 185.91
2 -4 6 2313.05 182.59
-2 -4 6 2752.79 185.87
-2 -4 6 2947.9 185.27
2 4 6 2738.34 184.39
-2 -4 6 2820.97 185.01
2 -4 -6 2755.04 186.03
-2 -4 6 2830.42 183.91
-2 -4 -6 2696.73 185.43
2 4 6 2801.51 185.01
-2 4 6 2573.31 184.06
2 -5 6 51.16 6.17
-2 5 -6 63.9 7.56
2 -5 6 58.25 7.03
2 5 -6 45.96 6.94
-2 5 6 48.06 6.72
2 -5 6 34.22 6.09
2 5 6 64.57 6.54
-2 -5 6 54.84 6.5
2 -5 6 33.12 4.12
-2 -5 6 46.68 6.95
2 5 6 44.14 5.81
2 5 6 50.35 6.67
-2 -5 6 41.66 5.58
-2 5 6 49.73 5.87
2 5 6 40.84 4.11
-2 -5 6 36.35 6.13
-2 -5 -6 50.98 6.83
2 -5 -6 56.95 7.12
-2 6 6 1351.54 83.91
2 -6 6 1405.79 84.22
-2 6 -6 1414.14 84.95
2 6 6 1594.28 83.03
2 6 -6 1298.98 84.9
2 6 6 1407.99 83.23
-2 -6 6 1397.19 85.06
-2 -6 6 1413.07 83.54
2 6 6 1436.86 85.88
2 -6 6 1104.59 80.34
2 -6 -6 1309.42 84.89
-2 -6 6 1452.89 84.12
-2 -6 -6 1375.08 84.52
2 6 6 1422.02 84.07
-2 6 6 1318.92 82.68
-2 7 -6 0.84 2.19
-2 7 6 -2.09 2.7
2 7 -6 -0.94 2.16
2 7 6 2.58 1.9
2 7 6 0.57 1.86
2 7 6 -0.99 2.29
-2 7 6 -0.81 1.73
-2 -7 6 0.61 1.82
2 -7 6 0.17 0.59
-2 -7 6 -0.86 2.24
2 -7 -6 -0.89 2.04
-2 -7 6 2.07 2.4
-2 7 6 -1.04 1.87
-2 -7 -6 -0.81 2.45
2 8 -6 374.91 31.26
2 8 6 363.18 28.31
-2 8 -6 411 31.13
-2 8 6 393.29 30.31
-2 -8 6 380.76 31.02
2 8 6 409.13 29.78
-2 -8 6 363.38 29.27
2 8 6 416.24 32.26
-2 8 6 373.39 30.72
2 -8 -6 402.2 31.35
-2 -8 6 389.76 30.21
-2 -8 -6 445 31.42
2 -8 6 409.24 33.22
-2 8 6 339.71 28.77
-2 9 -6 10.55 3.47
2 9 6 12.33 2.16
2 9 6 12.34 2.57
2 9 -6 14.14 3.95
-2 9 6 10.28 3.29
-2 9 6 17.44 4.12
-2 -9 6 14.72 3.3
2 9 6 17.48 4.55
-2 -9 -6 23.11 3.69
2 -9 -6 18.28 4.6
-2 9 6 18.56 3.37
2 -9 6 15.41 4.83
-2 -9 -6 12.22 3.68
-2 10 -6 14.56 3.88
2 10 6 12.38 2.4
2 10 -6 10.84 3.98
-2 10 6 18.53 4.17
2 10 6 9.3 1.77
2 10 6 23.89 5.3
-2 -10 6 15.23 3.25
-2 -10 -6 14.99 3.28
2 10 -6 19.79 5.97
2 -10 -6 13.22 3.94
-2 10 6 11.91 2.9
-2 -10 -6 13.57 3.78
2 -10 6 9.28 4.54
-2 11 -6 -0.94 2.16
-2 11 6 -1.62 2.12
2 11 6 3.01 1.37
2 11 -6 5.7 2.97
2 11 -6 5.75 4.99
2 11 6 2.61 1.06
2 -11 -6 3.88 4.46
-2 -11 6 -0.55 1.6
-2 -11 -6 -0.59 1.79
2 -11 -6 11.74 4.77
2 11 -6 1.47 3.6
2 -11 -6 4.32 2.97
-2 11 6 1.05 1.51
-2 -11 -6 2.82 2.58
2 -11 6 2.75 3.77
-2 12 -6 297.13 21.47
2 12 -6 325.98 23.19
-2 12 6 302.29 20.54
-2 -12 -6 305.22 19.42
-2 -12 6 293.97 18.9
2 -12 -6 266.42 21.83
-2 -12 -6 315.95 21.81
2 -12 -6 300.02 24.03
2 12 -6 293.36 23.8
2 12 -6 303.98 26.51
2 -12 -6 303.9 26.86
-2 12 6 280.83 18.66
-2 13 -6 -1.05 2.58
2 13 -6 -1.28 2.49
2 -13 -6 1.77 3.43
2 13 -6 -3.44 4.72
-2 13 6 -0.85 2.44
2 13 -6 1.19 0.71
-2 -13 6 1.1 1.96
2 -13 -6 -1.35 3.3
2 13 -6 5.26 4.43
2 -13 -6 -1.22 2.8
-2 -13 -6 1.02 2.67
-2 14 6 1003.98 55.54
-2 14 -6 991.64 57.04
2 14 -6 1066.15 59.44
2 14 6 877.64 58.07
2 -14 -6 999.15 58.64
-2 -14 -6 996.17 56.99
2 14 -6 886.21 57.36
2 -14 -6 887.22 57.46
-2 14 -6 1155.59 61.09
2 14 -6 923.64 60.07
2 -14 -6 897.34 60.33
2 15 -6 19.94 6.47
-2 15 -6 10.5 4.42
2 15 -6 16.08 5.48
-2 15 6 17.04 4.55
2 -15 -6 6.42 5.5
2 15 6 14.94 5.29
2 -15 -6 16.79 5.66
2 15 -6 17.34 4.24
2 -15 -6 9.78 4.37
2 15 -6 14.38 5.2
-2 15 -6 19.86 6.31
-2 -15 -6 26.14 5.85
2 -15 6 17.25 5.81
-2 16 6 415.61 31.49
-2 16 -6 417.23 33.11
2 16 -6 410.27 34.46
2 16 6 416.01 32.35
2 16 6 322.72 32.81
2 -16 -6 455.87 35.01
-2 -16 -6 404.22 32.73
2 -16 -6 341.28 31.89
2 16 -6 328.04 31.45
-2 16 -6 491.18 36.53
2 16 -6 349.25 30.36
2 -16 -6 359.93 33.92
2 16 -6 294.69 32.25
2 -16 6 386.71 33.67
-2 17 -6 -1.34 3.28
2 17 -6 8.27 5.37
2 -17 -6 -1.47 4.04
2 17 -6 -1.35 3.1
2 17 6 -4.59 3.3
2 17 6 -1.49 3.67
-2 17 -6 1.69 3.27
2 17 -6 -0.92 2.4
2 -17 -6 -2.25 3.09
2 17 -6 -2.15 3.97
2 -17 -6 -1.59 3.66
-2 -17 -6 -1.28 2.72
2 -17 6 1.39 3.41
-2 18 6 61.67 8.7
-2 18 -6 67.97 10.47
2 18 -6 61.42 10.75
2 18 -6 59.11 9.54
2 18 6 37.05 8.37
-2 18 -6 74.78 11.84
2 18 -6 43.57 7.6
2 -18 -6 29.17 7.04
-2 -18 -6 75.42 10.41
2 -18 -6 79.87 11.82
2 -18 6 71.2 10.2
-2 19 6 16.21 5.18
-2 19 -6 12.27 5.21
2 19 -6 9.29 4.89
2 19 6 7.01 3.92
-2 19 -6 13.13 6.14
2 19 -6 10.62 4.19
-2 -19 -6 24.67 6.34
2 -19 -6 16.7 4.77
2 -19 -6 12.65 6.32
2 19 -6 2.33 3.29
2 -19 6 16.28 5.32
-2 20 6 10.81 4.46
-2 20 -6 11.35 4.9
2 20 -6 7.85 5.68
2 20 6 4.1 3.6
-2 20 6 8 3.72
2 20 -6 11.32 4.2
-2 -20 -6 9.18 5.34
2 -20 -6 -1.92 4.43
-2 20 -6 3.96 4.24
2 -20 6 17.15 5.4
-2 21 6 -1.28 3.84
-2 21 -6 1.72 3.34
-2 21 6 -5.07 3.18
2 21 6 -1.33 3.28
-2 21 -6 4.15 5.09
2 21 -6 1.2 3.13
-2 -21 -6 1.62 3.44
2 -21 6 1.32 3.24
-2 22 -6 189.77 21.81
-2 22 6 206.03 20.89
2 22 6 212.67 20.42
-2 -22 -6 190.06 21.54
-2 -22 6 175.24 19.34
2 0 -7 -0.88 2.02
2 0 7 2.87 2.25
2 0 7 0.71 1.73
2 0 7 -0.62 1.61
-2 0 -7 -2.68 4.65
-2 0 -7 -2.93 6.24
2 0 -7 0.88 1.87
2 1 -7 5.48 2.77
2 1 7 8.28 2.96
2 -1 7 6.45 2.74
2 -1 7 2.96 1.95
2 1 7 7.62 2.64
2 -1 7 3.63 2.12
-2 -1 -7 5.24 6.03
-2 -1 7 6.82 2.55
-2 1 -7 5.15 6.33
-2 1 -7 5.63 7.74
-2 -1 -7 5.76 5.6
2 -1 -7 6.3 2.94
2 1 -7 2.66 2.21
2 2 -7 349.39 26.36
2 2 7 397.56 25.75
2 -2 7 362.3 25.36
2 -2 7 350.28 24.28
2 2 7 367.58 25.09
2 -2 7 371.7 25.55
-2 -2 7 336.08 24.29
2 -2 -7 361.96 26.31
-2 2 -7 336.89 33.51
-2 -2 -7 387.95 36.1
2 3 7 48.9 6.11
2 3 -7 40.37 6.48
2 -3 7 33.54 4.95
2 3 7 30.52 5.19
2 -3 7 41.57 6.07
-2 3 7 26.48 3.63
-2 -3 7 37.1 5.17
-2 3 -7 42.85 10.6
-2 -3 -7 32.44 10.5
2 -3 -7 34.72 6.06
-2 -3 -7 40.07 6.31
2 -4 7 270.14 19.58
2 4 7 338.19 21.42
2 4 -7 212.06 20.77
-2 4 7 162.44 17.46
-2 4 -7 256.98 21.32
2 4 7 237.38 19.74
-2 -4 7 266.85 21.64
2 -4 7 238.14 20.5
2 -4 -7 223.23 20.81
-2 -4 7 290.64 19.9
-2 -4 -7 254.31 21
-2 -4 -7 250.31 27.21
-2 4 -7 293.11 28.69
-2 -4 -7 288.82 29.77
-2 5 -7 -0.95 2.46
2 5 -7 -2.05 2.18
2 5 7 0.67 2.27
2 -5 7 -0.3 1.07
-2 5 7 -0.92 2.39
2 5 7 -0.67 2.09
-2 -5 7 -0.96 2.49
2 -5 7 -1.14 1.65
-2 -5 7 -1.67 1.81
2 -5 -7 -0.99 2.57
-2 -5 -7 -0.9 2.34
2 6 -7 76.44 9.33
2 6 7 94.84 8.22
-2 6 -7 90.76 9.63
-2 6 7 66.01 8.44
2 -6 7 50.23 5.24
-2 -6 7 81.5 9.24
2 6 7 73.43 7.93
2 6 -7 78.64 13.16
2 -6 -7 75.6 9.09
-2 -6 7 63.41 7.25
-2 -6 -7 62.17 8.35
2 6 7 48.67 4.89
2 7 -7 48.44 11.3
-2 7 -7 40.22 6.43
2 7 -7 40.71 6.7
2 7 7 40.43 5.48
2 -7 -7 38.56 11.17
2 7 7 46.66 7.35
-2 7 7 41.4 6.19
2 7 7 38.49 5.62
-2 -7 7 52.83 7.31
2 -7 7 24.22 3
2 7 -7 44.67 9.66
2 -7 -7 44.88 9.55
-2 7 7 31.91 4.68
-2 -7 -7 36.54 6.18
2 -7 -7 34.7 6.17
2 -8 -7 14.81 7.12
-2 8 -7 5.95 2.75
2 8 -7 5.47 3.03
2 8 -7 2.45 6.02
2 8 7 9.49 2.97
-2 8 7 1.85 2.16
-2 -8 7 7.96 3.48
2 8 7 10.18 3.69
2 8 -7 9.33 5.39
2 -8 -7 16.87 6.52
-2 8 7 4.35 2.04
2 -8 -7 3.13 2.59
-2 -8 -7 5.77 2.92
-2 9 -7 1.01 1.96
2 9 -7 1.13 2.61
2 9 -7 4.66 4.96
2 -9 -7 -2.36 4.58
2 9 7 0.71 2.03
-2 9 7 3.83 2.63
2 9 7 1.19 2.31
-2 -9 7 -1.02 2.17
2 -9 -7 3.59 3.82
2 9 -7 1.78 3.78
-2 9 7 1.61 1.86
-2 -9 -7 0.99 2.11
2 -9 7 -2.79 3.63
2 -9 -7 -1.07 1.85
2 10 7 52.08 5.27
-2 10 -7 61.92 8.44
2 10 -7 51.88 8.49
-2 10 7 52.92 7.48
2 -10 -7 51.52 11.1
2 10 -7 61.98 11.95
-2 10 7 54.24 7.91
-2 -10 7 52.64 8.08
2 10 7 58.01 8.95
2 -10 -7 61.51 10.81
2 10 -7 54.14 10.2
2 -10 -7 51.08 8.26
-2 -10 -7 58.71 8.19
2 -10 7 41.43 8.66
2 11 -7 12.22 4.41
2 -11 -7 6.42 5.6
-2 11 -7 6.43 3.4
2 11 -7 -2.11 4.88
-2 11 7 6.13 3.36
2 11 7 8.96 4.34
-2 -11 7 9.82 3.95
2 -11 -7 9.78 5.13
2 11 -7 14.56 5.98
2 -11 -7 5.74 3.5
-2 -11 -7 8.54 3.39
2 -11 7 14.79 5.47
2 12 -7 862.21 64.47
-2 12 7 866.7 62.35
-2 12 -7 894.1 63.82
2 -12 -7 858.05 64.11
-2 -12 -7 872.78 63.71
2 -12 -7 852.02 66.11
2 12 -7 852.12 66.01
2 -12 -7 740.23 67.57
2 12 -7 786.3 67.76
2 -12 7 748.34 64.92
-2 13 7 14.99 4.12
-2 13 -7 6.96 3.71
2 13 -7 20.21 5.78
2 -13 -7 7.84 5.16
2 13 -7 9.58 5.81
-2 13 -7 8.92 4.72
2 -13 -7 11.95 5.08
2 13 -7 10.39 5.37
2 -13 -7 12.88 4.4
-2 -13 -7 10.37 4.07
-2 14 -7 154.25 14.61
-2 14 7 100.85 11.47
2 14 -7 92.62 12.95
2 14 -7 87.74 14.39
2 -14 -7 90.84 14.44
2 -14 -7 87.87 12.77
-2 14 -7 110.98 14.41
2 -14 -7 98.53 13.33
2 14 -7 95.6 13.12
-2 -14 -7 122.6 13.46
-2 15 -7 1.27 2.71
2 15 -7 1.54 2.99
2 -15 -7 3.67 4.51
-2 15 7 -0.95 2.73
2 15 -7 -5.3 5.32
2 15 7 1.58 4.34
2 -15 -7 -1.46 3.58
-2 15 -7 3.29 4.28
2 -15 -7 1.39 4.18
2 15 -7 1.37 3.14
-2 -15 -7 -2.53 3.29
-2 16 -7 18.93 5.79
2 16 -7 17.96 5.71
-2 16 7 8.02 3.65
2 16 -7 6.61 5.21
2 -16 -7 1.75 4.85
2 16 7 3.31 4.37
-2 16 -7 12.1 5.85
2 -16 -7 13.49 5.15
2 16 -7 6.59 4.33
2 -16 -7 12.49 4.74
-2 -16 -7 21.13 5.66
2 -16 7 6.36 5.02
2 -17 -7 11.69 6.72
-2 17 -7 25.68 6.51
2 17 -7 17.24 6.25
-2 17 7 22.53 5.2
2 17 -7 3.13 6.73
2 17 7 9.87 5
2 17 7 8.44 4.96
2 -17 -7 1.3 6.16
-2 17 -7 16.4 6
2 -17 -7 24.85 6.51
2 -17 7 24.9 6.83
-2 -17 -7 22.23 6.23
-2 18 -7 6.05 4.16
-2 18 7 1.05 3.03
2 18 -7 1.82 4.18
2 18 -7 5.95 4.47
2 18 7 11.14 4.3
2 18 7 6.63 4.77
-2 18 -7 -1.92 4.07
2 -18 -7 -2.52 4.1
2 -18 -7 1.75 3.4
-2 -18 -7 1.45 3.09
2 -18 7 -1.53 3.98
-2 19 7 -1.1 2.88
-2 19 -7 -3.18 3.91
2 19 -7 5.76 5.53
2 19 7 -9.92 7.54
2 19 7 -1.61 4.43
-2 19 -7 -2.01 4.27
2 -19 -7 3.71 4.26
-2 -19 -7 1.52 3.5
2 -19 7 -1.5 3.44
-2 20 -7 271.24 27.04
-2 20 7 269.55 25.29
-2 20 7 276.36 24.45
-2 -20 -7 253.92 26.52
-2 21 7 12.41 4.87
-2 -22 7 380.21 33.35
2 0 8 2077.83 146.04
2 0 8 2210.58 147.41
2 0 -8 2372.53 149.16
2 0 -8 1670.61 154.71
-2 0 8 2261.35 146.96
-2 0 -8 1971.76 158.41
2 0 -8 1404.73 156.01
-2 0 -8 1844.35 158.73
2 1 -8 10.54 4.12
2 -1 -8 10.88 10.01
2 1 8 12.4 3.93
2 -1 8 22.18 4.96
2 1 8 10.13 3.32
2 -1 8 27.9 4.55
2 1 -8 24.23 9.41
-2 -1 8 12.09 3.74
2 -1 -8 33.12 10.22
-2 -1 -8 9.13 7.06
-2 1 -8 17.94 9.05
-2 1 -8 16.3 9.86
-2 -1 -8 13.32 8.73
2 -1 -8 14.51 4.7
2 -2 8 526.24 40.67
2 2 -8 543.92 43.24
2 2 8 622.03 42.64
2 2 8 548.9 42.05
2 -2 8 526.01 42.07
2 -2 -8 575.54 43.46
2 2 -8 533.48 50.33
-2 -2 8 513.86 41.14
-2 2 -8 642.42 53.75
2 -2 -8 487.44 53.21
-2 -2 -8 651.15 55.58
2 3 -8 1.13 2.19
2 3 8 -0.8 2.31
2 -3 -8 6.68 7.1
2 -3 8 0.59 2.04
2 3 8 -4 2.2
2 -3 8 1.81 2.61
2 3 -8 -2.49 6.49
-2 3 -8 2.77 4.81
-2 -3 8 0.69 2.16
-2 -3 -8 6.19 6
2 -3 -8 2.15 2.28
2 4 -8 103.86 18.41
2 -4 -8 105.51 18.87
2 -4 8 87.87 9.69
2 4 -8 99.01 12.27
-2 4 8 108.72 11.93
2 -4 8 86.19 10.91
2 4 8 108.77 11.12
-2 -4 -8 116.45 18.15
2 4 -8 114.9 17.14
-2 -4 -8 98.6 11.8
-2 4 -8 95.09 16.71
2 -4 -8 94.58 11.69
-2 -4 8 111.19 10.74
2 -4 -8 121.67 17.51
-2 4 -8 135.14 20.14
-2 -4 -8 102.69 18.34
2 -5 -8 21.39 9.45
2 5 -8 36.2 11.92
-2 5 -8 34.23 6.34
2 5 -8 38.64 6.79
2 -5 8 25.24 3.7
-2 5 8 32.28 6.26
2 5 8 36.36 5.73
-2 -5 8 41.74 7.03
2 -5 8 36.93 6.3
2 -5 -8 46.57 11.11
2 5 -8 29.83 8.73
-2 -5 -8 25.83 9.24
2 -5 -8 40.65 6.83
-2 -5 -8 30.43 6.1
-2 6 -8 16.23 4.63
2 6 -8 11.89 4.51
2 6 -8 8.67 7.18
2 -6 -8 11.71 8.11
-2 6 8 9.34 3.65
2 6 8 21.59 4.37
-2 -6 8 12.05 4.28
2 -6 8 16.18 4.35
2 -6 8 18.62 2.53
2 -6 -8 31.16 8.71
2 6 -8 28.61 8.61
2 -6 -8 22.5 5.28
-2 -6 -8 10.53 3.81
-2 7 -8 -1.09 2.69
2 -7 -8 -2.8 6.42
2 7 -8 1.2 2.77
2 7 -8 2.76 6.79
-2 7 8 -1.04 2.2
2 7 8 0.78 1.78
-2 -7 8 1.1 2.7
2 -7 -8 4.26 5.23
2 7 -8 4.21 5.17
2 -7 -8 1.15 2.23
-2 -7 -8 -4.27 3.21
-2 8 -8 903.52 70.19
2 8 -8 947.04 70.98
-2 -8 8 919.87 70.29
-2 8 8 922.8 69.87
2 8 8 977.74 71.18
2 8 8 977.53 68.83
2 -8 -8 943.99 70.81
-2 -8 -8 969.67 70.4
2 -8 -8 999.92 75.94
2 8 -8 917.11 75.02
2 8 -8 910.61 78.3
2 -8 -8 858.78 77.61
-2 9 -8 13.76 4.51
2 9 -8 20.27 5.33
2 9 -8 17.73 9.36
2 -9 -8 12.79 7.4
2 9 8 7.17 3.92
-2 9 8 8.47 3.39
-2 -9 8 6.79 3.34
2 9 8 20.51 5.5
2 -9 -8 17.51 7
2 9 -8 5.81 5.63
2 -9 -8 8.41 3.97
-2 -9 -8 12.23 4.78
2 10 -8 1435.9 100.38
-2 10 8 1374.25 98.05
-2 10 -8 1323.54 99.16
-2 -10 8 1356.45 99.4
2 10 8 1351.41 100.22
-2 10 8 1369 99.07
2 -10 -8 1371.73 99.79
2 10 -8 1250.53 102.35
-2 -10 -8 1416.36 99.48
2 -10 -8 1317.29 102.9
2 10 -8 1312.88 105.72
2 -10 -8 1299 105.62
2 -10 8 1439.08 102.19
-2 11 -8 1.2 3.29
2 11 -8 4.01 3.67
-2 11 8 0.94 2.45
2 11 -8 -2.32 4.94
2 -11 -8 2.35 5.39
2 11 8 -2.78 3.62
-2 -11 8 2.38 2.73
2 -11 -8 1.79 4.11
2 11 -8 -1.81 4.43
2 -11 8 1.62 3.98
2 -11 -8 2.56 3.14
-2 -11 -8 2.37 3.56
2 12 -8 485.78 42.06
-2 12 8 499.53 39.78
-2 12 -8 560.38 42.04
-2 -12 8 565.42 42.21
2 12 8 572.03 43.32
2 -12 -8 474.05 41.56
-2 -12 -8 548.76 41.94
2 -12 -8 458.34 43.42
2 12 -8 465.22 43.46
2 12 -8 499.01 46.69
2 -12 -8 443.62 45.81
2 -12 8 520.98 44.01
-2 13 -8 -1.28 2.94
2 13 -8 4.35 3.33
2 13 -8 -2.16 4.59
2 -13 -8 2.19 5.39
-2 13 8 -0.93 2.56
-2 -13 8 1.27 2.71
2 -13 -8 -3.33 4.34
2 13 -8 -1.67 4.09
2 -13 -8 -1.37 2.38
2 -13 8 1.71 4.19
-2 -13 -8 -1.27 2.7
-2 14 8 29.14 5.73
-2 14 -8 41.22 7.49
2 14 -8 36.55 7.84
2 14 -8 16.24 7.43
2 -14 -8 39.77 10.06
-2 -14 8 26.6 7.04
2 -14 -8 44.74 8.36
2 -14 -8 32.15 8.24
2 14 -8 38.76 8.51
-2 -14 -8 56.9 8.84
2 15 -8 15.55 6.59
2 -15 -8 14.08 7.25
-2 15 -8 12.52 4.76
2 15 -8 15.91 5.76
-2 15 8 14.47 4.28
2 15 8 6.64 6.82
2 -15 -8 14.08 6.14
2 15 -8 4.68 4.58
2 -15 -8 22.58 6.19
-2 -15 -8 12.38 5
-2 16 -8 26.28 6.47
2 16 -8 33.44 7.79
-2 16 8 27.15 5.53
2 16 -8 18.68 7
2 -16 -8 7.76 5.73
2 16 8 17.5 6.4
2 -16 -8 22.78 6.85
2 -16 -8 34.97 7.42
2 16 -8 6.02 4.71
2 -16 8 10.59 6.27
-2 -16 -8 24.51 6.63
-2 17 -8 -1.53 3.25
2 17 -8 -1.74 3.03
-2 17 8 1.03 2.84
2 17 -8 -1.79 5.16
2 17 8 3.66 3.89
2 -17 -8 -1.67 2.91
2 -17 -8 -1.49 6.86
2 -17 8 -8.65 5.62
-2 -17 -8 -1.5 3.44
-2 18 -8 501.53 41.21
-2 18 8 495.47 38.21
2 -18 -8 375.21 38.61
-2 -18 -8 519.36 41.36
-2 19 8 11.93 4.68
-2 20 8 448.99 37.3
2 0 -9 7.77 8.92
2 0 9 0.97 2.23
2 0 9 0.65 1.7
2 0 -9 8.86 6.78
-2 0 -9 6.81 7.82
-2 0 -9 7.42 8.52
2 -1 -9 3.84 8.17
2 -1 9 2.51 2.2
2 1 9 6.74 3.46
2 -1 9 5.9 3.09
2 1 9 3.4 2.31
2 -1 -9 2.92 7.18
2 1 -9 11.42 8.23
-2 -1 -9 10.02 7.68
-2 1 -9 -3.29 7.56
-2 -1 -9 14.65 9.54
2 -1 -9 6.08 3.82
2 -2 9 414.54 31.94
-2 2 9 509.7 36.13
2 -2 9 413.14 33.91
2 2 9 378.94 32.24
2 2 9 424.72 33.81
2 2 -9 372.57 41.15
2 -2 -9 496.92 35.94
-2 2 -9 409.07 43.47
2 -2 -9 399.43 45.48
-2 -2 -9 361.45 43.83
2 3 -9 11.2 4.39
2 -3 -9 21.37 10.74
-2 3 9 7.19 3.68
2 3 9 5.48 2.95
2 -3 9 22.32 4.96
2 -3 9 11.54 2.93
2 3 -9 23.98 8.99
-2 3 -9 15.19 8.38
-2 -3 -9 13.81 9.02
2 -3 -9 12.01 4.49
2 4 -9 29.38 6.49
2 4 -9 30.13 10.38
2 -4 -9 47.94 13.21
-2 4 9 49.58 7.68
2 4 9 40.14 6.51
2 -4 9 26.9 5.82
2 -4 -9 54.65 12.43
2 4 -9 51.35 11.65
-2 -4 -9 35.66 11.53
-2 4 -9 38.07 11.92
-2 -4 -9 56.58 14.38
2 -4 -9 35.16 7.12
2 5 -9 5.23 3.4
2 5 -9 -3.23 6.26
2 -5 -9 -3.27 6.34
-2 5 9 -1.17 2.49
2 5 9 -2.63 3.13
2 -5 9 2.14 2.45
2 -5 -9 12.49 7.82
2 5 -9 -2.48 5.69
-2 -5 -9 2.86 6.57
2 -5 -9 1.23 2.82
-2 -5 -9 1.21 3.14
2 6 -9 200.15 19.34
2 6 -9 164.13 24.89
2 -6 -9 147.58 24.1
-2 -6 9 191 18.59
2 -6 9 152.94 17.2
2 6 9 174.61 16.84
-2 6 9 206.52 18.67
-2 -6 -9 190.67 18.62
2 -6 -9 156.38 17.74
2 -6 -9 189.85 23.46
2 6 -9 219.07 24.55
2 7 -9 8.1 4.13
-2 7 -9 14.51 5.2
2 7 -9 14.91 7.81
2 -7 -9 21.1 9.1
2 7 9 8.72 3.64
-2 -7 9 18.47 5.19
2 -7 9 11.36 4.14
-2 7 9 10.37 3.96
2 -7 -9 6.91 6.05
2 7 -9 16.17 7.81
2 -7 -9 13.81 4.69
-2 -7 -9 10.74 4.47
-2 8 -9 717.44 55.7
2 8 -9 705.19 56.3
-2 8 9 654.08 54.77
-2 -8 9 705.62 55.72
2 8 9 735.87 56.57
2 8 9 750.77 54.21
2 -8 9 750.28 55.79
-2 -8 -9 739.17 55.79
2 -8 -9 736.08 56.13
2 -8 -9 676.88 60.37
2 8 -9 733.01 61.14
2 8 -9 716.32 64.09
2 -8 -9 683.08 63.62
-2 9 -9 -1.25 3.08
2 9 -9 8.4 8.06
2 -9 -9 -2.82 6.49
2 9 -9 1.39 2.7
2 9 9 -0.89 3.44
-2 9 9 1.16 2.67
-2 -9 9 1.24 3.23
2 -9 9 1.23 2.82
2 9 9 1.42 3.48
2 -9 -9 4.28 5.87
2 9 -9 8.51 6.13
2 -9 -9 5.28 3.62
-2 -9 -9 -1.24 3.22
-2 10 -9 1.29 2.24
2 10 -9 2.66 6.12
2 -10 -9 8.05 7.37
2 10 -9 1.42 3.03
-2 10 9 -1.18 2.9
-2 -10 9 1.25 3.08
2 10 9 -1.48 3.14
2 10 9 4.51 2.83
2 -10 -9 -4.09 5.33
2 10 -9 2.05 5.03
-2 -10 -9 5.02 3.45
2 -10 -9 4.06 3.72
2 -10 9 1.73 4.25
-2 11 -9 9.26 3.81
2 11 -9 8.78 4.4
-2 11 9 2.02 2.48
2 11 -9 5.06 5.39
2 -11 -9 10.35 7.78
-2 -11 9 2.58 3.36
2 11 9 -1.52 3.97
2 -11 -9 1.97 4.83
2 11 -9 -1.99 4.23
2 -11 -9 4.2 3.65
2 -11 9 5.33 4.63
-2 -11 -9 -1.3 2.98
2 12 -9 33.24 7.52
-2 12 9 30.84 5.97
2 12 -9 19.37 8.18
2 -12 -9 34.48 10.71
-2 12 -9 29.97 6.65
2 12 9 34.46 7.78
-2 -12 9 32.95 7.13
2 -12 -9 43.86 9.63
2 12 -9 42.23 9.83
2 -12 9 39.72 9.54
2 -12 -9 44.5 8.1
-2 -12 -9 25.28 6.3
-2 13 9 8.9 3.75
-2 13 -9 4.21 3.45
2 13 -9 -1.56 3.59
2 13 -9 9.29 6.38
2 -13 -9 9.45 7.11
-2 -13 9 5.43 3.92
2 -13 -9 -1.84 5.3
2 13 -9 3.72 5.11
2 -13 -9 2.98 3.42
-2 -13 -9 2.73 2.66
2 -13 9 7.37 5.54
-2 14 9 1.96 2.82
-2 14 -9 2.9 3.09
2 14 -9 6.47 3.97
2 14 -9 4.48 5.84
2 -14 -9 -2.28 5.23
-2 -14 9 4.23 4.06
2 -14 -9 3.57 4.11
2 14 -9 1.8 5.19
-2 -14 -9 5.64 4.25
2 -14 -9 1.55 3.29
-2 15 -9 -1.5 3.91
2 15 -9 -2.17 5.33
2 -15 -9 -2.21 5.08
-2 15 9 0.99 2.58
2 -15 -9 -3.47 4.77
2 15 -9 1.76 4.83
-2 -15 -9 -5.88 4.43
-2 16 9 439.69 34.5
2 -16 -9 384.73 37.09
2 16 -9 414.82 39.45
-2 17 9 6.34 3.57
2 -17 -9 5.07 5.1
2 0 -10 180.33 30.73
2 0 -10 171.12 27.43
-2 0 -10 244.73 32.33
2 -1 -10 4.16 9.62
2 -1 -10 21.97 9.51
2 1 -10 15.36 8.09
-2 -1 -10 3.64 7.83
-2 1 -10 14.36 9.93
-2 1 10 27.15 6.45
2 1 10 18.2 4.97
2 -1 10 18.88 4.77
2 -2 -10 192.56 31.04
-2 2 10 237.55 23.23
2 2 10 253.01 22.18
2 -2 10 255.71 22.67
2 -2 -10 255.53 23.79
2 2 -10 208.06 28.49
-2 2 -10 235.7 31.28
2 3 -10 11.39 11.42
2 -3 -10 3.87 9.5
-2 3 10 1.32 3.99
2 3 10 11.14 4.4
2 -3 10 2.27 3.42
2 3 -10 2.87 6.12
2 -3 -10 -1.36 3.13
2 4 -10 1122.96 82.76
2 -4 10 1091.07 81.34
-2 4 10 1161.56 82.74
2 4 10 1116.36 80.73
2 -4 -10 988.09 88.98
2 4 -10 1073.75 89.56
2 -4 -10 1114.03 82.55
2 4 -10 1017.77 93.25
2 -4 -10 1076.78 94.42
2 5 -10 50.63 8.88
2 5 -10 52.47 14.6
2 -5 -10 35.41 12.71
-2 5 10 44 8.42
2 5 10 43.03 7.47
2 -5 10 51.28 8.41
2 5 -10 45.58 11.85
2 -5 -10 67.5 14.04
2 -5 -10 45.5 8.35
2 6 -10 524.11 45.2
2 -6 10 527.64 43.97
2 6 10 568.51 43.36
-2 6 10 585.3 45.09
2 -6 -10 581.38 45.4
2 -6 -10 537.85 50.89
2 6 -10 588.24 51.81
2 6 -10 514.37 53.84
2 -6 -10 518.26 53.98
2 7 -10 1.47 3.61
2 7 -10 3.19 7.34
2 -7 -10 -3.23 6.27
-2 7 10 -1.27 2.92
2 7 10 0.96 3.52
-2 -7 10 2.74 3.76
2 -7 10 1.22 2.81
2 7 -10 -2.5 6.52
2 -7 -10 2.49 6.84
2 -7 -10 4.11 3.57
-2 -7 -10 -1.36 4.25
2 8 -10 190.63 27.39
2 8 -10 198.66 21.79
2 -8 10 212.32 21.31
-2 -8 10 218.96 22.09
2 8 10 226.36 20.43
2 8 10 220.82 22.48
-2 8 10 213.39 21.28
-2 -8 -10 256.43 22.93
2 -8 -10 243.3 27.1
2 -8 -10 225.51 22.19
2 8 -10 187.94 24.92
2 -8 -10 226.53 29.23
2 9 -10 13.69 5.42
-2 9 -10 21.62 5.63
2 9 -10 5.87 6.36
2 -9 -10 5.92 7.8
2 9 10 14.48 4.36
-2 9 10 17.82 5.32
-2 -9 10 36.84 7.4
2 9 10 18.37 6.49
2 -9 10 20.59 5.49
2 -9 -10 9.26 6.77
2 9 -10 25.55 8.4
2 -9 -10 22.5 5.72
-2 -9 -10 20.27 5.63
-2 10 -10 44.01 8.09
2 10 -10 47.86 8.7
-2 10 10 38.09 6.83
2 10 -10 30.96 10.91
2 -10 -10 25.64 10.76
2 10 10 39.15 6.94
-2 10 10 25.62 6.63
2 10 10 36.61 7.93
-2 -10 10 42.54 8.16
2 -10 10 31.95 7.05
2 -10 -10 33.39 9.57
2 10 -10 22.42 8.59
-2 -10 -10 40.02 7.94
2 -10 10 35.6 9.5
2 -10 -10 27.27 6.67
-2 11 -10 1.41 3
-2 11 10 1.08 2.8
2 11 -10 2.72 7.08
2 -11 -10 2.73 5.81
2 -11 10 2.75 2.67
2 -11 -10 6.45 6.19
2 11 -10 -4.34 5.65
-2 -11 -10 -1.41 3.24
-2 12 10 175.57 17
2 12 -10 165.14 22.81
2 -12 -10 168.71 23.24
2 12 -10 143.06 20.38
2 -12 -10 184.6 21.88
-2 13 10 -5.18 2.85
2 -13 -10 -2.56 6.28
2 13 -10 -2.54 6.62
2 13 -10 10.29 5.93
2 -13 -10 4.02 5.24
2 -14 -10 365.89 35.04
2 14 -10 348.24 34.73
2 14 -10 355.55 36.97
2 0 11 1.19 2.93
2 -1 11 -1.23 2.82
2 1 11 3.48 3.63
2 2 11 216.27 20.59
2 -2 11 211.66 20.88
2 3 11 3.32 3.04
2 -3 11 2.5 3.77
2 4 11 140.5 14.9
2 -4 11 134.56 15.33
2 5 11 -2.12 3.56
2 -5 11 -1.27 3.32
2 6 11 38.8 7.01
2 -6 11 43.7 8.22
2 7 11 2.05 2.96
3 0 0 0.53 1.45
3 0 0 0.69 0.72
-3 0 0 0.44 1.31
-3 0 0 -0.5 1.36
-3 0 0 1.13 1.08
-3 0 0 0.91 1.58
-3 0 0 -0.41 1.19
3 0 0 1.89 1.36
-3 1 0 140.11 11.61
-3 -1 0 129.49 11.14
3 -1 0 134.33 10.52
-3 -1 0 157.25 12.49
3 1 0 145.25 12.22
-3 1 0 150.83 11.76
-3 -1 0 140.07 11.74
-3 1 0 128.35 11.14
-3 -1 0 131.38 11.41
3 -1 0 124.92 11.71
-3 1 0 144.77 12.08
-3 1 0 141.72 11.69
-3 -2 0 0.32 1.02
-3 2 0 0.46 1.2
3 2 0 -0.54 1.42
3 -2 0 0.48 0.88
-3 2 0 -1.22 1.32
-3 -2 0 0.55 1.83
-3 2 0 0.75 1.26
3 2 0 0.47 1
-3 -2 0 1.2 1.35
3 -2 0 1 1.3
-3 2 0 -2.02 1.91
-3 3 0 1859.78 122.4
-3 -3 0 1725.45 121.19
-3 3 0 1765.09 121.72
3 -3 0 1575.84 120.82
3 3 0 1765.11 122.72
3 3 0 1956.37 120.91
-3 3 0 1639.64 121.69
-3 -3 0 1780.56 121.72
3 -3 0 1711.28 122.3
-3 4 0 1.6 1.6
-3 -4 0 1.15 1.25
3 -4 0 0.93 1.23
-3 4 0 0.79 1.33
3 4 0 0.57 1.65
-3 4 0 -0.54 1.41
3 4 0 -2.11 1.45
-3 4 0 0.9 1.35
3 -4 0 2.72 1.83
-3 -4 0 0.4 1.25
-3 5 0 5597.63 352.78
-3 -5 0 5393.03 352.35
-3 -5 0 4717.22 349.82
3 5 0 5568.41 352.93
-3 5 0 5383.35 351.82
3 -5 0 5309.09 351.43
-3 5 0 5568.47 352.39
3 5 0 5029.95 350.83
3 -5 0 5510.27 352.77
-3 -5 0 5341.02 351.76
-3 6 0 0.17 0.45
3 -6 0 0.54 1.55
3 -6 0 0.85 1.37
-3 6 0 0.41 1.64
-3 -6 0 1.36 1.78
-3 6 0 2.88 1.66
3 6 0 -0.64 1.75
-3 -6 0 0.49 1.43
-3 -6 0 0.12 0.52
-3 6 0 6.56 3.94
-3 -6 0 1.35 2.87
-3 6 0 0.58 1.32
3 -6 0 1.24 1.78
-3 -6 0 1.05 2.88
-3 -6 0 0.81 1.11
-3 6 0 3.16 3.03
-3 6 0 0.62 1.71
-3 7 0 870.77 62.99
3 -7 0 992.71 65.8
-3 7 0 952.29 65.64
-3 -7 0 929.4 65.16
-3 7 0 943.82 64.7
3 7 0 948.91 66.28
-3 -7 0 982.98 66.53
-3 -7 0 997.78 70.06
-3 -7 0 814.55 62.76
-3 7 0 941.7 69.29
-3 7 0 985.13 68.22
-3 -7 0 1013.19 68.54
-3 -7 0 1003.53 64.78
3 -7 0 941.7 66.13
-3 7 0 1059.57 66.41
3 -8 0 -3.22 2.09
-3 8 0 -0.63 1.23
-3 -8 0 -0.54 1.63
-3 -8 0 0.78 2.33
3 8 0 -0.74 1.57
-3 8 0 -0.44 1.43
-3 8 0 2.42 2.35
-3 -8 0 1.26 2.68
3 -8 0 -0.72 1.76
-3 -8 0 0.97 2.54
-3 8 0 -0.97 2.39
-3 -8 0 0.43 1.62
-3 8 0 4.92 2.59
3 -9 0 92.42 9.08
-3 -9 0 74.11 6.28
-3 9 0 68.9 8.01
-3 -9 0 76.78 7.91
-3 9 0 56.86 5.85
-3 -9 0 77.67 8.99
-3 9 0 86.08 7.69
-3 9 0 71.22 9.98
-3 -9 0 63.98 10.06
-3 -9 0 81.59 9.83
-3 9 0 75.1 9.42
-3 9 0 75.71 8.69
-3 10 0 0.88 1.87
3 -10 0 1.5 2.26
-3 -10 0 0.27 1
-3 -10 0 -0.89 2.55
-3 10 0 4.36 2.36
-3 10 0 0.72 0.75
-3 10 0 1.15 2.81
-3 -10 0 -2.41 2.96
-3 -10 0 -0.91 2.24
-3 10 0 0.91 2.72
-3 10 0 -0.79 3.14
-3 11 0 10.5 3.69
-3 -11 0 10.02 1.89
-3 11 0 5.6 3.58
-3 -11 0 15.42 4.99
-3 -11 0 10.56 3.74
-3 11 0 8.79 3.58
-3 12 0 -1.07 2.63
-3 -12 0 0.81 1.07
3 12 0 2.01 2.76
-3 12 0 1.08 2.66
-3 -12 0 -1.16 3.17
-3 -12 0 2.54 2.65
-3 12 0 -1.7 2.75
-3 13 0 1238.17 100.47
-3 -13 0 1255.24 96.46
3 13 0 1543.41 101.5
-3 13 0 1365.81 100.46
-3 -13 0 1480.31 101.37
-3 -13 0 1527.44 99.71
-3 13 0 1435.97 99.44
3 -13 0 1632.84 101.57
-3 14 0 -1.19 2.31
-3 -14 0 -0.36 1.45
3 14 0 3.48 3.48
-3 -14 0 -2.19 3.29
-3 14 0 1.02 2.93
3 -14 0 -1.11 2.37
-3 -14 0 0.79 2.57
-3 14 0 1.57 2.54
-3 15 0 1388.54 97.22
-3 -15 0 1356.64 92.21
3 15 0 1071.15 95.79
-3 -15 0 1394.45 96.44
-3 15 0 1347.1 95.83
-3 -15 0 1484.73 95.03
-3 15 0 1375.27 94.67
3 -15 0 1087.91 95.64
-3 -16 0 0.33 1.3
-3 16 0 3.56 3.41
3 16 0 1.22 2.8
-3 -16 0 -2 3.25
-3 16 0 0.93 2.67
3 -16 0 2.44 3
-3 -16 0 -0.7 2.43
-3 16 0 1.44 2.33
-3 -17 0 419.61 29.4
-3 17 0 442.32 34.15
3 17 0 465.29 34.94
-3 -17 0 430.72 32.99
-3 17 0 388.59 32.14
3 -17 0 364.72 31.51
-3 -17 0 410.17 31.32
3 17 0 333.22 31.34
-3 17 0 375.92 31.01
3 -17 0 455.22 34.57
-3 -18 0 0.32 1.23
-3 18 0 2.3 2.44
3 18 0 3.65 3.51
-3 -18 0 -0.82 3.1
-3 18 0 0.76 2.79
3 -18 0 1.21 2.35
-3 -18 0 -1.16 2.75
-3 18 0 -1.83 2.43
3 18 0 -3.33 3.42
3 19 0 48.72 8.22
-3 19 0 41.53 7.53
3 -19 0 54.38 8.56
3 20 0 -1.22 2.8
-3 20 0 -2.31 3.01
3 -20 0 -1.2 2.55
3 21 0 28.97 6.44
-3 21 0 26.92 6.18
3 -21 0 33.51 6.72
3 22 0 1.2 2.95
-3 22 0 -1.2 2.75
3 -22 0 1.19 2.92
3 23 0 375.35 31.62
-3 23 0 327.56 31.17
3 -23 0 392.13 31.73
3 24 0 2.37 3.42
-3 24 0 1.31 3.6
3 -24 0 -1.17 2.69
3 25 0 414.11 36.15
3 -25 0 459.59 36.61
3 0 1 -0.31 0.57
-3 0 -1 0.46 1.33
3 0 -1 0.11 0.41
-3 0 1 0.42 1.16
3 0 1 0.56 0.55
3 0 -1 0.75 0.97
3 0 1 1.45 1.33
-3 0 -1 -0.79 2.37
3 0 -1 -1.03 1.41
-3 0 -1 1.27 1.27
3 0 1 -0.58 1.44
-3 0 1 0.41 0.69
-3 0 -1 1.82 3.16
3 0 -1 -0.14 0.58
3 0 1 -1.94 1.34
-3 0 -1 -1.4 3.21
-3 0 -1 0.79 1.24
3 0 1 1.35 1.35
-3 0 -1 -0.64 2.37
3 0 1 -0.15 0.59
-3 1 -1 15.52 3.02
-3 -1 -1 16.19 2.74
3 -1 1 12.09 1.56
-3 1 1 14.06 2.64
3 1 -1 10.57 1.73
3 -1 1 15.5 2.74
3 -1 1 10.69 1.63
-3 -1 1 15.11 2
-3 1 1 13.95 2.78
3 1 1 13.65 2.89
3 -1 -1 16.49 2.4
-3 -1 -1 17.97 2.78
-3 1 -1 10.08 3.26
-3 1 -1 18.02 2.8
3 1 -1 12.85 2.72
-3 -1 -1 15.42 3.9
3 -1 -1 13.46 2.7
3 1 1 11.36 2.75
3 -1 1 17.45 3.28
-3 1 -1 8.96 2.44
-3 1 -1 19.1 6.1
-3 -1 -1 12.23 5.33
3 1 1 12.1 1.55
3 -1 -1 16.77 2.02
3 1 1 16.36 2.72
-3 1 1 12.1 2.03
-3 -1 -1 6.66 3.77
-3 1 -1 17.51 5.44
-3 1 -1 14.06 2.6
-3 -1 -1 19.72 2.83
-3 -1 -1 17.13 3.56
-3 1 -1 13.32 3.64
3 -1 1 10.72 2.43
3 1 1 13.78 2.67
-3 -2 -1 75.86 6.58
3 -2 -1 69.43 7.16
3 2 -1 65.86 5.85
-3 2 1 64.96 6.83
3 -2 1 58.56 6.3
3 -2 1 64.96 7.23
-3 2 -1 84.08 7.77
-3 -2 -1 76.53 6.95
3 -2 -1 65.01 6.24
-3 2 -1 69.8 6.62
-3 2 -1 61.37 7.64
3 2 -1 72.34 7.54
3 -2 1 74.44 7.01
-3 2 1 69.97 7.01
-3 -2 -1 51.93 7.86
-3 -2 1 66.32 5.7
3 2 1 72.46 7.14
3 2 -1 68.72 7.11
-3 -2 -1 72.24 11.57
-3 2 1 66.68 6.15
3 2 1 69.31 6.55
-3 2 -1 63.34 6.84
-3 -2 1 65.04 6.75
-3 2 -1 63.22 9.69
3 -2 -1 84.06 7.49
3 2 1 70.64 6.76
3 -2 1 67.47 6.96
-3 2 -1 75.26 8.27
-3 -2 -1 38.26 6.59
-3 -2 -1 68.36 6.47
-3 -3 -1 271.74 18.87
-3 3 1 231.39 19.42
3 -3 1 266.41 19.44
3 -3 1 252.84 20.16
3 -3 -1 237.03 19.8
-3 3 -1 251.94 20.28
-3 -3 1 241.32 18.15
-3 -3 -1 255.8 19.46
3 -3 -1 229.48 18.7
-3 -3 1 270.6 19.92
-3 3 -1 211.11 19.63
-3 -3 -1 241.37 21.47
-3 3 -1 300.7 19.43
3 3 -1 256.74 20.33
-3 3 1 243.13 19.46
3 3 1 257.34 19.95
-3 3 1 249.77 19.81
-3 3 1 256.96 19.04
-3 -3 -1 233.06 24.75
-3 3 -1 225.97 19.48
3 3 1 277.71 19.17
3 -3 -1 232.82 19.68
-3 3 -1 261 23.36
-3 3 -1 249.05 20.86
-3 -3 -1 184.86 19.29
-3 -3 1 270.37 19.64
3 -3 1 250.73 19.8
-3 3 1 257.38 19.69
-3 -3 -1 256.23 19
3 -4 1 176.96 16.19
3 -4 1 203.03 15.96
-3 4 1 194.68 16.08
-3 -4 -1 203.55 14.84
-3 4 -1 235.59 17.47
3 4 1 199.4 16.4
3 -4 -1 184.27 15.12
-3 -4 1 189.63 14.47
-3 4 -1 163.92 15.51
-3 4 1 187.73 15.72
3 4 -1 197.77 16.55
-3 4 -1 199.93 15.37
-3 -4 1 202.68 16.08
-3 -4 -1 241.31 22.1
-3 4 -1 184.39 16.03
3 4 1 215.15 15.53
3 -4 1 195.9 16.23
-3 -4 1 181.79 15.61
3 -4 -1 165.66 15.82
-3 4 -1 234.51 20.05
-3 -4 -1 203.36 16.03
-3 -4 -1 200.31 15.24
-3 4 1 192.13 15.87
-3 5 -1 0.74 1.7
-3 5 -1 0.95 0.71
3 -5 1 1.54 1.73
-3 -5 -1 0.22 0.89
-3 5 -1 -0.37 1.3
-3 5 1 -0.48 1.39
3 5 -1 0.64 1.46
3 -5 -1 1.16 1.22
3 -5 1 -0.62 1.32
-3 5 -1 0.36 1.16
3 5 1 0.62 1.32
-3 -5 1 0.89 0.8
-3 -5 1 -1.03 1.67
-3 5 1 2.18 1.64
-3 5 -1 1.7 1.56
-3 5 -1 1.48 3.14
-3 -5 -1 1.52 3.23
-3 5 -1 0.58 1.5
-3 -5 -1 2.27 2.95
-3 -5 -1 0.41 1.39
-3 5 1 -1.5 1.5
3 -5 1 -0.6 1.37
-3 -5 -1 -0.34 1.37
3 -5 -1 -0.58 1.23
-3 -5 1 -0.46 1.55
-3 5 -1 -1.14 3.12
-3 6 -1 17.92 4.06
-3 -6 -1 21.5 2.4
3 -6 1 25.75 4.07
-3 6 1 14.27 1.88
-3 6 -1 16.88 2.2
3 6 -1 22.69 4.07
3 -6 -1 21.76 3.27
-3 6 -1 19.39 2.91
-3 6 -1 23.77 2.93
3 6 1 25.11 4.18
-3 -6 1 20.62 2.56
-3 -6 1 28.55 4.07
-3 6 -1 23.83 3.77
-3 6 1 27.91 4.11
3 6 -1 13.16 1.9
-3 6 -1 17.96 3.53
-3 -6 1 14.79 1.77
-3 6 -1 28.26 6.49
-3 -6 -1 24.86 6.46
-3 -6 -1 23.83 5.29
-3 6 1 18.7 3.32
3 -6 1 13.06 3.34
-3 6 1 25.25 3.95
-3 -6 -1 21.29 3.02
3 -6 -1 21.95 3.83
-3 -6 1 23.07 3.49
-3 6 -1 25.07 5.57
-3 -6 -1 17.7 3.09
-3 -6 -1 13.69 1.89
-3 -7 -1 47.5 4.69
-3 7 1 62.74 6.97
-3 7 -1 66.84 5.31
3 -7 1 76.89 7.71
-3 7 -1 62.15 6.96
-3 -7 1 65.54 6.84
-3 -7 1 53.53 6.64
-3 -7 -1 82.7 8.92
3 7 1 81.91 8.15
-3 7 -1 63.42 5.23
-3 7 -1 63.88 5.89
3 -7 -1 53.22 6.2
-3 -7 -1 58.4 4.97
-3 7 -1 61.24 9.75
-3 -7 -1 58.01 9.62
-3 -7 1 47.05 4.7
-3 7 -1 63.19 7.4
-3 -7 -1 72.43 6.12
-3 7 1 51.94 6.48
-3 -7 -1 46.56 5.5
-3 7 1 52.95 6.6
-3 7 -1 56.94 8.08
-3 -7 -1 66.58 8.76
-3 7 -1 60.45 8.63
3 -7 1 65.11 7.45
3 -8 1 11.64 3.29
-3 -8 -1 6.19 1.05
-3 8 -1 7.12 1.53
-3 8 1 6.07 2.39
-3 -8 -1 3.73 0.98
3 -8 -1 9.89 2.6
-3 -8 -1 5.29 1.12
-3 8 -1 9.11 1.91
-3 -8 -1 6.71 2.95
3 8 1 7.14 2.79
-3 8 1 7.63 2.57
-3 -8 1 9.4 2.67
-3 8 -1 13.27 3.09
-3 -8 1 9.99 2.75
-3 -8 -1 7.42 1.58
-3 8 -1 1.31 2.57
-3 -8 -1 20.46 5.57
-3 8 -1 9.73 2.87
-3 -8 -1 4.99 3.28
-3 8 -1 11 3.71
3 -8 1 8.49 2.88
-3 -8 -1 12.64 2.31
-3 -8 -1 6.27 1.68
-3 8 -1 7.3 3.57
-3 8 1 6.66 2.56
3 -9 1 37.95 5.8
-3 9 1 41.48 5.73
-3 9 -1 31.2 3.95
-3 -9 1 39.12 5.54
3 -9 -1 33.47 4.97
-3 -9 -1 41.47 6.26
3 9 1 41.29 6.43
-3 9 -1 42.29 4.46
-3 9 1 37.63 5.44
-3 -9 1 30.47 4.77
-3 -9 -1 29.08 3.36
-3 -9 -1 39.72 7.56
-3 9 -1 30.29 6.82
-3 9 -1 44.46 6.21
-3 -9 -1 34.39 3.95
3 -9 1 40.28 6.12
-3 9 -1 33.62 6.25
-3 9 -1 28.56 5.92
-3 -9 -1 23.2 5.57
-3 9 1 36.89 5.37
-3 -9 -1 40.19 4.4
-3 10 -1 44.94 5.28
-3 10 1 58.79 7.1
-3 10 1 46.31 6.6
-3 -10 1 49.38 5.32
3 -10 1 45.87 6.82
-3 -10 1 41.07 5.82
-3 -10 1 53.38 6.81
3 -10 -1 45.02 6.44
-3 -10 -1 59.17 7.69
3 10 1 56.96 7.72
-3 10 -1 52.68 5.34
-3 -10 -1 41.47 4.62
-3 -10 -1 52.82 8.79
-3 10 -1 58.76 8.74
-3 -10 -1 39.67 5.01
-3 10 -1 46.06 7.42
-3 -10 -1 48.16 5.28
3 -10 1 50.94 7.39
-3 10 1 59.1 6.88
-3 10 -1 51.42 7.78
-3 10 -1 60.11 7.97
-3 -10 -1 56.97 7.74
-3 11 -1 224.22 17.66
-3 -11 1 220.94 17.22
-3 11 1 227.98 19.67
-3 -11 1 213.98 18.27
3 11 -1 220.98 19.55
3 -11 -1 229.11 19.13
-3 11 -1 223.29 17.2
-3 -11 -1 204.59 16.72
-3 -11 -1 212.16 21.26
-3 11 -1 202.22 20.73
-3 11 -1 211.57 20.13
-3 -11 -1 230.39 17.54
3 -11 -1 231.93 19.66
-3 -11 -1 223 17.26
-3 -11 -1 228.46 19.99
-3 11 -1 223.32 19.88
-3 12 -1 54.32 6.12
-3 -12 1 51.68 5.71
-3 12 -1 48.01 7.53
-3 12 1 66.55 7.94
3 12 -1 52.04 7.56
-3 12 -1 46.23 5.15
-3 12 1 25.55 6.31
-3 -12 1 44.64 7.91
-3 -12 -1 46.37 7.93
-3 12 -1 28.82 6.41
-3 12 -1 52.5 8.49
-3 -12 -1 46.11 5.21
3 -12 -1 53.38 7.39
-3 -12 1 34.19 6.36
-3 -12 -1 35.95 6.48
-3 12 -1 32.56 6.37
-3 13 -1 234.39 19.27
-3 -13 1 247.95 18.33
-3 13 -1 248.5 21.47
-3 13 1 257.03 21.45
3 13 -1 254.59 21.38
-3 13 -1 229.8 18.12
-3 13 1 212.4 20.83
-3 -13 1 219.93 21.22
-3 -13 -1 246.9 22.24
-3 13 -1 225.4 21.44
-3 13 -1 218.4 22.01
3 -13 -1 245.38 21.12
-3 -13 -1 223.07 20.18
-3 13 -1 217.46 20.03
-3 -13 -1 224.49 18.18
-3 13 1 213.22 19.93
-3 -13 1 227.62 20.21
-3 14 1 22.76 5.43
-3 14 -1 26.81 4.71
-3 -14 1 24.07 3.52
-3 14 -1 33.61 5.84
-3 14 -1 23.14 3.6
3 14 -1 20.15 4.9
3 14 1 24.23 6.03
-3 14 1 17.69 2.29
-3 14 1 12.85 4.52
-3 -14 1 24.4 5.48
-3 -14 -1 25.13 5.79
-3 14 -1 21.17 5.23
3 14 1 14.78 4.45
3 -14 1 19.53 4.7
-3 -14 1 22.96 4.87
-3 14 1 23.93 4.71
3 -14 -1 17.45 4.93
3 -14 1 31.29 5.72
3 14 1 26.82 5.39
-3 -14 -1 19.17 4.5
-3 14 -1 14.41 4.18
-3 15 1 83.87 10.48
-3 15 -1 94.54 10.32
-3 -15 1 88.5 7.45
3 15 1 92.46 10.8
3 15 -1 75.54 9.74
-3 15 -1 81.54 7.18
-3 15 -1 110.02 10.93
-3 15 1 51.18 8.49
-3 -15 1 82.9 9.95
-3 -15 -1 77.19 10.02
3 15 1 88.06 8.97
3 -15 1 94.65 9.41
3 -15 -1 95.87 10.55
-3 -15 -1 84.52 9.09
-3 15 -1 82.7 8.84
3 -15 1 84.67 10.61
-3 -15 1 80.59 8.8
3 -15 1 79.79 9.02
3 15 1 62.64 8.51
-3 15 1 70.71 8.41
-3 16 -1 49.89 7.63
-3 -16 1 27.89 5.16
-3 16 1 41.61 7.78
3 16 -1 27.52 6.61
3 16 1 42.77 7.88
-3 16 1 40.61 6.74
-3 -16 1 35.89 6.55
-3 -16 -1 54.34 7.87
-3 16 -1 61.59 7.95
3 -16 1 39.42 6.18
3 16 1 37.39 6.43
3 -16 1 45.3 7.82
3 -16 -1 40.38 7.29
-3 -16 -1 49.42 6.68
-3 16 -1 42.11 6.35
-3 16 1 44.35 6.29
-3 -16 1 27.6 3.88
3 -16 1 46.09 6.91
-3 -16 1 48.4 6.4
-3 17 -1 138.17 13.64
-3 17 1 121.15 14.22
-3 -17 1 119.59 10.98
3 17 -1 126.3 13.78
3 17 1 161.07 15.22
-3 -17 -1 128.59 11.26
-3 -17 1 138.44 13.27
-3 17 1 115.92 12.29
-3 -17 -1 149.05 14.09
-3 17 -1 120.21 12.98
3 -17 1 101.03 11.64
3 -17 -1 111.41 13.15
3 -17 1 158.98 15
-3 17 -1 111.88 11.89
-3 -17 1 129.96 11.74
-3 17 1 128.35 11.65
-3 -17 1 74.83 8.3
3 17 1 110.29 12.07
-3 -17 -1 127.33 12.15
-3 18 -1 51.55 7.9
-3 18 1 57.36 9.12
-3 -18 1 47.27 6.07
3 18 -1 53.41 8.52
3 18 1 60.47 9.06
-3 -18 -1 53.47 6.7
3 -18 1 53.68 6.85
-3 -18 1 45.42 7.23
-3 18 1 36.57 6.49
3 -18 1 56.36 8.75
3 -18 -1 52.25 8.46
-3 -18 1 52.97 6.56
3 18 1 54.17 7.33
-3 18 1 52.68 6.67
-3 19 -1 89.34 10.59
-3 19 1 72.91 10.91
3 19 -1 81.53 10.6
3 19 1 95.46 11.37
-3 19 1 65.44 8.3
3 -19 -1 77.89 10.39
-3 -19 1 56.1 7.43
3 -19 1 95.49 11.31
3 20 -1 8.22 4.09
3 20 1 4.98 3.6
-3 20 -1 4.64 3.21
-3 20 1 1.29 2.98
3 -20 1 8.58 3.7
3 -20 -1 7.04 3.83
-3 21 -1 314.55 28.67
-3 21 1 290.13 28.28
3 21 -1 320.84 28.42
3 21 1 352.58 29.4
-3 21 -1 303.04 31.18
3 -21 -1 330.42 28.52
3 -21 1 357.94 29.23
-3 22 -1 1.3 3.39
-3 22 -1 4.82 4.19
-3 22 1 3.76 3.45
3 22 -1 5.79 3.63
3 22 1 1.26 4.25
-3 22 -1 1.78 4.1
3 -22 1 8.54 3.68
3 -22 -1 1.16 3.49
-3 23 -1 102.15 13.33
-3 23 -1 113.39 14.19
-3 23 1 106.65 13.51
3 23 1 116.12 13.85
3 23 -1 130.61 13.87
-3 23 -1 117.18 15.78
3 -23 -1 98.17 12.66
3 -23 1 114.43 13.49
3 24 -1 -2.26 3.26
3 24 1 -6.23 4.59
-3 24 -1 -1.25 3.09
-3 24 1 -1.27 3.31
3 -24 1 1.22 2.8
3 -24 -1 -2.29 3.3
3 25 -1 182.11 18.66
-3 25 -1 186.6 19.5
3 -25 -1 196.04 19.03
-3 26 -1 19.4 5.98
3 0 2 18.7 2.77
3 0 -2 10.86 2.01
3 0 2 15.28 2.52
-3 0 -2 19.62 3.96
-3 0 -2 25.81 3.5
-3 0 2 10.18 2.55
3 0 2 9.4 2.61
-3 0 -2 20.6 3.84
3 0 -2 8.64 2.48
3 0 -2 9.77 2.54
3 0 2 18.02 3.84
3 0 2 9.16 3.3
-3 0 -2 21.45 7.62
-3 0 2 8.29 1.59
3 0 2 15.3 3.07
-3 0 -2 23.29 7.09
-3 0 -2 16.7 4.54
3 0 -2 14.3 2.16
3 0 2 15.95 2.61
3 1 -2 3958.96 265.36
3 -1 2 3867.78 265.19
3 1 -2 4442.53 266.77
3 -1 2 4092.53 265.93
3 1 2 3898.69 265.39
3 1 2 3962.14 265.55
3 -1 -2 4337.79 266.76
3 -1 2 4184.37 267.59
-3 -1 -2 4207.33 266.6
-3 1 -2 2854.75 266.63
-3 1 -2 4525.87 266.36
3 1 2 4255.14 266.73
-3 -1 -2 4383.74 266.58
3 1 2 2980.33 264.15
3 -1 -2 4084.93 266.05
-3 -1 2 4076.06 266.97
-3 -1 2 4277.26 265.94
3 -1 2 4236.57 266.41
-3 -1 -2 4529.9 267.92
-3 1 -2 4580.4 267
-3 1 2 4160.64 266
-3 -1 -2 3412.41 273.17
-3 1 -2 3483.06 273.26
3 -1 -2 4116.24 265.57
3 1 2 3991.69 265.19
3 1 -2 4031.31 265.01
3 -1 2 3944.84 265.5
3 -1 2 4485.82 267.31
3 1 2 4351.44 267.06
3 -1 2 4230.07 266.62
-3 1 2 4091.53 266.92
3 1 2 4043.08 266.39
-3 -1 -2 3895.92 271.64
-3 1 -2 3045.89 270.16
-3 -1 -2 4615.51 268.2
-3 1 -2 3328.14 267.83
3 2 -2 8.1 1.89
3 -2 2 2.79 1.53
-3 -2 -2 3.1 1.59
3 -2 2 8.45 2.42
-3 2 -2 8.16 3.42
-3 2 -2 7.39 2.27
-3 -2 -2 4.53 1.95
-3 2 2 6.22 2.16
3 -2 2 9.3 2.69
-3 -2 2 6.56 2.3
-3 -2 2 1.71 1.66
3 -2 -2 5.94 2.11
3 2 2 3.6 1.87
-3 -2 -2 3.43 2.75
3 -2 2 4.23 2.43
3 2 -2 1.39 1.54
-3 2 2 8.75 2.55
3 2 2 2.41 1.8
-3 2 -2 5.31 2.31
3 -2 -2 8.6 2.08
-3 -2 -2 1.82 3.87
3 2 2 3.7 1.4
3 -2 2 3.74 2.43
3 -2 2 1.48 1.58
-3 2 2 6.5 2.23
-3 2 -2 9.52 4.59
3 2 2 5.18 1.79
-3 2 -2 11.29 3.86
3 -2 2 7.52 3.05
3 -3 2 412.87 33.32
3 3 -2 433.3 32.21
3 -3 2 471.07 32.99
3 3 -2 486.55 33.09
3 -3 2 472.83 31.71
-3 -3 -2 455.86 31.71
-3 3 -2 400.15 34.1
-3 3 -2 466.08 32.28
-3 -3 2 429.04 32.11
3 -3 -2 428.35 32.5
-3 3 2 442.19 33.01
3 3 2 450.5 33.34
-3 3 2 447.9 33.27
3 -3 2 437.05 32.49
-3 -3 -2 326.47 33.34
-3 -3 2 436.7 33.06
-3 -3 -2 508.7 40.11
3 3 2 460.68 31.5
3 3 2 431.51 32.91
-3 3 -2 440.87 33.66
3 -3 -2 420.31 32.18
3 3 2 462.23 32.46
-3 3 -2 458.51 37.26
-3 3 2 428.97 32.96
-3 3 -2 459.63 35.16
3 -3 2 426.14 33.89
-3 -3 -2 458.34 32.24
3 -3 2 427.24 33.11
-3 4 2 9.56 1.66
3 4 -2 13.79 2.61
-3 -4 -2 9.25 1.58
3 -4 2 16.48 3.23
-3 4 -2 21.18 4.26
3 -4 -2 13.3 2.62
-3 -4 -2 8.53 3.18
-3 -4 2 8.49 2.07
-3 -4 2 14.86 3.09
-3 4 2 15.56 3.06
3 4 2 10.8 2.82
-3 4 -2 16.1 2.52
3 -4 2 8.66 2.47
3 4 -2 11.93 2.54
-3 4 -2 12.71 3.27
3 4 2 13.18 2.98
3 -4 -2 13.67 2.54
-3 -4 2 11.52 1.72
-3 -4 -2 11.91 4.74
-3 -4 -2 12.76 2.28
3 -4 2 13.99 3.05
-3 4 2 8.72 2.64
3 -4 -2 8.03 2.41
-3 -4 2 12.2 2.8
-3 4 -2 14.91 4.11
-3 4 -2 15.04 4.93
3 -4 2 9.16 3.07
-3 5 -2 6.82 1.57
-3 5 2 5.45 1.26
-3 -5 -2 6.24 1.03
3 5 -2 5.1 1.84
3 -5 2 9.62 2.74
-3 5 -2 1.63 2.37
3 -5 -2 4.58 1.69
-3 -5 2 4.45 1.57
-3 -5 2 7.7 2.37
3 5 2 5.24 2.09
-3 5 -2 6.63 1.7
-3 5 2 2.69 1.67
3 -5 2 6.29 2.22
-3 -5 -2 6.58 4.06
-3 5 -2 6.43 4.21
-3 -5 2 5.9 1.29
-3 5 -2 5.28 2.1
-3 -5 -2 8.57 1.91
3 -5 2 6.38 2.11
-3 5 2 5.76 2.12
-3 -5 -2 11.98 3.91
-3 5 -2 6.04 3.34
-3 -5 -2 4.73 1.27
3 -5 2 4.16 2.43
-3 6 -2 7.57 1.76
-3 6 2 9.42 1.67
3 -6 2 4.68 2.58
-3 6 -2 6.76 2.98
3 -6 -2 12 2.52
3 -6 2 7.21 2.59
-3 -6 2 7.9 1.96
-3 -6 2 7.78 2.46
3 6 2 10.01 3.26
-3 6 -2 11.01 2.07
-3 6 2 8.99 2.49
-3 6 -2 9.1 2.7
-3 -6 -2 9.49 4.37
-3 6 -2 1.54 3.03
-3 -6 2 7.22 1.47
3 -6 2 8.39 2.89
-3 -6 -2 10.62 1.98
-3 6 2 4.3 2.2
-3 -6 -2 4.63 3.66
-3 6 -2 1.16 2.9
-3 -6 -2 4.26 1.36
3 -6 2 4.51 2.64
-3 7 -2 374.23 27.14
3 -7 2 374.79 29.54
-3 7 2 359.98 28.7
-3 7 2 367.27 28.56
-3 7 -2 375.44 29.98
-3 7 2 340.97 26.67
-3 -7 2 337.04 27.38
3 -7 -2 348.23 27.98
3 7 2 412.28 30.03
-3 -7 2 393.38 28.64
-3 7 -2 414.58 27.26
-3 -7 -2 426.51 34.18
-3 7 -2 443.79 34.13
-3 7 -2 377.09 29.59
-3 -7 -2 355.98 26.89
-3 -7 2 356.74 26.59
-3 -7 -2 395.04 31.5
-3 7 -2 389.89 31.43
-3 -7 -2 392.12 27.09
3 -7 2 345.01 29.85
-3 7 2 385.78 28.47
3 -7 2 377.49 29.62
-3 8 -2 9.67 2.08
3 -8 2 12.96 3.62
-3 8 -2 15.81 3.99
-3 8 2 11.72 3.37
3 -8 -2 3.3 2.25
-3 -8 -2 7.52 1.26
-3 8 2 9.57 2.59
-3 -8 -2 17.22 4.17
-3 8 -2 13.5 2.18
3 8 2 21.23 4.39
-3 -8 2 9.97 2.74
-3 8 -2 12.02 2.95
-3 -8 -2 14.69 5.28
-3 8 -2 5.69 3.53
-3 -8 -2 10.88 2.05
3 8 -2 3.46 0.89
-3 8 -2 12.17 3.34
-3 8 2 5.13 2.48
3 -8 2 7.48 2.93
-3 -8 -2 8.21 1.89
3 -8 -2 6.79 2.41
-3 -8 -2 18.08 4.74
-3 8 -2 10.68 3.97
-3 -8 2 8.9 1.77
3 -8 2 8.12 3.27
-3 9 -2 3591.05 244.23
-3 9 2 3847.36 246.39
3 -9 2 2851.4 245.84
-3 9 2 3806.64 246.07
-3 9 -2 3850.15 245.95
-3 -9 2 3922.24 245.62
3 -9 -2 3513.16 245.3
-3 -9 -2 4003.01 246.91
3 9 2 4314.54 248
-3 9 -2 3878.4 243.55
3 9 -2 3817.59 246.71
-3 -9 -2 3224.64 242.8
-3 -9 -2 3475.82 243.93
-3 -9 -2 4112.07 250.81
-3 9 -2 3720.59 250.08
3 9 -2 2957.04 242.68
-3 9 -2 4096.5 247.41
-3 -9 2 3293.12 243.52
3 9 2 3799.56 248.26
3 -9 -2 3947.35 246.24
-3 -9 -2 3717.45 247.94
-3 9 -2 3706.44 247.96
3 9 2 3847.48 249.12
3 -9 2 4130.7 247.62
3 -9 2 3623.92 247.21
-3 9 2 3612.79 245.35
-3 -9 -2 3701.22 243.52
-3 10 -2 4.11 1.93
-3 10 2 8.53 3.03
3 -10 2 7.78 3.29
-3 -10 2 5.83 2.6
3 10 -2 4.17 2.63
-3 10 2 5.17 2.67
3 -10 -2 4.53 2.2
-3 -10 -2 6.31 1.46
-3 10 -2 7.71 3.06
-3 10 -2 4.27 1.53
3 10 2 11.05 3.81
-3 -10 -2 5.09 2.01
-3 -10 -2 1.39 3.2
-3 10 -2 5.26 3.63
3 10 2 12.94 4.25
3 -10 2 -2.05 2.97
-3 10 -2 9.44 3.59
3 -10 2 8.82 3.52
-3 -10 -2 3.25 1.39
3 -10 -2 1.53 2.02
3 -10 2 2.21 2.73
3 10 2 3.34 3.08
-3 -10 -2 8.8 3.62
-3 10 -2 3.94 3.22
-3 10 2 4.99 2.94
3 -10 2 2.74 2.88
-3 11 -2 1430.98 101.65
-3 11 2 1572.91 103.69
-3 -11 2 1432.36 101.4
-3 -11 2 1462.52 102.26
-3 11 -2 1368.66 100.02
3 11 -2 1625.22 104.3
-3 -11 -2 1361.88 100.28
3 11 2 1452.26 104.89
-3 -11 -2 1429.66 101.5
-3 -11 -2 1572.82 106.66
-3 11 -2 1451.64 105.86
-3 11 -2 1573.13 105.15
3 11 2 1519.43 104.48
3 -11 2 1426.77 104.28
-3 -11 -2 1416.83 100.26
-3 -11 -2 1480.22 104.3
3 -11 -2 1613.18 103.81
-3 11 -2 1469.17 104.27
3 -11 2 1413.72 104.71
3 11 2 1490.13 105.03
3 -11 2 1493.66 104.9
-3 -12 2 0.51 1.52
-3 12 2 -1.76 2.02
-3 12 -2 0.58 1.75
3 12 -2 1.87 2.44
-3 -12 -2 -0.34 1.43
-3 12 -2 0.89 1.05
3 12 2 4.72 3.24
-3 -12 -2 1.27 2.92
-3 12 -2 1.22 3
3 12 2 4.56 2.85
-3 -12 -2 0.55 1.91
3 -12 2 0.94 2.7
-3 12 -2 2.23 2.9
3 12 2 -1.04 2.99
3 -12 2 3.4 2.95
-3 -12 -2 -0.27 1.08
3 -12 -2 -0.86 1.83
-3 -12 -2 3.74 2.81
-3 12 -2 1.87 2.44
3 -12 2 1.02 2.66
-3 13 2 308.44 22.72
-3 13 -2 278.18 20.6
-3 -13 2 290.2 20.35
-3 13 -2 243.77 21.67
-3 13 -2 161.62 17.47
3 13 -2 287.62 22.45
-3 -13 -2 280.81 19.14
-3 -13 -2 290.48 20.67
-3 -13 -2 297.65 24.01
-3 13 -2 218.54 22.18
3 13 2 273.16 21.97
-3 13 -2 310.22 24.37
3 -13 2 263.34 21.98
-3 -13 -2 272.86 21.9
-3 -13 -2 246.86 18.23
-3 13 -2 269.93 21.93
3 -13 -2 289.3 22.12
3 -13 2 229.36 21.87
3 13 2 237.06 22.1
-3 14 2 7.21 3.24
-3 -14 2 6.92 2.47
-3 14 -2 4.45 2.83
-3 14 -2 7.89 3.54
3 14 -2 2.09 3.03
-3 14 -2 1.12 1.18
-3 -14 -2 4.91 2
-3 -14 -2 8.35 2.98
3 14 2 9.36 3.63
3 -14 2 4.34 2.74
-3 -14 -2 8.37 4.03
-3 14 -2 5.82 3.52
-3 14 -2 2.66 2.84
3 -14 2 8.59 3.53
-3 -14 -2 6.64 1.64
3 -14 -2 3.88 3.05
-3 -14 -2 8.03 3.3
-3 14 -2 7.96 2.99
3 14 2 1.97 2.85
-3 15 -2 73.35 8.49
-3 15 2 75.37 9.32
-3 -15 2 75.65 7.26
-3 15 -2 96.26 10.11
-3 -15 -2 57.46 6.47
3 15 -2 78.64 9.62
-3 -15 -2 74.85 8.26
3 -15 2 51.45 7.61
3 15 2 88.59 9.05
-3 -15 -2 73.03 9.77
-3 15 -2 76.72 10.02
-3 15 -2 106.92 12.22
-3 -15 -2 57.03 5.46
3 15 2 69.63 8.88
-3 15 -2 63.31 8.46
3 -15 -2 68.79 8.8
3 -15 2 64.89 8.56
-3 16 2 3.52 3.22
-3 16 -2 3.75 2.44
-3 16 -2 3.2 2.78
-3 -16 2 1.12 1.69
-3 -16 -2 0.56 1.55
3 16 -2 -1.17 2.27
-3 16 -2 0.43 0.73
-3 16 2 0.63 1.19
-3 16 -2 0.62 0.51
3 16 2 -1.22 2.8
-3 -16 -2 0.85 2.33
-3 16 2 -0.95 2.49
-3 -16 2 2.01 2.47
3 -16 2 3.2 2.95
-3 16 -2 3.11 3.58
-3 -16 2 1.51 2.27
-3 16 2 -1.58 2.56
3 -16 -2 -1.08 2.49
-3 -16 -2 1.7 1.46
3 16 2 -0.94 2.95
-3 17 -2 389.6 25.31
-3 17 -2 348.66 25.18
-3 -17 2 321.05 21.86
-3 17 2 347.06 26.05
-3 17 2 227.68 19.16
3 17 -2 228.23 23.48
3 17 2 407.69 26.63
-3 -17 -2 226.84 20.87
-3 17 2 235.9 22.16
-3 -17 2 229.49 22.46
-3 17 -2 381.41 28.97
3 -17 2 313.14 22.74
-3 -17 -2 363.03 24.28
-3 -17 -2 180.92 18.82
3 -17 -2 255.76 23.48
-3 -17 2 231.54 21.22
-3 17 2 237.52 21.51
3 17 2 264.07 22.79
3 -17 2 373.28 26.2
-3 18 -2 8.41 3.77
-3 18 -2 1.13 3.26
-3 -18 2 7.07 2.89
-3 18 2 1.41 3.47
-3 18 2 3.41 1.45
3 18 -2 2.44 4.25
3 18 2 11.15 4.44
-3 -18 -2 2.72 2.59
-3 -18 -2 7.12 4.51
-3 18 2 2.55 2.57
-3 -18 2 3.67 3
-3 18 -2 10.75 5.39
3 -18 2 7.41 3.87
-3 18 2 3.42 2.74
3 -18 -2 -1.18 3.09
-3 -18 2 10.39 3.2
-3 -18 2 2.3 2.13
-3 19 -2 791.18 62.45
-3 19 -2 1138.14 65.12
-3 19 2 794.42 63.6
3 19 2 1076.15 64.53
3 19 -2 989.22 63.67
-3 19 2 723.09 59.7
-3 19 -2 798.12 65.66
-3 -19 -2 736.17 61.43
3 -19 -2 897.07 62.72
-3 -19 2 768.26 58.83
-3 -19 2 695.29 57.73
3 -19 2 1092.75 64.51
-3 20 -2 10.33 4.76
-3 20 -2 -1.31 4.41
-3 20 2 2.95 3.85
3 20 -2 9.58 4.99
3 20 2 2.52 3.28
-3 -20 -2 1.19 3.59
-3 20 -2 -1.87 3.63
3 -20 2 4.95 4.69
3 -20 -2 6.93 3.89
-3 21 -2 441.18 43.4
-3 21 -2 626 45.64
-3 21 2 542.9 45.01
3 21 2 600.76 44.55
3 21 -2 630.78 44.63
-3 -21 -2 414.07 42.69
-3 21 -2 534.06 47.02
3 -21 -2 568.1 43.65
3 -21 2 597.48 44.45
-3 22 -2 1.5 3.45
-3 22 -2 1.35 3.52
-3 22 2 6.94 4
3 22 -2 5.86 4.19
3 22 2 -3.82 5.3
-3 -22 -2 -1.22 3.95
-3 22 -2 -1.9 3.68
3 -22 2 1.25 3.26
3 -22 -2 1.13 2.78
-3 23 -2 5.68 3.9
-3 23 -2 1.37 3.56
-3 23 2 5.35 3.85
3 23 -2 2.3 3.61
3 23 2 2.55 3.33
-3 -23 -2 4.92 3.7
-3 23 -2 -1.91 4.06
3 -23 2 3.76 3.44
3 -23 -2 -1.12 2.57
-3 24 -2 -1.38 3.4
-3 24 2 1.33 3.05
3 24 -2 4.53 2.96
3 24 2 1.28 3.33
-3 -24 -2 4.96 4.03
3 -24 -2 6.61 3.95
-3 25 -2 27.46 7.45
3 25 -2 39.9 7.08
-3 -25 -2 36.18 7.34
3 -25 -2 35.86 7.02
3 26 -2 -2.18 3.54
3 0 -3 1.67 1.23
3 0 3 1.08 1.13
-3 0 -3 1.36 1.42
3 0 3 1.85 1.36
3 0 3 3 1.95
-3 0 3 2.34 1.97
-3 0 3 1.41 1.47
3 0 3 -0.46 1.27
3 0 -3 0.45 1.24
3 0 3 2.64 2.07
3 0 3 -0.61 1.51
3 0 3 1.78 3.46
-3 0 -3 2.09 3.62
3 0 3 1.53 3.52
3 0 3 4.19 3.21
3 0 3 0.44 1.08
3 0 3 1.43 1.39
-3 0 3 1.08 1.56
3 0 3 -1.73 3.97
-3 0 -3 3.03 3.95
3 0 -3 0.72 1.17
3 0 3 1.98 1.99
3 -1 3 124.31 10.72
3 -1 3 156.23 11.65
3 1 3 151.9 10.8
3 1 3 132.7 11.08
-3 -1 -3 146.51 11.17
-3 1 -3 147.74 11.91
3 -1 -3 110.64 10.37
3 1 -3 142.23 11.23
3 1 -3 125.06 10.88
-3 1 3 122.11 11.25
-3 -1 3 136.45 11.52
3 -1 3 140.93 12.43
3 1 3 125.65 9.89
3 -1 -3 145.88 11.63
3 -1 3 140.61 12.45
3 1 3 129.02 13.05
3 -1 3 133.47 11.21
-3 1 3 123.75 11.97
-3 -1 3 134.68 12.03
3 1 3 140.35 11.66
-3 -1 -3 131.1 17.45
3 1 3 121.94 10.69
3 -1 3 107.28 15.63
3 1 3 99.88 15.32
3 -1 -3 131.12 11.05
-3 1 -3 120.19 16.92
3 1 3 118.22 15.18
3 -1 3 128.29 10.98
3 1 -3 121.05 10.61
3 -1 3 93.77 14.42
3 -1 3 158.26 12.73
3 1 3 129.42 11.99
3 1 3 128.36 11.11
-3 -1 3 143.47 12.04
-3 -1 -3 118.23 15.05
3 1 3 108.26 14.31
3 -1 3 136.36 15.52
3 -1 3 129.45 11.46
3 -1 3 121.63 16.27
3 1 3 130.1 16.39
3 -1 3 157.9 13.21
3 1 3 141.89 12.17
-3 1 3 140.48 12
-3 1 -3 119.83 14.97
3 2 -3 379.06 29.51
3 -2 3 435.75 30.32
3 -2 3 380.56 29.15
3 2 3 360.76 28.5
3 -2 3 395.77 30.74
3 2 -3 398.02 29.52
-3 -2 -3 388.76 28.85
-3 2 -3 415.7 30.69
-3 2 3 453.29 29.21
3 2 3 377.77 29.53
3 2 3 416.38 28.2
-3 -2 3 415.11 30.02
3 -2 -3 401.37 29.92
3 -2 3 469.53 30.85
3 2 3 348.9 31.62
-3 -2 3 396.47 30.45
-3 2 3 460.9 30.26
3 -2 3 384.84 29.43
3 2 3 399.09 30.27
-3 2 3 382.06 29.88
3 -2 3 349.46 34.79
-3 -2 -3 399.08 36.88
3 -2 -3 393.06 29.64
3 2 3 379.58 29.12
3 -2 3 364.92 29.39
3 -2 3 418.28 30.95
-3 -2 3 424.93 29.11
3 2 3 425.92 30.78
3 2 3 393.01 34.83
3 2 3 402.68 29.5
-3 2 3 404.71 30.32
-3 2 -3 353.86 33.99
3 2 3 411.35 34.3
3 -2 3 421.91 35.97
3 -2 3 409.44 31.73
3 2 3 427.89 30.27
3 -2 3 382.99 30.1
3 3 3 -0.44 1.26
3 3 3 1.32 0.88
3 3 -3 2.34 1.57
3 -3 3 0.57 1.65
-3 3 3 0.3 1.36
3 -3 3 -0.35 1.8
-3 3 -3 1.28 2.01
3 -3 3 -0.48 1.38
3 3 3 2.89 2.51
3 3 3 0.21 0.58
-3 3 3 0.5 1.15
3 -3 3 1.51 1.35
-3 -3 3 -1.69 1.7
-3 -3 3 -0.47 1.14
3 -3 -3 0.49 1.21
3 3 3 1.75 1.68
3 3 -3 -0.4 1.43
3 -3 3 -0.63 1.22
-3 3 3 0.49 1.53
3 3 3 0.61 1.9
3 -3 3 -1.57 3.6
-3 -3 3 -0.3 1.33
-3 -3 -3 1.88 4
3 3 3 0.33 1.39
3 -3 -3 1.86 1.45
3 3 3 -2.75 3.77
3 -3 3 -0.65 1.68
3 -3 3 1.14 1.71
-3 3 3 1.09 1.77
3 3 3 8.86 4.53
3 3 3 0.36 1.04
3 -3 3 -1.53 4
-3 3 -3 4.14 3.59
3 -3 3 2.7 2.35
3 -3 3 1.75 1.37
3 3 3 0.42 1.33
-3 4 3 406.3 28.78
3 -4 3 412.21 29.59
-3 4 3 391.77 27.59
3 4 -3 376.39 28.62
3 -4 3 378.99 27.96
3 4 -3 361.56 27.99
3 -4 3 350.68 29.11
-3 4 -3 369.52 29.66
3 -4 -3 362.18 28.49
-3 -4 3 353.58 28.27
3 -4 3 365.71 27.99
3 4 3 412.86 31.43
3 -4 3 388.57 27.8
-3 -4 3 375.21 28.87
-3 4 3 370.68 28.67
3 4 3 397.1 29.47
-3 -4 3 394.68 27.55
3 -4 -3 338.23 28.31
3 4 3 420.27 34.58
3 -4 3 381.14 33.64
-3 -4 -3 380.44 34.87
-3 4 -3 374.52 34.76
3 -4 3 388.96 29.66
3 4 3 406.12 27.92
-3 4 -3 371.07 29.89
3 4 3 368.81 29.07
3 4 3 442.29 33.75
3 -4 3 402.35 33.31
-3 4 3 378.72 28.77
-3 -4 -3 356.59 32.27
-3 4 -3 363.08 32.48
3 4 3 375.53 27.64
3 4 3 418.06 32.82
3 -4 3 412.35 32.64
3 -4 3 353.76 29
3 -4 3 374.2 33.61
3 4 3 412.12 34.1
3 -4 3 303.42 30.09
-3 5 -3 0.83 1.4
-3 5 3 0.94 1.13
3 -5 3 1.42 1.96
3 5 -3 0.54 1.5
-3 5 3 -0.66 1.8
-3 5 -3 6.29 2.82
3 5 3 5.96 3.23
-3 -5 3 2.86 1.49
3 -5 -3 3.76 1.81
3 5 -3 -0.41 1.19
-3 -5 3 0.93 1.45
3 -5 3 1.29 1.25
3 5 3 0.72 1.52
-3 5 3 3.7 1.89
-3 5 -3 1.59 1.95
-3 -5 3 -0.3 1.34
3 -5 3 1.44 3.31
3 5 3 2.99 3.67
-3 -5 -3 7.01 4.57
-3 5 -3 3.46 3.68
3 -5 -3 0.53 1.13
3 5 3 5.02 3.62
3 -5 3 -3.89 3.73
3 -5 3 2.76 1.8
-3 5 3 6.59 2.57
3 5 3 7.05 3.95
3 -5 3 1.14 2.98
-3 -5 -3 3.85 3.53
-3 5 -3 1.29 2.76
3 -5 3 5.69 4.09
3 5 3 1.42 3.27
3 -5 3 0.98 2.54
-3 -5 -3 0.71 1.31
-3 6 3 117.26 9.09
3 -6 3 80.64 10.41
3 6 -3 90.94 9.77
-3 6 -3 112.81 9.45
-3 6 3 113.89 10.62
-3 6 3 101.04 9.86
-3 6 -3 70.08 10.31
3 -6 3 109.23 10.59
3 -6 -3 86.15 9.61
-3 -6 3 96.56 9.48
3 6 3 121.29 12.31
-3 -6 3 118.3 10.44
3 6 3 120.57 11.35
-3 -6 -3 124.85 15.18
-3 -6 3 107.98 8.89
-3 6 -3 101.52 14.45
-3 -6 -3 95.61 8.96
-3 6 -3 99.04 10.85
3 -6 -3 104.3 9.97
3 6 3 109.08 12.99
3 -6 3 121.66 13.6
-3 -6 -3 126.48 13.5
-3 6 -3 117.13 13.26
3 -6 3 106.96 13.6
3 6 3 121.56 14.02
3 -6 3 94.28 11.38
3 -6 3 116.89 11.21
-3 6 3 97.22 9.9
3 -7 3 410.38 36.62
3 7 -3 444.8 35.94
-3 7 3 481.72 36.45
-3 7 3 496.55 36.03
-3 7 -3 354.62 36.41
-3 7 3 459.76 34.57
-3 7 -3 495.55 35.19
3 -7 -3 480.59 35.9
3 7 3 550.72 38.82
-3 -7 3 496.2 36.07
-3 -7 3 461.41 35.39
3 7 3 544.05 37.83
-3 -7 -3 541.66 42.01
-3 7 -3 486.51 40.99
-3 -7 3 470.23 34.5
-3 -7 -3 479.33 34.86
-3 7 -3 450.85 36.92
3 -7 -3 451.78 35.86
3 7 3 522.66 39.58
3 -7 3 570.24 40.39
-3 -7 -3 503.27 39.35
3 -7 3 503.76 40.19
3 7 3 482.22 39.88
3 -7 3 528.77 38.44
-3 7 -3 527.7 39.7
3 -7 3 500.98 37.38
-3 7 3 473.68 35.77
3 -8 3 171.31 15.22
3 8 -3 141.51 13.92
-3 8 3 163.31 14.26
-3 8 3 134.24 13.39
-3 8 -3 127.97 14.66
-3 8 -3 162.5 13.05
-3 8 3 142.9 12.43
3 8 3 185.12 15.72
3 -8 -3 141.87 13.57
3 8 3 182.2 16.1
-3 8 -3 154.82 13.89
-3 -8 3 172.09 14.05
3 -8 -3 157.77 14.05
-3 -8 -3 170.31 18.31
-3 8 -3 125.98 16.56
-3 -8 -3 139.81 12.63
-3 -8 3 148.44 12.34
-3 8 -3 165.03 15.06
3 8 3 154.31 16.25
3 -8 3 125.18 15.43
-3 -8 -3 160.38 16.35
-3 8 -3 159.39 16.38
3 -8 -3 139.96 13.63
3 -8 3 160.71 17.1
3 8 3 156.91 16.96
3 -8 3 178.07 15.97
3 -8 3 174.15 15.44
-3 8 3 159.7 13.81
-3 9 -3 126.36 10.57
3 -9 3 138.11 12.71
-3 9 3 92.12 10.67
-3 9 3 121.59 11.57
3 9 -3 117.23 11.76
-3 9 -3 125.22 13
-3 9 3 111.14 9.92
3 9 3 120.89 12.85
-3 -9 -3 104.51 8.87
-3 -9 3 114.07 11.05
3 9 3 132.11 13.21
3 -9 -3 102.92 10.92
-3 9 -3 104.15 10.98
-3 -9 -3 120.9 14.81
-3 -9 -3 98.32 9.92
-3 9 -3 97.93 13.79
-3 -9 3 112.23 9.81
-3 9 -3 115.49 12.42
3 -9 3 119.11 13.29
3 9 3 127.22 13.34
-3 -9 -3 98.08 12.59
-3 9 -3 123.32 13.41
3 -9 -3 116.54 11.3
-3 9 3 114.15 10.97
3 -9 3 124.4 14.16
3 -9 3 135.46 13.23
3 9 3 107.84 13.43
3 -9 3 118 12.67
-3 10 -3 23.94 3.92
-3 10 -3 32.31 5.89
3 10 -3 24.67 5.24
-3 10 3 26.1 4.76
3 10 3 23.19 5.19
3 10 -3 27.04 5.26
-3 -10 -3 24.61 3.01
-3 -10 3 21.53 4.26
3 10 3 32.21 6.02
-3 10 3 22.24 4.45
3 10 -3 14.3 2.36
-3 -10 -3 31.89 4.25
3 10 3 31.42 5.96
3 -10 3 21.33 5.38
-3 -10 -3 35.55 7.44
-3 10 -3 30.49 6.85
-3 10 -3 26.59 5.69
3 -10 3 18.06 4.87
-3 10 3 18.48 3.98
3 -10 3 22.44 5.55
3 10 3 15.52 5.21
-3 -10 -3 22.3 5.44
-3 10 -3 23.37 5.6
3 -10 -3 27.3 4.73
-3 -10 3 26.12 3.64
3 -10 3 31.1 5.92
-3 11 -3 31.5 4.86
3 11 -3 41.26 6.43
-3 11 3 31.5 5.76
3 11 3 34.91 6.28
-3 -11 -3 29.78 3.69
3 11 -3 36.76 6.11
3 11 3 27.8 6.13
3 11 -3 27.3 3.43
-3 -11 -3 35.19 4.78
3 11 3 34.43 6.3
3 -11 3 24.01 5.59
-3 -11 -3 23.34 6.53
-3 11 -3 34.76 7.29
-3 11 -3 28.53 5.99
3 -11 3 20.57 5.37
-3 -11 -3 29.73 6.09
-3 11 -3 38.31 6.69
3 -11 -3 25.4 4.91
3 -11 3 28.99 6.45
3 11 3 33.14 6.89
-3 -11 3 31.33 4.24
3 -11 3 24.16 5.69
-3 12 -3 193.53 15.53
-3 12 3 190.26 16.52
-3 -12 3 158.63 14.64
-3 -12 -3 162.02 13.61
3 12 -3 206.13 17.27
3 12 3 178.5 17.57
-3 -12 3 160.22 14.35
-3 -12 -3 167.54 14.97
-3 -12 -3 197.47 19.39
-3 12 -3 157.87 18.15
3 12 -3 155.26 13.41
-3 12 -3 184.96 17.99
3 12 3 187.9 17.27
3 -12 3 181.82 17.34
3 -12 -3 181.16 16.12
3 -12 3 167.97 17.41
3 12 3 169.18 17.65
3 -12 3 116.61 16.45
-3 -12 -3 198.84 17.82
-3 12 -3 185.21 17.46
-3 -13 3 32.56 4.66
-3 13 -3 26.62 4.83
-3 13 3 22.23 5.09
3 13 -3 30.08 5.87
-3 -13 -3 20.91 3.47
3 13 3 20.01 5.55
-3 -13 -3 25.97 4.54
3 13 3 20.71 4.97
3 -13 3 24.27 5.38
3 13 -3 22.06 3.38
-3 13 -3 27.95 6.35
3 13 3 21.7 5.67
3 -13 3 13.59 5.07
3 -13 -3 32.55 5.54
3 -13 3 24.53 5.79
-3 14 3 77.31 9.84
-3 14 -3 84.15 9.5
-3 -14 3 87.43 9.05
-3 -14 -3 76.94 7.89
3 14 -3 85.24 10.48
-3 -14 -3 87.37 9.38
3 14 -3 59.94 7.54
3 14 3 79.38 9.79
3 -14 3 94.31 10.47
-3 14 -3 78.33 11.36
3 -14 -3 81.55 9.83
3 -14 3 52.02 9.63
3 14 3 86.65 10.92
3 -14 3 85.31 10.83
-3 15 3 149.63 14.57
-3 15 -3 123.05 12.98
-3 15 -3 136.61 15.09
-3 -15 -3 134.14 11.81
3 15 -3 112.75 13.62
-3 -15 -3 149.17 13.59
3 15 -3 103.4 11.32
-3 15 -3 144.79 16.24
3 15 3 126.5 13.05
3 -15 3 120.14 13
3 -15 -3 136.07 13.74
3 -15 3 110.6 13.16
3 -15 3 136.23 14.27
3 15 3 125.77 14.04
-3 16 -3 90.96 10.48
-3 16 3 85.13 11.08
-3 16 -3 110.61 12.58
-3 -16 -3 76.09 8.5
3 16 -3 81.44 10.92
-3 -16 -3 84.41 10.09
3 -16 3 66.82 9.1
3 16 -3 66.18 8.54
-3 16 -3 108.26 13.74
3 -16 -3 95.29 10.95
3 -16 3 74.31 10.09
3 16 3 95.89 11.24
-3 17 -3 501.9 37.02
-3 17 3 573.29 38.87
-3 17 -3 647.36 40.89
-3 -17 -3 454.27 34.48
3 17 -3 342.23 36.04
3 17 -3 361.45 34.06
-3 17 -3 564.1 41.27
3 -17 3 403.96 34.98
-3 -17 -3 512.99 36.89
3 -17 -3 484.6 36.93
3 17 3 399.76 36.06
-3 18 -3 145.47 14.53
-3 18 -3 135.94 14.73
-3 18 3 149.35 15.1
3 18 -3 88.75 12.55
-3 18 3 123.67 10.46
3 18 3 164.15 15.47
3 18 -3 76.7 10.68
-3 18 -3 123.64 16.11
-3 -18 -3 164.96 14.8
-3 -18 3 79.07 10.66
3 -18 -3 86.48 12.17
-3 19 -3 100.81 12.55
-3 19 3 141.07 14.97
-3 19 -3 153.06 15.08
3 19 -3 92.84 12.17
-3 19 3 95.17 9.27
3 19 3 135.37 13.91
-3 19 3 75.26 10.37
3 19 -3 58.01 9.64
-3 19 -3 102.99 14.71
-3 -19 -3 130.67 13.48
3 -19 -3 93.65 11.88
-3 -19 3 85.91 9.86
3 -19 3 139.4 13.96
-3 20 -3 6.71 3.68
-3 20 -3 -2.65 4.3
-3 20 3 -1.55 3.3
3 20 -3 -1.2 3.12
3 20 3 2.57 3.15
-3 -20 -3 -1.24 3.57
3 20 -3 -0.9 2.83
-3 20 -3 10.11 5.82
3 -20 3 1.27 2.47
3 -20 -3 2.28 2.96
-3 -20 3 -1.93 2.43
-3 21 -3 95.18 12.86
-3 21 -3 56.64 11.13
-3 21 3 95.88 13.61
3 21 -3 102.34 12.3
3 21 3 124.34 13.45
-3 -21 -3 76.74 11.6
3 21 -3 83.43 10.63
-3 21 -3 104.82 15.39
3 -21 -3 119.95 12.77
3 -21 3 114.75 13.02
-3 22 3 32.74 7.58
-3 22 -3 28.31 6.81
-3 22 -3 17.49 5.88
3 22 -3 15.1 5.39
3 22 3 32.18 6.71
3 22 -3 22.57 5.28
-3 -22 -3 21.9 6.27
-3 22 -3 28.25 8.19
3 -22 3 34.5 6.85
3 -22 -3 17.62 5.22
-3 23 -3 30.75 7.05
-3 23 3 30.44 7.19
3 23 -3 28.4 6.23
3 23 3 36.28 7.31
-3 -23 -3 20.56 6.41
3 -23 3 16.62 5.25
3 -23 -3 21.42 5.6
-3 24 -3 4.41 4.43
3 24 -3 5.58 4.76
-3 -24 -3 8.22 4.62
3 -24 -3 4.2 3.31
-3 25 -3 223.23 23.72
-3 -25 -3 233.42 23.66
3 -25 -3 265.58 22.73
3 0 -4 9.61 2.42
3 0 4 11.7 2.76
3 0 4 10.12 2.36
-3 0 4 17.99 3.68
-3 0 4 14.74 3.06
3 0 4 6.56 1.79
3 0 4 11.31 2.52
3 0 4 7.74 3.53
3 0 4 14.66 3.28
3 0 4 9.15 2.95
3 0 4 4 3.95
3 0 4 14.5 5.64
-3 0 -4 6.88 5.32
3 0 -4 10.13 2.54
3 0 4 15.37 5.55
3 0 4 8.29 2.3
3 0 4 18.51 6.66
-3 0 -4 13.75 5.42
-3 0 4 8.89 2.61
3 0 4 9.58 2.31
3 0 4 14.43 4.05
3 1 4 96.44 7.84
3 -1 4 75.27 7.61
-3 1 4 96.57 8.13
-3 1 -4 82.73 8.08
3 -1 4 106.28 9.09
3 1 -4 89.43 8.11
3 1 4 84.41 7.98
-3 -1 4 85.27 8.4
3 1 4 80.16 6.92
3 -1 -4 84.11 8.4
3 1 4 87.46 8.18
3 -1 4 62.8 9.36
-3 -1 4 91.52 8.97
3 1 4 52.18 9.17
3 -1 4 78.24 8.47
3 -1 4 90.42 7.84
-3 1 4 87.01 8.48
3 1 4 70.07 7.5
3 -1 4 90.26 13.8
3 1 4 63.96 12.17
3 -1 4 82.56 7.92
3 -1 -4 86.07 8.17
3 1 4 82.34 12.07
3 -1 4 52.58 10.56
-3 -1 -4 57.78 11.87
-3 1 -4 72.91 13.01
3 -1 4 95.21 9.43
3 1 -4 86.13 8.01
3 1 4 83.38 8.88
-3 -1 4 81.91 7.74
-3 -1 4 64.77 6.27
-3 1 4 74.47 8.21
3 1 4 62.65 10.79
3 -1 4 69.19 11.06
3 -1 4 53.62 10.99
3 1 4 64.07 11.49
-3 -1 -4 61.22 11.05
-3 1 -4 60.46 11.08
3 -1 4 87.45 10.33
3 1 4 83.73 9.27
-3 -1 4 86.35 8.58
3 -1 4 71.52 7.82
3 1 4 86.44 7.72
3 -2 4 15.25 3.52
3 2 4 14.44 3.01
3 2 -4 10.76 2.76
-3 2 -4 12.54 2.88
3 2 4 15.34 2.41
3 -2 4 5.81 2.29
-3 2 4 11.96 2.78
-3 -2 4 8.39 2.99
-3 2 4 7.21 2.43
3 2 4 9.9 2.14
-3 -2 4 9.01 2.74
3 -2 4 10.94 2.37
3 -2 -4 10.2 2.73
3 -2 4 13.1 3.85
3 2 4 15.35 4.74
3 2 4 10.5 2.85
3 -2 4 11.95 3.12
-3 2 4 14.86 2.82
3 2 4 9.95 3.39
3 -2 4 11.06 6.02
-3 -2 4 12.43 2.7
3 2 4 16.46 5.85
-3 -2 -4 15.02 6.22
3 2 4 11.87 2.96
-3 -2 4 4.97 1.12
3 -2 4 14.66 3.6
3 -2 4 16.35 4.68
3 2 4 11.54 5.5
3 -2 4 10.55 2.81
3 2 4 10.45 2.33
3 -2 -4 6.02 2.37
3 -2 4 12.08 5.65
-3 2 4 14.69 3.29
-3 2 -4 16.23 5.5
3 -2 4 9.9 2.56
3 2 4 12.04 3.43
3 3 -4 1307.69 98.99
-3 3 4 1561.93 98.69
3 -3 4 1403.97 98.55
3 3 4 1401.52 97.38
3 3 4 1374.36 99.02
3 -3 4 1349.92 99.58
-3 3 -4 1452.87 99.63
-3 3 4 1356.05 98.57
3 -3 4 1415.13 100.19
3 3 4 1490.81 99.82
-3 -3 4 1456.9 99.48
3 3 4 1412.52 97.54
3 -3 -4 1376.51 99.11
3 -3 4 1307.99 99.97
3 3 4 1389.74 102.4
-3 -3 4 1440.5 99.66
3 -3 4 1404.01 98.05
-3 3 4 1328.58 99.32
3 3 4 1452.64 98.65
3 -3 4 1523.25 106.39
-3 -3 -4 1453.9 107.79
3 -3 -4 1367.04 99.11
3 -3 4 1325.64 98.77
3 -3 4 1490.06 100.34
3 3 4 1449.75 100.31
3 3 4 1523.62 104.7
-3 -3 4 1481.29 98.45
-3 3 -4 1399.45 104.76
3 3 4 1345.26 97.94
-3 3 4 1378.2 99.19
3 3 4 1461.5 103.97
3 -3 4 1309.78 101.7
3 3 4 1538.21 99.78
3 -3 4 1416.97 105.44
3 -3 4 1330.7 99.3
3 4 4 19.44 3.83
3 -4 4 22.17 4.97
3 4 -4 20.49 3.76
-3 4 -4 31.91 4.97
-3 4 4 23.5 3.77
3 -4 4 16.94 3.6
3 4 4 23.72 2.56
-3 4 4 21.78 4.05
3 4 4 21.25 2.9
-3 -4 4 31.77 4.72
3 -4 4 19.9 3.07
-3 4 4 22.32 3.85
3 -4 4 25.97 4.56
-3 -4 4 24.68 4.12
3 -4 -4 24.59 4.07
3 4 4 21.53 5.71
3 -4 4 22.4 4.25
3 4 -4 19.91 3.01
3 4 4 28.55 4.82
3 4 4 14.22 4.15
-3 -4 4 19.44 3.63
3 -4 4 26.91 7.46
3 4 4 17.34 6.74
3 4 4 22.69 3.92
3 4 4 33.68 7.47
3 -4 4 33.27 7.59
-3 -4 -4 40.66 9.13
-3 4 -4 28.35 7.82
3 -4 -4 32.98 4.49
3 -4 4 26.29 4.73
3 -4 4 35.11 7.3
3 -4 4 19.12 4.05
3 4 4 37.48 7.6
-3 4 4 24.58 4.2
3 4 4 21.4 3.09
-3 -4 -4 12.09 5.31
-3 4 -4 23.14 6.33
3 -4 4 16.2 6.16
3 4 4 14.49 5.97
3 -4 4 23.31 6.06
3 4 4 22.74 3.93
3 -4 4 16.19 3.68
-3 -4 -4 31.3 4.27
-3 5 4 4199.41 277.96
3 5 -4 3760.31 278.91
3 -5 4 4166.09 278.41
3 -5 4 3826.81 279.17
-3 5 4 3853.96 278.24
-3 5 -4 4134.14 278.66
-3 5 -4 4149.62 280.19
3 5 -4 4120.92 277.32
3 -5 4 3684.98 279.81
3 5 4 4496.56 280.02
-3 -5 4 4040.93 278.66
3 -5 4 3901.57 278.47
3 5 4 4268.33 282.42
3 -5 -4 3976.51 278.82
3 -5 4 3822.14 277.04
-3 -5 4 3927.42 278.83
-3 5 4 4035.73 279.02
3 -5 -4 3830.86 278.84
3 -5 4 4343.73 285.21
3 5 4 4259.65 285.15
-3 -5 4 4010.97 277.81
-3 -5 -4 4495.32 287.85
-3 5 -4 4142.39 286.79
3 -5 4 4242.49 280.41
-3 -5 -4 3977.09 278.14
-3 5 -4 3952.97 280.45
3 5 4 4373.07 283.83
3 -5 4 4554.98 284.31
3 -5 4 3836.18 278.77
-3 -5 -4 4262.36 284.31
-3 5 -4 4271.88 284.5
-3 5 4 4006.27 278.74
3 5 4 3909.7 276.85
3 5 4 4417.15 283.43
3 -5 4 4161.77 282.73
3 -5 4 4281.93 282.2
3 5 4 3856.38 277.88
3 -5 4 4304.75 284.81
3 5 4 4520.94 285.18
3 -5 4 4217.17 279.77
-3 6 -4 35.67 4.99
3 -6 4 35.57 6.21
-3 6 4 26.87 4.34
-3 6 -4 32.19 5.62
3 6 -4 25.57 4.77
-3 6 4 34.26 5.46
-3 6 4 29.96 4.97
3 -6 4 38.46 4.63
-3 -6 4 40.41 5.52
3 -6 -4 29.29 4.91
3 6 4 46 6.44
3 6 4 23.72 5.99
-3 -6 4 25.98 4.65
3 -6 4 37.53 5.48
-3 6 4 30.72 4.75
3 6 -4 28.23 3.87
-3 6 -4 34.72 6.13
3 -6 -4 32.5 5.19
3 -6 4 39.95 8.21
3 6 4 52.81 9.39
3 6 4 53.41 8.69
3 -6 4 47.12 8.33
-3 -6 4 22.94 4.24
-3 -6 -4 40.41 8.81
-3 6 -4 24.93 7.6
3 6 4 39.44 8.32
3 6 4 44.72 7.81
3 -6 4 39.66 7.43
-3 6 4 40.24 5.26
-3 -6 -4 44.4 8.28
-3 6 -4 33.82 7.57
3 -6 4 44.37 7.67
-3 -6 -4 37.47 4.9
3 -6 4 35.1 8.05
3 6 4 30.19 4.01
3 7 -4 709.14 58.07
-3 7 4 786.73 58.6
-3 7 4 701.51 57.32
-3 7 -4 826.07 60.15
3 7 -4 765.25 56.32
-3 7 -4 816.79 57.76
3 -7 4 999.59 60.57
-3 7 4 783.03 56.96
3 -7 -4 730.03 57.74
-3 -7 4 773.7 57.85
3 -7 4 777.06 56.29
3 7 4 921.11 61.99
3 7 4 850.82 59.68
-3 -7 4 835.16 58.09
3 -7 -4 709.15 57.92
3 -7 4 882.29 63.21
3 7 4 905.37 63.77
-3 -7 -4 880.94 65.22
-3 7 -4 802.84 64.27
-3 -7 4 775.65 56.83
-3 -7 -4 761.35 57.21
-3 7 -4 853.55 60.21
3 7 4 860.56 61.85
3 -7 4 890.61 62.47
-3 7 4 799.55 57.77
3 7 4 829.53 61.23
3 -7 4 759.48 60.53
3 -7 4 881.54 61.3
3 -7 4 819.94 62.73
3 7 4 858.84 63.05
-3 -7 -4 858.21 62.47
-3 7 -4 854.9 62.62
-3 8 4 5.12 1.9
-3 8 -4 4.73 2.1
-3 8 4 10.1 3.12
-3 8 -4 3.24 2.68
3 8 -4 5.43 2.73
3 8 4 5.89 3.1
-3 -8 4 8.34 2.82
-3 -8 4 5.71 2.24
-3 8 4 7.51 2.64
3 8 4 0.96 2.54
-3 8 -4 6.03 2.92
3 -8 4 9.85 4.75
3 8 4 4.42 3.86
3 8 4 9.61 4.32
3 -8 4 11.24 4.49
-3 -8 -4 7.16 4.68
-3 8 -4 5.34 3.81
3 -8 -4 6 2.64
-3 8 4 4.18 2.36
3 8 4 6.92 3.77
-3 8 -4 8.2 4.46
3 -8 4 10.02 4.23
3 -8 4 10.97 4.06
3 -8 4 10.01 5.57
3 8 4 7.18 4.16
-3 -8 4 8.58 2.42
-3 -8 -4 8.74 2.5
-3 9 4 50.91 7.11
-3 9 -4 43.16 6.2
-3 9 -4 29.45 7
3 9 -4 43.95 6.9
-3 9 4 56.13 6.24
-3 -9 4 50.68 6.82
3 9 4 66.18 9.08
-3 9 4 53.12 6.75
3 9 4 55.29 8
-3 9 -4 52.06 7.76
3 -9 4 50.21 8.81
3 9 4 63.98 9.88
-3 -9 -4 53.35 6.47
3 9 4 63.78 8.9
3 -9 4 61.4 9.07
-3 -9 4 43.4 5.6
3 -9 -4 45.23 6.84
3 9 4 46.26 8.89
3 9 4 79.74 9.63
3 -9 4 49.7 8.34
3 -9 4 62.64 9.78
3 -9 4 81.65 9.7
-3 10 4 8.72 2.57
-3 10 -4 7.03 2.51
-3 10 -4 12.1 4.86
3 10 -4 12.6 3.89
-3 10 4 18.85 4.14
3 10 4 16.35 4.8
-3 -10 -4 7.44 2.1
3 10 4 7.88 3.84
-3 10 -4 8.65 3.81
3 -10 4 7.87 4.16
3 10 4 9.62 4.82
3 -10 -4 6.94 3.18
3 10 4 20.14 5
3 -10 4 13.96 4.78
3 10 4 16.43 5.49
3 10 4 8.58 4.42
3 -10 4 14.91 5.31
3 -10 4 5.49 3.87
-3 -10 -4 6.79 2.55
-3 -10 4 16.01 3.02
-3 11 4 7.51 2.66
-3 11 -4 15.75 3.26
-3 11 -4 1.23 3.25
3 11 -4 8.81 3.34
3 11 4 7.94 4.19
-3 11 4 4.29 2.75
3 11 4 5.71 3.03
3 11 4 6.79 3.45
-3 -11 -4 8.46 2
3 -11 -4 11.24 3.77
3 11 4 13.71 4.43
3 -11 4 10.09 4.06
-3 11 -4 10.34 3.91
3 -11 4 13.21 4.9
-3 -11 -4 15.8 3.57
3 -11 4 17.57 4.61
-3 -11 4 6.67 2.26
-3 12 4 4.53 2.29
-3 12 -4 4.39 2.41
-3 12 -4 8.74 4.35
3 12 -4 6.46 3.52
-3 12 4 8.21 3.19
3 -12 4 2.55 4.01
3 12 4 1.29 3.38
-3 -12 -4 8.51 2.19
3 12 4 10.27 3.86
-3 12 -4 3.68 3.04
3 -12 -4 5.08 2.95
3 12 4 4.05 3.2
3 -12 4 6.34 3.91
-3 -12 -4 9.13 3.01
3 -12 4 8.82 3.73
-3 -12 4 3.8 2.25
-3 13 -4 1258.6 84.41
-3 13 4 1327.68 85.71
3 13 -4 1240.44 86.49
3 13 4 1346.74 87.1
-3 -13 -4 1187.18 82.25
-3 -13 -4 1287.49 84.4
-3 13 -4 1395.06 88.2
3 13 4 1125.33 85.18
3 -13 4 1177.65 85.57
-3 -13 4 1102.74 82.96
3 13 -4 975.11 81.6
3 -13 -4 1250.69 86.39
3 -13 4 1169.35 86.93
3 13 4 1060.3 86.38
-3 14 -4 4.34 2.72
-3 14 4 4.97 3.23
3 14 -4 1.26 3.1
3 -14 4 -3.58 3.87
3 14 4 3.69 3.7
-3 -14 -4 -0.48 2.04
3 14 4 -1.16 2.47
-3 14 -4 2.83 3.25
3 14 -4 1.31 1.7
3 -14 -4 2.42 2.57
3 14 4 4.72 3.18
3 -14 4 0.97 2.92
-3 -14 -4 0.81 2.12
3 -14 -4 3.66 2.75
-3 -14 4 1.88 2.18
-3 15 -4 1274.12 88.08
3 15 -4 1270.1 90.42
-3 15 4 1324.49 88.82
3 15 4 1375.75 90.1
-3 -15 -4 1282.95 85.78
3 15 4 1162.64 88.45
-3 -15 -4 1241.46 87.67
3 -15 4 1121.53 87.64
-3 15 -4 1407.73 92.12
3 15 -4 986.59 84.88
3 -15 -4 1251.7 90.1
3 -15 -4 1308.31 88.21
3 15 4 1148.6 89.41
-3 16 4 13.33 4.81
-3 16 -4 15.37 4.79
3 16 -4 14.62 4.99
3 16 4 10.71 5.03
-3 -16 -4 11.09 3.32
3 16 4 11.04 4.48
3 16 -4 8.02 2.73
3 -16 -4 18.29 5.79
3 -16 4 18.22 4.49
-3 -16 -4 17.47 4.7
-3 16 -4 16.37 6.09
3 -16 -4 15.95 4.66
3 -16 4 11.15 4.2
-3 17 -4 447.54 34.12
3 17 -4 359.33 34.98
-3 17 -4 416.92 34.64
-3 17 4 489.92 35.08
3 17 4 423.4 33.65
-3 -17 -4 448.89 33.74
-3 17 -4 402.97 36.5
3 17 -4 334.37 30.53
3 -17 -4 385.24 35.19
3 -17 -4 372.77 32.72
3 -17 4 408.41 33.43
-3 18 4 2.53 3.48
-3 18 -4 -1.33 3.06
-3 18 -4 5.99 3.75
3 18 -4 -1.68 3.57
3 18 -4 0.72 2.35
3 -18 -4 1.62 4.44
-3 -18 -4 -1.13 3.11
-3 18 -4 -1.86 3.6
3 -18 -4 -1.09 2.5
3 -18 4 3.31 3.45
-3 19 4 28.07 6.63
-3 19 -4 26.92 6.36
-3 19 -4 23.14 6
3 19 -4 12.56 6.52
3 19 -4 35.02 6.72
-3 19 4 38.33 5.17
3 19 4 39.84 7.31
-3 -19 -4 24.23 6.06
-3 19 -4 31.39 8.39
3 19 -4 25.73 4.96
3 -19 -4 22.05 5.39
3 -19 -4 21.52 5.54
3 -19 4 41.96 7.23
-3 20 4 -1.44 5.17
-3 20 -4 2.71 3.91
-3 20 -4 2.76 3.79
3 20 -4 9.04 5.21
3 20 4 2.59 3.18
-3 -20 -4 -1.29 2.97
-3 20 -4 8.3 5.7
3 20 -4 3.52 2.65
3 -20 4 2.61 3.4
3 -20 -4 7.76 3.97
-3 21 -4 20.57 5.8
-3 21 -4 14.69 5.51
3 21 -4 5.43 5.54
-3 21 4 20.66 6.4
3 21 4 21.25 5.85
3 -21 -4 14.13 5.83
-3 -21 -4 13.69 5.14
-3 21 -4 13.15 6.67
3 -21 4 13.11 4.93
3 -21 -4 15.15 4.81
-3 22 4 -1.68 6
-3 22 -4 1.56 3.83
3 22 -4 1.81 4.73
3 22 4 2.67 3.67
-3 -22 -4 -1.45 3.97
3 -22 -4 1.05 2.89
-3 23 -4 184.76 22.61
-3 23 4 241.57 24.38
-3 -23 -4 182.74 22.17
-3 24 -4 -1.6 5.9
-3 -24 -4 -5.94 5.47
-3 0 5 2.89 1.98
3 0 5 2.22 2.72
3 0 5 0.41 1.23
3 0 5 -0.52 1.35
3 0 5 0.73 1.42
3 0 5 -0.66 1.72
3 0 -5 -0.58 1.43
3 0 5 -0.57 1.48
-3 0 5 0.57 1.55
3 0 5 0.98 1.27
3 0 5 -1.22 2.99
3 0 5 -0.55 1.44
3 0 -5 -1.22 1.67
3 -1 5 1.5 2.27
3 1 5 7.96 2.54
3 1 -5 8.84 2.65
3 1 5 5.83 2.05
3 -1 5 2.75 1.68
-3 1 5 6.67 2.43
-3 1 5 10.07 3.01
3 1 5 12.79 4.17
-3 -1 5 8.01 2.7
3 -1 5 3.25 3.14
3 1 5 5.92 1.84
3 -1 5 6.79 2.03
3 -1 5 2.76 1.48
3 1 5 7.3 2.31
3 -1 5 4.25 2.4
3 1 5 6.34 2.77
-3 -1 5 2.34 1.28
-3 -1 5 6.85 2.12
3 1 5 4.82 2.1
3 -1 5 2.72 1.67
3 1 5 4 1.84
3 -1 5 4.63 1.97
3 -1 5 2.6 3.2
3 1 5 2.18 3.43
3 -1 -5 3.83 1.87
3 1 -5 2.93 1.79
3 -2 5 18.4 4.61
3 2 5 38.69 4.54
3 2 -5 25.95 4.62
3 2 5 33.16 4.7
3 -2 5 30.86 4.5
-3 2 5 22.54 4.2
3 2 5 19.02 5.28
-3 2 5 30.15 4.81
3 -2 5 29.69 5.86
-3 -2 5 24.22 4.65
3 -2 5 30.03 3.89
3 -2 -5 32.8 5.03
3 2 5 32.4 4
3 -2 5 20.87 4.19
3 2 5 19.69 3.95
-3 2 5 21.99 3.51
3 2 5 30.99 5.28
-3 -2 5 30.15 4.42
3 2 5 31.62 4.56
-3 -2 5 26.34 3.17
3 -2 5 22.42 4.08
3 2 5 24.55 3.55
3 -2 -5 28.27 4.7
3 -2 5 20.53 5.86
3 2 5 26.53 5.43
3 -2 5 31.11 4.48
-3 3 5 549.02 35.25
3 -3 5 487.86 34.93
-3 3 5 414.63 33.91
3 3 5 491.11 35.39
3 -3 5 467.86 35.51
3 -3 5 429.89 36.15
3 3 5 522.3 34.02
3 3 -5 465.82 35.49
-3 3 5 451.61 35.46
3 3 5 483.69 35.48
3 3 5 504.92 34.01
-3 -3 5 464.55 35.61
3 -3 -5 506.29 35.67
3 3 5 517.84 38.72
3 -3 5 415.92 36.04
3 -3 5 438.71 33.69
3 3 5 469.09 34.81
3 -3 -5 510.61 35.81
3 -3 5 452.18 35
-3 -3 5 416.27 32.62
-3 -3 5 486.04 34.72
3 3 5 451.42 33.62
3 -3 5 437.42 38.22
3 3 5 460.41 36.43
3 -4 5 52.3 7.42
3 4 -5 48.52 6.66
-3 4 5 49.15 6.28
3 -4 5 46.89 6.15
-3 4 5 48.8 5.74
3 -4 5 50.13 6.52
3 4 5 52.96 6.6
3 4 5 49.34 4.96
3 4 5 59.07 5.61
3 4 5 61.05 7.14
-3 -4 5 50.16 6.69
3 4 5 60 8.98
-3 4 5 50.1 6.68
3 -4 5 67.49 7.93
3 -4 5 50.93 5.21
-3 -4 5 53.75 6.24
3 4 5 51.37 6.36
3 4 5 46.71 5.05
3 -4 -5 54.65 6.85
3 -4 5 40.4 8.02
3 4 5 43.72 6.6
3 -4 5 39.7 6.01
3 -5 5 -0.9 2.48
-3 5 -5 0.68 1.55
3 5 5 1.36 1.56
3 5 5 0.19 0.84
-3 5 5 0.55 1.73
3 -5 5 1.15 1.65
3 5 5 -1.3 2.77
3 -5 5 2.21 2.12
-3 5 5 1.49 1.71
3 5 5 -1.41 1.1
3 -5 5 1.4 1.14
-3 -5 5 -2.15 1.76
3 -5 5 -0.69 1.7
-3 5 5 1.51 1.58
3 5 5 0.8 2.21
3 5 5 0.55 1.6
-3 -5 5 2.61 1.81
3 -5 -5 1.47 1.42
3 5 5 -1.8 1.02
3 -5 5 -1.31 3.6
3 5 5 0.64 2.36
3 -5 5 0.65 1.49
-3 -5 -5 0.62 1.42
3 -6 5 9.19 3.49
3 6 5 4.81 2.33
-3 6 -5 11.04 2.89
-3 6 -5 2.54 2.57
-3 6 5 3.82 2.04
3 6 -5 7.83 2.65
3 -6 5 9.89 2.83
3 6 5 3.03 0.77
3 6 5 2.71 2.65
3 -6 5 7.35 2.8
3 -6 5 4.97 1.31
3 6 5 6.95 1.91
-3 6 5 3.85 2.33
-3 -6 5 8.59 2.73
3 -6 5 1.41 2.23
-3 6 5 7.52 2.44
3 6 5 3.53 2.44
-3 -6 5 6.72 2.22
3 -6 -5 2.25 2.09
3 6 5 7.85 2.47
3 -6 5 1.29 3.36
-3 -6 -5 8.06 2.37
3 -6 5 3.36 1.87
-3 7 -5 8.48 2.77
-3 7 -5 9.27 3.34
-3 7 5 5.5 2.17
3 7 -5 2.52 2.33
-3 7 5 5.01 2.53
-3 7 5 4.81 2.63
3 7 -5 3.83 1.25
-3 -7 5 2.89 1.92
3 -7 5 8.91 2.8
-3 7 5 7.48 2.52
3 7 5 2.76 2.96
3 7 5 4.81 2.92
-3 7 -5 3.25 2.85
3 -7 -5 10.38 2.96
-3 -7 5 4.75 2.13
3 -7 5 9.04 4.06
3 7 5 3.77 1.85
-3 -7 -5 8.35 2.58
-3 8 -5 0.72 1.88
-3 8 5 0.57 1.55
-3 8 -5 1.01 2.32
3 8 -5 0.88 1.88
-3 8 5 0.85 1.81
3 8 5 -2.09 2.72
-3 8 5 1.24 1.78
3 -8 5 0.96 1.77
-3 -8 5 1.49 2.05
3 8 5 2.77 3.61
3 8 -5 2.3 1.18
-3 8 -5 2.25 2.58
3 -8 -5 2.53 2.43
-3 -8 5 0.55 1.43
-3 -8 -5 0.66 1.53
3 8 5 1.31 1.4
3 -8 5 1.27 3.11
-3 9 -5 2.21 2.13
-3 9 5 3.47 2.2
-3 9 -5 4.38 2.86
-3 9 5 7.73 3.17
3 9 -5 1.85 2.14
3 -9 5 3.15 1.44
-3 -9 5 2.32 2.13
3 9 5 1.36 3.14
-3 9 5 4.73 2.2
3 9 -5 4.31 1.37
3 9 5 1.13 2.42
-3 9 -5 12.86 4.07
3 -9 -5 3.54 2.31
-3 -9 -5 3.49 2.02
3 -9 5 1.25 3.07
-3 -9 5 -0.57 1.65
3 9 5 3.74 1.42
-3 10 5 28.84 5.2
-3 10 5 29.99 4.93
-3 10 -5 26.03 4.73
-3 10 -5 33.2 6.57
3 10 -5 22.56 5.11
3 10 5 26.53 6.22
-3 -10 5 25.74 4.99
3 10 5 22.89 5.44
3 10 -5 17.14 2.89
3 -10 5 25.28 3.1
-3 10 -5 37.9 6.93
3 -10 -5 20.71 4.93
3 -10 5 42.41 7.3
-3 -10 -5 33.09 5.15
-3 -10 5 26.15 4.44
3 11 -5 296.95 26.21
-3 11 5 340.75 26.1
-3 11 -5 213.44 26.06
-3 11 5 300.82 24.67
-3 11 -5 316.04 25.34
3 11 5 302.02 27
3 11 5 319.82 28.17
3 -11 -5 338.03 26.69
-3 -11 -5 329.71 25.36
-3 -11 5 286.77 24.38
-3 11 -5 345.31 28.04
3 -11 5 318.06 27.56
-3 12 5 23.01 4.62
-3 12 -5 24.95 5.09
-3 12 -5 20 6.22
3 12 -5 27.82 6.01
-3 12 5 32.49 5.63
3 12 5 27.48 6.32
-3 -12 -5 18.69 3.51
3 12 5 40.72 6.88
-3 12 -5 25.03 6.15
3 -12 -5 15.09 4.76
-3 -12 -5 18.82 4.54
3 -12 5 32.67 6.75
-3 -12 5 20.47 4.08
-3 13 -5 381.05 30.64
3 13 -5 345.78 31.76
-3 13 5 442.85 31.75
-3 13 -5 309.35 31.99
3 13 5 387.88 32.21
-3 -13 -5 367.73 28.65
-3 -13 -5 404.28 30.82
-3 13 -5 370.51 33
3 -13 -5 362.53 31.87
3 -13 5 419.23 32.98
-3 14 -5 8.15 4.1
-3 14 -5 4.74 3.1
3 14 -5 3.84 3.87
-3 14 5 6.21 3.38
-3 -14 -5 3.08 2.26
3 14 5 4.77 3.29
-3 14 -5 5.83 4.58
3 -14 -5 7.54 3.95
-3 -14 -5 5.53 3.22
-3 15 -5 61.95 8.8
3 15 -5 75.66 10.81
-3 15 5 62.78 9.03
3 15 5 67.32 9.44
-3 15 -5 63.7 10.54
-3 -15 -5 60.45 8.62
3 -15 -5 52.65 9.26
-3 16 -5 30.32 6.22
-3 16 5 34.16 6.32
3 16 -5 19.13 6.26
3 16 5 27.4 6.38
3 16 5 15.74 5.66
-3 16 -5 29.8 7.55
-3 -16 -5 27.14 5.87
3 -16 -5 34.58 7.51
3 -16 5 26.58 6.02
-3 17 -5 11.49 4.01
-3 17 5 8.15 4.31
3 17 -5 11.05 4.87
3 17 -5 13.35 5.42
3 17 5 35.82 6.87
3 17 5 22.22 5.57
-3 17 -5 21.06 6.37
3 17 -5 13.66 3.49
-3 -17 -5 22.09 5.28
3 17 -5 21.63 5.52
3 -17 -5 13.88 5.46
3 -17 5 18.17 5.47
-3 18 5 26.08 6.49
-3 18 -5 27.34 6.58
3 18 -5 20.18 6.72
3 18 -5 18.95 6.63
3 18 5 21.99 5.64
3 -18 -5 10.1 4.84
3 18 -5 22.15 4.42
3 -18 -5 26.33 7.32
-3 18 -5 46.49 9.13
-3 -18 -5 47 7.46
3 -18 5 24.39 6.2
-3 19 5 48.88 8.55
-3 19 -5 32.85 7.64
-3 19 -5 37.09 7.68
3 19 -5 35.72 8.71
3 19 5 51.25 8.1
3 -19 -5 29.94 6.43
3 -19 -5 22.77 7.23
-3 -19 -5 38.72 7.45
3 -19 5 36.17 7.22
-3 20 5 -1.38 5.86
-3 20 -5 1.44 3.95
-3 20 -5 5.74 4.13
3 20 -5 -1.89 4.65
3 -20 -5 -1.85 5.07
-3 -20 -5 7.94 4.45
3 -20 5 4.81 3.77
-3 21 -5 388.95 33.58
-3 21 5 416.27 33.92
-3 -21 -5 401.84 33.31
3 -21 5 410.67 32.15
-3 22 5 -1.62 6.58
-3 22 -5 3.21 3.94
-3 -22 -5 -1.49 3.87
-3 23 -5 122.87 16.04
-3 -23 -5 121.2 15.8
3 0 -6 10.01 3.65
3 0 6 16.61 4.15
3 0 6 19.81 5.22
-3 0 6 13.12 4.01
3 0 6 13.69 3.05
-3 0 6 10.29 3.85
3 0 6 20.35 3.78
3 0 6 14.54 4
3 0 6 29.78 6.29
-3 0 6 12.21 3.79
-3 0 6 9.57 2.69
3 0 6 13.04 3.88
3 0 6 18.58 3.43
3 0 6 18.65 6.05
3 0 -6 16.41 4.26
3 1 6 1882.04 128.78
3 -1 6 1862.03 128.56
-3 1 6 2198.48 129.32
-3 -1 6 2176.33 129.42
3 -1 6 1903.2 129.16
3 1 -6 1896.7 129.16
3 -1 6 1279.67 128.6
3 1 6 1568.81 128.52
3 1 6 1844.54 128.17
-3 1 6 1963.67 129.87
-3 -1 6 2063.33 130.17
3 1 6 1868.18 127.69
3 -1 6 1818.55 127.85
3 1 6 2022.24 132.04
3 -1 6 1809.89 130.97
3 -1 6 1801.66 127.53
3 1 6 1894.68 128.57
3 -1 6 1955.24 128.86
3 -1 -6 1991.52 129.48
-3 -1 6 1814.32 126.93
-3 -1 6 2049.62 128.78
3 1 -6 1979.28 129.39
3 1 6 1272.87 130.06
3 -1 6 1360.18 130.85
3 -1 6 1755.8 127.96
3 1 6 1683.11 127.18
3 2 -6 4.03 2.46
3 -2 6 9.18 3.2
-3 2 6 6.01 3.35
3 2 6 7.55 3.01
3 -2 6 10.88 4.23
-3 2 6 8.48 3.63
3 -2 6 13.21 4.6
3 2 6 6.64 2.34
-3 -2 6 -0.87 2.42
3 -2 6 10.65 2.98
3 -2 6 12.24 2.78
3 2 6 6.02 4.07
3 -2 6 10.91 3.59
3 2 6 7.36 2.69
3 2 6 6.49 2.73
-3 -2 6 1.27 2.44
-3 -2 6 3.62 1.82
3 2 6 3.41 1.7
3 2 6 12.34 4.93
3 -2 6 14.76 5.45
3 -2 -6 3.97 2.87
-3 3 6 378.84 26.24
3 -3 6 350.35 25.88
3 -3 6 358.81 26.24
3 -3 6 281.04 26.9
3 3 6 314.62 25.01
-3 3 6 274.88 23.97
3 3 -6 331.02 26.5
3 3 6 319.9 25.94
3 3 6 345.98 24.97
-3 -3 6 351.68 26.84
3 3 6 336.86 28.59
3 -3 6 279.43 26.78
-3 3 6 324.44 26.51
3 -3 6 321.92 24.18
3 3 6 350.34 25.89
3 -3 -6 366.96 26.84
-3 -3 6 316.27 23.74
-3 -3 6 335.5 25.63
3 3 6 283.55 27.33
3 -3 6 272.73 28.74
3 3 6 309.02 23.96
3 4 6 10.33 2.5
3 4 -6 11.21 3.58
-3 4 6 7.96 2.9
3 -4 6 7.14 2.78
3 -4 6 12.35 4.6
3 4 6 16.28 3.99
-3 4 6 10.2 3.29
3 4 6 9.71 2.55
-3 -4 6 5.97 3.04
3 -4 6 10.63 2.32
3 4 6 17.47 4.89
3 -4 6 13.62 3.18
-3 4 6 8.62 2.33
3 -4 6 12.9 4.06
-3 -4 6 9.42 2.96
3 4 6 16.32 3.51
3 4 6 7.5 1.85
3 4 6 5.08 3.7
3 -4 6 12.02 5.42
3 -4 -6 10.98 3.43
3 5 -6 73.14 8.67
-3 5 6 76.91 7.94
3 -5 6 62.15 7.55
-3 5 6 49.99 6.29
3 -5 6 71.74 7.97
3 5 6 61.66 5.98
3 5 6 57.8 6.47
3 5 6 62.67 8.16
-3 -5 6 62.95 8.16
-3 5 6 54.79 7.82
3 5 6 66.11 9.84
3 -5 6 64.07 8.06
3 -5 6 56.14 5.66
-3 -5 6 68.71 7.6
3 -5 -6 69.72 8.44
3 5 6 72.08 7.92
-3 -5 -6 64.27 7.76
3 5 6 48.5 5.37
3 5 6 74.38 8.87
3 -5 6 51.14 9.51
3 6 6 9.23 1.78
-3 6 -6 10.56 3.2
3 6 -6 5.44 2.78
-3 6 6 9.08 2.98
3 6 6 9.76 3.73
3 6 6 6.01 2.4
-3 6 6 4.32 2.86
3 -6 6 6.32 1.48
3 6 6 12.2 4.74
-3 -6 6 5.93 2.8
3 -6 6 11.2 3.22
3 -6 6 6.57 2.67
-3 6 6 11.95 2.8
-3 -6 6 11.87 3.16
3 -6 6 5.93 4.67
3 6 6 8.48 3.58
3 -6 -6 8.79 3.28
-3 -6 -6 7.51 3.11
3 7 6 181.81 16.15
3 7 -6 281.24 21.4
-3 7 6 283.71 20.19
-3 7 6 207.41 18.61
-3 7 -6 303.23 21.15
3 7 6 297.31 22.5
-3 -7 6 264.66 20.72
3 7 6 295.95 23.97
3 -7 6 231.84 19.47
3 7 6 292.81 19.07
-3 7 6 287.17 21.34
-3 -7 6 282.73 19.86
3 -7 -6 266.54 20.97
-3 -7 -6 291.21 20.65
3 -7 6 260.96 24
3 7 6 240.3 19.35
-3 8 -6 16.19 4.33
-3 8 6 6.57 3.38
3 8 -6 14.62 4.06
-3 8 6 11.08 3.94
3 8 6 18.39 4.86
3 8 6 14.42 5.66
-3 8 6 16.58 4.32
3 -8 6 7.87 2.86
-3 -8 6 18.05 4.37
-3 8 6 12.07 3.04
3 -8 -6 19.36 4.32
3 -8 6 10.19 5.28
-3 -8 6 11.44 3.67
3 8 6 12.78 3.13
-3 -8 -6 9.54 3.69
3 9 -6 1704.5 118.44
-3 9 6 1885.39 118.57
-3 9 -6 1852.11 118.1
3 9 6 1423.14 118.52
-3 -9 6 1819.08 118.3
3 9 6 1567.72 120.59
3 -9 6 1395.55 115.34
3 -9 -6 1647.53 118.01
-3 -9 -6 1913.15 118
3 -9 6 1804.3 121.49
3 9 6 1580.59 114.78
-3 10 -6 1.78 2.79
-3 10 6 2.82 2.58
3 10 -6 3.23 2.64
3 10 6 3.6 3.61
3 10 6 6.12 4.97
3 -10 6 1.41 1.78
-3 -10 6 -0.91 2.62
3 -10 -6 1.02 2.52
-3 10 -6 -5.28 4.29
3 -10 6 5.68 4.44
-3 -10 -6 -1.7 3.04
3 10 6 2.24 1.42
3 11 -6 651 51.51
-3 11 6 761.53 51.32
-3 11 -6 778.44 51.3
3 11 6 684.61 52.23
-3 -11 6 804.76 51.83
3 -11 6 534.97 47.01
3 11 6 631.98 53.28
3 -11 -6 708.98 51.72
-3 -11 -6 728.53 50.85
-3 11 -6 789.67 54.11
3 -11 6 715.66 53.62
-3 12 6 -1.93 2.51
-3 12 -6 -0.96 2.49
3 12 -6 -1.2 2.33
3 12 6 -1.22 2.99
3 12 6 -3 3.68
-3 -12 6 0.99 2.1
-3 12 -6 -1.44 3.76
3 -12 -6 -1.15 2.23
-3 -12 -6 2.81 2.93
3 -12 6 2.73 3.55
3 13 -6 238.55 18.33
-3 13 6 222.83 16.39
-3 13 -6 205.38 16.2
3 13 6 220.59 17.53
-3 -13 6 258.95 17.75
3 13 6 203.31 18.43
3 -13 -6 201.39 17.19
-3 -13 -6 242.48 16.81
-3 13 -6 232.49 19.43
3 -13 6 225.67 18.61
-3 14 -6 4.22 2.75
3 14 -6 2.7 3.11
-3 14 6 -1.04 2.55
3 14 -6 0.76 0.96
3 14 6 3.7 3.39
-3 14 -6 3.2 3.68
3 -14 -6 7.82 4.08
-3 -14 -6 6.25 3
-3 15 -6 1.1 2.89
3 15 -6 10.07 4.34
-3 15 6 5.48 3.44
3 15 6 18.69 5.2
3 15 -6 7.09 4.62
-3 15 -6 3.37 3.6
3 -15 -6 4.18 3.84
-3 -15 -6 3.28 3.16
-3 16 -6 1.17 2.49
3 16 -6 1.53 3.51
-3 16 6 5.6 3.51
3 16 -6 5.26 5.05
3 -16 -6 9.09 6.51
3 16 6 5.53 4.16
3 16 6 5.01 3.77
3 -16 -6 1.37 3.59
3 -16 -6 -1.49 3.17
3 16 -6 1.34 3.68
-3 -16 -6 3.45 3
-3 17 6 291.05 24.31
3 17 -6 256.08 25.95
-3 17 -6 262.8 24.32
3 17 6 274.59 24.56
3 17 6 260.9 24.76
3 -17 -6 282.07 26.61
-3 -17 -6 299.99 25.05
3 -17 -6 200.76 23.14
3 17 -6 222.73 25.41
3 -17 -6 183.36 24.43
3 -17 6 311.04 25.67
-3 18 -6 11.96 4.81
-3 18 6 21.76 5.6
3 18 -6 8.59 5
3 18 -6 3 4.75
3 18 6 17.74 5.61
3 18 6 15.3 4.88
3 -18 -6 12.26 4.93
3 -18 -6 13.47 5.71
-3 -18 -6 6.41 4.08
3 -18 6 7.9 4.03
-3 19 -6 509.7 43.3
3 19 -6 509.89 45.32
-3 19 6 583.77 43.47
3 19 6 516.62 42.49
3 19 6 514.73 42.96
3 -19 -6 448.15 44.03
-3 -19 -6 543.32 43.36
3 -19 6 504.76 42.55
-3 20 6 1.35 3.52
-3 20 -6 2.98 4.48
-3 -20 -6 1.41 3.46
-3 21 -6 338.5 31.29
-3 -21 -6 323.33 30.62
-3 22 -6 1.64 4.04
-3 -22 -6 1.54 3.79
3 0 7 4.01 2.88
-3 0 7 1.99 2.44
3 0 7 1.23 3.2
3 0 7 0.64 1.76
3 0 7 -0.59 1.54
3 0 7 1.6 1.7
-3 0 7 -1.09 1.7
3 0 7 1.16 1.59
3 0 7 3.06 3.52
3 0 -7 1.79 2.2
3 -1 7 100.25 14.27
3 1 7 116.41 14.44
3 -1 7 154.34 14.6
3 1 -7 162.25 15.17
-3 1 7 190.54 16.29
3 1 7 141.24 13.72
-3 -1 7 198.07 16.53
3 1 7 172.51 14.18
3 -1 7 144.78 13.8
3 -1 7 153.39 13.47
3 1 7 206.35 18.08
3 -1 7 164.68 16.84
3 1 7 180.92 15.4
3 1 -7 181.63 15.8
3 -1 -7 159.56 15.38
-3 -1 7 159.26 13.46
3 1 7 148.93 17.54
3 -1 7 153.19 17.9
3 1 7 138.68 13.04
3 2 7 54.98 6.58
3 2 7 52.31 8.43
-3 2 7 49.99 7.47
-3 -2 7 47.26 7.42
3 -2 7 40.15 5.95
3 -2 7 54.91 8.62
3 -2 7 57.15 7.09
3 2 7 46.61 6.53
3 -2 7 51.15 5.78
3 2 -7 48.52 7.32
3 2 7 39.8 6.56
3 2 7 42.92 5.35
3 2 7 48.51 8.89
3 -2 7 51.93 9.55
3 -2 -7 59.29 7.88
3 -3 7 70.51 8.38
3 3 -7 92.66 10.14
3 3 7 68.86 7.81
-3 -3 7 97.84 10.36
3 3 7 86.61 10.91
3 -3 7 69.54 8.33
-3 3 7 66.33 9.05
3 -3 7 58.85 9.43
3 -3 7 69.4 7.08
3 3 7 65.65 8.36
3 -3 -7 77.16 9.48
3 3 7 86.23 11.23
3 -3 7 66.85 10.89
3 3 7 59.47 6.67
3 4 7 58.93 7.68
3 4 7 53.71 6.52
-3 4 7 65.08 8.3
-3 -4 7 57.91 7.94
3 -4 7 56.28 7.23
3 -4 7 53.32 8.12
3 -4 7 53.27 7.05
3 -4 7 44.84 5.22
3 4 7 56.97 8.91
3 4 -7 56.18 8.02
3 4 7 48.97 8.14
3 -4 7 56.31 9.69
3 -4 -7 47.28 7.31
3 4 7 41.33 5.03
3 5 7 0.99 2.59
-3 5 7 6.85 2.94
3 5 7 3.52 2.04
-3 -5 7 2.96 2.58
3 -5 7 2.23 1.39
3 -5 7 3.87 3.36
3 5 7 1.36 3.13
3 -5 7 3.74 2.16
3 5 -7 -1.02 2.35
3 5 7 1.54 1.21
3 5 7 5.3 3.45
3 -5 7 -3.27 4.27
3 -5 -7 0.99 2.27
3 6 7 5.39 3.26
-3 6 7 6.82 2.82
3 6 7 4.61 2.32
3 -6 7 7.38 1.55
3 -6 7 1.75 3.89
-3 -6 7 0.99 2.29
3 6 7 6.9 4.17
3 -6 7 4.57 2.58
3 6 -7 2.1 2.75
3 6 7 1.93 3.37
3 -6 7 4.98 4.79
3 -6 -7 12.16 3.85
-3 -6 -7 3.65 2.77
-3 7 -7 624.48 47.49
3 7 -7 635.63 48.24
-3 -7 7 668.77 48.14
3 7 7 533.41 47.91
3 7 7 676.12 50.48
3 -7 7 659.44 47.08
3 7 7 699.67 46.03
-3 7 7 674.81 48.17
3 -7 -7 606.48 47.74
-3 -7 -7 657.39 47.5
3 7 7 502.04 46.29
3 -7 7 494.21 49.58
3 8 7 7.6 3.86
-3 8 7 7.14 3.6
3 8 7 10.42 5.21
-3 -8 7 14.82 4.25
3 -8 7 6.48 3
-3 8 -7 13.46 4.06
3 8 -7 16.31 4.57
3 8 7 10.1 3.6
3 -8 7 8.25 5.01
3 -8 -7 6.31 2.96
-3 -8 -7 11.04 3.89
3 9 -7 123.54 13.54
-3 9 7 118.89 12.88
-3 9 -7 134.24 13.3
3 9 7 96.53 13.1
-3 -9 7 117.79 13.01
3 9 7 113.51 14.74
3 -9 7 113.33 11.44
3 -9 -7 115.56 13.07
-3 -9 -7 146.38 13.61
3 9 7 109.61 11
3 -9 7 102.33 14.79
-3 10 -7 10.19 3.78
3 10 -7 5.86 3.25
-3 10 7 16.23 4.16
3 10 7 10.18 4.01
3 10 7 11.09 4.98
3 -10 7 4.55 2.31
-3 -10 7 7.19 3.37
3 -10 -7 2.22 2.59
3 -10 7 6.35 4.39
-3 -10 -7 5.85 3.31
-3 11 -7 -1.05 2.41
-3 11 7 -1.02 2.49
3 11 -7 1.21 2.97
3 11 7 -1.28 2.93
-3 -11 7 1.05 2.58
3 11 7 4.95 4.75
3 -11 -7 1.15 2.44
3 -11 7 -1.55 4.03
-3 -11 -7 2.02 2.32
-3 12 7 27.55 5.56
-3 12 -7 33.57 6.23
3 12 -7 21.3 5.64
3 12 7 34.86 7.16
-3 -12 7 35.82 6.52
3 12 7 23.4 7.2
3 -12 -7 20.42 5.43
3 12 -7 13.97 6.69
3 -12 7 38.65 8.04
-3 -12 -7 30.35 5.9
-3 13 -7 -1.12 2.58
3 13 -7 5.3 3.46
3 13 -7 6.62 6.06
3 -13 -7 6.68 5.8
-3 13 7 3.09 2.54
3 13 7 2.59 3.38
-3 -13 7 11.31 3.81
3 13 7 6.55 4.5
3 -13 -7 1.69 3.88
3 13 -7 3.38 4.41
3 -13 -7 6.33 3.48
3 -13 7 4.54 4.16
-3 -13 -7 -1.1 2.86
-3 14 -7 15.17 4.61
3 14 -7 29.29 6.69
-3 14 7 12.69 4.19
3 14 -7 2.11 5.24
3 -14 -7 -2.15 5.96
3 14 7 18.2 5.7
-3 -14 7 14.13 4.65
3 -14 -7 17.93 6.38
3 14 -7 16.11 6.15
3 -14 -7 12.21 4.93
-3 -14 -7 19.46 5.33
3 -14 7 14.85 5.68
-3 15 7 106.87 12.67
3 15 -7 103.38 13.93
3 15 -7 113.77 16.52
3 -15 -7 93.89 15.55
-3 15 -7 127.23 13.87
3 15 7 99.33 12.97
-3 -15 7 111.36 13.39
3 -15 -7 105.63 14.36
3 15 -7 95 13.58
3 -15 -7 104.09 13.92
-3 -15 -7 119.16 13.75
-3 16 -7 12.88 5.19
3 16 -7 19.14 6.1
-3 16 7 10.19 4.26
3 16 -7 9.43 5.74
3 -16 -7 19.51 7.62
-3 -16 7 18.15 5.69
3 16 7 10.48 4.77
3 -16 -7 13.3 5.04
3 16 -7 21.76 6.48
3 -16 -7 9.22 4.51
-3 -16 -7 7.59 4.48
-3 17 7 648.21 45.27
3 17 -7 552.89 46.91
-3 17 -7 562.39 45.62
3 17 7 617.77 45.84
3 17 7 601.6 46.83
3 -17 -7 574.8 47.32
-3 -17 -7 640.97 46.52
3 -17 -7 438.28 44.29
3 17 -7 395.89 45.36
-3 18 -7 31.35 7.52
-3 18 7 23.78 6.79
3 -18 -7 25.78 6.69
-3 19 -7 164.55 17.25
-3 19 7 109.13 14.77
-3 -19 -7 132.1 15.81
-3 20 -7 1.56 3.59
-3 -20 -7 -1.51 3.93
3 0 8 60.97 9.19
-3 0 8 44.9 7.63
3 0 8 51.92 6.73
3 0 8 40.55 6.34
3 0 8 35.81 5.75
3 0 8 50.82 9.48
3 0 -8 54.88 8.02
3 -1 8 133.72 12.33
3 -1 8 106.78 10.8
-3 1 8 121.83 13.3
3 1 8 113.62 11.56
-3 -1 8 119.89 13.34
3 1 8 110.66 11.58
3 -1 8 120.7 11.85
3 1 8 134.13 14.85
3 -1 8 131.6 14.78
3 1 8 143.34 12.92
3 -1 -8 134.59 13.61
3 1 8 68.96 12.99
3 -1 8 121.44 15.86
3 1 8 98.7 10.41
3 2 8 18.1 4.35
-3 2 8 17.68 4.91
3 2 8 22.81 4.55
-3 -2 8 10.27 4.33
3 -2 8 16.6 3.84
3 -2 8 18.64 5.64
3 2 8 19.52 5.51
3 -2 8 17.69 3.36
3 -2 8 15.75 4.12
3 2 8 18.72 4.37
3 2 -8 8.51 3.49
3 2 8 11.08 2.81
3 2 8 15.9 5.95
3 -2 8 18.93 6.6
3 -2 -8 14.73 4.6
3 -3 8 702.12 46.94
3 3 -8 704.67 48.75
-3 3 8 739.48 49.04
3 3 8 680.84 46.44
3 3 8 605.1 46.95
-3 -3 8 717.73 49.21
3 -3 8 599.57 46.41
3 3 8 747.53 50.94
3 -3 8 532.05 48.32
3 -3 8 540.55 44.41
3 -3 -8 703.47 48.57
3 3 8 619.17 49.95
3 -3 8 651.32 51.71
3 3 8 513.03 44
3 4 8 71.53 8.03
3 4 8 50.93 8.24
3 4 8 63.08 10.14
3 -4 8 67.4 8.05
-3 4 8 64.85 9.05
-3 -4 8 68.1 9.39
3 -4 8 52.83 7.63
3 -4 8 51.97 9.02
3 -4 8 36.62 5.46
3 4 -8 60.55 8.91
3 -4 -8 74.59 9.31
3 4 8 57.33 9.74
3 -4 8 74.96 11.85
3 -5 8 1654.57 114.66
3 5 -8 1582.75 116.48
3 5 8 1711.91 114.43
3 5 8 1563.04 116.08
-3 -5 8 1723.26 116.92
3 -5 8 1533.28 114.93
3 5 8 1767.54 119.02
3 -5 8 1515.15 116.07
-3 5 8 1616.87 116.32
3 -5 -8 1566.4 116.15
3 5 8 1678.36 117.23
3 -5 8 1446.24 118.97
3 6 8 51.3 8.7
3 -6 8 67.54 9.18
-3 6 8 55.73 8.5
3 6 8 57.5 7.4
-3 -6 8 65.25 9.44
3 -6 8 57.27 8.21
3 6 8 88.6 11.5
3 6 -8 57.92 8.76
3 6 8 51.13 8.67
3 -6 8 42.73 9.72
3 -6 -8 55.94 8.55
3 7 -8 383.34 33.58
-3 -7 8 402.17 33.3
3 7 8 341.28 33.37
3 7 8 418.56 35.44
3 -7 8 425.98 32.76
3 7 8 404.57 31.18
-3 7 8 425.47 33.39
-3 -7 -8 463.29 33.66
3 -7 -8 406.19 33.45
3 7 8 362.28 32.39
3 -7 8 351.48 35.72
-3 8 -8 29.15 5.74
3 8 -8 35.42 6.7
3 8 8 11.1 5.46
3 8 8 27.94 4.96
3 -8 8 23.65 4.98
-3 -8 8 40.44 6.92
3 8 8 21.88 6.54
3 8 -8 15.33 7.02
3 8 8 9.93 4.04
3 -8 8 16.33 6.47
3 -8 -8 26.89 6.1
-3 -8 -8 22.38 5.6
3 -9 -8 106.49 17.96
-3 9 8 93.45 11.8
3 9 -8 102.71 18.46
-3 9 -8 97.51 12.27
3 9 -8 112.49 13.05
3 9 8 103.14 13.57
-3 -9 8 106.03 12.74
3 9 8 101.33 13.85
3 9 -8 99.79 15.94
3 -9 -8 102.24 12.49
-3 -9 -8 130.24 13.12
3 -9 -8 99.97 15.96
3 -9 8 93.92 14.32
-3 10 -8 36.19 6.96
3 10 -8 43.61 7.83
-3 10 8 50.97 7.59
3 10 -8 40.17 11.5
3 -10 -8 32.47 10.36
3 10 8 46.73 8.4
3 10 8 28.01 8.07
-3 -10 8 37.61 7.21
3 -10 -8 71.92 12.29
3 10 -8 45.06 10.29
3 -10 8 38.94 8.88
3 -10 -8 35.58 7.22
-3 -10 -8 46.42 7.53
-3 11 -8 25.72 5.9
3 11 -8 18.31 5.82
-3 11 8 33.48 6.24
3 11 -8 38.48 11.04
3 11 8 35.74 7.65
3 11 8 25.83 7.22
-3 -11 8 19.69 5.31
3 -11 -8 21.77 8.41
3 11 -8 5.88 6.36
3 -11 8 32.83 8.25
3 -11 -8 22.87 5.98
-3 -11 -8 27.12 6.05
-3 12 -8 9.65 4.45
-3 12 8 7.56 3.87
3 12 -8 1.36 3.13
3 12 -8 -2.45 6.37
3 -12 -8 4.95 5.69
3 12 8 7.15 4.66
3 12 8 -6.87 6.2
-3 -12 8 3.59 3.29
3 -12 -8 -1.89 5.44
3 12 -8 3.75 4.31
3 -12 8 -1.72 4.95
3 -12 -8 6.57 3.42
-3 -12 -8 3.51 3.37
3 13 -8 538.45 46.09
-3 13 8 593.97 44.79
-3 13 -8 675.36 46.73
3 13 8 633.71 47.07
-3 -13 8 616.51 46.16
3 13 8 413.97 46.1
3 -13 -8 588.02 46.42
-3 -13 -8 685.05 46.56
3 -13 -8 512.14 47.81
3 13 -8 466.54 47.04
3 13 -8 493.88 50.08
3 -13 -8 512.02 50.46
3 -13 8 579.08 48.03
-3 14 -8 27.11 6.32
3 14 -8 13.33 5.51
3 14 -8 24.62 8.82
3 -14 -8 36.37 10.18
-3 14 8 22.84 5.63
3 14 8 24.89 6.75
-3 -14 8 16.52 5.61
3 14 8 26.61 7.54
3 -14 -8 18.99 6.36
3 14 -8 27.52 7.62
3 -14 -8 25.63 6.48
-3 -14 -8 18.77 5.84
3 -14 8 22.86 6.96
3 15 -8 483.68 41.27
-3 15 8 516.47 39.16
-3 15 -8 539.33 40.84
3 15 8 461.21 39.98
-3 -15 8 502.86 40.45
3 -15 -8 508 41.22
-3 -15 -8 557.92 40.81
3 -15 -8 405.71 40.55
3 15 -8 415.99 40.78
3 15 -8 417.9 42.88
3 -15 -8 399.53 42.6
-3 16 -8 20.96 6
-3 16 8 27.84 6.14
3 16 -8 12.43 7.35
-3 -16 8 24.92 6.53
3 -16 -8 14.45 6.1
-3 -16 -8 28.63 6.65
-3 17 -8 297.1 24.95
-3 -17 -8 280.15 24.53
3 -17 -8 179.59 22.37
3 17 -8 194.68 24.49
-3 -18 -8 25.04 6.98
3 0 -9 -4.14 8.8
3 0 9 0.84 2.19
3 0 9 1.53 4.4
-3 0 9 -2.5 3.08
3 0 9 -0.87 2.52
3 0 9 0.71 2.38
3 0 -9 -3.14 6.67
3 0 9 1.91 4.39
3 -1 -9 12.29 15.26
3 1 9 42.98 8.3
-3 1 9 36.19 6.96
-3 -1 9 36.75 7.05
3 1 9 43.15 6.57
3 -1 9 34.86 5.87
3 -1 9 34.32 5.62
3 -1 9 30.45 7.91
3 1 9 36.41 6.01
3 -1 9 31.05 5.05
3 1 9 23.08 5.19
3 -1 -9 24.94 12.31
3 1 -9 6.08 11.42
3 -1 -9 40.99 7.22
3 1 9 28.61 8.73
3 -1 9 26.82 8.92
3 -2 -9 43.52 14.29
3 2 9 55.9 8.16
3 -2 9 31.83 9.21
-3 2 9 58.1 9.01
3 2 9 56.79 7.76
-3 -2 9 76.66 10.26
3 -2 9 58.85 7.98
3 -2 9 67.15 8.04
3 2 9 63.94 10.53
3 2 9 53.76 7.76
3 2 -9 44.11 12.6
3 2 9 51 10.75
3 -2 9 67.19 11.85
3 -2 -9 70.63 9.71
3 -3 9 525.99 38.94
3 3 -9 526.5 41.27
-3 3 9 539.09 41.42
3 3 9 553.38 39.36
-3 -3 9 556.62 41.99
3 3 9 444.58 39.32
3 -3 9 493.66 39.38
3 3 9 527.39 43.01
3 3 9 507.29 39.63
3 -3 9 400.99 41.08
3 3 -9 548.8 50.08
3 -3 -9 538.55 41.2
3 3 -9 388.99 49.93
3 -3 -9 508.01 53.56
3 3 9 468.71 42.87
3 -3 9 509.41 44.9
3 4 -9 42.48 7.47
3 4 -9 43.32 13.17
3 -4 -9 44.2 13.42
3 4 9 28.99 6.81
3 -4 9 27.2 7.87
-3 4 9 44.04 7.56
3 4 9 39.69 6.26
3 4 9 33.3 7.83
-3 -4 9 29.57 7.07
3 -4 9 37.64 6.3
3 -4 9 41.57 6.28
3 -4 -9 33.55 10.6
3 4 -9 30.24 10.43
3 4 9 38.18 8.55
3 -4 9 36.73 9.23
3 -4 -9 42.01 7.36
3 5 -9 2.54 2.92
3 5 -9 -3.48 10.46
3 -5 -9 -3.55 11.53
3 5 9 -1.17 3.81
3 5 9 1.59 3.91
-3 5 9 1.22 3.53
3 5 9 1.56 2.15
-3 -5 9 -1.27 3.3
3 -5 9 0.97 2.22
3 -5 9 -2.61 3.59
3 5 -9 -2.65 7.27
3 -5 -9 -2.69 7.4
3 5 9 2.8 4.21
3 -5 9 1.95 4.79
3 -5 -9 2.43 3.17
3 6 -9 7.86 3.96
3 6 -9 -3.33 8.69
3 -6 -9 3.4 7.24
3 6 9 12.93 5.27
3 6 9 5.1 4.44
-3 6 9 13.32 4.48
3 6 9 5.43 2.89
3 -6 9 2.38 3.6
-3 -6 9 15.21 4.69
3 -6 9 8.07 3.74
3 -6 -9 5.18 5.96
3 6 -9 7.61 6.62
3 6 9 15.25 5.31
3 -6 9 3.91 4.82
3 -6 -9 4.89 3.7
3 7 -9 87.82 11.52
3 7 -9 79.7 16.96
3 -7 -9 81.21 18.15
3 -7 9 71.42 9.98
3 7 9 46.82 9.57
3 7 9 111.92 13.8
-3 -7 9 72.84 10.51
3 -7 9 75.79 9.95
3 7 9 86.86 9.5
3 -7 -9 81.59 15.16
3 7 -9 89.92 15.95
3 -7 9 67.24 12.64
3 -7 -9 80.41 10.72
3 8 -9 26.95 6.04
3 8 -9 15.24 9.22
3 -8 -9 12.4 8.56
3 8 9 -2.94 7.94
-3 -8 9 23.88 5.75
3 8 9 23.21 6.67
3 -8 9 18.59 4.84
3 -8 -9 14.19 8.01
3 8 -9 6.98 6.77
3 -8 9 11.9 6.74
3 -8 -9 6.35 3.62
-3 -8 -9 24.34 5.67
3 9 -9 2.74 3.36
-3 9 9 7.02 3.8
3 9 -9 -2.92 12.17
3 9 9 5.83 4.39
-3 -9 9 1.26 2.9
3 9 9 6.84 4.45
3 -9 9 4.57 2.98
3 -9 -9 -11.28 12.24
3 9 -9 2.24 4.77
3 -9 9 -3.95 9.4
3 -9 -9 3.88 3.38
-3 -9 -9 1.24 2.4
-3 10 -9 9.86 4.15
3 10 -9 8.34 4.52
-3 10 9 3.5 3.51
3 10 -9 2.81 6.45
3 -10 -9 -2.84 6.99
3 10 9 -5.82 7.48
3 10 9 -1.77 6.7
-3 -10 9 8.87 3.97
3 -10 -9 2.16 4.96
3 10 -9 6.44 5.9
3 -10 9 1.95 5.62
3 -10 -9 5.33 3.66
-3 -10 -9 1.24 3.05
-3 11 9 311 25.87
-3 11 -9 290.81 26.19
3 11 -9 257.98 26.07
3 11 9 299.36 27.28
-3 -11 9 309.91 26.79
3 11 9 274.18 28.05
3 -11 -9 294.97 26.79
3 -11 -9 246.5 28.46
3 11 -9 282.69 29.73
-3 -11 -9 336.05 27.04
3 11 -9 234.17 30.63
3 -11 -9 266.9 31.48
3 -11 9 223.31 27.37
-3 12 -9 45.38 8.05
-3 12 9 37.57 7.02
3 12 -9 45.5 8.18
3 12 -9 33.42 10
3 -12 -9 23.4 9.04
3 12 9 34.83 8.1
-3 -12 9 31.22 7.15
3 -12 -9 25.84 8.41
3 12 -9 43.76 10.75
3 -12 -9 28.45 6.81
-3 -12 -9 26.92 6.61
-3 13 9 381.03 32.38
-3 13 -9 403.58 33.91
-3 -13 9 397.39 33.97
3 -13 -9 372.85 36
3 13 -9 382.42 36.32
-3 -13 -9 438.19 34.32
3 13 -9 356.93 38.6
3 -13 -9 298.21 36.7
-3 14 -9 8.39 4.73
3 14 -9 9.69 6.68
3 -14 -9 -2.46 5.67
3 -14 -9 9.27 6.26
3 14 -9 12.96 6.25
-3 -14 -9 16.27 5.3
3 15 -9 29.95 9.76
3 -15 -9 18.72 8.32
3 -15 -9 16 6.42
3 16 -9 10.82 6.52
3 -16 -9 5.17 4.99
3 0 -10 8.53 11.26
3 0 10 28.25 7.3
-3 0 10 30.32 7.32
3 0 10 31.35 5.99
3 0 -10 9.76 9.55
3 0 10 37.18 9.5
-3 1 10 792.18 56.1
-3 -1 10 841.05 56.67
3 1 10 759.69 53.51
3 -1 10 774.65 53.84
3 1 10 694.94 56.85
3 -1 10 824.63 58.29
3 -1 -10 475.2 59.88
3 1 -10 572.26 61.69
3 -1 -10 465.9 63.16
3 1 10 545.5 56.96
3 -1 10 666.55 58.53
3 -2 -10 16.38 10.08
-3 2 10 12.25 5.34
3 2 10 8.26 3.64
-3 -2 10 8.35 4.89
3 -2 10 15.21 4.47
3 2 10 15.23 6.1
3 -2 10 19.79 6.29
3 2 -10 3.04 6.52
3 2 10 3.92 5.44
3 -2 10 18.73 7.91
3 3 -10 224.02 30.62
3 -3 -10 158.07 27.39
-3 3 10 223.39 20.59
3 3 10 175.62 17.31
-3 -3 10 198.84 20.13
3 3 10 156.53 17.21
3 -3 10 219.34 18.81
3 3 10 201.88 21.41
3 -3 10 142.62 19.23
3 3 -10 188.28 25.76
3 -3 -10 172.95 19.16
3 3 10 200.18 21.91
3 -3 10 225.18 23.76
3 4 -10 18.64 11.37
3 -4 -10 26.68 11.14
3 4 10 22.48 5.59
-3 4 10 30.96 6.78
3 4 10 36.07 8.39
-3 -4 10 37.68 7.42
3 -4 10 28.18 5.91
3 -4 10 21.72 6.6
3 4 10 27.75 5.65
3 -4 -10 17.35 8.55
3 4 -10 45.47 11.73
3 4 10 33.18 8.25
3 -4 10 37.6 9.79
3 -4 -10 25.09 6.36
3 5 -10 114.68 21.19
3 -5 -10 135.48 22.73
3 5 -10 125.93 14.69
-3 -5 10 153.47 15.91
3 5 10 107.78 13.44
3 -5 10 106.96 12.78
3 5 10 94.56 12.12
3 -5 10 103.85 14.16
3 5 10 157.04 17.12
-3 5 10 142.31 15.17
3 -5 -10 100.32 18.03
3 5 -10 93.06 17.77
3 -5 -10 117.14 14.06
3 -5 10 103.21 16.2
3 6 -10 34.9 7.4
3 6 -10 41.41 13.25
3 -6 -10 28.15 11.64
3 6 10 48.98 9.5
3 6 10 23.72 6.55
-3 -6 10 38.86 7.84
3 -6 10 27.05 5.91
3 -6 -10 29.41 10.62
3 6 -10 44.8 11.65
3 -6 10 23.21 9.24
3 -6 -10 35.79 7.34
3 7 -10 125.18 22.09
3 -7 -10 104.79 20.56
3 7 -10 178.62 17.83
3 7 10 131.99 16.1
-3 -7 10 183.11 17.6
3 -7 10 131.85 14.96
3 7 10 169.05 18.91
3 -7 -10 133.57 20.34
3 7 -10 134.35 20.13
3 -7 -10 154.4 16.52
3 -7 10 111.01 18.04
3 8 -10 14.49 5.52
3 8 -10 19 9.93
3 8 10 4.57 5.15
3 -8 10 10.37 4.62
3 -8 -10 2.46 7.12
3 8 -10 -2.44 8.23
3 -8 -10 14.93 5.3
3 9 10 544.88 49.98
3 -9 10 692.6 49.76
3 -10 10 14.92 5.15
-3 -10 -10 12.44 5.45
3 0 11 1.82 4.47
3 0 11 -2.23 5.48
3 -1 11 90.66 13.54
3 1 11 69 13.83
3 -1 11 102.82 15.67
3 -2 11 5.42 4.98
3 -3 11 58.84 11.03
3 -4 11 4.54 2.81
3 -5 11 4.59 2.83
-4 0 0 6270.54 376.38
4 0 0 6388.66 377.75
4 0 0 5155.49 373.88
-4 0 0 5755.47 377.32
-4 0 0 5984.46 376.36
-4 0 0 3239.35 380.38
-4 0 0 3642.94 379.6
-4 0 0 6122.59 377.07
-4 0 0 5745.51 376.14
-4 1 0 25 4.2
-4 -1 0 11.77 3.23
-4 1 0 37.01 5.61
-4 -1 0 17.09 4.2
4 1 0 5.31 3.51
4 1 0 9.47 3.13
4 -1 0 13.41 2.31
-4 1 0 19.31 4.11
-4 -1 0 13.06 3.32
4 -1 0 12.07 4
-4 1 0 17.07 7.68
-4 -1 0 8.55 6.47
-4 1 0 17.74 3.62
-4 -1 0 5.9 2.9
-4 -1 0 21.81 6.88
-4 1 0 25.4 7.09
4 -1 0 15.64 4.07
-4 1 0 25.54 4.91
-4 -1 0 19.13 4.63
-4 2 0 1879.97 128.39
-4 -2 0 1863.31 127.62
4 -2 0 1729.14 126.45
-4 2 0 1913.48 128.06
-4 2 0 1558.82 128.11
-4 -2 0 1950.06 129.42
4 2 0 1803 128.96
4 2 0 1905.89 129.37
-4 -2 0 1869.82 128.15
-4 -2 0 1763.2 135.87
-4 2 0 1819.99 127.59
-4 -2 0 1830.68 127.85
4 -2 0 1814.53 128.6
-4 2 0 1880.08 134.15
-4 2 0 2092.57 129.3
-4 -2 0 1839.31 128.33
-4 2 0 1796.53 127.96
-4 3 0 -0.65 1.69
-4 -3 0 1.77 1.49
-4 3 0 1.96 2.04
4 3 0 0.75 1.73
-4 -3 0 0.79 2.57
4 -3 0 0.98 1.39
-4 3 0 2.15 2.09
-4 -3 0 0.6 1.8
4 3 0 0.77 2
-4 3 0 -0.5 1.52
-4 -3 0 2 4.59
-4 3 0 -0.58 2.13
-4 -3 0 0.53 1.51
-4 3 0 3.15 4.33
4 -3 0 0.69 1.79
-4 3 0 -0.71 2.39
-4 -3 0 -0.59 2.07
-4 4 0 76.84 7.78
-4 -4 0 61.19 6.3
4 -4 0 49.11 5.62
-4 4 0 56.8 6.92
-4 -4 0 56.73 7.61
4 4 0 60.47 7.46
-4 4 0 58.43 6.66
-4 4 0 64.82 11.44
-4 -4 0 61.83 11.58
-4 4 0 55.53 6.62
-4 -4 0 60.05 6.62
4 -4 0 63.82 7.33
-4 -4 0 67.93 10.74
-4 4 0 48.67 9.62
-4 4 0 70.8 8.14
-4 -4 0 47.56 6.67
-4 -5 0 -0.4 1.24
-4 5 0 0.74 1.82
-4 5 0 1.09 1.64
4 5 0 -0.8 1.84
4 -5 0 0.79 1.18
-4 -5 0 -0.86 2.35
-4 5 0 0.53 1.46
-4 5 0 -3.67 4.51
-4 -5 0 1.87 5.14
4 5 0 0.25 1.03
-4 5 0 0.61 1.75
-4 -5 0 1.6 1.6
-4 -5 0 1.45 3.57
-4 5 0 -4.39 3.81
4 -5 0 -0.75 1.84
-4 5 0 -0.76 2.56
-4 -5 0 -1.11 2.05
-4 -6 0 21.8 3.12
-4 6 0 25.66 4.68
-4 6 0 22.44 3.68
4 -6 0 20.76 3.28
4 6 0 20.98 4.54
-4 6 0 19.64 3.6
-4 6 0 17.71 6.27
-4 -6 0 10.86 5.58
-4 6 0 19.15 3.78
4 6 0 14.91 2.5
-4 -6 0 15.46 5.6
-4 6 0 18.33 5.87
-4 -6 0 19.32 3.52
4 -6 0 15.76 4
-4 -6 0 11.47 2.95
-4 7 0 -0.87 2.13
-4 -7 0 0.72 1.28
-4 7 0 -0.44 1.47
4 -7 0 0.98 1.54
4 7 0 0.88 2.41
-4 7 0 1.6 1.85
4 7 0 0.28 1.22
-4 7 0 1.71 4.46
-4 -7 0 -3.52 4.83
-4 7 0 0.71 2.14
-4 -7 0 1.36 3.55
-4 -7 0 1.09 1.77
4 -7 0 0.83 1.91
-4 -7 0 0.47 1.88
-4 -8 0 2004.63 137.33
-4 8 0 2063.63 140.76
-4 8 0 1955.83 137.45
-4 8 0 2102.85 138.63
4 8 0 2073.2 140.7
4 -8 0 1930.05 138.29
-4 8 0 1847.04 143.89
-4 -8 0 1982.83 144.77
-4 8 0 2022.63 139.78
4 8 0 1787.81 136.91
4 -8 0 2087.4 140.47
-4 -8 0 2114.62 138.66
-4 -8 0 2130.41 143.15
-4 8 0 1982.65 142.65
-4 -8 0 1984.09 137.7
-4 9 0 4.87 3.05
-4 -9 0 0.65 1.45
4 -9 0 2.47 2.4
-4 9 0 -1.39 1.65
-4 9 0 3.96 2.41
4 9 0 1.92 2.5
-4 -9 0 0.33 0.53
-4 9 0 3.22 3.96
-4 -9 0 -3.34 4.11
-4 9 0 2.65 2.55
-4 -9 0 1.27 3.65
-4 9 0 1.27 3.66
4 -9 0 0.94 2.59
-4 -9 0 0.57 1.92
-4 -9 0 -0.38 1.74
-4 -10 0 2261.59 129.65
-4 -10 0 1750.48 128.6
-4 10 0 1625.83 129.29
-4 10 0 2710.42 132.68
4 10 0 2614.95 135.84
4 -10 0 2523.28 133.08
-4 10 0 2326.84 138.57
-4 -10 0 2384.47 139.4
-4 10 0 2602.73 135.5
4 -10 0 2748.82 136.11
-4 -10 0 2639.38 132.54
-4 -10 0 2306.07 136.44
-4 10 0 2284.84 136.24
-4 -10 0 2429.66 130.25
-4 -11 0 1.4 1.33
-4 11 0 -0.91 1.85
-4 11 0 1.8 2.21
-4 -11 0 -0.2 0.87
-4 11 0 -0.4 1.04
-4 -11 0 0.75 0.92
-4 11 0 -1.54 5
-4 -11 0 1.61 5.42
-4 11 0 3.28 2.85
-4 -11 0 -1.21 4.06
-4 11 0 -1.2 4.53
-4 -11 0 3.05 1.52
-4 -11 0 0.6 1.96
-4 12 0 531.28 39.38
-4 -12 0 569.32 39.05
-4 12 0 667.29 41.9
-4 12 0 569.55 46.12
-4 -12 0 571.2 46.59
-4 12 0 681.51 45.62
-4 -12 0 485.86 38.89
-4 -12 0 721.16 42.22
-4 -12 0 680.98 45.39
-4 12 0 597.82 44.49
-4 -12 0 495.66 38.81
-4 13 0 -0.4 1.36
-4 -13 0 0.48 1.05
-4 13 0 -0.63 2.06
-4 -13 0 -1.36 1.38
-4 13 0 -1.47 4.24
-4 -13 0 -6.24 6.05
-4 13 0 5.25 3.61
-4 -13 0 -1.92 2
-4 -13 0 -0.28 0.86
-4 -13 0 2.28 3.28
-4 14 0 11.59 3.08
-4 -14 0 8.84 2.11
-4 14 0 12.6 5.22
-4 14 0 24.86 4.41
4 14 0 17.25 5.47
-4 -14 0 10.16 2.63
-4 14 0 5.77 4.59
-4 -14 0 13.82 5.4
-4 14 0 11.47 4.73
4 -14 0 18.02 5.19
-4 -14 0 19.9 3.95
-4 -14 0 13.4 5.2
-4 14 0 9.93 4.26
-4 -15 0 1.04 1.05
-4 15 0 -0.6 1.79
-4 15 0 -4.19 3.21
-4 15 0 2.01 2.54
4 15 0 -1.41 3.46
-4 -15 0 -0.51 1.66
-4 -15 0 -1.51 3.71
-4 15 0 -1.41 3.68
-4 15 0 -1.56 4.27
4 -15 0 -1.36 3.92
-4 -15 0 -1.37 2.38
-4 -15 0 1.1 2.87
-4 15 0 -1.08 3.26
-4 16 0 28.17 4.84
-4 16 0 39.32 7.82
-4 16 0 28.04 4.96
4 16 0 16.4 5.77
-4 -16 0 20.89 4.42
-4 -16 0 24.88 8.03
-4 16 0 24.56 7.42
-4 16 0 20.18 6.77
4 -16 0 24.34 6.46
-4 -16 0 45.48 5.99
-4 -16 0 22.22 6.14
-4 16 0 23.08 6.16
-4 17 0 -0.78 2.88
-4 17 0 -1.39 5.28
4 17 0 -1.48 3.64
-4 -17 0 -5.6 5.3
-4 17 0 -3.91 5.06
-4 17 0 1.81 4.17
-4 -17 0 -0.99 3.84
-4 17 0 -2 4.25
-4 18 0 560.68 50.64
-4 18 0 844.95 55.39
4 18 0 797.32 55.62
-4 18 0 627.84 53.01
-4 18 0 671.11 56.37
4 -18 0 784.36 55.4
-4 -18 0 658.66 51.81
-4 19 0 -0.96 2.77
-4 19 0 -2.67 3.48
4 19 0 -10.22 6.08
-4 19 0 -1.13 3.39
-4 19 0 9.31 5.36
4 -19 0 4.37 4.19
-4 -19 0 0.87 2.92
-4 20 0 776.81 55.59
4 20 0 762.47 56.44
-4 20 0 755.1 58.95
4 -20 0 829.85 56.75
-4 21 0 2.65 3.25
4 21 0 -1.43 3.51
-4 21 0 7.61 4.96
4 -21 0 -2.84 4.09
4 22 0 246.82 23.2
4 -22 0 200.61 21.88
-4 0 1 -0.55 1.73
-4 0 -1 0.64 1.67
4 0 1 0.55 0.61
4 0 1 -0.68 1.67
-4 0 1 0.59 1.61
4 0 1 -0.18 0.48
4 0 -1 0.29 0.98
-4 0 -1 2.19 1.9
4 0 -1 -2.85 1.96
-4 0 -1 -1 2.62
-4 0 -1 7.09 5.03
4 0 1 -0.24 0.66
-4 0 -1 1.79 4.41
-4 0 -1 1.58 1.52
-4 0 1 -0.58 2.29
4 0 1 0.62 1.2
-4 0 -1 0.85 3.14
-4 1 1 58.39 6.1
-4 -1 1 54.8 5.93
4 -1 -1 48.16 6.28
4 1 -1 57.74 6.71
4 1 1 32.6 3.92
-4 1 -1 57.3 6.6
-4 -1 -1 60.44 6.27
4 1 -1 27.46 3.53
-4 -1 -1 59.48 6.14
4 -1 1 46.22 4.11
-4 1 1 48.98 5.88
4 -1 -1 45.36 4.8
4 -1 1 59.52 6.73
4 1 1 58.86 6.58
-4 -1 1 62.52 6.49
-4 1 -1 37.36 6.59
-4 -1 -1 35.77 6.84
-4 1 -1 67.47 6.34
4 -1 -1 44.14 4.04
-4 1 -1 49.94 10.85
-4 -1 -1 36.54 9.97
4 -1 1 39.3 4.01
-4 1 1 46.81 4.89
-4 1 1 50.34 5.99
-4 -1 -1 51.78 9.6
-4 1 -1 41.82 9.07
4 -1 1 53.83 6.17
4 1 1 52.77 6.01
-4 -1 1 45.37 5.74
-4 1 -1 41.72 6.74
-4 -1 -1 45.89 7.04
-4 1 -1 53.68 5.84
-4 -1 -1 57.29 5.85
-4 2 -1 7.35 2.73
-4 -2 -1 9.21 2.64
-4 -2 1 5.2 2.05
4 2 -1 3.84 1.35
-4 2 1 4.21 2.05
4 2 1 2.81 1.96
4 -2 1 5.56 1.35
-4 2 1 4.57 2.5
4 -2 -1 4.75 1.62
-4 2 -1 3.13 1.67
4 -2 -1 3.6 2.19
-4 -2 -1 7.69 2.26
4 2 -1 6.42 2.58
-4 2 -1 3.3 2.88
-4 -2 -1 6.22 3.5
-4 2 1 6.05 1.8
-4 2 -1 2.91 1.92
-4 -2 -1 6.63 5.44
4 -2 -1 6.84 1.48
4 2 1 4.15 1.76
-4 2 -1 8.39 5.26
-4 -2 -1 7.53 2.41
-4 -2 1 2.89 2.04
4 -2 1 13.18 2.99
-4 2 -1 2.66 2.8
-4 -2 -1 0.8 2.9
4 3 -1 172 14.63
-4 3 1 196.22 16.58
-4 -3 1 190.45 15.89
4 -3 1 195.9 17.32
4 3 -1 221.03 17.44
4 -3 -1 188.37 17.04
-4 3 -1 212.4 17.49
-4 -3 -1 210.44 16.05
-4 -3 -1 177.52 15.97
4 -3 -1 187.46 15.24
4 3 1 206.79 17.12
-4 -3 -1 189.83 18.5
-4 3 -1 165.4 16.6
-4 3 1 216.75 16.52
-4 3 -1 196.12 15.94
4 -3 1 173.58 14.5
-4 -3 -1 179.66 22.36
4 3 1 212.94 15.6
-4 3 1 203.55 15.59
4 -3 -1 170.36 14.65
-4 3 -1 203.89 16.6
-4 -3 1 191.18 16.27
4 -3 1 208.36 16.97
4 -3 -1 185.69 16.66
-4 3 -1 234.68 22.01
-4 3 -1 191.93 18.1
-4 -3 -1 182.77 17.02
-4 3 1 223.77 17.09
-4 -3 -1 208.9 16.02
-4 4 -1 24.57 4.66
-4 -4 -1 18.24 3.21
-4 4 1 20.34 4.03
-4 -4 -1 21.64 5.22
-4 4 -1 24.93 4.24
4 4 -1 19.64 4.22
-4 -4 1 15.58 2.29
4 4 -1 21.6 4.16
4 -4 1 15.77 2.65
4 4 1 15.55 3.69
-4 4 1 11.03 3.05
4 -4 -1 17.94 3.13
-4 4 -1 19.81 3.46
4 -4 1 22.1 4.42
-4 -4 1 22.7 4.29
-4 -4 -1 20.38 3.7
-4 4 -1 16.04 3.63
-4 4 -1 14.19 6.48
-4 -4 -1 20.72 6.85
-4 4 1 25.79 3.74
4 4 1 27.68 3.69
-4 -4 -1 18.79 6.06
-4 4 -1 20.31 6.35
-4 -4 -1 21.45 3.52
4 -4 1 24.34 4.49
-4 -4 1 19.25 3.77
4 -4 -1 19.7 4.01
-4 4 -1 17.05 4.69
-4 -4 -1 12.01 3.47
-4 4 1 24.67 4.19
-4 5 -1 -0.91 1.78
-4 -5 -1 -0.8 1.59
-4 5 1 -2.86 2.15
-4 -5 -1 0.61 1.97
-4 -5 -1 -1.04 3.12
4 5 -1 0.84 2.3
-4 5 1 1.41 1.84
4 -5 1 -0.38 1.11
-4 5 -1 4.34 2.21
-4 -5 1 0.76 0.78
-4 5 1 0.6 1.64
4 5 1 -0.77 1.76
4 -5 -1 1.35 1.23
-4 5 -1 1.5 1.68
4 -5 1 0.81 1.87
-4 -5 1 0.7 1.93
4 5 1 0.41 1.28
-4 5 -1 -0.67 1.85
-4 5 -1 7.89 4.84
-4 -5 -1 8.11 5.28
-4 5 1 1.07 1.47
-4 -5 -1 4.55 4.56
-4 5 -1 -1.51 3.94
-4 -5 -1 -0.48 1.46
4 -5 1 0.76 1.74
-4 -5 1 1.78 1.92
4 -5 -1 0.75 1.72
-4 5 -1 0.99 2.58
-4 -5 -1 -0.6 2.28
-4 6 -1 25.78 5.24
-4 -6 -1 14 2.74
-4 6 1 23.32 4.41
4 -6 1 23.4 4.02
4 6 -1 17.26 4.29
4 -6 1 21.6 3.34
-4 6 1 23.91 4.03
-4 -6 1 15.39 2.29
4 -6 -1 16.37 3.23
4 6 1 20.41 4.37
-4 6 -1 20.35 3.31
-4 6 -1 22.81 3.56
-4 6 1 20.04 4.03
-4 6 -1 14.39 3.64
4 6 1 13.89 2.93
-4 6 -1 11.45 5.87
-4 -6 -1 19.72 6.75
-4 6 1 17.17 3.43
-4 -6 -1 18.29 3.54
4 -6 1 20.03 4.24
-4 -6 1 23.46 4.07
4 -6 -1 17.09 4.01
-4 -6 -1 16.58 3.55
-4 -6 -1 18.98 6.21
-4 6 -1 17.56 5.95
-4 7 1 196.32 17.51
4 -7 1 171.02 16.86
-4 7 -1 189.96 18.53
-4 -7 -1 180.67 14.9
4 -7 -1 179.98 16.1
-4 -7 1 188.95 14.65
-4 7 -1 191.2 15.42
4 7 -1 216.41 18.33
-4 7 1 192.36 16.82
4 7 1 224.52 18.36
-4 7 -1 240.07 16.68
-4 7 -1 191.83 21.92
-4 -7 -1 237.47 23.65
-4 7 1 223.4 17.51
-4 7 -1 189.75 17.37
4 7 1 177.53 15.76
-4 -7 -1 200.49 16.16
4 -7 1 235.36 18.55
-4 -7 1 206.91 17
4 -7 -1 222.56 18.14
-4 -7 -1 235.87 21.42
-4 7 -1 215.27 20.84
-4 -7 -1 183.63 16.11
-4 8 -1 251.07 23.37
-4 -8 -1 237.23 18.59
4 -8 -1 240.81 20.49
-4 -8 1 248.48 18.79
-4 8 -1 245.46 19.01
-4 8 1 295.2 21.57
4 8 -1 268.56 22.53
4 8 1 295.06 23.01
-4 8 -1 285.57 20.53
-4 8 -1 277.97 26.47
-4 -8 -1 278.79 27.26
-4 8 1 270.6 21.98
-4 8 -1 272.47 22.19
4 8 1 252.57 20.01
-4 -8 -1 278.95 20.41
4 -8 1 275.31 22.5
4 -8 -1 281.62 22.42
-4 -8 1 273.91 21.23
-4 -8 -1 272.87 24.77
-4 8 -1 257.8 24.35
-4 -8 -1 208.45 19.68
-4 -9 -1 13.13 1.73
-4 9 -1 13.21 1.77
-4 -9 -1 12.23 1.59
-4 9 -1 18.21 5.25
-4 9 1 22.1 4.1
4 -9 -1 20.94 3.68
4 9 1 31.27 5.76
-4 9 -1 20.74 3.44
-4 -9 1 16.79 2.41
-4 9 -1 24.2 7.1
-4 -9 -1 28.98 7.44
-4 9 -1 21.19 4.56
4 -9 1 17.62 4.27
-4 -9 -1 26.7 3.78
-4 -9 1 24.64 4.25
-4 -9 -1 21.4 3.24
-4 -9 -1 23.99 6.31
-4 9 -1 17.08 5.56
-4 10 1 14.99 1.9
-4 10 -1 19.27 2.43
-4 10 1 13.56 1.95
-4 10 -1 17.47 5.22
-4 10 1 28.55 4.76
-4 10 -1 29.81 4.04
4 10 1 23.88 5.55
-4 -10 1 20.23 2.74
-4 -10 1 27.11 7.16
-4 -10 -1 33.63 8.08
-4 10 -1 38.66 8.09
-4 10 -1 30.81 5.59
4 -10 1 30.42 5.96
-4 -10 -1 34.9 4.31
-4 -10 1 27.16 6.37
-4 -10 1 34.44 4.98
-4 -10 -1 22.21 6.02
-4 10 -1 21.75 5.58
-4 11 -1 47.42 4.81
-4 -11 1 61.04 5.73
-4 11 -1 52.47 8.59
-4 -11 1 50.22 5.11
4 11 1 61.62 8.74
-4 11 1 63.93 7.43
-4 11 -1 57.64 6.01
-4 11 1 60.26 10.13
-4 -11 1 46.4 9.27
-4 -11 -1 33.38 4.14
-4 -11 -1 82.98 12.33
-4 11 -1 55.57 10.44
-4 -11 1 33.41 3.95
-4 11 -1 64.78 8.62
-4 -11 -1 66.61 6.48
-4 -11 1 76.26 7.78
4 -11 1 60.65 8.71
-4 -11 1 54.69 8.8
-4 11 1 54.66 8.71
-4 -11 -1 53.59 9.09
-4 11 -1 45.03 8.18
-4 12 -1 128.31 11.54
-4 -12 1 158.07 12.19
-4 12 1 155.79 15.47
-4 -12 -1 112.23 10.36
-4 12 1 203.46 15.19
4 12 -1 195.54 16.93
-4 12 -1 165.39 12.85
4 12 1 180.52 16.96
-4 -12 1 135.38 16.99
-4 -12 -1 129.8 11.14
-4 -12 -1 189.95 19.41
-4 12 -1 180.5 18.72
-4 12 1 117.85 16.18
-4 12 -1 192.16 16.86
-4 -12 1 126.24 10.84
4 -12 1 161.15 16.07
-4 -12 -1 162.57 12.9
4 -12 -1 205.7 16.77
-4 -12 1 186.79 14.55
-4 -12 -1 175.92 16.89
-4 12 -1 133.04 15.55
-4 -12 1 119.01 14.85
-4 12 1 142.88 15.61
-4 13 -1 86.34 8.06
-4 -13 1 94.93 8.31
-4 13 1 111.23 12.15
-4 -13 -1 65.79 6.66
-4 13 1 97.91 10.14
4 13 -1 100.14 11.79
-4 13 -1 83.19 8.24
-4 -13 -1 67.64 7.29
-4 13 1 65.24 10.93
-4 -13 1 76.59 11.74
-4 -13 -1 105.21 13.59
-4 13 -1 95.6 12.82
-4 13 -1 80.76 11.39
-4 -13 -1 85.95 8.41
4 -13 -1 123.89 12.5
-4 -13 1 71.64 10.32
-4 13 1 77.13 10.78
-4 -13 -1 73.44 10.6
-4 13 -1 69.27 10.53
-4 14 1 16.37 4.88
-4 14 -1 20.37 3.66
-4 -14 1 21.08 3.22
-4 -14 -1 17.05 2.6
4 14 -1 32.32 6.53
-4 14 -1 18.56 3.36
-4 14 1 9.56 1.62
-4 -14 -1 12.72 2.83
-4 14 1 19.58 5.91
-4 -14 1 30.69 7.36
-4 -14 -1 19.07 6.26
-4 14 -1 34.22 7.49
-4 14 -1 22.66 5.99
-4 -14 1 19.7 5.31
-4 14 1 14.32 4.5
4 -14 -1 18.35 5.2
-4 -14 -1 14.24 3.24
-4 -14 -1 22.92 5.37
-4 14 -1 21.49 5.39
-4 15 1 2.73 3.14
-4 15 -1 -0.59 1.86
-4 -15 1 1.58 1.45
-4 -15 -1 3.51 1.78
4 15 -1 2.73 3.56
-4 15 -1 3.78 2.1
-4 15 1 6.82 3.75
-4 -15 1 -1.45 3.32
-4 -15 -1 -3.11 4.05
-4 15 -1 1.45 3.33
-4 -15 -1 -4.17 3.62
-4 15 -1 1.53 3.26
-4 15 1 1.07 2.63
4 -15 -1 2.58 3.36
-4 -15 -1 3.76 2.33
-4 -15 -1 8.76 3.92
-4 15 -1 2.16 2.82
-4 -15 1 1.07 3.21
-4 16 -1 222.62 18.72
-4 16 -1 233.55 21.41
-4 16 1 221.13 22.37
4 16 1 193.57 21.79
4 16 -1 209.04 21.86
-4 16 1 177.81 20.71
-4 -16 1 176.96 21.18
-4 -16 -1 247.86 23.26
-4 16 -1 203.25 21.63
-4 16 -1 275.78 24.64
-4 -16 -1 233.14 18.55
4 -16 1 167.76 21.01
4 -16 -1 254.88 22.55
-4 -16 -1 228 20.75
-4 16 -1 219.71 20.4
-4 -16 1 222.45 20.51
-4 16 1 200.02 20.06
-4 17 -1 77.53 9.68
-4 17 -1 107.79 12.33
-4 17 1 85.74 12.51
4 17 -1 83.24 12.29
4 17 1 100.78 13.05
-4 17 1 84.2 11.73
-4 -17 1 80.07 11.59
-4 -17 -1 94.12 12.48
-4 17 -1 95.47 12.34
-4 17 -1 101.69 14.29
-4 -17 -1 83.33 9.56
-4 17 -1 97 11.4
-4 -17 1 96.35 11.07
4 -17 1 79.48 11.93
4 -17 -1 59.71 10.63
-4 -17 -1 81.35 10.57
-4 17 1 73.94 10.11
-4 18 -1 101.4 11.85
-4 18 -1 123.36 13.71
-4 18 1 121.01 14.93
4 18 -1 110.19 14.42
4 18 1 121.32 14.6
-4 18 1 94.68 13.08
-4 18 -1 93.46 13.61
-4 18 -1 126.09 16.39
-4 -18 -1 103.65 11.67
4 -18 1 136.37 15.21
4 -18 -1 116.78 14.38
-4 -18 1 108.76 12.37
-4 -18 -1 81.48 12.44
-4 19 -1 7.59 3.6
-4 19 -1 2.47 3.04
-4 19 1 -1.55 4.04
4 19 -1 -4.41 5.99
4 19 1 10.42 5.18
-4 -19 -1 1.71 2.78
-4 19 1 4.64 3.19
-4 19 -1 7.12 3.58
-4 19 -1 5.96 4.88
4 -19 1 7.34 4.23
4 -19 -1 4.3 3.53
-4 -19 1 1.75 3.13
-4 20 -1 107.44 16.32
-4 20 -1 199.5 19.06
-4 20 1 230.14 20.95
4 20 -1 220.7 20.51
4 20 1 196.63 19.95
-4 -20 -1 138.3 16.7
-4 20 -1 193.8 22.18
4 -20 1 225.12 20.71
4 -20 -1 210.31 20.21
-4 21 -1 46.19 8.24
-4 21 1 31.63 7.49
4 21 -1 37.7 8.62
4 21 1 33.8 7.85
-4 21 -1 56.32 10.77
4 -21 1 40.03 7.95
4 -21 -1 26.38 6.74
4 22 -1 95.42 13.12
4 22 1 75.49 12.12
4 -22 1 109.01 13.57
4 -22 -1 124.27 13.93
4 0 2 130.75 10.54
4 0 -2 159.97 13.03
4 0 2 147.44 13.54
-4 0 2 155 12.77
-4 0 -2 112.94 12.9
-4 0 -2 163.48 12.56
-4 0 -2 176.58 13.9
4 0 2 131.2 12.37
-4 0 2 130.03 12.34
4 0 2 122.36 10.46
-4 0 -2 77.02 17.09
4 0 -2 130.48 10.3
4 0 2 155.32 12.8
4 0 2 139.02 12.37
-4 0 -2 131.86 14.33
-4 0 -2 99.02 16.01
4 1 -2 10.01 1.78
4 1 2 9.64 2.01
4 -1 2 9.99 1.76
-4 1 2 9.03 2.72
-4 -1 -2 11.42 3.24
-4 1 -2 6.72 3.51
-4 -1 -2 12.9 2.88
4 -1 2 15.61 3.46
-4 -1 2 6.63 1.94
4 -1 2 8.23 1.46
4 1 2 13.13 3.04
-4 1 2 11.11 3.02
-4 1 -2 14.1 3.42
4 -1 -2 13.36 2.56
4 -1 -2 10 2.86
4 1 -2 11.15 3.09
4 -1 2 13.06 3.47
-4 -1 -2 11.62 3.67
4 1 2 12.54 3.32
-4 1 -2 17.8 3.1
-4 1 2 9.98 1.84
4 1 2 9.14 1.75
-4 -1 -2 12.79 6.7
-4 1 -2 5.07 6.26
4 1 2 13.09 3.08
4 -1 2 6.31 2.68
-4 -1 2 10.01 3.01
4 -1 2 11.33 2.87
4 1 2 12.25 3.03
-4 -1 -2 15.47 4.46
-4 1 -2 5.51 3.65
4 -1 -2 10.09 2.01
4 -1 2 11.28 2.06
-4 -1 -2 13.28 5.75
-4 1 -2 9.6 5.32
4 2 -2 114.56 10.56
4 -2 2 148.28 10.31
4 2 -2 152.11 12.8
-4 2 2 132.01 12.43
4 -2 2 135.14 11.65
4 -2 2 152.99 13.54
-4 -2 -2 146.35 12.44
-4 2 -2 118.7 13.61
4 2 2 133.95 10.9
-4 2 -2 141.82 11.92
-4 -2 -2 134.46 12.12
4 -2 -2 135.35 11.53
4 2 2 155.38 13.83
-4 -2 -2 127.2 13.56
4 -2 2 142.77 12.4
-4 2 -2 153.15 12.57
-4 2 2 138.82 12.68
4 -2 2 117.91 10.24
4 2 2 133.15 12.48
-4 -2 2 135.82 11.03
4 -2 -2 120.44 10.75
-4 -2 -2 125.52 18.67
4 -2 2 119.82 10.71
4 2 2 150.63 12.39
-4 2 2 131.39 10.83
4 -2 2 133.21 12.4
-4 -2 2 141.24 12.57
4 2 2 142.35 12.27
-4 2 -2 160.12 18.27
-4 -2 -2 157.86 14.09
-4 2 -2 116.17 14.18
-4 3 2 4.03 2.11
4 3 -2 2.53 1.44
4 -3 2 1.04 1.91
-4 -3 -2 2.84 2.06
-4 3 -2 6.1 3.53
-4 -3 -2 2.38 2.58
-4 3 2 0.65 1.96
-4 -3 2 1.03 1.53
4 3 2 0.7 1.72
4 -3 -2 1.41 1.42
-4 -3 -2 0.99 2.85
4 -3 2 1.61 2.22
4 3 -2 2.61 2.72
-4 3 -2 2.45 1.65
4 -3 -2 3.41 1.71
-4 -3 -2 2.37 5.05
-4 3 2 1.48 1.33
4 3 2 1.64 2.29
4 -3 2 1.37 1.69
-4 -3 2 1.9 1.83
-4 -3 -2 2.88 2.73
-4 3 -2 8.93 4.94
-4 3 -2 5.29 5.08
4 4 -2 2905.21 187.22
4 4 -2 2287.84 185.15
-4 4 2 2595.05 186.92
4 -4 2 2779.53 186.53
4 -4 2 2556.55 187.57
-4 -4 -2 2880.38 185.2
-4 4 -2 2741.79 189.29
-4 4 -2 2923.5 186.05
-4 -4 2 2672.1 185.1
4 -4 -2 2618.39 185.89
-4 -4 -2 2489.87 188.36
-4 4 2 2757.08 187
4 4 2 2756.65 187.32
-4 -4 -2 3078.29 197.68
-4 4 -2 2818 196.17
-4 4 2 2518.38 185.49
4 4 2 2781.7 186.32
-4 4 -2 2608.06 187.42
4 -4 -2 2441.68 185.34
4 -4 2 2690.17 187.25
-4 -4 2 2749.38 186.92
-4 -4 -2 3108.06 194.13
-4 4 -2 2965.67 193.71
-4 4 -2 2861.27 189.91
-4 -4 -2 2778.62 185.94
4 -5 2 26.2 4.38
4 5 -2 22.71 3.59
-4 -5 -2 16.52 2.44
-4 5 -2 19.37 5.1
-4 5 2 20.22 4.11
-4 5 2 22.89 4.24
-4 -5 2 10.45 2.84
4 -5 -2 23.15 3.69
4 5 2 15.04 3.9
4 -5 2 18.76 4.13
-4 5 -2 21.09 3.65
4 5 -2 20.42 4.27
-4 5 2 24.23 4.43
4 5 2 11.65 3.6
-4 5 -2 18.28 4.16
4 -5 -2 13.49 3.09
-4 -5 -2 30.99 8.89
-4 5 -2 23.64 8.01
-4 -5 -2 18.52 3.33
4 -5 2 15.38 3.68
-4 -5 2 25.85 4.52
-4 -5 -2 13.09 5.64
-4 5 -2 27.8 7.07
4 6 -2 1529.48 117.86
4 -6 2 1855.03 119.43
-4 -6 -2 1590.1 115.87
4 -6 2 1613.92 119.83
-4 6 -2 1906.69 121.92
-4 6 -2 1884.53 118.04
4 -6 -2 1641.38 118.1
-4 -6 2 1768.46 117.27
-4 6 2 1759.77 119.27
-4 6 2 1718.54 119.17
4 6 2 1806 120.23
4 6 -2 1713.21 119.19
-4 -6 -2 1910.06 128.5
-4 6 -2 1807.91 127.35
-4 6 -2 1592.54 119.37
4 -6 -2 1442.8 117.69
4 6 2 1725.43 118.43
4 -6 2 1709.92 119.86
-4 -6 2 1751.86 119.1
4 -6 -2 1586.78 119.24
-4 -6 -2 1853.1 124.6
-4 6 -2 1814.72 124.44
-4 -6 -2 1792.08 117.84
4 7 -2 0.59 1.61
-4 7 -2 -3.31 2.87
-4 7 2 0.72 2.16
4 -7 -2 -0.57 1.93
-4 -7 2 0.37 1.27
4 7 2 -0.92 2.26
-4 7 -2 -0.9 1.66
-4 7 -2 0.85 1.8
4 7 2 0.56 2.06
-4 -7 -2 4.15 5.09
-4 7 -2 -2 3.87
-4 -7 -2 0.44 1.57
4 -7 2 0.89 2.04
-4 -7 -2 1.51 3.93
-4 7 -2 -1.5 3.69
4 8 -2 230.41 21.11
-4 8 -2 295.5 24.13
4 -8 -2 236.79 21.07
-4 -8 2 254.75 20.04
-4 8 2 285.22 22.48
4 8 2 287.89 23.57
-4 8 -2 277.12 20.63
-4 -8 -2 298.89 28.8
-4 8 -2 249.86 26.96
-4 8 -2 251.68 22.56
4 -8 2 265.53 23.05
-4 -8 -2 255.3 25.15
-4 8 -2 255.74 25.17
-4 -8 -2 284.32 20.63
-4 9 -2 10.18 1.94
-4 9 2 6.66 1.28
-4 9 -2 14.97 4.29
4 9 2 16.1 4.6
-4 -9 2 10.42 2.35
-4 9 -2 5.54 2.19
-4 9 -2 9.73 3.62
-4 -9 -2 11.51 5.55
-4 9 -2 14.64 5.97
-4 -9 2 5.35 1.19
-4 -9 -2 10.14 2.41
4 -9 2 17.52 4.5
-4 -9 -2 5.59 3.87
-4 9 -2 1.38 3.21
-4 -9 -2 8.17 1.52
-4 10 -2 23.72 3.49
-4 10 2 22.41 2.93
-4 10 -2 44.65 7.08
4 10 -2 32.34 6.04
4 10 2 45.43 7.41
-4 -10 2 25.91 3.84
-4 10 -2 35.82 4.32
-4 -10 -2 37.1 8.59
-4 10 -2 45.86 9.13
-4 -10 2 23.28 2.88
-4 10 -2 45.5 7.02
-4 -10 -2 28.63 3.99
4 -10 2 35.53 6.39
4 -10 -2 44.13 6.45
-4 -10 -2 43.84 7.97
-4 10 -2 37.08 7.07
-4 -10 -2 26.63 3.22
-4 11 2 2.85 1.26
-4 11 -2 -0.37 1.56
-4 11 2 4.89 3.06
-4 11 -2 4.37 3.29
4 11 -2 -1.1 2.7
4 11 2 2.5 2.87
-4 -11 2 1.77 1.44
-4 11 -2 3.1 1.72
-4 -11 -2 9 5.18
-4 11 -2 -6.82 3.92
-4 11 -2 6.84 3.28
-4 -11 -2 4.47 2
4 -11 2 9.52 4
4 -11 -2 1.98 2.43
-4 -11 -2 5.13 3.7
-4 11 -2 2.54 2.92
-4 -11 -2 3.04 1.4
-4 -11 2 -0.46 2.12
-4 12 2 539.24 34.01
-4 12 -2 421.63 29.1
-4 -12 2 455.59 29.76
-4 12 -2 427.4 32.92
-4 12 2 350.83 28.1
4 12 -2 489.57 33.88
4 12 2 528.8 35.66
-4 -12 -2 448.74 36.72
-4 12 -2 469.45 36.48
-4 -12 -2 394.31 28.58
-4 -12 2 344.87 27.92
-4 12 -2 548.16 35.11
-4 -12 -2 491.13 34.52
4 -12 -2 543.51 34
-4 12 -2 418 33.53
-4 -12 -2 433.85 29.07
4 -12 2 489.91 34.81
-4 13 2 1.14 2.97
-4 13 -2 3.9 1.94
-4 -13 2 6.22 2.62
4 13 -2 1.21 3.15
-4 -13 -2 0.14 0.87
4 13 2 2.86 3.51
-4 13 -2 1.61 1.64
-4 -13 -2 2.93 1.63
-4 -13 -2 11.77 5.65
-4 13 -2 1.58 3.37
4 13 -2 1.35 1.15
-4 13 -2 -2.67 3.47
-4 -13 -2 2.35 1.93
4 -13 2 1.34 3.5
4 -13 -2 2.23 2.74
-4 -13 -2 2.45 3.69
-4 13 -2 2.39 3.28
-4 -13 2 0.64 1.27
-4 14 -2 1434.05 89.13
-4 -14 2 1692.5 89.9
-4 14 2 1658.76 94.22
-4 -14 -2 1091.84 86.68
4 14 -2 1683.05 94.8
4 14 2 1203.32 93.61
-4 14 -2 1161.14 87.02
-4 -14 -2 1313.34 88.47
-4 -14 -2 1521.26 96.22
-4 14 -2 1324.62 94.52
4 14 -2 1076.26 86.95
-4 14 -2 1715.52 96.22
-4 -14 2 1215.18 87.62
-4 -14 -2 1436.48 93.15
-4 14 -2 1365.67 92.61
4 -14 -2 1689.52 94.06
-4 -14 2 1218.12 91.7
-4 -14 -2 1139.97 87.56
4 -14 2 1311.63 93.77
-4 15 2 13.87 4.92
-4 15 -2 12.21 3.19
-4 -15 2 8.83 2.83
4 15 -2 11.96 5.05
-4 -15 -2 9.33 2.11
-4 15 -2 5.02 1.59
-4 15 2 5.5 4.16
-4 -15 2 7.05 4.27
-4 -15 -2 9.4 5.11
-4 15 -2 13.23 5.43
4 15 -2 2.97 1.83
-4 -15 -2 4.49 2.48
-4 15 -2 15.37 5.84
-4 -15 -2 5.93 2.06
-4 -15 2 8.6 3.88
-4 15 2 11.18 4.47
4 -15 -2 9.85 4.3
-4 -15 -2 8.04 4.14
-4 15 -2 4.51 2.98
-4 -15 2 8.29 2.44
-4 16 -2 773.05 54.6
-4 16 2 986.39 59.84
4 16 -2 806.23 58.6
-4 -16 -2 798.35 54.31
-4 16 2 596.85 56.62
-4 -16 2 664.06 57.47
-4 -16 -2 843.78 59.97
-4 16 -2 753.76 58.61
4 16 -2 597.55 52.56
-4 16 -2 913.18 61.21
-4 -16 -2 775.03 57.18
-4 16 -2 788.55 56.98
4 -16 -2 886.68 58.64
-4 -16 2 669.03 55.74
-4 16 2 717.94 56.29
-4 17 2 1.48 3.4
-4 17 -2 -0.81 2.8
4 17 -2 -2.92 3.59
-4 17 2 -1.29 3.37
-4 -17 2 -1.35 3.1
-4 -17 -2 -0.72 2.17
-4 -17 -2 -1.51 3.7
-4 17 -2 1.41 3.47
4 17 -2 -1.07 2.03
-4 17 -2 5.32 4.07
-4 -17 2 -2 2.88
-4 17 2 3.09 3.34
-4 -17 -2 -1.11 2.88
-4 17 -2 1.1 3.44
4 -17 -2 2.71 3.33
-4 18 -2 52.73 7.34
-4 18 -2 51.99 8.26
-4 18 2 52.84 9.89
4 18 -2 20.87 6.99
4 18 2 79.81 10.98
-4 -18 -2 48.11 6.8
-4 18 2 45 8.18
4 18 -2 19.96 4.7
-4 18 -2 56.8 10.47
4 -18 2 58.12 9.52
4 -18 -2 24.02 6.79
-4 -18 2 48.63 7.32
-4 19 -2 5.88 3.73
-4 19 -2 5.21 3.6
-4 19 2 6.79 5.13
4 19 -2 8.8 4.78
4 19 2 1.53 3.28
-4 -19 -2 4.4 2.89
-4 19 2 3.54 3.58
-4 19 -2 16.04 6.53
4 -19 2 10.35 4.82
4 -19 -2 8.5 4.78
-4 -19 2 14.34 4.07
-4 20 -2 3.2 3.37
-4 20 -2 8.26 4.5
-4 20 2 5.03 4.63
4 20 -2 1.44 3.57
4 20 2 9.07 4.93
-4 -20 -2 10.54 4.01
-4 20 -2 6.36 5.54
4 -20 2 14.74 5.3
4 -20 -2 6.92 4.36
-4 21 -2 1.44 3.07
-4 21 2 -3.33 4.34
4 21 2 1.5 3.45
-4 21 -2 4.22 4.85
4 -21 2 -1.46 3.59
4 -21 -2 -2.72 3.73
4 22 -2 236.84 24.56
4 -22 -2 282.1 25.27
4 23 -2 -4.09 4.74
4 0 3 2.09 1.35
4 0 3 0.78 1.48
-4 0 -3 1.1 1.66
-4 0 3 -0.49 1.28
4 0 3 3 1.88
4 0 3 -0.13 0.65
4 0 3 -0.86 1.97
-4 0 -3 -2.74 4.75
4 0 3 -0.67 1.93
4 0 3 0.6 1.56
-4 0 -3 -1.99 3.87
4 0 3 0.35 1.17
4 0 -3 -0.33 1.04
4 -1 3 84.31 6.99
4 -1 3 79.92 7.35
4 -1 3 90.74 9.4
-4 -1 -3 88.26 7.73
-4 1 -3 90.26 8.5
4 1 -3 65.61 6.58
4 1 -3 93.53 8.34
4 1 3 68.29 6.86
4 -1 -3 97.54 8.28
4 1 3 100.48 9.93
4 1 3 72.81 7.94
4 -1 3 88.46 8.32
-4 1 3 78.47 7.61
-4 -1 3 90.45 7.81
4 1 3 72.1 6.81
4 -1 3 71.12 6.98
4 -1 -3 86.56 7.24
-4 -1 -3 63.53 13.33
-4 1 -3 70.79 14.16
4 -1 3 75.02 8.67
-4 1 3 39.11 5.61
4 1 3 84.16 8.56
4 -1 3 68.21 7.81
4 1 3 101.63 8.52
-4 -1 -3 65.14 11.86
-4 1 -3 52.3 10.98
4 -2 3 34.72 4.65
4 2 3 27.69 3.96
4 2 -3 28.95 3.95
-4 -2 -3 40.71 4.57
4 -2 3 32.39 4.02
-4 2 -3 36 5.49
-4 2 3 31.05 5.21
-4 2 3 38.27 4.87
4 -2 3 33.84 4.92
-4 -2 3 36.06 4.67
4 2 3 35.55 5.19
4 -2 -3 28.56 4.41
4 2 -3 30.85 4.72
4 -2 3 41.86 5.92
4 2 3 38.55 6.03
-4 -2 -3 33.21 9.67
4 2 3 32.09 3.9
-4 2 3 25.66 3.41
4 -2 3 28.72 5.48
4 2 3 30.19 5.06
4 -2 3 34.8 5.01
4 2 3 35 4.81
-4 2 -3 31.69 8.07
4 -2 -3 30.5 4.17
4 -2 3 37.25 4.38
4 3 -3 232.55 20.23
4 -3 3 297.87 20.13
4 -3 3 275.14 21.11
-4 3 3 240.52 21.69
4 3 -3 271.38 21.31
-4 -3 -3 280.14 19.91
-4 3 -3 242.16 21.94
4 -3 3 272.51 22.49
4 3 3 246.43 20.39
-4 -3 3 280.56 20.81
4 -3 -3 282.27 21.19
4 -3 3 274.55 21.15
4 3 3 287.05 22.13
-4 -3 -3 284.18 29.95
4 -3 -3 243.15 20.38
4 -3 3 244.29 20.27
4 3 3 257.11 21.53
4 -3 3 279.48 21.92
-4 3 -3 287.19 27.45
4 3 3 254.2 20.81
4 4 -3 112.33 10.89
4 -4 3 129.97 11.78
-4 4 3 128.18 12.33
4 4 -3 157.13 12.13
4 -4 3 143.61 13.03
-4 -4 -3 121.73 9.7
-4 4 -3 89.5 11.86
4 4 3 107.24 10.77
-4 -4 3 129.1 11.11
4 -4 -3 126.63 11.54
-4 4 3 125.8 11.95
4 4 3 136.94 12.66
4 -4 -3 125.88 11.16
-4 4 -3 175.07 20.41
-4 -4 -3 128.89 18.5
4 4 3 104.13 11.47
4 -4 3 126.66 11.06
4 -4 3 130.69 12.32
-4 -4 -3 162.68 17.49
-4 4 -3 117.69 15.74
4 5 -3 -0.55 2.02
-4 5 -3 -1.94 2.66
4 -5 3 -1.34 1.93
-4 -5 3 -1.95 1.85
4 -5 -3 -1.75 1.97
4 5 3 -0.84 2.18
4 -5 3 2.48 2.15
4 5 -3 1.16 1.75
-4 5 3 0.68 1.66
4 5 3 0.67 1.92
-4 5 -3 -0.9 2.2
4 -5 -3 -1.09 1.58
-4 -5 -3 2.32 4.03
-4 5 -3 2.26 5.2
4 -5 3 -0.8 1.96
-4 -5 -3 -1.65 4.06
-4 5 -3 1.66 3.22
4 6 -3 9.45 2.74
-4 6 3 10.85 1.92
-4 6 -3 7.96 3.55
4 -6 3 11.81 3.43
-4 -6 3 12.24 2.71
4 -6 -3 11.01 2.97
4 6 3 16.3 4.01
4 -6 3 16.15 3.92
4 6 -3 11.17 3.08
-4 6 3 12.46 3.39
4 6 3 12.18 3.57
-4 6 -3 15.88 4.13
-4 -6 -3 13.45 6.51
-4 6 -3 14.98 6.22
4 -6 -3 10.6 2.78
4 -6 3 14.68 3.83
-4 -6 -3 11.13 5.23
-4 6 -3 11.16 5.06
-4 7 3 232.18 17.74
4 7 -3 216.13 19.65
-4 7 -3 226.52 21.5
4 -7 -3 231.47 19.94
-4 -7 3 266.03 19.49
4 7 -3 253.21 19.98
4 7 3 282.47 22.23
-4 -7 -3 268.81 27.59
-4 7 -3 214.56 25.73
-4 7 -3 253.35 21.75
4 7 3 221.1 20.33
-4 -7 3 248.83 17.9
4 -7 -3 221.61 19.75
-4 -7 -3 258.24 24.64
-4 7 -3 288.04 25.41
4 -7 3 278.11 21.95
-4 8 3 37.96 4.04
4 8 -3 48.11 6.35
-4 8 -3 30.14 6.12
-4 -8 3 38.33 5.14
4 8 3 46.93 7.18
4 8 -3 42.25 5.75
-4 8 -3 34.8 6.33
4 -8 -3 40.02 5.85
-4 -8 -3 67.77 11.73
-4 8 -3 35.61 8.84
-4 -8 3 39.29 4.14
4 -8 3 49.08 7.31
-4 -8 -3 35.82 8.03
-4 8 -3 37.14 7.78
-4 9 -3 29.86 4.11
-4 9 3 26.36 3.5
4 9 -3 31.04 5.39
-4 9 -3 33.89 6.26
-4 9 3 41.16 6.21
-4 -9 3 32.93 4.58
4 9 3 39.38 6.82
-4 9 -3 37.17 6.38
4 -9 -3 31.63 5.42
-4 -9 -3 33.68 8.86
-4 9 -3 53.23 9.99
-4 -9 3 32.1 3.61
4 -9 3 50.73 7.45
-4 -9 -3 27.63 7.01
-4 9 -3 31.75 7.08
-4 -9 -3 24.61 3.61
-4 10 -3 35.95 4.62
-4 10 3 32.6 3.99
4 10 -3 44.21 6.46
-4 10 -3 34.5 6.71
-4 10 3 33.87 6.41
-4 -10 3 38.56 5.08
4 10 3 43.48 7.44
-4 -10 3 31.19 3.91
-4 10 -3 39.64 6.85
4 -10 -3 31.56 5.82
-4 -10 -3 34.4 8.64
-4 10 -3 51.26 10.09
4 -10 3 34.77 6.73
4 -10 -3 52.2 7.19
-4 -10 -3 39.53 7.84
-4 10 -3 30.77 6.97
-4 -10 -3 31.87 4.15
-4 11 3 76.78 9.58
4 11 -3 67.06 8.96
-4 11 -3 100.65 11.35
-4 11 3 59.19 6.5
-4 11 -3 69.29 7.44
-4 -11 3 73.23 7.82
4 11 3 84.27 11.03
4 -11 -3 53.99 8.41
-4 -11 3 64.08 6.48
-4 -11 -3 67.38 7.02
-4 -11 -3 68.31 11.88
-4 11 -3 81.09 12.5
-4 11 -3 89.41 10.8
4 -11 -3 93.97 10.25
4 -11 3 83.17 10.7
-4 -11 -3 62.69 10.2
-4 11 -3 83.46 11.13
-4 12 3 388.26 28.81
4 12 -3 345.09 28.13
-4 12 -3 379.81 29.4
-4 12 3 301.53 24.54
-4 12 -3 339.21 25.55
-4 -12 3 315.11 25.77
4 12 3 321.95 29.65
-4 -12 -3 349.62 32.27
-4 12 -3 331.42 31.46
-4 -12 -3 327.86 25.14
-4 -12 3 291.51 24.39
-4 12 -3 365.61 29.68
-4 -12 -3 361.33 30.17
-4 12 -3 316.81 29.36
4 -12 -3 362.24 28.38
4 -12 3 379.79 30.4
-4 13 -3 118.53 10.99
-4 13 3 117.61 13.19
4 13 -3 115.58 13.44
-4 13 -3 140.08 14.5
-4 13 3 105.42 10.01
-4 -13 3 122.33 11.35
4 13 -3 115.49 13.54
4 13 3 113.92 14.39
-4 -13 -3 123.53 10.76
-4 -13 3 96.58 9.8
-4 -13 -3 98.76 14.85
-4 13 -3 102.11 14.84
-4 13 -3 130.97 14.83
-4 13 -3 106.73 13.58
4 -13 -3 118.5 13.21
-4 -13 -3 98.21 13.4
4 -13 3 108.26 14.2
-4 14 -3 64.57 7.65
-4 14 3 79.54 10.15
-4 14 -3 88.33 10.86
4 14 -3 83.11 10.48
-4 14 3 55.72 6.68
4 14 -3 86.32 10.95
-4 -14 -3 43.65 5.17
4 14 3 74.33 10.89
-4 14 -3 85.04 11.46
-4 -14 -3 69.24 7.52
-4 -14 3 69.61 6.78
-4 -14 -3 81.2 12.42
-4 14 -3 61.99 10.93
4 -14 3 62.4 10.54
-4 -14 -3 85.1 11.07
-4 14 -3 65.86 10.17
4 -14 -3 71.67 9.54
-4 15 3 -2.52 4.37
-4 15 -3 4.94 2.53
4 15 -3 2.61 3.21
4 15 -3 5.3 4.46
4 15 3 -1.52 3.72
-4 -15 -3 0.64 2.29
-4 -15 -3 -1.71 3.63
-4 15 -3 1.59 3.39
4 -15 3 1.52 3.24
-4 15 -3 1.25 3.25
4 -15 -3 -2.37 3.25
-4 16 -3 89.74 9.98
4 16 -3 55 10.8
-4 16 3 111.97 12.96
4 16 -3 97.08 12.61
-4 -16 -3 87.74 9.79
-4 16 -3 100.57 13.88
4 -16 -3 93.96 11.96
4 -16 3 102.99 13.5
-4 17 -3 108.87 11.6
4 17 -3 86.63 13.11
-4 17 3 157.49 15.43
4 17 -3 103.99 13.61
-4 -17 -3 109.59 11.2
-4 17 3 73.1 12.04
-4 -17 3 89.48 12.81
-4 17 -3 129.09 15.9
4 -17 -3 105.57 13.12
-4 -17 3 90.19 11.88
-4 18 3 29.38 6.86
-4 18 -3 16.71 4.66
4 18 -3 13.08 5.46
4 18 -3 15.05 6.12
-4 18 3 32.03 6.7
-4 -18 -3 24.26 5.08
-4 18 -3 7.74 5.19
-4 -18 3 16.9 4.89
4 -18 -3 20.08 5.83
-4 19 3 3.21 4.43
-4 19 -3 9.25 4.12
-4 19 -3 9.5 4.98
4 19 -3 9.92 5.2
4 19 -3 2.96 4.09
4 19 3 19.67 6.32
-4 -19 -3 4.61 3.78
-4 19 3 3.64 3.2
-4 19 -3 10.27 5.94
-4 -19 3 9.33 3.74
4 -19 -3 8.31 4.36
-4 20 -3 256.92 22.78
4 20 -3 164.84 22.73
-4 20 -3 262.62 24.67
-4 20 3 253.7 25.54
4 20 -3 226.89 23.57
4 20 3 300.63 25.76
-4 20 -3 262.91 27.45
4 -20 -3 204.68 22.57
4 -20 3 272.1 24.68
4 21 -3 33.81 7.93
4 21 -3 55.42 10.13
4 -21 -3 48.66 8.54
4 22 -3 211.34 21.74
4 -22 -3 210.69 21.09
4 0 4 3140.13 213.36
4 0 4 3149.67 213.1
-4 0 -4 3182.64 213.68
4 0 4 3362.23 216.36
-4 0 4 3359.88 214.55
4 0 4 2791.07 211.96
4 0 4 3482.85 216.14
4 0 4 3121.47 214.22
-4 0 -4 1851.26 220.27
4 0 4 3171.69 213.41
4 0 -4 3150.6 213.53
4 0 4 3637.01 216.02
4 0 4 3086.15 214.15
-4 0 -4 2036.8 218.59
4 0 4 3450.29 215.68
4 1 4 19.99 3.17
4 1 -4 15.56 3.26
-4 -1 -4 20.54 3.45
4 1 4 25.03 4.17
-4 1 -4 24.66 4.15
4 -1 4 21.44 3.91
4 -1 4 35.82 4.49
-4 1 4 22.47 4.24
-4 -1 4 20.77 4.42
4 -1 4 34.17 4.71
4 1 4 18.45 2.55
4 1 4 18.66 3.98
4 -1 4 17.3 2.94
4 -1 4 46.56 6.23
4 -1 4 27.28 5.57
4 1 4 34.03 6.06
4 1 4 22.04 5.28
-4 -1 -4 21.91 8.38
-4 1 -4 18.99 9.25
4 1 4 21.8 3.9
4 1 4 18.05 4.63
4 -1 4 24.49 4.56
4 1 4 18.19 3.88
-4 -1 -4 22.38 7.65
-4 1 -4 39.13 9.25
4 -1 4 37.64 4.68
4 -1 -4 25.55 4.12
4 1 -4 21.71 3.83
4 -1 4 39.97 6.28
4 1 4 25.32 4.78
4 -2 4 1132.34 72.55
4 -2 4 1209.12 73.28
4 2 4 998.84 71.46
-4 2 -4 1228.73 74.32
4 -2 4 1161.69 75.3
4 2 -4 1013.57 72.63
4 2 4 1099.67 72.85
-4 -2 4 1145.15 73.6
4 -2 -4 1167.73 73.77
4 2 4 1141.84 76.12
4 -2 4 1057.88 72.93
4 2 4 1166.86 75.78
4 2 4 1147.88 74.1
4 2 4 791.99 70.18
-4 2 4 1110.97 73.61
4 2 4 1205.58 72.74
-4 -2 -4 1074.6 84.49
4 -2 -4 1079.26 73
4 -2 4 1088.62 72.76
4 2 4 1185.61 74.78
4 -2 4 1057.91 73.57
-4 2 -4 1030.5 80.61
4 2 4 1179.41 73.26
4 -2 4 1178.05 75.84
4 3 4 0.54 1.64
4 3 -4 0.55 1.75
-4 3 -4 7.23 2.88
4 -3 4 0.44 2.34
4 -3 4 7.37 2.88
-4 3 4 6.62 2.64
4 -3 4 4.2 1.94
-4 -3 4 2.44 2.06
4 3 4 3.76 2.45
4 -3 -4 1.9 2.14
4 3 -4 2.52 1.82
4 -3 4 1.71 2.68
4 3 4 2.26 2.61
4 3 4 3.8 2.56
4 3 4 2.14 1.91
-4 -3 -4 5.09 5.42
4 -3 4 5.7 2.43
4 -3 4 8.35 4.16
4 -3 4 5.73 2.57
4 3 4 2.52 1.7
-4 3 -4 1.9 4.68
4 -3 -4 2.89 2.52
4 4 -4 185.7 17.56
4 4 -4 206.79 17.4
4 -4 4 256.41 19.12
4 -4 4 235.46 17.55
4 -4 4 225.4 19.38
-4 4 -4 237.97 19.87
4 4 4 208.95 17.85
-4 -4 4 225.74 18.27
4 -4 -4 223.59 18.34
4 4 4 157.6 19.67
-4 4 4 209.8 18.23
4 -4 4 214.02 17.42
4 4 4 227.22 19.09
-4 4 4 230.41 18.56
-4 -4 -4 231.27 26.24
-4 4 -4 232.13 26.27
4 -4 -4 212.32 17.94
4 -4 4 188.44 17.51
4 4 4 243 19.29
-4 -4 -4 180.56 22.23
-4 4 -4 215 23.49
4 4 4 234.72 17.45
4 -4 4 208.71 20.42
4 -4 4 229.08 18.99
4 5 4 30.32 4.66
4 5 -4 29.22 4.74
-4 5 -4 32.25 6.2
-4 5 4 27.5 3.88
4 -5 4 36.65 5.59
-4 -5 4 36.81 5.23
4 5 4 32.1 5.55
4 -5 4 27.93 5.33
4 5 -4 29.18 4.3
-4 5 4 28.32 4.61
4 5 4 18.15 5.38
4 5 4 29.67 5.29
-4 -5 -4 19.04 7.96
-4 5 -4 25.64 8.56
4 -5 -4 22.55 4.22
4 -5 4 30.71 5.29
-4 -5 -4 21.11 6.4
-4 5 -4 23.04 6.8
4 -5 4 25.4 4.35
4 -5 4 23.05 5.89
4 6 4 23.32 4.19
4 6 -4 28.11 4.61
-4 6 -4 21.36 5.61
-4 6 4 19.57 3.34
-4 -6 4 26.66 4.4
4 6 4 26.31 5.3
4 -6 4 25.73 5.27
4 6 -4 29.65 4.23
-4 6 4 26.43 4.56
4 6 4 18.24 5.44
-4 -6 4 31.42 3.89
-4 -6 -4 27.58 8.4
-4 6 -4 20.21 7.23
4 -6 -4 19.55 4.11
4 -6 4 29.67 5.5
-4 -6 -4 11.89 5.38
-4 6 -4 35.84 8.29
4 -6 4 23.05 4.25
4 -6 4 37.13 7
-4 7 4 2.69 2.46
4 7 -4 -0.73 2.1
-4 7 4 0.36 1.38
-4 7 -4 -1.3 2.77
-4 -7 4 0.62 2.69
4 7 4 -2.03 2.16
4 -7 4 0.88 2.02
4 7 -4 -1.5 2.58
4 7 4 1.22 3.18
-4 7 -4 5.37 3.09
4 -7 -4 -0.72 2.24
-4 -7 -4 2.25 5.17
-4 7 -4 -2.19 4.26
-4 -7 4 0.36 1.52
4 -7 4 0.97 1.89
-4 -7 -4 1.67 3.55
-4 7 -4 1.65 3.79
4 -7 4 3.83 2.08
4 -7 4 1.23 3.21
-4 8 4 1342.34 91.53
4 8 -4 1118.22 93.06
-4 8 4 1321.24 94.41
4 8 -4 1340.86 92.32
-4 8 -4 1018.8 95.62
-4 -8 4 1266.38 92.82
4 8 4 1468.14 96.89
4 8 4 1467.86 96.1
4 -8 -4 1194.64 93.26
-4 -8 4 1348.39 91.54
-4 -8 -4 1336.06 101.49
-4 8 -4 1423.92 101.78
-4 8 -4 1357.44 95.75
-4 -8 -4 1310.86 91.97
-4 -8 -4 1329.04 98.51
-4 8 -4 1416.8 98.97
4 -8 4 1290.68 96.08
4 -8 4 1436.03 95.74
-4 9 -4 13.58 3.27
-4 9 4 17.31 2.92
4 9 -4 18.16 4.29
-4 9 -4 13.1 5.3
-4 9 4 18.78 4.64
-4 -9 4 15.03 3.65
4 9 4 11.73 4.31
4 9 4 9.79 4.23
4 9 -4 16.76 3.45
-4 9 -4 9.35 4.05
-4 -9 -4 14.93 6.49
-4 9 -4 18.61 7.02
-4 -9 4 14.23 2.7
4 -9 -4 13.89 3.81
4 -9 4 18.01 4.88
-4 -9 -4 11.09 5.24
-4 9 -4 3.16 4.23
-4 -9 -4 12.53 3.01
4 -9 4 24.27 5.76
-4 10 4 1308.87 92.75
4 10 -4 1184.22 94.9
-4 10 4 1324.11 95.85
-4 10 -4 1457.54 99.51
-4 10 -4 1370.8 93.82
-4 -10 4 1274.91 93.97
4 10 4 1513.93 98.24
4 10 -4 1296.39 93.52
4 10 4 1494.25 98.34
-4 -10 4 1297.81 92.66
-4 -10 -4 1416.47 102.68
-4 10 -4 1261.49 101.08
-4 -10 -4 1302.49 93.25
-4 10 -4 1381.26 97.38
4 -10 -4 1187.37 94.92
-4 10 -4 1334.98 99.21
4 -10 4 1451.56 97.89
4 -10 4 1386.65 97.51
-4 -10 -4 1400.33 99.62
-4 11 -4 7.92 2.66
-4 11 4 7.29 2.16
-4 11 -4 -1.49 3.67
4 11 -4 5.72 3.22
-4 11 4 2.06 2.55
-4 -11 4 4.01 2.67
4 11 4 10.8 4.84
-4 11 -4 3.78 3.64
4 -11 -4 1.91 2.37
-4 -11 -4 12.19 6.12
-4 11 -4 1.96 4.18
4 -11 4 1.29 3.73
-4 -11 -4 -1.51 3.73
-4 11 -4 4.52 3.93
-4 -11 4 5.37 2.2
-4 -11 -4 3.71 1.97
4 -11 4 9.61 4.18
-4 12 4 409.52 33.08
4 12 -4 378.99 32.55
-4 12 -4 520.34 37.26
-4 12 -4 404.98 30.88
-4 12 4 372.36 29.81
-4 -12 4 433.28 31.42
4 12 4 346.35 33.98
-4 -12 4 364.45 29.68
-4 -12 -4 386.95 30.39
-4 12 -4 467.84 35.16
4 -12 -4 401.68 32.84
4 -12 4 438.29 34.24
4 -12 4 419.67 34.9
-4 13 4 0.99 1.93
-4 13 -4 -0.69 1.98
-4 13 -4 -1.42 4.28
-4 13 4 -2.23 3.06
4 13 -4 1.12 2.58
-4 -13 4 0.74 1.81
4 13 4 1.5 3.45
-4 13 -4 1.4 3.22
4 -13 -4 1.11 2.37
4 -13 4 -1.45 4.18
-4 -13 4 1.42 1.79
-4 -13 -4 1.87 2.03
4 -13 4 -1.2 3.12
-4 14 -4 8.93 2.85
-4 14 -4 -1.44 3.77
-4 14 4 5.75 3.34
4 14 -4 7.33 3.7
-4 -14 4 6.28 3.08
4 14 4 7.5 4.71
-4 14 -4 4.49 3.92
4 -14 -4 4.82 3.49
4 -14 4 10.68 4.97
-4 -14 -4 8.87 3.11
-4 15 -4 10.39 3.64
-4 15 4 14.48 4.76
-4 15 -4 17.45 5.99
4 15 -4 9.22 4.93
4 15 4 18 5.74
-4 15 -4 11.19 5.27
4 -15 -4 7.78 3.83
4 -15 4 16.63 6.49
-4 -15 -4 15.52 3.84
-4 16 -4 3.44 2.6
-4 16 4 3.87 3.55
-4 16 -4 2.87 4.49
4 16 -4 8.63 4.51
4 16 4 4.5 3.92
-4 16 -4 1.71 3.32
4 -16 -4 4.18 3.83
4 -16 4 3.02 3.94
-4 -16 -4 1.6 2.2
-4 17 4 -1.38 4.15
-4 17 -4 1.87 3.03
4 17 -4 -4.62 4.64
4 17 4 1.5 3.45
-4 17 -4 1.81 4.17
4 -17 -4 -1.5 4.52
4 -17 4 -3.01 3.7
-4 -17 -4 2.59 2.91
-4 18 -4 528.19 41.84
4 18 -4 457.63 44.06
-4 18 4 615.26 44.91
-4 -18 -4 556.52 41.69
-4 18 -4 583.79 47.23
4 -18 -4 437.37 43.47
4 -18 4 521.71 44.1
-4 19 4 -6.05 8.21
-4 19 -4 9.77 3.91
4 19 -4 5.26 5.29
-4 19 -4 8.15 5.88
4 -19 -4 8.52 5.93
-4 -19 -4 5.92 3.56
-4 20 -4 430.71 30.96
4 20 -4 263.14 31.05
-4 20 4 452.7 33.89
4 -20 -4 238.1 30.18
4 0 5 1.11 1.37
4 0 5 0.48 1.76
4 0 5 4.25 2.92
-4 0 5 2.96 2.03
4 0 5 0.34 1.11
4 0 5 -0.62 1.62
4 0 5 0.93 1.97
-4 0 -5 3.11 5.4
4 0 5 0.55 1.59
-4 0 5 0.24 0.62
4 0 5 0.6 1.57
-4 0 -5 -2.34 5.38
4 0 5 0.95 2.17
4 0 -5 0.59 1.55
4 1 -5 28.8 4.59
4 1 5 36.97 4.92
4 -1 5 30.38 4.64
4 -1 5 34.57 4.75
4 1 5 31.1 3.96
4 -1 5 35.7 6.2
4 1 5 27.97 6.07
-4 1 5 34.27 5.2
-4 -1 5 31.78 5.29
4 1 5 23.58 3.47
4 -1 5 22.47 4.07
4 1 5 36.43 5.33
4 -1 5 25.65 3.66
4 -1 5 22.79 5.16
4 1 5 28.51 5.59
4 1 5 34.4 4.85
-4 -1 -5 45.25 11.89
-4 1 -5 32.89 11.2
4 -1 5 30.81 4.8
4 1 5 30.87 4.51
-4 -1 -5 22.58 7.86
-4 1 -5 27.44 8.66
4 -1 5 37.9 5.04
4 -1 -5 30.93 4.73
4 -1 5 20.72 5.17
4 1 5 30.8 5.37
4 2 5 122.49 11.62
4 -2 5 131.65 11.87
4 -2 5 125.94 11.48
4 2 5 104.94 9.96
4 -2 5 126.22 12.81
4 2 -5 115.4 11.54
4 2 5 122.32 9.87
-4 -2 5 154.6 12.85
4 2 5 71.06 12.35
4 -2 5 123.17 10.65
4 -2 5 138.01 13.13
4 2 5 138.27 13.53
4 -2 5 126.52 11.26
4 2 5 121.14 11.99
-4 2 5 121.04 12.04
4 2 5 121.43 11.4
4 -2 5 126.23 11.59
4 -2 -5 140.37 12.22
-4 -2 -5 128.29 19.92
4 2 5 136.39 11.39
-4 2 -5 129.91 17.95
4 -2 5 123.34 13.87
4 2 5 113.9 12.04
4 -2 5 122.41 11.87
4 -3 5 111.83 10.63
4 -3 5 102.21 11.04
4 -3 5 105.11 9.96
4 3 5 82.64 8.08
-4 3 -5 100.8 10.44
4 3 -5 89.64 10.01
4 3 5 82.89 9.7
-4 -3 5 100.98 10.61
4 3 5 88.57 12.24
4 -3 5 113.69 10.86
4 -3 5 102.84 9.53
4 3 5 100.85 10.54
4 3 5 98.15 7.93
-4 3 5 94.91 10.36
4 -3 5 103.27 10.17
4 -3 -5 114.1 10.64
-4 -3 -5 73.18 15.39
4 3 5 113.41 10.07
4 3 5 117.16 9.73
-4 3 -5 119.18 16.57
4 3 5 101.02 10.21
4 -3 5 86.84 12.04
4 -3 5 103.84 10.57
4 4 5 1.98 1.95
4 4 -5 11.41 3.19
-4 4 -5 7.94 2.79
4 -4 5 7.76 2.97
4 -4 5 8.28 2.62
-4 4 5 5.21 2.18
4 4 5 9.28 4.33
-4 4 5 8.67 2.85
4 -4 5 6.06 2.07
-4 -4 5 5.24 2.55
4 4 5 4.19 2.34
4 -4 5 10.51 3.43
4 -4 5 8.64 2.86
4 4 5 7.54 2.51
-4 -4 -5 21.77 8.85
-4 4 -5 21.48 8.42
4 -4 5 8.83 3.22
-4 -4 -5 4.07 5.01
-4 4 -5 4.11 5.37
4 4 5 3.97 1.92
4 -4 -5 5.06 2.39
4 -4 5 3.13 2.15
4 4 5 6.98 2.56
4 -4 5 6.59 4.3
4 5 -5 0.74 1.7
-4 5 -5 -0.88 2.02
-4 5 5 -0.47 2.57
4 -5 5 1.1 1.59
4 -5 5 1.23 1.59
4 5 5 2.67 3.84
-4 5 5 0.81 1.87
-4 -5 5 -1.51 2.08
4 5 5 1.81 2.23
4 -5 5 1.13 1.63
4 -5 5 -0.87 2
-4 5 5 -0.64 1.75
-4 -5 5 0.46 2.09
-4 -5 -5 -2.63 4.57
-4 5 -5 -2.59 5.03
4 -5 5 -0.87 2
-4 -5 -5 3.93 5.11
-4 5 -5 3.97 3.86
4 -5 -5 0.75 2.15
4 -5 5 1.33 3.25
4 6 -5 139.9 14.53
-4 6 5 149 14.2
-4 6 5 149.92 13.59
-4 6 5 164.9 15.82
-4 6 -5 154.23 16.07
4 -6 5 173.96 15.58
-4 -6 5 175.82 15.12
4 6 5 194.47 18.48
4 6 5 172.01 16.07
4 -6 -5 144.77 14.59
-4 -6 -5 170.14 22.07
-4 6 -5 149.91 21.03
-4 -6 5 161.82 13.69
4 -6 5 164.97 17.59
4 -6 5 147.49 15.24
-4 6 -5 189.7 20.68
4 7 -5 86.34 10.25
-4 7 5 99.61 9.41
-4 7 5 88.34 10.83
-4 7 -5 101.79 12.02
4 -7 5 96.29 10.94
4 7 -5 87.85 8.7
-4 -7 5 81.78 9.98
4 7 5 119.91 13.48
4 7 5 123.52 12.38
4 -7 -5 82.08 10.04
-4 -7 5 93.38 9.24
4 -7 5 103.58 12.8
4 -7 5 120.25 12.12
4 8 -5 429.2 38.55
-4 8 5 543.36 37.56
4 8 -5 499.17 36.76
-4 8 5 507.2 39.86
-4 8 -5 505.88 40.93
-4 -8 5 497.08 38.69
4 8 5 625.16 43.07
4 8 5 562.94 41.38
-4 -8 5 497.69 37.3
4 -8 -5 457.46 38.72
4 -8 5 565.75 42.27
4 -8 5 502.16 40.41
-4 9 5 11.01 3.78
-4 9 -5 8.01 2.78
-4 9 -5 10.05 4.02
-4 9 5 11.86 2.96
4 9 -5 12.83 3.74
4 9 5 25.46 6.1
-4 -9 5 9.75 3.16
4 9 5 21.18 5.47
4 9 -5 13.91 2.62
-4 9 -5 11.36 4.72
-4 -9 5 11.56 2.86
4 -9 -5 6.27 2.92
4 -9 5 14.13 4.65
4 -9 5 24.85 6.06
-4 -9 -5 15.13 3.5
-4 10 -5 -0.7 1.92
-4 10 -5 2.71 3.33
-4 10 5 2 2.04
4 10 -5 -1.93 2.37
-4 10 5 5.09 3.54
4 10 5 -1.32 3.04
-4 -10 5 0.76 2.09
4 10 5 1.34 3.48
4 10 -5 1.23 1.24
-4 10 -5 1.32 3.44
-4 -10 5 1.93 1.68
4 -10 -5 3.79 2.85
4 -10 5 2.53 3.64
-4 -10 -5 -0.62 1.71
4 -10 5 6.52 3.92
-4 11 -5 39.79 5.73
-4 11 5 33.44 4.81
-4 11 -5 21.41 6.23
4 11 -5 24.57 5.5
-4 11 5 34.73 6.4
4 11 5 46.33 8.03
-4 -11 5 35.84 5.82
4 11 5 30.03 6.94
4 11 -5 31.29 4.39
-4 11 -5 44.16 7.99
4 -11 -5 37.35 6.29
-4 -11 5 26.77 4.41
4 -11 5 27 6.7
-4 -11 -5 34.67 5.34
4 -11 5 53.43 8.31
-4 12 -5 12.35 3.61
-4 12 -5 15.78 5.47
4 12 -5 6.55 3.35
-4 12 5 9.86 3.98
-4 -12 5 11.38 3.52
4 12 5 9.15 5
4 12 -5 8.08 2.3
4 12 5 10.41 4.71
4 -12 -5 6.49 3.32
-4 12 -5 14.55 4.94
4 -12 5 8.63 4.38
-4 -12 -5 9.72 3.09
4 -12 5 20.44 5.36
-4 13 -5 48.62 6.86
-4 13 -5 34.65 7.93
4 13 -5 39.71 7.4
-4 13 5 53.19 8.18
-4 -13 5 49.84 7.32
4 13 5 39.5 8.39
4 13 5 76.22 10
4 13 -5 38.44 5.22
-4 13 -5 68.95 10.42
4 -13 -5 47.63 7.9
4 -13 5 39.72 8.32
-4 -13 -5 41.19 6.33
4 -13 5 45.93 8.49
-4 14 -5 6.83 3.06
-4 14 -5 -1.45 3.79
4 14 -5 -1.25 2.66
-4 14 5 -1.18 3.83
-4 -14 5 6.2 3.18
4 14 5 1.52 3.49
4 14 5 1.3 3.38
4 14 -5 2.04 1.72
-4 14 -5 1.6 3.68
4 -14 -5 1.25 3.06
4 -14 5 4.62 4.01
-4 -14 -5 5.54 2.83
4 -14 5 5.05 3.8
-4 15 -5 2.72 2.62
-4 15 -5 2.91 3.35
4 15 -5 4.02 4.36
-4 15 5 2.44 2.8
-4 -15 5 5.63 3.16
4 15 5 -1.52 3.97
-4 15 -5 1.7 4.42
4 -15 -5 -1.34 3.09
4 -15 5 7.66 4.21
-4 -15 -5 1.69 2.43
4 -15 5 6.32 3.96
-4 16 5 532.2 38.07
4 16 -5 361.93 36.56
-4 16 -5 458.99 38.44
-4 16 -5 452.22 35.5
-4 -16 5 464.54 35.94
4 16 5 459.56 38.51
-4 -16 -5 412.15 34.85
-4 16 -5 486.52 40.25
4 -16 -5 373.03 36.72
4 -16 5 419.97 37.96
-4 17 -5 65.16 9.08
-4 17 -5 59.02 10
-4 17 5 75.22 10.73
4 17 -5 47.34 10.2
-4 -17 5 61.9 9
4 17 5 74.12 10.94
-4 17 -5 58.9 11.19
4 -17 -5 59.74 10.57
4 -17 5 56.26 10
-4 -17 -5 64.81 8.95
-4 18 -5 234.33 23.19
4 18 -5 224.01 25.25
-4 18 -5 272.2 25.87
-4 18 5 296.15 26.18
4 18 5 320.4 26.95
-4 -18 -5 243.42 22.94
-4 18 -5 260.58 27.59
4 -18 -5 254.91 25.89
4 -18 5 246.59 24.98
-4 19 -5 7.01 4.43
4 19 -5 1.72 4.49
4 -19 -5 3.47 5.43
-4 0 6 39.79 6.16
4 0 6 27.77 6.54
4 0 6 28.83 4.31
4 0 6 40.99 5.42
4 0 6 43.23 6.59
4 0 6 35 5.05
4 0 6 36.61 6.83
4 0 -6 39.92 5.95
4 1 -6 20.4 4.18
4 -1 6 23.1 4.08
-4 1 6 32.14 5.36
-4 -1 6 21.67 4.61
4 -1 6 24.18 6.06
4 1 6 14.38 5.09
4 1 6 22.07 3.55
4 -1 6 20.81 3.92
4 -1 6 21.71 3.58
4 1 6 22.17 4.17
4 -1 6 20.69 4.68
4 1 6 31.5 5.64
4 1 6 29.6 4.7
4 -1 6 20.6 3.98
4 1 6 26.87 4.13
4 -1 6 25.35 5.77
4 1 6 36.3 6.09
4 -1 -6 24.2 4.59
4 -2 6 101.32 10.13
4 -2 6 92.57 10.87
4 2 -6 96.34 10.25
4 2 6 89.88 8.5
-4 -2 6 128.24 11.57
4 -2 6 93.39 9.05
4 -2 6 101.16 11.69
4 2 6 71.63 11.6
4 2 6 94.46 11.13
4 -2 6 89.56 9.09
4 2 6 101.08 10.13
-4 2 6 102.22 10.82
4 2 6 96.73 9.91
4 -2 -6 99.57 10.51
4 2 6 73.57 8.64
4 -2 6 101.9 12.66
4 2 6 96.67 10.85
4 -2 6 86.41 9.7
4 3 -6 5.63 3.06
-4 3 6 -2.37 3.76
-4 3 6 1.76 2.43
4 -3 6 6.78 3.68
4 3 6 4.95 2.19
4 -3 6 2.47 2.04
-4 -3 6 8.74 4.03
4 3 6 23.95 6.51
4 -3 6 0.55 1.55
4 3 6 12.99 3.67
4 -3 6 4.54 2.86
4 3 6 4.58 3.61
4 -3 6 9.3 3.17
4 3 6 12.2 2.89
4 -3 -6 7.27 2.99
4 -3 6 -1.41 3.68
4 3 6 19.44 4.57
-4 4 6 2269 135.27
4 -4 6 1962.92 136.43
4 4 -6 1814.84 135.65
-4 -4 6 2144.87 136.69
4 -4 6 1981.82 136.03
4 4 6 2077.15 140.07
4 -4 6 1675.25 133.44
4 4 6 1983.25 136.26
4 4 6 1912.48 132.99
-4 4 6 1851.6 136.01
4 -4 -6 1965.79 136.01
-4 -4 6 2109.17 134.85
4 4 6 2137.42 135.53
4 4 6 1819.04 133.54
4 -4 6 1705.03 138.26
4 4 6 1950.16 135.27
4 -4 6 1680.48 135.29
4 5 -6 53.75 7.29
-4 5 6 32.08 6.38
4 -5 6 39.46 6.01
-4 5 6 40.28 6.71
4 5 6 50.42 8.93
-4 -5 6 32.8 6.63
4 -5 6 41.9 4.93
4 5 6 47.6 7.34
4 -5 6 50.92 7.48
-4 -5 6 34.29 6.1
4 5 6 41.5 4.72
4 -5 6 42.62 6.71
4 -5 -6 53.51 7.38
4 -5 6 43.85 8.47
4 5 6 48.96 6.15
-4 6 6 1422.02 91.4
-4 6 6 1273 93.35
4 -6 6 1278.4 92.83
4 6 -6 1143.39 92.16
-4 -6 6 1292.81 92.69
4 -6 6 1238.62 91.09
4 6 6 1391.97 96.53
-4 6 6 1294.53 92.92
4 6 6 1420.68 94.11
4 -6 -6 1205.87 92.35
-4 -6 6 1368.33 91.28
4 -6 6 1393.04 96.05
4 6 6 1168.01 90.37
4 -6 6 1288.79 93.19
4 7 -6 2.75 2.64
-4 7 6 -1.06 2.43
4 7 6 1.49 3.88
-4 -7 6 0.88 2.29
4 7 6 -1.14 2.98
4 -7 6 1.07 1.85
-4 -7 6 -1.15 2.39
4 -7 6 1.07 3.08
4 -7 -6 3.64 3.16
4 -7 6 1.41 3.46
4 8 -6 174.49 18.07
-4 8 6 203.61 17.1
-4 8 6 200.43 19
-4 -8 6 198.4 18.21
4 8 6 239.29 21.88
4 8 6 220.67 20.28
-4 -8 6 197.4 16.91
4 -8 -6 165.54 17.78
4 -8 6 217.32 21.02
4 -8 6 202.48 19.52
-4 9 6 27.82 5.62
4 9 -6 21.95 5.06
4 9 6 33.41 7.24
-4 -9 6 22.01 4.98
4 9 6 33.11 6.93
-4 -9 6 28.59 4.56
4 -9 -6 28.14 5.55
4 -9 6 26.1 6.07
4 -9 6 29.39 6.99
-4 -9 -6 20.26 4.44
-4 10 6 5.41 3.13
-4 10 -6 4.09 2.38
4 10 -6 6.15 3.47
4 10 6 7.16 3.95
-4 -10 6 6.2 3.37
4 10 6 9.74 4.99
4 -10 -6 5.02 3.04
4 -10 6 5.33 3.67
4 -10 6 2.76 3.62
-4 -10 -6 3.82 2.67
-4 11 -6 8.55 3.44
4 11 -6 6.51 3.56
-4 11 6 6.57 3.59
4 11 6 12.9 4.85
-4 -11 6 5.41 3.08
4 11 6 10.39 4.68
4 -11 -6 4.29 3.26
4 -11 6 2.84 3.94
4 -11 6 16.58 5.78
-4 -11 -6 10.21 3.45
4 12 -6 232.25 23.18
-4 12 6 273.23 23.6
-4 12 -6 250.32 22.26
-4 -12 6 244.12 22.37
4 12 6 301.68 25.7
4 12 6 196.67 23.66
4 -12 -6 264.68 23.61
-4 -12 -6 268.21 22.12
-4 12 -6 326.39 26.8
4 -12 6 305.86 25.59
4 -12 6 187.74 23.51
-4 13 -6 6.54 3.26
4 13 -6 7.41 3.73
-4 13 6 4.65 3.51
4 13 6 11.16 4.54
-4 -13 6 4.76 3.32
4 13 6 13.99 5.73
-4 13 -6 1.61 3.71
4 -13 -6 4.87 3.52
4 -13 6 -1.59 3.91
-4 -13 -6 -0.86 2.71
4 -13 6 5.47 4.12
4 14 -6 1040.32 83.03
-4 14 6 1233.19 83.55
-4 14 -6 1139.99 81.85
-4 -14 6 1078.8 81.88
4 14 6 1129.54 84.16
4 14 6 1206.33 85.39
4 -14 -6 1092.99 83.36
-4 -14 -6 1104.6 81.31
-4 14 -6 1324.13 87.06
4 -14 6 1158.75 84.19
4 -14 6 889.72 83.33
-4 15 -6 22.61 5.57
4 15 -6 22.23 6.23
-4 15 6 38.58 7.09
-4 -15 6 15.6 5.02
4 15 6 26.37 7.17
4 15 6 23.37 6.28
-4 15 -6 21.33 6.9
4 -15 -6 20.68 6.06
4 -15 6 18.81 6.43
-4 -15 -6 23.78 5.57
4 -15 6 23.2 6.35
-4 16 6 690.12 53.1
4 16 -6 563.13 53.06
-4 16 -6 638.96 51.88
-4 -16 6 714.87 52.52
4 16 6 651.8 54.18
4 -16 -6 641.47 53.91
-4 -16 -6 753.66 52.27
-4 16 -6 737.07 57.07
4 -16 6 663.02 54.4
-4 17 -6 -1.14 2.79
4 17 -6 3.14 3.85
-4 -17 6 -1.15 3
4 -17 -6 4.68 3.83
-4 -17 -6 1.07 2.62
-4 -18 6 65.21 9.76
-4 18 -6 50.29 8.81
4 18 -6 64.74 11.05
-4 -19 6 20.23 5.66
-4 -20 6 6.62 4.62
-4 0 7 2.98 2.73
4 0 7 0.56 1.54
4 0 7 -1.61 3.42
4 0 7 0.67 1.64
4 0 7 1 1.93
4 0 7 0.63 1.83
4 0 7 2.61 3.4
4 0 -7 2.69 2.46
-4 1 7 19.91 4.83
-4 -1 7 25.92 5.28
4 1 7 23.74 3.88
4 -1 7 30.64 4.4
4 -1 7 14.66 3.52
4 -1 7 1.48 6.28
4 1 7 16.94 5.84
4 1 7 23.17 4.46
4 -1 7 19.46 4.73
4 1 7 18.31 4.6
4 -1 7 16.42 3.55
4 1 7 20.9 3.66
4 -1 7 21.17 6.14
4 1 7 22.2 5.43
4 -1 -7 16.17 4.33
4 -2 7 160.1 15.21
4 2 -7 132.07 14.37
-4 2 7 146.56 15.09
4 2 7 173.02 13.41
-4 -2 7 170.05 15.84
4 -2 7 155.37 13.53
4 -2 7 155.03 17
4 2 7 135.66 17.71
4 -2 7 132.09 12.94
4 2 7 165.11 15.82
4 2 7 154.36 14.43
4 -2 -7 160.42 15.31
4 2 7 147.67 13.1
4 2 7 156.38 15.85
4 -2 7 114.13 16.26
4 -2 7 150.35 14.2
4 3 -7 60.65 8.29
4 -3 7 75.05 8.96
4 3 7 65.49 6.77
-4 3 7 61.25 8.56
-4 -3 7 67.1 8.89
4 -3 7 57.11 9.11
4 3 7 68.11 11.28
4 -3 7 56.43 7.03
4 3 7 55.98 8.02
4 -3 7 55.3 6.58
4 3 7 80.08 9.73
4 -3 -7 76.26 9.01
4 3 7 57.37 6.53
4 -3 7 59.75 7.88
4 -3 7 62.73 10.6
4 3 7 59.99 8.44
4 -4 7 221.66 19.57
4 4 -7 214.09 19.66
-4 -4 7 231.61 20.23
4 -4 7 189.3 17.88
4 -4 7 188.46 19.73
4 4 7 196.19 22.28
4 4 7 216.52 19.61
-4 4 7 251.18 20.52
4 -4 -7 214.67 19.47
4 -4 7 193.47 21.68
4 4 7 236.02 19.47
4 -4 7 210.38 19.11
-4 5 7 1.02 2.35
4 -5 7 -1.87 4.05
-4 -5 7 5.06 3.17
4 5 7 3.32 4.33
4 -5 7 -1.45 1.78
4 5 7 1.04 3.49
4 -5 7 0.92 2.66
4 5 -7 -1.99 2.44
4 -5 7 1.92 2.5
4 -5 7 -1.56 3.82
4 -5 -7 1.94 2.67
4 5 7 -1.5 2.35
-4 6 7 71.15 9.47
4 -6 7 60.43 8.27
-4 -6 7 74.35 9.52
4 6 7 68.19 11.37
4 6 7 78.92 10.02
4 6 -7 66.12 9.28
4 -6 7 71.14 9.22
4 -6 7 77.38 9.73
4 6 7 73.71 8.17
4 -6 -7 59.76 8.97
4 -6 7 79.15 11.87
4 -7 7 55.79 7.11
-4 7 7 63.95 8.89
4 7 7 52 9.86
-4 -7 7 54.36 8.13
4 7 7 65.71 9.7
4 7 -7 59.35 8.44
-4 7 7 60.34 8.9
4 -7 7 53.18 8.46
4 -7 -7 53.03 8.21
4 -7 7 71.17 10.92
4 8 7 12.97 5.83
-4 -8 7 12.12 3.96
4 8 7 7.73 4.22
4 8 -7 10.74 3.77
-4 8 7 13.74 4.36
4 -8 7 4.89 3.23
4 -8 -7 3.14 2.46
4 -8 7 10.57 5.43
4 9 7 9.54 4.62
-4 -9 7 5.05 3.22
4 9 7 9.69 4.37
4 9 -7 13.2 3.98
-4 9 7 6.88 3.64
4 -9 7 10.5 5
4 -9 -7 18.28 4.71
4 -9 7 4.48 3.93
4 10 7 25.32 6.77
-4 -10 7 22.42 5.38
4 10 7 20.41 6.26
-4 10 7 16.13 5.13
4 10 -7 14.69 4.65
4 -10 7 26.72 6.86
4 -10 -7 30 6.07
4 -10 7 26.75 6.88
-4 -10 -7 30.1 5.59
4 11 7 18.41 6.24
-4 -11 7 24.74 5.52
4 11 7 7.79 5.04
-4 11 7 22.93 5.51
-4 11 -7 24.17 5.33
4 11 -7 28.26 6.18
4 -11 7 9.01 5.21
4 -11 -7 18.36 5.05
4 -11 7 20.66 6.14
-4 -11 -7 18.56 4.94
4 12 -7 422.1 36.1
-4 12 7 429.04 35.77
-4 12 -7 467.48 35.58
4 12 7 405.52 37.45
-4 -12 7 441.52 35.36
4 12 7 472.3 38.34
4 -12 -7 408.13 35.8
-4 -12 -7 513.03 35.67
4 -12 7 506.58 38.64
-4 13 -7 40.78 7.04
4 13 -7 29.47 6.77
-4 13 7 27.39 6.35
4 13 7 40.82 8.19
-4 -13 7 37.57 6.96
4 13 7 22.02 7.56
4 -13 -7 25.08 6.28
4 -13 7 24.56 7.32
4 -13 7 40.58 7.98
-4 -13 -7 46.16 7.13
4 14 -7 106.59 14.71
-4 14 7 150.58 15.83
-4 14 -7 123.98 14.51
4 14 7 133.35 16.71
-4 -14 7 147.01 15.55
4 14 7 128.5 16.17
4 -14 -7 134.45 15.7
-4 -14 -7 144.22 14.77
4 -14 7 176.39 17.75
4 -14 7 154.59 17.71
-4 15 -7 -1.15 3.15
4 15 -7 -1.4 3.44
-4 15 7 -1.28 3.32
-4 -15 7 -1.14 2.98
4 -15 -7 2.79 3.83
4 -15 7 1.62 3.97
-4 -15 -7 -1.06 2.92
-4 16 -7 20.42 5.58
4 16 -7 23.88 6.08
4 16 -7 13.01 7.65
-4 -16 7 19.18 5.85
4 -16 -7 13.44 5.66
-4 -16 -7 23.46 5.64
-4 17 -7 42.61 7.44
-4 -17 7 27.43 6.74
4 -17 -7 22.68 7.47
-4 -18 7 6.5 3.94
-4 0 8 1467.88 87.83
4 0 8 1116.76 83.94
4 0 8 1398.16 86.91
4 0 8 1191.77 88.58
4 0 8 1186.96 83.89
-4 1 8 80.57 9.79
-4 -1 8 60.45 8.78
4 -1 8 54.73 6.82
4 -1 8 50.95 6.38
4 1 8 42.4 6.65
4 -1 8 46.53 10.25
4 1 8 49.31 10.42
4 -1 8 75.79 9.06
4 1 8 46.86 7.58
4 -1 8 29.65 5.88
4 -1 8 37.03 8.57
4 1 8 56.22 9.72
4 -1 -8 43.87 7.55
4 2 8 516.35 37.5
4 -2 8 500.06 36.88
-4 2 8 560.9 38.25
-4 -2 8 533.37 37.95
4 -2 8 472.39 35.06
4 -2 8 336.47 37.6
4 2 8 341.58 38.86
4 2 8 416.88 35.29
4 -2 -8 533.18 37.61
4 -2 8 344.93 38.27
4 2 8 439.9 37.81
4 -2 8 452.56 35.31
-4 3 8 11.28 4.1
-4 -3 8 11.21 4.3
4 -3 8 6.47 3.15
4 -3 8 17.27 5.64
4 3 8 11.06 4.22
4 3 8 5.68 4.71
4 -3 8 17.35 4.57
4 3 8 9.87 3.88
4 3 -8 8.24 3.97
4 -3 8 10.97 3.51
4 -3 8 25.72 7.33
4 3 8 11.2 4.51
4 -3 -8 10.42 4.21
4 -4 8 261.7 22.02
4 4 -8 256.85 22.6
-4 -4 8 309.15 23.89
4 -4 8 231.11 20.5
4 -4 8 200.98 22.5
4 4 8 230.31 25.52
4 4 8 241.2 22.6
4 4 8 261.9 22.38
-4 4 8 259.89 22.8
4 -4 -8 244.83 22.35
4 -4 8 221.68 24.58
4 4 8 251.96 22.11
4 -4 8 219.19 21.24
4 -5 8 73.22 9.11
-4 -5 8 87.3 10.99
4 -5 8 67.74 10.25
4 5 8 66.62 12.11
-4 5 8 90.02 11.01
4 5 8 83.56 10.68
4 -5 8 91.59 10.64
4 5 -8 87.61 10.76
4 -5 8 70.75 9.72
4 5 8 87.71 10.03
4 -5 8 100.26 13.84
4 -5 -8 80.53 10.35
4 6 -8 68.39 10.41
4 -6 8 84.18 9.97
-4 6 8 74.93 10.78
-4 -6 8 85.38 11.26
4 6 8 127.12 15.51
4 6 8 107.39 12.22
4 -6 -8 105.42 11.88
4 -6 8 85.95 10.92
4 -6 8 89.7 13.28
-4 7 8 4.69 3.05
-4 -7 8 3.4 3.27
4 7 8 3.66 4.77
4 -7 8 1.77 2.3
4 7 8 7.66 4.83
4 7 -8 4.64 3.49
-4 7 8 -1.22 3.01
4 -7 8 1.2 2.94
4 -7 8 8.3 5.58
4 -7 -8 -1.12 2.57
-4 8 8 660.04 48.59
4 8 -8 577.3 47.68
4 8 8 605.51 48.8
-4 -8 8 618.05 47.98
4 8 8 594.23 50.83
4 -8 -8 561.81 47.4
4 -8 8 703.04 51.68
4 -8 8 584.08 48.34
4 9 8 47.67 9.78
-4 -9 8 41.23 7.88
4 9 8 39.22 8.03
4 9 -8 39.77 7.47
-4 9 8 36.57 7.39
4 -9 8 55.63 9.2
4 -9 -8 45.97 7.82
4 -9 8 49.28 9.81
-4 10 8 576.13 41.76
4 10 -8 461.56 40.62
4 10 8 397.89 41.06
-4 -10 8 546.79 41.22
4 10 8 550.7 44.23
4 -10 -8 502.23 40.91
4 -10 8 527.04 43.36
4 -10 8 481.67 42.18
4 11 8 18.44 6.11
-4 -11 8 20.89 5.54
4 11 8 1.65 7.37
-4 11 8 10.93 4.49
4 11 -8 22.97 6.07
4 -11 8 12.72 5.47
4 -11 -8 25.02 6.15
4 -11 8 19.02 6.41
-4 -11 -8 24.79 5.81
4 12 -8 172.13 19.06
-4 12 8 217.24 19.88
4 12 8 172.23 20.26
-4 -12 8 189.82 19.23
4 -12 -8 205.92 19.86
-4 -12 -8 228.13 19.8
4 -12 8 140.27 19.29
-4 13 -8 10.33 3.88
4 13 -8 4.05 3.53
4 13 -8 -2.58 10.52
-4 -13 8 8.4 4.43
4 13 -8 -3.97 9.12
4 -13 8 6.86 5.17
4 -13 -8 5.41 3.54
-4 -13 -8 2.25 3.92
-4 14 -8 23.75 5.84
4 14 -8 23.97 6.39
4 14 -8 12.46 8.01
4 -14 -8 22.93 8.76
-4 -14 8 30.66 6.89
4 -14 -8 40.59 9.67
4 14 -8 32.49 8.97
-4 -14 -8 30.83 6.14
-4 15 -8 53.17 8.93
4 15 -8 56.83 12.37
4 -15 -8 41.38 11
4 -15 -8 33.42 8.77
4 16 -8 20.18 8.32
4 -16 -8 12.3 5.8
-4 0 9 -1.23 2.14
4 0 9 1.03 1.78
4 0 9 6.16 5.91
4 0 9 1.69 4.88
-4 1 9 27.15 5.88
-4 -1 9 17.34 5.17
4 -1 9 14.02 4.14
4 1 9 16.78 4.51
4 -1 9 11.49 5.63
4 1 9 2.05 9.5
4 -1 9 23.79 7.37
4 1 9 20.29 6.31
-4 2 9 98.85 11.56
-4 -2 9 78.11 10.77
4 -2 9 44.25 10.11
4 2 9 43.26 10.93
4 -2 9 95.33 10.37
4 2 9 91.43 10.63
4 -2 9 63.35 12.09
4 2 9 81.32 11.61
4 -2 -9 89.49 10.94
-4 3 9 42.21 7.57
-4 -3 9 40.73 7.37
4 3 9 45.81 7.06
4 -3 9 42.29 6.77
4 -3 9 19.52 6.78
4 3 9 4.12 10.86
4 3 9 44.17 7.15
4 -3 9 37.94 9.36
4 3 9 34.38 7.33
4 -3 -9 60.27 8.57
-4 4 9 4.93 3.04
-4 -4 9 7.48 3.6
4 4 9 2.15 2.66
4 -4 9 -1.49 4.48
4 -4 9 8.58 3.33
4 4 9 12.39 5.96
4 4 9 9.09 3.96
4 -4 9 0.95 2.5
4 -4 9 1.88 4.63
4 -4 -9 11.55 4.14
-4 5 9 -3.71 2.63
-4 -5 9 -1.25 3.08
4 -5 9 -1.91 2.49
4 5 9 3.46 3.87
4 5 9 -4.09 6.64
4 5 9 -2.36 2.9
4 5 -9 1.19 3.11
4 -5 9 1.05 3.01
4 -5 9 9.36 5.86
4 -5 -9 1.18 2.89
4 6 -9 117.78 14.12
-4 -6 9 155.45 15.66
4 6 9 109.24 16.69
-4 6 9 104.97 13.72
4 6 9 137.94 14.81
4 -6 -9 110.97 13.58
4 -6 9 142.3 17.31
4 -6 9 113.05 13.78
-4 7 9 53.75 8.71
-4 -7 9 47.93 8.6
4 7 9 41.39 9.55
4 7 9 34.74 7.76
4 7 -9 35.24 7.22
-4 7 9 41.91 8.05
4 -7 9 55.87 8.61
4 -7 9 45.24 9.9
4 -7 -9 49.39 8.06
4 8 -9 293.79 28.11
4 8 9 322.5 29.49
-4 -8 9 324.17 28.73
4 8 9 310.68 31.36
4 -8 -9 340.22 28.67
4 8 -9 288.62 33.11
4 -8 9 360.64 31.93
4 -8 9 306.75 28.75
4 9 -9 17 5.46
4 9 -9 -3.15 13.94
-4 -9 9 11.37 4.67
4 -9 9 10.27 3.58
4 9 9 -1.54 6.71
4 9 -9 -2.41 11.84
4 -9 -9 -2.46 11.29
4 -9 9 5.76 4.16
4 -9 -9 7.49 3.92
-4 -10 9 3.83 3.33
4 -10 9 -1.08 2.49
4 10 9 1.65 4.75
4 10 -9 2.67 3.47
4 -10 9 1.54 4.02
4 -10 -9 1.29 3.37
4 0 10 80.38 14.55
4 0 10 102.46 14.72
4 1 10 37.95 9.47
4 -1 10 18.92 7.95
4 -1 10 26.15 8.39
4 2 10 66.98 13.24
4 -2 10 56.37 11.93
4 -3 10 6.18 5.39
4 -4 -10 683.22 53.9
4 5 10 52.8 8.92
4 -5 -10 66.3 9.97
4 6 10 347.11 30.94
4 6 -10 369.97 31.73
4 7 10 4.13 4.48
-5 0 0 -0.72 1.89
5 0 0 0.96 2.21
-5 0 0 5.56 6.82
-5 0 0 -2.18 4.23
-5 -1 0 59.55 7.11
-5 1 0 61.09 7.37
-5 1 0 50.83 7.73
5 -1 0 57.05 7.76
5 1 0 54.85 7.82
-5 1 0 40.23 11.02
-5 -1 0 42.98 11.75
-5 -1 0 37.8 9.63
-5 1 0 44.57 10.39
-5 2 0 0.81 2.32
-5 -2 0 1.99 1.99
-5 2 0 1.88 3.36
5 -2 0 0.88 1.16
5 -2 0 -0.96 2.36
5 2 0 -1.92 2.63
-5 -2 0 7.8 6.77
5 -2 0 -0.28 0.98
-5 2 0 -4.1 7.12
5 -2 0 0.84 1.94
-5 -2 0 3.4 3.21
5 -2 0 0.37 0.71
-5 3 0 1057.76 60.33
5 -3 0 957.42 60.81
-5 -3 0 1021.62 58.65
5 3 0 595.72 55.05
5 3 0 996.66 60.85
5 -3 0 862.82 56.36
-5 3 0 869.75 59.43
5 3 0 868.82 59.89
-5 -3 0 911.02 68.93
-5 3 0 893.12 57.94
5 -3 0 951.2 59.82
-5 3 0 884.01 65.81
-5 -3 0 639.73 58.12
-5 4 0 9.93 3.84
-5 -4 0 7.17 2.89
5 4 0 3.93 3.19
-5 4 0 0.81 3.21
5 -4 0 1.61 1.79
5 -4 0 -1.98 2.72
5 4 0 3.84 3.63
-5 4 0 -0.66 2.14
-5 4 0 2.43 4.71
-5 -4 0 -2.45 4.76
-5 -4 0 9.45 5.92
-5 4 0 3.82 5.98
5 -4 0 0.9 2.46
-5 -4 0 1.62 3.73
-5 -5 0 3383.37 210.87
-5 5 0 3463.42 213.4
5 -5 0 2680.8 209.45
-5 5 0 3084.33 211.51
5 5 0 3068.9 212.98
5 5 0 3218.14 213.17
-5 5 0 3103.17 220.61
-5 -5 0 2912.37 220.04
-5 5 0 2933.25 210.99
5 -5 0 3151.62 212.62
-5 -5 0 3105.78 217.9
-5 5 0 3273.07 218.36
-5 -5 0 2783.66 211.1
-5 6 0 -1.01 2.48
-5 -6 0 1.07 1.92
5 6 0 8.31 3.83
5 -6 0 -0.47 1.69
-5 6 0 4.12 2.86
5 6 0 -3.9 3.06
-5 6 0 2.19 2.1
-5 6 0 -4.56 8.85
-5 -6 0 -4.63 8.76
-5 -6 0 -10.6 6.32
-5 6 0 -7.14 7.1
5 -6 0 3.83 2.88
-5 -6 0 1.36 2.43
-5 -7 0 566.2 41.68
-5 7 0 643.69 45.3
5 -7 0 515.81 41.57
-5 7 0 511.26 42.23
5 7 0 646.05 45.38
-5 7 0 528.95 49.69
-5 -7 0 559.12 50.5
-5 7 0 559.26 43.14
5 -7 0 597.49 44.64
-5 -7 0 605.93 48.55
-5 7 0 611.2 48.72
-5 -7 0 616.62 42.77
-5 8 0 -1.11 2.73
-5 -8 0 0.46 1.56
5 8 0 1.13 2.77
5 -8 0 0.57 1.84
-5 8 0 0.58 2.42
-5 8 0 -8.58 10.2
-5 -8 0 -6.58 8.93
-5 8 0 -0.87 2.13
-5 -8 0 -3.32 6.91
-5 8 0 -5.02 7.56
5 -8 0 -1.06 2.26
-5 -8 0 1.69 2.4
-5 9 0 35.35 6.68
-5 -9 0 15.79 3.39
5 9 0 31.97 6.22
-5 9 0 20.11 3.86
-5 9 0 35.54 9.22
-5 -9 0 10.72 7.16
5 9 0 20.68 2.98
-5 9 0 33.37 5.85
-5 -9 0 27.31 7.44
-5 9 0 24.29 7.22
5 -9 0 36.97 6.52
-5 -9 0 44.84 5.1
-5 10 0 1.26 3.08
-5 -10 0 -1.83 1.35
-5 10 0 -1.89 1.64
5 10 0 1.25 3.08
-5 10 0 -2.04 3.55
-5 -10 0 -2.1 4.08
5 10 0 2.01 1.29
-5 10 0 -1.04 2.39
-5 -10 0 -3.13 4.3
-5 10 0 -1.58 3.35
5 -10 0 2.38 3.1
-5 -10 0 -1.4 1.9
-5 11 0 4.04 4.09
-5 -11 0 10.84 2
-5 -11 0 7.51 1.98
5 11 0 10.63 4.5
-5 11 0 8.15 1.82
-5 11 0 1.99 6.25
-5 -11 0 2.06 6.46
-5 11 0 10.27 4.23
5 11 0 7.16 1.77
5 -11 0 3.78 3.49
-5 -11 0 10.92 2.68
-5 -11 0 -3.04 5.77
-5 11 0 4.57 5.64
-5 -12 0 -0.23 1.21
-5 12 0 -1.45 3.56
5 12 0 -1.4 3.45
-5 12 0 -1.24 3.03
5 -12 0 2.66 3.66
-5 13 0 696.33 52.11
-5 13 0 819.58 55.99
-5 -13 0 774.57 55.8
-5 13 0 919.32 53.2
-5 -13 0 843.57 53.33
-5 13 0 835.62 53.09
-5 14 0 1.55 3.57
-5 -14 0 -1.94 4.76
-5 14 0 3.7 4.83
-5 14 0 7.32 4.76
-5 -14 0 1.43 4.3
-5 14 0 -1.41 4.25
-5 -15 0 977.57 79.98
-5 15 0 877.85 78.57
-5 15 0 1153.36 79.49
-5 -15 0 1054.17 77.84
-5 15 0 1038.61 77.59
5 16 0 3.49 4.29
-5 -16 0 -1.87 5.15
-5 16 0 -3.56 5.12
-5 16 0 -1.71 3.32
5 -16 0 1.63 4
-5 -16 0 -1.36 4.43
-5 16 0 6.78 4.71
5 17 0 262.43 28.76
-5 17 0 299.93 29.56
-5 17 0 343.91 30.68
5 -17 0 272.02 28.39
-5 -17 0 303.25 27.57
-5 18 0 -2.98 3.88
5 18 0 -1.81 4.44
-5 18 0 -3.3 5.55
-5 18 0 -1.97 4.19
5 -18 0 12.35 5.52
-5 -18 0 -4.95 5.98
5 19 0 33.78 8.42
-5 19 0 18.87 7.11
5 -19 0 44.67 9.06
-5 0 -1 1.71 2.87
-5 0 1 1.44 2.26
5 0 -1 0.92 2.1
-5 0 -1 8.87 7.7
-5 0 -1 -2.23 4.33
-5 1 -1 13.65 3.86
-5 -1 -1 7.29 3.38
-5 1 1 8.33 3.03
-5 -1 1 15.2 3.52
5 1 1 12.37 3.83
-5 1 -1 8.91 3.82
5 -1 -1 13.7 3.87
5 1 -1 10.87 3.5
-5 1 -1 8.54 6.1
-5 -1 -1 5.72 7.49
-5 1 -1 4.35 5.39
5 -1 1 15.38 3.79
-5 -1 -1 5.62 4.74
-5 -1 -1 12.91 7.51
-5 2 1 312.5 21.22
-5 -2 1 336.6 20.81
5 2 -1 345.87 22.48
5 2 1 337.04 23.08
-5 2 -1 327.61 22.43
-5 -2 -1 302.73 21.05
5 -2 -1 311.68 22.19
5 2 1 197.04 16.72
5 -2 1 217.67 17.11
5 -2 -1 271.85 18.44
-5 2 -1 293.65 21.82
5 2 1 321.81 22
-5 -2 -1 285.81 30.56
5 -2 -1 183.36 16.75
5 -2 1 212.19 16.91
5 -2 1 320.25 21.61
-5 2 -1 283.57 27.46
-5 -2 -1 246.08 21.83
5 3 -1 46.31 5.34
-5 3 1 78.07 8.71
-5 -3 1 92.62 8.45
5 3 1 73.71 9.07
5 -3 -1 76.55 9.16
5 3 -1 88.47 9.42
5 3 1 47.66 5.52
-5 3 -1 95.94 10.2
-5 -3 -1 65.29 7.87
5 -3 1 68.34 6.18
5 -3 -1 82.28 7.07
-5 3 -1 95.66 9.35
5 3 1 84.88 9.34
-5 3 1 61.98 8
5 -3 -1 55.99 5.83
-5 -3 -1 75.52 13.96
5 -3 1 57.51 5.78
-5 3 1 73.83 7.25
5 -3 1 90.35 9.22
-5 -3 -1 75.37 9.37
-5 3 -1 104.92 14.48
-5 4 -1 48.16 7.45
-5 -4 1 56.61 6.27
-5 -4 -1 29.35 5.11
5 4 -1 32.51 4.1
-5 4 1 42.71 6.59
5 4 1 34.89 6.27
5 -4 1 33.45 4.23
5 -4 -1 41.8 5.1
-5 4 -1 53.57 6.89
-5 4 -1 51.82 6.23
-5 4 1 25.13 5.72
5 4 -1 43.31 6.81
5 4 1 53.74 7.53
-5 4 1 45.74 5.48
-5 4 -1 42.71 6.13
-5 4 -1 53.98 11.47
-5 -4 -1 34.01 10.98
5 -4 -1 31.19 4.22
5 -4 1 45.83 6.55
-5 -4 -1 44.85 7.05
-5 -4 1 42.85 6.42
-5 -4 -1 42.79 9.92
-5 4 -1 42.93 9.95
-5 5 -1 2.29 2.81
-5 -5 -1 1.1 1.91
-5 -5 1 0.62 1.69
-5 5 1 2.64 2.42
5 5 -1 0.38 1.44
5 5 1 -0.98 2.4
5 -5 1 -0.38 1.63
-5 5 -1 -3.16 2.69
-5 5 -1 -7 4.28
-5 5 1 2.19 2.53
5 5 -1 1.8 2.35
5 5 1 1.03 2.53
-5 5 1 0.6 1.73
-5 5 -1 2.39 2.77
5 -5 -1 0.4 1.31
-5 5 -1 9.93 5.71
-5 -5 -1 5.08 4.93
5 5 1 -0.83 1.95
5 -5 1 0.93 2.13
5 -5 -1 0.92 2.27
-5 -5 -1 0.82 3.03
-5 -5 -1 1.88 4.01
-5 5 -1 1.89 5.44
-5 -5 1 1.46 2.83
-5 6 1 179.47 16.57
5 6 -1 158.48 14.02
-5 -6 1 169.24 15.03
-5 6 -1 179.93 18.17
-5 -6 -1 187.03 14.52
5 -6 1 145.91 13.84
5 -6 -1 147.27 14.4
-5 6 1 178.77 15.62
-5 6 -1 180.36 14.99
5 6 -1 176.21 16.96
5 6 1 200.69 17.48
5 6 -1 209.88 17.18
-5 6 -1 212.59 15.84
-5 6 1 173.96 22.36
-5 -6 1 185.69 23.17
-5 -6 -1 199.47 24.27
-5 6 -1 160.66 22.28
5 6 1 166.36 14.07
-5 6 1 152.64 14.86
-5 6 -1 173.15 15.97
5 -6 1 203.38 17.26
5 -6 -1 173.15 16.53
-5 -6 -1 200.43 21.49
-5 6 -1 176.61 20.65
-5 -6 1 173.55 20.41
-5 6 1 162.91 20.23
-5 -6 -1 126.45 15.11
-5 -6 -1 183.76 15.31
-5 -7 1 51.96 6.43
-5 7 1 69.19 8.48
5 7 -1 43.7 5.74
-5 -7 -1 46.68 5.44
-5 7 -1 43.76 8.2
5 7 -1 55.25 8.25
-5 7 1 54.09 6.48
5 7 1 55.98 8.18
5 -7 1 43.86 5.62
5 -7 -1 43.24 5.81
-5 7 -1 52.98 5.83
-5 7 -1 59.95 6.84
5 7 -1 50.57 7.59
-5 7 -1 37.7 6.57
-5 7 1 48.53 11.65
-5 -7 1 48.67 11.68
-5 7 -1 51.05 11.7
-5 -7 -1 57.43 12.39
5 7 1 41.67 5.51
-5 7 1 53.65 7.01
5 -7 1 51.18 7.7
-5 -7 1 44.78 9.91
-5 7 1 54.72 10.58
5 -7 -1 46.25 7.38
-5 -7 -1 44.95 6.51
-5 -7 -1 37.06 9.15
-5 7 -1 47.61 10.01
-5 -7 -1 57.15 6.6
-5 8 1 361.48 28.06
-5 -8 1 344.02 25.45
-5 -8 -1 291.89 23.61
-5 8 -1 290.71 28.48
5 -8 -1 297.07 25.18
-5 8 1 333.38 25.34
5 8 -1 349.41 28.45
-5 8 -1 285.15 23.98
5 8 1 370.31 28.66
-5 8 -1 367.56 25.95
5 -8 1 302.58 25
-5 8 1 307.84 32.72
-5 -8 1 264.74 31.76
-5 8 -1 347.32 34.01
-5 -8 -1 278.51 32.86
-5 8 1 315.19 26.3
5 8 1 370.07 24.77
-5 8 -1 329.53 27.04
5 -8 1 348 28.13
5 -8 -1 343.53 27.76
-5 -8 -1 353.87 31.56
-5 8 -1 319.89 30.86
-5 -8 1 328.8 30.79
-5 8 1 304.53 30.61
-5 -8 -1 304.93 25.34
-5 -8 -1 343.51 25.7
-5 9 1 28.95 6.08
-5 -9 1 31.89 4.77
-5 -9 -1 19.84 2.8
-5 9 -1 33.42 7.29
5 9 -1 35.92 6.67
5 -9 1 34.64 5
5 9 1 48.03 7.53
-5 9 -1 33.14 4.99
-5 9 1 20.82 3.85
5 9 1 29.6 4.17
-5 9 -1 31.66 5.8
-5 9 1 16.38 7.34
-5 -9 1 20.63 8.22
-5 9 -1 32.72 9.07
-5 -9 -1 22.69 8.56
-5 9 1 26.93 5.32
-5 -9 -1 33.03 5
-5 -9 1 25.52 7.56
-5 9 1 32.72 7.87
5 -9 1 35.5 6.55
5 -9 -1 17.47 4.99
-5 -9 -1 24.33 4.16
-5 -9 -1 31.66 8.39
-5 9 -1 29.77 7.68
-5 -9 1 33.1 4.93
-5 10 1 -2.32 3.77
-5 -10 1 -0.55 1.77
-5 10 -1 1.39 2.95
-5 10 1 -0.91 1.63
5 10 -1 2.5 3.25
5 10 1 3.76 3.45
-5 10 -1 1.87 2.02
-5 10 -1 1.07 2.63
5 10 1 0.88 1.53
-5 10 1 -1.98 4.21
-5 -10 1 -4.01 3.89
-5 -10 -1 2.22 4.72
-5 10 -1 2.13 3.69
-5 10 1 -1 2.29
-5 -10 -1 -5.02 2.11
-5 -10 1 -3.09 4.03
-5 10 1 1.59 3.64
5 -10 1 1.22 2.98
5 -10 -1 2.3 2.44
-5 -10 -1 1.64 4.02
-5 10 -1 -3.24 4.45
-5 -10 1 1.52 2.2
-5 -11 1 78.22 8.77
-5 11 -1 55.63 10.54
-5 11 1 107.94 12.28
-5 11 1 76.22 7.97
5 11 1 111 12.99
-5 11 -1 97.41 9.58
-5 11 1 94.45 14.55
-5 -11 1 87.97 14.33
-5 -11 -1 95.91 15.48
-5 11 -1 101.93 15.52
5 11 1 90.65 8.57
-5 11 1 78.08 10.77
-5 11 -1 85.25 11.26
-5 -11 -1 114.88 10.18
5 -11 1 110.21 12.68
-5 -11 1 79.23 12.31
-5 11 1 75.05 12.33
-5 -11 1 83.19 8.5
-5 -11 -1 83.59 13.33
-5 11 -1 96.8 13.61
-5 -12 1 150.1 13.34
-5 12 -1 184.59 18.28
-5 12 1 198.85 18.15
5 12 1 240.51 19.59
-5 -12 -1 216.1 22.72
-5 12 -1 211.66 21.98
-5 12 1 130.04 18.45
-5 -12 1 138.09 18.83
-5 12 1 204.32 17.73
-5 12 -1 215.14 18.36
-5 -12 -1 202.11 14.68
5 -12 1 218.43 19.04
-5 -12 -1 202.64 19.74
-5 12 -1 187.19 19.28
-5 -12 1 149.69 17.63
-5 12 1 162.01 18.31
-5 13 -1 114.63 14.09
-5 -13 1 83.61 8.11
5 13 1 133.6 14.86
-5 13 1 109 16.38
-5 -13 1 92.47 15.06
-5 -13 -1 141.69 17.93
-5 13 -1 118.51 16.26
-5 13 1 142.59 14.81
-5 13 -1 163.72 15.67
5 -13 1 171.45 16.46
-5 -13 1 90.78 13.7
-5 13 1 92.87 13.65
-5 -13 -1 112.79 14.58
-5 13 -1 113.71 14.84
-5 14 -1 29.83 6.75
5 14 -1 30.42 7.5
5 14 1 34.6 8.21
-5 14 1 40.1 8.89
-5 -14 1 24.33 7.18
-5 -14 -1 28.51 8.34
-5 14 -1 38.48 8.75
-5 14 1 35.62 7.56
-5 14 -1 35.99 7.74
-5 14 1 29.6 6.99
5 -14 1 22.96 6.27
5 -14 -1 28.52 6.73
-5 -14 -1 13.23 6.04
-5 14 -1 31.91 7.4
-5 -14 1 33.31 7.5
-5 15 -1 68.17 10.33
5 15 -1 75.16 11.56
-5 15 1 56.96 12.76
-5 -15 1 40.41 11.45
-5 -15 -1 81.11 13.24
-5 15 -1 78.23 12.56
-5 15 1 102.72 13.42
-5 15 -1 95.73 12.76
5 -15 -1 106.07 12.77
-5 -15 -1 71 11.39
-5 15 -1 55.64 10.1
-5 -15 1 56.5 10.58
-5 15 1 43.85 10.4
5 16 -1 90.62 12.82
-5 16 1 44.98 10.06
-5 -16 1 59.21 11.37
-5 -16 -1 77.58 12.72
-5 16 -1 69.8 11.76
-5 16 1 88.05 12.84
-5 16 -1 78.75 12.41
5 -16 -1 82.76 11.73
-5 -16 -1 61.39 10.48
-5 16 -1 76.69 11
-5 -16 1 49.8 9.35
-5 16 1 51.93 9.32
-5 17 1 97.37 14.82
5 17 -1 94.8 14.89
5 17 1 118.71 15.84
-5 17 1 132.06 16.19
-5 17 -1 118.71 16.33
-5 17 1 121.17 16.51
-5 17 -1 129.55 16.64
-5 -17 1 117.34 14.17
5 -17 -1 107.4 14.66
-5 -17 -1 102.63 14.46
-5 18 1 49.24 10.26
5 18 -1 57.11 10.94
5 18 1 41.97 10.53
-5 18 1 57.77 10.41
-5 18 -1 50.7 10.03
-5 18 1 54.71 11.87
-5 18 -1 70.23 12.15
5 -18 1 49.29 10.02
5 -18 -1 43.94 9.68
-5 -18 -1 67.27 10.13
-5 -18 1 64.84 9.74
5 19 -1 54.33 10.57
-5 19 1 55.17 11.44
-5 19 -1 49.12 11.31
5 -19 -1 64.19 10.85
-5 0 2 27.5 4.87
5 0 2 11.25 1.66
-5 0 -2 26.86 5.6
5 0 2 23.28 4.66
5 0 -2 17.82 4.64
5 0 2 23.9 6.26
5 0 2 11.8 1.64
-5 0 -2 15.96 8.37
5 0 2 18 3.96
-5 0 -2 23.78 8.81
5 1 2 1515.94 113.55
-5 1 2 1952.58 117.57
-5 -1 2 1814.27 117.05
5 -1 2 1873.78 119.03
5 1 -2 1894.02 117.92
5 -1 -2 1874.46 118.05
-5 -1 -2 1731.54 117.25
-5 1 -2 1115.57 116.52
5 1 2 1792.72 117.64
-5 1 -2 1940.9 117.51
5 -1 2 1470.84 113.55
-5 -1 -2 1851.28 130.82
-5 1 -2 1550.57 128.09
5 -1 2 1855.92 117.43
5 1 2 1884.17 117.27
-5 -1 -2 1527.2 124.21
-5 1 -2 1494.48 124.07
-5 -1 -2 1865.64 119.18
5 2 -2 3.33 1.02
5 2 2 2.41 1.37
-5 -2 2 4.46 3.04
-5 -2 -2 6.39 3.09
-5 2 -2 9.12 4.32
-5 2 2 6.41 3.2
5 2 2 2.61 2.63
-5 2 -2 9.12 3.35
5 -2 2 3.41 1.15
5 -2 -2 3.35 2.68
5 2 -2 2.51 2.73
5 -2 2 8.2 4.18
-5 -2 -2 2.99 6.37
5 2 2 4.56 2.64
5 -2 2 13.89 4.09
-5 -2 -2 6.75 4.11
5 -2 2 4.8 1.77
5 -2 -2 5.11 1.71
-5 2 -2 17.85 7.76
-5 3 2 367.45 26.04
-5 -3 2 376.18 25.63
5 -3 2 373.84 27.37
-5 -3 -2 363.4 24.52
-5 3 -2 357.28 27.84
5 3 -2 388.57 26.39
5 3 2 301.12 22.74
5 3 -2 230.38 22.06
5 -3 2 258.09 22.11
-5 3 -2 390.05 25.14
5 -3 -2 349.01 24.09
5 3 2 369.14 26.39
-5 -3 -2 387.59 36.97
5 -3 -2 279.06 22.62
5 -3 2 293.06 22.7
5 3 2 375.96 24.97
-5 3 2 285.2 22.99
5 -3 2 330.99 25.73
-5 3 -2 353.13 32.89
-5 -3 -2 353.33 26.54
5 4 2 3.8 1.58
5 4 -2 3.81 1.62
-5 -4 2 4.38 2.31
-5 -4 -2 3.58 1.89
-5 4 2 9.51 3.37
-5 4 -2 7.06 3.55
5 -4 2 2.13 1.48
5 4 2 5.6 2.82
5 -4 -2 4.72 2.25
5 -4 2 7.12 3.43
5 4 -2 7.49 3.08
-5 4 -2 -1.22 4.04
-5 4 2 2.34 2.1
-5 -4 -2 14.13 7.77
-5 4 -2 8.28 7.58
5 -4 -2 5.6 1.83
5 4 2 7.7 2.46
5 -4 2 5.34 2.7
-5 -4 -2 18.85 6.81
-5 4 -2 4.19 4.46
5 -4 2 7.82 2.07
5 5 -2 17.07 3.32
-5 -5 2 38.94 5.56
-5 -5 -2 30.78 3.68
-5 5 2 32.61 5.65
-5 5 -2 30.16 6.21
5 -5 2 24.8 3.52
5 5 2 34.94 6.01
5 -5 -2 23.34 4.04
5 -5 2 38.84 6.49
5 5 -2 33.19 5.52
-5 5 -2 33.26 4.76
5 -5 -2 25.19 3.92
-5 5 -2 25.75 5.11
-5 5 -2 31.99 10
5 5 2 30.99 4.59
-5 5 2 24.1 4.13
5 -5 2 27 5.38
-5 -5 -2 22.15 7.85
-5 5 -2 30.33 8.62
5 6 -2 4.38 2
-5 -6 -2 3.66 1.26
-5 6 2 14.1 3.93
-5 6 -2 6.16 3.87
-5 -6 2 3.55 1.69
5 -6 2 3.42 1.81
5 6 2 5.03 2.91
5 -6 -2 2.36 2
5 -6 2 2.08 3.01
-5 6 -2 6.44 2.56
5 6 -2 5.82 2.9
-5 6 -2 2.79 2.44
-5 -6 -2 2.67 6.57
-5 6 -2 2.58 6.35
5 -6 -2 5.67 2.12
-5 6 2 6.81 2.42
5 6 2 1.69 2.41
-5 -6 -2 7.2 2.62
5 -6 2 8.81 3.19
-5 -6 -2 3.9 5.37
-5 6 -2 3.88 4.13
-5 7 2 302.32 22.73
5 7 -2 214.82 19.3
5 7 -2 317.22 22.33
-5 -7 -2 187.17 17.05
-5 7 -2 318.75 24.28
-5 7 -2 288.76 20.39
5 7 2 296.76 22.97
-5 -7 2 303.79 18.67
-5 -7 -2 375.78 33.03
-5 7 -2 332.12 31.24
-5 7 2 254.95 20.49
5 7 2 274.26 20.19
-5 7 -2 293.4 22.49
5 -7 -2 241.02 19.74
5 -7 2 327.57 23.46
-5 -7 -2 336.45 28.44
-5 7 -2 301.72 27.28
-5 -7 -2 300.42 20.59
-5 8 2 2.02 2.32
5 8 -2 0.62 2.08
-5 8 -2 4.9 3.52
-5 -8 2 -0.3 1.81
5 8 2 2.25 3.52
-5 8 -2 -1.7 2.15
5 8 -2 -3.38 3.6
-5 8 -2 1.02 2.35
5 -8 -2 -0.64 2.22
-5 -8 -2 2.5 5.31
-5 8 -2 -2.4 4.65
-5 8 2 -0.79 2.05
-5 -8 -2 2.32 2.41
5 -8 2 3.31 3.45
5 -8 -2 1.03 2.54
-5 -8 -2 1.83 4.77
-5 8 -2 3.62 4.16
-5 9 2 1861.7 127.97
5 9 -2 1533.64 125.29
-5 9 -2 1911.44 129.08
-5 9 -2 1504.51 124.48
-5 -9 2 1850.04 123.67
5 9 -2 1798.92 127.13
5 9 2 2044.88 129.47
-5 -9 -2 1999.23 136.62
-5 9 -2 1786.34 134.66
-5 9 2 1796.28 126.85
5 9 2 1880.38 125.24
-5 9 -2 1805.95 127.73
5 -9 -2 1601.57 125.46
5 -9 2 2016.99 129.23
-5 -9 -2 1833 132
-5 9 -2 1902.27 132.07
-5 -9 -2 1903.4 125.27
-5 10 2 12.19 4.53
5 10 -2 4.71 2.68
-5 10 -2 3.69 3.23
-5 -10 2 7.18 2.15
5 10 2 6.42 4.05
-5 10 -2 6.38 2.44
-5 10 -2 6.73 3.4
5 10 2 4.21 2.75
-5 -10 -2 2.35 5.02
-5 10 -2 15.66 6.74
-5 10 2 7.09 3.76
-5 -10 -2 11.16 2.9
5 -10 2 3.76 3.95
-5 -10 -2 5.12 4.94
-5 10 -2 5.02 4.38
5 11 -2 578.19 50.54
-5 11 -2 698.52 53.28
-5 -11 2 701.01 48.4
5 11 2 772.3 54.68
-5 -11 -2 782.5 60.16
-5 11 -2 706.88 58.26
-5 11 2 694.59 52.6
-5 11 -2 673.7 52.8
5 11 2 638.38 49.84
5 -11 2 792.3 54.71
-5 -11 -2 679.99 55.3
-5 11 -2 701.8 55.56
-5 -11 -2 635.2 49.4
5 12 -2 2.89 2.65
-5 12 -2 3.7 3.21
5 12 -2 -1.38 4.14
5 12 2 1.46 3.81
-5 -12 2 -0.74 1.47
-5 12 -2 3.88 3.37
-5 12 2 1.92 4.42
-5 -12 2 -1.92 4.08
-5 -12 -2 -2.24 5.14
-5 12 -2 4.22 4.85
-5 12 2 3.74 4.19
5 -12 2 -1.41 3.24
-5 -12 2 -1.48 4.27
-5 12 2 -1.55 3.3
5 -12 -2 2.51 2.89
-5 -12 -2 -3.17 4.36
-5 12 -2 -1.56 3.33
5 13 -2 197.89 19.79
-5 13 -2 190.72 20.23
-5 -13 2 195.84 16.44
5 13 -2 257.26 22.81
5 13 2 214.55 22.14
-5 13 2 165.35 21.65
-5 -13 2 187.9 22.55
-5 -13 -2 237.54 25.42
-5 13 -2 203.41 23.5
-5 13 2 205.97 21.13
-5 13 -2 227.24 21.75
5 -13 2 238.41 22.7
-5 -13 -2 229.01 22.63
-5 13 -2 235.85 22.44
5 -13 -2 260.69 22.11
-5 -13 2 184.66 20.87
-5 13 2 177.53 20.83
-5 14 -2 1.25 2.43
5 14 -2 1.51 3.94
5 14 2 -3.3 4.29
-5 -14 2 1.24 1.53
-5 14 -2 1.51 3.48
-5 14 2 -1.8 4.69
-5 -14 2 -1.81 4.97
-5 -14 -2 -2.07 4.76
-5 14 -2 1.95 4.47
-5 -14 2 1.39 4.36
-5 14 2 1.45 3.77
5 -14 2 4.71 4.31
5 -14 -2 1.37 3.15
-5 -14 -2 -1.51 3.48
-5 14 -2 1.47 4.22
-5 15 2 16.02 5.43
-5 15 -2 11.39 4.74
5 15 -2 15.83 5.73
5 15 2 5.22 4.61
-5 15 -2 9.78 4.98
-5 15 2 8.75 5.54
-5 -15 2 14.28 6.06
-5 -15 -2 27.99 8
-5 15 -2 24.34 7.32
-5 -15 2 6.73 4.45
-5 15 2 13.99 5.63
5 -15 2 11.55 5.23
5 -15 -2 14.29 5.33
-5 -15 -2 8.84 4.86
-5 15 -2 20.05 5.89
-5 16 2 4.65 4.66
-5 16 -2 1.29 3.17
5 16 -2 9.83 5.69
-5 16 2 1.72 4.23
-5 -16 2 -1.75 4.56
-5 -16 -2 3.86 5.56
-5 16 -2 3.61 4.95
-5 16 -2 3.54 4.35
-5 -16 2 1.31 3.6
-5 16 2 4.08 3.73
5 -16 2 -1.73 4.25
5 -16 -2 -1.49 3.66
-5 -16 -2 4.25 4.6
-5 16 -2 4.15 4.65
-5 17 -2 233.56 22.57
-5 17 2 233.84 24.2
5 17 -2 203.26 23.3
-5 17 2 188.88 22.86
-5 17 -2 219.58 24.07
-5 17 -2 234.83 24.98
-5 -17 -2 253.14 23.62
5 -17 -2 266.17 24.24
-5 -17 2 212.68 21.84
-5 18 2 -7.16 5.61
5 18 -2 3.55 4.63
-5 18 2 1.63 4
-5 18 -2 -1.73 4.51
-5 18 -2 2.02 4.29
-5 -18 -2 1.36 3.55
5 -18 -2 1.6 3.11
-5 -18 2 -2.44 3.51
5 19 -2 526.98 41.99
5 -19 -2 404.52 39.25
-5 0 3 0.86 1.97
5 0 3 0.9 1.16
-5 0 -3 -1.32 1.81
5 0 3 -1.59 1.95
5 0 3 1.07 2.46
-5 0 -3 -3.49 7.43
5 0 3 0.3 1.18
5 0 3 2.28 1.98
-5 0 -3 2.55 5.87
-5 1 3 37.11 6.1
5 1 3 33.89 4.25
-5 -1 -3 41.38 5.4
-5 -1 3 47.51 6.65
-5 1 -3 42.56 5.97
5 -1 3 41.07 6.06
5 1 3 49.34 6.48
5 1 -3 44.29 6.18
5 -1 3 43.59 7.09
5 1 3 41.18 7.02
5 1 3 33.97 3.91
-5 -1 -3 40.49 12.7
-5 1 -3 46.73 12.9
5 -1 3 39.35 4.4
5 1 3 40.29 6.14
5 -1 3 41.12 6.05
5 1 3 37.18 5.72
-5 -1 -3 39.34 10.35
-5 1 -3 34.81 10.46
5 -1 -3 32.71 4.03
5 2 3 80.84 7.39
5 2 -3 83.41 9.26
-5 2 3 82.17 9.48
-5 -2 3 98.89 9.9
5 2 3 109.34 11.34
-5 -2 -3 88.94 8.22
-5 2 -3 92.24 9.71
5 -2 3 80.8 10.16
5 2 -3 52.02 6.39
5 -2 3 70.67 8.73
5 2 3 87.06 9.56
-5 -2 3 81.87 7.98
5 -2 3 72.62 7.27
-5 -2 -3 107.43 18.63
5 -2 -3 67.7 7.11
5 2 3 91.89 9.33
5 -2 3 77.93 9.16
5 2 3 95.6 9.26
-5 2 -3 95.54 15.3
-5 3 3 -0.89 2.18
5 3 -3 -0.36 1.32
-5 -3 -3 0.93 1.46
-5 3 -3 -0.92 2.41
-5 -3 3 4.26 1.79
5 3 3 0.88 2.03
5 -3 -3 -0.59 1.86
5 3 -3 -0.75 2.07
5 -3 3 -1.04 2.22
5 3 3 -1.11 2.54
-5 3 3 2.56 1.44
-5 -3 -3 3.13 6.08
5 3 3 0.68 1.77
5 -3 3 4.26 2.77
-5 3 -3 6.81 7.37
5 -3 -3 0.43 1.36
5 -3 3 -0.83 1.49
-5 4 3 2.7 2.62
5 4 -3 6.39 2.02
-5 -4 -3 4.67 1.56
-5 4 -3 -1.02 2.37
-5 -4 3 8.73 2.21
5 4 3 5.4 2.94
5 -4 -3 5.45 2.37
5 -4 3 3.11 2.57
5 4 -3 2.25 1.98
5 4 3 5.64 2.95
5 -4 -3 4.81 1.9
-5 -4 -3 3.02 6.44
-5 4 -3 17.67 8.86
5 4 3 6.89 2.7
-5 4 3 5.38 1.93
5 -4 3 3.56 2.7
-5 -4 -3 8.73 5.37
-5 4 -3 2.18 4.65
5 -4 3 4.93 2.12
5 5 -3 -0.49 2
-5 5 -3 -2.25 3.25
-5 5 3 2.78 2.79
-5 -5 3 5.96 2.07
5 5 3 1.91 2.62
5 -5 3 5.17 2.98
5 5 -3 0.75 1.95
-5 -5 -3 2.92 4.39
-5 5 -3 2.83 5.5
5 -5 -3 2.6 1.63
-5 5 3 1.95 1.41
5 5 3 4.14 2.32
5 -5 3 -0.94 2.45
-5 -5 -3 -2.11 4.09
-5 5 -3 6.3 5.76
5 6 -3 72.12 7.96
5 6 -3 85.42 9.2
-5 6 -3 51.27 9.19
5 -6 3 83.96 10.75
-5 6 3 72.05 9.34
-5 -6 3 71.76 7.68
5 6 3 97.61 10.71
5 6 3 70.6 8.63
5 -6 -3 71.49 7.99
-5 -6 -3 93.63 16.41
-5 6 -3 87.57 15.89
-5 6 3 84.66 8.37
5 -6 3 79.34 9.89
-5 -6 -3 86.75 13.87
-5 6 -3 70.22 12.54
5 7 -3 188.7 18.3
-5 7 3 236.08 20.84
-5 7 -3 222.06 21.35
5 7 -3 241.79 19.73
-5 -7 3 232.77 18.09
5 7 3 277.47 21.95
5 -7 -3 199.41 18.53
-5 -7 -3 322.72 31.15
-5 7 -3 246.95 28.08
-5 7 3 186.12 18.63
5 7 3 253.46 19.68
-5 7 -3 251.76 21.39
5 -7 3 248.79 21.26
-5 -7 -3 201.54 23.84
-5 7 -3 244.85 25.48
5 8 -3 82.61 10.51
-5 8 3 124.83 13.2
5 8 -3 101.52 11.42
-5 8 -3 111 13.04
-5 -8 3 113.07 10.38
5 8 3 128.02 13.8
5 -8 -3 95.8 10.87
-5 -8 -3 124.47 18.51
-5 8 -3 116.46 17.57
-5 8 3 118.51 11.87
5 8 3 123.2 11.67
-5 8 -3 141.85 13.83
5 -8 3 138.08 13.88
-5 -8 -3 121.2 15.98
-5 8 -3 116.2 15.68
5 9 -3 39.91 6.44
-5 9 -3 55.14 8.74
-5 -9 3 60.41 6.33
5 9 3 74.8 9.78
5 9 -3 55.31 7.37
-5 9 -3 62.37 8.9
-5 -9 -3 54.85 11.79
-5 9 -3 61.73 12.18
5 -9 -3 35.42 6.21
5 -9 3 68.13 9.37
-5 -9 -3 45.29 9.44
-5 9 -3 44.61 9.58
5 10 -3 -0.79 2.84
-5 10 -3 4.86 3.17
-5 -10 3 0.5 1.29
5 10 3 1.33 3.06
5 10 -3 1.57 2.04
-5 10 -3 2.48 3.23
5 -10 -3 0.83 2.59
-5 -10 -3 -2.4 4.17
-5 10 -3 -4.56 4.85
5 -10 3 -1.28 2.93
-5 -10 -3 1.76 4.05
-5 10 -3 1.72 4.22
5 11 -3 22.75 5.04
-5 11 -3 20.33 5.66
-5 -11 3 28.32 4.41
5 11 3 32.71 7.37
5 11 -3 30.87 5.56
-5 11 -3 30.64 6.67
5 -11 -3 30.71 5.52
-5 -11 -3 23.3 8.09
-5 11 -3 37.3 9.92
5 -11 3 37.95 7.43
-5 -11 -3 48 9.27
-5 11 -3 35.12 7.94
5 12 -3 52.08 8.38
-5 12 -3 88.68 11.41
-5 -12 3 63.68 7.37
5 12 3 68.1 10.81
-5 12 -3 64.15 10
5 -12 -3 63.96 9
-5 -12 -3 87.79 14.19
-5 12 -3 90.84 14.39
5 -12 3 92.03 11.98
-5 -12 -3 69.46 11.54
-5 12 -3 69.78 11.19
-5 13 3 24.51 6.08
5 13 -3 20.36 5.14
-5 13 -3 21.57 6.33
5 13 3 17.67 6.78
-5 -13 3 30.03 4.37
-5 13 -3 29.97 7.01
5 -13 -3 21.48 5.79
-5 -13 -3 28.28 8.63
-5 13 -3 34.81 8.7
5 -13 3 38 7.78
-5 -13 -3 32.09 7.71
-5 13 -3 20.33 6.61
-5 14 3 -2.75 4.31
5 14 -3 -2.34 4.42
-5 14 -3 4.08 3.92
5 14 3 1.7 3.62
-5 -14 3 5.02 2.22
-5 14 -3 4.59 3.76
5 -14 -3 -1.18 5.1
-5 -14 -3 8.55 5.87
-5 14 -3 -2.01 3.9
5 -14 3 1.61 3.95
-5 -14 -3 -1.58 3.37
-5 14 -3 -1.54 3.78
5 -14 -3 3.98 3.82
-5 15 3 87.23 11.72
-5 15 -3 95.86 12.11
5 15 -3 55.93 9.69
-5 -15 3 78.47 8.11
5 15 3 66.59 11.65
-5 15 -3 86.92 12.37
5 -15 -3 76.29 10.65
-5 15 3 54.75 11.12
-5 -15 3 47.15 10.61
-5 -15 -3 69.53 12.67
-5 15 -3 84.92 13.38
5 -15 3 50.74 10.36
-5 -15 -3 100.17 13.26
-5 -15 3 54.43 10.13
-5 15 -3 74.25 11.65
-5 15 3 70.96 11.35
5 -15 -3 80.03 11.51
-5 16 3 32.74 8.11
-5 16 -3 36.02 7.56
5 16 -3 37.16 7.91
5 16 3 39.52 9.05
-5 16 -3 22.8 7.26
5 -16 -3 22.03 7.05
-5 16 3 26.31 7.42
-5 -16 3 28.03 7.71
-5 -16 -3 22.7 7.86
-5 16 -3 17.38 6.37
5 -16 3 19.51 7.17
-5 -16 3 26.81 6.88
-5 -16 -3 38.28 8.11
-5 16 3 35.4 7.84
-5 16 -3 29.81 7.47
5 -16 -3 55.81 9.09
5 17 -3 241.55 25.73
-5 17 -3 338.14 28.05
-5 17 3 336.17 28.25
5 17 3 322.39 28.86
-5 17 3 231.86 26.27
-5 17 -3 344.15 29.81
5 -17 -3 219.74 25.25
5 -17 3 230.1 26.44
5 -17 -3 309.66 27.1
-5 -17 3 235.78 24.63
5 18 -3 9.53 5.24
-5 18 -3 19.87 7.18
5 -18 -3 12.6 6.03
-5 18 3 21.17 6.85
-5 -18 3 21.09 5.78
5 -18 -3 6.12 4.88
5 19 -3 40.69 9.1
5 -19 -3 48.49 9.88
-5 0 -4 35.86 4.98
-5 0 4 30.21 5.78
-5 0 4 41.24 5.44
5 0 4 35.85 5.71
5 0 4 27.65 6.04
-5 0 -4 14.1 8.95
5 0 4 36.2 5.63
-5 0 -4 23.51 9.07
-5 1 4 125.28 12.62
5 -1 4 113.77 12.89
-5 -1 -4 105.15 10.19
-5 1 -4 123.99 11.61
5 1 4 131.21 13.46
5 -1 4 104.74 11.25
5 1 4 111.92 11.58
-5 -1 4 106.4 10.69
-5 -1 -4 78.48 17.92
-5 1 -4 111.26 20.02
5 -1 -4 113 10.01
5 -1 4 123.93 11.77
5 1 4 108.82 11.17
-5 -1 -4 103.2 17.08
-5 1 -4 81.48 15.92
5 2 -4 3.59 1.71
-5 -2 -4 5.83 2.15
-5 2 -4 3.35 2.83
-5 2 4 4.82 3.02
5 -2 4 7.75 2.85
5 -2 4 2.87 2.26
-5 -2 4 3.03 2.36
5 2 4 4.08 2.66
5 -2 4 3.04 1.26
5 -2 4 6.46 3.86
5 2 4 -1.14 2.43
-5 -2 -4 3.3 7.01
5 -2 4 6.52 2.93
5 2 4 2.79 2.35
-5 2 -4 -2.45 5.63
5 -2 -4 1.45 1.79
-5 3 4 737.16 47.59
5 -3 4 740.53 48.35
-5 3 -4 905.75 49.18
5 3 -4 581.15 43.81
5 -3 4 694.17 45.61
5 3 4 784.92 49.29
5 3 4 717.76 46.8
-5 -3 4 753.62 45.37
-5 -3 -4 751.39 60.08
5 -3 -4 659.75 44.53
5 -3 4 725.3 46.77
-5 3 -4 750.85 56.06
5 4 -4 15.27 3.46
-5 4 4 17.68 4.52
-5 4 -4 28.4 6.05
-5 -4 4 22.66 4.29
5 4 4 26.56 5.24
5 4 -4 16.45 4.45
5 -4 4 29.59 5.64
5 4 4 22.4 6.1
-5 -4 -4 24.48 9.29
-5 4 -4 11.92 7.86
-5 4 4 12.06 2.64
5 -4 4 17.91 4.5
-5 -4 -4 18.13 7.47
-5 4 -4 22.69 7.98
5 -4 -4 19.93 3.87
5 -5 4 1956.18 135.78
5 5 -4 2143.14 133.72
-5 5 4 1900.35 135.12
-5 5 -4 2408.72 137.76
5 5 -4 1658.79 132.44
-5 -5 4 2168.45 133.4
5 5 4 2020.68 135.35
-5 -5 -4 2147.25 147.53
-5 5 -4 2017.75 145.93
5 -5 -4 1773.67 132.85
-5 5 4 1546.84 131.74
5 -5 4 2021.28 135.19
-5 -5 -4 2130.87 142.96
-5 5 -4 1998.31 142.21
-5 6 4 7.07 4.05
5 6 -4 6.94 2.94
-5 6 -4 14.15 5.26
-5 -6 4 3.59 3.02
5 6 4 12.55 4.28
5 -6 4 6.38 3.72
5 6 -4 8.49 3.14
5 -6 -4 4.58 2.88
-5 -6 -4 2.85 6.08
-5 6 -4 8.22 6.31
5 -6 4 7.04 3.41
-5 -6 -4 4.2 4.84
-5 6 -4 12.6 6.59
5 7 -4 319.54 31.14
-5 7 4 431.01 33.96
5 7 -4 458.06 32.2
-5 7 -4 369.26 35.04
-5 -7 4 470.61 32.07
5 7 4 486.18 35.03
5 -7 -4 373.94 31.68
-5 -7 -4 476.6 43.23
-5 7 -4 471.73 42.66
5 -7 4 430.29 34.2
-5 -7 -4 431.92 38.86
-5 7 -4 397.5 38.32
5 8 -4 2.21 2.04
-5 8 -4 1.52 3.75
-5 -8 4 3.06 2.45
5 8 4 6.05 3.65
5 8 -4 5.89 2.68
-5 -8 -4 2.64 4.6
-5 8 -4 7.59 6.22
5 -8 -4 5.26 2.37
5 -8 4 12.57 4.45
-5 -8 -4 5.85 4.49
-5 8 -4 9.64 5.3
5 9 -4 58.58 8.32
5 9 -4 73.02 8.5
-5 9 -4 63.97 11.36
-5 -9 4 85.38 8.81
5 9 4 98.37 11.92
-5 9 -4 79.08 10.72
5 -9 -4 66.25 8.69
-5 -9 -4 91.85 15.55
-5 9 -4 75.53 14.47
5 -9 4 82.17 10.95
-5 -9 -4 88.03 13.64
-5 9 -4 66.81 12.05
5 10 -4 18.69 4.35
-5 10 -4 24.52 6.77
-5 -10 4 20.43 3.96
5 10 4 19.46 6.04
5 10 -4 13.47 3.43
-5 10 -4 19.76 5.62
5 -10 -4 13.05 4.11
-5 -10 -4 22.47 8.76
-5 10 -4 19.01 7.82
5 -10 4 27.43 6.43
-5 -10 -4 24.45 7.41
-5 10 -4 14.55 6.43
5 11 -4 17.38 4.7
-5 11 -4 24.71 6.8
-5 -11 4 30.3 4.75
5 11 4 32.58 7.37
5 11 -4 28.93 4.81
-5 11 -4 31.84 6.92
-5 -11 -4 36.84 10.16
-5 11 -4 30.29 8.76
5 -11 -4 13.16 4.37
5 -11 4 29.31 6.98
-5 -11 -4 43.74 9.13
-5 11 -4 39.25 8.94
5 12 -4 1.97 2.42
-5 12 -4 -1.67 4.11
-5 12 4 2.46 3.2
-5 -12 4 -0.66 2.05
5 12 4 -1.57 3.87
5 12 -4 2.13 2.38
-5 12 -4 -1.46 3.12
-5 -12 -4 -4.84 5.55
-5 12 -4 6.86 6.28
5 -12 -4 -2.03 2.79
5 -12 4 2.96 3.85
-5 -12 -4 1.8 4.13
-5 12 -4 1.76 3.74
-5 13 4 767.32 52.61
5 13 -4 619.74 50.39
-5 -13 4 654.22 48.51
5 13 -4 618.57 48.66
5 13 4 681.62 54.16
-5 -13 -4 697.33 58.07
-5 13 -4 594.46 55.62
-5 13 -4 708.68 53.66
5 -13 -4 570.66 50.18
5 -13 4 630.51 53.07
-5 -13 -4 666.44 54.55
-5 13 -4 587.82 53.27
-5 14 4 9.31 5.06
-5 14 -4 28.79 7.46
5 14 -4 11.54 5.26
-5 -14 4 25.47 4.68
5 14 4 15.91 6.81
5 14 -4 18.41 4.45
-5 14 -4 37.32 8.19
5 -14 -4 22.69 5.72
5 -14 4 11.54 5.31
-5 15 4 737.62 52.5
5 15 -4 564.93 50.05
-5 15 -4 817.07 54.95
-5 -15 4 662.82 48.08
5 15 -4 602.82 48.1
5 15 4 571.93 52.73
-5 15 -4 822.24 55.34
5 -15 -4 615.63 50.87
5 -15 4 519.75 51.72
-5 16 4 -1.49 3.66
-5 16 -4 1.6 3.92
5 16 -4 2.69 3.7
5 16 4 1.8 6.06
-5 16 -4 3.6 4.14
5 -16 -4 -4.17 3.81
5 -16 4 1.79 4.12
5 17 -4 245.65 24.5
-5 17 -4 297.23 27.6
5 -17 -4 229.13 24.16
-5 -17 4 228.54 23.48
5 18 -4 3.09 3.56
5 -18 -4 4.72 3.63
-5 0 5 1.49 2.14
5 0 5 1.5 2.06
5 0 5 1.14 2.61
-5 0 -5 3.68 6.39
5 0 5 1.49 2.05
-5 0 -5 2.76 5.87
-5 1 5 2.31 2.33
-5 -1 5 2.21 2.32
5 -1 5 3.66 2.47
5 1 5 11.66 3.31
5 -1 5 2.24 2.39
5 1 5 6.93 3.62
-5 -1 -5 3.57 6.21
-5 1 -5 3.53 6.86
5 -1 5 3.11 2.03
5 1 5 0.71 1.97
-5 -1 -5 2.66 6.12
-5 1 -5 5.39 5.73
5 -1 -5 1.73 2.08
-5 2 5 208.05 19.13
5 2 5 211.08 19.77
-5 2 -5 182.46 17.24
5 -2 5 241.41 20.09
5 -2 5 175.44 16.92
5 2 5 204.86 18.05
-5 2 5 205.1 17.88
-5 -2 5 206.02 17.59
-5 -2 -5 217.69 29.03
5 -2 -5 204.68 17.03
5 -2 5 196.47 17.78
5 2 5 194.27 17.15
-5 2 -5 184.19 24.42
-5 3 5 327.73 26.25
5 -3 5 302.95 25.96
-5 3 -5 285.74 24.36
5 3 -5 282.54 23.31
-5 -3 5 329.23 24.45
5 -3 5 278.58 23.6
5 3 5 338.59 27.01
5 3 5 318.63 25.09
-5 -3 -5 354.35 37.32
5 -3 -5 275.45 23.5
-5 3 -5 267.59 31.19
5 -3 5 274.51 24.46
5 3 5 288.87 23.48
5 4 -5 33.85 5.29
-5 4 -5 35.04 6.1
-5 4 5 40.47 6.87
-5 -4 5 39.14 5.79
5 4 5 38.44 6.27
5 -4 5 39.87 7
5 4 5 37.91 7.08
-5 -4 -5 48.48 13.1
-5 4 -5 56.84 13.38
5 -4 5 29.87 5.72
-5 -4 -5 40.89 10.53
-5 4 -5 45.78 10.95
5 -4 -5 30.09 5.23
5 5 -5 0.68 1.87
-5 5 5 1.08 2.29
-5 5 -5 0.99 2.28
-5 -5 5 0.73 2.19
5 5 5 -1 2.61
5 -5 5 -1.07 2.78
-5 -5 -5 6.34 7.28
-5 5 -5 3.08 5.36
5 -5 5 0.96 2.35
-5 -5 -5 -2.37 5.04
-5 5 -5 -2.37 5.44
5 -5 -5 1.45 2.18
-5 6 -5 102.23 12.47
5 -6 5 118.71 13.19
5 6 -5 92.06 10.7
-5 -6 5 123.03 11.7
5 6 5 107.26 12.54
5 -6 -5 102.61 11.2
-5 -6 -5 137.8 20.39
-5 6 -5 127.6 19.68
5 -6 5 100.12 12.01
-5 -6 -5 155.4 19.14
-5 6 -5 116.16 17.03
5 7 -5 12.17 3.68
-5 7 -5 8.41 4.09
-5 -7 5 7.33 3.12
5 7 5 10.51 4.23
5 7 -5 9.82 2.99
-5 7 -5 22.81 8.6
5 -7 5 6.58 3.36
-5 -7 -5 8.81 6.38
-5 7 -5 4.39 5.43
5 -7 -5 11.81 3.55
5 8 -5 198.23 19.39
-5 8 -5 215.56 22.06
5 8 -5 206.38 18.31
-5 -8 5 272.57 20.31
5 8 5 270.57 22.85
5 -8 -5 198.75 19.44
-5 -8 -5 293.41 30.67
-5 8 -5 252.06 28.63
5 -8 5 227.27 21.61
-5 -8 -5 220.86 25.33
-5 8 -5 252.7 26.3
5 9 -5 3.41 2.46
-5 9 -5 7.06 4.25
-5 -9 5 -0.76 2.56
5 9 5 4.05 3.52
5 9 -5 0.54 1.92
5 -9 -5 4.3 2.48
-5 -9 -5 -2.75 4.78
-5 9 -5 -2.64 5.12
5 -9 5 1.26 2.69
-5 9 -5 12.16 6.58
5 10 -5 0.9 2.35
-5 10 -5 1.52 3.23
-5 10 5 1.19 3.1
-5 -10 5 2.32 2.22
5 10 5 -1.44 3.07
5 10 -5 -1.09 1.95
5 -10 -5 0.92 2.66
5 -10 5 4.04 3.09
5 11 -5 150.75 17.2
-5 11 5 201.68 19.55
5 11 -5 202.95 16.28
-5 11 -5 135.53 19.1
-5 -11 5 228.24 17.8
5 11 5 230.84 21.59
5 -11 -5 160.28 17.48
-5 11 -5 185.45 19.96
5 -11 5 233.41 21.24
5 12 -5 100.98 12.88
-5 12 5 139.98 15.24
-5 12 -5 105.95 15.19
5 12 -5 125.89 11.75
-5 -12 5 131.17 12.92
5 12 5 132.31 16.24
5 -12 -5 124.48 13.83
-5 12 -5 158.98 17.03
5 -12 5 135.95 15.94
-5 13 5 288.84 25.63
5 13 -5 243.22 23.87
-5 13 -5 273.35 26.44
-5 -13 5 285.34 23.2
5 13 5 217.03 25.67
5 -13 -5 267.23 24.4
-5 13 -5 299.61 27.45
5 -13 5 263.49 26.35
-5 14 -5 46.94 8.84
5 14 -5 11.89 4.98
-5 14 5 19.97 6.31
-5 -14 5 24.41 4.99
5 14 5 12.66 7.02
-5 14 -5 35.61 8.08
5 -14 -5 29.25 6.36
5 -14 5 23.56 7.03
-5 15 -5 40.77 8.93
-5 15 5 46.88 8.63
5 15 -5 30.61 7.23
-5 -15 5 42.53 6.43
5 15 5 48.54 10.04
-5 15 -5 28.64 7.98
5 -15 -5 30.06 7.12
5 -15 5 21.21 7.1
5 16 -5 41.01 8.48
5 -16 -5 37.81 7.87
5 17 -5 4.37 4.03
5 -17 -5 11.93 5.66
5 0 6 104.19 11.44
-5 0 6 128.84 12.72
5 0 6 138.55 14.46
5 0 6 111.87 11.65
5 -1 6 1151.23 86.16
5 1 6 1106.69 86.42
-5 1 6 1230.99 87.27
-5 -1 6 1278.73 87.41
5 -1 6 1311.36 89.32
5 1 6 1383.64 89.91
5 -1 6 1156.39 86.5
5 1 6 1189.97 86.21
-5 2 6 20.62 5.09
5 -2 6 18.76 3.99
-5 -2 6 12.76 3.97
5 2 6 11.75 3.78
5 -2 6 26.99 6.03
5 2 6 9.66 4.44
5 -2 6 18.05 4.4
5 2 6 10.98 3.43
5 -2 -6 13.02 3.85
5 -2 6 20.84 5.6
-5 3 6 237.28 21.02
5 -3 6 200.99 20.02
5 3 -6 192.28 18.08
-5 -3 6 257.96 19.87
5 3 6 220.42 21.65
5 -3 6 209.96 17.93
5 3 6 233.32 21.39
5 3 6 209.06 19.24
-5 3 6 215.52 19.49
5 -3 -6 207.45 18.66
5 -3 6 200.19 18.9
5 -3 6 215.79 20.93
-5 -4 6 64.31 8.13
5 4 6 69.68 8.73
5 -4 6 54.79 8.46
5 4 6 38.21 8.51
5 4 6 69.24 9.83
5 4 -6 47.88 6.98
-5 4 6 69.56 9.29
5 -4 6 53.97 7.72
5 -4 -6 58.89 7.72
5 -4 6 64.22 9.89
-5 -5 6 32.43 5.96
5 5 6 36.54 6.44
5 -5 6 39.1 7.12
5 5 6 30.19 7.31
5 5 6 39.93 7.44
5 5 -6 26.22 5.21
5 -5 6 29.4 5.85
5 -5 -6 44.43 6.44
5 -5 6 32.84 7.79
-5 -6 6 43.55 6.97
5 6 6 54.3 8.37
5 -6 6 40.49 7.51
5 6 6 49.64 9.1
5 6 -6 47.37 7.02
5 -6 6 58.91 8.24
5 -6 -6 58.15 7.62
5 -6 6 44.05 8.89
5 7 -6 136.67 15.66
-5 -7 6 225.92 17.68
5 7 6 196.04 18.58
5 -7 -6 169.46 16.4
5 -7 6 169.54 19.04
5 -7 6 178.7 17.71
-5 -8 6 3.5 3.33
5 8 6 2.58 3.55
5 8 -6 5.43 3.44
5 -8 6 1.21 3.5
5 -8 -6 6.43 3.3
5 -8 6 11.9 5.92
5 9 -6 993.4 85.43
-5 9 6 1199.56 87.67
-5 -9 6 1328.85 86.56
5 9 6 1391.39 89.89
5 -9 -6 1071.43 85.9
5 -9 6 1267.85 89.76
5 -9 6 1253.84 88.66
-5 -10 6 59.07 8.62
5 10 6 70.4 11.42
-5 10 -6 59.87 10.13
5 10 -6 67.34 8.87
-5 10 6 73.73 9.88
5 -10 6 56.37 9.31
5 -10 -6 41.59 7.68
5 -10 6 76.25 11.13
5 11 -6 418.07 37.18
-5 11 6 518.76 39.43
-5 11 -6 432.11 39.94
-5 -11 6 521.87 37.58
5 11 6 475.89 40.56
5 -11 -6 398.94 36.97
5 -11 6 558.14 41.24
5 -11 6 469.86 39.9
-5 12 -6 -4.88 4.47
5 12 -6 -1.08 3.11
-5 12 6 3.92 3.77
-5 -12 6 1.82 2.73
5 12 6 -4.97 7.33
5 -12 -6 1.09 3.15
5 -12 6 3.1 3.57
5 13 -6 131.05 15.44
-5 13 -6 119.75 16.91
-5 -13 6 171.98 15.77
5 13 6 154.11 18.58
5 -13 -6 152.59 16.06
5 -13 6 180.37 18.98
-5 14 -6 44.7 9.36
5 14 -6 47.14 8.28
5 -14 -6 51.05 8.29
-5 -14 6 37.56 6.9
5 15 -6 7.83 4.26
5 -15 -6 5.33 3.3
5 16 -6 27.7 6.85
-5 0 7 0.98 2.4
5 0 7 -1.47 2.12
5 0 7 3.57 3.27
5 0 7 1.19 3.28
5 0 7 6.42 3.72
-5 1 7 72.52 9.16
-5 -1 7 69.19 9.04
5 1 7 69.9 8.43
5 -1 7 69.95 9.75
5 -1 7 63.88 9.21
5 1 7 67.74 9.65
5 1 7 69.97 10.06
5 -1 7 67.75 8.14
5 -1 7 55.05 9.18
5 1 7 55.8 8.37
-5 -2 7 78.47 9.47
5 2 7 60.59 8.24
5 -2 7 66.08 9.09
5 2 7 74.01 10.16
-5 2 7 82.07 9.71
5 2 7 51.79 9.4
5 -2 7 94.02 10.91
5 -2 7 56.45 8.01
5 -2 7 74.69 10.37
-5 3 7 31.64 5.85
-5 -3 7 34.96 6.08
5 3 7 13.85 4.43
5 -3 7 39.72 6.95
5 3 7 30.19 6.46
5 3 7 27.11 6.81
5 -3 7 27.83 5.41
5 -3 -7 29.32 5.37
5 -3 7 34.34 7.21
-5 4 7 13.55 3.88
-5 -4 7 9.67 3.41
5 4 7 7.99 3.62
5 -4 7 7.78 3.9
5 4 7 11.57 4.21
5 4 7 9.47 4.37
5 -4 7 5.59 2.97
5 -4 -7 5.34 3.05
5 -4 7 8.82 4.46
-5 -5 7 -1.95 2.81
5 5 7 1.08 4.32
5 -5 7 -1.11 2.15
5 5 7 1.32 3.24
5 5 7 -1.57 3.85
5 -5 7 -2.01 2.89
5 -5 -7 4.59 3.29
5 -5 7 3.13 4.29
-5 -6 7 65.98 8.91
5 6 7 57.79 8.87
5 -6 7 50.05 8.61
5 6 7 72.97 10.55
5 6 7 54.73 9.78
5 6 -7 45.97 7.66
5 -6 7 70.21 9.12
5 -6 -7 67.87 8.75
5 -6 7 57.16 10.82
-5 7 7 334.1 29.75
5 7 -7 314.47 28.22
-5 -7 7 353.32 28.87
5 7 7 391.73 32.38
5 7 7 337.22 29.9
5 -7 -7 330.93 28.42
5 -7 7 367.34 32.04
5 -7 7 324.83 29.23
-5 -8 7 101.29 11.62
5 8 7 91.83 12.36
5 8 7 96.57 13.13
-5 8 7 96.28 12.32
5 8 -7 94.71 11.23
5 -8 7 83.14 11.55
5 -8 7 137.38 15.2
5 -8 -7 75.74 10.44
-5 -9 7 71.88 9.18
5 9 7 66.91 10.18
5 9 7 53.91 9.76
-5 9 7 50.4 8.74
5 9 -7 61.71 8.74
5 -9 7 71.7 10.21
5 -9 -7 51.57 8.27
5 -9 7 55.12 10.07
-5 -10 7 -1.01 2.91
5 10 7 -1.51 3.95
5 10 7 -3.07 5.17
5 10 -7 2.13 2.93
5 -10 7 -1.42 3.69
5 -10 -7 -1.08 3.26
5 -10 7 -1.52 4.38
-5 -11 7 5.14 3.22
5 11 7 4.83 4.64
5 11 -7 1.11 2.73
5 -11 7 4.52 3.93
5 -11 -7 2.25 3.1
-5 -12 7 54.56 8.23
5 12 -7 50.21 8.34
5 -12 -7 50.76 8.45
-5 -13 7 2.1 3.02
5 -13 -7 -1.23 2.62
-5 -14 7 8.56 4.19
5 0 8 55.92 9.41
-5 0 8 71.22 9.61
5 0 8 69.55 9.88
5 0 8 78.99 10.22
-5 -1 8 150.07 15.4
5 -1 8 148.06 15.75
5 1 8 131.79 16.3
-5 1 8 152.7 15.43
5 1 8 158.03 16.18
5 -1 8 138.92 15.42
5 -1 8 134.3 15.73
5 1 8 128.44 14.74
5 2 8 12.62 5.16
-5 2 8 5.49 3.49
-5 -2 8 9.73 4.24
5 -2 8 15.12 4.67
5 2 8 14.96 5
5 -2 8 5.58 3.68
5 -2 8 4.21 4.44
-5 -3 8 413.46 32.33
5 3 8 354.38 30.9
-5 3 8 391.75 32.19
5 -3 8 455.18 33.18
5 3 8 383.27 32.81
5 -3 8 396.41 34.46
5 4 8 23.79 7.43
-5 4 8 26.31 6.36
-5 -4 8 29 6.42
5 4 8 16.54 5.43
5 -4 8 24.75 5.87
5 4 8 32.51 7.17
5 -4 8 28.99 7.46
-5 -5 8 1023.37 66.3
5 5 8 836.49 68.3
5 5 8 934.8 67.21
5 5 8 887.15 65.69
5 -5 8 967.82 66.42
5 -5 8 832.84 64.75
5 6 8 21.52 7.11
-5 -6 8 15.12 4.97
5 6 8 14.31 5.27
5 6 8 28.74 6.69
5 -6 8 7.72 3.83
5 -6 8 11.72 6.41
-5 -7 8 271.7 23.41
5 7 8 273.96 26.11
5 7 8 257.69 24.55
5 7 8 253.14 23.83
5 -7 8 199.01 24.12
5 -7 8 249.8 23.4
-5 -8 8 -1.1 3.81
5 8 8 1.38 3.59
5 -8 8 -1.28 3.5
-5 -9 8 125.64 13.99
5 9 8 125.28 15.33
5 -9 8 112.03 14.4
-5 -10 8 31.36 6.58
-5 -11 8 42.13 7.81
-5 -12 8 4.64 3.91
5 0 9 2.39 2.75
5 1 9 19.26 6.26
-5 -1 9 4.73 3.61
5 -1 9 7.04 3.72
5 1 9 9.74 4
5 -1 9 11.19 5.04
5 2 9 10.36 5.15
-5 -2 9 22.35 5.56
5 -2 9 23.03 5.45
5 2 9 24.91 5.87
5 -2 9 18.1 6.29
-5 -3 9 277.53 23.04
5 -3 9 257.3 22.37
5 -3 9 229.62 24.01
5 -4 9 1.13 3.11
6 0 0 1494.45 96.97
-6 0 0 1646.81 96.49
-6 0 0 869.09 102.34
-6 0 0 906.67 99.87
-6 1 0 20.49 5.35
-6 -1 0 7.6 3.71
6 -1 0 4.62 3.91
6 1 0 3.45 3.76
-6 1 0 -3.31 7.61
-6 -1 0 3.31 10.38
-6 1 0 -2.56 8.63
6 2 0 503.33 39.72
-6 2 0 514.89 39.42
6 -2 0 497.03 39.81
-6 -2 0 522.57 38.62
-6 -2 0 381.96 46.32
-6 2 0 421.78 44.53
-6 3 0 2.2 3.45
-6 -3 0 -2.56 2.56
6 -3 0 4.76 3.42
6 3 0 -1.14 2.42
-6 -3 0 -9.33 11.77
-6 3 0 -4.81 10.84
-6 -4 0 129.11 13.46
6 4 0 117.35 14.33
-6 4 0 166.4 15.93
-6 4 0 189.99 24.56
-6 -4 0 136.44 21.68
-6 -4 0 132.61 19.1
-6 4 0 146.28 19.84
-6 5 0 2.38 3.27
-6 -5 0 -1.52 3.55
6 5 0 -1.14 2.8
-6 5 0 2.92 7.17
-6 -5 0 -2.94 5.1
-6 -5 0 -2.21 4.7
-6 5 0 2.25 5.85
6 -5 0 1.09 3
-6 6 0 67.47 9.45
-6 -6 0 32.9 5.82
6 6 0 68.31 9.1
-6 6 0 50.57 6.96
-6 6 0 33.84 11.15
-6 -6 0 39.79 12.52
-6 -6 0 62.2 12.22
-6 6 0 32.6 10.5
6 -6 0 60.85 8.53
-6 7 0 -2.64 4.43
-6 -7 0 1.82 2.36
6 7 0 1.28 3.68
6 7 0 2.29 3.29
-6 7 0 2.6 2.49
-6 7 0 -8.25 10.94
-6 -7 0 -11.11 11.81
6 -7 0 -1.17 3.06
-6 8 0 868.63 66.34
-6 -8 0 809.46 61.44
6 8 0 970.85 66.67
6 8 0 965.53 65.76
-6 8 0 844.55 72.76
-6 -8 0 751.79 71.5
-6 8 0 808.12 63.32
6 -8 0 968.04 66.04
-6 -8 0 864.52 69.57
-6 8 0 757.65 68.46
-6 9 0 4.36 5.05
-6 -9 0 1.34 1.78
6 9 0 4.17 4.01
6 9 0 -1.17 3.38
-6 9 0 3.85 2.9
-6 9 0 7.74 6.72
6 -9 0 5.17 3.72
-6 -9 0 -1.93 7.3
-6 9 0 3.94 6.62
-6 10 0 735.84 67.02
6 10 0 1020.63 68.91
6 10 0 980.37 67.23
-6 10 0 849.84 73.09
-6 -10 0 817.43 72.77
-6 10 0 772.8 64.88
6 -10 0 979.12 67.88
-6 -10 0 856.11 69.76
-6 10 0 914.26 70.52
-6 11 0 -1.62 3.98
6 11 0 7.65 4.6
-6 11 0 3.41 3.7
-6 11 0 -2.43 7.3
6 -11 0 -2.84 3.49
-6 -11 0 -9.09 7.57
-6 12 0 262.43 30.33
6 12 0 430.59 33.87
-6 12 0 325.04 34.87
-6 -12 0 300.19 34.7
-6 12 0 349.7 30.2
6 -12 0 439.18 33.12
-6 -12 0 328.6 32.62
-6 12 0 334.95 32.8
-6 13 0 -1.64 4.04
6 13 0 -3.37 4.39
-6 13 0 -1.35 3.11
-6 13 0 -2.32 6.69
6 -13 0 6.28 4.09
-6 -13 0 -7 6.96
-6 13 0 -7.08 6.53
-6 14 0 62.33 10.44
6 14 0 79.7 12.2
-6 14 0 57.68 9.53
-6 -14 0 48.99 11.95
-6 14 0 43.19 10.81
6 -14 0 68.96 10.92
-6 -14 0 25.79 8.2
-6 14 0 39.97 9.67
-6 15 0 1.62 3.97
-6 -15 0 -4.58 6.3
-6 15 0 -6.68 5.47
-6 15 0 -1.62 4.46
-6 -15 0 -1.66 4.57
-6 15 0 -1.68 4.39
-6 16 0 36.43 10.44
-6 16 0 54.2 10.26
-6 -16 0 38.59 9.41
-6 17 0 -2.08 6.5
-6 17 0 3.75 3.64
-6 0 1 -3.67 4.86
-6 0 -1 -3.48 4.94
6 0 -1 2.19 3.16
6 0 1 1.2 3.31
-6 0 1 -6.77 10.6
-6 0 -1 -14.2 13.08
-6 0 1 -2.65 9.78
-6 0 -1 -7.94 9.76
-6 -1 -1 72.38 12.48
-6 1 1 153.27 14.34
-6 -1 1 173.83 14.56
6 1 -1 163.08 15.22
6 -1 1 160.12 15.64
-6 1 -1 130.13 15.02
6 -1 -1 172.36 15.53
6 1 1 189.68 16.53
-6 1 1 75.47 18.7
-6 -1 1 117.87 21.11
-6 1 -1 89.13 19.57
-6 -1 -1 103.28 20.31
-6 1 1 132.24 20.16
-6 1 -1 108.72 19.1
-6 2 1 -0.98 2.55
-6 -2 1 0.87 2.62
-6 2 -1 -1.29 4.33
-6 -2 -1 -2.01 3.91
6 -2 -1 -2.26 2.95
6 -2 1 1.2 2.95
6 2 -1 2.16 2.66
6 2 1 1.2 2.55
-6 -2 1 -12.66 11.66
-6 -2 -1 -6.68 12.3
-6 2 1 -10.05 9.51
-6 2 -1 -5.01 9.97
-6 3 1 262.08 22.66
-6 -3 1 268.13 22
6 3 1 268.73 23.61
6 3 -1 236.4 22.5
-6 3 -1 239.11 23.69
-6 -3 -1 217.5 21.54
6 -3 1 267.32 23.66
-6 -3 -1 294.39 33.4
-6 -3 1 217.16 29.79
6 -3 1 267.36 22.69
-6 3 -1 266.18 29.33
-6 3 1 236.29 28.92
-6 4 1 28.55 5.62
-6 -4 1 25.5 4.82
-6 4 -1 6.98 4.82
-6 -4 -1 19.45 4.48
6 4 1 29.61 5.96
6 4 -1 26.75 5.45
6 4 1 25.23 5.63
-6 4 1 -5.95 10.06
-6 -4 1 2.96 8.98
-6 4 -1 3.1 10.48
-6 -4 -1 25.1 11.29
-6 -4 1 16.15 8.33
-6 4 1 4.72 7.75
6 -4 1 13.66 4.33
-6 -4 -1 16.26 8.39
-6 4 -1 2.34 7.96
-6 5 1 2.23 2.74
-6 -5 1 3.14 2.73
-6 -5 -1 2.84 2.69
-6 5 -1 8.67 4.86
6 5 1 -1.18 2.91
6 5 -1 2.14 2.94
6 5 1 -2.4 2.75
-6 5 1 3.82 2.35
-6 5 1 -2.87 6.1
-6 -5 1 2.86 4.3
-6 5 -1 -3 7.81
-6 -5 -1 -3.04 5.29
-6 -5 1 -2.22 5.11
-6 5 1 -9.12 6.86
6 -5 1 2.2 3.01
-6 -5 -1 9 5.53
-6 5 -1 2.27 5.91
-6 6 1 3.54 4.41
-6 -6 1 12.83 3.94
-6 -6 -1 11.4 3.16
-6 6 -1 10.38 4.69
6 6 1 9.76 4.42
6 6 -1 19.23 5.04
6 6 1 10.83 4.1
-6 6 1 10.63 3.22
-6 6 1 2.77 7.25
-6 -6 1 8.32 8.37
-6 6 -1 2.91 8.03
-6 -6 -1 11.87 8.96
-6 -6 1 8.55 7.45
-6 6 1 6.58 6.9
6 -6 1 12.46 4.35
-6 -6 -1 15.31 7.39
-6 6 -1 11.01 6.93
-6 -7 1 209.08 17.71
6 7 -1 248.11 20.15
-6 -7 -1 156.39 15.58
-6 7 -1 199.24 20.96
-6 7 1 256.02 21.08
6 7 1 217.62 20.35
6 7 1 198.73 19.87
-6 7 -1 239.88 27.92
-6 7 1 198.57 25.73
-6 -7 1 184.62 25.15
-6 -7 -1 181.48 25.58
-6 7 1 172.43 17.1
-6 7 -1 204.53 18.71
6 -7 1 232.07 20.15
-6 -7 -1 192.88 23.48
-6 7 -1 198.29 23.87
-6 7 1 167.43 22.68
-6 -7 1 203.83 23.78
-6 -8 1 74.05 9.27
6 8 -1 99.37 11.53
-6 8 -1 79.21 11.86
-6 8 1 103.3 12.63
6 8 1 90.91 11.87
6 8 1 100.68 12.01
-6 8 1 49.6 14.87
-6 -8 1 70.3 16.47
-6 -8 -1 98.16 19.5
-6 8 -1 68.47 16.72
-6 8 1 90.12 10.03
-6 8 -1 118.51 11.86
6 -8 1 101.17 12.15
6 -8 -1 108.55 12.46
-6 -8 1 57.55 13.7
-6 8 1 90.01 15.54
-6 -8 -1 93.26 16.01
-6 8 -1 70.81 14.48
-6 9 1 60.43 10.07
-6 -9 1 41.65 7.42
-6 9 -1 79.14 11.7
6 9 1 97.19 12.23
6 9 -1 100.38 11.45
6 9 1 94.94 11.59
-6 9 1 73.88 9.34
-6 9 1 73.13 14.6
-6 -9 1 68 14.08
-6 -9 -1 98.13 16.68
-6 9 -1 84.94 15.78
-6 9 -1 90.75 10.88
6 -9 -1 93.98 11.43
-6 -9 1 86.58 13.81
-6 9 1 67.27 12.84
6 -9 1 83.87 11.16
-6 -9 -1 101.23 15.37
-6 9 -1 76.69 13.63
-6 10 1 9.67 4.49
-6 -10 1 2.37 2.13
-6 10 -1 3.01 3.93
6 10 1 8.76 4.92
6 10 -1 8.87 3.73
-6 10 1 5.95 3.23
-6 10 -1 8.01 4.1
-6 -10 1 12.3 10.46
-6 10 -1 -12.94 14.39
-6 -10 1 -3.72 8.85
-6 10 1 -3.84 8.83
6 -10 1 6.9 4.32
6 -10 -1 8 4.18
-6 -10 -1 -3.94 9.52
-6 10 -1 -9.86 9.83
-6 11 -1 126.59 15.17
-6 11 1 168.08 16.53
6 11 -1 133.74 15.68
6 11 1 117.39 15.23
6 11 -1 114.68 13.71
-6 11 1 95.97 17.04
-6 -11 1 84.15 16.01
-6 -11 -1 99.13 17.19
-6 11 -1 101.07 17.47
-6 11 1 109.89 13.22
-6 11 -1 115.98 13.83
-6 -11 1 106.24 15.75
-6 11 1 94.82 15.47
6 -11 1 139.59 15.49
6 -11 -1 139.53 15.23
-6 -11 -1 137.01 17.46
-6 11 -1 121.73 16.9
-6 12 1 88.06 13.18
-6 12 -1 94.94 13.15
6 12 1 105.48 14.21
6 12 -1 138.78 15.58
6 12 -1 93.44 12.33
-6 12 -1 97.49 12.52
-6 12 1 91.56 16.67
-6 -12 1 103.7 17.45
-6 -12 -1 116.34 17.89
-6 12 -1 105.06 16.71
-6 12 1 104.95 12.68
-6 -12 1 94.8 15.04
-6 12 1 50.73 13.18
6 -12 -1 128.64 14.6
6 -12 1 105.7 13.85
-6 -12 -1 98.19 14.95
-6 12 -1 84.99 15.26
-6 13 -1 145.15 17.63
-6 13 1 142.08 18.14
6 13 1 173.02 19.43
-6 -13 1 163.6 21.24
-6 13 1 148.72 20.75
-6 -13 -1 154.9 21.35
-6 13 -1 142.13 20.47
-6 13 1 170.93 17.9
-6 13 -1 166.23 17.84
6 -13 1 214.98 20.45
-6 -13 -1 184.56 20.53
-6 13 -1 148.03 18.87
-6 -13 1 156.41 18.76
-6 13 1 140.21 18.4
-6 14 -1 39.91 7.84
-6 14 1 34.49 8.39
6 14 1 16.24 6.89
-6 14 -1 31.46 7.23
-6 14 1 22.25 8.61
-6 -14 1 15.73 8.01
-6 -14 -1 16.78 8.77
-6 14 -1 46.08 11.28
-6 14 1 24.73 6.44
6 -14 1 50.87 9.25
-6 -14 -1 18.9 7.22
-6 14 -1 34.54 8.54
-6 -14 1 24.79 8.06
-6 14 1 15.31 7
-6 15 -1 7.08 4.66
-6 15 -1 12.93 5.83
-6 15 1 8.65 6.27
-6 -15 1 10.96 6.06
-6 -15 -1 25.68 8.63
-6 15 -1 4.47 4.41
-6 15 1 17.4 5.87
-6 -15 -1 14.99 6.51
-6 15 -1 24.99 7.13
-6 -15 1 6.45 5.1
-6 15 1 8.26 4.82
-6 16 1 137.88 19.47
-6 16 -1 137.55 19.83
-6 16 1 173.16 19.3
-6 16 -1 194.84 20.19
-6 -16 1 150.56 18.49
-6 -16 -1 138.76 18.24
-6 17 1 95.15 16.07
-6 17 -1 122.31 17.26
-6 17 1 149.24 17.53
-6 -17 -1 106.09 15.16
-6 -17 1 112.29 15.02
-6 0 2 106.89 11.42
6 0 -2 105.82 11.78
-6 0 -2 101.01 11.06
-6 0 -2 75.56 18.24
-6 1 2 16.64 4.26
-6 -1 -2 5.67 2.84
-6 1 -2 5.28 3.06
-6 -1 2 3.67 2.9
6 1 -2 3.04 3.07
-6 -1 -2 -3.67 8.43
-6 1 -2 3.64 7.08
-6 1 -2 2.72 6.26
-6 2 2 192.08 17.92
-6 -2 2 189.99 17.42
6 2 -2 222.94 18.48
-6 -2 -2 194.83 16.45
-6 2 -2 129.67 16.98
6 2 2 200.37 18.31
-6 -2 -2 188.56 27.18
6 -2 2 171.24 17.25
-6 2 -2 176.18 23.51
-6 3 2 2.07 3
-6 -3 -2 4.03 2.48
-6 3 -2 2.45 3.55
-6 -3 2 7.01 3.59
6 3 2 19.65 5.46
6 3 -2 11.96 5.28
6 3 2 1.25 3.77
-6 -3 -2 17.26 9
6 -3 2 9.18 3.78
-6 3 -2 2.54 6.63
-6 4 2 1905.94 132.55
-6 -4 2 1963.51 131.55
6 4 -2 1911.62 132.22
6 4 2 1979.17 133.98
-6 -4 -2 1738.28 128.96
-6 4 -2 1715.15 132.89
6 4 2 1802.89 132.52
-6 -4 -2 1999.44 146.01
-6 4 -2 1948.21 145.18
6 -4 2 1838.12 132.25
-6 -4 -2 1945.36 140.52
-6 4 -2 1918.16 140.46
-6 -5 2 14.33 3.97
-6 5 2 13.04 5.19
-6 -5 -2 3.92 1.85
-6 5 -2 6.21 4.6
6 5 2 12.64 4.49
6 -5 2 7.5 4.88
6 5 -2 8.88 5.1
6 5 2 13.84 5.26
-6 -5 -2 9.75 7.48
-6 5 -2 15.87 9.56
6 -5 2 5.4 3.79
-6 -5 -2 9.5 6.86
-6 5 -2 4.76 6.87
-6 6 2 1175.32 80.08
-6 -6 2 1225.79 78.68
6 6 -2 1260.45 79.76
-6 -6 -2 935.55 74.67
-6 6 -2 1023.39 80.03
6 6 2 1138.17 80.29
6 6 2 1150.39 80.95
-6 -6 -2 1196.76 91.73
-6 6 -2 1106.78 90.08
6 -6 2 1141.04 79.92
-6 -6 -2 1217.56 87.28
-6 6 -2 1091.26 85.97
-6 -6 2 1039.41 85.29
-6 -7 2 -0.82 2.36
-6 7 2 1.16 3.02
-6 7 -2 3.86 4.03
6 7 2 -1.26 3.46
6 7 -2 3.97 3.22
6 7 2 -2.56 3.69
-6 7 2 2.77 5.88
-6 -7 2 5.45 7.1
-6 -7 -2 9.12 6.99
-6 7 -2 11.8 8.1
-6 -7 2 6.38 6.12
-6 7 2 8.85 6.93
6 -7 2 2.38 3.43
-6 -7 -2 2.21 5.08
-6 7 -2 -2.22 5.79
-6 8 2 176.36 17.67
6 8 -2 181.12 17.02
-6 -8 2 171.24 15.98
-6 8 -2 155.65 17.49
6 8 2 168.96 17.83
6 8 2 149.59 17.57
-6 8 -2 204.07 25.22
-6 8 2 156.99 22.39
-6 -8 2 152.05 22.02
-6 -8 -2 143.72 22.3
-6 8 -2 164.38 16.96
6 -8 2 181.32 17.91
-6 -8 -2 175.65 21.11
-6 8 -2 146.93 20.36
-6 8 2 174.58 21.66
-6 -8 2 138.82 19.79
-6 -9 2 1.58 2.74
-6 9 2 2.55 3.67
-6 9 -2 -1.3 3.21
6 9 2 5.59 4.02
6 9 -2 2.01 2.77
-6 9 -2 2.32 3.02
-6 9 2 2.56 5.88
-6 -9 2 2.53 5.37
-6 -9 -2 -2.84 5.51
-6 9 -2 2.73 5.82
-6 -9 2 1.95 5.09
-6 9 2 4.08 5.61
6 -9 2 1.32 3.25
-6 -9 -2 2.06 4.74
-6 9 -2 8.18 5.33
-6 10 2 1.35 3.52
-6 -10 2 2.31 2.59
-6 10 -2 3.96 3.97
6 10 2 -1.48 3.4
6 10 -2 3.06 2.66
-6 10 -2 3.68 3.2
-6 10 2 -2.47 5.25
-6 -10 2 -2.44 5.98
-6 -10 -2 5.52 6.35
-6 10 -2 -2.65 5.64
-6 -10 2 -1.89 4.64
-6 10 2 3.94 4.53
6 -10 2 2.79 3.43
-6 -10 -2 1.98 4.22
-6 10 -2 1.98 4.22
-6 11 2 1.4 3.21
-6 -11 2 2.99 3.18
-6 11 -2 1.32 3.45
6 11 2 4.7 4.08
6 11 -2 1.04 2.56
-6 11 -2 2.61 3.21
-6 11 2 2.39 4.64
-6 -11 2 2.36 5.42
-6 -11 -2 8.04 7.72
-6 11 -2 2.57 5.9
-6 -11 2 1.82 4.19
-6 11 2 1.91 5.24
6 -11 2 5.9 4.62
-6 -11 -2 11.52 5.78
-6 11 -2 1.91 4.97
-6 12 -2 154.67 16.25
-6 12 2 125.5 15.84
6 12 -2 148.04 15.11
6 12 2 167.39 18.2
-6 12 2 111.27 17.77
-6 -12 2 121.54 18.4
-6 -12 -2 186.47 22.61
-6 12 -2 110.39 18.34
-6 12 -2 147.32 16.18
6 -12 2 174.29 17.84
-6 -12 2 133.4 17.21
-6 12 2 90.17 15.59
-6 -12 -2 126.53 17.36
-6 12 -2 123.38 17.01
-6 13 2 -3.01 7.72
-6 13 -2 -2.67 3.48
6 13 2 3.46 5.42
6 13 -2 3.3 3.17
-6 13 -2 4.34 3.33
-6 13 2 -2.26 6.21
-6 -13 2 2.24 5.15
-6 -13 -2 5.03 4.89
-6 13 -2 2.4 4.66
-6 -13 2 3.4 4.9
-6 13 2 3.56 4.89
6 -13 2 6.54 4.71
6 -13 -2 1.5 3.9
-6 -13 -2 10.94 6.13
-6 13 -2 1.78 4.9
-6 14 -2 654.86 53.1
-6 14 2 762.03 55.8
6 14 -2 718.46 52.62
-6 14 2 567.76 56.21
-6 -14 2 600.06 56.63
-6 -14 -2 706.15 59.5
-6 14 -2 622.16 57.49
-6 14 -2 748.75 55.12
-6 -14 -2 669.81 55.59
-6 14 -2 610.29 54.68
6 -14 -2 795.08 55.66
-6 -14 2 606.74 54.14
-6 14 2 615.54 54.67
6 15 -2 1.18 3.55
-6 15 -2 -4.91 4.02
-6 15 2 -6.52 5.34
-6 -15 2 -2.17 4.62
-6 -15 -2 7.08 5.8
-6 15 -2 6.72 5.5
-6 -15 2 -3.22 4.64
-6 15 2 1.68 5.05
-6 -15 -2 -1.74 4.28
-6 15 -2 6.83 4.92
-6 16 2 327.09 34.81
-6 16 -2 339.57 35.3
-6 16 -2 433.74 35.36
-6 -16 -2 368.2 33.93
-6 -16 2 332.93 32.48
-6 17 2 -2.04 5.87
-6 0 3 2.97 2.72
-6 0 -3 2.19 2.77
6 0 3 1.28 3.33
-6 0 -3 -3.93 8.36
6 0 3 3.66 2.64
-6 0 -3 5.71 7.01
-6 1 3 97.83 11.01
-6 -1 3 93.59 10.82
6 1 3 109.4 12.54
-6 -1 -3 86.12 9.26
-6 1 -3 94.26 10.08
6 1 3 80.3 10.44
6 -1 3 83.82 11.39
-6 -1 -3 87.66 18.51
-6 1 -3 45.33 15.51
6 -1 3 92.14 10.52
-6 1 -3 66.92 14.95
-6 -2 3 47.6 7.2
-6 -2 -3 48.79 5.99
-6 2 -3 48.1 7.13
-6 2 3 39.19 7.07
6 2 3 38.13 6.89
6 2 -3 57.64 7.79
6 -2 3 46.93 8.1
6 2 3 54.23 8.89
-6 -2 -3 44.35 13.6
6 -2 3 50.53 7.39
-6 2 -3 24.21 9.28
-6 3 3 111.39 13.45
6 -3 3 140.15 15.05
-6 -3 3 130.84 13.68
-6 -3 -3 133.25 11.49
-6 3 -3 126.36 13.64
6 3 -3 133.52 13.46
6 3 3 128.42 13.82
-6 -3 -3 121.94 22
6 -3 3 133.64 13.81
-6 3 -3 103.96 18.06
6 4 -3 88.84 10.01
-6 4 3 98.72 11.14
-6 -4 3 93.42 10.44
-6 4 -3 63.68 9.41
-6 -4 -3 62.63 6.86
6 4 3 87.42 10.65
6 -4 3 85.07 11.17
-6 -4 -3 114.71 19.81
-6 4 -3 115.41 19.6
6 -4 3 74.33 9.85
-6 -4 -3 74.93 14.37
-6 4 -3 95.39 15.7
-6 -5 3 3.84 3
-6 5 -3 5.9 3.55
-6 5 3 2.28 2.8
6 5 3 3.41 2.96
6 -5 3 -1.26 3.63
6 5 -3 -1.79 2.69
-6 -5 -3 6.78 8.33
-6 5 -3 6.59 6.4
6 -5 3 -2.17 3.12
-6 -5 -3 -2.42 5.55
-6 5 -3 -2.41 5.92
-6 -6 3 4.81 3.34
-6 6 3 2.31 3.34
-6 6 -3 3.71 3.57
6 6 3 3.59 3.45
6 6 -3 0.89 2.2
-6 -6 -3 3.29 6.38
-6 6 -3 9.54 8.29
6 -6 3 5.69 3.7
-6 -6 -3 4.68 5.38
-6 6 -3 -2.32 4.52
-6 7 3 99.74 12.55
-6 -7 3 119.99 12.65
-6 7 -3 97.77 12.86
6 7 -3 106.31 11.89
6 7 3 135.88 14.26
-6 -7 -3 90.87 17.76
-6 7 -3 120.76 19.48
6 -7 3 97.91 12.63
-6 -7 -3 131.12 17.95
-6 7 -3 127.5 17.58
-6 8 3 12.17 4.81
-6 -8 3 16.25 4.25
-6 8 -3 8.87 4.22
6 8 3 14.51 5.08
6 8 -3 10.78 4.3
-6 -8 -3 6.06 7.5
-6 8 -3 34.92 10.76
6 -8 3 16.35 5.09
-6 -8 -3 10.93 6.9
-6 8 -3 21.6 8.01
-6 9 3 53.74 8.65
-6 9 -3 64.89 9.51
-6 -9 3 49.25 7.77
6 9 3 56.05 9.45
6 9 -3 47.23 7.39
-6 -9 -3 43.89 12.16
-6 9 -3 75.54 15.19
6 -9 3 41.14 8.01
-6 -9 -3 59.63 11.64
-6 9 -3 48.25 10.89
-6 10 3 24.63 5.88
-6 10 -3 24.07 6.17
-6 -10 3 17.89 5.33
6 10 3 16.08 5.68
6 10 -3 16.53 4.55
-6 10 -3 24.7 6.11
-6 -10 -3 28.24 9.26
-6 10 -3 5.38 6.73
6 -10 3 16.84 5.86
-6 -10 -3 22.84 7.54
-6 10 -3 16.21 6.47
-6 11 3 101.45 12.36
-6 11 -3 86.46 11.51
6 11 3 74.45 11.87
6 11 -3 62.74 9.14
-6 11 -3 64.59 10.59
-6 -11 -3 95.97 16.27
-6 11 -3 78.2 14.7
6 -11 3 81.67 11.82
-6 -11 3 54.94 11.84
-6 -11 -3 94.94 14.43
-6 11 -3 73.03 12.95
6 12 -3 253.68 22.31
-6 12 -3 278.2 24.79
-6 12 3 304.75 25.7
6 12 3 275.92 25.97
-6 12 3 223.13 27.4
-6 -12 3 204.32 26.33
-6 -12 -3 244.37 29.01
-6 12 -3 234.14 28.09
-6 12 -3 260.11 24.67
-6 -12 -3 214.98 25.42
6 -12 3 322.11 26.67
-6 12 -3 212.96 25.27
-6 -12 3 185.65 24.03
-6 12 3 212.11 25.28
-6 13 3 82.29 12.5
-6 13 -3 88.19 12.01
6 13 3 95.63 13.47
6 13 -3 82.3 10.28
-6 13 -3 68.02 11.27
-6 13 3 73.89 13.8
-6 -13 3 63.46 13.01
-6 -13 -3 100.3 16.4
-6 13 -3 92.5 15.34
-6 -13 3 64.66 12.23
6 -13 3 94.18 13.19
-6 13 3 72.17 12.81
-6 -13 -3 77.85 13.08
-6 13 -3 81.52 13.32
-6 14 -3 83.82 11.47
6 14 -3 58.49 8.71
-6 14 -3 72.21 11.42
-6 14 3 55.73 11.85
-6 -14 3 54.82 11.52
-6 -14 -3 84.86 14.63
-6 14 -3 50.02 11.68
-6 -14 3 47.31 10.03
-6 14 3 44.72 10.18
-6 -14 -3 65.47 11.64
-6 14 -3 62.88 11.24
6 15 -3 16.69 4.92
-6 15 -3 20.96 7.3
-6 15 3 2.16 5
-6 -15 3 8.53 5.89
-6 -15 -3 14.88 7.17
-6 15 -3 11.69 6.77
-6 -15 3 13.01 5.68
-6 15 3 1.72 4.28
-6 -15 -3 7.36 5.79
-6 15 -3 12.35 5.97
-6 16 3 58.67 11.7
-6 16 -3 61.81 12.52
-6 -16 3 39.4 9.15
-6 -16 -3 79.36 12.42
6 0 4 1510.14 102.66
-6 0 4 1498.24 101.14
-6 0 -4 1411.77 98.34
6 0 4 1422.46 100.12
-6 0 -4 934.98 109.85
-6 0 -4 977.44 106.64
6 0 4 1475.86 99.97
-6 1 4 55.14 8.26
-6 -1 -4 34 4.99
-6 -1 4 33.21 6.88
-6 1 -4 37.18 5.84
6 1 4 37.7 6.52
6 -1 4 48.09 8.53
6 1 4 35.77 7.89
-6 -1 -4 27.74 11.18
-6 1 -4 31.32 12.52
6 -1 4 42.58 6.83
-6 1 -4 29.55 10.89
6 2 4 477.14 36.3
-6 2 4 438.97 34.49
-6 -2 4 424.98 34.21
6 -2 4 412.61 35.31
-6 2 -4 455.03 33.52
6 2 4 377.98 33.44
-6 -2 -4 437.06 47.27
-6 2 -4 358.42 40.88
6 -2 4 372.86 33.07
-6 3 -4 21.95 5.19
-6 -3 4 10.71 4.34
-6 3 4 5.52 3.28
6 3 4 10.33 4.09
6 -3 4 6.38 4.08
6 3 4 18.84 5.66
-6 -3 -4 11.14 9.16
6 -3 4 21.89 4.96
-6 3 -4 24.66 8.94
-6 4 4 96.93 11.38
-6 4 -4 78.61 10.87
-6 -4 4 83.76 10.7
6 4 4 83.37 10.76
6 -4 4 82.31 11.38
6 4 4 83.84 11.72
-6 -4 -4 75.1 17.12
-6 4 -4 80.07 17.52
6 -4 4 74.37 10.13
-6 -4 -4 98.12 16.79
-6 4 -4 100.6 16.76
-6 5 -4 31.49 7.05
-6 -5 4 26.77 6.03
-6 5 4 29.99 6.36
6 5 4 20.44 5.62
6 5 -4 32.23 5.63
6 -5 4 42.06 7.79
6 5 4 32.84 7.13
-6 -5 -4 38.08 12.92
-6 5 -4 46.97 12.87
6 -5 4 30.29 6.08
-6 -5 -4 28.23 9.68
-6 5 -4 33.14 9.87
-6 6 -4 37.31 7.77
-6 -6 4 26.78 6.05
-6 6 4 22.58 5.9
-6 -6 4 30.22 4.59
6 6 4 27.33 6.25
6 6 -4 20.56 4.56
6 6 4 27.67 6.69
-6 -6 -4 3.35 6.06
-6 6 -4 35.56 12.03
6 -6 4 27.22 5.82
-6 -6 -4 34.55 9.49
-6 6 -4 24.57 8.7
-6 7 -4 10.91 5.75
-6 7 4 6.15 4.01
6 7 4 2.47 5.48
6 7 -4 0.78 2.65
6 7 4 5.63 4.07
-6 -7 -4 3.23 6.87
-6 7 -4 6.2 6.02
6 -7 4 4.77 3.6
-6 -7 -4 7.17 6.57
-6 7 -4 2.36 5.42
-6 8 4 737.09 56.79
6 8 -4 788.48 54.62
-6 8 -4 486.53 56.35
6 8 4 745.99 57.98
6 8 4 776.49 57.44
-6 -8 -4 811.46 67.38
-6 8 -4 716.58 65.2
-6 -8 -4 774.59 62.92
-6 8 -4 756.3 62.33
6 -8 4 777.61 57.07
-6 9 -4 18.82 6.77
-6 9 4 21.92 6.35
6 9 4 23.38 7.62
6 9 -4 34.08 6.65
-6 -9 -4 21.13 10.67
-6 9 -4 34.52 10.78
6 -9 4 52.12 8.44
-6 -9 -4 33.45 9.3
-6 9 -4 32.81 9.13
-6 10 4 995.57 73.63
6 10 -4 985.41 70.82
-6 10 -4 1050.19 76.54
6 10 4 1012.65 74.6
-6 -10 -4 1014.62 82.6
-6 10 -4 899.03 80.51
-6 -10 -4 835.8 76.7
-6 10 -4 893.82 77.13
6 -10 4 976.2 74
-6 11 4 14.88 6.19
-6 11 -4 19.05 6.8
6 11 4 21.74 6.82
6 11 -4 11.31 3.98
-6 -11 -4 20.24 8.76
-6 11 -4 27.4 9.57
6 -11 4 14.95 5.6
-6 -11 -4 10.74 6.54
-6 11 -4 12.39 6.3
-6 12 -4 437.25 35.82
6 12 4 377.8 34.12
-6 -12 -4 321.7 37.58
-6 12 -4 338.23 37.79
-6 12 -4 386.59 36.28
6 -12 4 341.67 33.18
-6 -12 -4 374.64 36.27
-6 13 -4 15.76 6.32
-6 13 -4 6.38 4
-6 -13 -4 13.73 7.95
-6 13 -4 15.53 8.15
-6 -13 -4 14.3 7.14
-6 13 -4 17.93 6.52
-6 -14 -4 15.9 8.79
-6 14 -4 24.9 8.56
-6 14 -4 38.34 9.14
-6 -14 4 26.49 8.16
-6 15 4 15.64 6.76
-6 -15 4 6.78 5.55
-6 16 4 10.69 6.23
-6 -16 4 16.23 6.37
-6 0 5 1.16 2.67
6 0 5 1.8 2.83
6 0 5 2.67 3.28
-6 0 -5 4.32 6.49
-6 0 -5 3.23 7.94
6 0 5 1.75 2.64
-6 1 5 85.1 10.96
-6 -1 5 83.82 10.9
6 -1 5 76.53 9.72
6 1 5 82.37 10.12
6 -1 5 95.23 12.15
6 1 5 88.02 11.75
-6 -1 -5 87.92 19.74
6 -1 5 81.15 9.99
6 1 5 85.29 9.77
-6 1 -5 91.4 17.39
-6 2 5 29.35 6.43
-6 2 -5 26.58 5.1
-6 -2 5 38.47 6.93
6 2 5 35.17 6.12
6 -2 5 44.68 7.98
6 2 5 25.95 6.45
-6 -2 -5 44.46 14.22
6 -2 5 35.9 6.27
-6 2 -5 36.34 11.07
-6 3 5 154.39 16.51
6 -3 5 151.28 16.83
-6 -3 5 166.08 16.86
6 3 5 170.01 17.77
-6 3 -5 143.23 14.92
6 3 5 149.09 15.84
-6 -3 5 177.82 15.1
-6 -3 -5 144.51 24.93
6 -3 5 149.15 15.67
-6 -3 -5 176.95 23.69
-6 3 -5 159.66 23.04
-6 4 5 -2.37 3.56
-6 4 -5 2.8 3.03
-6 -4 5 2.11 2.29
6 4 5 -1.07 3.21
6 -4 5 -1.28 2.72
6 4 5 1.39 2.96
-6 -4 -5 -3.83 7.43
-6 4 -5 3.72 7.22
6 -4 5 1.03 2.96
-6 -4 -5 11.38 7.41
-6 4 -5 2.84 6.05
-6 5 -5 2.07 2.98
-6 5 5 2.41 3.14
-6 -5 5 0.68 1.97
6 5 5 1.11 3.97
6 -5 5 3.86 3.53
6 5 5 4.23 3.68
-6 -5 -5 3.69 6.41
-6 5 -5 7.14 6.21
6 -5 5 4.3 3.24
-6 -5 -5 -2.74 4.77
-6 5 -5 2.73 5.81
-6 6 -5 31.98 6.83
-6 6 5 35.61 7.55
-6 -6 5 51.99 6.59
6 6 5 39.36 7.47
6 6 5 71.53 10.4
-6 -6 -5 46.26 13.81
-6 6 -5 54.83 13.65
6 -6 5 46.29 7.51
-6 -6 -5 64.64 13.37
-6 6 -5 39.32 11.1
-6 7 5 139.39 15.42
-6 7 -5 121.98 14.91
6 7 5 134.23 15.98
6 7 5 131.59 14.99
-6 -7 -5 146.12 23
-6 7 -5 163.62 23.87
6 -7 5 123.27 14.47
-6 -7 -5 119.44 19.15
-6 7 -5 153.87 20.6
-6 8 5 187.53 19.56
-6 8 -5 169.68 19.41
6 8 5 189.37 20.7
6 8 5 224.32 20.51
-6 -8 -5 200.85 27.6
-6 8 -5 185.35 25.9
6 -8 5 195.83 19.58
-6 -8 -5 184.09 24.01
-6 8 -5 187.03 23.73
-6 9 -5 34.83 8.4
-6 9 5 64.74 9.79
6 9 5 71.48 10.33
-6 -9 -5 67.47 15
-6 9 -5 61.18 13.83
-6 -9 -5 64.65 12.72
6 -9 5 61.55 9.58
-6 9 -5 49.41 11.3
-6 10 -5 1.55 3.58
6 10 5 7.43 4.84
-6 -10 -5 15.47 8.06
-6 10 -5 8.81 6.75
-6 10 -5 2.26 5.2
6 -10 5 4.28 3.73
-6 11 -5 43.28 8.75
-6 12 -5 19.25 6.52
6 0 6 281.55 26.02
-6 0 6 276.49 25.59
6 1 6 53.88 8.04
6 -1 6 57.47 9.43
6 1 6 78.44 10.77
-6 -1 6 74.7 8.64
-6 1 6 53.85 8.95
-6 -1 6 56.01 9.04
6 2 6 206.82 19.7
-6 -2 6 232.77 19.56
-6 2 6 192.8 20.52
-6 -2 6 221.16 21.08
6 -2 6 245.27 22.16
6 2 6 228.22 22
6 -2 6 191.55 19.08
-6 -3 6 25.51 5.59
6 3 6 14.11 4.56
6 -3 6 15.58 5.44
6 3 6 21.11 6.7
-6 3 6 18.88 5.61
6 -3 6 20.39 5.08
6 4 6 839.27 69.3
-6 -4 6 1016.84 68.87
6 -4 6 958.74 71.38
-6 4 6 951.92 71.1
6 4 6 970.2 72.2
6 -4 6 902.47 69.47
-6 -5 6 59.43 7.93
6 5 6 52.65 8.49
6 -5 6 54.23 9.3
6 5 6 37.65 8.6
-6 5 6 59.89 9.26
6 -5 6 45.91 7.66
6 6 6 455.02 40.11
-6 -6 6 573.46 39.37
-6 6 6 490.58 41.06
6 -6 6 469.26 40.1
6 7 6 3.75 3.78
6 -7 6 9.56 4.42
6 8 6 230.38 21.18
6 -8 6 175.82 19.61
6 -9 6 28.36 7.01
-6 10 -6 24.62 6.63
-6 0 7 -0.97 2.53
-6 -1 7 42.11 6.95
-6 -2 7 88.01 10.59
-6 -3 7 80.75 9.91
-6 -4 7 98.41 11.25
-6 -5 7 -0.92 2.25
6 5 7 -1.1 3.18
6 6 7 30.71 6.55
6 -6 7 14.64 4.99
6 -7 7 67.3 9.86
-6 0 8 819.14 61.89
-6 -1 8 40.75 7.17
-6 -2 8 226.61 20.97
-6 -3 8 18.24 4.65
-7 0 0 -1.27 5.75
7 0 0 1.32 3.23
-7 0 0 -4.06 7.05
-7 0 0 6.07 6.98
7 1 0 160.17 15.93
7 -1 0 140.98 15.51
-7 1 0 114.58 14.61
-7 -1 0 121.02 14.36
-7 -1 0 110.29 22.03
-7 1 0 104.27 20.1
-7 2 0 2.72 3.92
-7 -2 0 1.17 3.2
7 2 0 6.49 4.51
-7 -2 0 -7.64 14.06
-7 2 0 -2.89 11.22
7 3 0 546.43 39.14
-7 3 0 560.77 40.28
-7 3 0 495.36 50.21
-7 -3 0 532.27 51.12
-7 -3 0 452.74 44.91
-7 3 0 479.1 45.8
-7 4 0 -5.91 7.37
7 4 0 5.15 4.74
-7 4 0 -3.58 8.22
-7 -4 0 -3.58 8.22
-7 -4 0 2.65 6.91
-7 4 0 2.71 7.45
-7 5 0 981.31 76.31
7 5 0 1053.38 75.21
-7 5 0 913.37 84.87
-7 -5 0 930.97 85.09
-7 -5 0 1054.22 82.48
-7 5 0 946.26 81.31
-7 6 0 -4.82 6.98
7 6 0 6.42 4.73
-7 6 0 3.35 6.5
-7 -6 0 3.35 7.69
-7 -6 0 9.89 7.74
-7 6 0 2.54 6.61
7 7 0 283.78 25.52
-7 7 0 196.31 24.81
-7 7 0 271.45 33.15
-7 -7 0 290.93 33.87
-7 -7 0 303.1 30.69
-7 7 0 320.85 31.79
-7 8 0 -1.71 4.7
7 8 0 1.29 2.97
-7 -8 0 4.62 7.5
7 9 0 115.15 13.8
-7 9 0 100.1 14.64
-7 9 0 100.14 18.42
-7 -9 0 127.7 20.43
-7 -9 0 113.93 16.97
-7 9 0 98.78 16.54
7 10 0 -1.32 3.04
-7 10 0 -1.7 4.44
-7 -10 0 -4.37 5.02
-7 0 1 1.2 4.28
-7 0 -1 1.3 3.74
7 0 -1 1.26 2.69
7 0 1 2.73 3.14
-7 0 1 -4.02 8.55
-7 0 -1 4.15 9.52
-7 0 1 -3.07 7.55
-7 0 -1 6.18 7.58
-7 1 1 -6.16 6.5
-7 -1 1 1.13 4.52
-7 -1 -1 -2.31 4.71
-7 1 -1 -2.85 5.93
7 1 -1 4.95 3.4
7 -1 1 9.65 3.97
7 1 1 6.82 4.11
-7 -1 1 -3.89 11.7
-7 -1 -1 -12.07 12.59
-7 1 1 -3.02 10.48
-7 -2 1 237.27 21.96
7 2 -1 292.7 23.53
7 2 1 240.93 23.03
-7 -2 -1 195.27 20.83
7 -2 1 263.32 23.76
-7 2 -1 195.65 22.49
-7 2 1 286.4 23.64
-7 -2 1 203.27 30.79
-7 -2 -1 234.25 32.71
-7 2 1 193.22 28
-7 2 -1 217.49 28.87
-7 3 1 50.63 9.22
-7 -3 1 34.46 6.95
-7 3 -1 58.7 9.74
7 3 -1 53.38 8.36
7 3 1 54.16 8.91
-7 3 1 36.59 14.86
-7 -3 1 29.14 14.79
-7 3 -1 64.04 17.86
-7 -3 -1 49.27 16.06
-7 -3 1 36.08 12.87
-7 3 1 36.91 13.15
-7 -3 -1 39.35 14.12
-7 3 -1 14.25 11.72
-7 4 1 63.72 10.06
-7 -4 1 50.3 8.27
-7 4 -1 58.37 10.31
7 4 -1 53.55 8.59
7 4 1 56.72 9.22
-7 4 1 49.58 14.23
-7 -4 1 42.23 13.47
-7 4 -1 51.03 14.62
-7 -4 -1 55.05 15.06
-7 -4 1 42.9 12.64
-7 4 1 52.23 13.58
-7 -4 -1 73.48 14.45
-7 4 -1 46.91 12.53
-7 5 1 -1.37 3.95
-7 -5 1 -1.93 3.14
-7 5 -1 -3.04 4.58
7 5 -1 1.21 2.97
7 5 1 4.06 3.9
-7 -5 1 -10.26 15.15
-7 -5 1 -12.88 14.67
-7 5 -1 -10.76 13.41
-7 6 1 46.51 8.59
-7 6 -1 35.48 8.09
7 6 -1 33.74 6.84
7 6 1 40.62 7.85
-7 6 1 43.29 12.18
-7 -6 1 29.72 12.09
-7 6 -1 30.87 11.42
-7 -6 -1 34.64 12.29
-7 -6 1 54.69 12.28
-7 6 1 41.06 11.42
-7 -6 -1 20.52 9.52
-7 6 -1 36.44 10.9
-7 7 1 19.06 6.34
-7 7 -1 21.39 6.32
7 7 -1 22.95 5.56
7 7 1 21.7 5.99
-7 7 1 6.42 8.89
-7 -7 1 9.55 11.45
-7 -7 -1 16.79 10.57
-7 7 -1 6.64 9.62
-7 -7 1 -2.4 9.39
-7 7 1 17.35 8.68
7 -7 1 22.4 5.94
-7 -7 -1 22.16 9.86
-7 7 -1 10.09 9.36
7 8 -1 103.46 12.86
-7 8 -1 123.39 14.78
-7 8 1 124.25 15.02
7 8 1 95.81 12.86
-7 8 1 109.42 19.49
-7 -8 1 74.33 16.93
-7 8 -1 90.19 17.94
-7 -8 -1 117.37 20.02
-7 -8 1 80.99 15.81
-7 8 1 103.24 16.94
-7 -8 -1 95.27 16.83
-7 8 -1 99.19 16.79
-7 9 1 14.21 6
-7 9 -1 17.88 6.1
7 9 -1 14.7 4.79
-7 9 1 3.02 11.43
-7 9 -1 3.12 10.14
-7 -9 -1 -2.3 9.39
-7 -9 1 -2.22 9.66
7 10 -1 6.19 3.6
-7 10 -1 10.49 5.23
7 11 -1 88.14 11.84
-7 0 2 28.79 7.2
-7 0 -2 27.44 5.42
7 0 2 38.23 8.12
-7 0 2 24.25 12.81
-7 0 -2 25.65 13.01
-7 0 2 25.32 10.82
-7 0 -2 28.47 12.13
-7 1 2 1091.28 72.31
-7 -1 2 1078.99 71.86
7 -1 2 1045.36 73.42
7 1 2 989.87 73.01
-7 1 -2 940.65 70.29
-7 -1 2 746.31 81.55
-7 -1 -2 731.69 82.17
-7 1 -2 806.25 79.27
-7 1 2 704.98 77.78
-7 2 2 1.2 6.18
-7 -2 2 4.42 4.3
-7 2 -2 8.63 4.2
7 2 -2 5.77 3.89
7 2 2 9.88 5.35
-7 -2 2 -3.78 9.85
-7 -2 -2 -4.03 11.62
-7 2 2 6.02 7.85
-7 2 -2 -2.97 9.31
-7 3 2 166.46 16.44
7 3 2 136.63 16.21
-7 -3 2 154.95 15.47
-7 3 -2 110.2 14.42
7 3 -2 143.73 15.54
-7 3 2 173.14 25.62
-7 -3 2 142.34 23.99
-7 -3 -2 159.71 25.8
-7 3 -2 146.32 24.43
-7 -3 2 165.09 22.56
-7 3 2 148.99 22.34
-7 -3 -2 122.64 20.16
-7 3 -2 126.83 20.78
-7 4 2 5.08 4.16
-7 -4 2 6.32 3.58
-7 4 -2 5.13 3.73
7 4 -2 6.73 3.55
7 4 2 8.45 4.92
-7 4 2 17.8 10.72
-7 -4 2 10.55 8.1
-7 -4 -2 15.1 10.38
-7 4 -2 3.73 7.25
-7 -4 2 2.74 6.75
-7 4 2 11.3 7.38
-7 -4 -2 11.07 7.61
-7 4 -2 25.1 9.39
-7 5 2 55.68 9.05
-7 -5 2 41.99 7.29
-7 5 -2 34.98 7.48
7 5 -2 50.33 8.01
7 5 2 53.71 9.26
-7 5 2 61.91 15.28
-7 -5 2 61.06 15.07
-7 -5 -2 62.26 15.26
-7 5 -2 46.86 13.3
-7 -5 2 36.8 10.94
-7 5 2 38.27 11.34
7 -5 2 46.1 7.84
-7 -5 -2 56.29 12.73
-7 5 -2 56.72 12.6
-7 6 2 2.78 4.19
-7 -6 2 6.95 3.67
-7 6 -2 1.31 3.24
7 6 2 8.14 4.09
7 6 -2 7.85 3.91
7 6 2 4.25 3.7
-7 6 2 3.33 6.48
-7 -6 2 6.56 6.98
-7 -6 -2 10.61 8.13
-7 6 -2 3.48 6.75
-7 -6 2 -2.53 6.59
-7 6 2 2.63 7.22
7 -6 2 3.76 3.62
-7 -6 -2 2.58 5.01
-7 6 -2 10.37 7.47
7 7 -2 143.22 15.36
-7 7 -2 158.56 16.91
-7 7 2 136.42 16.18
7 7 2 147.3 16.66
-7 7 2 89.81 18.92
-7 7 -2 164.74 24.09
-7 -7 -2 202.04 22.93
7 -7 2 149.06 16.19
-7 -7 2 114.01 18.99
7 8 -2 4.48 4.77
-7 8 2 2.93 4.22
-7 8 -2 4.02 4.2
7 9 -2 915.12 67.23
-7 9 -2 858 68.01
7 10 -2 15.96 5.66
-7 10 -2 8.19 5.09
7 11 -2 480.12 39.46
7 12 -2 -2.36 3.69
-7 0 3 4.85 3.65
-7 0 -3 -4.4 6.62
-7 0 -3 -6.32 7.76
-7 1 3 31.71 6.74
-7 -1 3 34.25 6.86
-7 2 3 372.03 32.36
-7 -2 3 397.92 32.48
-7 2 -3 364.63 30.91
-7 3 3 2.53 4.11
-7 3 -3 5.35 3.61
-7 -3 3 1.13 3.26
7 4 3 94.23 12.02
-7 4 3 104.99 12.42
-7 4 -3 74.7 10.52
7 4 -3 84.17 10.69
-7 -4 3 93.05 11.23
7 -4 3 75.03 10.67
7 5 3 -5.17 4.05
7 5 -3 1.03 2.69
-7 5 3 -2.6 4.66
-7 5 -3 7.42 4.56
-7 -5 3 1.09 2.99
7 -5 3 3.59 3.6
7 6 3 48.17 8.77
7 6 -3 54.75 8.24
-7 6 3 66.77 9.84
-7 6 -3 33.54 7.64
-7 -6 3 51.14 8.18
7 -6 3 63.97 9.26
7 7 -3 116.16 12.46
-7 7 -3 75.74 12.08
7 8 -3 166.51 16.59
-7 8 -3 162.76 18.26
7 9 -3 48.22 7.76
-7 9 -3 41.43 8.43
7 10 -3 -2.06 3.1
-7 0 4 47.97 8.37
-7 -1 4 104.41 12.29
-7 1 4 82.68 11.5
-7 2 4 1.28 3.15
-7 -2 4 3.6 3.62
7 3 4 394.11 36.43
-7 3 4 455.49 37.89
-7 -3 4 489.03 37.74
7 -3 4 466.97 36.85
7 4 4 31.77 6.84
-7 -4 4 36.56 7.59
-7 4 4 26.45 6.78
7 -4 4 39.62 7.37
7 5 4 904 71.3
-7 -5 4 980.59 71.37
-7 5 -4 946.23 71.26
7 -5 4 945.85 71.08
-7 -6 4 19.88 5.53
-7 6 -4 32.7 7.2
-7 -7 4 311.28 26.37
-7 7 -4 261.24 26.74
-7 8 -4 -1.53 4.2
-7 9 -4 55.58 10.35
-7 -3 5 64.62 9.78
7 4 5 29.47 6.41
-7 -4 5 26.74 6.51
7 -4 5 36.69 6.67
-7 -5 5 3.82 4.14
-7 -6 5 19.05 5.77
-7 -7 5 1.27 3.65

_cod_database_fobs_code 2243687
