#------------------------------------------------------------------------------
#$Date: 2021-09-08 05:05:53 +0300 (Wed, 08 Sep 2021) $
#$Revision: 269046 $
#$URL: file:///home/coder/svn-repositories/cod/cif/2/24/39/2243909.cif $
#------------------------------------------------------------------------------
#
# This file is available in the Crystallography Open Database (COD),
# http://www.crystallography.net/. The original data for this entry
# were provided by IUCr Journals, http://journals.iucr.org/.
#
# The file may be used within the scientific community so long as
# proper attribution is given to the journal article from which the
# data were obtained.
#
data_2243909
loop_
_publ_author_name
'Turgunov, Kambarali'
'Ziyadullaev, Mirjalol'
'Khoshimov, Farkhod'
'Karimov, Rikhsiboy'
'Elmuradov, Burkhon'
_publ_section_title
;
 Crystal structures of 6-nitroquinazolin-4(3<i>H</i>)-one,
 6-aminoquinazolin-4(3<i>H</i>)-one and 4-aminoquinazoline
 hemihydrochloride dihydrate
;
_journal_issue                   10
_journal_name_full               'Acta Crystallographica Section E'
_journal_page_first
;
;
_journal_paper_doi               10.1107/S2056989021008823
_journal_volume                  77
_journal_year                    2021
_chemical_formula_iupac          'C8 H5 N3 O3'
_chemical_formula_moiety         'C8 H5 N3 O3'
_chemical_formula_sum            'C8 H5 N3 O3'
_chemical_formula_weight         191.15
_chemical_melting_point          560(2)
_chemical_name_systematic
;
6-Nitroquinazolin-4(3<i>H</i>)-one
;
_space_group_crystal_system      triclinic
_space_group_IT_number           2
_space_group_name_Hall           '-P 1'
_space_group_name_H-M_alt        'P -1'
_atom_sites_solution_hydrogens   mixed
_atom_sites_solution_primary     direct
_audit_creation_method           SHELXL-2014/7
_cell_angle_alpha                105.654(12)
_cell_angle_beta                 98.560(13)
_cell_angle_gamma                90.784(13)
_cell_formula_units_Z            2
_cell_length_a                   5.5587(9)
_cell_length_b                   8.6673(13)
_cell_length_c                   8.7649(12)
_cell_measurement_reflns_used    950
_cell_measurement_temperature    293(2)
_cell_measurement_theta_max      74.4730
_cell_measurement_theta_min      5.2610
_cell_volume                     401.45(11)
_computing_cell_refinement
;
CrysAlisPro (Rigaku OD, 2018)
;
_computing_data_collection
;
CrysAlisPro (Rigaku OD, 2018)
;
_computing_data_reduction
;
CrysAlisPro (Rigaku OD, 2018)
;
_computing_molecular_graphics
;
XP in SHELXTL (Sheldrick, 2008)
;
_computing_publication_material
;
publCIF (Westrip, 2010)
;
_computing_structure_refinement
;
<i>SHELXL2014/7</i> (Sheldrick, 2015b)
;
_computing_structure_solution
;
<i>SHELXT2018/2</i> (Sheldrick, 2015a)
;
_diffrn_ambient_temperature      293(2)
_diffrn_detector                 'CCD plate'
_diffrn_detector_area_resol_mean 10.2576
_diffrn_measured_fraction_theta_full 0.999
_diffrn_measured_fraction_theta_max 0.960
_diffrn_measurement_device       'four-circle diffractometer'
_diffrn_measurement_device_type  'Rigaku Xcalibur, Ruby'
_diffrn_measurement_method       '\w scans'
_diffrn_radiation_monochromator  graphite
_diffrn_radiation_probe          x-ray
_diffrn_radiation_type           CuK\a
_diffrn_radiation_wavelength     1.54184
_diffrn_reflns_av_R_equivalents  0.0237
_diffrn_reflns_av_unetI/netI     0.0458
_diffrn_reflns_limit_h_max       7
_diffrn_reflns_limit_h_min       -6
_diffrn_reflns_limit_k_max       10
_diffrn_reflns_limit_k_min       -7
_diffrn_reflns_limit_l_max       9
_diffrn_reflns_limit_l_min       -10
_diffrn_reflns_number            2652
_diffrn_reflns_theta_full        67.684
_diffrn_reflns_theta_max         76.251
_diffrn_reflns_theta_min         5.308
_diffrn_source                   'Enhance (Cu) X-ray Source'
_exptl_absorpt_coefficient_mu    1.073
_exptl_absorpt_correction_T_max  1.00000
_exptl_absorpt_correction_T_min  0.74240
_exptl_absorpt_correction_type   multi-scan
_exptl_absorpt_process_details
;
(CrysAlisPro; Rigaku OD, 2018)
;
_exptl_crystal_colour            colourless
_exptl_crystal_density_diffrn    1.581
_exptl_crystal_description       prism
_exptl_crystal_F_000             196
_exptl_crystal_size_max          0.45
_exptl_crystal_size_mid          0.30
_exptl_crystal_size_min          0.25
_refine_diff_density_max         0.181
_refine_diff_density_min         -0.173
_refine_ls_extinction_coef       0.012(3)
_refine_ls_extinction_expression Fc^*^=kFc[1+0.001xFc^2^\l^3^/sin(2\q)]^-1/4^
_refine_ls_extinction_method
;
SHELXL2014/7 (Sheldrick, 2015b)
;
_refine_ls_goodness_of_fit_ref   1.022
_refine_ls_hydrogen_treatment    mixed
_refine_ls_matrix_type           full
_refine_ls_number_parameters     132
_refine_ls_number_reflns         1598
_refine_ls_number_restraints     0
_refine_ls_restrained_S_all      1.022
_refine_ls_R_factor_all          0.0645
_refine_ls_R_factor_gt           0.0469
_refine_ls_shift/su_max          0.000
_refine_ls_shift/su_mean         0.000
_refine_ls_structure_factor_coef Fsqd
_refine_ls_weighting_details
'w=1/[\s^2^(Fo^2^)+(0.0615P)^2^] where P=(Fo^2^+2Fc^2^)/3'
_refine_ls_weighting_scheme      calc
_refine_ls_wR_factor_gt          0.1250
_refine_ls_wR_factor_ref         0.1453
_reflns_number_gt                1124
_reflns_number_total             1598
_reflns_threshold_expression     'I > 2\s(I)'
_cod_data_source_file            dj2030sup1.cif
_cod_data_source_block           I
_cod_database_code               2243909
_shelx_space_group_comment
;
The symmetry employed for this shelxl refinement is uniquely defined
by the following loop, which should always be used as a source of
symmetry information in preference to the above space-group names.
They are only intended as comments.
;
_shelx_hkl_file
;
  -1   1   0 859713. 8365.54   1
   1  -1   0 865048. 8292.51  22
   2  -2   0 8195.31 1205.96  22
   3  -3   0 14659.0 2074.38  22
  -4   4   0 394.697 256.181   4
  -4   4   0 287.902 210.016   6
   4  -4   0 114.079 238.730  22
  -5   5   0 901.600 333.445   4
  -6   5   0 17.1361 93.5731   4
  -5   4   0 271.356 196.200   4
  -4   3   0 1652.64 467.152   5
   4  -3   0 1377.09 405.587  13
   4  -3   0 2400.00 934.107  22
   3  -2   0 2887.13 864.228  22
  -2   1   0 73538.1 3192.13   1
  -1   0   0 558646. 5451.67   1
   0  -1   0 33038.0 1157.73  20
   0   1   0 32871.3 977.804   3
   0  -1   0 32666.4 1079.86  22
   1  -2   0 95979.3 3268.51  22
   2  -3   0 69163.7 3827.95  22
   3  -4   0-112.080 206.219  22
  -4   5   0 26671.6 1962.32   4
  -4   5   0 28037.7 1925.89   6
  -5   6   0 16979.1 1311.34   4
  -5   6   0 16465.7 1081.28   6
  -6   4   0 41.1034 88.8648   4
  -5   3   0 97.5650 139.336   5
   5  -3   0 72.9171 144.785  13
  -4   2   0 39693.3 2106.83   5
   4  -2   0 38858.9 3753.61  22
   3  -1   0 13668.0 1797.28  22
  -3   1   0 13705.6 1725.58   1
  -2   0   0 125859. 3830.71   1
  -1  -1   0 207586. 3350.72   1
   0  -2   0 402292. 5473.04  22
   0  -2   0 399127. 5716.94  20
   0   2   0 398144. 4812.63   3
   1  -3   0 81675.1 2098.23  21
  -1   3   0 79994.0 2223.70   3
   1  -3   0 76435.9 3346.85  22
   2  -4   0 2771.08 844.113  22
  -3   5   0 8637.04 1056.75   6
   3  -5   0 9001.66 1840.61  22
  -3   5   0 9574.55 1137.29   4
  -4   6   0 40402.4 2272.29   6
  -4   6   0 40195.9 2345.46   4
  -5   7   0-66.8469 90.4370  11
   6  -3   0 1106.87 287.341  13
  -6   3   0 1087.19 336.514   4
  -5   2   0 262.141 168.816   5
   5  -2   0 174.366 169.056  13
   4  -1   0 273.691 315.109  22
  -3   0   0 747.952 382.246   1
  -2  -1   0 402718. 6570.94   1
  -1  -2   0 132141. 3771.03  20
   0   3   0 137629. 3508.24   3
   0  -3   0 137395. 4252.69  20
   1  -4   0 753.910 407.827  22
   2  -5   0 10154.2 1741.58  22
  -3   6   0 761.638 344.447   4
  -3   6   0 584.932 312.859   6
  -4   7   0 270.008 191.381  11
  -4   7   0 81.3766 123.903   6
   6  -2   0 158.667 146.427  13
  -5   1   0-20.5496 95.0560   5
   4   0   0 8054.63 1612.38  22
  -3  -1   0-65.2871 115.085   1
  -2  -2   0 199916. 4718.99   1
   1   3   0 18625.2 1667.03   3
  -1  -3   0 17630.5 1648.86  20
   0   4   0 516.785 238.340   3
   0  -4   0 784.611 413.285  20
   1  -5   0 4565.03 1059.01  20
  -2   6   0 8067.12 1039.29   6
   2  -6   0 8750.53 1709.51  20
  -2   6   0 8463.24 1025.05  11
   2  -6   0 6849.43 1565.91  22
  -2   6   0 8106.84 1040.08   4
  -3   7   0 337.309 230.802   6
  -3   7   0 117.146 145.982  11
  -4   8   0 545.377 219.450   6
  -4   8   0 613.057 236.241  11
   6  -1   0 919.070 289.205  13
  -6   1   0 592.280 259.941   5
   5   0   0 3072.12 643.907  12
  -5   0   0 3665.28 657.484   5
   4   1   0-3.04438 350.221   3
   4   1   0-73.9733 115.320  12
   3   2   0 229271. 8364.05   3
   2   3   0 413932. 10049.1   3
  -2  -3   0 433148. 7510.89   1
  -1  -4   0 1889.27 664.805  20
   1   4   0 2830.43 739.339   3
   0   5   0 43240.6 2610.09   3
   0  -5   0 36281.4 3026.35  20
   1  -6   0 220.837 283.572  20
  -2   7   0 1722.01 513.055   6
  -2   7   0 1657.60 475.627  11
  -3   8   0 1734.59 464.541   6
  -3   8   0 1716.93 434.683  11
   6   0   0 578.046 291.640  13
  -6   0   0 424.000 174.027   5
   5   1   0 180.349 206.847  12
   5   1   0 206.051 192.293   9
   4   2   0 3500.50 665.597  12
   4   2   0 3762.92 749.087   8
   4   2   0 3142.35 1197.88   3
   3   3   0 21560.4 2781.89   3
   2   4   0 47167.2 3498.19   3
  -1  -5   0 4182.28 1094.77  20
   1   5   0 5398.66 1088.16   3
   0  -6   0-185.043 266.206  20
  -1   7   0 9909.79 1146.83  11
  -1   7   0 8245.33 1072.15   6
   1  -7   0 10003.6 1981.93  20
  -2   8   0 11109.0 1180.95  11
  -2   8   0 11567.6 1236.66  15
  -2   8   0 10508.7 1133.40  10
  -2   8   0 10951.2 1183.22   6
  -3   9   0 535.751 188.565  10
  -6  -1   0 9833.67 857.321   5
   6   1   0 10178.8 1065.97  13
   5   2   0-1.25013 91.6943  12
   4   3   0 354.338 425.869   3
   4   3   0 153.031 166.825  12
   4   3   0-123.676 238.689   8
   3   4   0 4410.99 1319.06   3
   3   4   0 5217.85 842.706  14
   2   5   0 2705.77 838.404   3
   1   6   0 3312.30 633.367  10
  -1  -6   0 2177.40 860.482  20
   1   6   0 2566.45 583.007  14
   0   7   0 1920.20 478.271   6
   0   7   0 1810.29 500.614  14
   0  -7   0 1446.20 747.506  20
   0   7   0 1643.20 446.627  10
  -1   8   0 5635.01 865.195  10
  -1   8   0 5103.97 827.434   6
  -2   9   0 3012.39 540.593  15
  -2   9   0 3004.21 539.341  10
   6   2   0 79.8083 103.600   9
   6   2   0-63.9880 119.344  13
   5   3   0 659.715 317.633   8
   5   3   0 78.4322 127.210  12
   4   4   0 3284.16 730.204   8
   4   4   0 3394.26 640.796  12
   3   5   0 129.899 180.540  14
   3   5   0 928.219 604.571   3
   2   6   0 19352.1 1664.43  14
   2   6   0 19318.5 2557.05   3
   1   7   0 32588.1 2243.19  14
   0   8   0 19137.8 1599.24  10
  -1   9   0 653.848 268.083  10
  -1   9   0 1288.53 369.785  15
   6   3   0 1233.46 314.806  13
   6   3   0 1472.88 363.846   9
   5   4   0 2011.96 440.967  12
   5   4   0 2048.78 529.209   8
   4   5   0 1631.63 527.838   8
   3   6   0 1142.30 424.094  14
   2   7   0 2557.40 650.489  14
   1   8   0 2479.75 624.631  14
   0   9   0 333.990 162.774  15
  -1  10   0 118.558 112.057  15
   6   4   0 918.230 182.398  13
   6   4   0 938.894 255.499   9
   5   5   0 6563.36 858.796   8
   4   6   0 5160.37 847.835   8
   3   7   0 5034.85 842.065  14
   2   8   0 6309.09 835.174  15
   2   8   0 5830.15 903.249  14
   1   9   0 358.020 203.310  14
   1   9   0 170.622 133.890  15
   0  10   0 4142.33 561.666  15
   5   6   0 31.5470 70.1800  19
   4   7   0 437.337 215.279   8
   3   8   0 1457.40 402.304   8
   2   9   0 11589.0 1043.14   8
   1  10   0 3901.78 459.764  15
   4   8   0 84.1014 88.4148   8
   3   9   0 97.2264 124.998   8
   2   9   1 4008.70 563.058   8
   3   8   1 548.061 237.923   8
   4   7   1 1649.41 384.979   8
   0  10   1 2491.13 374.923  15
   1   9   1 3090.09 526.357  14
   1   9   1 3061.43 542.496  15
   2   8   1 4676.48 692.878  15
   2   8   1 5208.55 800.823  14
   3   7   1 2580.70 588.123  14
   4   6   1 612.387 289.005   8
   5   5   1 96.6863 112.777   8
  -1  10   1 1724.56 314.183  15
   0   9   1 1374.74 389.317  15
   1   8   1 5268.31 859.494  14
   2   7   1 332.877 284.771  14
   3   6   1 15068.6 1504.34  14
   4   5   1 1698.70 429.366  12
   4   5   1 1856.32 477.318   8
   5   4   1 191.586 150.079  12
   5   4   1 352.094 219.085   8
   6   3   1 70.1317 119.207  13
  -1   9   1 1731.55 410.737  10
  -1   9   1 1998.07 470.727  15
   0   8   1-318.611 226.420  14
   0   8   1 71.8162 128.698  10
   1   7   1 38857.1 2406.85  14
   2   6   1 275846. 6378.48  14
   3   5   1 13855.1 1453.66  14
   4   4   1 3486.73 739.117   8
   4   4   1 3800.21 700.015  12
   5   3   1 599.570 317.301  12
   5   3   1 411.481 237.789   8
  -6  -2  -1-75.2016 59.4406   5
  -2   9   1 313.483 185.838  15
  -2   9   1 396.985 212.504  10
  -1   8   1 3476.64 689.813  10
   0   7   1 67.5407 283.610  14
   0   7   1-25.8043 105.246  10
  -1  -6  -1 38654.6 3731.13  20
   1   6   1 38573.9 2209.26  10
   1   6   1 37529.3 2247.64  14
   2   5   1 11441.2 1233.80  14
   2   5   1 10513.5 1821.16   3
   3   4   1 2207.73 950.249   3
   3   4   1 2207.48 564.674  14
   4   3   1 5221.05 1476.20   3
   4   3   1 5532.36 877.481  12
   4   3   1 5391.36 892.711   8
   5   2   1 1604.37 460.460  12
  -6  -1  -1 13236.5 999.514   5
  -3   9   1 1914.05 346.375  10
  -2   8   1 17371.6 1485.48   6
  -2   8   1 16919.6 1423.64  10
  -2   8   1 17115.4 1467.31  11
  -1   7   1 1646.91 486.528  11
  -1   7   1 2497.36 578.658   6
  -1   7   1 1669.46 493.310  10
   0   6   1 33167.6 2041.43  10
   0  -6  -1 31997.7 3349.70  20
   0   6   1 33330.5 2082.60  14
   0   6   1 34907.1 2011.88   6
  -1  -5  -1 6980.70 1472.49  20
   1   5   1 7002.99 1274.36   3
   2   4   1 37208.0 3299.45   3
  -2  -4  -1 36837.2 2949.97   1
   3   3   1 9854.20 1894.97   3
   4   2   1 499.085 271.068  12
   4   2   1 1314.47 758.632   3
   4   2   1 620.491 202.274   8
   5   1   1 6638.92 948.557   9
   5   1   1 5644.87 887.147  12
   6   0   1 13527.4 1180.56  13
  -6   0  -1 13340.0 1058.49   5
  -3   8   1 264.245 139.337  11
  -3   8   1 765.962 270.944   6
  -2   7   1-182.599 155.488   6
  -2   7   1 49.5454 93.0257  11
   1  -6  -1-793.021 518.810  20
  -1   6   1-34.8622 106.296   6
  -1   6   1-486.815 255.778  11
   0  -5  -1 118575. 5894.06  20
   1   4   1 6698.05 1144.37   3
  -1  -4  -1 5017.64 1100.35  20
  -2  -3  -1 963.029 468.312   1
  -3  -2  -1 7572.24 1308.45   1
   4   1   1 546.247 276.542  12
   5   0   1 36.5699 168.079  12
   6  -1   1 162.407 205.926  13
  -6   1  -1 222.312 121.312   5
  -4   8   1 1260.53 296.342  10
  -4   8   1 1311.04 304.764  11
  -3   7   1 1041.12 386.317  11
  -3   7   1 576.158 281.967   6
   2  -6  -1 1618.36 763.462  20
  -2   6   1 2194.78 582.113   6
  -2   6   1 1745.95 479.105  11
   1  -5  -1 1480.28 685.505  20
   0  -4  -1 69583.3 3905.22  20
   0   4   1 76525.5 2967.59   3
  -1  -3  -1 3741.08 856.647  20
   1   3   1 3482.27 773.588   3
  -2  -2  -1 20764.2 1824.72   1
  -3  -1  -1 1088.47 513.748   1
  -4   0  -1 3798.66 1062.82   1
   4   0   1 2820.24 596.863  12
  -5   1  -1 1272.15 424.806   5
   5  -1   1 1019.48 374.421  12
  -6   2  -1 61.3616 112.995   5
   6  -2   1 32.2613 122.250  13
  -4   7   1 3484.84 594.115   6
  -4   7   1 2601.25 546.789  11
  -3   6   1 11467.3 1245.17   6
  -3   6   1 10886.7 1223.76  11
  -3   6   1 10594.4 1248.78   4
   2  -5  -1 4462.22 1205.64  22
   2  -5  -1 5022.56 1266.69  20
   1  -4  -1 320175. 8290.68  20
   0  -3  -1 610083. 9765.67  20
   0   3   1 611519. 7363.05   3
  -1  -2  -1 80868.9 3280.66  20
  -2  -1  -1 7632.55 1056.25   1
  -3   0  -1 5504.10 1128.42   1
   4  -1   1 202.059 168.105  12
   4  -1   1 316.911 345.715  22
  -4   1  -1-535.429 417.802   1
  -5   2  -1 719.442 334.225   5
  -6   3  -1 189.614 134.939   4
   6  -3   1 362.681 171.971  13
  -5   7   1 77.1264 85.5157  11
  -4   6   1 1629.01 447.224   6
  -4   6   1 1121.79 410.585   4
  -3   5   1 4647.67 806.841   4
   3  -5  -1 4798.99 1349.14  22
  -3   5   1 4721.87 764.381   6
   2  -4  -1 14966.9 1999.33  22
   1  -3  -1 92316.2 2670.39  21
   1  -3  -1 88665.3 3766.69  22
   0  -2  -1 60565.1 1913.56   2
   0  -2  -1 60556.4 2536.51  20
  -1  -1  -1 64512.7 2479.62   1
  -2   0  -1 27334.3 2010.60   1
  -3   1  -1 35396.7 2910.78   1
  -4   2  -1 27749.0 1807.23   5
   4  -2   1 25836.3 3080.23  22
   4  -2   1 30381.1 1870.22  12
   5  -3   1 3736.39 705.097  13
  -5   3  -1 2987.61 640.557   5
  -6   4  -1 161.833 137.819   4
  -5   6   1 6626.39 790.294  11
  -4   5   1 68542.9 3117.35   4
  -4   5   1 71717.2 3003.91   6
   3  -4  -1 515.872 414.302  22
   2  -3  -1 357.226 242.253  21
   2  -3  -1 733.857 436.321  22
   1  -2  -1 2813.26 477.667  21
   1  -2  -1 2400.97 543.871  22
   0  -1  -1 114647. 2409.42   2
   0  -1  -1 114910. 2611.31  20
  -1   0  -1 100371. 2854.00   1
  -2   1  -1 37744.7 2447.57   1
   3  -2   1 35702.8 3091.27  22
  -3   2  -1 39331.7 3222.09   1
  -4   3  -1 7676.19 967.091   5
   4  -3   1 7875.17 1773.65  22
  -5   4  -1 4189.25 746.333   4
  -6   5  -1 85.1418 86.1160   4
  -5   5   1 3594.99 647.286   4
  -4   4   1 129.214 155.001   4
   4  -4  -1 471.593 436.510  22
  -4   4   1 154.512 159.031   6
   3  -3  -1 6384.43 1381.66  22
   2  -2  -1 51460.9 3052.43  22
   1  -1  -1 90722.1 2749.75  22
   0   0  -1 8526.41 405.307  20
   0   0  -1 8158.47 532.123   3
  -1   1  -1 44887.2 2023.42   1
  -2   2  -1 21225.9 1972.97   1
   3  -3   1 13342.5 1985.21  22
  -4   4  -1 2134.83 532.775   5
  -4   4  -1 2039.60 518.643   6
   4  -4   1 2331.83 944.098  22
  -5   5  -1 825.809 315.577   4
  -6   5   1 268.575 139.531  11
  -5   4   1 199.017 198.993   4
   5  -4  -1 8.04293 181.136  13
   4  -3  -1 22333.9 2897.31  22
   4  -3  -1 22493.9 1686.53  13
   3  -2  -1 34907.3 3003.88  22
   2  -1  -1 65684.3 3067.69  22
   1   0  -1 49760.2 1620.20  22
   1   0  -1 49083.8 1536.64   3
   0   1  -1 42078.9 1277.49   1
   0   1  -1 43702.2 1448.25   3
  -1   2  -1 91248.4 2793.27   3
   1  -2   1 88210.1 3071.97  22
  -1   2  -1 93128.5 3344.18   1
   2  -3   1 5681.46 1078.99  22
   3  -4   1 258.010 307.672  22
  -4   5  -1 2182.88 570.850   4
  -4   5  -1 1448.43 479.783   6
  -5   6  -1 25426.5 1381.08   6
  -5   6  -1 25771.4 1590.15   4
  -6   4   1 2807.64 485.167   4
   5  -3  -1 27.4103 93.9125  13
  -5   3   1-70.9543 142.912   4
   4  -2  -1 25678.0 2989.25  22
   4  -2  -1 27016.8 1854.54  13
  -4   2   1 26837.5 1743.43   5
   3  -1  -1 169963. 6252.34  22
   3  -1  -1 174309. 5149.87   3
   2   0  -1 110291. 3708.65  22
  -2   0   1 119840. 3295.80   1
   1   1  -1 89784.6 2622.69   3
   0  -2   1 112918. 2755.49  20
   0   2  -1 114235. 2947.35   3
   0   2  -1 114236. 1372.43   2
   0  -2   1 116975. 2459.62  22
  -1   3  -1 6980.69 856.305   3
   1  -3   1 7046.86 994.202  22
   2  -4   1 36485.8 3005.50  22
   3  -5   1 2719.35 972.868  22
  -3   5  -1 2329.01 560.673   6
  -3   5  -1 2583.04 578.989   4
  -4   6  -1 3237.87 650.783   6
  -4   6  -1 2997.61 637.479   4
  -5   7  -1 520.598 168.931   6
  -5   7  -1 435.048 185.491  11
  -6   3   1 937.415 299.516   4
   6  -3  -1 946.970 303.890  13
  -5   2   1 275.330 212.755   5
   5  -2  -1 256.531 194.332  13
   4  -1  -1 4088.46 1166.46  22
   3   0  -1 6544.80 1114.17   3
   3   0  -1 5641.69 1067.50  22
   2   1  -1 19187.9 1640.54   3
  -2  -1   1 19611.3 1108.72   1
   1   2  -1 2658.56 567.668   3
   0   3  -1 108108. 3406.49   3
   0  -3   1 110183. 3516.95  20
   0  -3   1 109659. 3055.51  22
  -1   4  -1 395108. 7068.91   3
   1  -4   1 390632. 8221.48  22
   2  -5   1 106457. 5482.27  22
  -3   6  -1 455.728 274.344   6
  -3   6  -1-30.7621 108.404   4
  -4   7  -1 2233.44 499.256  11
  -4   7  -1 2329.99 528.792   6
   6  -2  -1 4968.26 727.428  13
  -6   2   1 5493.15 750.625   4
   5  -1  -1 76.4437 110.227  13
  -5   1   1 11.2172 96.1336   5
   4   0  -1 14790.5 2135.20  22
   4   0  -1 13187.9 1927.51   3
   3   1  -1 13083.2 1729.42   3
   2   2  -1 1729.19 576.438   3
  -2  -2   1 1911.98 343.358   1
   1   3  -1 33852.4 2225.84   3
  -1  -3   1 31508.8 1989.67  20
   0  -4   1 2502.40 667.791  20
   0   4  -1 1779.32 595.319   3
   1  -5   1 31921.8 2621.73  22
   1  -5   1 31522.8 2708.84  20
  -2   6  -1 669.272 256.034   4
   2  -6   1 602.407 558.224  22
  -2   6  -1 123.439 162.060   6
   2  -6   1 397.749 363.955  20
  -3   7  -1 964.970 359.041  11
  -3   7  -1 1022.38 398.239   6
  -4   8  -1 457.933 195.768   6
  -4   8  -1-2.66825 75.3861  11
   6  -1  -1 3962.29 662.593  13
   5   0  -1 2198.29 556.830   9
  -5   0   1 2076.74 486.888   5
   4   1  -1 3514.45 995.702  22
   4   1  -1 3026.26 1016.48   3
   3   2  -1-111.653 255.325   3
   2   3  -1 100610. 4608.81   3
  -1  -4   1 12645.0 1525.08  20
   1   4  -1 12498.1 1526.52   3
   0  -5   1 1989.64 670.005  20
   0   5  -1 2437.60 647.399   3
   1  -6   1 50287.3 3885.59  20
  -2   7  -1-125.029 164.694  15
  -2   7  -1-360.525 244.845   6
  -2   7  -1 149.624 160.870  11
  -3   8  -1 169.168 111.613   6
  -3   8  -1 510.324 233.507  11
   6   0  -1 636.867 276.030  13
   5   1  -1 54223.9 2850.42   9
  -5  -1   1 53791.9 2405.92   5
   4   2  -1 10080.0 1112.57  12
   4   2  -1 10383.0 1891.44   3
   4   2  -1 10963.2 1254.55   8
   3   3  -1 1464.80 716.215   3
   2   4  -1 23400.8 2428.22   3
   1   5  -1 42981.7 3177.26   3
  -1  -5   1 39719.9 3159.10  20
   0  -6   1 6991.22 1473.57  20
  -1   7  -1 15229.8 1376.98  11
  -1   7  -1 13918.4 1371.89   6
   1  -7   1 15794.7 2406.63  20
  -2   8  -1 2872.21 619.852   6
  -2   8  -1 3270.51 670.049  15
  -2   8  -1 3106.17 605.682  11
  -2   8  -1 2890.50 613.562  10
  -3   9  -1 6565.61 726.204   6
   6   1  -1 37659.7 2004.55   9
   6   1  -1 36357.9 2060.89  13
   5   2  -1 46264.8 2624.39   9
   5   2  -1 45221.7 2470.37  12
   4   3  -1 2437.05 618.682   8
   4   3  -1 2268.19 520.100  12
   4   3  -1 1627.05 782.860   3
   3   4  -1 26785.5 3077.29   3
   2   5  -1 2673.87 915.936   3
   1   6  -1 18136.3 2259.12   3
  -1  -6   1 16980.1 2326.39  20
   0  -7   1 31496.7 3399.83  20
   0   7  -1 29191.3 1902.88  10
  -1   8  -1-84.8823 136.446  10
  -1   8  -1 190.982 143.574  15
  -2   9  -1 2617.85 508.315  15
  -2   9  -1 2227.83 450.708  10
  -2   9  -1 2329.88 498.288   6
   6   2  -1-227.361 168.911   9
   6   2  -1-236.389 168.642  13
   5   3  -1 286.816 201.994  12
   4   4  -1 3735.47 769.831   8
   4   4  -1 4886.04 772.223  12
   4   4  -1 5490.96 1479.46   3
   3   5  -1 18766.9 2642.51   3
   3   5  -1 18636.1 1664.96  14
   2   6  -1 24708.7 1866.88  14
   2   6  -1 25973.4 2977.92   3
   1   7  -1 366358. 7398.11  14
   0   8  -1 21903.2 1898.90  15
   0   8  -1 20698.5 1632.73  10
  -1   9  -1-2.36636 138.408  15
  -1   9  -1 132.539 139.433  10
  -1   9  -1 174.843 158.549   6
  -2  10  -1 463.074 151.211  15
   6   3  -1 1020.96 294.767  13
   6   3  -1 887.304 315.564   9
   5   4  -1 9.23500 105.938   8
   4   5  -1-23.6686 114.958   8
   3   6  -1 2208.84 565.201  14
   2   7  -1 30335.2 2027.07  15
   2   7  -1 25941.3 1983.61  14
   1   8  -1-85.7073 158.445  15
   1   8  -1-66.5839 139.820  14
   0   9  -1 5297.16 862.698  15
  -1  10  -1 1147.15 322.344  15
   6   4  -1 656.179 183.728  13
   6   4  -1 881.152 302.232   9
   5   5  -1 1307.97 401.758   8
   5   5  -1 1019.06 350.977  19
   4   6  -1 46.0737 159.453   8
   3   7  -1 1528.22 524.208   8
   2   8  -1 4246.50 712.375  15
   2   8  -1 4882.49 845.196  14
   1   9  -1 5912.91 879.078  15
   0  10  -1 3854.22 585.459  15
   6   5  -1 94.1773 60.2247   9
   5   6  -1-38.2350 84.3662  19
   4   7  -1 258.812 176.467   8
   3   8  -1 3079.53 594.370   8
   2   9  -1 947.220 301.762  15
   2   9  -1 1203.59 360.354   8
   1  10  -1 5192.78 625.527  15
   5   7  -1-28.6347 54.3989   9
   4   8  -1-86.6861 83.8315   8
   4   8  -1-2.61680 99.7815  19
   3   9  -1 6025.79 648.467   8
   2   9   2 2430.24 361.941   8
   3   8   2 4448.61 558.260   8
   4   7   2 344.699 167.340   8
   1   9   2 2888.97 436.825  15
   1   9   2 3721.14 511.263  14
   2   8   2-38.9551 188.308  14
   3   7   2 1980.71 487.360  14
   4   6   2 1673.56 405.927   8
   0   9   2 108.569 114.934  15
   0   9   2 193.146 122.142  14
   1   8   2-527.525 265.958  14
   2   7   2 770.582 319.735  14
   3   6   2 3521.26 713.607  14
   4   5   2 783.921 296.261  12
   4   5   2 644.944 314.961   8
   5   4   2 1639.49 369.360  12
   6   3   2 435.535 141.267  13
  -1   9   2 982.131 311.376  15
   0   8   2 1708.91 464.470  14
   0   8   2 1586.57 468.513  10
   1   7   2 19579.2 1704.79  14
   2   6   2 9149.41 1199.83  14
   3   5   2 3578.96 743.636  14
   3   5   2 3447.76 657.709  12
   4   4   2 426.394 241.340  12
   4   4   2 430.528 261.180   8
   5   3   2 727.079 267.099  12
  -6  -2  -2 54.6317 82.3320   5
  -2   9   2 3660.78 528.540  10
  -2   9   2 1641.71 337.800  15
  -1   8   2 5650.38 772.664  14
  -1   8   2 4629.88 764.772  10
   0   7   2 4477.13 807.136  14
   0   7   2 3910.57 732.133  10
   1   6   2 809.413 373.395  10
  -1  -6  -2 959.533 618.014   1
   1   6   2 444.868 267.397  14
   2   5   2 547.012 280.044  14
   3   4   2 2441.87 609.834  14
  -3  -4  -2 2573.92 598.761  18
   3   4   2 873.844 611.672   3
   4   3   2 2441.69 576.504   8
   4   3   2 1913.07 518.348  12
   5   2   2-17.2402 100.259  12
  -6  -1  -2 148.057 107.636   5
  -3   9   2 143.696 79.4881  10
  -2   8   2 1806.96 466.062  10
  -1   7   2 22600.2 1735.38  14
  -1   7   2 21464.9 1730.47  10
   0   6   2 9185.19 1121.10  10
   0  -6  -2 10860.4 2075.33  20
   0   6   2 10506.3 1194.07  14
   1   5   2-236.100 188.273  14
   1   5   2-623.688 280.493  10
  -2  -4  -2 2738.43 886.504   1
   2   4   2 2776.44 971.800   3
  -3  -3  -2 7679.90 1489.08   1
  -3  -3  -2 6703.80 900.987  18
   3   3   2 7341.08 964.148  14
   4   2   2 4786.36 1509.02   3
   4   2   2 5724.28 915.066  12
   5   1   2 372.676 238.976  12
  -6   0  -2 299.491 166.215   5
  -3   8   2 285.359 231.455  10
  -2   7   2 4241.81 791.095   6
  -2   7   2 3524.55 694.371  11
   1  -6  -2 5595.80 1522.59  20
  -1   6   2 5020.36 834.195   6
  -1   6   2 5100.88 827.462  14
  -1   6   2 4770.78 785.344  11
   0  -5  -2-32.8850 134.219  20
   1   4   2 27056.2 2426.32   3
  -1  -4  -2 23093.1 2554.18  20
  -2  -3  -2-527.749 363.220   1
  -3  -2  -2 137700. 6198.24   1
   4   1   2 36088.9 2231.80  12
   5   0   2 59.6504 182.262  12
  -6   1  -2 472.979 229.264   5
   6  -1   2 406.387 177.447  13
  -4   8   2 6765.97 616.632  10
  -3   7   2 875.716 311.368   6
  -3   7   2 868.338 364.524  11
   2  -6  -2 3619.67 1182.76  20
  -2   6   2 4323.98 811.245   6
  -2   6   2 3576.26 689.280  11
   1  -5  -2 14199.5 2099.67  20
   0  -4  -2 2386.90 773.452  20
  -1  -3  -2 1203.73 538.465  20
  -2  -2  -2 2583.34 741.578   1
  -3  -1  -2 34295.8 3055.36   1
  -4   0  -2-22.4831 105.490   1
   4   0   2 391.278 238.780  12
   5  -1   2 1316.07 415.345  12
  -5   1  -2 815.474 372.788   5
   6  -2   2-32.5137 79.0319  13
  -6   2  -2 3.66828 79.7313   5
  -4   7   2 2616.16 518.424  11
  -3   6   2 694.365 296.726   6
  -3   6   2 1270.85 430.019  11
   2  -5  -2 526.275 417.858  20
  -2   5   2 68.0843 118.769   6
  -2   5   2 104.706 97.2709  11
   1  -4  -2 13222.6 1796.63  20
   0  -3  -2 27342.3 1821.97   2
   0   3   2 30828.7 1791.11   3
   0  -3  -2 27121.3 2280.78  20
  -1  -2  -2 64364.2 3380.74   1
  -2  -1  -2 29657.4 2380.84   1
  -3   0  -2 59169.3 4025.99   1
   4  -1   2 72.7694 130.829  12
  -4   1  -2 90.9248 228.581   1
  -5   2  -2 592.854 305.099   5
  -6   3  -2-48.2094 92.9419   4
  -5   7   2 363.980 148.652  11
  -4   6   2 112.247 143.195   6
  -4   6   2 22.2897 197.747  11
  -3   5   2 100082. 3782.67   4
  -3   5   2 101300. 3518.03   6
   3  -5  -2 105457. 6362.29  20
   2  -4  -2 9686.02 1631.22  20
   2  -4  -2 10338.1 1717.13  22
   1  -3  -2 2829.65 715.852  20
   0  -2  -2 57187.9 2502.91   2
   0  -2  -2 58786.2 2825.67  20
  -1  -1  -2 216058. 5384.27   1
  -2   0  -2 68062.2 3590.71   1
  -3   1  -2 18164.5 2291.20   1
  -4   2  -2 3335.97 1157.77   1
   4  -2   2 3936.08 693.638  12
   4  -2   2 4127.41 1234.48  22
  -5   3  -2 5004.40 804.014   5
  -6   4  -2 100.684 142.587   4
  -5   6   2 77.5050 71.8381  11
  -4   5   2 85339.0 3144.87   6
  -4   5   2 78625.1 3333.71   4
   3  -4  -2 65748.8 4792.50  22
  -3   4   2 72479.6 2818.94   6
  -3   4   2 74089.0 3097.22   4
   2  -3  -2 4115.43 835.469  21
   2  -3  -2 3595.16 921.005  22
   1  -2  -2 142242. 4010.55  21
   1  -2  -2 135595. 4451.01  22
   0  -1  -2 54697.6 2288.21   2
   0  -1  -2 52729.2 2116.13  20
  -1   0  -2 52225.2 2482.43   1
  -2   1  -2 119135. 4798.94   1
  -3   2  -2 10735.5 1770.86   1
  -4   3  -2 1127.17 384.611   6
   4  -3   2 391.428 403.412  22
  -4   3  -2 595.873 268.893   5
  -5   4  -2 110.274 151.411   4
  -5   4  -2 86.6324 88.9808   5
  -6   5  -2 4.28434 91.1692   4
  -5   5   2 405.656 256.632   4
  -4   4   2 2537.12 590.755   4
   4  -4  -2 2393.74 578.910  13
   3  -3  -2 608.134 401.507  21
   3  -3  -2 122.845 216.233  22
   2  -2  -2 69872.8 3436.33  21
   2  -2  -2 67330.9 3529.57  22
   1  -1  -2 36263.6 1971.12  21
   1  -1  -2 36398.6 1943.97  22
   0   0  -2 999999. 9164.08   2
   0   0  -2 993824. 9154.59   1
  -2   2  -2 165781. 5850.67   1
  -3   3  -2 259.928 232.321   1
   3  -3   2 74.3980 172.889  22
  -4   4  -2 744.191 336.416   5
  -4   4  -2 510.377 282.832   6
  -5   5  -2 523.659 253.798   6
  -5   5  -2 293.912 197.801   4
  -6   5   2 90.3559 91.3163  11
  -5   4   2-166.651 169.232   4
   5  -4  -2 262.310 180.183  13
   4  -3  -2 3620.02 1143.10  22
   4  -3  -2 2920.62 621.396  13
   4  -3  -2 4255.57 1213.88  21
  -4   3   2 3196.86 665.207   4
   3  -2  -2 6814.63 1346.16  21
   3  -2  -2 7438.23 1407.37  22
   2  -1  -2 4553.68 453.506   3
   2  -1  -2 4189.96 800.646  22
   1   0  -2 103540. 3269.65  21
   1   0  -2 103606. 2440.94   3
   1   0  -2 105934. 2615.58  22
   0   1  -2 568547. 6372.15   2
   0   1  -2 572911. 6754.67   3
   0   1  -2 574303. 6040.67   1
  -1   2  -2 1379.34 451.283   1
   2  -3   2 27499.7 2445.94  22
  -2   3  -2 30184.4 2671.97   1
   3  -4   2 8814.63 1704.15  22
  -4   5  -2 207.445 139.964   4
  -4   5  -2 195.606 265.413   6
  -5   6  -2 6180.97 689.575   6
  -5   6  -2 7300.62 808.240   4
  -6   4   2 1233.73 298.521   4
  -5   3   2 97.3849 175.331   4
   5  -3  -2 73.0854 188.225  13
   4  -2  -2-374.019 377.515  22
   4  -2  -2 4.87546 66.8915  13
   3  -1  -2 150246. 5869.28  22
   2   0  -2 14648.8 1186.73   3
   2   0  -2 14539.9 1300.29  22
   1   1  -2 167188. 3920.68   3
   1   1  -2 171490. 3982.86  21
   1   1  -2 165910. 1617.75   1
   0   2  -2 116650. 2650.71   2
   0   2  -2 112762. 3479.01   3
   0  -2   2 118701. 2405.04  22
   0   2  -2 116325. 3007.28   1
  -1   3  -2 175730. 4997.67   3
  -1   3  -2 172608. 5414.99   1
   1  -3   2 178060. 4973.10  22
   2  -4   2 20064.1 2252.44  22
  -3   5  -2 1648.66 458.409   4
  -3   5  -2 1773.37 518.066   6
   3  -5   2 2030.52 838.915  22
  -4   6  -2 4694.82 776.289   6
  -4   6  -2 5189.54 806.953   4
  -5   7  -2 7233.12 600.358   6
   6  -3  -2 4049.43 581.964  13
  -6   3   2 4518.60 615.901   4
   5  -2  -2 1908.99 481.270  16
  -5   2   2 2562.24 579.965   4
   5  -2  -2 1839.91 516.800  13
   4  -1  -2 2434.35 569.917  13
   4  -1  -2 2554.86 875.011  22
   3   0  -2 1237.60 487.920  22
   3   0  -2 571.119 306.417   3
   2   1  -2 7910.00 999.981   3
   2   1  -2 7527.43 810.247  22
   1   2  -2 493080. 7664.92   3
   1   2  -2 497376. 6604.88  21
   0   3  -2 94044.6 2058.75   2
   0   3  -2 92394.2 3497.79   3
   0  -3   2 90871.1 2512.98  22
   0  -3   2 95136.3 3013.46  20
  -1   4  -2 88916.5 3874.68   3
   1  -4   2 87580.7 3814.80  22
   2  -5   2 8756.99 1580.69  22
  -3   6  -2 3824.63 718.517   4
  -3   6  -2 3829.57 738.520   6
  -4   7  -2 1099.79 310.554  11
  -4   7  -2 684.322 247.842   6
  -4   7  -2 744.155 285.757   4
   6  -2  -2 11176.8 1065.18  13
  -6   2   2 13186.2 1100.65   4
   5  -1  -2 189.743 208.766  13
   5  -1  -2 115.174 145.322   9
   4   0  -2-447.713 361.792  22
   3   1  -2 22189.3 2107.10   3
   3   1  -2 25165.2 2041.11  22
   2   2  -2 1538.67 309.763  22
   2   2  -2 1050.44 466.630   3
   1   3  -2 251683. 6384.05   3
   1   3  -2 259654. 4600.27  21
  -1  -3   2 260722. 5111.19  20
   0  -4   2 16939.4 1322.19  22
   0   4  -2 16656.3 1670.13   3
   0  -4   2 16880.4 1593.69  20
   1  -5   2 590.503 335.772  22
   1  -5   2 371.022 278.378  20
  -1   5  -2 572.915 338.534   3
  -2   6  -2 1134.52 434.077   6
   2  -6   2 1616.19 714.411  22
   2  -6   2 1858.03 795.629  20
  -2   6  -2 877.452 344.955  15
  -2   6  -2 1521.62 433.585   4
  -3   7  -2 1456.02 463.134   6
  -3   7  -2 2058.57 505.546   4
  -3   7  -2 1736.64 453.796  11
  -4   8  -2 49.6646 120.798   6
  -4   8  -2 363.151 148.913  11
  -6   1   2-108.780 123.894   4
   6  -1  -2 68.3590 122.130  13
   5   0  -2 4513.49 809.646  13
   5   0  -2 4591.19 806.400   9
   4   1  -2 19624.7 2346.73   3
   4   1  -2 18121.9 1533.16   9
   3   2  -2 387.549 319.450   3
   2   3  -2 448665. 9451.29   3
  -1  -4   2 395860. 7768.79  20
   1   4  -2 388470. 8679.17   3
   0   5  -2 1080.21 472.995   3
   0  -5   2 1922.47 625.526  20
   1  -6   2 21080.1 2505.61  20
  -2   7  -2 124.901 126.454  15
  -2   7  -2-85.8808 146.859   6
  -2   7  -2 349.794 214.497  11
  -3   8  -2-113.803 122.337  11
  -3   8  -2-198.218 176.506   6
  -4   9  -2 249.478 110.997   6
  -6   0   2 963.240 309.524   4
   6   0  -2 625.915 265.909  13
   5   1  -2 51.0264 121.981   9
   5   1  -2 659.461 299.400  13
   4   2  -2 312.085 199.120  12
   4   2  -2 310.886 222.460   8
   3   3  -2 5669.28 1262.98   3
   2   4  -2 28105.4 2741.67   3
   1   5  -2 75566.4 4312.97   3
  -1  -5   2 83307.0 4259.29  20
   0   6  -2 338.452 289.730   3
   0  -6   2 283.560 297.035  20
  -1   7  -2 198.369 192.790  15
  -1   7  -2 496.509 202.424   6
  -1   7  -2 605.885 273.208  11
  -2   8  -2 5304.53 843.994  15
  -2   8  -2 5559.85 812.704  11
  -2   8  -2 3985.00 718.344   6
  -3   9  -2 2960.75 488.230   6
   7   0  -2 179.099 96.4748  13
   6   1  -2 1077.10 354.024   9
   6   1  -2 770.302 304.141  13
   5   2  -2 18425.3 1625.27  13
   5   2  -2 18641.2 1662.06   9
   4   3  -2 5385.53 887.950   8
   4   3  -2 4292.40 1235.38   3
   4   3  -2 3980.22 674.616  12
   3   4  -2 430.197 407.527   3
   2   5  -2 3844.38 1065.65   3
  -1  -6   2 479.667 479.477  20
   1   6  -2 89.1835 170.440   3
   0   7  -2 9733.77 1224.10  15
   0  -7   2 6636.55 1503.07  20
   0   7  -2 10418.5 1085.35  10
  -1   8  -2-69.3840 126.560  15
  -1   8  -2 177.405 179.320   6
  -1   8  -2 423.214 241.880  10
  -2   9  -2 4164.77 664.977   6
  -2   9  -2 4380.53 686.459  15
   6   2  -2 1725.93 445.792  13
   6   2  -2 1522.73 427.802   9
   5   3  -2 112.234 113.987  13
   5   3  -2-96.6588 143.412   9
   4   4  -2 523.191 323.086   8
   4   4  -2 268.777 334.243   3
   3   5  -2 4763.66 852.590   8
   3   5  -2 5645.62 1503.16   3
   2   6  -2-865.311 546.671   3
   2   6  -2 80.7025 137.555  14
   1   7  -2 42163.8 2560.26  15
   1   7  -2 44594.8 3816.48   3
   0   8  -2 36378.4 2444.21  15
   0   8  -2 36960.3 2114.59  10
  -1   9  -2 7890.99 911.077   6
  -1   9  -2 7713.80 996.024  15
  -2  10  -2 433.751 152.254  15
   6   3  -2 87.4996 118.666   9
   6   3  -2 127.842 116.996  13
   5   4  -2 3282.68 598.415  13
   5   4  -2 3357.27 708.783   9
   4   5  -2 3829.59 795.752   8
   3   6  -2 179.906 188.357   8
   2   7  -2 879.842 367.683  14
   2   7  -2 907.947 307.548  15
   1   8  -2 1402.85 508.447  15
   0   9  -2 878.139 375.323  15
  -1  10  -2 149.180 86.1887  15
   6   4  -2 173.297 116.922   9
   5   5  -2 4308.65 754.295   9
   5   5  -2 5055.18 735.265  19
   4   6  -2 12119.4 1352.49   8
   3   7  -2 7996.38 1094.14   8
   2   8  -2 6871.20 940.387  15
   2   8  -2 7495.76 1025.03   8
   1   9  -2 5626.86 913.071  15
   0  10  -2 306.099 213.634  15
   6   5  -2 59.0855 86.0830   9
   5   6  -2 183.798 80.3006  19
   5   6  -2 250.256 189.598   9
   4   7  -2 29.8379 113.333   8
   3   8  -2 714.969 284.997   8
   2   9  -2 2070.09 457.569   8
   2   9  -2 2375.15 458.441  15
   1  10  -2 10370.7 952.075  15
   5   7  -2 1479.54 306.779   9
   5   7  -2 1948.29 320.313  19
   4   8  -2 11.7446 108.841  19
   4   8  -2-30.1292 91.0980   8
   4   8  -2-159.293 115.818   9
   3   9  -2 555.857 203.949   8
   3   9  -2 121.818 138.653  19
   2   8   3 829.078 249.234  14
   3   7   3 2475.84 461.430   8
   3   7   3 2611.43 459.302  14
   4   6   3 797.802 214.971   8
   0   9   3 3003.04 429.317  15
   1   8   3 865.765 305.088  14
   2   7   3 1032.90 322.585  14
   3   6   3 1299.66 412.924  14
   4   5   3 4111.48 630.951   8
   4   5   3 3824.69 568.950  12
   5   4   3 427.207 178.136  12
  -1   9   3-1.76732 64.1624  15
   0   8   3 3003.31 551.917  14
   1   7   3 177.029 150.633  14
   2   6   3 32729.8 2168.38  14
   3   5   3 121279. 4088.64  14
   4   4   3 4658.66 727.350   8
   4   4   3 3708.43 666.002  12
   5   3   3 254.078 148.270  12
   6   2   3 38.1379 57.4623  13
  -1   8   3 624.552 228.051  14
  -1   8   3 388.500 251.582  10
   0   7   3 2123.95 517.284  14
   0   7   3 2262.82 553.129  10
   1   6   3-35.4282 246.533  14
   2   5   3 25009.2 1925.89  14
  -2  -5  -3 28387.9 1844.83  18
   3   4   3 4045.90 756.386  14
  -3  -4  -3 4344.27 744.471  18
   4   3   3 732.234 316.254  12
   5   2   3 362.837 238.728  12
  -6  -1  -3 555.068 181.010   5
  -2   8   3 3422.47 571.201  10
  -1   7   3 21990.5 1679.68  14
  -1   7   3 20168.0 1629.13  10
   0   6   3 755.826 365.959  14
   0   6   3 893.018 350.826  10
  -1  -5  -3 17215.8 2611.99   1
   1   5   3 13751.3 1388.45  14
   1   5   3 14738.1 1388.75  10
  -2  -4  -3 1793.33 483.979  18
  -2  -4  -3 1147.11 633.282   1
   2   4   3 1400.87 418.565  14
   2   4   3 622.149 487.454   3
   3   3   3 14403.6 1366.30  14
  -3  -3  -3 11449.6 1247.66  18
  -3  -3  -3 13252.8 2228.05   1
   4   2   3 1036.39 411.334  12
   5   1   3 136.659 149.296  12
  -6   0  -3 1759.36 352.844   5
  -3   8   3 3860.60 530.605  10
  -2   7   3 2593.40 574.114  10
  -2   7   3 2908.90 573.366  14
  -1   6   3 178.892 177.541  14
  -1   6   3 194.124 180.999  10
   0   5   3-64.7834 118.351  14
   0   5   3 438.922 243.936  10
  -1  -4  -3 62289.9 4722.31   1
  -2  -3  -3 2034.21 790.664   1
  -3  -2  -3 1278.70 662.816   1
  -3  -2  -3 672.933 265.583  18
   4   1   3 794.947 338.569  12
   5   0   3-177.017 168.744  12
   6  -1   3 276.064 150.228  13
  -6   1  -3 239.478 141.989   5
  -3   7   3 4653.07 733.739  11
  -2   6   3 1115.43 393.910  14
  -2   6   3 1308.89 412.032  11
  -1   5   3 1599.38 442.979  14
   1  -5  -3 1850.40 788.269  20
  -1   5   3 1552.12 431.344  11
   0  -4  -3 304.423 297.465  20
  -1  -3  -3 37537.7 3287.69   1
  -2  -2  -3 1415.71 581.869   1
  -3  -1  -3 3840.01 1121.26   1
  -3  -1  -3 3602.97 638.451  18
  -4   0  -3-796.561 560.580   1
   4   0   3 168.002 147.267  12
   5  -1   3 238.593 192.131  12
  -6   2  -3 117.041 104.301   5
  -4   7   3 8.38853 125.649  11
  -3   6   3 8210.45 1059.99  11
  -2   5   3 30323.4 1987.34  11
  -2   5   3 26968.3 1858.05  14
   2  -5  -3 27616.0 3181.32  20
  -2   5   3 24771.7 1797.31   6
   1  -4  -3 10704.3 1741.09  20
   0  -3  -3 311861. 7349.64   2
   0  -3  -3 301445. 8233.37  20
  -1  -2  -3 235544. 7322.84   1
  -2  -1  -3 10436.2 1603.03   1
  -3   0  -3 4082.58 1148.12   1
  -4   1  -3 956.428 622.234   1
   4  -1   3 699.429 267.568  12
   5  -2   3 231.118 178.655  12
  -5   2  -3-31.0782 142.938   5
  -6   3  -3 197.886 124.314   4
  -4   6   3 1425.26 393.612  11
  -3   5   3 925.614 328.441   6
  -3   5   3 1447.68 457.765  11
   2  -4  -3 5756.89 1298.42  20
   1  -3  -3 15251.6 1616.34   2
   1  -3  -3 15204.2 1806.41  20
   0  -2  -3 70259.6 3347.24   2
   0  -2  -3 74601.5 3455.22  20
  -1  -1  -3 50294.6 3022.43   1
  -2   0  -3 4779.73 1059.32   1
  -3   1  -3 1029.39 442.488   1
  -4   2  -3 7547.94 976.964   6
   4  -2   3 6721.72 924.639  12
   4  -2   3 6132.82 1616.77  22
  -4   2  -3 7535.34 1749.62   1
  -5   3  -3 3364.07 633.852   5
  -6   4  -3 181.056 112.393   4
  -5   6   3-12.0695 116.715  11
  -4   5   3 15581.3 1414.58  11
  -3   4   3 104327. 3559.70   6
   3  -4  -3 105650. 3584.45  13
  -3   4   3 100965. 3711.52   4
   3  -4  -3 99621.0 5959.29  20
   2  -3  -3 1241.23 510.786  21
   2  -3  -3 1321.59 559.340  20
   1  -2  -3 5320.84 902.691  20
   0  -1  -3 1205.52 398.599   2
   0  -1  -3 1663.91 427.084  20
  -1   0  -3 19966.7 1790.71   1
  -2   1  -3 46928.3 3328.49   1
  -3   2  -3 4082.49 1200.81   1
  -4   3  -3 9990.96 1171.27   6
  -4   3  -3 9644.05 1106.99   5
  -5   4  -3 1253.88 382.782   4
  -5   4  -3 1099.52 358.423   5
  -5   5   3 6440.92 762.265  11
  -4   4   3 5146.37 852.024   4
   4  -4  -3 4430.97 739.828  13
   3  -3  -3 199.835 294.155  22
   3  -3  -3-285.601 307.354  21
   2  -2  -3 9299.00 1391.77  21
   2  -2  -3 8317.99 1351.27  22
   1  -1  -3 56300.1 2379.39  20
   1  -1  -3 54523.3 2826.10  21
   0   0  -3 42674.5 2369.27   2
   0   0  -3 42300.2 2273.55   1
  -1   1  -3 80275.8 3587.70   1
  -2   2  -3 35426.2 2977.05   1
   3  -3   3 1439.80 626.669  22
  -3   3  -3 1403.41 708.894   1
  -4   4  -3 1474.97 455.193   6
  -4   4  -3 1121.87 441.243   5
  -5   5  -3 142.840 159.361   4
  -5   5  -3 454.315 227.472   6
   5  -4  -3 689.883 269.334  13
  -5   4   3 942.216 328.198   4
  -4   3   3 557.795 284.275   4
   4  -3  -3 1057.94 338.152  16
   4  -3  -3 1058.51 409.057  13
   4  -3  -3 1809.75 833.154  22
   3  -2  -3 45747.8 3625.35  21
   3  -2  -3 46918.0 3584.66  22
   2  -1  -3 70453.3 3791.71  21
   2  -1  -3 70354.9 3424.72  22
   1   0  -3 26951.9 1546.36   3
   1   0  -3 29962.8 1238.13  20
   1   0  -3 26968.3 1923.65  21
   0   1  -3 7926.88 979.252   3
   0   1  -3 8891.20 1034.63   2
   0   1  -3 8736.35 946.806   1
  -1   2  -3 2256.73 652.647   1
  -2   3  -3 17531.2 2172.16   1
  -3   4  -3 2446.74 517.111   5
  -3   4  -3 1819.76 518.012   6
   3  -4   3 1176.72 644.085  22
  -4   5  -3 279.576 218.041   6
  -4   5  -3 257.370 183.758   4
  -5   6  -3 1562.72 326.623   4
  -5   6  -3 1050.18 285.107   6
  -6   4   3-5.46436 59.7714  11
   5  -3  -3 8633.48 948.087  16
   5  -3  -3 8707.95 1036.92  13
  -5   3   3 10247.4 1111.41   4
   4  -2  -3 341.524 216.391  16
   4  -2  -3-78.5941 178.753  13
   4  -2  -3 403.443 324.692  22
   4  -2  -3 444.421 428.449  21
  -4   2   3-156.160 151.670   4
   3  -1  -3 97810.4 4689.06  22
   3  -1  -3 89233.1 4986.77  21
   2   0  -3 385508. 6211.20   3
   2   0  -3 384478. 6822.63  22
   2   0  -3 368112. 8310.58  21
   1   1  -3 113841. 3745.07   3
   1   1  -3 112324. 3901.49  21
   1   1  -3 114160. 2571.04   1
   0   2  -3 47022.7 2269.07   2
   0   2  -3 45963.6 2211.48   1
   0   2  -3 45191.8 2513.00   3
   0  -2   3 43054.8 1084.57  20
  -1   3  -3 36448.8 2629.43   3
  -1   3  -3 37378.3 2660.81   1
  -2   4  -3 484.572 400.910   1
   2  -4   3 197.319 237.982  22
  -3   5  -3 8553.36 1113.62   6
   3  -5   3 9046.53 1805.58  22
  -3   5  -3 10831.4 1118.52   5
  -3   5  -3 7870.80 999.468   4
  -4   6  -3-197.062 165.161   4
  -4   6  -3 256.636 247.860   6
   6  -3  -3 240.461 128.735  13
  -5   2   3 1640.43 479.814   4
   5  -2  -3 1932.09 479.638  16
   5  -2  -3 1766.46 496.327  13
   4  -1  -3 500.991 266.762  13
   4  -1  -3 752.026 532.980  21
   4  -1  -3 393.675 263.772   9
   3   0  -3 10524.7 1671.20  21
   3   0  -3 12247.5 1494.20  22
   2   1  -3 18271.3 1158.28  22
   2   1  -3 17403.8 1573.08   3
   2   1  -3 16810.2 1738.12  21
   1   2  -3 33725.5 2045.73  21
   1   2  -3 33133.0 2157.95   3
   1   2  -3 29560.0 790.155   1
   0   3  -3 2877.46 566.718   2
   0   3  -3 2970.38 692.314   3
   0   3  -3 2643.18 617.727   1
   0  -3   3 2606.38 427.245  22
   0  -3   3 3071.28 482.191  20
  -1   4  -3 20470.2 2090.46   3
  -1   4  -3 21610.8 2202.14   1
   1  -4   3 21866.9 1956.50  22
   2  -5   3 75893.0 4748.53  22
  -3   6  -3 15572.1 1383.64   4
  -3   6  -3 13007.2 1371.56   6
  -4   7  -3 246.616 195.247   6
  -4   7  -3 249.081 121.482   4
   6  -2  -3 2998.25 477.997  16
   6  -2  -3 2250.07 475.082  13
   5  -1  -3 9618.46 1178.73  13
   4   0  -3 133.892 156.341  13
   4   0  -3 187.982 278.957  21
   4   0  -3 782.319 329.343   9
   3   1  -3 55972.9 3329.76   3
   3   1  -3 49143.6 3543.62  21
   2   2  -3 11699.9 1447.20   3
   2   2  -3 12493.0 1478.73  21
   1   3  -3 1250.08 520.818   3
   1   3  -3 761.891 318.114  21
   0   4  -3 8724.18 1331.75   3
   0  -4   3 10197.6 1128.83  20
  -1   5  -3 948.203 485.242   3
   1  -5   3 1101.13 432.035  22
  -2   6  -3 6237.72 912.235  15
  -2   6  -3 5511.50 892.558   6
   2  -6   3 7352.00 1528.16  20
  -3   7  -3 58.5450 116.367   6
  -3   7  -3-83.6502 125.334   4
  -4   8  -3 26.2230 72.4099   6
   6  -1  -3 1858.02 429.126  16
   6  -1  -3 2105.00 484.319  13
   5   0  -3 14011.1 1423.89  13
   5   0  -3 14508.6 1482.20   9
   4   1  -3 10578.9 1878.01  21
   4   1  -3 10293.8 1153.60  13
   4   1  -3 10810.4 1203.95   9
   3   2  -3 19474.8 2163.57   3
   3   2  -3 18934.6 2176.18  21
   2   3  -3 1765.09 557.133  21
   2   3  -3 958.046 501.143   3
   1   4  -3 134847. 5344.73   3
   0   5  -3 6946.76 1287.99   3
   0  -5   3 8311.57 1205.86  20
  -1   6  -3-56.9235 124.931   3
   1  -6   3 986.813 437.513  20
  -2   7  -3 6656.23 972.570  15
  -2   7  -3 6084.31 938.544   6
  -3   8  -3 72.0767 136.653   6
   6   0  -3 703.467 290.680  13
   5   1  -3 2533.49 613.408   9
   5   1  -3 2826.54 636.840  13
   4   2  -3 129528. 6293.92   3
   4   2  -3 120916. 3879.37  13
   4   2  -3 112898. 6343.72  21
   4   2  -3 119462. 4085.90   9
   3   3  -3 7430.15 1453.63   3
   3   3  -3 10844.5 1688.59  21
   2   4  -3 911.151 530.950   3
   1   5  -3 15960.5 2016.63   3
  -1  -5   3 18157.8 1799.18  20
   0   6  -3 14821.7 2069.10   3
  -1   7  -3 2562.24 557.617   7
  -1   7  -3 1811.31 540.641  15
  -1   7  -3 886.960 354.303   6
  -2   8  -3 1878.09 495.717  15
  -2   8  -3 1433.20 428.378   6
  -3   9  -3 1609.17 371.419   6
   6   1  -3 253.631 162.445  13
   5   2  -3 126898. 4167.41  13
   5   2  -3 123865. 4290.73   9
   4   3  -3 102055. 5995.72   3
   4   3  -3 99958.5 3502.67  13
   4   3  -3 107923. 6272.97  21
   4   3  -3 101321. 3619.46  19
   4   3  -3 99214.1 3884.24   8
   3   4  -3 1425.99 693.508   3
   2   5  -3 27357.5 2945.61   3
   1   6  -3-163.028 248.092   3
   0   7  -3 15191.7 1414.01   7
   0   7  -3 15075.5 1489.62  15
  -1   8  -3 11331.9 1315.42  15
  -1   8  -3 12612.9 1282.63   6
  -2   9  -3 23.3330 94.1480  15
  -2   9  -3-63.7976 108.815   6
   6   2  -3 5.14077 125.139   9
   6   2  -3 74.7656 93.9779  13
   5   3  -3 333.639 267.035   9
   5   3  -3 458.470 248.503  13
   4   4  -3 602.636 290.705   8
   4   4  -3 1387.75 500.415  19
   4   4  -3 1470.45 779.341   3
   3   5  -3 11387.9 1299.19   8
   3   5  -3 11205.1 2054.48   3
   2   6  -3 24271.4 1795.97   8
   2   6  -3 24272.9 2945.06   3
   2   6  -3 26105.3 1832.44  15
   1   7  -3 20909.9 1765.63  15
   1   7  -3 24694.9 2956.69   3
   0   8  -3 155069. 4974.60  15
  -1   9  -3 4791.55 789.680  15
  -1   9  -3 5494.12 748.692   6
  -2  10  -3-153.161 97.3181   6
   6   3  -3 355.718 250.717   9
   6   3  -3 334.605 160.580  13
   5   4  -3 3187.16 594.295  19
   5   4  -3 2521.11 598.976   9
   4   5  -3 130.406 170.807   8
   3   6  -3 7.00577 172.987   8
   2   7  -3 1589.10 496.917   8
   2   7  -3 1831.28 549.234  15
   1   8  -3 28285.2 2144.63  15
   0   9  -3 90.7589 263.128  15
  -1  10  -3 1655.05 386.159  15
   6   4  -3 1160.65 325.800   9
   5   5  -3 3577.00 606.939  19
   5   5  -3 3267.07 667.268   9
   4   6  -3 2331.75 597.665   8
   4   6  -3 2403.28 573.695  19
   3   7  -3 780.942 337.430   8
   2   8  -3 1561.49 450.553  15
   1   9  -3 1676.87 528.681  15
   0  10  -3 2776.04 552.363  15
   6   5  -3 2281.42 373.151   9
   5   6  -3 52.2581 173.048  19
   5   6  -3-23.0481 81.8565   9
   4   7  -3 131.088 183.028   8
   4   7  -3 146.697 89.3103  19
   4   7  -3 64.0514 121.473   9
   3   8  -3 867.309 299.290   8
   3   8  -3 406.302 220.427  19
   2   9  -3 2716.98 523.361  15
   2   9  -3 2455.69 515.141  19
   1  10  -3 179.383 139.277  15
   5   7  -3 451.943 168.017  19
   5   7  -3 382.941 162.797   9
   4   8  -3 356.102 204.742  19
   3   9  -3 110.949 120.809  19
   1   8   4 32.0854 74.9835  14
   2   7   4 134.559 157.819  14
   3   6   4 310.276 171.983   8
   3   6   4 252.639 160.399  14
   4   5   4 1406.62 300.364  12
   0   8   4 999.386 293.568  14
   1   7   4 702.109 294.793  14
   2   6   4 7148.36 957.211  14
   3   5   4 606.892 294.389  14
   3   5   4 1070.25 393.326  12
  -3  -5  -4 746.236 296.146  18
   4   4   4 188.569 178.481  12
   5   3   4 175.524 142.866  12
  -1   8   4 3642.61 514.537  14
   0   7   4 5975.85 844.842  14
  -1  -6  -4 1859.43 432.002  18
   1   6   4 1988.87 539.832  14
  -2  -5  -4-101.231 169.707  18
   2   5   4 196.461 209.282  14
   3   4   4-373.523 238.700  14
  -3  -4  -4 16.3079 87.0027  18
   4   3   4 662.919 293.330  12
   5   2   4 329.632 170.323  12
  -2   8   4-92.6142 101.261  10
  -1   7   4 3762.87 661.001  14
  -1   7   4 4120.99 661.915  10
   0   6   4 22290.5 1652.94  10
   0   6   4 19970.6 1691.24  14
   1   5   4 4644.94 826.173  14
  -2  -4  -4 395.231 240.574  18
   2   4   4 127.115 219.932  14
  -3  -3  -4 883.726 359.989  18
   4   2   4 162.837 172.636  12
   5   1   4 1002.18 359.657  12
  -2   7   4 113.155 125.769  14
  -2   7   4 233.811 189.539  10
  -1   6   4 3657.44 722.845  14
  -1   6   4 4229.26 747.303  10
   0   5   4 1899.25 531.635  14
   0   5   4 2220.04 509.664  10
   0  -5  -4 2124.33 940.584   1
  -1  -4  -4 558.040 478.157   1
   1   4   4 1200.27 404.798  14
   2   3   4 6029.95 858.921  14
  -2  -3  -4 4710.12 1315.18   1
  -2  -3  -4 5601.86 846.195  18
  -3  -2  -4 1681.98 810.649   1
  -3  -2  -4 316.758 183.700  18
   4   1   4 20637.1 1703.90  12
   5   0   4 3980.99 663.436  12
  -6   1  -4 134.143 73.9712   5
  -3   7   4 9118.28 886.253  10
  -2   6   4 693.969 295.152  14
  -1   5   4 5031.23 835.112  14
   1  -5  -4 7324.80 1648.37  20
  -1   5   4 5289.97 836.036  10
   0   4   4 6761.80 926.865  14
   0  -4  -4 6523.34 1446.31  20
  -1  -3  -4 356.758 349.751   1
  -2  -2  -4 206.208 163.208  18
  -2  -2  -4 40.0876 144.345   1
  -3  -1  -4 1085.67 644.017   1
  -3  -1  -4 474.250 261.351  18
   4   0   4 3964.30 742.854  12
  -5   1  -4 252.915 188.829   5
   5  -1   4 217.853 165.866  12
  -4   7   4 4619.53 487.560  10
  -3   6   4 7321.22 867.694  14
  -3   6   4 5885.16 839.042  11
   2  -5  -4 3160.08 628.433  17
  -2   5   4 2398.21 567.283  14
  -2   5   4 2184.03 550.142  11
   1  -4  -4 1710.41 448.447  17
  -1   4   4 656.012 292.062  14
  -1   4   4 1661.74 434.965  11
   1  -4  -4 1503.64 690.360  20
   0  -3  -4 4521.26 1030.25   2
   0  -3  -4 5041.94 1112.53  20
  -1  -2  -4 13263.9 1909.63   1
  -2  -1  -4 7807.19 1504.88   1
  -3   0  -4 1264.96 681.305   1
  -3   0  -4 1558.80 445.952  18
   4  -1   4 4048.11 744.789  12
  -5   2  -4 92.7267 92.5224   5
   5  -2   4 405.037 211.842  12
  -4   6   4 1060.76 303.628  11
  -3   5   4 639.791 286.078  14
  -3   5   4 734.521 328.020  11
   2  -4  -4 151593. 4401.72  17
  -2   4   4 150120. 4240.42  11
   2  -4  -4 160854. 7198.51  20
   1  -3  -4 3657.23 932.552   2
   1  -3  -4 2982.01 873.665  20
   0  -2  -4 1407.23 607.112   2
   0  -2  -4 2533.42 666.793  20
  -1  -1  -4 6137.69 1225.28   1
  -2   0  -4 35729.4 3170.29   1
  -3   1  -4 7150.89 956.162   6
  -3   1  -4 5514.18 1417.15   1
  -3   1  -4 5837.45 853.166  18
  -4   2  -4 748.338 319.524   6
   4  -2   4 1138.27 388.487  12
  -5   3  -4 790.776 278.397   5
  -4   5   4 215.750 242.310  11
  -3   4   4 182574. 4875.39  11
   3  -4  -4 183273. 5028.25  17
   2  -3  -4 110117. 5336.93  20
   1  -2  -4 5119.66 1064.61   2
   1  -2  -4 6011.45 1052.54  20
   0  -1  -4 48345.4 3285.07   1
   0  -1  -4 47911.3 3113.22   2
  -1   0  -4 3293.56 890.182   1
  -2   1  -4 23339.1 2599.55   1
  -3   2  -4 15728.6 1459.99   6
  -3   2  -4 14839.9 2381.19   1
  -4   3  -4 734.024 300.731   6
  -4   3  -4 631.600 299.094   5
  -5   4  -4 135.520 109.304   4
  -5   4  -4 428.384 194.935   6
  -5   4  -4 182.456 135.501   5
  -5   5   4 33.7648 89.0784  11
   4  -4  -4 818.930 324.226  17
  -4   4   4 867.340 386.769  11
   3  -3  -4 1789.85 471.724  16
   3  -3  -4 1431.43 665.636  21
   3  -3  -4 1439.06 458.168  13
   2  -2  -4 1075.24 524.557  21
   2  -2  -4 636.833 359.865  20
   1  -1  -4 74644.7 2933.20  20
   0   0  -4 14806.2 1709.04   2
   0   0  -4 14321.0 1572.00   1
  -1   1  -4 274117. 7550.31   1
  -2   2  -4 851566. 15881.2   1
  -3   3  -4 15534.4 1494.71   6
  -3   3  -4 14640.9 2420.82   1
  -4   4  -4 31.9785 111.005   6
  -4   4  -4 120.088 140.041   5
  -5   5  -4 193.696 125.655   4
  -5   5  -4-12.4532 75.7618   6
   5  -4  -4 508.345 215.766  17
  -5   4   4 283.260 212.033  11
   4  -3  -4-152.578 157.623  16
   4  -3  -4-200.412 183.847  13
  -4   3   4 12.2652 87.2887   4
   3  -2  -4 7624.89 955.775  16
   3  -2  -4 8623.46 1035.35  13
   3  -2  -4 8318.60 1597.14  21
   2  -1  -4 10942.6 1604.94  21
   1   0  -4 177.295 197.673   1
   1   0  -4 25.5608 148.901  21
   0   1  -4 25168.7 2128.14   2
   0   1  -4 26882.3 1986.76   1
  -1   2  -4 155439. 5754.78   1
  -2   3  -4 465.325 287.660   1
  -3   4  -4 3709.68 1223.09   1
  -3   4  -4 3979.25 784.585   6
   3  -4   4 4157.87 1252.42  22
  -3   4  -4 3833.79 667.511   5
  -4   5  -4 938.461 339.340   4
  -4   5  -4 798.839 334.784   6
  -5   6  -4 434.092 161.329   6
   5  -3  -4 5787.08 816.360  13
   4  -2  -4 380.070 177.391  16
   4  -2  -4 843.263 354.892  13
   3  -1  -4-37.4295 152.449  21
   2   0  -4 135245. 5594.36  21
   1   1  -4 406.660 215.332   1
   1   1  -4 510.021 288.666   3
   1   1  -4 643.685 377.762  21
   0   2  -4 36855.1 2491.33   2
   0   2  -4 37160.3 2637.08   3
   0   2  -4 37960.1 2365.34   1
  -1   3  -4 11511.6 1644.10   1
  -2   4  -4 26025.9 2967.32   1
   2  -4   4 24198.0 2612.61  22
  -3   5  -4 3168.06 682.732   6
  -4   6  -4 812.908 327.525   6
   6  -3  -4 164.718 110.738  17
   5  -2  -4 11510.3 1162.77  16
   5  -2  -4 12029.0 1248.90  13
   4  -1  -4 3238.73 693.340  16
   4  -1  -4 3528.87 712.084  13
   4  -1  -4 3879.43 1227.70  21
   3   0  -4 5339.33 1281.68  21
   2   1  -4 5729.39 957.685   3
   2   1  -4 4226.36 951.802  21
   1   2  -4 8021.22 1164.42  21
   1   2  -4 7712.08 1177.71   3
   0   3  -4 130396. 4561.02   2
   0   3  -4 128877. 5244.99   3
   0   3  -4 131371. 4469.25   1
  -1   4  -4 11834.1 1729.63   1
  -2   5  -4 19753.2 1651.17   6
  -3   6  -4 6439.07 974.643   6
  -4   7  -4 727.158 283.484   6
   6  -2  -4 2760.14 486.617  13
   5  -1  -4 29868.4 1974.70  16
   5  -1  -4 30876.4 2075.55  13
   4   0  -4 1152.88 404.689  13
   4   0  -4 884.780 580.390  21
   4   0  -4 1011.39 401.283   9
   3   1  -4 487.009 381.561  21
   2   2  -4 16453.2 1817.09   3
   2   2  -4 15991.6 1848.11  21
   1   3  -4 651.154 335.395   3
   0   4  -4 82210.5 4505.57   3
  -1   5  -4 2614.54 921.921   3
  -2   6  -4 26.7732 128.585   7
  -2   6  -4-144.663 162.288  15
  -2   6  -4 144.012 160.938   6
  -3   7  -4-69.2103 134.628   6
  -4   8  -4 174.526 112.321   6
   6  -1  -4 260.437 171.656  16
   6  -1  -4 435.330 203.236  13
   5   0  -4 1332.45 422.015  13
   4   1  -4 10718.4 1207.62  13
   4   1  -4 9882.67 1879.22  21
   4   1  -4 10953.4 1269.80   9
   3   2  -4 28621.4 2722.67   3
   3   2  -4 26308.9 2758.70  21
   2   3  -4 813.538 456.215   3
   2   3  -4 1114.45 437.784  21
   1   4  -4 257298. 8001.75   3
   0   5  -4 106428. 5480.92   3
  -1   6  -4-339.513 215.268   7
  -1   6  -4 240.675 195.589  15
  -1   6  -4-530.863 278.630   6
  -2   7  -4 5131.42 793.792   7
  -2   7  -4 4943.83 820.455  15
  -2   7  -4 4875.48 858.924   6
  -3   8  -4-20.0260 105.052   6
   6   0  -4 370.863 221.833  16
   6   0  -4 427.539 220.635  13
   5   1  -4 1736.47 489.311  13
   5   1  -4 1818.69 525.971   9
   4   2  -4 275.319 187.292   9
   4   2  -4-38.7707 134.590  13
   3   3  -4 121.372 204.301   3
   3   3  -4-122.282 188.499  21
   2   4  -4 444.088 358.207   3
   2   4  -4 864.641 414.958  21
   1   5  -4 18783.2 2343.96   3
   0   6  -4 33731.9 2053.36   7
   0   6  -4 33526.6 2114.21  15
   0   6  -4 34193.7 3300.98   3
  -1   7  -4 178.797 142.050   7
  -1   7  -4 63.3148 180.075  15
  -1   7  -4-11.3001 110.481   6
  -2   8  -4 203.529 243.029  15
  -2   8  -4 210.732 192.948   6
  -3   9  -4 1197.27 295.475   6
   6   1  -4 784.550 270.675  16
   6   1  -4 755.319 262.201  13
   5   2  -4 612.675 247.712  13
   5   2  -4 414.945 265.450   9
   4   3  -4 14224.8 2241.03   3
   4   3  -4 14601.8 1340.77  13
   4   3  -4 14361.3 1375.40  19
   4   3  -4 12504.2 2139.97  21
   4   3  -4 13256.7 1406.69   9
   3   4  -4 15942.6 1476.26   8
   3   4  -4 15003.1 1418.03  19
   3   4  -4 15608.1 2242.46   3
   2   5  -4 610.216 446.269   3
   1   6  -4 2366.52 565.315   7
   1   6  -4 2879.52 627.656  15
   1   6  -4 2422.94 883.053   3
   1   6  -4 3385.40 651.445  19
   0   7  -4 567.117 326.235  15
   0   7  -4 1086.22 614.414   3
   0   7  -4 414.730 233.706   7
  -1   8  -4 10442.6 1236.03  15
  -1   8  -4 9697.73 1091.92   6
  -2   9  -4 113.024 94.6899  15
  -2   9  -4 189.706 148.130   6
   6   2  -4 4288.50 618.931  13
   5   3  -4 3156.38 682.343   9
   5   3  -4 3179.94 610.844  13
   4   4  -4 1002.65 369.516  19
   4   4  -4 675.919 364.416   9
   3   5  -4 63.7251 178.240   3
   3   5  -4 320.427 167.059  19
   2   6  -4 2983.07 630.241  15
   2   6  -4 2084.24 873.819   3
   1   7  -4 558.409 263.789  15
   1   7  -4 260.776 321.800   3
   1   7  -4-45.7149 108.432  19
   0   8  -4 32384.0 2256.59  15
  -1   9  -4 19272.7 1543.59  15
  -1   9  -4 19816.4 1339.13   6
   6   3  -4-169.961 114.642  13
   6   3  -4-23.3350 130.745   9
   5   4  -4 383.473 240.520   9
   5   4  -4 617.212 281.330  19
   4   5  -4 2943.86 632.475  19
   4   5  -4 2748.55 621.936   9
   3   6  -4 5985.87 913.057   8
   3   6  -4 5275.42 900.782  19
   2   7  -4 210.811 219.302  15
   2   7  -4 320.413 227.623  19
   1   8  -4 894.702 376.758  15
   1   8  -4 393.095 237.026  19
   0   9  -4 395.380 265.980  15
  -1  10  -4 280.661 174.138  15
   6   4  -4 481.173 206.712   9
   5   5  -4 853.657 291.559  19
   5   5  -4 822.032 332.503   9
   4   6  -4 7462.39 990.265  19
   4   6  -4 7992.60 1005.67   9
   3   7  -4 18029.6 1538.88   8
   3   7  -4 15704.0 1511.50  19
   2   8  -4 5827.61 858.129  15
   2   8  -4 5855.65 894.921  19
   1   9  -4 3862.91 733.060  15
   0  10  -4 1752.99 411.669  15
   6   5  -4 198.667 93.5653  16
   5   6  -4 95.1551 88.1231  19
   5   6  -4 114.610 103.243   9
   4   7  -4 362.857 244.939  19
   4   7  -4 326.949 188.191   9
   3   8  -4-32.0371 124.141  19
   2   9  -4 1199.93 350.637  19
   2   9  -4 1002.68 312.158  15
   1  10  -4 1839.31 412.526  15
   5   7  -4 95.0859 76.0155   9
   5   7  -4 67.1026 82.8749  19
   4   8  -4 3124.22 521.202  19
   3   9  -4 41.3643 128.382  19
   1   7   5 1321.04 332.730  14
   2   6   5-90.9835 122.709  14
   3   5   5 11475.4 879.168  14
   3   5   5 11698.0 953.408  12
   4   4   5 21901.7 1209.49  12
   0   7   5 492.718 268.432  14
  -1  -6  -5 291.015 175.285  18
   1   6   5 324.494 255.440  14
  -2  -5  -5-110.092 148.636  18
   2   5   5 142.574 130.908  14
  -3  -4  -5 9128.53 987.285  18
   4   3   5 1109.27 332.154  12
   5   2   5 71.7706 84.5336  12
  -1   7   5 3423.33 559.917  14
   0   6   5 10038.5 1134.51  14
  -1  -5  -5 63.4801 161.947  18
   1   5   5 16.4629 137.181  14
  -2  -4  -5 1751.58 475.211  18
   2   4   5 1852.19 496.997  14
  -3  -3  -5 20.3986 184.026  18
   4   2   5 2347.71 527.811  12
   5   1   5 106.165 119.769  12
  -2   7   5 4605.84 579.834  14
  -2   7   5 4404.70 545.134  10
  -1   6   5 2311.95 529.267  14
  -1   6   5 2589.90 527.359  10
   0   5   5 402.584 277.210  14
   1   4   5 7.77303 113.526  14
   2   3   5 10756.4 1188.17  14
  -2  -3  -5 10010.2 1169.99  18
  -3  -2  -5 128.925 193.492  18
   4   1   5 472.912 245.515  12
   5   0   5 654.350 251.614  12
  -3   7   5 7955.69 609.059  10
  -2   6   5 6295.27 850.262  14
  -2   6   5 6785.42 847.040  10
  -1   5   5 1057.65 426.994  14
  -1   5   5 1067.16 362.117  10
   0   4   5 894.115 391.028  14
   0  -4  -5 1283.13 729.641   1
  -1  -3  -5 551.448 463.629   1
   1   3   5 252.266 205.613  14
  -2  -2  -5 7780.32 1732.43   1
  -2  -2  -5 7312.29 1008.96  18
  -3  -1  -5 145.325 195.881  18
   4   0   5 423.016 243.939  12
   5  -1   5 137.962 122.014  12
  -5   1  -5 233.989 162.674   5
  -3   6   5 153.598 132.833  14
  -3   6   5-0.82269 131.301  10
  -2   5   5 7714.28 1038.29  14
  -1   4   5 18444.6 1601.76  14
   0  -3  -5 5070.46 835.974  19
   0   3   5 5498.78 847.831  14
   0  -3  -5 4927.90 1335.14   1
  -1  -2  -5 78963.3 3120.81  19
  -1  -2  -5 74630.6 5054.95   1
  -2  -1  -5 34924.3 3559.81   1
  -2  -1  -5 36294.1 2149.61  18
  -3   0  -5 696.518 317.679  18
  -4   1  -5 502.983 321.201   6
   4  -1   5 822.736 330.925  12
  -5   2  -5 116.555 139.840   5
  -4   6   5-89.9026 146.604  10
  -3   5   5 2556.16 536.417  14
  -3   5   5 2811.02 559.646  11
   2  -4  -5 178.259 230.564  17
   1  -3  -5 1265.58 437.410  17
   1  -3  -5 1331.53 632.344   2
   1  -3  -5 1470.77 432.642  19
   0  -2  -5-115.956 215.611   1
   0  -2  -5 275.673 293.499   2
  -1  -1  -5 21388.7 2571.41   1
  -2   0  -5 10751.1 1927.13   1
  -2   0  -5 10743.6 1131.98  18
  -3   1  -5 467.969 579.602   1
  -3   1  -5-472.585 276.811   6
  -3   1  -5 251.296 193.223  18
  -4   2  -5-82.7418 137.799   6
  -5   3  -5 1024.12 284.156   5
  -4   5   5 216.479 143.337  14
   3  -4  -5 18790.4 1602.27  17
   2  -3  -5 67522.6 3029.83  17
   2  -3  -5 73530.8 4921.05   2
   1  -2  -5 2392.31 860.830   2
   0  -1  -5 3399.29 958.983   2
   0  -1  -5 4854.73 1155.82   1
  -1   0  -5 1784.76 669.080   1
  -2   1  -5 210.394 286.017   1
  -3   2  -5 12072.2 1334.10   6
  -3   2  -5 13349.6 2342.83   1
  -4   3  -5 482.738 283.066   6
  -4   3  -5 402.711 223.932   5
  -5   4  -5 1864.17 335.041   6
   4  -4  -5 9056.76 1031.50  17
   3  -3  -5 3157.64 670.525  17
   2  -2  -5 1484.00 433.872  17
   1  -1  -5 8439.88 1502.55   1
   1  -1  -5 7332.86 1414.93   2
   0   0  -5 9738.48 1605.27   2
   0   0  -5 9376.91 1487.80   1
  -1   1  -5 2712.63 860.569   1
  -2   2  -5 31700.8 3303.26   1
  -3   3  -5 9311.50 1181.54   6
  -3   3  -5 10139.1 2074.27   1
  -4   4  -5-184.648 175.094   6
  -4   4  -5 113.994 127.323   5
  -5   5  -5-22.0270 65.3364   6
   5  -4  -5 2662.57 454.374  17
   4  -3  -5 581.710 289.144  17
   3  -2  -5 2241.13 561.424  16
   3  -2  -5 2166.42 541.915  13
   3  -2  -5 3803.62 1080.67  21
   2  -1  -5 29560.6 2899.67  21
   1   0  -5 47878.1 3483.59   2
   1   0  -5 54538.4 3327.92   1
   0   1  -5 4319.52 1038.16   2
   0   1  -5 3498.86 850.286   1
  -1   2  -5 61.3108 162.873   1
  -2   3  -5 134.321 258.725   1
  -2   3  -5-65.8715 136.829   6
  -3   4  -5 1699.69 546.630   6
  -4   5  -5 337.188 193.359   6
   5  -3  -5 158.998 148.411  17
   4  -2  -5 13631.2 1358.11  16
   4  -2  -5 12550.2 1351.73  13
   3  -1  -5 300.025 158.876  16
   3  -1  -5 603.310 285.455  13
   3  -1  -5 762.213 516.105  21
   2   0  -5 103096. 5305.58  21
   1   1  -5 204528. 6443.40   3
   1   1  -5 205491. 5590.61   1
   0   2  -5 22873.2 2318.03   2
   0   2  -5 23695.1 2165.81   1
  -1   3  -5 5507.16 1247.08   1
  -2   4  -5 2560.48 963.515   1
  -2   4  -5 3510.41 713.739   6
  -3   5  -5 303.797 284.872   6
  -4   6  -5 1276.61 362.368   6
   5  -2  -5 232.259 177.435  16
   5  -2  -5 111.352 139.590  13
   4  -1  -5 1773.48 485.017  16
   4  -1  -5 1524.35 484.914  13
   3   0  -5 676.964 263.160  16
   3   0  -5 646.970 301.520  13
   3   0  -5 875.555 542.338  21
   2   1  -5 8451.12 1294.92   3
   2   1  -5 7263.69 1383.85  21
   1   2  -5 4921.27 1052.70   3
   0   3  -5 14947.7 1755.73   2
   0   3  -5 12745.6 1864.62   3
   0   3  -5 13960.0 1644.35   1
  -1   4  -5 2230.26 789.376   1
  -2   5  -5 548.068 296.183   6
  -3   6  -5 8414.10 1103.54   6
  -4   7  -5 973.489 285.715   6
   6  -2  -5-34.9788 85.8073  17
   5  -1  -5 1458.00 409.839  16
   5  -1  -5 2018.42 508.989  13
   4   0  -5 10505.0 1235.24  16
   4   0  -5 8837.14 1141.63  13
   4   0  -5 12283.1 2192.53  21
   3   1  -5 479.217 401.908  21
   2   2  -5 47308.9 3366.99   3
   2   2  -5 41413.2 3249.57  21
   1   3  -5 2156.89 689.909   2
   1   3  -5 1951.33 671.643   3
   0   4  -5 4839.22 1236.39   3
  -1   5  -5-54.4196 110.150  15
  -1   5  -5 110.538 227.429   6
  -2   6  -5 190.108 184.726  15
  -2   6  -5 136.065 239.163   7
  -2   6  -5 84.3861 144.917   6
  -3   7  -5 902.649 349.463   6
  -4   8  -5-93.8049 104.996   6
   6  -1  -5-53.7511 123.000  16
   6  -1  -5-17.9529 81.8929  13
   5   0  -5 5023.61 816.003  16
   5   0  -5 4348.65 765.556  13
   4   1  -5 22411.4 1762.95  13
   4   1  -5 20733.9 2833.39  21
   4   1  -5 23404.7 1900.47   9
   3   2  -5 12879.8 2036.41  21
   2   3  -5 19500.6 2350.89   3
   2   3  -5 20532.1 2280.75  21
   1   4  -5 1340.67 562.576   2
   1   4  -5 1241.73 568.905   3
   0   5  -5 37695.5 3530.76   3
  -1   6  -5 1318.35 426.064   7
  -1   6  -5 1625.73 465.371  15
  -1   6  -5 1372.17 433.033   6
  -2   7  -5-175.314 157.253   7
  -2   7  -5 52.4116 166.028  15
  -2   7  -5-91.2902 149.153   6
  -3   8  -5 359.361 195.143   6
   6   0  -5 900.468 282.053  16
   6   0  -5 671.825 246.276  13
   5   1  -5 979.919 387.055  13
   4   2  -5 7682.44 985.493  13
   4   2  -5 7381.03 1641.57  21
   4   2  -5 8146.06 1025.23  19
   4   2  -5 7170.42 1042.21   9
   3   3  -5 133776. 6462.26  21
   3   3  -5 133638. 4219.80  19
   3   3  -5 128426. 6438.21   3
   3   3  -5 135118. 4284.38   9
   2   4  -5 3849.29 1093.91   3
   1   5  -5 823.826 520.444   3
   0   6  -5 2362.68 563.426   7
   0   6  -5 2643.18 632.661  15
   0   6  -5 2031.67 848.377   3
  -1   7  -5 1963.73 549.802   7
  -1   7  -5 2321.70 604.752  15
  -1   7  -5 2649.97 607.318   6
  -2   8  -5 134.905 156.698   7
  -2   8  -5-32.0703 106.122  15
  -2   8  -5 49.2338 110.864   6
  -3   9  -5-47.8487 66.7795   6
   6   1  -5 163.527 105.742  16
   6   1  -5 151.477 108.727  13
   5   2  -5 1377.83 427.702  13
   5   2  -5 1105.86 426.826   9
   4   3  -5 213687. 5384.09  19
   4   3  -5 206283. 5650.67   9
   3   4  -5 95517.1 5819.63   3
   3   4  -5 95876.8 3712.63  19
   3   4  -5 101805. 3671.89   9
   2   5  -5 991.869 343.101   7
   2   5  -5 1539.62 463.123  15
   2   5  -5 1260.50 663.477   3
   2   5  -5 1303.14 421.758  19
   1   6  -5 6657.39 928.460   7
   1   6  -5 6030.53 936.813  15
   1   6  -5 5512.48 1464.89   3
   1   6  -5 6988.00 949.390  19
   0   7  -5-145.668 166.510   7
   0   7  -5 6.99615 106.732  15
  -1   8  -5 6032.82 874.216   7
  -1   8  -5 6893.54 970.347  15
  -1   8  -5 7009.30 895.657   6
  -2   9  -5 1748.72 360.899  15
  -2   9  -5 2633.49 454.281   6
   6   2  -5 2686.87 485.764  16
   6   2  -5 2756.42 456.336  13
   5   3  -5 211.176 159.220  13
   5   3  -5 5.14297 184.924   9
   4   4  -5 1059.65 400.365  19
   4   4  -5 1115.82 404.112   9
   3   5  -5 3854.12 1121.84   3
   3   5  -5 2414.15 618.522  19
   2   6  -5 6394.44 897.043   7
   2   6  -5 6938.50 988.003  15
   2   6  -5 5991.97 1523.48   3
   2   6  -5 6194.94 944.870  19
   1   7  -5 7586.07 1022.89   7
   1   7  -5 7471.07 1054.79  15
   1   7  -5 9328.11 1101.64  19
   0   8  -5 10670.9 1196.01   7
   0   8  -5 11450.5 1318.77  15
  -1   9  -5 35035.9 1983.33  15
   6   3  -5-66.6028 121.352  16
   5   4  -5 524.698 245.473  19
   5   4  -5 379.898 250.869   9
   4   5  -5 4089.42 742.457  19
   4   5  -5 3611.10 704.959   9
   3   6  -5 343.649 239.955  19
   2   7  -5 500.519 276.035  15
   2   7  -5-20.9757 97.8355  19
   1   8  -5 374.059 201.728  15
   0   9  -5 13043.8 1301.39  15
  -1  10  -5 15.1308 87.0566  15
   6   4  -5 2425.16 368.423  16
   5   5  -5 2970.61 531.549  19
   5   5  -5 2434.74 512.139   9
   4   6  -5 4232.65 730.976  19
   4   6  -5 5044.40 766.727   9
   3   7  -5 687.426 277.910  19
   2   8  -5 1213.48 407.848  15
   2   8  -5 1151.15 409.759  19
   1   9  -5 234.933 201.736  15
   0  10  -5 340.818 209.537  15
   5   6  -5 4249.59 572.937  19
   5   6  -5 3412.32 515.847   9
   4   7  -5 221.416 206.983  19
   3   8  -5 72.0110 161.424  19
   2   9  -5 345.385 205.522  15
   2   9  -5 413.419 197.114  19
   1  10  -5 469.718 190.162  15
   5   7  -5 483.246 139.812  19
   4   8  -5 526.044 192.344  19
   3   9  -5-2.76527 75.0340  19
   0   7   6 1041.39 247.013  14
   1   6   6 3996.69 564.109  14
  -1  -6  -6 2446.87 381.377  18
   2   5   6 766.043 247.856  14
  -2  -5  -6 473.331 193.621  18
   3   4   6-15.8817 111.167  12
   4   3   6 72.3434 85.4745  12
  -1   7   6-101.961 102.351  14
   0   6   6 3668.71 590.255  14
   0  -6  -6 4315.53 582.080  18
   1   5   6 11097.4 1107.85  14
  -1  -5  -6 10851.8 1057.30  18
  -2  -4  -6 1374.81 422.095  18
   2   4   6 1288.03 366.659  14
  -3  -3  -6-138.014 134.908  18
   4   2   6 33.6296 129.789  12
  -1   6   6 0.91351 170.283  14
   0   5   6 1835.76 478.690  14
  -1  -4  -6 247.207 220.647  18
   1   4   6 35.4441 113.158  14
  -2  -3  -6 193.074 179.270  18
  -3  -2  -6 480.589 255.933  18
   4   1   6 611.482 239.064  12
  -2   6   6 6209.43 741.504  14
  -1   5   6 434.107 247.018  14
   0   4   6 1694.33 491.424  14
   1   3   6 1185.75 400.361  14
  -2  -2  -6 948.307 399.567  18
  -3  -1  -6 57.5602 163.930  18
  -4   0  -6 437.667 211.970   6
   4   0   6 10.3058 85.5903  12
  -5   1  -6 492.809 144.173   5
  -3   6   6 3548.97 451.884  14
  -2   5   6 6888.22 907.453  14
  -1   4   6 1519.63 467.937  14
   0   3   6-29.0105 111.125  14
   1   2   6 437.142 247.926  14
  -1  -2  -6 545.356 458.868   1
  -2  -1  -6 1799.90 502.939  18
  -3   0  -6 442.821 263.108   6
  -3   0  -6 456.505 243.332  18
  -4   1  -6 83.0508 163.488   6
   4  -1   6 175.946 194.056  12
  -5   2  -6-161.185 89.7817   5
  -3   5   6 1078.57 332.459  14
  -2   4   6 2556.46 587.904  14
  -1   3   6 80726.4 3379.01  14
   1  -3  -6 77124.7 3286.08  19
   0  -2  -6 82.6014 225.875   1
   0   2   6 183.117 172.188  14
   0  -2  -6 268.333 224.628  19
  -1  -1  -6 740.256 539.810   1
  -1  -1  -6 671.984 336.501  19
  -2   0  -6-217.512 183.758  18
  -2   0  -6 347.000 392.044   1
  -3   1  -6 2897.61 656.899   6
  -3   1  -6 2838.89 639.685  18
  -4   2  -6 573.802 236.117   6
  -4   2  -6 272.441 126.628   5
  -4   5   6-62.2160 80.5235  14
   3  -4  -6 965.353 373.518  17
   2  -3  -6 190127. 5245.00  17
   2  -3  -6 195656. 4979.36  19
   1  -2  -6 56183.4 2791.36  17
   1  -2  -6 56990.0 4518.93   2
   1  -2  -6 54010.6 2702.43  19
   1  -2  -6 53015.3 4349.78   1
   0  -1  -6 261.220 305.822   1
   0  -1  -6 833.538 527.424   2
   0  -1  -6 1585.87 447.732  19
  -1   0  -6 3509.49 1107.95   1
  -1   0  -6 3798.00 662.506  19
  -2   1  -6 536.392 297.125  18
  -2   1  -6-730.069 544.095   1
  -3   2  -6 5448.70 916.272   6
  -4   3  -6 2240.67 525.609   6
  -4   3  -6 1885.62 425.144   5
   4  -4  -6 949.649 317.611  17
  -4   4   6 1209.90 332.742  14
   3  -3  -6 1132.89 396.326  17
   2  -2  -6 1642.65 465.578  17
   2  -2  -6 2248.71 756.957   2
   2  -2  -6 1521.23 444.016  19
   1  -1  -6 1787.75 489.728  17
   1  -1  -6 1059.51 607.767   2
   1  -1  -6 2007.45 788.810   1
   1  -1  -6 1772.93 476.207  19
   0   0  -6 11719.0 1951.87   2
   0   0  -6 10777.3 1790.93   1
  -1   1  -6 1192.26 637.285   1
  -2   2  -6 41907.1 4107.03   1
  -2   2  -6 46882.0 2331.47  18
  -3   3  -6 77043.0 3338.28   6
  -4   4  -6 1344.85 374.601   6
   4  -3  -6 565.129 264.776  17
   3  -2  -6 278.372 159.083  17
   2  -1  -6 7505.73 1008.00  17
   2  -1  -6 9163.27 1757.26   2
   2  -1  -6 8059.42 1017.85  19
   1   0  -6 3117.23 980.204   2
   1   0  -6 2883.02 827.708   1
   0   1  -6 1026.90 571.839   2
   0   1  -6 1415.14 612.343   1
  -1   2  -6 537.308 416.605   1
  -2   3  -6 23513.0 1852.96   6
  -2   3  -6 25361.6 3152.45   1
  -3   4  -6 598.467 304.913   6
  -4   5  -6 340.044 185.153   6
   5  -3  -6 330.195 171.667  17
   4  -2  -6 11599.0 1274.88  17
   3  -1  -6 1433.29 465.544  16
   3  -1  -6 1635.56 447.738  19
   2   0  -6 818.136 317.368  17
   2   0  -6 683.238 287.104  16
   2   0  -6 974.912 374.411  19
   1   1  -6 22624.7 2601.59   2
   0   2  -6 749.378 477.104   2
   0   2  -6 1344.44 582.996   1
  -1   3  -6 1541.58 443.893  15
  -1   3  -6 1356.88 659.705   1
  -1   3  -6 1468.99 472.857   6
  -2   4  -6-70.7738 168.313   1
  -2   4  -6 320.454 272.725   6
  -3   5  -6 1730.95 515.007   6
  -4   6  -6 541.873 225.775   6
   5  -2  -6 97.6224 88.0715  17
   4  -1  -6 16404.7 1514.54  16
   3   0  -6 4043.56 735.834  16
   3   0  -6 4771.12 814.575  13
   3   0  -6 4710.14 1341.22  21
   3   0  -6 5130.27 831.568  19
   2   1  -6 2642.45 599.546  19
   1   2  -6 413.989 361.649   2
   1   2  -6 1000.89 517.028   3
   0   3  -6 1892.01 711.848   2
  -1   4  -6 9976.23 1163.00  15
  -1   4  -6 9569.60 1148.48   6
  -2   5  -6 539.330 292.305   6
  -3   6  -6 2494.58 544.844   7
  -3   6  -6 2838.50 600.042   6
  -4   7  -6 1365.26 282.464   6
   5  -1  -6 6566.73 866.766  16
   4   0  -6 39328.3 2349.57  16
   4   0  -6 36992.9 2293.57  13
   3   1  -6 1522.87 446.317  16
   3   1  -6 1418.65 420.751  13
   3   1  -6 2330.74 906.477  21
   3   1  -6 1334.16 428.299  19
   2   2  -6 835.354 486.978   3
   2   2  -6 605.828 286.558  19
   1   3  -6 3287.34 935.449   2
   1   3  -6 3223.28 979.235   3
   0   4  -6 146.966 164.869  15
   0   4  -6-32.1285 181.305   3
  -1   5  -6 11335.4 1280.51  15
  -1   5  -6 10620.8 1212.54   6
  -2   6  -6 485.740 276.059  15
  -2   6  -6 472.104 263.937   7
  -2   6  -6-117.595 162.358   6
  -3   7  -6 167.786 153.904   6
   6  -1  -6 432.619 197.265  17
   5   0  -6 875.371 312.331  16
   5   0  -6 808.012 298.252  13
   4   1  -6 2864.96 654.121  16
   4   1  -6 3263.76 646.055  13
   4   1  -6 4065.53 720.566  19
   3   2  -6 5852.77 870.503  16
   3   2  -6 6198.77 854.657  13
   3   2  -6 4679.98 1302.37  21
   3   2  -6 5619.22 899.118  19
   2   3  -6 14961.0 1384.06  15
   2   3  -6 14204.2 2144.31   3
   2   3  -6 12553.6 1302.12  19
   1   4  -6 1159.07 401.747  15
   1   4  -6 2109.39 835.955   3
   1   4  -6 1228.10 397.857  19
   0   5  -6 51076.2 2786.22  15
   0   5  -6 51692.6 4420.62   3
  -1   6  -6 14637.4 1483.63  15
  -1   6  -6 14666.0 1425.58   6
  -2   7  -6 152.713 199.583   7
  -2   7  -6-20.8413 98.7959  15
  -2   7  -6-117.229 152.724   6
  -3   8  -6 502.747 200.026   6
   5   1  -6 332.980 179.314  16
   5   1  -6 833.479 307.079  13
   4   2  -6 1417.86 445.807  16
   4   2  -6 1752.92 492.821  13
   4   2  -6 2092.36 546.529  19
   3   3  -6 1000.14 333.281  16
   3   3  -6 684.531 484.472  21
   3   3  -6 1518.11 484.757   9
   3   3  -6 1211.56 418.861  19
   2   4  -6 349.199 220.335  15
   2   4  -6 139.667 238.942   3
   2   4  -6 764.289 342.284  19
   1   5  -6 420.283 268.134  15
   1   5  -6 544.261 275.152   7
   1   5  -6 1045.56 623.504   3
   1   5  -6 1293.16 405.623  19
   0   6  -6 6628.45 971.267   7
   0   6  -6 7019.05 1066.03  15
   0   6  -6 7054.81 1615.70   3
  -1   7  -6 5667.13 868.680   7
  -1   7  -6 6430.06 958.338  15
  -1   7  -6 6463.99 895.784   6
  -2   8  -6-124.593 197.864   7
  -2   8  -6-259.380 154.928  15
  -2   8  -6-72.2457 116.437   6
   6   1  -6 1099.62 287.844  16
   5   2  -6 492.636 226.610  16
   5   2  -6 569.762 248.007  13
   4   3  -6 190.267 188.443   9
   4   3  -6 47.0218 120.215  19
   3   4  -6 1756.90 520.389  19
   2   5  -6 10941.0 1145.87   7
   2   5  -6 11244.4 1265.31  15
   2   5  -6 12058.9 2088.71   3
   2   5  -6 10082.4 1201.21  19
   1   6  -6 349.725 255.601   7
   1   6  -6 538.831 328.779  15
   1   6  -6 605.846 288.885  19
   0   7  -6 1264.02 441.694   7
   0   7  -6 1285.36 487.209  15
  -1   8  -6 642.399 303.289   7
  -1   8  -6 572.572 261.581  15
  -1   8  -6 431.232 200.607   6
  -2   9  -6 3396.20 431.827   6
   6   2  -6 2131.77 402.379  16
   5   3  -6 3619.42 628.350  16
   4   4  -6 3697.78 721.440  19
   4   4  -6 3145.38 656.884   9
   3   5  -6 1223.31 405.255  19
   2   6  -6 669.608 301.590   7
   2   6  -6 460.079 270.227  15
   2   6  -6 371.351 190.487  19
   1   7  -6 106.530 136.400   7
   1   7  -6 338.389 239.600  15
   1   7  -6 518.429 259.874  19
   0   8  -6 653.689 297.585   7
   0   8  -6 426.966 278.990  15
  -1   9  -6 13967.3 1147.63  15
   6   3  -6 1171.27 259.491  16
   5   4  -6 4.19850 94.3169  16
   5   4  -6 278.767 178.620  19
   4   5  -6 894.340 364.458   9
   4   5  -6 609.851 321.954  19
   3   6  -6 678.326 274.145  19
   2   7  -6 5872.18 886.019  15
   2   7  -6 5788.42 865.221  19
   1   8  -6 102.208 177.102  15
   0   9  -6 172.028 169.158  15
  -1  10  -6-86.4838 74.2882  15
   5   5  -6 322.246 147.484  16
   5   5  -6 392.281 210.944  19
   4   6  -6 1899.93 481.911  19
   3   7  -6 5338.53 815.776  19
   2   8  -6 9396.81 1035.66  15
   2   8  -6 10168.9 1069.82  19
   1   9  -6 1536.27 424.324  15
   0  10  -6 462.138 190.840  15
   5   6  -6-246.843 138.193  19
   4   7  -6-40.3201 97.3604  19
   3   8  -6 266.902 158.628  19
   2   9  -6 47.7023 92.0303  15
   2   9  -6-326.436 158.849  19
   1  10  -6 498.298 201.483  15
   4   8  -6 241.267 132.573  19
   3   9  -6 1223.24 273.134  19
   0   6   7 726.944 196.023  14
  -1  -5  -7 1545.15 326.795  18
   1   5   7 1208.79 285.675  14
  -2  -4  -7 92.1790 133.871  18
   3   3   7 124.197 98.3241  12
  -1   6   7 2177.18 355.333  14
   1  -6  -7 2109.10 314.439  18
   0  -5  -7 558.673 214.261  18
   0   5   7 785.421 271.592  14
  -1  -4  -7-7.45702 159.143  18
   1   4   7 60.1788 111.177  14
  -2  -3  -7-39.1323 103.471  18
  -3  -2  -7 695.820 248.881   6
   4   1   7 59.3717 72.2835  12
  -2   6   7 5075.87 483.795  14
  -1   5   7 3121.40 554.710  14
   0   4   7 203.933 178.148  14
  -1  -3  -7-23.8438 114.875  18
   1   3   7 481.217 240.421  14
  -2  -2  -7 376.113 224.959  18
  -3  -1  -7 1307.62 378.590   6
  -3  -1  -7 1111.79 368.791  18
   4   0   7-70.6614 72.2956  12
  -2   5   7 125.851 128.817  14
  -1   4   7 3025.97 625.159  14
   0   3   7 7354.37 964.023  14
  -1  -2  -7 1332.93 384.361  18
  -2  -1  -7 12552.1 1311.36  18
  -3   0  -7 3814.02 722.187   6
  -4   1  -7-45.2359 102.211   6
  -4   1  -7-105.386 90.1953   5
  -3   5   7-25.0299 76.3508  14
  -2   4   7 1378.41 425.578  14
  -1   3   7 569.015 326.246  14
   0   2   7-13.0364 97.6446  14
   0  -2  -7-218.249 195.673  19
  -1  -1  -7 897.892 338.551  18
  -1  -1  -7 888.217 353.264  19
  -2   0  -7 4540.36 783.872  18
   3  -1   7 1869.95 464.836  12
  -3   1  -7 1315.11 399.196   6
  -4   2  -7-8.82058 113.711   6
  -3   4   7 551.475 240.277  14
   2  -3  -7 8611.94 1016.07  19
   1  -2  -7 14072.2 1415.30  19
   0   1   7 1770.50 476.885  14
   0  -1  -7 623.596 319.585  19
  -1   0  -7 967.186 315.678  18
  -1   0  -7 1207.17 413.029  19
  -2   1  -7 785.326 320.267  18
  -3   2  -7 102.604 159.986   6
  -4   3  -7 2721.85 486.950   6
  -4   4   7 3516.67 479.987  14
   3  -3  -7 4363.99 759.127  17
   2  -2  -7 1663.28 481.997  17
   2  -2  -7 1974.23 531.214  19
   1  -1  -7 1848.13 517.618  19
   0   0  -7 2202.07 931.992   2
   0   0  -7 3572.75 1141.59   1
   0   0  -7 3632.23 719.864  19
  -1   1  -7 687.627 356.704  18
  -1   1  -7 185.592 212.471  19
  -1   1  -7 768.446 560.116   1
  -2   2  -7 187.304 181.675   6
  -2   2  -7-236.271 154.008  18
  -3   3  -7 7833.66 1019.41   6
  -4   4  -7 1883.37 393.139   6
   4  -3  -7 4297.47 632.675  17
   3  -2  -7 319.263 253.646  17
   2  -1  -7 982.719 389.090  17
   2  -1  -7 1475.57 469.012  19
   1   0  -7 4779.37 792.666  17
   1   0  -7 5519.78 1436.84   2
   1   0  -7 5566.40 895.709  19
   0   1  -7 18291.1 2618.68   2
   0   1  -7 18348.5 1566.08  19
  -1   2  -7 495.359 453.417   1
  -1   2  -7 723.429 313.381  19
  -2   3  -7 150.970 247.419   6
  -3   4  -7 565.637 278.359   6
  -4   5  -7 117.303 104.141   6
   4  -2  -7 745.613 335.243  17
   3  -1  -7 9374.26 1184.33  17
   3  -1  -7 9591.25 1104.68  19
   2   0  -7-27.4905 152.080  17
   2   0  -7 414.232 401.468   2
   2   0  -7-169.791 180.522  19
   1   1  -7 43128.0 2322.09  17
   1   1  -7 39231.4 3783.96   2
   1   1  -7 36531.5 2248.36  19
   0   2  -7 39844.0 3758.58   2
   0   2  -7 47918.4 2511.95  19
  -1   3  -7 2091.68 614.500   6
  -2   4  -7 283.436 243.487   6
  -3   5  -7-11.6010 107.851   6
  -4   6  -7 34.6075 79.2216   6
   5  -2  -7 1986.93 405.329  17
   4  -1  -7 91.0459 164.547  17
   3   0  -7 603.185 302.934  17
   3   0  -7 549.812 266.732  19
   2   1  -7 1074.77 381.658  17
   2   1  -7 603.394 315.102  19
   1   2  -7 1451.42 720.249   2
   1   2  -7 1360.33 426.898  19
   0   3  -7 33.0964 143.726  15
   0   3  -7-56.6823 112.220  19
  -1   4  -7 1841.76 531.548  15
  -1   4  -7 1519.90 496.434   6
  -2   5  -7-44.5032 121.926   6
  -3   6  -7-159.264 129.020   7
  -3   6  -7 129.056 142.855   6
   5  -1  -7-52.7361 106.809  17
   4   0  -7 242.846 210.200  17
   4   0  -7 518.156 289.613  16
   3   1  -7 3786.19 722.892  17
   3   1  -7 4011.28 744.713  16
   3   1  -7 4693.06 825.228  19
   2   2  -7 1737.20 798.116   2
   2   2  -7 277.123 204.733  19
   1   3  -7 7717.00 1580.58   2
   1   3  -7 7812.19 1080.67  15
   1   3  -7 8391.01 1071.07  19
   0   4  -7 16.9815 107.352  15
   0   4  -7 87.8382 138.988   6
   0   4  -7 431.530 241.734  19
  -1   5  -7 2802.98 633.989  15
  -1   5  -7 2596.13 612.332   6
  -2   6  -7 191.195 109.965   7
  -2   6  -7 52.8875 120.030   6
  -3   7  -7 226.568 142.223   6
   5   0  -7 101.434 126.395  17
   4   1  -7 4077.51 745.367  16
   4   1  -7 3920.83 705.376  19
   3   2  -7 17144.5 1493.62  16
   3   2  -7 15580.9 1522.79  19
   2   3  -7 5217.97 1300.31   2
   2   3  -7 5922.05 944.142  19
   1   4  -7 3801.11 769.395  15
   1   4  -7 3525.72 1188.78   3
   1   4  -7 4349.64 792.213  19
   0   5  -7 476.824 328.144  15
  -1   6  -7 5576.89 899.181  15
  -1   6  -7 6144.28 906.851   6
  -2   7  -7 174.978 213.329   7
  -2   7  -7 92.3906 125.050   6
   5   1  -7 1389.14 386.704  16
   4   2  -7 107.940 131.844  16
   4   2  -7 1026.24 363.611  19
   3   3  -7 10429.1 1123.29  16
   3   3  -7 10417.9 1254.67  19
   2   4  -7 61849.0 2974.02  15
   2   4  -7 58700.9 2965.75  19
   1   5  -7 574.907 304.183  15
   1   5  -7 1047.52 387.073   7
   1   5  -7 1123.96 424.724  19
   0   6  -7 14.0983 112.224  15
   0   6  -7 253.820 207.217   7
  -1   7  -7 201.125 211.521  15
  -1   7  -7-41.4475 136.265   7
  -1   7  -7 325.233 203.459   6
  -2   8  -7-143.239 191.668   7
  -2   8  -7 72.2628 96.1876   6
   5   2  -7 856.701 292.588  16
   4   3  -7 2027.93 475.824  16
   4   3  -7 2569.84 583.629  19
   3   4  -7 144147. 4643.50  19
   2   5  -7 45312.9 2295.27   7
   2   5  -7 39086.9 2405.04  15
   2   5  -7 40039.4 2410.29  19
   1   6  -7 406.085 200.185   7
   1   6  -7 198.493 222.438  15
   1   6  -7 672.926 304.985  19
   0   7  -7 440.526 279.594   7
   0   7  -7 109.676 205.336  15
  -1   8  -7-68.7209 90.7375   7
  -1   8  -7-14.2924 100.808  15
   5   3  -7 3113.41 513.104  16
   4   4  -7 213.420 154.343  16
   4   4  -7 222.743 188.121  19
   3   5  -7 262.166 210.876  19
   2   6  -7 1425.54 396.420   7
   2   6  -7 1400.36 440.243  15
   2   6  -7 1612.63 488.432  19
   1   7  -7 1692.06 475.398   7
   1   7  -7 1718.23 502.770  15
   1   7  -7 1884.35 464.136  19
   0   8  -7 1182.45 337.927   7
   0   8  -7 692.529 252.640  15
  -1   9  -7 2760.26 440.986  15
   5   4  -7 49.1344 69.0528  16
   5   4  -7 289.660 153.954  19
   4   5  -7 142.526 166.775  19
   3   6  -7 2073.08 522.632  19
   2   7  -7 331.703 188.584  15
   2   7  -7 346.294 218.431  19
   1   8  -7 768.810 314.821  15
   0   9  -7 11.5202 103.116  15
   5   5  -7 3709.92 478.780  19
   4   6  -7 1543.35 401.361  19
   3   7  -7 3217.75 577.929  19
   2   8  -7 187.300 126.538  15
   2   8  -7 99.0543 187.808  19
   1   9  -7 1013.39 342.306  15
   4   7  -7 2914.16 460.384  19
   3   8  -7 244.215 142.483  19
   2   9  -7-29.8652 94.6736  15
  -1  -4  -8 445.103 175.895  18
  -2  -3  -8-232.325 128.705   6
  -2  -3  -8 69.2384 59.3468  18
  -1   5   8 1479.37 264.676  14
   1  -5  -8 1425.04 255.668  18
   0  -4  -8 286.725 163.084  18
   0   4   8 266.293 163.465  14
  -1  -3  -8 148.063 144.786  18
  -2  -2  -8 23.7633 115.346  18
   3   1   8 387.486 177.821  12
  -3  -1  -8 220.752 145.043   6
  -1   4   8 3689.06 553.655  14
   0  -3  -8 435.511 232.564  18
   0   3   8 237.735 180.527  14
  -1  -2  -8 280.833 217.416  18
  -2  -1  -8-67.1255 115.547  18
   3   0   8 106.379 81.4857  12
  -3   0  -8 221.790 153.826   6
  -2   4   8 112.679 136.682  14
  -1   3   8 4475.60 697.781  14
   0   2   8 31848.3 1820.96  14
  -1  -1  -8 50.2193 148.231  18
  -2   0  -8 49.4274 77.7354  18
  -3   1  -8-200.692 155.709   6
  -3   4   8-126.391 103.923  14
  -2   3   8 1364.03 378.850  14
  -1   2   8 83532.7 3126.48  14
   1  -2  -8 78382.6 3202.03  19
   0  -1  -8 16850.0 1547.84  19
  -1   0  -8 135.286 148.039  18
  -1   0  -8 4.69310 94.1037  19
  -2   1  -8-277.015 161.662   6
  -2   1  -8 78.1382 121.556  18
  -3   2  -8 2.73790 134.258   6
  -3   3   8 1495.73 372.603  14
  -2   2   8 1703.50 477.074  14
   2  -2  -8 1983.26 491.768  19
  -1   1   8 1447.29 451.617  14
   1  -1  -8 1473.76 466.481  19
   0   0  -8 738.814 336.108  19
  -1   1  -8 960.744 349.192  18
  -1   1  -8 1220.66 402.506  19
  -2   2  -8 49.5272 151.769   6
  -3   3  -8 6952.28 851.893   6
  -4   3   8 341.542 154.719  14
   3  -2  -8 181.824 142.639  19
   2  -1  -8 343.291 200.826  19
   1   0  -8 2165.75 539.929  19
   0   1  -8 282.218 256.826  19
  -1   2  -8 1588.37 408.700  19
  -2   3  -8-100.225 226.985   6
  -3   4  -8 3905.68 629.733   6
   4  -2  -8 45.1883 83.7959  17
   3  -1  -8 6455.09 924.659  17
   3  -1  -8 7568.00 890.716  19
   2   0  -8 757.313 322.238  17
   2   0  -8 700.334 324.962  19
   1   1  -8 389.587 273.460  19
   0   2  -8 327.332 220.674  19
  -1   3  -8 1044.46 410.900   6
  -2   4  -8 35.5004 126.295   6
  -3   5  -8 224.551 136.864   7
  -3   5  -8-211.274 149.794   6
   4  -1  -8 72.8745 108.486  17
   3   0  -8 14130.7 1365.60  17
   3   0  -8 13908.3 1304.67  19
   2   1  -8 4213.35 752.258  17
   2   1  -8 3610.00 721.439  19
   1   2  -8 183.200 108.256  19
   0   3  -8-80.0483 144.612   6
   0   3  -8 222.636 189.459  19
  -1   4  -8 174.938 110.552   6
  -2   5  -8 140.662 174.931   6
  -3   6  -8 34.5680 63.1917   6
   5  -1  -8 213.159 117.843  17
   4   0  -8 8314.49 968.901  17
   3   1  -8 28176.6 1916.39  17
   3   1  -8 25902.2 1856.53  19
   2   2  -8 369.375 247.268  19
   1   3  -8 338.229 191.391  19
   0   4  -8 169.508 172.767   6
   0   4  -8 52.4981 105.731  19
  -1   5  -8 154.796 142.276   6
  -2   6  -8 970.864 328.833   7
  -2   6  -8 1330.05 380.722   6
   5   0  -8 529.750 231.620  17
   4   1  -8 1225.47 362.746  17
   4   1  -8 1503.41 410.524  19
   3   2  -8 3383.47 638.555  17
   3   2  -8 2798.19 620.156  19
   2   3  -8 578.294 288.692  19
   1   4  -8 2981.13 647.940  19
   0   5  -8 407.591 289.503  15
  -1   6  -8 7939.46 1000.27   7
  -1   6  -8 8097.49 939.239   6
  -2   7  -8 920.749 279.964   7
  -2   7  -8 1247.43 301.034   6
   5   1  -8 101.707 95.8356  17
   4   2  -8 122.209 123.255  17
   4   2  -8 220.128 202.533  19
   3   3  -8 301.062 232.115  19
   2   4  -8 4374.55 788.134  19
   1   5  -8 908.667 423.689  15
   1   5  -8 1366.76 414.819   7
   1   5  -8 1302.39 438.110  19
   0   6  -8 955.592 366.482  15
   0   6  -8 848.553 374.802   7
  -1   7  -8 1397.25 375.054   7
   5   2  -8 1239.00 269.381  17
   4   3  -8 472.195 240.437  19
   3   4  -8 845.792 347.155  19
   2   5  -8 231.507 226.093  19
   1   6  -8 2766.87 585.630   7
   1   6  -8 3052.32 685.854  15
   1   6  -8 2853.52 582.008  19
   0   7  -8-32.7484 116.569   7
   0   7  -8 195.818 175.853  15
  -1   8  -8 236.500 157.953   7
   4   4  -8 1622.96 442.058  19
   3   5  -8 2000.14 496.651  19
   2   6  -8 695.083 181.461   7
   2   6  -8 711.955 307.599  15
   2   6  -8 635.427 282.315  19
   1   7  -8 371.868 203.895   7
   1   7  -8 229.323 244.290  15
   0   8  -8-89.3956 102.809   7
   0   8  -8 82.2010 115.348  15
   4   5  -8 39.2031 99.4165  19
   3   6  -8 224.269 197.179  19
   2   7  -8 161.536 199.550  15
   2   7  -8 93.3879 121.788  19
   1   8  -8 2251.72 495.213  15
   4   6  -8 200.402 109.203  19
   3   7  -8 996.217 293.380  19
   2   8  -8 2359.50 384.015  19
   4   7  -8 219.463 111.165  19
   3   8  -8 263.149 122.767  19
   0  -3  -9 435.778 162.166  18
  -1  -2  -9 1131.74 279.860  18
   2   1   9 38.1031 64.2684  12
  -2  -1  -9 117.893 80.9393   6
   1  -3  -9 625.799 206.359  18
  -1   3   9 510.408 178.150  14
   0  -2  -9 534.713 215.646  18
  -1  -1  -9-2.92587 96.5056  18
  -2   0  -9 855.661 271.677   6
  -2   3   9 368.785 151.512  14
  -1   2   9 1821.01 383.775  14
   0  -1  -9 1470.73 389.733  18
  -1   0  -9 180.436 178.196  18
  -2   1  -9 249.786 216.120   6
  -3   2  -9-96.1759 99.4533   6
  -2   2   9 1168.80 314.844  14
  -1   1   9 973.237 304.459  14
   1  -1  -9 666.821 272.830  19
   0   0  -9 565.798 237.657  18
   0   0  -9 857.765 355.334  19
  -1   1  -9 451.436 280.211   6
  -2   2  -9 77.1799 138.628   6
  -3   3  -9 172.686 116.697   6
  -3   2   9 2431.43 411.070  14
  -2   1   9-117.355 144.127  14
   2  -1  -9 297.526 181.053  19
   1   0  -9 840.916 330.538  19
   0   1  -9 156.820 173.842  19
  -1   2  -9 2648.50 594.461   6
  -2   3  -9 207.145 214.127   6
  -3   4  -9-20.2775 64.8551   6
   3  -1  -9 248.883 103.676  19
   2   0  -9 2756.16 574.221  19
   1   1  -9 16.6191 112.614  19
   0   2  -9 5305.67 869.245   6
   0   2  -9 7781.63 977.432  19
  -1   3  -9 5307.42 822.529   6
  -2   4  -9 253.882 164.450   6
  -4   1   9 888.113 215.749  14
   3   0  -9 626.767 249.814  19
   2   1  -9 265.168 95.2647  19
   1   2  -9 572.884 281.835  19
   0   3  -9 263.991 204.385   6
   0   3  -9 347.986 160.781  19
  -1   4  -9 10.1136 86.1753   6
  -2   5  -9 281.773 139.453   7
  -2   5  -9 295.778 153.159   6
   3   1  -9 271.801 191.161  19
   2   2  -9 443.197 277.798  19
   1   3  -9 460.299 221.509  19
   0   4  -9 737.302 279.785  19
  -1   5  -9-251.431 171.198   6
  -2   6  -9 752.011 230.532   7
  -2   6  -9 660.900 205.795   6
   4   1  -9-128.392 97.7656  19
   3   2  -9 1671.14 453.923  19
   2   3  -9 4422.81 756.860  19
   1   4  -9 427.127 202.971   7
   1   4  -9 989.936 341.462  19
   0   5  -9 368.337 218.596   7
  -1   6  -9 110.307 145.925   7
   4   2  -9 727.706 231.099  19
   3   3  -9-84.1533 135.641  19
   2   4  -9 7133.48 933.032  19
   1   5  -9 17571.5 1342.06   7
   1   5  -9 19183.2 1421.83  19
   0   6  -9 296.029 173.844   7
  -1   7  -9 6.31321 100.287   7
   4   3  -9 855.154 257.026  19
   3   4  -9 1462.85 422.797  19
   2   5  -9 52098.1 2400.38  19
   1   6  -9 9462.29 957.135   7
   1   6  -9 10951.6 950.792  19
   0   7  -9 37.4205 140.501   7
   4   4  -9 2159.67 395.167  19
   3   5  -9 311.338 209.690  19
   2   6  -9-261.533 165.817  19
   1   7  -9 266.084 158.427   7
   4   5  -9 103.641 63.6815  19
   3   6  -9 2.07662 89.8659  19
   2   7  -9 624.722 210.911  19
   3   7  -9 427.979 150.743  19
   0  -1 -10 8914.96 709.341   6
  -1   0 -10 1995.77 335.361   6
   0   0 -10 350.180 151.578   6
  -1   1 -10 85.6360 90.1875   6
   1   0 -10 337.330 172.807  19
   0   1 -10 252.486 141.999   6
  -1   2 -10 161.196 128.130   6
   2   0 -10 1761.96 363.341  19
   1   1 -10-19.8874 105.488  19
   0   2 -10-3.70846 75.8724   6
   0   2 -10 54.9771 91.9223  19
  -1   3 -10-98.1900 110.137   6
   2   1 -10 5303.89 685.821  19
   1   2 -10 1522.14 398.224  19
   0   3 -10-223.254 136.384  19
  -1   4 -10 139.871 106.944   6
   3   1 -10 4013.94 502.291  19
   2   2 -10 7753.42 865.165  19
   1   3 -10 62.9605 102.251  19
   0   4 -10 172.590 138.982   7
  -1   5 -10-132.147 113.000   7
   3   2 -10 1005.52 270.462  19
   2   3 -10 993.569 319.872  19
   1   4 -10 27.3898 80.8373  19
   0   5 -10 703.798 249.129   7
  -1   6 -10 114.137 88.7450   7
   3   3 -10-84.3095 76.7230  19
   2   4 -10 22.4037 86.8538  19
   1   5 -10 1635.01 318.149   7
   1   5 -10 2022.10 359.275  19
   0   6 -10 209.986 145.212   7
   3   4 -10 44.2386 76.2955  19
   2   5 -10 552.979 217.033  19
   3   5 -10 142.724 120.192  19
   2   6 -10 448.163 150.225  19
   0   0   0    0.00    0.00   0
TITL e2879 Kam in P-1
REM P-1 (#2 in standard setting)
CELL 1.54184   5.558663   8.667318   8.764931 105.6536  98.5600  90.7838
ZERR    4.00   0.000889   0.001265   0.001211   0.0124   0.0128   0.0127
LATT  1
SFAC C H N O
UNIT 44.00 40.00 4.00 4.00
TREF
HKLF 4
END
;
_shelx_hkl_checksum              41873
_shelx_res_file
;
    e2879.res created by SHELXL-2014/7
TITL shelxt_a.res in P-1
CELL 1.54184 5.558663 8.667318 8.764931 105.6536 98.56 90.7838
ZERR 2 0.000889 0.001265 0.001211 0.0124 0.0128 0.0127
LATT 1
SFAC C H N O
UNIT 16 10 6 6
ACTA
L.S. 10
PLAN  20
BOND $H
LIST 6
MORE -1
CONF
fmap 2
WGHT    0.061500
EXTI    0.011799
FVAR      20.58253
O1    4    0.635279    0.190864    0.527775    11.00000    0.07308    0.04521 =
         0.07360    0.00137    0.03516    0.00194
O2    4    0.732763    0.941980    0.852498    11.00000    0.12725    0.04169 =
         0.12299   -0.00145    0.05248   -0.01645
O3    4    0.893456    0.776309    0.671664    11.00000    0.07295    0.06181 =
         0.09181    0.02150    0.02866   -0.00498
N1    3    0.130479    0.318300    0.827939    11.00000    0.06053    0.04895 =
         0.06805    0.01024    0.02597   -0.00040
C2    1    0.160066    0.173564    0.748231    11.00000    0.06212    0.04574 =
         0.06905    0.01257    0.02126   -0.00308
AFIX  43
H2    2    0.057593    0.092868    0.759250    11.00000   -1.20000
AFIX   0
N3    3    0.327671    0.128724    0.649680    11.00000    0.06739    0.03684 =
         0.06462    0.00578    0.02259    0.00042
C4    1    0.488060    0.234289    0.620915    11.00000    0.05531    0.04310 =
         0.05571    0.00731    0.01689    0.00353
C4A   1    0.464540    0.401196    0.709435    11.00000    0.05343    0.03985 =
         0.04858    0.00821    0.01287    0.00301
C5    1    0.619728    0.522761    0.695542    11.00000    0.05494    0.04778 =
         0.05416    0.01220    0.01540    0.00422
AFIX  43
H5    2    0.739879    0.499767    0.630644    11.00000   -1.20000
AFIX   0
C6    1    0.589655    0.677509    0.780666    11.00000    0.05709    0.04298 =
         0.05792    0.01184    0.01111   -0.00129
C7    1    0.411991    0.716224    0.879614    11.00000    0.06743    0.03964 =
         0.06002    0.00519    0.01427    0.00674
AFIX  43
H7    2    0.395648    0.822406    0.934929    11.00000   -1.20000
AFIX   0
C8    1    0.262622    0.596779    0.894357    11.00000    0.06170    0.04638 =
         0.06056    0.00608    0.02107    0.00696
AFIX  43
H8    2    0.144581    0.621383    0.960725    11.00000   -1.20000
AFIX   0
C8A   1    0.286555    0.435854    0.809199    11.00000    0.05345    0.04362 =
         0.05421    0.00923    0.01353    0.00270
N9    3    0.750421    0.807122    0.767773    11.00000    0.06938    0.04533 =
         0.07444    0.01379    0.01330   -0.00431
H3    2    0.333925    0.037549    0.598102    11.00000    0.05746
HKLF 4
REM  shelxt_a.res in P-1
REM R1 =  0.0469 for    1124 Fo > 4sig(Fo)  and  0.0645 for all    1598 data
REM    132 parameters refined using      0 restraints
END
WGHT      0.0631      0.0000
REM Highest difference peak  0.181,  deepest hole -0.173,  1-sigma level  0.042
Q1    1   0.4815  0.3301  0.6836  11.00000  0.05    0.18
Q2    1   0.2809  0.4996  0.8372  11.00000  0.05    0.18
Q3    1   0.5344  0.4407  0.7173  11.00000  0.05    0.15
Q4    1   0.5397  0.6782  0.8003  11.00000  0.05    0.15
Q5    1   0.1985  0.3766  0.8225  11.00000  0.05    0.14
Q6    1   0.8080  1.0391  0.8610  11.00000  0.05    0.13
Q7    1   0.0443  0.4047  0.9450  11.00000  0.05    0.13
Q8    1   1.0016  0.8658  0.6642  11.00000  0.05    0.13
Q9    1   0.3104  0.8872  1.0361  11.00000  0.05    0.12
Q10   1   0.8910  0.6532  0.6225  11.00000  0.05    0.11
Q11   1   0.6580  0.0855  0.4751  11.00000  0.05    0.11
Q12   1  -0.0706 -0.0015  0.7994  11.00000  0.05    0.11
Q13   1   0.4797  0.4185  0.9589  11.00000  0.05    0.10
Q14   1  -0.1170  0.1113  0.8654  11.00000  0.05    0.10
Q15   1   0.0000  0.5000  1.0000  10.50000  0.05    0.10
Q16   1   0.5000  0.0000  0.5000  10.50000  0.05    0.10
Q17   1   1.1068  0.8993  0.6573  11.00000  0.05    0.10
Q18   1   0.7776  0.3845  0.5438  11.00000  0.05    0.10
Q19   1   0.6332  0.5628  0.9372  11.00000  0.05    0.10
Q20   1   0.2613  0.4041  0.5574  11.00000  0.05    0.10
;
_shelx_res_checksum              39932
loop_
_space_group_symop_operation_xyz
'x, y, z'
'-x, -y, -z'
loop_
_atom_site_type_symbol
_atom_site_label
_atom_site_fract_x
_atom_site_fract_y
_atom_site_fract_z
_atom_site_U_iso_or_equiv
_atom_site_adp_type
_atom_site_calc_flag
_atom_site_occupancy
_atom_site_disorder_assembly
_atom_site_disorder_group
O O1 0.6353(3) 0.19086(17) 0.52777(19) 0.0644(5) Uani d 1 . .
O O2 0.7328(5) 0.9420(2) 0.8525(3) 0.0988(8) Uani d 1 . .
O O3 0.8935(3) 0.7763(2) 0.6717(2) 0.0739(5) Uani d 1 . .
N N1 0.1305(3) 0.3183(2) 0.8279(2) 0.0587(5) Uani d 1 . .
C C2 0.1601(4) 0.1736(3) 0.7482(3) 0.0585(5) Uani d 1 . .
H H2 0.0576 0.0929 0.7592 0.070 Uiso calc 1 . .
N N3 0.3277(4) 0.1287(2) 0.6497(2) 0.0566(5) Uani d 1 . .
C C4 0.4881(4) 0.2343(2) 0.6209(2) 0.0517(5) Uani d 1 . .
C C4A 0.4645(4) 0.4012(2) 0.7094(2) 0.0476(5) Uani d 1 . .
C C5 0.6197(4) 0.5228(2) 0.6955(3) 0.0519(5) Uani d 1 . .
H H5 0.7399 0.4998 0.6306 0.062 Uiso calc 1 . .
C C6 0.5897(4) 0.6775(2) 0.7807(3) 0.0529(5) Uani d 1 . .
C C7 0.4120(4) 0.7162(2) 0.8796(3) 0.0569(5) Uani d 1 . .
H H7 0.3956 0.8224 0.9349 0.068 Uiso calc 1 . .
C C8 0.2626(4) 0.5968(2) 0.8944(3) 0.0567(5) Uani d 1 . .
H H8 0.1446 0.6214 0.9607 0.068 Uiso calc 1 . .
C C8A 0.2866(4) 0.4359(2) 0.8092(2) 0.0507(5) Uani d 1 . .
N N9 0.7504(4) 0.8071(2) 0.7678(3) 0.0635(5) Uani d 1 . .
H H3 0.334(5) 0.038(3) 0.598(3) 0.057(6) Uiso d 1 . .
loop_
_atom_site_aniso_label
_atom_site_aniso_U_11
_atom_site_aniso_U_22
_atom_site_aniso_U_33
_atom_site_aniso_U_12
_atom_site_aniso_U_13
_atom_site_aniso_U_23
O1 0.0731(10) 0.0452(8) 0.0736(11) 0.0019(7) 0.0352(9) 0.0014(7)
O2 0.1272(18) 0.0417(9) 0.1230(17) -0.0165(10) 0.0525(15) -0.0014(9)
O3 0.0730(11) 0.0618(10) 0.0918(13) -0.0050(8) 0.0287(10) 0.0215(9)
N1 0.0605(10) 0.0490(9) 0.0681(11) -0.0004(7) 0.0260(9) 0.0102(8)
C2 0.0621(12) 0.0457(11) 0.0690(14) -0.0031(9) 0.0213(11) 0.0126(9)
N3 0.0674(11) 0.0368(8) 0.0646(11) 0.0004(7) 0.0226(9) 0.0058(8)
C4 0.0553(11) 0.0431(10) 0.0557(11) 0.0035(8) 0.0169(9) 0.0073(8)
C4A 0.0534(10) 0.0398(9) 0.0486(10) 0.0030(8) 0.0129(8) 0.0082(8)
C5 0.0549(11) 0.0478(11) 0.0542(11) 0.0042(8) 0.0154(9) 0.0122(8)
C6 0.0571(11) 0.0430(10) 0.0579(11) -0.0013(8) 0.0111(9) 0.0118(8)
C7 0.0674(13) 0.0396(10) 0.0600(12) 0.0067(9) 0.0143(10) 0.0052(8)
C8 0.0617(12) 0.0464(11) 0.0606(12) 0.0070(9) 0.0211(10) 0.0061(9)
C8A 0.0535(11) 0.0436(10) 0.0542(11) 0.0027(8) 0.0135(9) 0.0092(8)
N9 0.0694(12) 0.0453(10) 0.0744(12) -0.0043(8) 0.0133(10) 0.0138(8)
loop_
_atom_type_symbol
_atom_type_description
_atom_type_scat_dispersion_real
_atom_type_scat_dispersion_imag
_atom_type_scat_source
C C 0.0181 0.0091 'International Tables Vol C Tables 4.2.6.8 and 6.1.1.4'
H H 0.0000 0.0000 'International Tables Vol C Tables 4.2.6.8 and 6.1.1.4'
N N 0.0311 0.0180 'International Tables Vol C Tables 4.2.6.8 and 6.1.1.4'
O O 0.0492 0.0322 'International Tables Vol C Tables 4.2.6.8 and 6.1.1.4'
loop_
_geom_angle_atom_site_label_1
_geom_angle_atom_site_label_2
_geom_angle_atom_site_label_3
_geom_angle_site_symmetry_1
_geom_angle_site_symmetry_3
_geom_angle
_geom_angle_publ_flag
C2 N1 C8A . . 115.80(17) ?
N1 C2 N3 . . 125.57(19) ?
N1 C2 H2 . . 117.2 ?
N3 C2 H2 . . 117.2 ?
C2 N3 C4 . . 123.57(17) ?
C2 N3 H3 . . 122.0(18) ?
C4 N3 H3 . . 114.3(18) ?
O1 C4 N3 . . 122.34(17) ?
O1 C4 C4A . . 124.23(18) ?
N3 C4 C4A . . 113.43(16) ?
C5 C4A C8A . . 120.89(18) ?
C5 C4A C4 . . 120.21(17) ?
C8A C4A C4 . . 118.90(18) ?
C6 C5 C4A . . 117.95(18) ?
C6 C5 H5 . . 121.0 ?
C4A C5 H5 . . 121.0 ?
C5 C6 C7 . . 122.54(19) ?
C5 C6 N9 . . 118.89(18) ?
C7 C6 N9 . . 118.57(18) ?
C8 C7 C6 . . 119.31(18) ?
C8 C7 H7 . . 120.3 ?
C6 C7 H7 . . 120.3 ?
C7 C8 C8A . . 120.21(19) ?
C7 C8 H8 . . 119.9 ?
C8A C8 H8 . . 119.9 ?
N1 C8A C4A . . 122.73(18) ?
N1 C8A C8 . . 118.18(18) ?
C4A C8A C8 . . 119.09(19) ?
O2 N9 O3 . . 122.9(2) ?
O2 N9 C6 . . 118.0(2) ?
O3 N9 C6 . . 119.03(18) ?
loop_
_geom_bond_atom_site_label_1
_geom_bond_atom_site_label_2
_geom_bond_site_symmetry_2
_geom_bond_distance
_geom_bond_publ_flag
O1 C4 . 1.233(2) ?
O2 N9 . 1.218(2) ?
O3 N9 . 1.223(2) ?
N1 C2 . 1.287(3) y
N1 C8A . 1.388(3) ?
C2 N3 . 1.354(3) y
C2 H2 . 0.9300 ?
N3 C4 . 1.366(3) y
N3 H3 . 0.80(3) ?
C4 C4A . 1.463(3) ?
C4A C5 . 1.395(3) ?
C4A C8A . 1.399(3) ?
C5 C6 . 1.374(3) ?
C5 H5 . 0.9300 ?
C6 C7 . 1.395(3) ?
C6 N9 . 1.464(3) y
C7 C8 . 1.363(3) ?
C7 H7 . 0.9300 ?
C8 C8A . 1.412(3) ?
C8 H8 . 0.9300 ?
loop_
_geom_hbond_atom_site_label_D
_geom_hbond_atom_site_label_H
_geom_hbond_atom_site_label_A
_geom_hbond_site_symmetry_A
_geom_hbond_distance_DH
_geom_hbond_distance_HA
_geom_hbond_distance_DA
_geom_hbond_angle_DHA
_geom_hbond_publ_flag
N3 H3 O1 2_656 0.80(3) 2.02(3) 2.814(2) 178(4) y
C8 H8 N1 2_567 0.93 2.53 3.450(3) 172 y
C2 H2 O2 1_445 0.93 2.57 3.466(4) 163 y
C7 H7 O2 2_677 0.93 2.56 3.437(3) 158 y
loop_
_geom_torsion_atom_site_label_1
_geom_torsion_atom_site_label_2
_geom_torsion_atom_site_label_3
_geom_torsion_atom_site_label_4
_geom_torsion_site_symmetry_1
_geom_torsion_site_symmetry_2
_geom_torsion_site_symmetry_3
_geom_torsion_site_symmetry_4
_geom_torsion
_geom_torsion_publ_flag
C8A N1 C2 N3 . . . . -0.1(4) ?
N1 C2 N3 C4 . . . . -0.7(4) ?
C2 N3 C4 O1 . . . . -178.3(2) ?
C2 N3 C4 C4A . . . . 1.0(3) ?
O1 C4 C4A C5 . . . . -2.2(3) ?
N3 C4 C4A C5 . . . . 178.5(2) ?
O1 C4 C4A C8A . . . . 178.6(2) ?
N3 C4 C4A C8A . . . . -0.7(3) ?
C8A C4A C5 C6 . . . . -1.0(3) ?
C4 C4A C5 C6 . . . . 179.8(2) ?
C4A C5 C6 C7 . . . . 0.3(3) ?
C4A C5 C6 N9 . . . . -179.9(2) ?
C5 C6 C7 C8 . . . . 0.5(4) ?
N9 C6 C7 C8 . . . . -179.3(2) ?
C6 C7 C8 C8A . . . . -0.5(4) ?
C2 N1 C8A C4A . . . . 0.5(3) ?
C2 N1 C8A C8 . . . . -179.8(2) ?
C5 C4A C8A N1 . . . . -179.2(2) ?
C4 C4A C8A N1 . . . . 0.0(3) ?
C5 C4A C8A C8 . . . . 1.1(3) ?
C4 C4A C8A C8 . . . . -179.8(2) ?
C7 C8 C8A N1 . . . . 180.0(2) ?
C7 C8 C8A C4A . . . . -0.2(3) ?
C5 C6 N9 O2 . . . . -175.0(2) ?
C7 C6 N9 O2 . . . . 4.9(4) ?
C5 C6 N9 O3 . . . . 6.0(3) ?
C7 C6 N9 O3 . . . . -174.2(2) ?

_cod_database_fobs_code 2243909
