#------------------------------------------------------------------------------
#$Date: 2019-10-09 07:04:44 +0300 (Wed, 09 Oct 2019) $
#$Revision: 219183 $
#$URL: file:///home/coder/svn-repositories/cod/cif/2/24/31/2243132.cif $
#------------------------------------------------------------------------------
#
# This file is available in the Crystallography Open Database (COD),
# http://www.crystallography.net/. The original data for this entry
# were provided by IUCr Journals, http://journals.iucr.org/.
#
# The file may be used within the scientific community so long as
# proper attribution is given to the journal article from which the
# data were obtained.
#
data_2243132
loop_
_publ_author_name
'Mazurek, Jaroslaw'
'Fernandez-Casares, Ana'
_publ_section_title
;
 The crystal structures of two novel polymorphs of bis(oxonium)
 ethane-1,2-disulfonate
;
_journal_issue                   11
_journal_name_full               'Acta Crystallographica Section E'
_journal_page_first              1586
_journal_page_last               1589
_journal_paper_doi               10.1107/S2056989019013367
_journal_volume                  75
_journal_year                    2019
_chemical_formula_iupac          '2H3 O +, C2 H4 O6 S2 2-'
_chemical_formula_moiety         '2(H3 O +), C2 H4 O6 S2 2-'
_chemical_formula_sum            'C2 H10 O8 S2'
_chemical_formula_weight         226.22
_chemical_name_systematic        'Bis(oxonium) ethane-1,2-disulfonate'
_space_group_crystal_system      triclinic
_space_group_IT_number           2
_space_group_name_Hall           '-P 1'
_space_group_name_H-M_alt        'P -1'
_symmetry_space_group_name_Hall  '-P 1'
_symmetry_space_group_name_H-M   'P -1'
_atom_sites_solution_hydrogens   difmap
_atom_sites_solution_primary     difmap
_atom_sites_solution_secondary   difmap
_audit_creation_method           SHELXL-2014/7
_cell_angle_alpha                98.426(5)
_cell_angle_beta                 104.511(3)
_cell_angle_gamma                91.663(4)
_cell_formula_units_Z            1
_cell_length_a                   5.0371(3)
_cell_length_b                   5.5424(2)
_cell_length_c                   8.8188(4)
_cell_measurement_reflns_used    4728
_cell_measurement_temperature    296(2)
_cell_measurement_theta_max      32.577
_cell_measurement_theta_min      0.998
_cell_volume                     235.22(2)
_computing_cell_refinement
;
HKL Scalepack (Otwinowski & Minor, 1997)
;
_computing_data_collection
;
COLLECT (Hooft, 1998)
;
_computing_data_reduction
;
HKL Denzo and Scalepack (Otwinowski & Minor, 1997)
;
_computing_molecular_graphics
;
Mercury (Macrae et al., 2008)
;
_computing_publication_material
;
enCIFer (Allen <i>et al.</i>,  2004)
;
_computing_structure_refinement
;
<i>SHELXL2014/7</i> (Sheldrick, 2015b)
;
_computing_structure_solution
;
SHELXT (Sheldrick, 2015a)
;
_diffrn_ambient_temperature      296(2)
_diffrn_detector_area_resol_mean 9
_diffrn_measured_fraction_theta_full 1.000
_diffrn_measured_fraction_theta_max 0.991
_diffrn_measurement_device       '95mm CCD camera on \k-goniostat'
_diffrn_measurement_device_type  'Bruker KappaCCD'
_diffrn_measurement_method       CCD
_diffrn_radiation_monochromator  'horizonally mounted graphite crystal'
_diffrn_radiation_source         'fine-focus sealed tube'
_diffrn_radiation_type           MoK\a
_diffrn_radiation_wavelength     0.71073
_diffrn_reflns_av_R_equivalents  0.1310
_diffrn_reflns_av_unetI/netI     0.0867
_diffrn_reflns_limit_h_max       6
_diffrn_reflns_limit_h_min       -7
_diffrn_reflns_limit_k_max       8
_diffrn_reflns_limit_k_min       -8
_diffrn_reflns_limit_l_max       13
_diffrn_reflns_limit_l_min       -11
_diffrn_reflns_number            7504
_diffrn_reflns_theta_full        25.242
_diffrn_reflns_theta_max         32.586
_diffrn_reflns_theta_min         2.416
_exptl_absorpt_coefficient_mu    0.575
_exptl_absorpt_correction_T_max  0.947
_exptl_absorpt_correction_T_min  0.813
_exptl_absorpt_correction_type   integration
_exptl_absorpt_process_details
;
Gaussian integration (Coppens, 1970)
;
_exptl_crystal_colour            Colorless
_exptl_crystal_density_diffrn    1.597
_exptl_crystal_description       Columnar
_exptl_crystal_F_000             118
_exptl_crystal_size_max          0.300
_exptl_crystal_size_mid          0.120
_exptl_crystal_size_min          0.110
_refine_diff_density_max         0.658
_refine_diff_density_min         -0.669
_refine_ls_extinction_coef       0.19(3)
_refine_ls_extinction_expression Fc^*^=kFc[1+0.001xFc^2^\l^3^/sin(2\q)]^-1/4^
_refine_ls_extinction_method
;
SHELXL-2014/7 (Sheldrick 2015b)
;
_refine_ls_goodness_of_fit_ref   1.036
_refine_ls_hydrogen_treatment    refall
_refine_ls_matrix_type           full
_refine_ls_number_parameters     76
_refine_ls_number_reflns         1708
_refine_ls_number_restraints     0
_refine_ls_restrained_S_all      1.036
_refine_ls_R_factor_all          0.0888
_refine_ls_R_factor_gt           0.0580
_refine_ls_shift/su_max          0.016
_refine_ls_shift/su_mean         0.002
_refine_ls_structure_factor_coef Fsqd
_refine_ls_weighting_details
'w=1/[\s^2^(Fo^2^)+(0.0869P)^2^+0.0186P] where P=(Fo^2^+2Fc^2^)/3'
_refine_ls_weighting_scheme      calc
_refine_ls_wR_factor_gt          0.1468
_refine_ls_wR_factor_ref         0.1632
_reflns_number_gt                1192
_reflns_number_total             1708
_reflns_threshold_expression     'I > 2\s(I)'
_cod_data_source_file            lh5920sup1.cif
_cod_data_source_block           II
_cod_database_code               2243132
_shelx_space_group_comment
;
The symmetry employed for this shelxl refinement is uniquely defined
by the following loop, which should always be used as a source of
symmetry information in preference to the above space-group names.
They are only intended as comments.
;
_shelx_hkl_file
;
  -7  -3   3    2.82    3.57   1
  -7  -3   4    1.41    2.51   1
  -7  -3   5    2.72    3.58   1
  -7  -2   0   10.40    3.01   1
  -7  -2   1   -2.35    2.56   1
  -7  -2   1    1.71    3.34   1
  -7  -2   2    9.16    3.14   1
  -7  -2   2    8.98    2.80   1
  -7  -2   3    3.11    2.79   1
  -7  -2   3    0.86    2.39   1
  -7  -2   4   21.00    4.06   1
  -7  -2   4   20.41    4.25   1
  -7  -2   5   12.48    3.20   1
  -7  -2   5   10.61    2.93   1
  -7  -2   6    6.27    2.63   1
  -7  -1  -1   20.63    3.72   1
  -7  -1  -1   11.96    3.66   1
  -7  -1   0    2.12    2.34   1
  -7  -1   0    0.00    1.08   1
  -7  -1   1   21.54    3.64   1
  -7  -1   1   21.98    4.68   1
  -7  -1   2   -1.89    2.13   1
  -7  -1   2    1.41    2.37   1
  -7  -1   3   17.54    3.54   1
  -7  -1   3   21.24    3.84   1
  -7  -1   4    6.61    2.34   1
  -7  -1   4    9.33    3.39   1
  -7  -1   4    3.63    2.31   1
  -7  -1   5    2.76    2.30   1
  -7  -1   5    1.22    2.20   1
  -7  -1   5    1.11    2.01   1
  -7  -1   6    8.31    3.09   1
  -7  -1   6    9.51    3.18   1
  -7  -1   6    5.31    2.67   1
  -7  -1   7   -0.22    3.33   1
  -7  -1   7    0.22    2.79   1
  -7  -1   8   14.59    4.34   1
  -7   0  -1    0.86    3.13   1
  -7   0  -1    0.34    2.47   1
  -7   0   0   10.87    3.36   1
  -7   0   0   10.80    2.81   1
  -7   0   1   10.28    3.06   1
  -7   0   1    3.69    3.17   1
  -7   0   2   24.43    4.08   1
  -7   0   2   14.21    2.91   1
  -7   0   2   17.18    3.72   1
  -7   0   3    9.71    2.61   1
  -7   0   3    8.89    2.18   1
  -7   0   3   10.28    2.78   1
  -7   0   4    8.39    2.31   1
  -7   0   4   10.79    2.76   1
  -7   0   4    7.17    2.44   1
  -7   0   5    7.55    2.54   1
  -7   0   5    8.38    2.32   1
  -7   0   5    4.65    2.09   1
  -7   0   6    1.77    1.99   1
  -7   0   6    2.67    2.55   1
  -7   0   7    3.76    3.31   1
  -7   0   8    2.43    2.66   1
  -7   1  -2   -0.22    2.80   1
  -7   1  -2    0.22    2.20   1
  -7   1  -1   17.92    3.93   1
  -7   1  -1    4.62    2.52   1
  -7   1   0    1.10    2.64   1
  -7   1   0    0.23    2.37   1
  -7   1   1    8.45    2.74   1
  -7   1   1   15.16    2.53   1
  -7   1   1   11.76    3.27   1
  -7   1   2    7.40    3.43   1
  -7   1   2    5.29    1.98   1
  -7   1   2    7.39    3.22   1
  -7   1   3    9.60    3.02   1
  -7   1   3    5.43    1.87   1
  -7   1   3    7.00    3.01   1
  -7   1   4   24.81    4.00   1
  -7   1   4   15.72    2.77   1
  -7   1   5   -3.00    3.92   1
  -7   1   5   -1.35    2.01   1
  -7   1   6   27.22    4.18   1
  -7   1   7    2.33    2.66   1
  -7   2  -1    3.25    2.79   1
  -7   2   0    2.37    2.72   1
  -7   2   1    6.68    2.24   1
  -7   2   1   16.75    3.83   1
  -7   2   1    5.99    2.32   1
  -7   2   2   13.93    3.41   1
  -7   2   2    5.96    1.92   1
  -7   2   3   33.83    5.32   1
  -7   2   3   22.83    3.46   1
  -7   2   4    0.34    2.95   1
  -7   2   5   12.52    3.38   1
  -7   2   6    2.14    2.57   1
  -7   3   0    2.73    2.61   1
  -7   3   1    4.77    3.77   1
  -7   3   2    5.00    3.28   1
  -7   3   3   -1.13    2.61   1
  -7   3   4    7.02    2.71   1
  -7   3   5   -0.57    2.51   1
  -6  -4  -1    4.08    3.10   1
  -6  -4   0    8.11    3.14   1
  -6  -4   1   -5.10    3.48   1
  -6  -4   2    5.53    3.57   1
  -6  -4   3    3.66    3.35   1
  -6  -4   4    0.76    2.18   1
  -6  -4   5    6.68    2.79   1
  -6  -4   6    0.11    2.94   1
  -6  -4   7   12.88    3.43   1
  -6  -4   8   -0.43    2.25   1
  -6  -3  -2    1.92    2.47   1
  -6  -3  -1    7.20    2.67   1
  -6  -3   0   -0.22    2.94   1
  -6  -3   1   14.85    3.61   1
  -6  -3   3   10.64    3.13   1
  -6  -3   3   11.61    3.27   1
  -6  -3   4    6.20    2.60   1
  -6  -3   4   11.61    3.05   1
  -6  -3   5   15.16    3.00   1
  -6  -3   5   11.95    3.67   1
  -6  -3   6   17.93    3.52   1
  -6  -3   6   11.15    3.27   1
  -6  -3   7    0.64    1.83   1
  -6  -3   7    2.37    3.23   1
  -6  -3   8    4.41    2.14   1
  -6  -3   9   -1.61    2.06   1
  -6  -2  -3    5.76    3.43   1
  -6  -2  -2   18.11    3.53   1
  -6  -2  -1    3.00    2.37   1
  -6  -2   0   40.07    4.95   1
  -6  -2   0   36.08    4.12   1
  -6  -2   0   34.84    5.15   1
  -6  -2   1    4.57    1.96   1
  -6  -2   1    3.74    2.14   1
  -6  -2   1    3.04    3.05   1
  -6  -2   1    4.67    2.00   1
  -6  -2   2    4.34    2.45   1
  -6  -2   2    7.43    2.28   1
  -6  -2   2   13.53    2.75   1
  -6  -2   2    7.95    3.06   1
  -6  -2   3    8.48    2.72   1
  -6  -2   3    5.88    1.98   1
  -6  -2   3    5.14    2.42   1
  -6  -2   4   10.29    2.62   1
  -6  -2   4   12.26    2.42   1
  -6  -2   4   11.05    2.61   1
  -6  -2   5   30.94    4.54   1
  -6  -2   5   31.88    4.13   1
  -6  -2   5   44.20    6.08   1
  -6  -2   6    3.82    1.76   1
  -6  -2   6    1.13    1.80   1
  -6  -2   6    0.43    2.39   1
  -6  -2   7   19.30    3.39   1
  -6  -2   7    9.16    2.59   1
  -6  -2   8    5.22    2.62   1
  -6  -2   8    4.01    2.38   1
  -6  -2   9    8.71    2.83   1
  -6  -2   9    4.44    2.37   1
  -6  -1  -4    2.08    2.08   1
  -6  -1  -4   10.53    3.63   1
  -6  -1  -3    6.77    3.56   1
  -6  -1  -3    9.79    3.61   1
  -6  -1  -2    8.08    2.45   1
  -6  -1  -2    3.17    2.75   1
  -6  -1  -1   45.39    5.12   1
  -6  -1  -1   34.41    4.02   1
  -6  -1  -1   24.07    3.53   1
  -6  -1  -1   28.59    3.66   1
  -6  -1   0    4.36    2.04   1
  -6  -1   0    2.37    1.63   1
  -6  -1   0    4.63    2.06   1
  -6  -1   0    3.39    2.42   1
  -6  -1   1   15.09    3.04   1
  -6  -1   1   16.51    2.71   1
  -6  -1   1   16.14    3.08   1
  -6  -1   1   15.59    2.71   1
  -6  -1   2    4.18    2.05   1
  -6  -1   2    3.18    1.80   1
  -6  -1   2    3.16    3.94   1
  -6  -1   2    1.73    2.07   1
  -6  -1   3   17.31    3.10   1
  -6  -1   3   21.81    3.72   1
  -6  -1   3   18.07    3.29   1
  -6  -1   4   12.78    2.40   1
  -6  -1   4   11.68    2.65   1
  -6  -1   4   17.81    2.60   1
  -6  -1   5    1.75    1.53   1
  -6  -1   5    2.92    2.46   1
  -6  -1   5    1.33    1.55   1
  -6  -1   6    6.72    2.03   1
  -6  -1   6    6.10    1.97   1
  -6  -1   6    3.54    2.33   1
  -6  -1   7   -1.78    1.55   1
  -6  -1   7   -0.56    1.44   1
  -6  -1   7    1.34    2.12   1
  -6  -1   7    1.17    1.70   1
  -6  -1   8    1.91    2.34   1
  -6  -1   8    5.44    2.12   1
  -6  -1   8    5.94    2.51   1
  -6  -1   8    6.95    1.99   1
  -6  -1   9    4.28    2.52   1
  -6  -1   9   -0.88    2.43   1
  -6   0  -5    2.94    2.94   1
  -6   0  -5   -1.71    2.03   1
  -6   0  -4    9.41    3.55   1
  -6   0  -4    6.06    2.61   1
  -6   0  -3   -2.12    1.78   1
  -6   0  -3   -0.76    1.96   1
  -6   0  -2   32.28    3.90   1
  -6   0  -2   30.75    4.85   1
  -6   0  -2   39.15    5.42   1
  -6   0  -1   -0.34    2.59   1
  -6   0  -1    1.79    1.49   1
  -6   0  -1    1.41    1.73   1
  -6   0  -1   -0.86    1.62   1
  -6   0   0   20.02    3.08   1
  -6   0   0   12.10    2.36   1
  -6   0   0   29.35    4.26   1
  -6   0   0   16.64    2.98   1
  -6   0   1    1.84    1.53   1
  -6   0   1    0.11    1.99   1
  -6   0   1   -0.67    1.79   1
  -6   0   1    2.03    1.91   1
  -6   0   2    8.89    3.04   1
  -6   0   2    3.70    1.97   1
  -6   0   2    4.46    1.55   1
  -6   0   3   10.68    3.05   1
  -6   0   3    6.69    1.73   1
  -6   0   3    4.61    1.44   1
  -6   0   4   -0.11    1.12   1
  -6   0   4    0.45    2.47   1
  -6   0   4   -1.99    1.66   1
  -6   0   5   23.18    3.05   1
  -6   0   5   24.41    3.76   1
  -6   0   5   25.27    3.08   1
  -6   0   6    4.46    1.78   1
  -6   0   6    2.23    1.11   1
  -6   0   6    2.45    1.69   1
  -6   0   7    9.18    2.12   1
  -6   0   7   10.10    2.36   1
  -6   0   7    8.15    2.53   1
  -6   0   7   17.50    3.36   1
  -6   0   8    0.96    2.02   1
  -6   0   8    0.00    1.12   1
  -6   0   8    0.45    1.12   1
  -6   0   9   14.17    2.79   1
  -6   0   9    5.12    3.18   1
  -6   1  -5    3.01    2.82   1
  -6   1  -5    0.33    2.11   1
  -6   1  -4    0.86    2.49   1
  -6   1  -3    6.43    2.28   1
  -6   1  -3    6.78    2.69   1
  -6   1  -2    2.52    1.86   1
  -6   1  -2    3.01    2.24   1
  -6   1  -2    0.77    1.76   1
  -6   1  -1    5.78    1.96   1
  -6   1  -1   11.40    3.15   1
  -6   1   0   30.47    4.24   1
  -6   1   0   29.67    3.76   1
  -6   1   0   16.46    2.51   1
  -6   1   0   29.90    3.55   1
  -6   1   1   13.35    1.99   1
  -6   1   1    6.70    1.60   1
  -6   1   1    6.69    2.17   1
  -6   1   1   13.60    2.75   1
  -6   1   2   27.61    4.03   1
  -6   1   2   22.86    3.11   1
  -6   1   2   15.46    2.56   1
  -6   1   3   16.68    2.87   1
  -6   1   3   13.14    1.98   1
  -6   1   3   11.44    1.99   1
  -6   1   4   14.82    2.68   1
  -6   1   4   22.03    2.57   1
  -6   1   4   21.02    3.62   1
  -6   1   5   -0.23    1.13   1
  -6   1   5   -0.34    0.90   1
  -6   1   5   -0.45    1.58   1
  -6   1   6    3.71    1.22   1
  -6   1   6    2.23    2.56   1
  -6   1   6    2.23    1.45   1
  -6   1   7   -0.54    2.13   1
  -6   1   7    3.22    2.58   1
  -6   1   8   14.82    2.60   1
  -6   1   8    8.16    2.77   1
  -6   1   9   11.54    2.66   1
  -6   1  10    1.79    2.32   1
  -6   2  -5    0.00    1.08   1
  -6   2  -5    0.56    2.45   1
  -6   2  -4    4.56    2.27   1
  -6   2  -4    6.58    3.36   1
  -6   2  -3   -2.93    2.39   1
  -6   2  -3   -0.57    2.14   1
  -6   2  -2   16.54    2.98   1
  -6   2  -2   32.48    4.86   1
  -6   2  -2   11.33    2.96   1
  -6   2  -1    5.81    1.77   1
  -6   2  -1    5.36    2.52   1
  -6   2  -1   14.96    3.06   1
  -6   2   0    2.20    2.09   1
  -6   2   0    8.19    1.75   1
  -6   2   0    7.67    3.20   1
  -6   2   1    4.12    2.02   1
  -6   2   1    8.56    2.62   1
  -6   2   1    7.28    1.54   1
  -6   2   2    7.31    1.66   1
  -6   2   2   14.61    3.35   1
  -6   2   2   11.15    1.91   1
  -6   2   3   26.40    3.40   1
  -6   2   3   29.32    3.35   1
  -6   2   3   46.70    5.55   1
  -6   2   4   -3.18    2.86   1
  -6   2   4    0.12    1.38   1
  -6   2   4    0.00    1.14   1
  -6   2   5   21.92    3.20   1
  -6   2   5    8.89    1.59   1
  -6   2   6    0.00    1.13   1
  -6   2   7   10.53    2.69   1
  -6   2   8    1.57    2.12   1
  -6   2   9    0.00    1.12   1
  -6   3  -4    0.67    3.15   1
  -6   3  -4    0.65    3.05   1
  -6   3  -3   10.54    3.18   1
  -6   3  -3    7.62    2.84   1
  -6   3  -2    2.21    1.88   1
  -6   3  -2    1.11    1.67   1
  -6   3  -2    3.66    2.49   1
  -6   3  -1    0.91    2.40   1
  -6   3  -1    1.45    2.35   1
  -6   3  -1    1.56    1.56   1
  -6   3   0    8.00    2.68   1
  -6   3   0    3.51    1.92   1
  -6   3   0    1.37    1.47   1
  -6   3   1    2.65    1.50   1
  -6   3   1    6.49    3.23   1
  -6   3   2   28.84    4.04   1
  -6   3   2   11.75    2.06   1
  -6   3   2   15.12    2.67   1
  -6   3   3    1.70    1.03   1
  -6   3   3    2.52    2.28   1
  -6   3   4    6.81    2.41   1
  -6   3   5   -0.82    1.87   1
  -6   3   5    0.00    1.15   1
  -6   3   6   -0.35    2.52   1
  -6   3   6    8.72    3.54   1
  -6   3   7   -0.79    1.58   1
  -6   3   7    0.57    3.08   1
  -6   3   8    0.11    1.94   1
  -6   3   8    4.30    2.47   1
  -6   4  -3    3.28    1.93   1
  -6   4  -3    3.08    3.65   1
  -6   4  -2   10.05    2.79   1
  -6   4  -2    4.24    2.30   1
  -6   4  -1   -0.23    2.44   1
  -6   4  -1    0.58    2.30   1
  -6   4   0    3.31    3.42   1
  -6   4   0    2.27    1.71   1
  -6   4   1    2.49    2.96   1
  -6   4   1    2.14    1.93   1
  -6   4   2    1.68    2.93   1
  -6   4   3    1.02    3.18   1
  -6   4   4    2.62    2.37   1
  -6   4   5    4.20    2.84   1
  -6   4   6    0.00    1.14   1
  -6   4   7    6.66    2.99   1
  -6   4   7    3.31    2.33   1
  -6   5  -1    4.75    2.83   1
  -6   5   0    6.52    4.16   1
  -6   5   1    2.00    2.66   1
  -6   5   2    4.54    2.88   1
  -6   5   3   -0.44    2.33   1
  -6   5   4    0.88    2.87   1
  -5  -6   2   12.53    3.16   1
  -5  -6   3   -0.11    2.17   1
  -5  -6   4    2.57    2.45   1
  -5  -6   5   -2.47    2.66   1
  -5  -5  -2    4.29    3.00   1
  -5  -5  -1    2.80    3.79   1
  -5  -5   0    5.28    2.49   1
  -5  -5   1    8.84    3.46   1
  -5  -5   2   -2.36    1.82   1
  -5  -5   3    1.39    2.03   1
  -5  -5   4    1.39    2.24   1
  -5  -5   5    2.57    2.88   1
  -5  -5   6    6.21    2.58   1
  -5  -5   7   -1.29    2.90   1
  -5  -5   8   -0.85    2.23   1
  -5  -5   9    1.81    2.25   1
  -5  -4  -4   -0.42    2.23   1
  -5  -4  -3    1.39    2.24   1
  -5  -4  -2    0.76    2.79   1
  -5  -4  -1    1.08    1.84   1
  -5  -4   0   11.02    2.83   1
  -5  -4   0    7.66    2.48   1
  -5  -4   1    3.02    2.93   1
  -5  -4   1   -0.43    1.72   1
  -5  -4   2   13.68    2.92   1
  -5  -4   2   16.50    2.79   1
  -5  -4   3    0.97    1.61   1
  -5  -4   3    1.07    2.04   1
  -5  -4   4    6.75    2.15   1
  -5  -4   4    5.23    2.13   1
  -5  -4   5    0.32    1.93   1
  -5  -4   5   -1.07    2.25   1
  -5  -4   6    4.90    1.83   1
  -5  -4   6   -0.11    2.82   1
  -5  -4   7    7.41    2.87   1
  -5  -4   7    8.16    2.25   1
  -5  -4   8    2.35    1.81   1
  -5  -4   9    5.38    2.78   1
  -5  -4  10   -1.30    2.81   1
  -5  -3  -5    5.03    2.78   1
  -5  -3  -4    1.69    2.99   1
  -5  -3  -3    6.73    2.47   1
  -5  -3  -2    0.32    2.04   1
  -5  -3  -2    1.30    1.84   1
  -5  -3  -1   10.20    2.53   1
  -5  -3  -1    4.67    2.13   1
  -5  -3  -1    8.86    3.03   1
  -5  -3   0    0.21    1.81   1
  -5  -3   0   -0.33    1.53   1
  -5  -3   0    0.00    1.09   1
  -5  -3   1   19.14    3.19   1
  -5  -3   1   21.68    2.81   1
  -5  -3   2   11.17    2.69   1
  -5  -3   2   15.40    2.37   1
  -5  -3   2   18.75    2.70   1
  -5  -3   3    7.98    2.17   1
  -5  -3   3    2.49    1.74   1
  -5  -3   4    5.59    1.62   1
  -5  -3   4    8.73    2.70   1
  -5  -3   5   23.11    4.08   1
  -5  -3   5   25.99    3.59   1
  -5  -3   6   17.27    2.67   1
  -5  -3   6   20.59    1.78   1
  -5  -3   6   21.17    3.34   1
  -5  -3   7    4.60    2.04   1
  -5  -3   7    2.04    2.58   1
  -5  -3   8   -0.64    2.13   1
  -5  -3   8    2.48    1.83   1
  -5  -3   9    0.97    2.04   1
  -5  -3   9    3.44    2.81   1
  -5  -3  10    5.78    2.44   1
  -5  -3  10    6.23    3.10   1
  -5  -3  11    3.74    2.44   1
  -5  -2  -6    3.21    2.45   1
  -5  -2  -5   11.87    2.92   1
  -5  -2  -4    7.07    2.69   1
  -5  -2  -3   -0.63    1.81   1
  -5  -2  -3    1.70    1.81   1
  -5  -2  -3    1.38    1.91   1
  -5  -2  -2    7.09    2.59   1
  -5  -2  -2    4.67    2.67   1
  -5  -2  -2    5.15    2.68   1
  -5  -2  -1   -0.75    1.49   1
  -5  -2  -1    0.11    1.42   1
  -5  -2  -1   -1.36    1.46   1
  -5  -2  -1    0.54    1.52   1
  -5  -2   0   37.84    3.80   1
  -5  -2   0   21.83    3.17   1
  -5  -2   0   39.18    4.44   1
  -5  -2   0   40.63    3.99   1
  -5  -2   1   10.15    1.86   1
  -5  -2   1   12.09    2.62   1
  -5  -2   1   14.93    2.08   1
  -5  -2   1   10.09    2.56   1
  -5  -2   2   24.06    2.87   1
  -5  -2   2   17.08    2.85   1
  -5  -2   2   27.90    3.32   1
  -5  -2   3   -1.05    1.53   1
  -5  -2   3    0.43    1.30   1
  -5  -2   3    1.32    1.75   1
  -5  -2   4   54.41    4.91   1
  -5  -2   4   50.60    4.75   1
  -5  -2   4   53.49    4.41   1
  -5  -2   5    9.72    2.40   1
  -5  -2   5    7.99    1.94   1
  -5  -2   5    3.55    1.61   1
  -5  -2   6    8.84    2.16   1
  -5  -2   6    9.44    2.02   1
  -5  -2   6    7.03    1.82   1
  -5  -2   7    1.94    1.30   1
  -5  -2   7    2.24    1.39   1
  -5  -2   7    0.54    1.95   1
  -5  -2   8    2.90    1.95   1
  -5  -2   8   -0.22    1.52   1
  -5  -2   8    1.92    1.06   1
  -5  -2   9    2.49    2.07   1
  -5  -2   9    4.76    2.04   1
  -5  -2  10    0.54    1.73   1
  -5  -2  10    1.71    2.79   1
  -5  -2  11    1.93    2.90   1
  -5  -2  11    5.09    3.40   1
  -5  -1  -7    1.70    2.46   1
  -5  -1  -6    4.30    3.31   1
  -5  -1  -5   12.51    2.79   1
  -5  -1  -5    9.93    3.38   1
  -5  -1  -4    1.80    2.24   1
  -5  -1  -4    1.33    1.65   1
  -5  -1  -4    3.00    1.94   1
  -5  -1  -4    1.93    2.68   1
  -5  -1  -3   12.58    2.78   1
  -5  -1  -3   19.31    3.10   1
  -5  -1  -3   17.18    2.58   1
  -5  -1  -3   20.07    3.12   1
  -5  -1  -2   11.90    2.63   1
  -5  -1  -2   28.74    3.45   1
  -5  -1  -2   31.07    3.54   1
  -5  -1  -2   23.25    2.90   1
  -5  -1  -1   24.30    2.94   1
  -5  -1  -1   33.69    3.62   1
  -5  -1  -1   27.60    3.60   1
  -5  -1  -1   41.25    3.95   1
  -5  -1   0    3.92    1.40   1
  -5  -1   0    6.00    2.19   1
  -5  -1   0    2.95    2.38   1
  -5  -1   0    5.00    1.80   1
  -5  -1   1    0.84    1.15   1
  -5  -1   1    3.63    1.87   1
  -5  -1   1    2.30    1.30   1
  -5  -1   1    2.42    1.83   1
  -5  -1   2   -1.39    1.62   1
  -5  -1   2    0.99    1.21   1
  -5  -1   2    1.43    1.53   1
  -5  -1   3    4.21    1.93   1
  -5  -1   3    6.26    1.89   1
  -5  -1   3    4.47    1.33   1
  -5  -1   4   13.71    2.09   1
  -5  -1   4   12.50    2.00   1
  -5  -1   4   17.92    2.53   1
  -5  -1   5    7.84    1.99   1
  -5  -1   5    9.21    2.54   1
  -5  -1   5    4.81    1.42   1
  -5  -1   6   11.88    1.35   1
  -5  -1   6   15.93    2.42   1
  -5  -1   6   19.07    2.65   1
  -5  -1   6   17.93    2.80   1
  -5  -1   7    5.52    1.50   1
  -5  -1   7    4.37    1.33   1
  -5  -1   7    5.32    1.83   1
  -5  -1   7    1.68    1.25   1
  -5  -1   7    3.37    1.53   1
  -5  -1   8    5.35    1.66   1
  -5  -1   8    3.42    1.38   1
  -5  -1   8    4.99    1.72   1
  -5  -1   8    2.52    1.32   1
  -5  -1   9    1.70    1.38   1
  -5  -1   9    0.77    1.21   1
  -5  -1   9    5.66    2.09   1
  -5  -1   9    2.96    1.55   1
  -5  -1  10    2.28    1.73   1
  -5  -1  10    1.93    1.82   1
  -5  -1  10    4.12    1.73   1
  -5  -1  11    3.91    2.45   1
  -5   0  -7    5.94    3.44   1
  -5   0  -6    3.45    2.82   1
  -5   0  -6    4.60    2.06   1
  -5   0  -5    1.50    1.94   1
  -5   0  -5    1.98    1.77   1
  -5   0  -5    2.80    2.57   1
  -5   0  -4    1.77    1.66   1
  -5   0  -4    2.03    1.83   1
  -5   0  -4    1.19    1.64   1
  -5   0  -4    4.11    2.36   1
  -5   0  -3    1.38    1.17   1
  -5   0  -3    5.09    1.83   1
  -5   0  -3    2.60    1.61   1
  -5   0  -3    5.91    1.90   1
  -5   0  -2   18.01    3.23   1
  -5   0  -2   16.88    2.48   1
  -5   0  -2   14.41    2.29   1
  -5   0  -2   10.21    1.51   1
  -5   0  -1   -0.11    1.32   1
  -5   0  -1    0.64    1.18   1
  -5   0  -1    0.53    1.17   1
  -5   0  -1   -1.57    1.46   1
  -5   0   0   17.39    2.09   1
  -5   0   0   26.13    3.16   1
  -5   0   0   11.93    1.92   1
  -5   0   0   19.53    2.49   1
  -5   0   1   -0.55    0.99   1
  -5   0   1    0.45    2.39   1
  -5   0   1    0.77    1.54   1
  -5   0   2   16.52    2.52   1
  -5   0   2   12.37    1.85   1
  -5   0   2   10.80    1.79   1
  -5   0   3    0.00    1.14   1
  -5   0   3    0.11    0.89   1
  -5   0   3   -0.66    1.21   1
  -5   0   4    4.89    1.35   1
  -5   0   4   10.36    2.61   1
  -5   0   4    7.55    1.68   1
  -5   0   5   16.96    2.26   1
  -5   0   5   24.50    3.26   1
  -5   0   5   24.72    2.62   1
  -5   0   6    2.23    1.55   1
  -5   0   6   -0.23    1.23   1
  -5   0   6    1.28    0.74   1
  -5   0   6    0.34    1.23   1
  -5   0   7   20.08    2.08   1
  -5   0   7   13.60    2.20   1
  -5   0   7   12.35    1.81   1
  -5   0   7   30.97    3.66   1
  -5   0   7   18.87    2.47   1
  -5   0   8    0.56    1.34   1
  -5   0   8    0.00    1.11   1
  -5   0   8    0.96    1.50   1
  -5   0   8    1.36    1.69   1
  -5   0   9   44.00    4.50   1
  -5   0   9   37.52    3.61   1
  -5   0   9   29.57    3.71   1
  -5   0   9   39.87    3.19   1
  -5   0  10    0.76    2.79   1
  -5   0  10    0.65    1.31   1
  -5   0  10    1.28    2.99   1
  -5   0  11    3.28    2.65   1
  -5   0  11    2.58    2.16   1
  -5   1  -7   -1.72    2.05   1
  -5   1  -6   -0.56    1.67   1
  -5   1  -6    0.43    1.83   1
  -5   1  -5    4.52    1.97   1
  -5   1  -5    1.62    1.93   1
  -5   1  -5   -0.33    1.64   1
  -5   1  -4    0.33    1.53   1
  -5   1  -4   -2.44    2.35   1
  -5   1  -4    3.25    2.18   1
  -5   1  -3   16.31    1.92   1
  -5   1  -3   15.97    2.84   1
  -5   1  -3   19.94    2.80   1
  -5   1  -3   25.48    3.75   1
  -5   1  -2    0.55    1.32   1
  -5   1  -2    3.28    1.82   1
  -5   1  -2    0.96    0.95   1
  -5   1  -2    1.52    1.85   1
  -5   1  -1   29.82    2.59   1
  -5   1  -1   45.18    3.79   1
  -5   1  -1   38.17    3.48   1
  -5   1  -1   48.50    5.52   1
  -5   1   0    3.04    1.86   1
  -5   1   0    3.81    1.43   1
  -5   1   0    1.59    1.07   1
  -5   1   0    6.49    1.86   1
  -5   1   1   15.73    2.72   1
  -5   1   1   12.70    1.94   1
  -5   1   2    0.87    0.98   1
  -5   1   2    0.99    1.31   1
  -5   1   2    3.09    1.50   1
  -5   1   3   28.35    3.19   1
  -5   1   3   22.06    2.17   1
  -5   1   3   20.40    2.09   1
  -5   1   4   49.35    4.97   1
  -5   1   4   42.66    3.30   1
  -5   1   4   42.95    4.01   1
  -5   1   5    2.90    0.90   1
  -5   1   5    4.66    1.61   1
  -5   1   5    3.13    1.12   1
  -5   1   6   22.23    2.51   1
  -5   1   6   22.32    2.31   1
  -5   1   6   27.88    3.15   1
  -5   1   6   14.77    1.50   1
  -5   1   7    6.57    2.43   1
  -5   1   7    7.01    1.80   1
  -5   1   7    8.14    1.34   1
  -5   1   7    6.37    1.02   1
  -5   1   8   23.60    3.71   1
  -5   1   8   40.38    4.46   1
  -5   1   8   27.12    2.55   1
  -5   1   8   24.83    2.97   1
  -5   1   9    2.03    2.77   1
  -5   1   9   -0.45    1.78   1
  -5   1  10    3.55    2.38   1
  -5   1  10    9.55    2.74   1
  -5   2  -7    3.03    2.61   1
  -5   2  -6    2.82    2.17   1
  -5   2  -6    5.87    2.65   1
  -5   2  -5    0.57    1.91   1
  -5   2  -5    1.32    1.87   1
  -5   2  -5    0.33    1.85   1
  -5   2  -4    1.52    1.41   1
  -5   2  -4   -0.43    1.63   1
  -5   2  -4   -0.57    1.71   1
  -5   2  -3   -1.25    1.72   1
  -5   2  -3    0.87    1.96   1
  -5   2  -3    1.85    1.53   1
  -5   2  -2   21.64    2.63   1
  -5   2  -2   30.53    4.02   1
  -5   2  -2   17.57    2.64   1
  -5   2  -2   18.34    1.52   1
  -5   2  -1   23.66    3.56   1
  -5   2  -1   18.75    2.28   1
  -5   2  -1   14.47    2.24   1
  -5   2   0   60.84    5.39   1
  -5   2   0   35.52    3.27   1
  -5   2   0   37.21    3.22   1
  -5   2   0   23.30    1.99   1
  -5   2   1    2.97    2.13   1
  -5   2   1    5.64    1.36   1
  -5   2   1    4.18    1.85   1
  -5   2   1    3.60    1.45   1
  -5   2   2   61.51    6.15   1
  -5   2   2  103.31    6.26   1
  -5   2   2  104.29    6.08   1
  -5   2   2  133.07   10.17   1
  -5   2   3    7.21    1.15   1
  -5   2   3    8.30    2.66   1
  -5   2   3    7.94    1.27   1
  -5   2   4   23.43    2.29   1
  -5   2   4   22.73    2.15   1
  -5   2   4   36.03    4.00   1
  -5   2   5   -0.46    2.07   1
  -5   2   5    1.72    0.82   1
  -5   2   5    0.00    1.06   1
  -5   2   5    1.50    0.82   1
  -5   2   6    1.79    2.42   1
  -5   2   6    3.02    0.77   1
  -5   2   6    8.50    2.62   1
  -5   2   6    2.59    0.68   1
  -5   2   7   14.93    2.72   1
  -5   2   7    5.95    2.21   1
  -5   2   8    1.58    2.60   1
  -5   2   8   -0.32    2.02   1
  -5   2   9    7.26    3.11   1
  -5   2   9   15.93    2.47   1
  -5   2   9    7.88    2.57   1
  -5   2  10    0.63    2.01   1
  -5   3  -7    5.66    2.48   1
  -5   3  -6   -0.12    2.17   1
  -5   3  -5    3.83    2.42   1
  -5   3  -5   11.23    2.71   1
  -5   3  -4   14.51    2.77   1
  -5   3  -4    7.91    2.42   1
  -5   3  -4    1.64    2.20   1
  -5   3  -3   25.72    3.60   1
  -5   3  -3   14.56    2.90   1
  -5   3  -3   21.04    3.58   1
  -5   3  -2   -1.36    1.58   1
  -5   3  -2   -0.45    1.34   1
  -5   3  -2   -1.04    1.73   1
  -5   3  -1   12.26    1.78   1
  -5   3  -1    6.32    2.03   1
  -5   3  -1    9.32    2.48   1
  -5   3   0   -1.39    1.29   1
  -5   3   0    0.67    1.01   1
  -5   3   0    1.02    1.59   1
  -5   3   0    1.14    1.48   1
  -5   3   1   14.14    2.71   1
  -5   3   1   12.25    1.79   1
  -5   3   1    9.92    2.02   1
  -5   3   1   12.55    1.34   1
  -5   3   1   10.06    1.69   1
  -5   3   2   10.04    1.47   1
  -5   3   2    8.66    1.82   1
  -5   3   2   10.71    1.46   1
  -5   3   2   15.31    2.81   1
  -5   3   2   11.28    1.70   1
  -5   3   3   11.59    2.23   1
  -5   3   3   12.61    1.42   1
  -5   3   3    9.41    1.55   1
  -5   3   3   10.76    1.82   1
  -5   3   4   19.76    3.29   1
  -5   3   4   16.08    1.50   1
  -5   3   4   14.45    2.02   1
  -5   3   4   15.90    1.49   1
  -5   3   5   12.41    2.39   1
  -5   3   5    6.01    1.66   1
  -5   3   5    3.40    0.83   1
  -5   3   6   10.19    2.24   1
  -5   3   6    4.99    1.88   1
  -5   3   6    5.41    2.20   1
  -5   3   7    1.93    1.73   1
  -5   3   7    0.84    2.21   1
  -5   3   7    0.11    1.67   1
  -5   3   8    2.76    1.71   1
  -5   3   8    6.47    2.89   1
  -5   3   8    5.58    2.27   1
  -5   3   9    3.29    2.05   1
  -5   3   9    2.96    2.98   1
  -5   3  10   -0.53    2.56   1
  -5   4  -6    0.00    1.10   1
  -5   4  -6    5.35    2.96   1
  -5   4  -5    7.35    3.03   1
  -5   4  -5    9.87    3.44   1
  -5   4  -4    4.04    1.91   1
  -5   4  -4    4.70    2.70   1
  -5   4  -4    7.55    3.52   1
  -5   4  -3   -0.79    1.91   1
  -5   4  -3    0.57    1.92   1
  -5   4  -3    0.00    1.11   1
  -5   4  -2    1.67    1.67   1
  -5   4  -2    4.56    2.12   1
  -5   4  -2    0.89    1.34   1
  -5   4  -1   -0.34    1.23   1
  -5   4  -1    2.78    2.00   1
  -5   4  -1    1.77    1.43   1
  -5   4   0    4.88    1.44   1
  -5   4   0    4.97    1.45   1
  -5   4   0    8.44    2.45   1
  -5   4   1    3.97    1.21   1
  -5   4   1   15.35    3.21   1
  -5   4   1    4.71    1.64   1
  -5   4   2    6.72    1.08   1
  -5   4   2   13.80    2.88   1
  -5   4   3   12.43    1.41   1
  -5   4   3   25.89    4.16   1
  -5   4   4    0.44    1.00   1
  -5   4   4    3.53    2.96   1
  -5   4   5    8.48    3.42   1
  -5   4   5    8.91    2.35   1
  -5   4   5   14.17    3.01   1
  -5   4   6    1.47    2.26   1
  -5   4   6    0.22    2.00   1
  -5   4   6   -1.92    1.92   1
  -5   4   7   11.92    3.35   1
  -5   4   7   17.84    3.12   1
  -5   4   7    9.73    2.32   1
  -5   4   8    4.78    3.29   1
  -5   4   8    3.62    2.71   1
  -5   5  -5    7.01    3.15   1
  -5   5  -4   -2.13    2.13   1
  -5   5  -3   31.41    4.72   1
  -5   5  -2   -1.54    3.31   1
  -5   5  -1   12.45    3.78   1
  -5   5   0    1.10    1.98   1
  -5   5   1    4.60    3.05   1
  -5   5   2   25.82    3.72   1
  -5   5   3   -1.85    2.07   1
  -5   5   4   32.04    4.50   1
  -5   5   5    0.54    1.51   1
  -5   5   5    2.85    2.51   1
  -5   5   6   18.17    3.35   1
  -5   5   6   39.32    4.60   1
  -5   5   7    0.78    2.76   1
  -5   5   7   -0.63    2.98   1
  -5   6  -2    6.93    2.76   1
  -5   6  -1    1.10    2.75   1
  -5   6   0   21.97    4.51   1
  -5   6   1    5.57    2.86   1
  -5   6   2    4.02    2.60   1
  -5   6   3    7.71    3.07   1
  -5   6   4   -1.73    3.69   1
  -4  -7   3    7.05    3.07   1
  -4  -7   4   -1.69    2.23   1
  -4  -6  -2    5.26    3.43   1
  -4  -6  -1   12.84    2.90   1
  -4  -6   0    3.57    2.40   1
  -4  -6   1   12.35    3.79   1
  -4  -6   2   10.28    2.59   1
  -4  -6   3   -0.54    2.79   1
  -4  -6   4    5.73    3.31   1
  -4  -6   5   -0.54    1.92   1
  -4  -6   6   13.75    2.99   1
  -4  -6   7    0.32    3.22   1
  -4  -6   8    2.34    3.42   1
  -4  -5  -4   12.25    2.96   1
  -4  -5  -3   -1.18    2.05   1
  -4  -5  -2    4.85    2.15   1
  -4  -5  -2    2.46    2.70   1
  -4  -5  -2    2.27    2.07   1
  -4  -5  -1    1.37    1.24   1
  -4  -5  -1    2.37    2.14   1
  -4  -5   0   14.15    3.05   1
  -4  -5   0   12.16    2.16   1
  -4  -5   0   21.09    3.34   1
  -4  -5   1   22.53    3.64   1
  -4  -5   1   12.18    1.78   1
  -4  -5   1   16.42    2.60   1
  -4  -5   2    4.36    2.03   1
  -4  -5   2   10.14    2.11   1
  -4  -5   3    7.55    2.89   1
  -4  -5   3    8.66    2.37   1
  -4  -5   4    1.38    1.60   1
  -4  -5   4    1.29    2.34   1
  -4  -5   5    4.57    2.78   1
  -4  -5   5    4.05    1.91   1
  -4  -5   6    1.07    1.81   1
  -4  -5   6    3.08    2.98   1
  -4  -5   7    2.87    2.24   1
  -4  -5   7    2.98    2.78   1
  -4  -5   8   12.66    3.31   1
  -4  -5   9    1.07    3.00   1
  -4  -5   9    0.32    1.61   1
  -4  -5  10    2.34    2.34   1
  -4  -4  -6    2.67    3.31   1
  -4  -4  -5    5.55    3.11   1
  -4  -4  -4    2.24    1.92   1
  -4  -4  -4    2.47    2.66   1
  -4  -4  -3    5.28    1.98   1
  -4  -4  -3    4.82    2.14   1
  -4  -4  -3    5.58    2.59   1
  -4  -4  -2    3.23    2.06   1
  -4  -4  -2    3.42    1.67   1
  -4  -4  -2    4.95    2.68   1
  -4  -4  -1   11.71    2.63   1
  -4  -4  -1   10.67    1.86   1
  -4  -4  -1   15.70    2.64   1
  -4  -4  -1    8.93    2.16   1
  -4  -4   0    7.35    2.12   1
  -4  -4   0    9.09    2.26   1
  -4  -4   0    9.17    1.54   1
  -4  -4   0   11.14    2.29   1
  -4  -4   1    6.99    1.92   1
  -4  -4   1    4.39    2.35   1
  -4  -4   1    3.29    2.25   1
  -4  -4   2   13.38    2.80   1
  -4  -4   2   22.16    2.82   1
  -4  -4   2   17.21    2.15   1
  -4  -4   3    0.11    1.95   1
  -4  -4   3    2.24    1.61   1
  -4  -4   3    3.61    1.69   1
  -4  -4   3    1.80    2.03   1
  -4  -4   4   12.50    1.19   1
  -4  -4   4   19.81    2.85   1
  -4  -4   4   12.42    2.11   1
  -4  -4   4   12.77    2.14   1
  -4  -4   5    3.42    1.60   1
  -4  -4   5    4.48    1.79   1
  -4  -4   6   22.22    3.22   1
  -4  -4   6   26.50    3.51   1
  -4  -4   7   25.47    3.24   1
  -4  -4   7   22.83    3.46   1
  -4  -4   8    1.81    2.14   1
  -4  -4   8    1.07    1.93   1
  -4  -4   9    8.16    3.13   1
  -4  -4   9    8.04    2.58   1
  -4  -4  10    3.93    2.66   1
  -4  -4  10    1.18    2.04   1
  -4  -4  11    3.84    2.02   1
  -4  -4  11    4.88    3.60   1
  -4  -3  -7    1.18    2.37   1
  -4  -3  -5    0.42    1.91   1
  -4  -3  -5    1.92    2.55   1
  -4  -3  -4    2.47    2.47   1
  -4  -3  -4    4.36    2.03   1
  -4  -3  -3    1.70    1.70   1
  -4  -3  -3    5.77    2.34   1
  -4  -3  -3    4.56    2.12   1
  -4  -3  -2   -0.55    1.41   1
  -4  -3  -2   -0.64    2.05   1
  -4  -3  -2   -0.22    2.14   1
  -4  -3  -1   18.28    2.64   1
  -4  -3  -1   30.81    3.12   1
  -4  -3  -1   39.44    4.06   1
  -4  -3   0    3.79    1.95   1
  -4  -3   0    2.33    1.92   1
  -4  -3   0    0.98    1.42   1
  -4  -3   1   98.48    7.78   1
  -4  -3   1  159.37    9.71   1
  -4  -3   1  110.28    7.37   1
  -4  -3   1  171.40   10.61   1
  -4  -3   2   -0.22    1.84   1
  -4  -3   2    0.42    1.17   1
  -4  -3   2    0.76    1.19   1
  -4  -3   3   73.55    5.50   1
  -4  -3   3   55.70    4.62   1
  -4  -3   3   87.08    5.21   1
  -4  -3   4    3.09    1.38   1
  -4  -3   4    5.22    1.79   1
  -4  -3   5   62.71    6.06   1
  -4  -3   5   64.52    4.32   1
  -4  -3   6   16.35    1.43   1
  -4  -3   6   17.65    2.35   1
  -4  -3   6   15.95    2.56   1
  -4  -3   6   10.52    2.14   1
  -4  -3   7    2.85    2.02   1
  -4  -3   7    5.78    0.65   1
  -4  -3   7    5.76    1.69   1
  -4  -3   7    4.07    2.05   1
  -4  -3   8   20.56    2.91   1
  -4  -3   8   17.93    2.89   1
  -4  -3   9    2.13    2.15   1
  -4  -3   9    2.78    1.93   1
  -4  -3  10   16.34    3.83   1
  -4  -3  10   20.50    3.09   1
  -4  -3  10   17.53    3.64   1
  -4  -3  11   -1.69    2.01   1
  -4  -3  11   -0.84    2.85   1
  -4  -3  11    0.42    2.01   1
  -4  -3  12    5.34    2.67   1
  -4  -3  12    7.00    2.78   1
  -4  -2  -8    0.76    2.25   1
  -4  -2  -7    6.14    3.44   1
  -4  -2  -6    7.32    2.24   1
  -4  -2  -5   40.81    4.37   1
  -4  -2  -5   34.71    4.15   1
  -4  -2  -5   24.09    3.96   1
  -4  -2  -4   27.85    3.39   1
  -4  -2  -4   16.63    2.69   1
  -4  -2  -4   23.66    3.02   1
  -4  -2  -3   19.69    2.84   1
  -4  -2  -3   32.55    3.54   1
  -4  -2  -3   19.27    3.00   1
  -4  -2  -2   12.17    2.46   1
  -4  -2  -2   11.29    2.22   1
  -4  -2  -2   13.82    2.16   1
  -4  -2  -1   54.59    4.62   1
  -4  -2  -1   40.41    3.80   1
  -4  -2  -1   32.63    3.77   1
  -4  -2  -1   59.30    4.61   1
  -4  -2  -1   51.41    4.33   1
  -4  -2   0   56.16    4.94   1
  -4  -2   0   84.85    5.00   1
  -4  -2   0   72.98    6.42   1
  -4  -2   0   59.02    4.28   1
  -4  -2   0   86.61    5.21   1
  -4  -2   1    0.00    1.07   1
  -4  -2   1    0.22    1.10   1
  -4  -2   1    0.55    1.64   1
  -4  -2   1   -0.92    2.20   1
  -4  -2   1   -0.84    1.06   1
  -4  -2   2   81.74    4.89   1
  -4  -2   2   48.49    4.60   1
  -4  -2   2   80.63    5.27   1
  -4  -2   2   81.18    5.81   1
  -4  -2   3    0.54    1.08   1
  -4  -2   3    1.60    1.60   1
  -4  -2   3    0.58    1.40   1
  -4  -2   4  174.44    9.03   1
  -4  -2   4  189.12    9.42   1
  -4  -2   4  160.23    8.65   1
  -4  -2   5   11.12    1.73   1
  -4  -2   5   12.99    1.94   1
  -4  -2   5    6.67    1.28   1
  -4  -2   5   13.50    2.03   1
  -4  -2   6   59.45    5.11   1
  -4  -2   6   50.33    3.07   1
  -4  -2   6   59.93    4.01   1
  -4  -2   6   45.44    3.75   1
  -4  -2   7    3.87    1.18   1
  -4  -2   7    3.10    1.39   1
  -4  -2   7    4.92    1.84   1
  -4  -2   7    3.71    1.71   1
  -4  -2   8    4.48    1.79   1
  -4  -2   8    7.43    1.41   1
  -4  -2   8    4.33    1.21   1
  -4  -2   8    7.32    2.13   1
  -4  -2   9    4.78    1.18   1
  -4  -2   9    4.75    1.63   1
  -4  -2   9    5.50    2.14   1
  -4  -2  10    0.84    2.44   1
  -4  -2  10    0.32    1.72   1
  -4  -2  10    0.22    2.78   1
  -4  -2  10    0.54    1.29   1
  -4  -2  11   14.28    3.58   1
  -4  -2  11    7.56    2.16   1
  -4  -2  11   15.18    3.54   1
  -4  -2  12    4.02    2.56   1
  -4  -2  12    5.36    2.25   1
  -4  -1  -8   11.44    4.00   1
  -4  -1  -7   -0.33    1.73   1
  -4  -1  -6   43.11    4.91   1
  -4  -1  -6   41.22    4.80   1
  -4  -1  -6   31.22    4.40   1
  -4  -1  -5    4.94    1.94   1
  -4  -1  -5    4.28    1.63   1
  -4  -1  -5    6.79    1.84   1
  -4  -1  -4   37.21    3.92   1
  -4  -1  -4   32.49    3.01   1
  -4  -1  -4   24.81    3.09   1
  -4  -1  -4   32.79    3.45   1
  -4  -1  -3    5.94    1.62   1
  -4  -1  -3    1.82    1.82   1
  -4  -1  -3    5.49    2.24   1
  -4  -1  -3    1.07    1.49   1
  -4  -1  -2   50.67    4.14   1
  -4  -1  -2   38.39    3.96   1
  -4  -1  -2   38.19    3.70   1
  -4  -1  -2   65.55    4.83   1
  -4  -1  -2   45.21    4.05   1
  -4  -1  -1   48.51    4.06   1
  -4  -1  -1   36.59    3.62   1
  -4  -1  -1   52.49    4.53   1
  -4  -1  -1   41.49    3.19   1
  -4  -1  -1   74.52    5.17   1
  -4  -1   0    7.32    1.41   1
  -4  -1   0    4.48    1.49   1
  -4  -1   0   11.18    2.52   1
  -4  -1   0    6.45    1.43   1
  -4  -1   0    4.35    1.16   1
  -4  -1   1   75.19    4.54   1
  -4  -1   1  104.48    5.31   1
  -4  -1   1   68.97    5.21   1
  -4  -1   1   44.67    4.00   1
  -4  -1   2   -0.59    1.76   1
  -4  -1   2    0.99    0.98   1
  -4  -1   2   -1.21    0.99   1
  -4  -1   2    0.84    0.95   1
  -4  -1   3   73.00    4.63   1
  -4  -1   3   87.48    5.07   1
  -4  -1   3   64.20    5.01   1
  -4  -1   4   22.64    2.89   1
  -4  -1   4    7.65    1.38   1
  -4  -1   4    6.57    0.95   1
  -4  -1   4    8.84    1.61   1
  -4  -1   5   27.20    2.15   1
  -4  -1   5   41.25    2.94   1
  -4  -1   5   56.80    3.89   1
  -4  -1   5   41.65    3.09   1
  -4  -1   6   61.12    3.41   1
  -4  -1   6   38.66    3.33   1
  -4  -1   6   45.39    3.19   1
  -4  -1   6   63.03    4.39   1
  -4  -1   6   50.57    3.99   1
  -4  -1   7    2.12    0.96   1
  -4  -1   7    5.93    1.80   1
  -4  -1   7    1.82    1.07   1
  -4  -1   7    1.71    1.39   1
  -4  -1   7    3.30    1.05   1
  -4  -1   8   21.62    2.60   1
  -4  -1   8   32.66    3.09   1
  -4  -1   8   26.87    2.94   1
  -4  -1   8   29.31    2.70   1
  -4  -1   9    1.19    1.18   1
  -4  -1   9    0.64    1.40   1
  -4  -1   9    1.08    1.51   1
  -4  -1  10   19.79    2.86   1
  -4  -1  10   21.01    2.76   1
  -4  -1  10   14.61    3.15   1
  -4  -1  10   28.81    3.01   1
  -4  -1  10   19.01    2.70   1
  -4  -1  11    7.09    2.15   1
  -4  -1  11    4.17    1.48   1
  -4  -1  11    8.07    2.34   1
  -4  -1  12    2.22    3.71   1
  -4   0  -9   -0.22    2.28   1
  -4   0  -8    3.65    3.14   1
  -4   0  -7   11.99    2.38   1
  -4   0  -7    7.48    2.16   1
  -4   0  -6    9.57    2.19   1
  -4   0  -6    9.21    2.15   1
  -4   0  -6   15.85    2.43   1
  -4   0  -6    8.44    2.30   1
  -4   0  -5   14.51    2.57   1
  -4   0  -5   10.56    2.02   1
  -4   0  -5    9.14    2.08   1
  -4   0  -5    9.91    2.49   1
  -4   0  -4   22.11    3.24   1
  -4   0  -4   24.12    2.97   1
  -4   0  -4   34.73    4.11   1
  -4   0  -4   22.88    2.58   1
  -4   0  -3   56.25    4.37   1
  -4   0  -3   58.79    4.95   1
  -4   0  -3   74.40    5.12   1
  -4   0  -3   43.12    3.67   1
  -4   0  -2   25.01    3.20   1
  -4   0  -2   44.40    3.33   1
  -4   0  -2   43.72    3.30   1
  -4   0  -2   34.96    2.93   1
  -4   0  -1   36.00    2.60   1
  -4   0  -1   37.89    3.33   1
  -4   0  -1   46.97    3.43   1
  -4   0  -1   32.72    3.18   1
  -4   0  -1   65.12    4.48   1
  -4   0   0   20.06    2.13   1
  -4   0   0   45.13    3.18   1
  -4   0   0   31.28    3.15   1
  -4   0   0   33.91    2.67   1
  -4   0   0   23.13    2.08   1
  -4   0   1   10.94    2.00   1
  -4   0   1    9.71    1.31   1
  -4   0   1    7.49    1.67   1
  -4   0   1    6.28    1.19   1
  -4   0   2   12.84    2.24   1
  -4   0   2   14.48    1.76   1
  -4   0   2   10.69    1.44   1
  -4   0   3   86.14    4.88   1
  -4   0   3   83.80    5.39   1
  -4   0   3   98.71    6.20   1
  -4   0   4   77.20    4.79   1
  -4   0   4  103.43    6.33   1
  -4   0   4   78.68    4.09   1
  -4   0   4   56.50    3.40   1
  -4   0   5  221.08   10.88   1
  -4   0   5  217.67    9.87   1
  -4   0   5  298.36   13.29   1
  -4   0   6   11.94    1.92   1
  -4   0   6   22.71    2.55   1
  -4   0   6   14.57    1.76   1
  -4   0   6   22.44    1.78   1
  -4   0   7   54.79    4.43   1
  -4   0   7   62.80    4.64   1
  -4   0   7   71.89    4.25   1
  -4   0   7   82.05    6.36   1
  -4   0   8   12.68    2.04   1
  -4   0   8    7.38    2.02   1
  -4   0   8   10.90    1.52   1
  -4   0   8    8.74    1.54   1
  -4   0   9   31.50    3.81   1
  -4   0   9   38.68    3.34   1
  -4   0   9   27.46    3.24   1
  -4   0   9   46.66    3.85   1
  -4   0   9   45.04    4.31   1
  -4   0   9   49.18    4.73   1
  -4   0   9   37.34    3.96   1
  -4   0  10    3.17    1.80   1
  -4   0  10    2.14    1.73   1
  -4   0  10    4.21    1.50   1
  -4   0  10    2.92    1.32   1
  -4   0  11    3.70    2.22   1
  -4   1  -9    1.31    1.95   1
  -4   1  -8    7.38    2.60   1
  -4   1  -7    1.61    1.83   1
  -4   1  -7    1.20    2.60   1
  -4   1  -7    1.76    1.98   1
  -4   1  -6    7.61    2.07   1
  -4   1  -6    7.44    1.78   1
  -4   1  -6    2.37    1.73   1
  -4   1  -5   12.75    2.57   1
  -4   1  -5   10.43    1.82   1
  -4   1  -5    8.82    1.98   1
  -4   1  -4    0.43    1.30   1
  -4   1  -4    0.43    1.19   1
  -4   1  -4    1.51    0.64   1
  -4   1  -4    2.15    1.47   1
  -4   1  -3   89.16    6.66   1
  -4   1  -3   68.30    4.66   1
  -4   1  -3   49.32    3.35   1
  -4   1  -3   52.87    4.25   1
  -4   1  -3   40.28    4.06   1
  -4   1  -2    0.22    0.75   1
  -4   1  -2    0.00    1.06   1
  -4   1  -2    0.99    1.10   1
  -4   1  -2    1.04    1.37   1
  -4   1  -2    0.22    0.99   1
  -4   1  -1  236.24   11.24   1
  -4   1  -1  170.21   10.76   1
  -4   1  -1  190.74    8.26   1
  -4   1  -1  339.71   17.87   1
  -4   1  -1  252.30   11.95   1
  -4   1   0    4.35    1.16   1
  -4   1   0    7.55    1.21   1
  -4   1   0   10.91    2.15   1
  -4   1   0    6.03    1.08   1
  -4   1   1  178.01    7.53   1
  -4   1   1  120.21    7.46   1
  -4   1   1  232.90   13.53   1
  -4   1   1  181.98    7.62   1
  -4   1   2    0.33    0.66   1
  -4   1   2    0.93    1.27   1
  -4   1   2    0.11    1.00   1
  -4   1   3  111.87    6.23   1
  -4   1   3  138.38    8.92   1
  -4   1   3  118.42    5.72   1
  -4   1   4  121.31    8.32   1
  -4   1   4   94.21    5.34   1
  -4   1   4   92.15    5.68   1
  -4   1   5    3.02    0.77   1
  -4   1   5    2.30    1.14   1
  -4   1   5    3.24    0.69   1
  -4   1   6  108.79    5.10   1
  -4   1   6   75.87    5.73   1
  -4   1   6  135.74    9.22   1
  -4   1   6  108.08    5.97   1
  -4   1   7    2.72    0.81   1
  -4   1   7    3.07    1.70   1
  -4   1   7    7.03    0.90   1
  -4   1   7    5.39    1.39   1
  -4   1   8   93.18    4.39   1
  -4   1   8  138.10   10.55   1
  -4   1   8   92.14    5.16   1
  -4   1   8   82.66    7.32   1
  -4   1   8  109.28    5.55   1
  -4   1   8  110.64    6.48   1
  -4   1   9    0.23    0.90   1
  -4   1   9   -0.34    0.57   1
  -4   1   9    0.11    1.40   1
  -4   1   9    0.45    0.67   1
  -4   1  10   19.01    2.89   1
  -4   1  10   18.77    3.39   1
  -4   1  10   15.63    3.52   1
  -4   1  11    0.32    2.37   1
  -4   1  12   -1.90    2.63   1
  -4   2  -9    3.02    2.17   1
  -4   2  -8    3.24    2.69   1
  -4   2  -7    9.78    2.57   1
  -4   2  -7    7.14    2.06   1
  -4   2  -7   11.99    3.67   1
  -4   2  -6   11.93    2.59   1
  -4   2  -6   21.61    3.16   1
  -4   2  -6   10.07    2.38   1
  -4   2  -5    3.03    1.52   1
  -4   2  -5    1.72    2.16   1
  -4   2  -5    3.76    2.40   1
  -4   2  -4   31.61    3.28   1
  -4   2  -4   24.11    3.15   1
  -4   2  -4   31.37    3.39   1
  -4   2  -4   54.83    4.92   1
  -4   2  -3   15.04    1.95   1
  -4   2  -3    8.00    1.81   1
  -4   2  -3   11.90    2.09   1
  -4   2  -3   17.53    2.79   1
  -4   2  -2  135.43    5.57   1
  -4   2  -2  140.84    8.21   1
  -4   2  -2  151.81    9.56   1
  -4   2  -2  235.83   13.19   1
  -4   2  -2  103.90    7.78   1
  -4   2  -1    1.65    1.00   1
  -4   2  -1    0.45    1.37   1
  -4   2  -1   -0.96    1.60   1
  -4   2  -1    0.54    0.43   1
  -4   2  -1    1.34    1.00   1
  -4   2   0  107.61    5.71   1
  -4   2   0  123.62    5.89   1
  -4   2   0  157.57   11.74   1
  -4   2   0   93.20    5.58   1
  -4   2   1    5.04    2.23   1
  -4   2   1    1.29    1.17   1
  -4   2   1    3.03    1.00   1
  -4   2   1    2.37    0.79   1
  -4   2   2  141.53    6.84   1
  -4   2   2  143.16    6.11   1
  -4   2   2  224.17   10.77   1
  -4   2   3   64.91    4.77   1
  -4   2   3   37.95    2.03   1
  -4   2   3   41.56    3.04   1
  -4   2   3   37.48    2.36   1
  -4   2   4   42.93    2.65   1
  -4   2   4   63.77    5.75   1
  -4   2   4   46.69    2.76   1
  -4   2   5   43.53    4.20   1
  -4   2   5   28.02    2.23   1
  -4   2   5   34.93    1.99   1
  -4   2   6    3.90    1.46   1
  -4   2   6    8.15    1.95   1
  -4   2   7   38.81    4.01   1
  -4   2   7   21.03    3.12   1
  -4   2   8    2.27    1.85   1
  -4   2   8    0.00    1.06   1
  -4   2   8    2.52    1.84   1
  -4   2   8    1.91    1.48   1
  -4   2   9   12.42    2.77   1
  -4   2   9   18.52    2.86   1
  -4   2   9   15.48    2.94   1
  -4   2   9   11.34    2.77   1
  -4   2  10    9.52    2.54   1
  -4   2  10    9.83    2.60   1
  -4   2  11    2.54    2.75   1
  -4   3  -8   17.77    4.21   1
  -4   3  -7    5.65    1.83   1
  -4   3  -7    7.82    2.02   1
  -4   3  -6   11.30    2.53   1
  -4   3  -6   10.13    2.52   1
  -4   3  -6   27.46    3.25   1
  -4   3  -5    0.11    1.33   1
  -4   3  -5    5.16    2.19   1
  -4   3  -5    3.69    1.52   1
  -4   3  -4    9.70    1.82   1
  -4   3  -4   14.26    3.05   1
  -4   3  -4    9.51    1.87   1
  -4   3  -4    5.38    1.73   1
  -4   3  -3   30.66    3.25   1
  -4   3  -3   26.51    2.77   1
  -4   3  -3   42.14    3.67   1
  -4   3  -3   57.44    4.97   1
  -4   3  -2    9.87    1.99   1
  -4   3  -2    6.70    1.63   1
  -4   3  -2    3.31    1.69   1
  -4   3  -2    5.51    1.33   1
  -4   3  -1   55.53    4.15   1
  -4   3  -1  108.75    7.24   1
  -4   3  -1   61.14    4.60   1
  -4   3  -1   67.56    3.97   1
  -4   3   0    6.74    1.31   1
  -4   3   0    7.28    0.45   1
  -4   3   0    7.38    1.63   1
  -4   3   0   12.81    2.40   1
  -4   3   0    9.48    1.23   1
  -4   3   0    7.48    0.57   1
  -4   3   1   99.45    5.22   1
  -4   3   1   95.65    4.85   1
  -4   3   1   89.93    5.37   1
  -4   3   1  169.15    9.81   1
  -4   3   1   93.36    5.06   1
  -4   3   2    9.57    0.97   1
  -4   3   2   16.25    2.11   1
  -4   3   2   10.90    1.17   1
  -4   3   2    8.20    0.96   1
  -4   3   3   31.34    2.07   1
  -4   3   3   28.39    2.11   1
  -4   3   3   31.91    2.12   1
  -4   3   3   27.54    2.10   1
  -4   3   3   42.00    4.34   1
  -4   3   4   27.78    3.76   1
  -4   3   4   16.88    1.99   1
  -4   3   5    0.33    1.10   1
  -4   3   5    2.64    2.22   1
  -4   3   5    0.75    1.92   1
  -4   3   6   17.82    2.52   1
  -4   3   6   13.72    2.40   1
  -4   3   6   29.23    3.41   1
  -4   3   7    9.84    1.78   1
  -4   3   7    4.45    1.85   1
  -4   3   7    7.04    2.24   1
  -4   3   7    1.38    1.91   1
  -4   3   8   23.53    3.95   1
  -4   3   8   24.85    3.19   1
  -4   3   8   23.76    3.11   1
  -4   3   8   42.73    4.16   1
  -4   3   9    9.41    2.68   1
  -4   3   9    7.44    2.42   1
  -4   3   9   19.95    2.97   1
  -4   3  10    2.64    3.18   1
  -4   3  11    1.68    2.43   1
  -4   4  -7    5.42    2.20   1
  -4   4  -6   14.77    2.70   1
  -4   4  -5   10.93    2.42   1
  -4   4  -5   14.66    3.15   1
  -4   4  -4   33.28    4.00   1
  -4   4  -4   20.85    3.25   1
  -4   4  -4   21.91    2.94   1
  -4   4  -3    4.05    1.43   1
  -4   4  -3    7.39    2.11   1
  -4   4  -3    1.33    1.33   1
  -4   4  -3    2.48    1.73   1
  -4   4  -2   12.87    1.96   1
  -4   4  -2   20.77    2.77   1
  -4   4  -2   11.12    1.68   1
  -4   4  -2    7.58    1.48   1
  -4   4  -1    4.69    1.31   1
  -4   4  -1    8.68    1.28   1
  -4   4  -1   14.68    2.97   1
  -4   4  -1    5.15    1.33   1
  -4   4   0    5.37    1.49   1
  -4   4   0    6.45    1.96   1
  -4   4   1   28.12    3.07   1
  -4   4   1   41.84    2.55   1
  -4   4   1   72.72    6.23   1
  -4   4   2   12.21    1.38   1
  -4   4   2   11.95    1.35   1
  -4   4   2   26.01    3.19   1
  -4   4   3  135.73    9.48   1
  -4   4   3   94.88    6.82   1
  -4   4   3   89.92    5.76   1
  -4   4   4    1.97    1.41   1
  -4   4   4    2.24    0.86   1
  -4   4   4    5.86    1.97   1
  -4   4   4    2.22    1.81   1
  -4   4   5   30.78    3.03   1
  -4   4   5   27.35    3.34   1
  -4   4   5   28.54    2.98   1
  -4   4   5   59.77    5.17   1
  -4   4   6   -0.43    2.17   1
  -4   4   6    2.11    2.01   1
  -4   4   6    0.11    2.01   1
  -4   4   6    0.32    1.17   1
  -4   4   7   39.95    4.10   1
  -4   4   7   20.30    2.88   1
  -4   4   7   10.20    2.61   1
  -4   4   8    1.85    2.07   1
  -4   4   8    9.27    2.30   1
  -4   4   8    6.58    2.75   1
  -4   4   9    1.48    2.13   1
  -4   5  -7    5.41    3.26   1
  -4   5  -6    0.33    2.45   1
  -4   5  -5   18.83    3.09   1
  -4   5  -4    1.74    1.96   1
  -4   5  -3   39.64    5.00   1
  -4   5  -2    9.31    2.87   1
  -4   5  -1   23.30    3.73   1
  -4   5   0   12.50    2.73   1
  -4   5   1   33.55    3.74   1
  -4   5   2   36.03    3.34   1
  -4   5   2   38.82    3.24   1
  -4   5   2   55.90    5.45   1
  -4   5   3    0.64    0.75   1
  -4   5   3    0.55    1.31   1
  -4   5   3   -0.11    1.40   1
  -4   5   3   -0.43    2.49   1
  -4   5   3    0.42    1.48   1
  -4   5   4   27.28    3.45   1
  -4   5   4   26.21    3.38   1
  -4   5   4   41.73    5.65   1
  -4   5   4   24.50    3.10   1
  -4   5   4   23.50    3.01   1
  -4   5   5   -1.43    1.99   1
  -4   5   5    0.32    1.81   1
  -4   5   5    1.59    1.70   1
  -4   5   5    0.22    1.08   1
  -4   5   5   -0.22    2.74   1
  -4   5   6   27.57    3.58   1
  -4   5   6   27.89    3.51   1
  -4   5   6   24.71    3.34   1
  -4   5   6   42.38    4.89   1
  -4   5   7   -2.11    2.66   1
  -4   5   7    0.00    1.07   1
  -4   5   7    0.86    2.17   1
  -4   5   8   11.07    2.72   1
  -4   5   8    6.94    2.34   1
  -4   6  -5   -1.09    2.19   1
  -4   6  -4   41.86    5.41   1
  -4   6  -3    0.00    1.09   1
  -4   6  -2   14.21    2.75   1
  -4   6  -1   -0.86    1.96   1
  -4   6   0   10.64    2.31   1
  -4   6   1   18.40    3.75   1
  -4   6   1   11.02    2.88   1
  -4   6   2    1.17    2.03   1
  -4   6   2   -0.54    1.39   1
  -4   6   2    1.94    2.06   1
  -4   6   3   17.02    3.23   1
  -4   6   3   18.39    4.11   1
  -4   6   4    0.00    1.08   1
  -4   6   4    3.53    2.45   1
  -4   6   5   17.40    3.74   1
  -4   6   5   14.35    2.90   1
  -4   6   6   -0.43    3.47   1
  -4   6   6    0.97    2.58   1
  -4   7  -2    1.52    3.81   1
  -4   7  -1   17.88    3.62   1
  -4   7   0    2.61    2.59   1
  -4   7   1    7.27    2.92   1
  -4   7   2    0.55    2.62   1
  -4   7   3    2.06    2.60   1
  -3  -7  -1    6.26    2.70   1
  -3  -7   0    0.85    2.35   1
  -3  -7   1    8.44    2.34   1
  -3  -7   2    2.56    2.88   1
  -3  -7   3   23.83    3.93   1
  -3  -7   4   -0.75    2.24   1
  -3  -7   5   18.52    3.73   1
  -3  -7   6   -0.11    3.24   1
  -3  -7   7   10.28    2.92   1
  -3  -6  -4   -1.59    1.69   1
  -3  -6  -3   21.34    3.36   1
  -3  -6  -2   10.04    3.23   1
  -3  -6  -2   15.50    2.94   1
  -3  -6  -1   11.46    3.16   1
  -3  -6  -1   11.67    2.70   1
  -3  -6   0    4.91    2.25   1
  -3  -6   0   14.67    3.09   1
  -3  -6   1   22.21    3.41   1
  -3  -6   1   24.92    3.61   1
  -3  -6   2   32.35    4.23   1
  -3  -6   2   30.61    3.31   1
  -3  -6   3    2.97    1.92   1
  -3  -6   3    1.29    1.83   1
  -3  -6   4   10.83    2.78   1
  -3  -6   4   16.27    2.75   1
  -3  -6   5   -0.32    1.71   1
  -3  -6   5    0.00    1.07   1
  -3  -6   6   19.28    3.27   1
  -3  -6   6    9.74    2.64   1
  -3  -6   7    2.57    2.25   1
  -3  -6   8    4.89    2.33   1
  -3  -6   9    5.03    2.55   1
  -3  -6  10   -2.87    3.74   1
  -3  -5  -6    5.76    2.88   1
  -3  -5  -5   -1.70    2.88   1
  -3  -5  -5   -1.18    1.70   1
  -3  -5  -4   40.48    3.82   1
  -3  -5  -4   48.76    4.91   1
  -3  -5  -3    3.09    1.55   1
  -3  -5  -3    1.82    2.69   1
  -3  -5  -3    3.12    1.72   1
  -3  -5  -2   23.54    2.77   1
  -3  -5  -2   42.86    4.08   1
  -3  -5  -2   33.62    3.62   1
  -3  -5  -1    0.11    1.52   1
  -3  -5  -1    1.66    1.56   1
  -3  -5  -1   -0.32    1.50   1
  -3  -5  -1    2.69    1.84   1
  -3  -5   0   11.42    2.24   1
  -3  -5   0   26.03    2.75   1
  -3  -5   0   15.97    2.48   1
  -3  -5   0   18.18    3.09   1
  -3  -5   0   16.88    2.00   1
  -3  -5   1    9.16    2.25   1
  -3  -5   1    8.60    1.52   1
  -3  -5   1    7.90    2.27   1
  -3  -5   1    8.80    1.31   1
  -3  -5   1   12.93    2.45   1
  -3  -5   2    0.85    1.49   1
  -3  -5   2   -1.69    1.91   1
  -3  -5   2    0.33    0.55   1
  -3  -5   2   -0.11    1.41   1
  -3  -5   2    2.12    1.59   1
  -3  -5   3   28.99    3.11   1
  -3  -5   3   23.73    2.93   1
  -3  -5   3   30.57    3.19   1
  -3  -5   3   23.30    2.60   1
  -3  -5   4    8.21    1.49   1
  -3  -5   4   16.19    2.32   1
  -3  -5   4   12.45    2.55   1
  -3  -5   5   22.16    3.01   1
  -3  -5   5   25.59    3.34   1
  -3  -5   5   17.62    1.91   1
  -3  -5   6    6.94    2.34   1
  -3  -5   6    4.71    1.84   1
  -3  -5   7   10.86    2.59   1
  -3  -5   7   16.31    3.09   1
  -3  -5   8   14.22    2.88   1
  -3  -5   8   23.18    3.28   1
  -3  -5   8   12.48    2.49   1
  -3  -5   9    0.32    1.82   1
  -3  -5   9    0.00    1.07   1
  -3  -5  10    4.80    2.45   1
  -3  -5  10    3.85    2.55   1
  -3  -5  11    0.96    3.72   1
  -3  -4  -7    2.68    2.24   1
  -3  -4  -6    3.43    2.26   1
  -3  -4  -6   -0.85    2.55   1
  -3  -4  -5   10.08    2.36   1
  -3  -4  -5    8.99    2.36   1
  -3  -4  -4    8.45    2.47   1
  -3  -4  -4    8.88    1.91   1
  -3  -4  -4    3.96    1.88   1
  -3  -4  -3    5.64    2.26   1
  -3  -4  -3    8.77    1.85   1
  -3  -4  -3   10.18    2.06   1
  -3  -4  -3    6.21    1.68   1
  -3  -4  -2   43.05    3.59   1
  -3  -4  -2   57.96    4.28   1
  -3  -4  -2   36.73    4.13   1
  -3  -4  -2   55.45    4.49   1
  -3  -4  -1   10.37    2.14   1
  -3  -4  -1    7.34    1.54   1
  -3  -4  -1    3.63    1.38   1
  -3  -4  -1   12.33    2.04   1
  -3  -4  -1    7.88    2.26   1
  -3  -4   0   70.91    4.10   1
  -3  -4   0   53.14    4.52   1
  -3  -4   0  103.39    7.16   1
  -3  -4   0   69.61    5.34   1
  -3  -4   0   85.50    5.94   1
  -3  -4   1    8.14    1.71   1
  -3  -4   1   13.93    2.16   1
  -3  -4   1    7.39    1.80   1
  -3  -4   1    9.75    1.74   1
  -3  -4   1    8.44    1.23   1
  -3  -4   2   82.12    4.41   1
  -3  -4   2   91.78    5.93   1
  -3  -4   2   66.53    4.22   1
  -3  -4   2   75.60    5.04   1
  -3  -4   2   88.25    5.82   1
  -3  -4   3    5.11    1.49   1
  -3  -4   3   10.97    2.12   1
  -3  -4   3    6.22    1.08   1
  -3  -4   3    8.19    0.78   1
  -3  -4   4   17.56    2.42   1
  -3  -4   4    7.68    1.60   1
  -3  -4   4   14.35    2.03   1
  -3  -4   5   16.65    2.44   1
  -3  -4   5   26.87    2.78   1
  -3  -4   5   26.45    2.97   1
  -3  -4   6   31.35    3.12   1
  -3  -4   6   25.62    3.03   1
  -3  -4   6   21.91    2.41   1
  -3  -4   7   66.91    6.59   1
  -3  -4   7   86.01    5.94   1
  -3  -4   8    4.79    1.58   1
  -3  -4   8    6.83    2.05   1
  -3  -4   8    5.74    1.93   1
  -3  -4   9   14.53    2.76   1
  -3  -4   9   23.06    3.37   1
  -3  -4   9   25.50    3.13   1
  -3  -4  10    5.10    2.33   1
  -3  -4  10    6.92    2.55   1
  -3  -4  10    6.08    2.90   1
  -3  -4  11   10.94    2.86   1
  -3  -4  11    6.28    3.10   1
  -3  -4  12    1.06    2.02   1
  -3  -4  12   -1.38    2.32   1
  -3  -3  -8    4.08    2.59   1
  -3  -3  -7   -1.60    2.68   1
  -3  -3  -7    0.97    1.72   1
  -3  -3  -6   14.78    3.35   1
  -3  -3  -6   11.49    2.18   1
  -3  -3  -5    7.70    2.49   1
  -3  -3  -5    8.04    2.05   1
  -3  -3  -5    7.55    2.78   1
  -3  -3  -5   13.05    2.17   1
  -3  -3  -4   31.60    3.40   1
  -3  -3  -4   33.47    4.31   1
  -3  -3  -4   33.36    3.59   1
  -3  -3  -4   33.66    3.47   1
  -3  -3  -3   85.34    6.14   1
  -3  -3  -3   52.39    5.23   1
  -3  -3  -3   76.36    5.45   1
  -3  -3  -2    7.37    1.62   1
  -3  -3  -2   11.59    2.27   1
  -3  -3  -2    5.56    1.61   1
  -3  -3  -2   12.82    2.09   1
  -3  -3  -1   99.62    7.89   1
  -3  -3  -1  125.88    7.01   1
  -3  -3  -1   69.34    5.68   1
  -3  -3  -1   69.73    5.52   1
  -3  -3   0   15.70    1.73   1
  -3  -3   0   16.45    2.27   1
  -3  -3   0    8.97    1.79   1
  -3  -3   0   11.06    1.58   1
  -3  -3   1  191.80    9.74   1
  -3  -3   1  272.79   12.99   1
  -3  -3   1  274.16   13.02   1
  -3  -3   1  225.22   10.24   1
  -3  -3   2   13.76    1.84   1
  -3  -3   2   11.35    1.53   1
  -3  -3   2   14.30    2.03   1
  -3  -3   3  139.76    8.06   1
  -3  -3   3  147.43    6.77   1
  -3  -3   4    5.89    1.80   1
  -3  -3   4    1.48    1.15   1
  -3  -3   4    5.64    1.28   1
  -3  -3   5   97.72    3.72   1
  -3  -3   5   93.48    5.59   1
  -3  -3   5   92.89    5.58   1
  -3  -3   5   76.66    4.51   1
  -3  -3   6   28.75    2.66   1
  -3  -3   6   22.48    2.64   1
  -3  -3   6   31.01    2.99   1
  -3  -3   7    6.51    1.27   1
  -3  -3   7    3.41    1.91   1
  -3  -3   7    7.49    1.47   1
  -3  -3   8   22.30    3.03   1
  -3  -3   8   27.12    2.80   1
  -3  -3   9    0.00    1.07   1
  -3  -3   9   -2.33    1.80   1
  -3  -3   9    0.11    1.30   1
  -3  -3  10   18.48    3.72   1
  -3  -3  10   26.36    3.70   1
  -3  -3  10   14.24    2.41   1
  -3  -3  10   13.84    2.84   1
  -3  -3  11    0.11    1.94   1
  -3  -3  11    1.58    2.54   1
  -3  -3  11   -1.17    2.45   1
  -3  -3  12    9.55    3.37   1
  -3  -3  12    1.79    2.65   1
  -3  -3  12    8.37    2.74   1
  -3  -2  -9   19.65    3.76   1
  -3  -2  -8    0.64    1.82   1
  -3  -2  -8   -0.43    2.14   1
  -3  -2  -7   35.99    3.99   1
  -3  -2  -7   26.40    3.94   1
  -3  -2  -7   48.08    5.04   1
  -3  -2  -6   -0.43    1.51   1
  -3  -2  -6   -0.85    1.29   1
  -3  -2  -6    0.22    1.62   1
  -3  -2  -6   -1.08    1.40   1
  -3  -2  -5   66.14    5.57   1
  -3  -2  -5   62.48    5.58   1
  -3  -2  -5   50.12    4.68   1
  -3  -2  -4   38.28    3.59   1
  -3  -2  -4   32.14    3.76   1
  -3  -2  -4   29.06    3.12   1
  -3  -2  -3    8.37    1.74   1
  -3  -2  -3    6.19    1.70   1
  -3  -2  -3    6.41    1.73   1
  -3  -2  -3    8.80    1.85   1
  -3  -2  -2   71.53    5.59   1
  -3  -2  -2  116.00    6.73   1
  -3  -2  -2   72.83    5.11   1
  -3  -2  -2  109.58    6.98   1
  -3  -2  -1   18.36    1.95   1
  -3  -2  -1   23.69    2.74   1
  -3  -2  -1   12.76    1.62   1
  -3  -2  -1   22.09    2.35   1
  -3  -2   0  324.94   13.80   1
  -3  -2   0  315.16   14.68   1
  -3  -2   0  426.45   16.29   1
  -3  -2   0  446.13   18.03   1
  -3  -2   0  469.76   17.60   1
  -3  -2   1    1.71    1.09   1
  -3  -2   1   -1.19    1.18   1
  -3  -2   1    0.85    1.06   1
  -3  -2   1    1.71    2.18   1
  -3  -2   2  219.96    9.82   1
  -3  -2   2  233.36   10.12   1
  -3  -2   2  208.55   10.58   1
  -3  -2   3    1.39    0.85   1
  -3  -2   3    2.04    1.06   1
  -3  -2   3    3.32    1.25   1
  -3  -2   4   66.35    3.54   1
  -3  -2   4   60.11    3.69   1
  -3  -2   4   46.13    3.36   1
  -3  -2   5   14.56    1.82   1
  -3  -2   5   15.53    1.14   1
  -3  -2   5   14.45    1.57   1
  -3  -2   5   17.98    1.75   1
  -3  -2   6    2.66    1.38   1
  -3  -2   6    1.39    1.29   1
  -3  -2   6    1.31    0.64   1
  -3  -2   6    2.77    0.96   1
  -3  -2   7   35.75    3.59   1
  -3  -2   7   36.32    2.99   1
  -3  -2   7   40.16    3.14   1
  -3  -2   7   34.32    2.44   1
  -3  -2   8    4.58    1.73   1
  -3  -2   8    1.29    1.08   1
  -3  -2   9   20.83    2.73   1
  -3  -2   9   11.80    2.55   1
  -3  -2   9   21.78    2.41   1
  -3  -2   9   18.83    2.86   1
  -3  -2  10    0.84    1.48   1
  -3  -2  10    0.00    1.06   1
  -3  -2  10   -0.32    1.29   1
  -3  -2  10    0.96    2.12   1
  -3  -2  11   17.12    3.07   1
  -3  -2  11   13.92    2.54   1
  -3  -2  11   10.73    2.57   1
  -3  -2  11   10.94    2.86   1
  -3  -2  12    4.45    2.21   1
  -3  -2  12    2.75    2.43   1
  -3  -2  12    3.60    2.23   1
  -3  -2  13   -0.11    2.79   1
  -3  -2  13   -2.03    2.14   1
  -3  -1 -10    7.60    3.03   1
  -3  -1  -9    1.08    1.94   1
  -3  -1  -8   15.38    3.34   1
  -3  -1  -8   11.30    2.58   1
  -3  -1  -7    1.61    1.61   1
  -3  -1  -7    0.64    1.28   1
  -3  -1  -6   79.55    6.84   1
  -3  -1  -6  102.05    8.41   1
  -3  -1  -6   91.24    6.96   1
  -3  -1  -5   41.10    4.27   1
  -3  -1  -5   25.52    2.93   1
  -3  -1  -4   90.95    5.95   1
  -3  -1  -4   76.64    4.89   1
  -3  -1  -4  106.00    6.85   1
  -3  -1  -4   98.38    5.66   1
  -3  -1  -4   60.13    5.13   1
  -3  -1  -3   13.84    2.09   1
  -3  -1  -3   10.05    1.70   1
  -3  -1  -3   16.59    2.03   1
  -3  -1  -3    7.90    1.39   1
  -3  -1  -3   14.57    2.11   1
  -3  -1  -2   42.28    3.36   1
  -3  -1  -2   66.14    3.49   1
  -3  -1  -2   51.33    3.72   1
  -3  -1  -2   35.09    3.18   1
  -3  -1  -2   49.12    4.37   1
  -3  -1  -1   44.96    3.33   1
  -3  -1  -1   29.25    2.37   1
  -3  -1  -1   24.16    1.73   1
  -3  -1  -1   17.23    2.14   1
  -3  -1  -1   37.18    2.80   1
  -3  -1   0   27.23    1.94   1
  -3  -1   0   30.87    2.67   1
  -3  -1   0   49.76    3.68   1
  -3  -1   0   25.24    2.28   1
  -3  -1   0   34.09    2.32   1
  -3  -1   1  116.62    6.41   1
  -3  -1   1   79.87    4.10   1
  -3  -1   1   54.74    3.51   1
  -3  -1   1   81.56    4.33   1
  -3  -1   2  274.65   13.75   1
  -3  -1   2  254.93   10.62   1
  -3  -1   2  251.95   11.22   1
  -3  -1   3  113.16    5.07   1
  -3  -1   3   92.08    3.95   1
  -3  -1   3  141.81    6.70   1
  -3  -1   3  107.93    5.60   1
  -3  -1   4   90.84    4.54   1
  -3  -1   4   93.11    5.37   1
  -3  -1   4  101.21    5.00   1
  -3  -1   4  154.49    6.96   1
  -3  -1   5   65.50    3.35   1
  -3  -1   5   60.25    3.70   1
  -3  -1   5   57.98    3.29   1
  -3  -1   5   97.64    5.06   1
  -3  -1   6   56.72    3.90   1
  -3  -1   6   57.04    2.97   1
  -3  -1   6   73.92    4.19   1
  -3  -1   6   60.35    4.02   1
  -3  -1   7    2.26    0.87   1
  -3  -1   7    3.75    1.16   1
  -3  -1   7    1.49    0.86   1
  -3  -1   7    2.56    0.78   1
  -3  -1   8   10.60    1.76   1
  -3  -1   8    8.71    1.59   1
  -3  -1   8    8.09    1.58   1
  -3  -1   8    7.42    1.64   1
  -3  -1   9    6.83    1.73   1
  -3  -1   9    5.43    1.83   1
  -3  -1   9    4.27    1.28   1
  -3  -1   9    2.65    1.48   1
  -3  -1  10   24.74    2.98   1
  -3  -1  10   24.71    2.86   1
  -3  -1  10   26.67    3.41   1
  -3  -1  10   16.58    2.85   1
  -3  -1  10   25.98    3.26   1
  -3  -1  11   15.11    3.28   1
  -3  -1  11   17.37    2.67   1
  -3  -1  11   18.95    3.23   1
  -3  -1  11   15.44    2.76   1
  -3  -1  12    5.11    1.73   1
  -3  -1  12    6.24    2.52   1
  -3  -1  13    2.32    2.63   1
  -3   0 -10   -0.54    3.35   1
  -3   0  -9    5.27    2.05   1
  -3   0  -8    0.00    1.08   1
  -3   0  -8    0.76    2.38   1
  -3   0  -7   35.28    4.08   1
  -3   0  -6   16.82    2.05   1
  -3   0  -6   20.49    2.19   1
  -3   0  -5   19.82    2.51   1
  -3   0  -5   18.69    2.07   1
  -3   0  -5   10.89    1.84   1
  -3   0  -5   15.20    2.52   1
  -3   0  -5   24.75    2.85   1
  -3   0  -4   54.70    4.32   1
  -3   0  -4   79.54    5.49   1
  -3   0  -4   44.94    3.06   1
  -3   0  -4   61.88    4.92   1
  -3   0  -4   36.93    3.77   1
  -3   0  -3    2.62    1.22   1
  -3   0  -3    8.52    2.18   1
  -3   0  -3    2.12    1.05   1
  -3   0  -3    5.46    1.16   1
  -3   0  -3    7.94    1.53   1
  -3   0  -2   89.29    6.05   1
  -3   0  -2  121.01    7.35   1
  -3   0  -2  173.58    7.61   1
  -3   0  -2  117.35    7.24   1
  -3   0  -2   76.37    4.51   1
  -3   0  -1    3.61    1.30   1
  -3   0  -1    5.45    0.87   1
  -3   0  -1    6.86    1.20   1
  -3   0  -1   10.93    1.64   1
  -3   0  -1    7.54    1.20   1
  -3   0   0  147.72    8.53   1
  -3   0   0  209.79   10.32   1
  -3   0   0  300.78   12.41   1
  -3   0   0  201.38    9.82   1
  -3   0   1  204.18   10.79   1
  -3   0   1  272.21   13.24   1
  -3   0   1  209.28    9.71   1
  -3   0   2   21.58    1.75   1
  -3   0   2   23.27    1.72   1
  -3   0   2   34.53    2.67   1
  -3   0   3  224.73    9.39   1
  -3   0   3  244.88    9.80   1
  -3   0   3  305.61   12.85   1
  -3   0   3  201.36    8.48   1
  -3   0   4   45.73    2.67   1
  -3   0   4   68.33    4.29   1
  -3   0   4   41.20    2.27   1
  -3   0   5  299.85   13.18   1
  -3   0   5  372.80   14.45   1
  -3   0   5  550.28   18.74   1
  -3   0   5  365.58   15.11   1
  -3   0   6    1.69    0.86   1
  -3   0   6    2.60    0.87   1
  -3   0   6    3.55    1.49   1
  -3   0   6    1.41    0.64   1
  -3   0   7   78.75    4.61   1
  -3   0   7   81.90    4.70   1
  -3   0   7   74.52    5.18   1
  -3   0   7  134.49    7.40   1
  -3   0   8    8.39    1.38   1
  -3   0   8    7.01    1.21   1
  -3   0   8    3.61    0.94   1
  -3   0   8    9.12    1.21   1
  -3   0   8    5.00    1.38   1
  -3   0   8    6.82    1.29   1
  -3   0   8    5.69    1.29   1
  -3   0   9   33.67    2.77   1
  -3   0   9   26.19    3.48   1
  -3   0   9   31.68    3.37   1
  -3   0   9   36.50    3.00   1
  -3   0   9   34.81    3.55   1
  -3   0   9   38.01    3.06   1
  -3   0  10    2.88    1.30   1
  -3   0  10    2.22    1.69   1
  -3   0  10    1.18    1.28   1
  -3   0  10    1.81    1.50   1
  -3   0  11    0.22    2.26   1
  -3   0  11    3.90    2.64   1
  -3   0  11    1.81    1.61   1
  -3   0  12    2.74    2.11   1
  -3   0  13    2.44    2.64   1
  -3   1 -10   -1.08    3.14   1
  -3   1  -9    2.06    2.47   1
  -3   1  -8    3.12    2.38   1
  -3   1  -8    4.62    1.08   1
  -3   1  -8    2.49    1.93   1
  -3   1  -7   28.09    3.02   1
  -3   1  -7   28.15    3.97   1
  -3   1  -7   25.26    3.03   1
  -3   1  -6   15.85    2.10   1
  -3   1  -6   10.03    2.50   1
  -3   1  -6   10.43    1.95   1
  -3   1  -5  117.99    8.81   1
  -3   1  -5  103.91    6.54   1
  -3   1  -5  207.90   11.04   1
  -3   1  -5  144.36    8.74   1
  -3   1  -4   11.97    1.29   1
  -3   1  -4   11.51    2.05   1
  -3   1  -4   11.72    1.71   1
  -3   1  -4    8.86    1.48   1
  -3   1  -4   18.68    2.03   1
  -3   1  -3  173.40    9.34   1
  -3   1  -3  277.09   13.24   1
  -3   1  -3  172.61    8.49   1
  -3   1  -3  135.85    8.18   1
  -3   1  -3  160.86    7.11   1
  -3   1  -2   14.58    1.73   1
  -3   1  -2   14.28    1.66   1
  -3   1  -2   26.52    2.79   1
  -3   1  -2   10.84    1.09   1
  -3   1  -2   14.05    1.72   1
  -3   1  -1  248.54   10.87   1
  -3   1  -1  233.23   10.85   1
  -3   1  -1  345.40   17.30   1
  -3   1  -1  188.13    7.94   1
  -3   1  -1  177.15    8.81   1
  -3   1   0  123.93    6.71   1
  -3   1   0   96.90    4.12   1
  -3   1   0   65.85    3.69   1
  -3   1   0   94.27    4.47   1
  -3   1   1   67.12    3.78   1
  -3   1   1   60.77    3.92   1
  -3   1   1   86.24    5.76   1
  -3   1   2  133.80    5.47   1
  -3   1   2  179.54    7.59   1
  -3   1   2  236.65   11.16   1
  -3   1   2  186.63    8.60   1
  -3   1   3  138.78    6.21   1
  -3   1   3  177.49   10.25   1
  -3   1   3  148.16    6.67   1
  -3   1   4  360.40   15.84   1
  -3   1   4  292.73   10.83   1
  -3   1   4  273.60   11.17   1
  -3   1   5   33.66    2.62   1
  -3   1   5   27.45    1.44   1
  -3   1   5   24.86    1.58   1
  -3   1   5   19.73    1.92   1
  -3   1   6   56.49    2.79   1
  -3   1   6   72.73    3.22   1
  -3   1   6   57.10    4.21   1
  -3   1   6   69.19    2.80   1
  -3   1   6   87.98    5.47   1
  -3   1   6   56.66    2.80   1
  -3   1   7    8.26    1.48   1
  -3   1   7    9.70    0.98   1
  -3   1   7    7.27    1.73   1
  -3   1   7    5.76    0.84   1
  -3   1   7    8.37    0.91   1
  -3   1   7    8.88    0.99   1
  -3   1   7   11.12    1.36   1
  -3   1   8   28.60    2.13   1
  -3   1   8   36.12    3.74   1
  -3   1   8   25.72    3.15   1
  -3   1   8   26.56    1.93   1
  -3   1   8   25.58    2.81   1
  -3   1   8   30.65    2.20   1
  -3   1   8   27.44    1.85   1
  -3   1   9    0.11    0.66   1
  -3   1   9   -0.11    0.77   1
  -3   1   9   -0.11    1.29   1
  -3   1   9    1.51    0.64   1
  -3   1   9    0.00    1.07   1
  -3   1   9    0.99    0.66   1
  -3   1   9    1.45    0.89   1
  -3   1  10    8.03    1.18   1
  -3   1  10    9.19    3.45   1
  -3   1  10    6.66    2.65   1
  -3   1  11    0.63    2.00   1
  -3   1  12    0.84    2.52   1
  -3   2  -9    8.95    2.67   1
  -3   2  -8    0.22    0.89   1
  -3   2  -8    0.22    1.74   1
  -3   2  -8    1.19    2.06   1
  -3   2  -7   17.14    3.26   1
  -3   2  -7   28.91    2.97   1
  -3   2  -7   20.75    2.65   1
  -3   2  -6   44.29    4.40   1
  -3   2  -6   32.33    3.54   1
  -3   2  -6   19.18    3.17   1
  -3   2  -6   29.22    3.03   1
  -3   2  -5    0.43    0.96   1
  -3   2  -5   -0.11    0.98   1
  -3   2  -5    1.92    1.81   1
  -3   2  -5   -1.28    1.51   1
  -3   2  -4  136.20    9.71   1
  -3   2  -4   93.63    5.43   1
  -3   2  -4   71.67    5.26   1
  -3   2  -4   92.60    5.40   1
  -3   2  -3    1.18    0.96   1
  -3   2  -3    0.79    1.35   1
  -3   2  -3   -0.33    0.76   1
  -3   2  -3    2.37    0.87   1
  -3   2  -2  598.68   25.31   1
  -3   2  -2  351.05   15.25   1
  -3   2  -2  344.70   16.27   1
  -3   2  -2  298.65   15.34   1
  -3   2  -1    2.52    0.76   1
  -3   2  -1    1.70    0.76   1
  -3   2  -1    5.97    1.34   1
  -3   2  -1    1.32    0.99   1
  -3   2  -1    2.58    0.33   1
  -3   2   0  182.61    8.20   1
  -3   2   0  162.16    8.42   1
  -3   2   0  300.48   15.29   1
  -3   2   0  193.25    8.44   1
  -3   2   1   10.97    1.53   1
  -3   2   1    6.38    0.90   1
  -3   2   1    4.84    0.78   1
  -3   2   2   25.03    1.58   1
  -3   2   2   20.23    1.30   1
  -3   2   2   35.25    3.11   1
  -3   2   2   22.96    1.51   1
  -3   2   3   14.37    0.95   1
  -3   2   3   19.63    2.23   1
  -3   2   3   12.54    0.96   1
  -3   2   4   18.39    2.16   1
  -3   2   4    7.68    0.52   1
  -3   2   4    7.51    0.57   1
  -3   2   5   53.67    3.77   1
  -3   2   5  103.90    6.20   1
  -3   2   6    9.89    1.95   1
  -3   2   6   14.71    2.18   1
  -3   2   6    9.58    1.61   1
  -3   2   6   10.01    1.57   1
  -3   2   7   45.46    4.46   1
  -3   2   7   34.99    3.54   1
  -3   2   7   86.57    5.90   1
  -3   2   7   36.62    4.29   1
  -3   2   8    0.97    2.13   1
  -3   2   8    0.96    1.39   1
  -3   2   8    1.19    1.63   1
  -3   2   8    1.50    1.26   1
  -3   2   9   13.86    2.53   1
  -3   2   9   16.44    3.45   1
  -3   2   9   31.40    2.77   1
  -3   2   9   22.38    3.72   1
  -3   2  10    2.57    2.46   1
  -3   2  10    0.21    2.44   1
  -3   2  10    2.13    2.14   1
  -3   2  11   -2.95    2.33   1
  -3   2  12   -2.95    2.54   1
  -3   3  -8   28.46    3.29   1
  -3   3  -7   25.61    2.72   1
  -3   3  -7   15.38    2.36   1
  -3   3  -7   13.34    2.80   1
  -3   3  -6    9.51    2.30   1
  -3   3  -6    3.98    1.95   1
  -3   3  -6    5.42    1.64   1
  -3   3  -6    2.66    1.38   1
  -3   3  -5   17.87    2.29   1
  -3   3  -5   27.70    2.88   1
  -3   3  -5   15.18    1.93   1
  -3   3  -5   14.59    1.91   1
  -3   3  -4   10.77    1.79   1
  -3   3  -4    4.51    1.19   1
  -3   3  -4    5.85    1.87   1
  -3   3  -4    8.83    1.43   1
  -3   3  -3   51.18    3.43   1
  -3   3  -3   52.38    4.08   1
  -3   3  -3   92.89    6.87   1
  -3   3  -3   44.85    3.47   1
  -3   3  -2   11.00    1.30   1
  -3   3  -2   15.88    1.66   1
  -3   3  -2   18.76    2.18   1
  -3   3  -2   11.00    1.66   1
  -3   3  -1   48.64    4.52   1
  -3   3  -1   36.50    2.15   1
  -3   3  -1   29.73    2.14   1
  -3   3  -1   31.15    2.57   1
  -3   3   0   41.18    2.28   1
  -3   3   0   59.62    5.16   1
  -3   3   0   43.63    2.90   1
  -3   3   0   35.32    2.33   1
  -3   3   0   34.72    1.96   1
  -3   3   1   27.96    1.86   1
  -3   3   1   25.86    1.80   1
  -3   3   1   28.03    1.88   1
  -3   3   1   34.32    3.42   1
  -3   3   1   25.92    1.78   1
  -3   3   2   47.41    3.73   1
  -3   3   2   40.56    2.52   1
  -3   3   2   34.81    2.19   1
  -3   3   3   10.97    1.93   1
  -3   3   3    8.46    1.27   1
  -3   3   4   28.00    2.43   1
  -3   3   4   36.44    3.52   1
  -3   3   4   29.49    3.02   1
  -3   3   5   16.21    1.93   1
  -3   3   5    6.97    1.87   1
  -3   3   5   10.93    1.77   1
  -3   3   5    8.40    1.38   1
  -3   3   6   11.57    1.99   1
  -3   3   6    6.38    1.41   1
  -3   3   6    7.69    1.50   1
  -3   3   6    7.64    1.71   1
  -3   3   7    9.76    2.47   1
  -3   3   7   10.32    2.06   1
  -3   3   7   20.95    2.49   1
  -3   3   7    9.99    2.21   1
  -3   3   8   21.24    3.36   1
  -3   3   8   18.35    3.10   1
  -3   3   8   19.58    2.73   1
  -3   3   8   35.52    3.88   1
  -3   3   9   14.08    3.12   1
  -3   3   9   41.46    3.55   1
  -3   3   9   22.06    3.60   1
  -3   3   9   25.31    3.31   1
  -3   3  10    3.82    2.21   1
  -3   3  11    2.32    2.54   1
  -3   4  -8    6.87    2.30   1
  -3   4  -7   10.69    2.14   1
  -3   4  -6    6.17    1.87   1
  -3   4  -5    1.17    1.38   1
  -3   4  -5    1.96    1.40   1
  -3   4  -4   12.09    2.11   1
  -3   4  -4    7.53    1.30   1
  -3   4  -3   17.03    1.79   1
  -3   4  -3   21.38    2.90   1
  -3   4  -2   41.42    4.43   1
  -3   4  -2   29.84    2.26   1
  -3   4  -1   52.91    3.01   1
  -3   4  -1   85.10    6.54   1
  -3   4   0   30.75    3.00   1
  -3   4   0   24.71    1.96   1
  -3   4   1   34.52    2.54   1
  -3   4   1   51.69    4.33   1
  -3   4   1   34.23    2.19   1
  -3   4   2   18.02    1.76   1
  -3   4   2   19.29    2.46   1
  -3   4   2   14.77    1.58   1
  -3   4   3   58.75    5.05   1
  -3   4   3   60.36    3.71   1
  -3   4   3   71.13    5.78   1
  -3   4   3   58.77    4.28   1
  -3   4   4    0.75    1.19   1
  -3   4   4    2.37    1.41   1
  -3   4   4    3.07    1.37   1
  -3   4   4    0.86    1.18   1
  -3   4   5   20.37    2.33   1
  -3   4   5   32.89    3.70   1
  -3   4   5   21.44    2.58   1
  -3   4   5   25.97    2.23   1
  -3   4   6    0.33    1.63   1
  -3   4   6   -0.54    1.60   1
  -3   4   6    0.11    1.51   1
  -3   4   7   35.09    3.92   1
  -3   4   7   44.47    4.31   1
  -3   4   7   33.90    4.01   1
  -3   4   7   28.22    3.51   1
  -3   4   8   10.14    2.59   1
  -3   4   8    5.62    2.35   1
  -3   4   8    3.80    2.07   1
  -3   4   8    3.55    2.69   1
  -3   4   9    5.72    2.76   1
  -3   4  10    2.55    2.34   1
  -3   5  -8    1.34    2.56   1
  -3   5  -7   32.41    3.81   1
  -3   5  -6    1.84    2.29   1
  -3   5  -5   27.50    3.94   1
  -3   5  -4    3.14    2.07   1
  -3   5  -3   16.74    1.10   1
  -3   5  -3   27.79    3.19   1
  -3   5  -2   18.94    2.72   1
  -3   5  -2   12.69    1.25   1
  -3   5  -1    2.87    0.63   1
  -3   5  -1    3.02    1.41   1
  -3   5   0   38.33    2.70   1
  -3   5   0   49.16    3.61   1
  -3   5   0   34.16    2.43   1
  -3   5   0   42.39    4.46   1
  -3   5   1   18.17    2.48   1
  -3   5   1   16.54    2.26   1
  -3   5   1   14.73    1.51   1
  -3   5   1   17.69    1.57   1
  -3   5   2   78.46    6.02   1
  -3   5   2   72.45    4.76   1
  -3   5   2   89.56    5.31   1
  -3   5   2  102.20    8.18   1
  -3   5   2   91.34    4.93   1
  -3   5   3    7.73    2.02   1
  -3   5   3    4.94    1.39   1
  -3   5   3   10.95    2.05   1
  -3   5   3    8.31    1.49   1
  -3   5   3    7.40    1.30   1
  -3   5   4   19.91    2.88   1
  -3   5   4   23.10    3.19   1
  -3   5   4   20.22    2.98   1
  -3   5   4   24.13    2.34   1
  -3   5   4   23.72    3.02   1
  -3   5   5    6.62    1.72   1
  -3   5   5    9.75    1.49   1
  -3   5   5   11.48    2.89   1
  -3   5   5    4.79    2.67   1
  -3   5   6    2.57    2.02   1
  -3   5   6    6.53    2.08   1
  -3   5   6    7.77    2.26   1
  -3   5   6    6.84    2.06   1
  -3   5   7   -0.98    2.17   1
  -3   5   7    1.31    2.50   1
  -3   5   7    0.00    1.07   1
  -3   5   8    1.20    2.60   1
  -3   5   8    1.18    1.82   1
  -3   5   9    1.18    1.93   1
  -3   6  -7    0.22    2.08   1
  -3   6  -6    9.91    2.95   1
  -3   6  -5   -1.31    1.96   1
  -3   6  -4   33.19    4.44   1
  -3   6  -3    2.60    2.05   1
  -3   6  -2   16.80    2.56   1
  -3   6  -1    1.31    1.85   1
  -3   6   0   15.06    3.22   1
  -3   6   0   11.03    2.67   1
  -3   6   1    3.92    1.59   1
  -3   6   1    8.49    2.24   1
  -3   6   1    6.08    1.83   1
  -3   6   2   -0.43    2.36   1
  -3   6   2    2.12    2.01   1
  -3   6   2    0.75    1.61   1
  -3   6   3    9.30    2.78   1
  -3   6   3    9.49    2.36   1
  -3   6   3    5.35    2.77   1
  -3   6   3    9.78    2.09   1
  -3   6   4    0.63    2.02   1
  -3   6   4    0.22    1.40   1
  -3   6   4   -0.64    1.40   1
  -3   6   4    0.76    1.96   1
  -3   6   5    8.52    2.24   1
  -3   6   5    8.23    2.63   1
  -3   6   5    3.16    2.30   1
  -3   6   6    0.77    2.73   1
  -3   6   6   -0.33    1.95   1
  -3   6   6   -0.86    1.72   1
  -3   6   7    4.20    2.18   1
  -3   7  -5   17.47    3.66   1
  -3   7  -4   -0.86    3.03   1
  -3   7  -3    8.02    3.48   1
  -3   7  -2   -0.97    1.61   1
  -3   7  -2    2.06    3.26   1
  -3   7  -1    0.32    1.51   1
  -3   7  -1    2.27    2.38   1
  -3   7   0    1.18    1.62   1
  -3   7   0    2.36    3.13   1
  -3   7   1   -1.30    3.03   1
  -3   7   1   -1.39    1.71   1
  -3   7   1    0.96    2.67   1
  -3   7   2    8.20    2.25   1
  -3   7   2    6.05    3.57   1
  -3   7   3    3.11    2.49   1
  -3   7   3    2.88    2.04   1
  -3   7   4    5.49    2.48   1
  -3   7   4    4.86    3.58   1
  -2  -8   2    3.42    2.44   1
  -2  -8   3    4.05    2.58   1
  -2  -7  -3    5.81    3.01   1
  -2  -7  -2    9.84    2.61   1
  -2  -7  -2   18.86    3.52   1
  -2  -7  -1   25.59    3.25   1
  -2  -7   0    7.50    2.77   1
  -2  -7   1   15.96    2.64   1
  -2  -7   2   16.28    3.00   1
  -2  -7   2    9.14    2.37   1
  -2  -7   3   27.68    3.47   1
  -2  -7   3   21.84    3.76   1
  -2  -7   4   -0.54    2.57   1
  -2  -7   4    1.91    2.23   1
  -2  -7   5    5.99    2.22   1
  -2  -7   6   -1.07    2.03   1
  -2  -7   7    3.31    2.33   1
  -2  -7   8    4.49    2.59   1
  -2  -6  -5   19.99    3.42   1
  -2  -6  -4    1.40    2.48   1
  -2  -6  -4    0.64    1.82   1
  -2  -6  -3   21.44    3.90   1
  -2  -6  -3   40.87    3.99   1
  -2  -6  -3   43.30    4.51   1
  -2  -6  -2    5.27    1.62   1
  -2  -6  -2    4.40    1.83   1
  -2  -6  -1    4.28    1.84   1
  -2  -6  -1    0.97    2.14   1
  -2  -6   0    1.18    1.71   1
  -2  -6   0    6.19    2.36   1
  -2  -6   0    6.30    1.81   1
  -2  -6   1    0.54    2.14   1
  -2  -6   1    1.29    1.83   1
  -2  -6   1    0.42    1.49   1
  -2  -6   2   34.69    3.89   1
  -2  -6   2   24.94    2.39   1
  -2  -6   2   30.89    3.57   1
  -2  -6   2   30.57    3.99   1
  -2  -6   3    0.00    1.06   1
  -2  -6   3    0.64    0.65   1
  -2  -6   3   -1.38    2.23   1
  -2  -6   3    0.76    2.06   1
  -2  -6   4   31.72    3.37   1
  -2  -6   4   20.14    2.80   1
  -2  -6   4   22.42    2.83   1
  -2  -6   5    0.22    0.55   1
  -2  -6   5    1.29    1.71   1
  -2  -6   5   -0.64    2.05   1
  -2  -6   5   -2.03    2.03   1
  -2  -6   6    6.72    2.03   1
  -2  -6   6    3.42    2.79   1
  -2  -6   7    0.32    2.03   1
  -2  -6   7   -0.63    2.65   1
  -2  -6   8    1.80    2.97   1
  -2  -6   9    7.66    2.74   1
  -2  -6  10    1.58    2.13   1
  -2  -5  -7    1.07    1.40   1
  -2  -5  -6    5.57    2.05   1
  -2  -5  -6    5.48    1.84   1
  -2  -5  -5   -1.18    1.40   1
  -2  -5  -5    0.22    1.40   1
  -2  -5  -4   18.72    3.18   1
  -2  -5  -4   28.02    2.97   1
  -2  -5  -4   25.34    3.34   1
  -2  -5  -3    7.38    2.36   1
  -2  -5  -3    6.88    2.10   1
  -2  -5  -3    9.10    2.26   1
  -2  -5  -3   10.06    1.85   1
  -2  -5  -2   12.63    2.29   1
  -2  -5  -2    4.70    1.84   1
  -2  -5  -2   11.68    2.27   1
  -2  -5  -2    8.08    1.56   1
  -2  -5  -1    9.00    1.80   1
  -2  -5  -1    7.75    1.34   1
  -2  -5  -1    4.49    2.15   1
  -2  -5  -1    8.14    1.59   1
  -2  -5  -1    7.51    2.04   1
  -2  -5   0    6.72    1.93   1
  -2  -5   0    3.54    1.83   1
  -2  -5   0    4.79    1.27   1
  -2  -5   0    5.11    1.08   1
  -2  -5   0    4.81    1.09   1
  -2  -5   1    9.94    1.50   1
  -2  -5   1   14.26    1.95   1
  -2  -5   1   12.97    1.78   1
  -2  -5   1   12.73    1.92   1
  -2  -5   2    2.11    1.59   1
  -2  -5   2    1.18    0.65   1
  -2  -5   2    4.56    1.37   1
  -2  -5   2    2.35    1.27   1
  -2  -5   3   19.40    2.54   1
  -2  -5   3   12.31    1.97   1
  -2  -5   3   13.03    1.42   1
  -2  -5   3   14.25    2.03   1
  -2  -5   4   34.76    2.45   1
  -2  -5   4   28.96    3.11   1
  -2  -5   4   41.38    3.98   1
  -2  -5   5   11.79    1.84   1
  -2  -5   5    7.75    1.27   1
  -2  -5   5    9.70    2.12   1
  -2  -5   6   17.31    1.81   1
  -2  -5   6   16.38    2.26   1
  -2  -5   6   14.83    2.54   1
  -2  -5   7   27.51    3.36   1
  -2  -5   7   17.18    1.89   1
  -2  -5   7   21.11    3.13   1
  -2  -5   8   21.69    3.46   1
  -2  -5   8   14.94    2.16   1
  -2  -5   8   18.82    3.23   1
  -2  -5   9    0.84    2.65   1
  -2  -5   9    0.75    2.15   1
  -2  -5   9    0.22    0.98   1
  -2  -5  10   -0.64    1.92   1
  -2  -5  10    0.22    2.14   1
  -2  -5  11    1.91    2.53   1
  -2  -4  -8    0.00    1.07   1
  -2  -4  -7    4.09    1.93   1
  -2  -4  -7    1.19    2.37   1
  -2  -4  -6    4.08    1.59   1
  -2  -4  -6    6.03    2.04   1
  -2  -4  -5   17.26    2.70   1
  -2  -4  -5   19.85    3.13   1
  -2  -4  -5   29.92    3.06   1
  -2  -4  -5   22.61    2.86   1
  -2  -4  -4   16.61    2.56   1
  -2  -4  -4   22.59    2.37   1
  -2  -4  -4   30.14    3.08   1
  -2  -4  -4   17.24    2.75   1
  -2  -4  -3   22.02    2.25   1
  -2  -4  -3   26.42    2.67   1
  -2  -4  -3   21.82    2.06   1
  -2  -4  -3   16.23    2.25   1
  -2  -4  -3   15.77    2.05   1
  -2  -4  -2   35.52    3.57   1
  -2  -4  -2   30.06    2.72   1
  -2  -4  -2   47.52    3.87   1
  -2  -4  -2   43.59    3.71   1
  -2  -4  -2   33.08    2.91   1
  -2  -4  -1    0.75    0.97   1
  -2  -4  -1    0.11    1.01   1
  -2  -4  -1    0.22    1.40   1
  -2  -4  -1    1.07    1.07   1
  -2  -4  -1    1.39    1.17   1
  -2  -4   0   38.40    2.94   1
  -2  -4   0   29.88    2.94   1
  -2  -4   0   35.51    2.38   1
  -2  -4   0   29.74    2.48   1
  -2  -4   0   35.02    2.81   1
  -2  -4   1    4.26    1.19   1
  -2  -4   1    5.92    1.16   1
  -2  -4   1    7.26    1.28   1
  -2  -4   1    5.91    1.31   1
  -2  -4   1    4.91    0.88   1
  -2  -4   2  101.38    5.61   1
  -2  -4   2  113.12    5.92   1
  -2  -4   2   86.68    4.44   1
  -2  -4   2   89.19    5.68   1
  -2  -4   2   90.38    4.13   1
  -2  -4   3   58.52    3.63   1
  -2  -4   3   45.43    3.08   1
  -2  -4   3   51.34    3.55   1
  -2  -4   4   35.20    2.93   1
  -2  -4   4   40.84    3.03   1
  -2  -4   4   39.54    2.98   1
  -2  -4   5    9.88    1.68   1
  -2  -4   5   19.13    2.53   1
  -2  -4   5   13.11    1.94   1
  -2  -4   6   44.85    3.46   1
  -2  -4   6   45.02    3.60   1
  -2  -4   6   44.84    4.28   1
  -2  -4   7   27.92    3.60   1
  -2  -4   7   35.83    3.46   1
  -2  -4   7   24.31    2.55   1
  -2  -4   8    3.72    1.47   1
  -2  -4   8    1.69    1.58   1
  -2  -4   8    2.03    1.82   1
  -2  -4   8    3.42    1.49   1
  -2  -4   9    9.12    2.12   1
  -2  -4   9   10.08    2.22   1
  -2  -4   9   22.23    3.50   1
  -2  -4   9    9.27    2.01   1
  -2  -4  10    3.06    2.02   1
  -2  -4  10    8.61    2.78   1
  -2  -4  10    1.91    1.37   1
  -2  -4  11    6.26    3.40   1
  -2  -4  11    3.31    2.56   1
  -2  -4  12   -0.63    1.81   1
  -2  -4  12    3.40    3.19   1
  -2  -3  -9   -0.64    1.92   1
  -2  -3  -9    1.81    2.04   1
  -2  -3  -8   10.92    2.67   1
  -2  -3  -8    9.47    2.93   1
  -2  -3  -7    0.43    1.40   1
  -2  -3  -7    0.76    1.30   1
  -2  -3  -6    4.09    1.30   1
  -2  -3  -6    5.16    1.93   1
  -2  -3  -6    7.53    2.67   1
  -2  -3  -6    4.44    1.76   1
  -2  -3  -5   26.98    2.80   1
  -2  -3  -5   28.07    2.86   1
  -2  -3  -5   24.12    2.98   1
  -2  -3  -5   22.32    3.22   1
  -2  -3  -4    9.36    1.67   1
  -2  -3  -4   10.66    2.16   1
  -2  -3  -4   14.49    2.05   1
  -2  -3  -4   13.31    2.03   1
  -2  -3  -4   17.56    2.09   1
  -2  -3  -3  193.66   10.51   1
  -2  -3  -3  183.96   12.33   1
  -2  -3  -3  166.90    9.06   1
  -2  -3  -3  249.53   13.16   1
  -2  -3  -3  237.49   13.48   1
  -2  -3  -2    7.27    1.29   1
  -2  -3  -2    4.57    1.28   1
  -2  -3  -2    6.29    1.51   1
  -2  -3  -2    6.93    1.47   1
  -2  -3  -2    9.12    1.08   1
  -2  -3  -1  161.78    8.93   1
  -2  -3  -1  189.75    7.81   1
  -2  -3  -1  219.19   10.13   1
  -2  -3  -1  144.55    7.45   1
  -2  -3  -1  237.68    9.91   1
  -2  -3   0   86.29    4.10   1
  -2  -3   0   97.66    5.11   1
  -2  -3   0   77.42    4.18   1
  -2  -3   0   69.42    4.31   1
  -2  -3   0   93.21    5.59   1
  -2  -3   1  155.30    7.23   1
  -2  -3   1  157.71    7.28   1
  -2  -3   1  178.88    7.06   1
  -2  -3   1  174.97    8.20   1
  -2  -3   1  180.20    7.49   1
  -2  -3   2    3.08    0.83   1
  -2  -3   2    2.87    0.43   1
  -2  -3   2    3.19    1.29   1
  -2  -3   2    2.04    0.86   1
  -2  -3   3    3.07    0.83   1
  -2  -3   3    3.82    0.97   1
  -2  -3   3    3.41    1.07   1
  -2  -3   4    1.38    1.16   1
  -2  -3   4    3.92    1.18   1
  -2  -3   4    3.18    1.07   1
  -2  -3   5   14.64    1.58   1
  -2  -3   5   14.81    1.59   1
  -2  -3   5   13.87    1.84   1
  -2  -3   6   49.88    3.94   1
  -2  -3   6   51.11    3.69   1
  -2  -3   6   54.10    3.64   1
  -2  -3   7   10.32    1.80   1
  -2  -3   7   12.02    1.93   1
  -2  -3   7    8.96    1.36   1
  -2  -3   7   32.55    5.89   1
  -2  -3   8   21.23    2.66   1
  -2  -3   8   20.20    2.59   1
  -2  -3   8   18.22    2.99   1
  -2  -3   8   19.57    2.37   1
  -2  -3   9    5.41    2.11   1
  -2  -3   9    4.99    1.70   1
  -2  -3   9    4.33    1.50   1
  -2  -3   9    4.12    2.14   1
  -2  -3  10    3.91    1.47   1
  -2  -3  10    0.21    1.60   1
  -2  -3  10    6.48    2.67   1
  -2  -3  10    6.57    2.53   1
  -2  -3  11   -0.22    1.71   1
  -2  -3  11    0.63    2.53   1
  -2  -3  11    1.17    1.80   1
  -2  -3  12    1.48    2.53   1
  -2  -3  12   -0.75    2.33   1
  -2  -3  12   -2.76    2.67   1
  -2  -3  13    1.17    2.45   1
  -2  -2 -10    1.18    2.25   1
  -2  -2  -9   25.16    3.85   1
  -2  -2  -9   27.06    3.23   1
  -2  -2  -8    2.35    1.40   1
  -2  -2  -8    2.68    1.49   1
  -2  -2  -7   29.73    3.96   1
  -2  -2  -7   34.76    4.04   1
  -2  -2  -7   32.95    3.81   1
  -2  -2  -7   34.92    3.93   1
  -2  -2  -6    2.50    1.84   1
  -2  -2  -6    2.59    1.61   1
  -2  -2  -6    2.05    1.84   1
  -2  -2  -6    2.27    1.50   1
  -2  -2  -5   95.26    6.28   1
  -2  -2  -5   96.90    5.31   1
  -2  -2  -5   73.89    5.90   1
  -2  -2  -5   60.63    4.65   1
  -2  -2  -5   76.63    5.62   1
  -2  -2  -4   46.01    3.24   1
  -2  -2  -4   39.83    2.86   1
  -2  -2  -4   29.55    3.26   1
  -2  -2  -4   49.90    3.23   1
  -2  -2  -3    7.50    1.30   1
  -2  -2  -3    7.38    1.19   1
  -2  -2  -3    5.54    1.41   1
  -2  -2  -3    8.31    1.32   1
  -2  -2  -2   27.73    2.53   1
  -2  -2  -2   33.37    2.53   1
  -2  -2  -2   15.80    1.81   1
  -2  -2  -2   20.36    1.96   1
  -2  -2  -1    9.47    1.14   1
  -2  -2  -1    9.16    1.25   1
  -2  -2  -1   10.47    1.21   1
  -2  -2  -1    9.23    1.39   1
  -2  -2   0  178.09    8.30   1
  -2  -2   0  135.52    6.27   1
  -2  -2   0  129.38    6.35   1
  -2  -2   0  168.27    6.99   1
  -2  -2   1    7.07    0.88   1
  -2  -2   1    8.03    1.05   1
  -2  -2   1    7.51    1.30   1
  -2  -2   2   68.81    3.60   1
  -2  -2   2   66.76    3.38   1
  -2  -2   3   13.56    1.29   1
  -2  -2   3   13.72    1.38   1
  -2  -2   3   13.19    1.20   1
  -2  -2   4    8.93    0.62   1
  -2  -2   4    7.87    0.98   1
  -2  -2   4    8.95    1.30   1
  -2  -2   4    7.13    1.05   1
  -2  -2   5    0.75    1.08   1
  -2  -2   5    1.32    0.43   1
  -2  -2   5    2.03    0.97   1
  -2  -2   5    0.63    1.07   1
  -2  -2   6    4.26    1.28   1
  -2  -2   6    3.52    0.97   1
  -2  -2   7   12.44    1.82   1
  -2  -2   7   20.24    2.04   1
  -2  -2   7   15.29    1.94   1
  -2  -2   8   10.09    1.90   1
  -2  -2   8   23.90    3.13   1
  -2  -2   8   12.93    1.78   1
  -2  -2   8   10.00    1.69   1
  -2  -2   8   13.91    2.00   1
  -2  -2   9   15.25    2.58   1
  -2  -2   9   18.77    2.68   1
  -2  -2   9   17.37    2.32   1
  -2  -2   9   18.86    2.86   1
  -2  -2  10    0.21    1.38   1
  -2  -2  10   -1.47    1.70   1
  -2  -2  10   -0.11    1.29   1
  -2  -2  10   -0.11    1.29   1
  -2  -2  11   27.75    3.69   1
  -2  -2  11   22.32    3.11   1
  -2  -2  11   21.82    3.56   1
  -2  -2  11   21.44    2.96   1
  -2  -2  12    1.48    2.13   1
  -2  -2  12   -0.84    2.00   1
  -2  -2  12    0.00    1.06   1
  -2  -2  13    0.00    1.06   1
  -2  -2  13    3.18    2.54   1
  -2  -1 -11   -2.04    2.58   1
  -2  -1 -10   20.95    3.51   1
  -2  -1 -10   25.01    4.04   1
  -2  -1  -9    0.00    1.07   1
  -2  -1  -9   -0.22    1.52   1
  -2  -1  -8   20.50    3.48   1
  -2  -1  -8   25.00    3.32   1
  -2  -1  -8   23.46    3.32   1
  -2  -1  -7    1.31    1.40   1
  -2  -1  -7    1.40    1.40   1
  -2  -1  -7    0.76    1.20   1
  -2  -1  -6   48.03    3.75   1
  -2  -1  -6   44.62    4.17   1
  -2  -1  -6   38.54    4.00   1
  -2  -1  -5   10.29    1.54   1
  -2  -1  -5    7.33    1.40   1
  -2  -1  -5    5.30    1.29   1
  -2  -1  -5    2.55    1.81   1
  -2  -1  -4    0.11    0.76   1
  -2  -1  -4    1.51    0.97   1
  -2  -1  -4    1.19    1.30   1
  -2  -1  -4   -0.11    0.97   1
  -2  -1  -3   11.36    1.53   1
  -2  -1  -3   16.84    1.62   1
  -2  -1  -3    9.40    1.58   1
  -2  -1  -3   18.15    1.51   1
  -2  -1  -3   20.61    2.01   1
  -2  -1  -2   21.79    1.75   1
  -2  -1  -2   24.30    2.30   1
  -2  -1  -2   14.21    1.40   1
  -2  -1  -2   22.18    2.07   1
  -2  -1  -2   14.37    1.41   1
  -2  -1  -1   85.11    4.82   1
  -2  -1  -1   88.23    5.10   1
  -2  -1  -1   58.58    3.16   1
  -2  -1  -1  101.43    5.17   1
  -2  -1  -1   59.65    3.03   1
  -2  -1   0   22.40    1.96   1
  -2  -1   0   48.67    3.15   1
  -2  -1   0   35.34    2.23   1
  -2  -1   0   34.97    2.09   1
  -2  -1   1   43.25    2.46   1
  -2  -1   1   55.23    4.03   1
  -2  -1   1   45.18    2.65   1
  -2  -1   2   55.50    2.62   1
  -2  -1   2   83.78    4.78   1
  -2  -1   2   46.05    2.23   1
  -2  -1   2   50.39    3.08   1
  -2  -1   3    1.92    0.63   1
  -2  -1   3    1.48    0.53   1
  -2  -1   3    4.05    1.04   1
  -2  -1   3    1.29    0.63   1
  -2  -1   4   27.73    1.74   1
  -2  -1   4   39.07    2.53   1
  -2  -1   4   25.70    1.68   1
  -2  -1   4   23.19    1.49   1
  -2  -1   5    5.64    0.98   1
  -2  -1   5    4.30    0.73   1
  -2  -1   5    6.40    0.94   1
  -2  -1   5    6.18    1.37   1
  -2  -1   6   73.61    3.93   1
  -2  -1   6   62.98    3.93   1
  -2  -1   6   71.43    4.01   1
  -2  -1   7    2.56    0.86   1
  -2  -1   7    3.41    0.84   1
  -2  -1   7    2.23    0.96   1
  -2  -1   7    3.29    0.97   1
  -2  -1   7    2.46    1.07   1
  -2  -1   8   21.29    2.38   1
  -2  -1   8   22.19    2.43   1
  -2  -1   8   15.42    2.11   1
  -2  -1   8   16.30    1.91   1
  -2  -1   8   16.03    2.14   1
  -2  -1   9    0.63    1.16   1
  -2  -1   9   -0.63    1.26   1
  -2  -1   9    1.17    1.16   1
  -2  -1   9    0.21    0.85   1
  -2  -1   9    1.47    1.15   1
  -2  -1  10   29.26    3.67   1
  -2  -1  10   23.04    3.17   1
  -2  -1  10   28.52    3.30   1
  -2  -1  10   25.94    3.14   1
  -2  -1  11    2.64    1.81   1
  -2  -1  11    5.53    2.96   1
  -2  -1  11    4.11    1.71   1
  -2  -1  11    5.66    1.82   1
  -2  -1  11    4.54    1.89   1
  -2  -1  12    3.82    2.21   1
  -2  -1  12    5.52    2.13   1
  -2  -1  12    4.68    1.92   1
  -2  -1  13   -2.11    2.33   1
  -2   0 -11    4.16    2.79   1
  -2   0 -10    1.93    1.73   1
  -2   0 -10    0.32    2.04   1
  -2   0  -9    2.04    1.60   1
  -2   0  -9    3.10    2.37   1
  -2   0  -8    8.70    2.14   1
  -2   0  -8   10.40    2.34   1
  -2   0  -8   10.29    2.06   1
  -2   0  -7   43.78    4.11   1
  -2   0  -7   41.76    4.28   1
  -2   0  -6   34.55    3.17   1
  -2   0  -6   23.81    2.71   1
  -2   0  -6   36.54    3.64   1
  -2   0  -6   41.76    3.25   1
  -2   0  -5   42.29    3.51   1
  -2   0  -5   43.80    3.03   1
  -2   0  -5   47.48    3.65   1
  -2   0  -5   39.83    2.75   1
  -2   0  -5   34.86    2.92   1
  -2   0  -4    6.71    1.50   1
  -2   0  -4    8.06    1.29   1
  -2   0  -4    9.55    1.61   1
  -2   0  -4   15.29    1.58   1
  -2   0  -4    7.15    1.17   1
  -2   0  -3    3.24    1.20   1
  -2   0  -3    2.48    0.75   1
  -2   0  -3    2.60    0.77   1
  -2   0  -3    1.69    1.07   1
  -2   0  -3    4.26    1.15   1
  -2   0  -2   12.63    1.38   1
  -2   0  -2    5.75    0.84   1
  -2   0  -2    6.51    1.06   1
  -2   0  -2    8.56    1.10   1
  -2   0  -2    5.21    0.85   1
  -2   0  -1  234.04   10.87   1
  -2   0  -1  177.18    7.15   1
  -2   0  -1  335.41   14.30   1
  -2   0  -1  185.25    7.60   1
  -2   0  -1  237.24    9.98   1
  -2   0   0   67.36    3.39   1
  -2   0   0   82.30    4.00   1
  -2   0   0  129.96    5.97   1
  -2   0   0   92.11    5.04   1
  -2   0   1  990.95   34.92   1
  -2   0   1  977.74   34.69   1
  -2   0   1  889.93   35.21   1
  -2   0   2  186.71    7.96   1
  -2   0   2  233.64    9.98   1
  -2   0   2  186.15    8.24   1
  -2   0   3  137.19    6.39   1
  -2   0   3   86.77    4.25   1
  -2   0   3   93.26    4.01   1
  -2   0   4  326.63   12.66   1
  -2   0   4  342.80   13.80   1
  -2   0   4  341.34   13.00   1
  -2   0   4  573.34   18.29   1
  -2   0   5   46.29    2.67   1
  -2   0   5   42.71    2.30   1
  -2   0   5   72.97    3.49   1
  -2   0   5   40.65    2.37   1
  -2   0   6   35.64    1.91   1
  -2   0   6   14.85    1.67   1
  -2   0   6   17.54    1.65   1
  -2   0   6   19.51    1.46   1
  -2   0   6   20.85    1.51   1
  -2   0   6   21.00    1.51   1
  -2   0   6   19.74    1.38   1
  -2   0   7    1.91    0.86   1
  -2   0   7    2.58    0.68   1
  -2   0   7    2.23    1.08   1
  -2   0   7    1.07    0.53   1
  -2   0   7    1.48    0.63   1
  -2   0   7    5.70    2.48   1
  -2   0   7    1.59    0.75   1
  -2   0   8    1.70    1.08   1
  -2   0   8   -0.11    1.40   1
  -2   0   8    3.20    0.96   1
  -2   0   8    2.32    0.75   1
  -2   0   8    2.45    0.84   1
  -2   0   9   29.23    2.69   1
  -2   0   9   22.23    2.43   1
  -2   0   9   23.56    3.71   1
  -2   0   9   28.44    2.76   1
  -2   0   9   21.09    2.36   1
  -2   0   9   18.83    2.50   1
  -2   0  10    4.70    1.70   1
  -2   0  10    3.83    1.49   1
  -2   0  10    3.91    1.18   1
  -2   0  10    3.56    1.52   1
  -2   0  10    2.95    2.22   1
  -2   0  10    3.10    1.61   1
  -2   0  11    5.59    2.43   1
  -2   0  11   11.56    2.10   1
  -2   0  11   11.04    2.95   1
  -2   0  11   11.70    2.33   1
  -2   0  11    9.48    1.85   1
  -2   0  12    1.48    1.81   1
  -2   0  12    1.79    2.12   1
  -2   0  13    5.96    2.86   1
  -2   1 -10    5.13    2.25   1
  -2   1 -10    4.89    2.33   1
  -2   1  -9    2.04    1.59   1
  -2   1  -9    0.97    1.61   1
  -2   1  -9    1.30    1.84   1
  -2   1  -8    5.90    1.91   1
  -2   1  -8    5.46    1.69   1
  -2   1  -7   28.77    3.10   1
  -2   1  -7   34.55    2.73   1
  -2   1  -7   13.59    2.35   1
  -2   1  -7   21.44    2.87   1
  -2   1  -6   10.27    1.59   1
  -2   1  -6   10.61    2.02   1
  -2   1  -6    6.68    1.81   1
  -2   1  -6   16.69    1.65   1
  -2   1  -5  122.71    6.85   1
  -2   1  -5  143.28    7.93   1
  -2   1  -5  143.81    8.19   1
  -2   1  -5  218.69   10.13   1
  -2   1  -4    3.10    0.95   1
  -2   1  -4    3.32    1.28   1
  -2   1  -4    1.58    0.86   1
  -2   1  -4    5.57    1.27   1
  -2   1  -3  149.57    7.36   1
  -2   1  -3  138.40    6.57   1
  -2   1  -3  154.20    8.24   1
  -2   1  -3  119.44    5.86   1
  -2   1  -3  229.97   11.39   1
  -2   1  -2   89.77    4.63   1
  -2   1  -2   43.66    3.14   1
  -2   1  -2   54.65    3.38   1
  -2   1  -2   50.25    2.64   1
  -2   1  -2   60.99    3.57   1
  -2   1  -1  176.74    6.88   1
  -2   1  -1  313.21   13.90   1
  -2   1  -1  203.36    9.80   1
  -2   1  -1  214.13    9.45   1
  -2   1  -1  180.25    6.94   1
  -2   1   0    0.00    1.11   1
  -2   1   0    0.11    0.44   1
  -2   1   0    0.43    0.44   1
  -2   1   1    0.00    1.11   1
  -2   1   1    0.55    0.44   1
  -2   1   1    0.53    0.21   1
  -2   1   1    1.33    0.43   1
  -2   1   2    5.31    1.21   1
  -2   1   2    5.00    0.57   1
  -2   1   2    3.89    0.54   1
  -2   1   3   61.86    2.81   1
  -2   1   3   66.41    2.91   1
  -2   1   3   83.71    4.24   1
  -2   1   4  218.79    9.97   1
  -2   1   4  154.61    5.45   1
  -2   1   4  117.37    5.80   1
  -2   1   4  151.29    5.65   1
  -2   1   5   48.00    2.16   1
  -2   1   5   50.31    2.36   1
  -2   1   5   48.41    3.02   1
  -2   1   5   88.04    4.75   1
  -2   1   5   50.95    2.22   1
  -2   1   6   30.88    2.20   1
  -2   1   6   33.44    2.51   1
  -2   1   6   30.55    1.60   1
  -2   1   6   29.74    1.58   1
  -2   1   6   53.66    3.13   1
  -2   1   6   32.56    2.14   1
  -2   1   6   24.16    2.33   1
  -2   1   7   55.05    3.56   1
  -2   1   7   86.52    5.23   1
  -2   1   7   39.42    3.36   1
  -2   1   7   59.93    3.55   1
  -2   1   7   49.69    3.51   1
  -2   1   7   45.16    4.04   1
  -2   1   7   51.94    2.84   1
  -2   1   7   49.02    2.61   1
  -2   1   8    7.88    0.99   1
  -2   1   8    8.36    1.09   1
  -2   1   8    5.67    0.99   1
  -2   1   8    5.93    1.72   1
  -2   1   8    5.60    1.80   1
  -2   1   8   10.18    2.12   1
  -2   1   8    5.44    0.96   1
  -2   1   8   11.27    1.21   1
  -2   1   9    6.18    1.08   1
  -2   1   9    3.60    0.94   1
  -2   1   9    4.90    0.97   1
  -2   1   9    3.04    0.98   1
  -2   1   9    5.31    1.61   1
  -2   1   9    3.55    1.52   1
  -2   1  10    1.58    1.17   1
  -2   1  10   -0.11    0.97   1
  -2   1  10    1.52    0.77   1
  -2   1  10    0.96    2.45   1
  -2   1  10    4.66    1.91   1
  -2   1  11    2.23    2.21   1
  -2   1  11    4.34    2.32   1
  -2   1  12    0.32    2.34   1
  -2   2  -8    4.28    2.14   1
  -2   2  -8    9.39    1.42   1
  -2   2  -8    4.90    1.51   1
  -2   2  -7   20.37    2.99   1
  -2   2  -7   30.61    2.95   1
  -2   2  -7   10.18    2.23   1
  -2   2  -7   20.75    2.36   1
  -2   2  -6   69.14    5.85   1
  -2   2  -6  117.78    7.69   1
  -2   2  -6   50.59    4.98   1
  -2   2  -6   74.96    4.84   1
  -2   2  -5   13.01    1.65   1
  -2   2  -5   23.21    2.34   1
  -2   2  -5   11.14    1.59   1
  -2   2  -5   10.20    1.38   1
  -2   2  -4   50.15    3.68   1
  -2   2  -4   43.47    2.86   1
  -2   2  -4   52.40    3.61   1
  -2   2  -4   77.73    5.00   1
  -2   2  -3   82.08    4.90   1
  -2   2  -3   84.91    4.79   1
  -2   2  -3  130.59    7.66   1
  -2   2  -3   75.10    4.29   1
  -2   2  -2   59.89    3.20   1
  -2   2  -2   67.70    3.42   1
  -2   2  -2   92.07    5.62   1
  -2   2  -2   69.41    3.81   1
  -2   2  -1   14.40    1.67   1
  -2   2  -1   10.40    1.07   1
  -2   2  -1   10.11    0.86   1
  -2   2   0    1.31    0.76   1
  -2   2   0    1.79    0.63   1
  -2   2   0    2.92    0.64   1
  -2   2   0    1.92    0.32   1
  -2   2   0    2.29    0.54   1
  -2   2   1    5.72    0.65   1
  -2   2   1    5.95    0.75   1
  -2   2   1    6.29    0.63   1
  -2   2   1    4.87    1.10   1
  -2   2   1    5.42    0.63   1
  -2   2   2   13.01    0.75   1
  -2   2   2   11.43    0.77   1
  -2   2   2   12.45    1.10   1
  -2   2   2   14.09    1.48   1
  -2   2   3    0.63    0.73   1
  -2   2   3    0.65    0.54   1
  -2   2   3    0.64    0.97   1
  -2   2   4    3.03    0.98   1
  -2   2   4    2.76    0.75   1
  -2   2   4    6.37    1.40   1
  -2   2   4    2.51    0.86   1
  -2   2   5   20.56    1.89   1
  -2   2   5   10.60    2.17   1
  -2   2   5   20.52    3.65   1
  -2   2   5   14.88    1.59   1
  -2   2   6    0.75    1.08   1
  -2   2   6   86.58    8.74   1
  -2   2   6   28.92    6.43   1
  -2   2   6    4.76    3.99   1
  -2   2   7   11.09    2.07   1
  -2   2   7   10.64    1.82   1
  -2   2   7   20.72    2.00   1
  -2   2   7    7.73    1.77   1
  -2   2   8   -0.54    1.30   1
  -2   2   8    0.00    1.12   1
  -2   2   8    0.21    0.96   1
  -2   2   8    0.11    0.23   1
  -2   2   8   -0.11    0.22   1
  -2   2   8    0.00    1.09   1
  -2   2   8   -0.11    0.23   1
  -2   2   8   -1.07    1.28   1
  -2   2   9   20.10    1.49   1
  -2   2   9   18.46    1.55   1
  -2   2   9   21.61    3.46   1
  -2   2   9   19.57    1.51   1
  -2   2   9   19.05    2.79   1
  -2   2   9   35.50    2.57   1
  -2   2   9   17.90    1.41   1
  -2   2  10    3.28    1.90   1
  -2   2  10    5.37    2.35   1
  -2   2  11    3.29    2.31   1
  -2   2  12    2.11    3.80   1
  -2   3  -8   29.49    3.03   1
  -2   3  -7    0.75    1.71   1
  -2   3  -7    2.44    1.32   1
  -2   3  -6    0.53    0.86   1
  -2   3  -6    4.25    2.50   1
  -2   3  -5    7.36    1.41   1
  -2   3  -5    7.32    1.17   1
  -2   3  -5   10.81    1.65   1
  -2   3  -4    0.11    0.87   1
  -2   3  -4   -0.43    0.75   1
  -2   3  -4    0.77    0.88   1
  -2   3  -4    1.06    0.85   1
  -2   3  -3   79.98    5.77   1
  -2   3  -3   75.02    3.75   1
  -2   3  -3   87.82    4.68   1
  -2   3  -3  120.05    7.53   1
  -2   3  -2    0.00    1.07   1
  -2   3  -2   -0.11    0.77   1
  -2   3  -2    0.00    1.08   1
  -2   3  -1   53.77    3.03   1
  -2   3  -1   65.27    4.03   1
  -2   3   0   13.32    1.59   1
  -2   3   0   13.31    0.98   1
  -2   3   0   10.96    1.16   1
  -2   3   1    0.22    0.75   1
  -2   3   1    0.63    0.64   1
  -2   3   1   -0.11    0.75   1
  -2   3   2    0.32    0.75   1
  -2   3   2    0.32    0.86   1
  -2   3   3    5.75    0.74   1
  -2   3   3    6.46    0.95   1
  -2   3   3    5.85    1.15   1
  -2   3   3    3.63    0.95   1
  -2   3   4   70.96    4.34   1
  -2   3   4   73.36    4.09   1
  -2   3   4   88.15    5.64   1
  -2   3   4   58.62    3.48   1
  -2   3   5   16.53    2.02   1
  -2   3   5   15.96    1.81   1
  -2   3   5   11.57    1.68   1
  -2   3   5   16.93    1.80   1
  -2   3   6   56.56    4.07   1
  -2   3   6   74.08    5.36   1
  -2   3   6   41.33    3.44   1
  -2   3   6   50.61    4.41   1
  -2   3   7    3.55    1.40   1
  -2   3   7    1.61    1.71   1
  -2   3   7    1.72    1.17   1
  -2   3   7    0.42    1.16   1
  -2   3   8   84.52    5.95   1
  -2   3   8   46.82    5.22   1
  -2   3   8   52.91    5.13   1
  -2   3   8   51.20    5.62   1
  -2   3   9    2.11    1.43   1
  -2   3   9    2.46    2.36   1
  -2   3   9    1.18    1.94   1
  -2   3  10    4.69    2.15   1
  -2   3  11    0.00    1.06   1
  -2   4  -8    4.86    1.90   1
  -2   4  -7    9.94    1.78   1
  -2   4  -7    2.88    1.16   1
  -2   4  -6    6.83    1.85   1
  -2   4  -6    3.20    0.96   1
  -2   4  -5   -0.11    0.54   1
  -2   4  -5    0.76    0.98   1
  -2   4  -4    3.93    0.74   1
  -2   4  -4    3.90    1.64   1
  -2   4  -3   10.55    1.82   1
  -2   4  -3    5.53    0.73   1
  -2   4  -2   38.09    2.94   1
  -2   4  -2   27.76    1.63   1
  -2   4  -1   67.65    3.57   1
  -2   4  -1   81.19    4.08   1
  -2   4   0   37.90    1.91   1
  -2   4   0   46.09    3.07   1
  -2   4   0   40.81    1.99   1
  -2   4   1   27.50    2.07   1
  -2   4   1   21.75    1.54   1
  -2   4   1   22.45    1.76   1
  -2   4   2   95.22    5.62   1
  -2   4   2   78.87    4.59   1
  -2   4   2   91.77    5.34   1
  -2   4   2   98.04    5.33   1
  -2   4   3   28.14    2.30   1
  -2   4   3   28.03    2.19   1
  -2   4   3   31.80    2.91   1
  -2   4   4   17.12    2.90   1
  -2   4   4    3.72    1.39   1
  -2   4   4    9.55    3.53   1
  -2   4   5    8.05    1.53   1
  -2   4   5    6.41    1.73   1
  -2   4   5    7.76    1.49   1
  -2   4   5   10.58    1.62   1
  -2   4   6   -0.11    1.75   1
  -2   4   6    1.07    1.39   1
  -2   4   6    0.32    1.41   1
  -2   4   6    0.75    0.97   1
  -2   4   7   29.23    3.49   1
  -2   4   7   33.79    3.50   1
  -2   4   7   29.03    3.56   1
  -2   4   7   31.89    3.74   1
  -2   4   8    4.33    1.86   1
  -2   4   8    5.22    2.46   1
  -2   4   8    7.60    2.06   1
  -2   4   8    4.05    1.70   1
  -2   4   9   11.06    3.43   1
  -2   4  10    1.80    2.25   1
  -2   5  -8   12.95    2.93   1
  -2   5  -7    7.67    2.25   1
  -2   5  -6    0.98    1.72   1
  -2   5  -5    9.83    1.95   1
  -2   5  -4    1.82    1.71   1
  -2   5  -3   71.25    5.43   1
  -2   5  -1   33.80    3.35   1
  -2   5   0    4.11    1.25   1
  -2   5   0    3.59    1.17   1
  -2   5   1   56.25    4.17   1
  -2   5   1   58.16    4.09   1
  -2   5   1   51.46    2.97   1
  -2   5   1   53.79    3.82   1
  -2   5   2   20.54    2.25   1
  -2   5   2   18.35    1.51   1
  -2   5   2   20.04    2.22   1
  -2   5   2   16.50    1.94   1
  -2   5   3   11.85    1.71   1
  -2   5   3   17.22    1.80   1
  -2   5   3   12.53    1.39   1
  -2   5   3   11.60    2.11   1
  -2   5   4   10.66    2.02   1
  -2   5   4   13.53    1.75   1
  -2   5   4   12.77    2.07   1
  -2   5   5    7.31    1.29   1
  -2   5   5    5.17    1.51   1
  -2   5   5    6.11    1.94   1
  -2   5   6    9.77    2.26   1
  -2   5   6   16.84    2.89   1
  -2   5   6   13.73    1.92   1
  -2   5   6    8.84    2.04   1
  -2   5   7    0.64    2.25   1
  -2   5   7    0.22    2.04   1
  -2   5   7   -1.49    1.29   1
  -2   5   7    0.64    2.15   1
  -2   5   8    4.85    1.83   1
  -2   5   8    3.54    1.83   1
  -2   5   9    2.34    2.02   1
  -2   6  -8   14.44    3.01   1
  -2   6  -7    2.91    2.59   1
  -2   6  -6   10.70    2.38   1
  -2   6  -5   23.90    3.35   1
  -2   6  -4   17.31    2.93   1
  -2   6  -2    1.07    1.17   1
  -2   6  -1    1.68    1.36   1
  -2   6   0    9.92    1.69   1
  -2   6   0   11.99    2.14   1
  -2   6   1   15.12    2.00   1
  -2   6   1   14.85    2.47   1
  -2   6   2   11.64    1.20   1
  -2   6   2   11.01    2.68   1
  -2   6   2   10.05    1.90   1
  -2   6   3    7.51    1.30   1
  -2   6   3   16.04    2.90   1
  -2   6   3    9.12    2.06   1
  -2   6   3    7.66    1.73   1
  -2   6   4    1.51    1.61   1
  -2   6   4    2.99    1.93   1
  -2   6   4    2.69    1.60   1
  -2   6   5    2.04    1.60   1
  -2   6   5   -0.64    1.61   1
  -2   6   5    0.54    1.93   1
  -2   6   6    3.02    2.28   1
  -2   6   6   -1.70    2.90   1
  -2   6   6   -0.54    1.83   1
  -2   6   7    0.64    1.92   1
  -2   7  -7    4.32    3.33   1
  -2   7  -6    1.61    3.11   1
  -2   7  -5   11.75    2.56   1
  -2   7  -4    1.60    2.89   1
  -2   7  -3    4.91    1.93   1
  -2   7  -2   -0.85    1.60   1
  -2   7  -1    1.39    1.93   1
  -2   7   0    1.58    1.69   1
  -2   7   0   -0.22    2.05   1
  -2   7   1    0.97    1.51   1
  -2   7   1    0.11    1.73   1
  -2   7   2   14.55    3.63   1
  -2   7   2    7.84    2.38   1
  -2   7   3    2.58    2.79   1
  -2   7   3    1.82    1.93   1
  -2   7   4   10.56    3.44   1
  -2   7   5    0.54    2.15   1
  -2   7   5    0.00    1.09   1
  -2   8  -3    1.94    2.58   1
  -2   8   0    5.45    2.80   1
  -1  -8   1    2.03    1.71   1
  -1  -8   2    0.22    2.03   1
  -1  -8   3    0.22    3.00   1
  -1  -8   4    5.35    3.30   1
  -1  -8   5    0.63    2.97   1
  -1  -7  -3    0.64    1.62   1
  -1  -7  -2   15.66    2.71   1
  -1  -7  -2   13.52    2.52   1
  -1  -7  -1   11.43    2.59   1
  -1  -7  -1   10.81    2.04   1
  -1  -7   0    5.98    1.92   1
  -1  -7   0    0.75    2.15   1
  -1  -7   1   10.56    2.35   1
  -1  -7   1    3.53    1.94   1
  -1  -7   1   12.45    2.55   1
  -1  -7   2    9.92    2.99   1
  -1  -7   2   18.97    3.24   1
  -1  -7   2   14.58    2.52   1
  -1  -7   3   11.35    2.44   1
  -1  -7   3   17.47    2.85   1
  -1  -7   3   22.73    3.44   1
  -1  -7   4    3.54    1.83   1
  -1  -7   4    4.26    2.64   1
  -1  -7   4    2.24    2.13   1
  -1  -7   5    1.39    1.61   1
  -1  -7   5    3.30    2.66   1
  -1  -7   5    0.96    1.70   1
  -1  -7   6    2.12    2.14   1
  -1  -7   7    2.13    2.23   1
  -1  -7   8   -1.49    2.45   1
  -1  -6  -5    8.35    2.03   1
  -1  -6  -4    2.28    1.73   1
  -1  -6  -4   -0.22    1.41   1
  -1  -6  -3   27.83    3.18   1
  -1  -6  -3   33.35    3.49   1
  -1  -6  -2    4.87    2.00   1
  -1  -6  -2    4.83    1.91   1
  -1  -6  -2    3.11    1.50   1
  -1  -6  -1   13.67    2.21   1
  -1  -6  -1    4.98    1.30   1
  -1  -6  -1    5.01    2.03   1
  -1  -6  -1    9.28    1.57   1
  -1  -6   0   -0.54    1.18   1
  -1  -6   0    1.17    1.07   1
  -1  -6   0    1.58    1.79   1
  -1  -6   0    1.32    0.65   1
  -1  -6   1   13.36    2.34   1
  -1  -6   1   14.49    2.12   1
  -1  -6   1   12.16    2.37   1
  -1  -6   2    5.20    1.51   1
  -1  -6   2    5.90    1.61   1
  -1  -6   2    7.36    1.62   1
  -1  -6   3    1.17    1.49   1
  -1  -6   3   -0.22    1.08   1
  -1  -6   3    0.54    2.02   1
  -1  -6   4   10.54    2.34   1
  -1  -6   4    9.67    1.61   1
  -1  -6   4    7.98    1.92   1
  -1  -6   5    0.22    1.61   1
  -1  -6   5    1.69    1.90   1
  -1  -6   5    0.43    1.08   1
  -1  -6   6    3.31    1.92   1
  -1  -6   6    4.79    1.51   1
  -1  -6   6    3.93    2.13   1
  -1  -6   7    2.87    2.66   1
  -1  -6   7    0.75    1.72   1
  -1  -6   8    4.89    2.33   1
  -1  -6   9    2.56    3.30   1
  -1  -6  10   -1.38    3.30   1
  -1  -5  -6   17.69    1.92   1
  -1  -5  -6    9.47    1.85   1
  -1  -5  -5    4.04    1.98   1
  -1  -5  -5    7.09    1.49   1
  -1  -5  -5    4.08    1.17   1
  -1  -5  -4   27.01    2.71   1
  -1  -5  -4   18.33    3.00   1
  -1  -5  -4   26.04    2.34   1
  -1  -5  -4   12.59    2.06   1
  -1  -5  -4   12.11    2.19   1
  -1  -5  -3    0.85    1.40   1
  -1  -5  -3    0.65    1.20   1
  -1  -5  -3    1.51    1.51   1
  -1  -5  -3    2.65    1.38   1
  -1  -5  -3    0.11    1.53   1
  -1  -5  -2   -0.11    0.87   1
  -1  -5  -2   -0.22    0.98   1
  -1  -5  -2   -0.11    1.29   1
  -1  -5  -2    0.54    1.40   1
  -1  -5  -2    0.22    0.99   1
  -1  -5  -1    1.69    0.97   1
  -1  -5  -1    0.97    0.86   1
  -1  -5  -1    0.42    1.38   1
  -1  -5  -1    0.84    1.48   1
  -1  -5   0    3.72    1.07   1
  -1  -5   0    4.26    1.28   1
  -1  -5   0    5.63    1.47   1
  -1  -5   0    1.49    0.63   1
  -1  -5   1   34.22    3.14   1
  -1  -5   1   26.41    2.13   1
  -1  -5   1   27.67    2.72   1
  -1  -5   1   34.58    2.67   1
  -1  -5   2    0.43    0.33   1
  -1  -5   2    0.75    0.96   1
  -1  -5   2   -0.54    0.98   1
  -1  -5   2    0.11    0.96   1
  -1  -5   3   97.00    5.68   1
  -1  -5   3   72.76    3.37   1
  -1  -5   3   74.00    4.65   1
  -1  -5   3   79.60    5.33   1
  -1  -5   3   65.70    3.54   1
  -1  -5   4    2.45    1.29   1
  -1  -5   4    0.86    0.96   1
  -1  -5   4    1.48    1.28   1
  -1  -5   4    1.70    0.43   1
  -1  -5   4    2.06    0.33   1
  -1  -5   5   18.59    2.58   1
  -1  -5   5   23.21    2.78   1
  -1  -5   5   17.31    1.30   1
  -1  -5   5   16.81    1.54   1
  -1  -5   6    0.22    0.65   1
  -1  -5   6   -0.32    1.29   1
  -1  -5   6   -0.54    1.29   1
  -1  -5   7   15.80    2.54   1
  -1  -5   7   14.84    1.60   1
  -1  -5   7   19.71    3.03   1
  -1  -5   7   14.91    2.47   1
  -1  -5   8   15.12    2.97   1
  -1  -5   8   10.83    1.64   1
  -1  -5   8   11.30    2.36   1
  -1  -5   9    0.84    2.33   1
  -1  -5   9    0.86    0.97   1
  -1  -5   9   -0.63    2.01   1
  -1  -5  10    3.36    1.53   1
  -1  -5  10    8.80    2.87   1
  -1  -5  11   -0.63    2.22   1
  -1  -4  -8   -1.07    1.60   1
  -1  -4  -7    2.49    1.50   1
  -1  -4  -7    1.82    1.06   1
  -1  -4  -6    4.17    1.48   1
  -1  -4  -6    3.09    1.92   1
  -1  -4  -6    2.68    1.49   1
  -1  -4  -6    3.37    1.65   1
  -1  -4  -5    7.89    1.80   1
  -1  -4  -5   14.68    2.16   1
  -1  -4  -5    8.02    1.70   1
  -1  -4  -5   10.32    1.73   1
  -1  -4  -5   13.00    1.79   1
  -1  -4  -4   11.35    2.02   1
  -1  -4  -4   28.87    2.35   1
  -1  -4  -4   29.21    2.36   1
  -1  -4  -4   19.43    2.12   1
  -1  -4  -4   16.60    2.44   1
  -1  -4  -3   55.74    3.58   1
  -1  -4  -3   29.00    2.89   1
  -1  -4  -3   40.86    3.08   1
  -1  -4  -3   54.65    3.54   1
  -1  -4  -3   38.14    3.69   1
  -1  -4  -2   44.82    3.33   1
  -1  -4  -2   48.93    3.33   1
  -1  -4  -2   36.89    2.67   1
  -1  -4  -2   31.62    3.25   1
  -1  -4  -1   19.15    1.90   1
  -1  -4  -1   26.01    2.11   1
  -1  -4  -1   21.82    1.66   1
  -1  -4  -1   18.07    1.85   1
  -1  -4  -1   26.01    2.32   1
  -1  -4   0    8.83    1.41   1
  -1  -4   0    8.98    1.49   1
  -1  -4   0    8.19    0.95   1
  -1  -4   0    8.04    0.88   1
  -1  -4   0   10.23    1.25   1
  -1  -4   1   13.40    1.59   1
  -1  -4   1   11.46    1.26   1
  -1  -4   1   10.05    0.98   1
  -1  -4   1   12.44    1.38   1
  -1  -4   2   67.39    4.06   1
  -1  -4   2   65.38    3.66   1
  -1  -4   2   65.19    3.69   1
  -1  -4   2   57.98    2.83   1
  -1  -4   3   27.92    1.86   1
  -1  -4   3   32.55    2.23   1
  -1  -4   3   25.38    2.49   1
  -1  -4   3   33.49    2.62   1
  -1  -4   4   68.28    4.60   1
  -1  -4   4   61.20    4.19   1
  -1  -4   4   62.29    3.60   1
  -1  -4   4   72.42    4.73   1
  -1  -4   5    6.38    1.72   1
  -1  -4   5    7.87    1.39   1
  -1  -4   5    6.29    1.29   1
  -1  -4   5    6.01    1.07   1
  -1  -4   6  104.64    6.77   1
  -1  -4   6  134.91    6.71   1
  -1  -4   6  109.15    7.13   1
  -1  -4   6  128.52    8.19   1
  -1  -4   7    7.75    3.10   1
  -1  -4   7    4.70    1.61   1
  -1  -4   7    7.52    1.42   1
  -1  -4   7    6.59    1.59   1
  -1  -4   8   23.85    3.62   1
  -1  -4   8   23.37    3.09   1
  -1  -4   8   23.55    3.10   1
  -1  -4   8   24.70    2.57   1
  -1  -4   9    0.00    1.06   1
  -1  -4   9    0.00    1.07   1
  -1  -4   9    0.96    1.59   1
  -1  -4   9   -1.38    2.13   1
  -1  -4  10    1.08    1.83   1
  -1  -4  10    2.11    2.33   1
  -1  -4  10    4.24    1.82   1
  -1  -4  11    0.84    2.00   1
  -1  -4  11    0.97    1.61   1
  -1  -4  12   -1.38    2.13   1
  -1  -4  12    0.85    1.70   1
  -1  -3  -9    2.03    2.03   1
  -1  -3  -9   -1.38    1.38   1
  -1  -3  -8   16.24    2.42   1
  -1  -3  -8   13.38    2.12   1
  -1  -3  -7    9.58    2.52   1
  -1  -3  -7    6.23    1.60   1
  -1  -3  -6   34.77    3.43   1
  -1  -3  -6   27.97    3.09   1
  -1  -3  -6   32.25    3.18   1
  -1  -3  -6   28.64    3.87   1
  -1  -3  -5    3.41    1.29   1
  -1  -3  -5    5.44    1.69   1
  -1  -3  -5    6.97    1.43   1
  -1  -3  -5    5.40    1.06   1
  -1  -3  -5    7.33    1.40   1
  -1  -3  -4  102.12    7.29   1
  -1  -3  -4   84.43    6.44   1
  -1  -3  -4   96.08    5.93   1
  -1  -3  -4  130.40    7.83   1
  -1  -3  -4  120.14    6.83   1
  -1  -3  -3   65.34    5.06   1
  -1  -3  -3   43.31    3.26   1
  -1  -3  -3   50.86    3.28   1
  -1  -3  -3   62.67    3.80   1
  -1  -3  -2   56.26    3.41   1
  -1  -3  -2   69.04    4.14   1
  -1  -3  -2   55.06    2.91   1
  -1  -3  -2   68.35    4.29   1
  -1  -3  -2   62.50    3.48   1
  -1  -3  -1   10.38    1.28   1
  -1  -3  -1   11.96    1.29   1
  -1  -3  -1   13.16    1.20   1
  -1  -3  -1   12.18    1.30   1
  -1  -3  -1   13.23    1.28   1
  -1  -3   0  171.79    7.86   1
  -1  -3   0  200.50    8.18   1
  -1  -3   0  157.80    7.25   1
  -1  -3   0  190.69    8.84   1
  -1  -3   0  189.34    7.18   1
  -1  -3   1  130.42    4.97   1
  -1  -3   1  137.62    6.05   1
  -1  -3   1  132.59    5.94   1
  -1  -3   1  118.61    4.95   1
  -1  -3   1  118.99    5.88   1
  -1  -3   2   40.23    2.48   1
  -1  -3   2   36.02    1.99   1
  -1  -3   2   39.71    2.34   1
  -1  -3   2   30.90    2.29   1
  -1  -3   3   30.57    2.16   1
  -1  -3   3   30.00    2.26   1
  -1  -3   3   28.67    2.09   1
  -1  -3   4   18.31    2.03   1
  -1  -3   4   20.94    1.89   1
  -1  -3   4   18.29    1.68   1
  -1  -3   5   40.33    2.62   1
  -1  -3   5   39.81    3.25   1
  -1  -3   5   37.56    2.66   1
  -1  -3   5   41.75    2.94   1
  -1  -3   6    5.98    1.71   1
  -1  -3   6    6.18    1.38   1
  -1  -3   6    6.28    1.40   1
  -1  -3   6    5.49    1.17   1
  -1  -3   6    6.08    0.97   1
  -1  -3   7   21.69    2.59   1
  -1  -3   7   19.84    2.57   1
  -1  -3   7   20.86    2.64   1
  -1  -3   7   21.85    2.12   1
  -1  -3   7   20.84    2.45   1
  -1  -3   8   19.51    2.18   1
  -1  -3   8   21.88    2.80   1
  -1  -3   8   14.58    1.89   1
  -1  -3   8   18.52    2.39   1
  -1  -3   9    6.05    1.82   1
  -1  -3   9   -0.11    1.29   1
  -1  -3   9    3.40    2.24   1
  -1  -3   9    2.12    1.17   1
  -1  -3  10    4.54    1.80   1
  -1  -3  10    4.71    1.70   1
  -1  -3  10    5.72    2.02   1
  -1  -3  10    5.17    1.92   1
  -1  -3  11    0.75    2.35   1
  -1  -3  11    1.79    2.65   1
  -1  -3  11    1.58    1.58   1
  -1  -3  12    4.46    2.13   1
  -1  -3  12    4.54    2.99   1
  -1  -3  12    1.92    2.89   1
  -1  -2 -10    9.10    2.24   1
  -1  -2 -10   11.20    3.18   1
  -1  -2  -9   23.14    3.28   1
  -1  -2  -9   28.38    3.52   1
  -1  -2  -8    3.93    1.39   1
  -1  -2  -8    3.08    1.60   1
  -1  -2  -8    2.36    2.14   1
  -1  -2  -7    5.13    1.26   1
  -1  -2  -7    5.29    1.53   1
  -1  -2  -6    0.33    1.09   1
  -1  -2  -6    0.85    1.17   1
  -1  -2  -6    2.14    1.18   1
  -1  -2  -6    0.22    1.18   1
  -1  -2  -5   41.93    2.96   1
  -1  -2  -5   39.97    3.00   1
  -1  -2  -5   45.50    2.66   1
  -1  -2  -5   25.28    2.90   1
  -1  -2  -5   38.09    3.22   1
  -1  -2  -4   54.38    3.65   1
  -1  -2  -4   77.45    3.84   1
  -1  -2  -4   62.80    3.48   1
  -1  -2  -4   75.80    3.62   1
  -1  -2  -4   44.86    3.59   1
  -1  -2  -3   69.82    4.19   1
  -1  -2  -3   72.79    4.45   1
  -1  -2  -3   60.15    3.40   1
  -1  -2  -3   47.00    3.39   1
  -1  -2  -3   54.01    3.64   1
  -1  -2  -2   22.31    1.48   1
  -1  -2  -2   20.42    2.05   1
  -1  -2  -2   20.50    1.59   1
  -1  -2  -2   28.18    1.99   1
  -1  -2  -2   29.19    2.14   1
  -1  -2  -1  465.15   19.10   1
  -1  -2  -1  628.69   20.77   1
  -1  -2  -1  489.05   18.51   1
  -1  -2  -1  466.54   18.74   1
  -1  -2  -1  613.20   21.03   1
  -1  -2   0   18.09    1.14   1
  -1  -2   0   22.19    1.46   1
  -1  -2   0   21.04    1.25   1
  -1  -2   0   21.32    1.53   1
  -1  -2   0   16.80    1.27   1
  -1  -2   1  218.54    8.88   1
  -1  -2   1  242.32    8.47   1
  -1  -2   1  236.41    9.51   1
  -1  -2   1  234.20    8.84   1
  -1  -2   2   31.38    1.85   1
  -1  -2   2   32.66    1.77   1
  -1  -2   2   28.74    1.99   1
  -1  -2   3    5.32    0.86   1
  -1  -2   3    5.87    0.85   1
  -1  -2   3    8.79    1.28   1
  -1  -2   4    0.42    0.63   1
  -1  -2   4    0.32    0.64   1
  -1  -2   5   30.78    2.06   1
  -1  -2   5   36.15    1.98   1
  -1  -2   5   27.41    2.05   1
  -1  -2   6   29.29    2.34   1
  -1  -2   6   26.36    2.12   1
  -1  -2   6   30.57    2.40   1
  -1  -2   6   33.09    2.61   1
  -1  -2   6   30.34    2.39   1
  -1  -2   7   83.10    5.07   1
  -1  -2   7   71.75    5.06   1
  -1  -2   7   81.51    5.77   1
  -1  -2   7   70.04    5.87   1
  -1  -2   7   82.91    5.06   1
  -1  -2   8    3.29    1.16   1
  -1  -2   8    5.18    1.69   1
  -1  -2   8    3.91    1.18   1
  -1  -2   8    4.77    1.26   1
  -1  -2   8    2.33    1.16   1
  -1  -2   9   17.01    2.38   1
  -1  -2   9   14.24    2.33   1
  -1  -2   9   13.97    2.00   1
  -1  -2   9   16.87    2.20   1
  -1  -2  10    2.76    1.71   1
  -1  -2  10    4.85    1.81   1
  -1  -2  10    4.78    1.58   1
  -1  -2  10    3.83    2.01   1
  -1  -2  11   12.41    2.76   1
  -1  -2  11   18.00    3.06   1
  -1  -2  11   12.62    2.42   1
  -1  -2  11   16.82    2.97   1
  -1  -2  11   15.10    2.72   1
  -1  -2  12    6.16    2.25   1
  -1  -2  12    2.75    2.22   1
  -1  -2  12    5.20    1.93   1
  -1  -2  12    2.02    2.14   1
  -1  -2  13    0.84    2.21   1
  -1  -2  13    0.75    3.31   1
  -1  -1 -10   14.30    2.89   1
  -1  -1 -10   17.00    3.07   1
  -1  -1  -9    0.11    1.30   1
  -1  -1  -9   -1.07    1.60   1
  -1  -1  -9    1.19    1.94   1
  -1  -1  -8   16.99    2.83   1
  -1  -1  -8   29.02    3.22   1
  -1  -1  -8   23.62    3.01   1
  -1  -1  -7   11.33    1.95   1
  -1  -1  -7   18.27    2.49   1
  -1  -1  -7    7.13    2.04   1
  -1  -1  -7   17.13    1.79   1
  -1  -1  -6   49.35    3.48   1
  -1  -1  -6   52.15    4.06   1
  -1  -1  -6   48.79    4.19   1
  -1  -1  -6   36.07    3.46   1
  -1  -1  -5   14.61    1.82   1
  -1  -1  -5   15.15    1.62   1
  -1  -1  -5   15.64    1.63   1
  -1  -1  -5   18.93    1.71   1
  -1  -1  -5   13.07    1.71   1
  -1  -1  -4    0.11    0.87   1
  -1  -1  -4    1.58    0.75   1
  -1  -1  -4    0.96    0.65   1
  -1  -1  -4    0.33    0.65   1
  -1  -1  -3    8.94    1.17   1
  -1  -1  -3    8.70    1.16   1
  -1  -1  -3   12.44    1.32   1
  -1  -1  -3   12.67    1.19   1
  -1  -1  -2   44.13    2.47   1
  -1  -1  -2   38.61    2.18   1
  -1  -1  -2   53.31    2.91   1
  -1  -1  -2   59.78    2.92   1
  -1  -1  -1  149.58    7.15   1
  -1  -1  -1  104.39    4.86   1
  -1  -1  -1  151.64    5.92   1
  -1  -1  -1  105.02    4.86   1
  -1  -1   0   11.06    0.96   1
  -1  -1   0   14.44    1.10   1
  -1  -1   0   13.74    1.00   1
  -1  -1   1  752.59   25.40   1
  -1  -1   1  825.11   26.70   1
  -1  -1   1  812.16   27.08   1
  -1  -1   2    5.86    0.65   1
  -1  -1   2    6.79    0.64   1
  -1  -1   2    6.80    0.86   1
  -1  -1   3  167.80    6.67   1
  -1  -1   3  169.40    6.71   1
  -1  -1   3  185.04    6.24   1
  -1  -1   4   35.15    2.20   1
  -1  -1   4   30.55    1.82   1
  -1  -1   5   50.27    3.22   1
  -1  -1   5   49.22    2.61   1
  -1  -1   5   51.29    3.25   1
  -1  -1   5   47.64    2.99   1
  -1  -1   5   51.26    2.66   1
  -1  -1   6   83.13    4.51   1
  -1  -1   6   89.25    4.28   1
  -1  -1   6   75.61    4.30   1
  -1  -1   6   87.55    5.21   1
  -1  -1   6   98.89    4.51   1
  -1  -1   7    0.84    0.85   1
  -1  -1   7    2.33    0.95   1
  -1  -1   7    2.45    1.29   1
  -1  -1   7    1.68    0.85   1
  -1  -1   7    0.96    1.27   1
  -1  -1   8   84.30    4.73   1
  -1  -1   8   79.21    5.88   1
  -1  -1   8   69.93    4.99   1
  -1  -1   8   80.12    6.10   1
  -1  -1   8   74.58    4.80   1
  -1  -1   9    3.94    1.27   1
  -1  -1   9    4.05    1.37   1
  -1  -1   9    4.76    1.17   1
  -1  -1   9    2.32    1.07   1
  -1  -1   9   -0.32    1.17   1
  -1  -1  10   73.33    7.07   1
  -1  -1  10   77.92    6.91   1
  -1  -1  10   85.36    6.47   1
  -1  -1  10   74.93    6.62   1
  -1  -1  10   79.88    6.63   1
  -1  -1  11    2.02    1.58   1
  -1  -1  11   -0.22    1.92   1
  -1  -1  11    2.65    2.55   1
  -1  -1  11   -1.80    1.49   1
  -1  -1  11   -0.42    1.60   1
  -1  -1  12   10.25    3.16   1
  -1  -1  12   12.34    2.53   1
  -1  -1  12   11.03    3.22   1
  -1  -1  13   -1.38    2.01   1
  -1  -1  13    0.42    3.60   1
  -1   0  -9   13.43    2.57   1
  -1   0  -9   15.15    2.33   1
  -1   0  -9   14.33    2.35   1
  -1   0  -8    0.84    1.38   1
  -1   0  -8    0.42    0.95   1
  -1   0  -8    1.08    1.18   1
  -1   0  -7   18.36    2.65   1
  -1   0  -7   21.36    2.48   1
  -1   0  -7   20.73    2.64   1
  -1   0  -7   24.94    2.58   1
  -1   0  -6    2.23    1.26   1
  -1   0  -6    2.56    0.86   1
  -1   0  -6    3.85    0.97   1
  -1   0  -5   21.41    2.01   1
  -1   0  -5   17.56    1.81   1
  -1   0  -4   55.41    3.39   1
  -1   0  -4   52.23    3.29   1
  -1   0  -4   75.22    3.85   1
  -1   0  -4   39.62    2.98   1
  -1   0  -3    1.49    0.76   1
  -1   0  -3    1.58    0.52   1
  -1   0  -3    2.33    0.76   1
  -1   0  -3    1.80    0.80   1
  -1   0  -3    2.13    0.64   1
  -1   0  -2  117.22    5.61   1
  -1   0  -2  164.92    6.43   1
  -1   0  -2   97.39    4.47   1
  -1   0  -2  118.09    5.86   1
  -1   0  -2   83.07    3.75   1
  -1   0  -1  140.60    6.42   1
  -1   0  -1  106.63    4.69   1
  -1   0  -1  104.78    5.07   1
  -1   0  -1  142.10    5.96   1
  -1   0  -1  201.97    7.17   1
  -1   0   0  994.36   35.61   1
  -1   0   0  976.90   32.20   1
  -1   0   0  976.16   31.53   1
  -1   0   0  767.13   28.67   1
  -1   0   1  103.15    4.43   1
  -1   0   1  149.39    6.22   1
  -1   0   1   98.99    4.34   1
  -1   0   2  343.21   13.38   1
  -1   0   2  342.11   13.36   1
  -1   0   2  577.34   18.08   1
  -1   0   3   39.94    3.13   1
  -1   0   3    0.42    0.32   1
  -1   0   3    0.85    0.42   1
  -1   0   3    1.58    0.36   1
  -1   0   4 1251.35   31.30   1
  -1   0   4  710.35   26.03   1
  -1   0   4  684.99   26.50   1
  -1   0   4  689.81   26.02   1
  -1   0   4  705.78   24.71   1
  -1   0   4  664.61   25.54   1
  -1   0   5  118.53    4.15   1
  -1   0   5   66.95    3.88   1
  -1   0   5   92.83    4.58   1
  -1   0   5   95.22    4.22   1
  -1   0   5   92.85    4.98   1
  -1   0   5   87.80    3.70   1
  -1   0   5   89.28    3.70   1
  -1   0   6  101.03    5.20   1
  -1   0   6   83.78    4.52   1
  -1   0   6  105.05    5.94   1
  -1   0   6  100.95    4.34   1
  -1   0   6  100.75    4.55   1
  -1   0   7   18.33    2.04   1
  -1   0   7   18.87    2.06   1
  -1   0   7   21.03    2.19   1
  -1   0   7   18.42    1.59   1
  -1   0   7   21.74    1.73   1
  -1   0   7   19.16    1.91   1
  -1   0   8   21.27    1.90   1
  -1   0   8   16.70    1.94   1
  -1   0   8   17.73    1.99   1
  -1   0   8   17.62    2.60   1
  -1   0   8   13.90    1.94   1
  -1   0   8   19.93    2.13   1
  -1   0   9   31.85    2.79   1
  -1   0   9   35.46    3.34   1
  -1   0   9   27.05    2.68   1
  -1   0   9   31.62    3.15   1
  -1   0   9   25.58    2.71   1
  -1   0   9   25.31    3.33   1
  -1   0  10    0.75    1.39   1
  -1   0  10    1.30    1.30   1
  -1   0  10    0.84    2.12   1
  -1   0  10    2.12    1.71   1
  -1   0  10    2.33    1.60   1
  -1   0  10    0.54    1.19   1
  -1   0  11   10.61    2.69   1
  -1   0  11   22.10    4.17   1
  -1   0  11   19.17    3.09   1
  -1   0  11   18.04    2.89   1
  -1   0  12    8.39    2.33   1
  -1   0  12    1.91    2.22   1
  -1   0  13    4.46    3.09   1
  -1   1 -10    5.24    2.04   1
  -1   1  -9   12.50    2.05   1
  -1   1  -8   37.85    4.08   1
  -1   1  -8   24.18    3.55   1
  -1   1  -8   41.67    3.47   1
  -1   1  -8   36.75    3.76   1
  -1   1  -7   12.55    1.82   1
  -1   1  -7   19.85    1.93   1
  -1   1  -7   18.58    2.23   1
  -1   1  -7   18.00    1.24   1
  -1   1  -6  210.73    9.31   1
  -1   1  -6  193.07    9.48   1
  -1   1  -6  148.47    9.53   1
  -1   1  -5   20.96    1.98   1
  -1   1  -5   25.28    1.98   1
  -1   1  -5   43.88    3.00   1
  -1   1  -5   29.72    2.37   1
  -1   1  -4  122.59    6.15   1
  -1   1  -4  245.19    9.99   1
  -1   1  -4  144.34    7.22   1
  -1   1  -4  141.83    6.41   1
  -1   1  -3    3.00    0.65   1
  -1   1  -3    1.38    0.53   1
  -1   1  -3    2.87    0.68   1
  -1   1  -3    1.82    0.87   1
  -1   1  -2  133.60    5.72   1
  -1   1  -2  207.38    9.37   1
  -1   1  -2  140.81    6.40   1
  -1   1  -2  152.34    6.66   1
  -1   1  -1  370.18   13.52   1
  -1   1  -1  351.38   14.78   1
  -1   1  -1  361.21   14.59   1
  -1   1  -1  496.65   17.25   1
  -1   1   0   51.93    2.37   1
  -1   1   0   55.53    2.63   1
  -1   1   0   66.53    3.22   1
  -1   1   0   53.84    2.59   1
  -1   1   1  709.38   24.89   1
  -1   1   1  569.37   19.85   1
  -1   1   1  563.96   20.73   1
  -1   1   2   46.90    2.42   1
  -1   1   2   37.97    1.90   1
  -1   1   3  719.26   28.78   1
  -1   1   3  924.20   30.94   1
  -1   1   3  856.72   28.70   1
  -1   1   3  899.73   28.79   1
  -1   1   3  778.31   30.69   1
  -1   1   3  821.97   27.21   1
  -1   1   3  849.44   28.89   1
  -1   1   3  789.21   26.66   1
  -1   1   4    0.11    0.65   1
  -1   1   4    0.11    0.76   1
  -1   1   4    0.33    0.32   1
  -1   1   4   -0.22    0.22   1
  -1   1   4    0.00    1.08   1
  -1   1   4    0.11    0.22   1
  -1   1   4    0.96    0.65   1
  -1   1   4    0.00    1.06   1
  -1   1   5  151.13    5.82   1
  -1   1   5  147.54    7.55   1
  -1   1   5  176.98    7.23   1
  -1   1   5  169.62    7.08   1
  -1   1   5  150.45    6.62   1
  -1   1   5  144.37    5.94   1
  -1   1   5  127.58    6.51   1
  -1   1   5  204.10    8.35   1
  -1   1   6    1.30    1.08   1
  -1   1   6    2.02    0.64   1
  -1   1   6    0.96    0.74   1
  -1   1   6    1.73    0.44   1
  -1   1   6    2.23    0.65   1
  -1   1   6    1.73    0.44   1
  -1   1   6    3.86    0.54   1
  -1   1   6    1.82    1.06   1
  -1   1   7    3.71    1.59   1
  -1   1   7    3.86    1.38   1
  -1   1   7    6.15    0.59   1
  -1   1   7    5.97    0.46   1
  -1   1   7    5.58    0.89   1
  -1   1   7    5.95    0.75   1
  -1   1   7    5.95    0.95   1
  -1   1   7    5.14    1.00   1
  -1   1   8   12.93    2.23   1
  -1   1   8   16.06    1.84   1
  -1   1   8   11.69    1.90   1
  -1   1   8   10.94    1.73   1
  -1   1   8   16.71    1.52   1
  -1   1   8   15.23    1.45   1
  -1   1   9    0.22    1.18   1
  -1   1   9    3.18    1.47   1
  -1   1   9    0.99    0.77   1
  -1   1   9    0.99    0.77   1
  -1   1   9    0.42    1.06   1
  -1   1   9    0.84    1.06   1
  -1   1  10   26.82    3.05   1
  -1   1  10   19.48    2.91   1
  -1   1  10   22.43    3.52   1
  -1   1  10   24.81    2.67   1
  -1   1  10   21.81    3.18   1
  -1   1  11    9.08    2.05   1
  -1   1  11    9.58    3.19   1
  -1   1  11   11.37    3.41   1
  -1   1  12   -0.54    2.35   1
  -1   2 -10    0.54    1.72   1
  -1   2  -9    3.95    2.02   1
  -1   2  -8   -2.24    1.60   1
  -1   2  -8    0.23    0.56   1
  -1   2  -7   38.04    3.56   1
  -1   2  -7   74.59    4.08   1
  -1   2  -6   57.69    4.38   1
  -1   2  -6  132.00    6.04   1
  -1   2  -5  121.54    6.22   1
  -1   2  -5   79.73    4.07   1
  -1   2  -5   56.83    3.57   1
  -1   2  -5   73.20    4.43   1
  -1   2  -4   75.52    4.34   1
  -1   2  -4   50.31    3.07   1
  -1   2  -4   61.64    3.58   1
  -1   2  -4   57.32    3.29   1
  -1   2  -3  542.39   19.35   1
  -1   2  -3  405.99   17.54   1
  -1   2  -3  412.91   15.90   1
  -1   2  -3  407.74   18.00   1
  -1   2  -2  100.47    5.40   1
  -1   2  -2   92.02    4.35   1
  -1   2  -1  341.60   12.55   1
  -1   2  -1  306.55   11.56   1
  -1   2   0    2.57    0.43   1
  -1   2   0    2.54    0.52   1
  -1   2   1    4.47    0.52   1
  -1   2   2   16.20    1.58   1
  -1   2   2    0.32    0.64   1
  -1   2   3  106.61    5.32   1
  -1   2   3  125.32    5.56   1
  -1   2   3  123.84    5.74   1
  -1   2   4   73.73    4.26   1
  -1   2   4   72.69    3.02   1
  -1   2   4   70.07    3.98   1
  -1   2   4   62.08    3.57   1
  -1   2   4   76.83    2.89   1
  -1   2   5  238.03    8.75   1
  -1   2   5  199.33    7.27   1
  -1   2   5  227.75    9.19   1
  -1   2   5  166.49    8.77   1
  -1   2   5  206.36   11.61   1
  -1   2   5  179.27    7.77   1
  -1   2   5  196.74    7.51   1
  -1   2   6   19.82    1.84   1
  -1   2   6   16.48    2.27   1
  -1   2   6   23.68    1.91   1
  -1   2   6   23.60    1.44   1
  -1   2   6   24.22    1.46   1
  -1   2   6   21.86    1.25   1
  -1   2   6   16.97    1.87   1
  -1   2   7   41.51    2.68   1
  -1   2   7   32.10    1.98   1
  -1   2   7   32.61    2.95   1
  -1   2   7   35.70    2.56   1
  -1   2   7   38.05    2.25   1
  -1   2   7   25.59    2.29   1
  -1   2   7   31.17    1.84   1
  -1   2   8    3.40    1.83   1
  -1   2   8    5.52    1.07   1
  -1   2   8    6.03    1.06   1
  -1   2   8    6.27    0.98   1
  -1   2   8    4.93    0.74   1
  -1   2   8    7.14    1.01   1
  -1   2   8    5.67    1.03   1
  -1   2   9   20.96    2.08   1
  -1   2   9   10.66    3.10   1
  -1   2   9   18.56    1.86   1
  -1   2   9   20.79    2.07   1
  -1   2   9   18.33    1.94   1
  -1   2   9   15.43    2.43   1
  -1   2  10   13.48    3.10   1
  -1   2  10   13.36    1.81   1
  -1   2  10    8.72    2.68   1
  -1   2  11    0.84    2.12   1
  -1   2  12    3.91    3.59   1
  -1   3 -10    4.08    1.72   1
  -1   3  -9    2.49    0.81   1
  -1   3  -9    2.04    1.30   1
  -1   3  -8   38.10    3.12   1
  -1   3  -7   12.29    1.54   1
  -1   3  -7    8.20    1.48   1
  -1   3  -6   11.78    1.49   1
  -1   3  -6   17.47    1.74   1
  -1   3  -5   11.28    1.60   1
  -1   3  -5   10.27    1.19   1
  -1   3  -4   31.58    1.51   1
  -1   3  -3   42.41    2.02   1
  -1   3  -2    6.08    0.41   1
  -1   3  -1  112.61    5.02   1
  -1   3   0   13.17    0.82   1
  -1   3   0   17.47    1.38   1
  -1   3   0   14.50    1.11   1
  -1   3   1   38.59    2.18   1
  -1   3   1   45.96    2.10   1
  -1   3   1   50.16    2.49   1
  -1   3   1   47.82    2.70   1
  -1   3   2   21.26    1.90   1
  -1   3   2   21.13    1.42   1
  -1   3   2   19.50    1.18   1
  -1   3   2   16.27    1.41   1
  -1   3   3   50.22    2.78   1
  -1   3   3   48.51    2.16   1
  -1   3   3   52.44    3.14   1
  -1   3   3   41.42    2.39   1
  -1   3   3   49.05    2.31   1
  -1   3   4  177.17    7.99   1
  -1   3   4  170.05    7.29   1
  -1   3   4  175.26    6.57   1
  -1   3   4  171.10    6.22   1
  -1   3   4  163.79    6.34   1
  -1   3   5   -0.22    0.75   1
  -1   3   5    0.43    0.22   1
  -1   3   5    0.42    0.84   1
  -1   3   5   -0.64    1.07   1
  -1   3   5    0.43    0.22   1
  -1   3   6   85.29    4.05   1
  -1   3   6   77.07    4.53   1
  -1   3   6   98.09    4.08   1
  -1   3   6   88.28    6.22   1
  -1   3   6   88.33    4.12   1
  -1   3   6   98.10    3.88   1
  -1   3   6   89.19    6.26   1
  -1   3   7    0.65    0.44   1
  -1   3   7    0.96    1.07   1
  -1   3   7    0.96    0.42   1
  -1   3   7   -0.54    1.19   1
  -1   3   7    0.99    0.33   1
  -1   3   7    1.38    0.44   1
  -1   3   8  105.94    7.05   1
  -1   3   8   82.55    4.88   1
  -1   3   8   85.56    5.08   1
  -1   3   8   76.01    6.84   1
  -1   3   8   77.36    4.36   1
  -1   3   8   77.92    4.66   1
  -1   3   8   89.38    7.44   1
  -1   3   9    2.72    0.97   1
  -1   3   9    0.54    1.82   1
  -1   3   9    3.08    1.59   1
  -1   3  10   13.10    3.21   1
  -1   3  11   -1.38    2.13   1
  -1   4  -9    8.58    1.82   1
  -1   4  -9   16.33    1.86   1
  -1   4  -8    1.41    1.09   1
  -1   4  -7    1.60    1.29   1
  -1   4  -6   28.88    3.00   1
  -1   4  -2  289.18   12.60   1
  -1   4  -1    0.53    0.86   1
  -1   4   0  123.93   12.38   1
  -1   4   0  153.21   16.32   1
  -1   4   1    3.30    0.86   1
  -1   4   1    3.92    0.53   1
  -1   4   1    5.98    1.51   1
  -1   4   1    2.70    0.85   1
  -1   4   1    4.80    0.86   1
  -1   4   2   85.88    4.02   1
  -1   4   2   74.43    3.74   1
  -1   4   2   94.52    4.82   1
  -1   4   2   74.65    5.35   1
  -1   4   3   94.85    4.63   1
  -1   4   3  114.37    5.51   1
  -1   4   3  111.83    6.13   1
  -1   4   3  101.38    5.40   1
  -1   4   3  117.95    4.93   1
  -1   4   4    6.20    1.08   1
  -1   4   4    7.24    0.67   1
  -1   4   4   10.18    1.72   1
  -1   4   4    7.28    1.28   1
  -1   4   4    8.94    0.62   1
  -1   4   5   78.64    3.11   1
  -1   4   5   81.67    5.05   1
  -1   4   5   73.78    5.16   1
  -1   4   5   78.89    6.07   1
  -1   4   6   10.17    2.38   1
  -1   4   6    7.67    1.60   1
  -1   4   7   46.45    4.36   1
  -1   4   7   49.76    5.26   1
  -1   4   8    0.76    1.73   1
  -1   4   8    1.18    1.62   1
  -1   4   8    0.22    1.50   1
  -1   4   9    7.53    2.21   1
  -1   5  -9    2.71    1.41   1
  -1   5  -8   36.13    3.62   1
  -1   5  -7   17.07    2.57   1
  -1   5  -2   23.60    2.50   1
  -1   5  -2   27.02    2.25   1
  -1   5  -1  100.55    5.78   1
  -1   5  -1  102.07    5.84   1
  -1   5   0    8.62    1.57   1
  -1   5   0    9.93    1.30   1
  -1   5   1  173.50    8.44   1
  -1   5   1  163.14    7.64   1
  -1   5   1  141.30    7.16   1
  -1   5   2    9.91    1.64   1
  -1   5   2    9.45    1.72   1
  -1   5   2   10.44    1.20   1
  -1   5   2   11.37    1.74   1
  -1   5   2    7.62    0.97   1
  -1   5   3   32.21    1.99   1
  -1   5   3   26.56    2.02   1
  -1   5   3   32.95    2.97   1
  -1   5   3   28.59    2.88   1
  -1   5   4    4.70    1.07   1
  -1   5   4    7.28    1.62   1
  -1   5   4    4.60    1.60   1
  -1   5   5    0.85    1.93   1
  -1   5   5    1.18    1.51   1
  -1   5   5    0.00    1.07   1
  -1   5   6    5.07    1.96   1
  -1   5   6    6.52    1.90   1
  -1   5   7    4.27    1.50   1
  -1   5   7    3.56    3.13   1
  -1   5   8   14.06    2.79   1
  -1   5   8   14.25    2.34   1
  -1   5   9    5.54    2.96   1
  -1   6  -8    6.66    1.93   1
  -1   6  -7    8.46    2.59   1
  -1   6  -4   30.31    2.62   1
  -1   6  -3    0.00    1.07   1
  -1   6  -2   24.03    2.52   1
  -1   6  -2   18.33    2.21   1
  -1   6  -1    1.59    0.86   1
  -1   6   0   14.28    1.96   1
  -1   6   0   17.51    2.76   1
  -1   6   1   16.83    1.79   1
  -1   6   1   16.96    2.81   1
  -1   6   2   13.03    2.16   1
  -1   6   2    4.95    0.74   1
  -1   6   2    6.45    1.42   1
  -1   6   3   29.43    3.27   1
  -1   6   3   25.59    2.30   1
  -1   6   3   27.47    3.26   1
  -1   6   3   32.41    3.66   1
  -1   6   4    0.64    1.39   1
  -1   6   4    0.00    1.07   1
  -1   6   4    0.11    1.63   1
  -1   6   5    4.94    1.94   1
  -1   6   5    6.22    1.81   1
  -1   6   6   -0.32    1.51   1
  -1   6   7    2.13    1.60   1
  -1   7  -8    5.69    3.41   1
  -1   7  -7    6.98    2.46   1
  -1   7  -2   10.01    1.84   1
  -1   7  -1    1.91    1.71   1
  -1   7  -1    2.05    1.31   1
  -1   7   0   12.16    2.39   1
  -1   7   0   14.34    2.89   1
  -1   7   1    6.20    1.90   1
  -1   7   1    5.49    1.60   1
  -1   7   2   34.54    4.38   1
  -1   7   2   28.25    3.74   1
  -1   7   3   -0.64    2.45   1
  -1   7   4    9.42    2.49   1
  -1   7   5   -1.08    1.95   1
  -1   8   0    2.34    2.46   1
  -1   8   1   16.35    3.85   1
  -1   8   2    0.00    1.07   1
   0  -8   1    4.56    1.90   1
   0  -8   2    2.56    2.68   1
   0  -8   2    0.84    3.07   1
   0  -8   3    9.10    2.37   1
   0  -8   4    4.35    2.24   1
   0  -8   5    1.39    1.92   1
   0  -7  -2   51.34    3.86   1
   0  -7  -1    3.53    1.94   1
   0  -7  -1    4.14    1.93   1
   0  -7  -1    1.80    2.55   1
   0  -7   0   17.98    2.62   1
   0  -7   0   23.90    3.03   1
   0  -7   0   21.64    2.59   1
   0  -7   1    0.84    1.69   1
   0  -7   1    0.63    1.48   1
   0  -7   1   -0.22    1.39   1
   0  -7   2    8.73    1.89   1
   0  -7   2   14.71    2.79   1
   0  -7   2   12.75    2.95   1
   0  -7   2   17.55    2.59   1
   0  -7   3   11.31    2.84   1
   0  -7   3    4.15    1.47   1
   0  -7   3    5.51    1.95   1
   0  -7   3    5.63    2.01   1
   0  -7   4    0.22    1.18   1
   0  -7   4    0.00    1.06   1
   0  -7   4    1.48    1.58   1
   0  -7   5    3.85    1.90   1
   0  -7   5    5.74    2.42   1
   0  -7   6    1.07    2.03   1
   0  -7   7    3.21    2.26   1
   0  -7   8    3.21    3.00   1
   0  -6  -4   10.61    1.76   1
   0  -6  -4   12.16    1.74   1
   0  -6  -3   10.22    2.90   1
   0  -6  -3   17.36    2.08   1
   0  -6  -3   16.17    2.09   1
   0  -6  -2    5.46    1.31   1
   0  -6  -2    3.20    1.41   1
   0  -6  -2    3.92    2.12   1
   0  -6  -1    9.07    1.49   1
   0  -6  -1    5.20    1.50   1
   0  -6  -1    6.17    1.69   1
   0  -6   0   17.19    2.05   1
   0  -6   0   17.01    2.04   1
   0  -6   0   14.54    2.36   1
   0  -6   1   19.03    2.43   1
   0  -6   1   19.12    2.16   1
   0  -6   1   24.70    2.05   1
   0  -6   2   22.02    2.61   1
   0  -6   2   24.58    2.66   1
   0  -6   2   23.27    2.88   1
   0  -6   3   12.57    2.56   1
   0  -6   3   10.65    2.03   1
   0  -6   3   11.04    1.78   1
   0  -6   3   17.16    2.31   1
   0  -6   4   11.16    2.41   1
   0  -6   4   15.09    2.33   1
   0  -6   4   12.19    1.95   1
   0  -6   4   14.16    2.48   1
   0  -6   5    1.29    1.50   1
   0  -6   5    1.07    0.96   1
   0  -6   5    0.42    2.24   1
   0  -6   5    2.24    2.35   1
   0  -6   6    1.50    0.97   1
   0  -6   6   -0.22    1.62   1
   0  -6   6    2.77    2.55   1
   0  -6   7    3.24    1.20   1
   0  -6   7    5.37    2.01   1
   0  -6   7    5.46    2.22   1
   0  -6   8    2.97    2.24   1
   0  -6   9    9.72    3.22   1
   0  -6  10    4.78    2.57   1
   0  -5  -6    6.53    1.06   1
   0  -5  -6    5.04    1.16   1
   0  -5  -5    0.97    0.65   1
   0  -5  -5    1.07    0.75   1
   0  -5  -5    0.42    1.60   1
   0  -5  -4   20.98    2.55   1
   0  -5  -4   27.80    2.53   1
   0  -5  -4   27.69    2.85   1
   0  -5  -3    1.41    0.77   1
   0  -5  -3    2.71    1.20   1
   0  -5  -3   -0.11    1.29   1
   0  -5  -2   22.30    2.34   1
   0  -5  -2   13.37    1.81   1
   0  -5  -2   20.21    2.04   1
   0  -5  -1   21.28    2.66   1
   0  -5  -1   24.70    2.25   1
   0  -5  -1   25.42    2.08   1
   0  -5   0    4.34    0.95   1
   0  -5   0    3.41    1.37   1
   0  -5   0    1.91    0.97   1
   0  -5   1   54.42    3.34   1
   0  -5   1   45.94    3.35   1
   0  -5   1   50.39    3.80   1
   0  -5   2    1.17    1.38   1
   0  -5   2    1.58    1.06   1
   0  -5   2    1.48    0.75   1
   0  -5   3  151.94    8.38   1
   0  -5   3  157.83    8.80   1
   0  -5   3  151.41    7.37   1
   0  -5   4    6.63    2.02   1
   0  -5   4    4.04    1.37   1
   0  -5   4    6.34    1.20   1
   0  -5   4    6.31    1.61   1
   0  -5   4    2.87    1.40   1
   0  -5   4    3.72    1.71   1
   0  -5   5   53.25    4.83   1
   0  -5   5   48.14    4.01   1
   0  -5   5   58.06    4.09   1
   0  -5   6   -0.84    1.39   1
   0  -5   6   -0.75    1.29   1
   0  -5   6   -0.11    0.43   1
   0  -5   6   -1.69    1.26   1
   0  -5   7   35.22    3.67   1
   0  -5   7   29.15    2.24   1
   0  -5   7   27.81    3.59   1
   0  -5   7   40.95    3.57   1
   0  -5   8    9.51    1.41   1
   0  -5   8    6.39    2.87   1
   0  -5   8    7.99    2.22   1
   0  -5   9    2.16    1.28   1
   0  -5   9    3.07    2.86   1
   0  -5   9    0.75    1.61   1
   0  -5  10    6.49    2.36   1
   0  -5  11    3.07    2.46   1
   0  -4  -8   -0.54    0.97   1
   0  -4  -7   38.70    3.21   1
   0  -4  -7   32.65    4.27   1
   0  -4  -7   38.71    3.34   1
   0  -4  -6    0.00    1.08   1
   0  -4  -6   -0.75    0.86   1
   0  -4  -6   -0.11    0.76   1
   0  -4  -5   51.94    4.51   1
   0  -4  -5   64.87    3.84   1
   0  -4  -5   69.50    4.67   1
   0  -4  -5   38.92    3.75   1
   0  -4  -5   55.18    5.06   1
   0  -4  -4   -0.97    1.08   1
   0  -4  -4   -0.11    0.77   1
   0  -4  -4    0.00    1.08   1
   0  -4  -4    0.86    0.96   1
   0  -4  -4    0.42    1.17   1
   0  -4  -3   53.23    4.08   1
   0  -4  -3   94.74    5.68   1
   0  -4  -3   98.64    4.55   1
   0  -4  -3   71.02    5.04   1
   0  -4  -2   49.80    3.66   1
   0  -4  -2   66.17    4.20   1
   0  -4  -2   51.06    4.12   1
   0  -4  -2   68.89    3.60   1
   0  -4  -1   17.01    1.62   1
   0  -4  -1   11.53    0.99   1
   0  -4  -1   10.26    1.38   1
   0  -4  -1   14.56    1.42   1
   0  -4   0  144.62    6.69   1
   0  -4   0  125.02    6.22   1
   0  -4   0  139.47    7.30   1
   0  -4   1   48.56    2.58   1
   0  -4   1   45.93    2.79   1
   0  -4   1   54.62    3.35   1
   0  -4   2  343.78   13.74   1
   0  -4   2  325.75   13.42   1
   0  -4   2  333.95   14.67   1
   0  -4   3    5.94    1.32   1
   0  -4   3    3.59    1.05   1
   0  -4   3    1.28    1.17   1
   0  -4   3    0.75    0.86   1
   0  -4   4  116.64    4.92   1
   0  -4   4  130.00    6.35   1
   0  -4   4  108.33    7.09   1
   0  -4   4  122.42    7.32   1
   0  -4   4  137.87    5.57   1
   0  -4   5    0.96    1.18   1
   0  -4   5    1.39    1.17   1
   0  -4   5    0.96    1.50   1
   0  -4   5    1.49    1.06   1
   0  -4   5    1.07    0.54   1
   0  -4   5    1.70    1.70   1
   0  -4   6   61.52    5.34   1
   0  -4   6   67.86    4.62   1
   0  -4   6   57.55    4.85   1
   0  -4   6   62.11    3.27   1
   0  -4   6   67.01    4.56   1
   0  -4   6   63.67    4.61   1
   0  -4   7    9.71    2.44   1
   0  -4   7    9.71    2.25   1
   0  -4   7    9.40    1.40   1
   0  -4   7   11.52    2.03   1
   0  -4   8   10.22    1.91   1
   0  -4   8    8.96    1.87   1
   0  -4   8    7.52    1.92   1
   0  -4   8    7.13    2.42   1
   0  -4   9    7.63    2.07   1
   0  -4   9    8.82    2.14   1
   0  -4   9   12.73    3.09   1
   0  -4  10    1.80    1.91   1
   0  -4  10   -0.84    1.59   1
   0  -4  10   -1.50    1.30   1
   0  -4  10   -0.11    2.04   1
   0  -4  11    9.88    2.48   1
   0  -4  11    1.80    2.13   1
   0  -4  12   -0.21    3.42   1
   0  -3  -9    5.55    1.70   1
   0  -3  -9    4.35    1.51   1
   0  -3  -8   25.17    2.80   1
   0  -3  -8   23.94    2.42   1
   0  -3  -8   20.59    3.30   1
   0  -3  -7    8.53    1.51   1
   0  -3  -7    6.90    2.18   1
   0  -3  -7    5.73    1.28   1
   0  -3  -6   67.80    4.93   1
   0  -3  -6   44.17    4.27   1
   0  -3  -6   59.63    5.14   1
   0  -3  -6   72.81    4.23   1
   0  -3  -5    9.97    1.05   1
   0  -3  -5    9.46    1.59   1
   0  -3  -5   10.49    1.21   1
   0  -3  -5    7.62    1.32   1
   0  -3  -5    7.81    1.39   1
   0  -3  -4  300.14   16.49   1
   0  -3  -4  365.66   15.79   1
   0  -3  -4  383.99   15.11   1
   0  -3  -4  456.62   17.75   1
   0  -3  -4  461.15   17.39   1
   0  -3  -3   69.29    3.64   1
   0  -3  -3   64.12    4.13   1
   0  -3  -3   87.61    4.30   1
   0  -3  -3   77.19    5.32   1
   0  -3  -3   51.76    3.72   1
   0  -3  -2  258.91   12.64   1
   0  -3  -2  305.77   12.70   1
   0  -3  -2  393.55   14.37   1
   0  -3  -2  302.43   13.25   1
   0  -3  -2  407.65   14.63   1
   0  -3  -1    0.00    1.07   1
   0  -3  -1    0.22    0.43   1
   0  -3  -1    0.63    0.64   1
   0  -3  -1    0.96    0.64   1
   0  -3   0  213.91    8.48   1
   0  -3   0  261.56    9.00   1
   0  -3   0  270.62   10.85   1
   0  -3   0  249.98   10.74   1
   0  -3   1   68.05    3.22   1
   0  -3   1   54.89    3.21   1
   0  -3   1   65.86    3.51   1
   0  -3   2   13.05    1.26   1
   0  -3   2   11.96    1.28   1
   0  -3   2   11.15    1.17   1
   0  -3   3  136.37    5.54   1
   0  -3   3  126.45    5.35   1
   0  -3   3  127.85    5.83   1
   0  -3   3  137.54    6.29   1
   0  -3   4   35.70    2.35   1
   0  -3   4   35.39    2.46   1
   0  -3   4   31.33    2.31   1
   0  -3   4   32.43    1.77   1
   0  -3   4   38.02    2.67   1
   0  -3   4   35.26    2.21   1
   0  -3   5  165.66    7.97   1
   0  -3   5  138.52    5.86   1
   0  -3   5  150.84    8.37   1
   0  -3   5  163.50    8.18   1
   0  -3   5  169.48    7.83   1
   0  -3   5  147.32    7.27   1
   0  -3   6   10.94    1.37   1
   0  -3   6   10.56    1.81   1
   0  -3   6    9.08    1.49   1
   0  -3   6   12.22    1.80   1
   0  -3   6   12.37    1.67   1
   0  -3   7   49.12    4.33   1
   0  -3   7   46.24    4.77   1
   0  -3   7   54.44    3.52   1
   0  -3   7   61.85    3.89   1
   0  -3   7   51.57    4.89   1
   0  -3   8   12.35    1.81   1
   0  -3   8    9.78    1.75   1
   0  -3   8    8.52    2.35   1
   0  -3   8   13.84    2.38   1
   0  -3   9    0.75    1.50   1
   0  -3   9   -0.63    1.37   1
   0  -3   9   -0.32    1.07   1
   0  -3   9    0.54    1.29   1
   0  -3   9   -2.86    2.13   1
   0  -3  10    0.42    1.59   1
   0  -3  10    1.91    1.37   1
   0  -3  10    2.04    1.59   1
   0  -3  10    4.13    2.35   1
   0  -3  11   -2.65    2.45   1
   0  -3  11    1.49    2.24   1
   0  -3  11    0.84    2.85   1
   0  -3  11   -1.17    2.12   1
   0  -3  12    6.37    3.48   1
   0  -3  12    8.43    2.58   1
   0  -2  -9   37.71    3.68   1
   0  -2  -9   42.27    3.36   1
   0  -2  -9   30.37    4.58   1
   0  -2  -8    2.86    1.40   1
   0  -2  -8    1.08    1.83   1
   0  -2  -8    1.48    0.85   1
   0  -2  -7   35.19    3.45   1
   0  -2  -7   39.17    2.97   1
   0  -2  -7   39.95    3.00   1
   0  -2  -7   25.02    3.20   1
   0  -2  -6    8.53    1.27   1
   0  -2  -6   12.44    1.31   1
   0  -2  -6    7.56    1.48   1
   0  -2  -6   12.73    1.25   1
   0  -2  -5  170.75    7.83   1
   0  -2  -5  159.12    6.82   1
   0  -2  -5  113.50    7.93   1
   0  -2  -5  166.94    8.27   1
   0  -2  -4   33.11    2.16   1
   0  -2  -4   38.80    2.84   1
   0  -2  -4   20.64    2.06   1
   0  -2  -4   40.75    2.11   1
   0  -2  -4   32.17    2.57   1
   0  -2  -3  101.97    6.24   1
   0  -2  -3  134.72    5.32   1
   0  -2  -3  102.65    4.86   1
   0  -2  -3  125.49    5.84   1
   0  -2  -3   89.48    4.49   1
   0  -2  -2   54.98    3.05   1
   0  -2  -2   69.63    3.30   1
   0  -2  -2   47.16    2.55   1
   0  -2  -2   74.41    3.42   1
   0  -2  -2   53.58    2.74   1
   0  -2  -1  270.54    9.51   1
   0  -2  -1  247.97    9.13   1
   0  -2  -1  208.62    8.93   1
   0  -2  -1  277.36    8.60   1
   0  -2  -1  241.85    9.93   1
   0  -2   0  212.82    8.42   1
   0  -2   0  271.01    9.49   1
   0  -2   0  277.83    9.95   1
   0  -2   0  259.98    9.96   1
   0  -2   1   76.66    3.61   1
   0  -2   1   77.51    3.83   1
   0  -2   1   78.97    3.47   1
   0  -2   1   75.90    3.94   1
   0  -2   2   84.67    3.80   1
   0  -2   2  118.90   12.36   1
   0  -2   2   79.42    3.50   1
   0  -2   2  152.97   14.03   1
   0  -2   3   40.97    2.51   1
   0  -2   3   40.97    2.51   1
   0  -2   3   36.15    2.11   1
   0  -2   3   48.13    2.43   1
   0  -2   3   40.18    2.22   1
   0  -2   3   45.73    2.24   1
   0  -2   4    2.56    0.86   1
   0  -2   4    1.17    0.65   1
   0  -2   4    2.66    1.08   1
   0  -2   4    1.17    0.96   1
   0  -2   4    2.12    0.54   1
   0  -2   5  141.05    5.88   1
   0  -2   5  112.57    5.26   1
   0  -2   5  138.36    7.04   1
   0  -2   5  118.09    6.05   1
   0  -2   5  124.42    7.14   1
   0  -2   6   33.18    2.26   1
   0  -2   6   28.98    2.45   1
   0  -2   6   30.83    2.87   1
   0  -2   6   30.28    2.38   1
   0  -2   6   35.58    3.20   1
   0  -2   7  196.62   11.29   1
   0  -2   7  199.79   12.84   1
   0  -2   7  202.22    9.67   1
   0  -2   7  206.04    9.17   1
   0  -2   7  184.72    9.83   1
   0  -2   8    2.02    1.17   1
   0  -2   8    1.29    1.50   1
   0  -2   8    4.06    1.37   1
   0  -2   8    2.47    1.30   1
   0  -2   8    2.12    1.47   1
   0  -2   8    1.18    1.08   1
   0  -2   9   39.32    3.76   1
   0  -2   9   37.23    3.66   1
   0  -2   9   33.28    3.57   1
   0  -2   9   39.67    3.77   1
   0  -2   9   34.77    3.65   1
   0  -2  10    5.11    1.59   1
   0  -2  10    4.87    1.82   1
   0  -2  10    5.18    1.92   1
   0  -2  10    4.12    1.59   1
   0  -2  10    4.06    2.46   1
   0  -2  11    8.25    2.66   1
   0  -2  11   11.35    2.64   1
   0  -2  11    7.54    2.44   1
   0  -2  11   17.31    3.51   1
   0  -2  12    2.11    3.29   1
   0  -2  12    2.33    2.11   1
   0  -1  -9    9.82    1.82   1
   0  -1  -8    6.50    1.16   1
   0  -1  -8    8.11    1.29   1
   0  -1  -8    6.16    1.60   1
   0  -1  -7    2.70    1.09   1
   0  -1  -7    2.56    0.96   1
   0  -1  -7    2.46    1.07   1
   0  -1  -7    1.80    1.27   1
   0  -1  -6   23.71    1.91   1
   0  -1  -6   19.80    2.04   1
   0  -1  -6   20.47    2.15   1
   0  -1  -6   25.14    1.76   1
   0  -1  -5   66.48    4.41   1
   0  -1  -5   57.09    3.90   1
   0  -1  -5   80.41    4.63   1
   0  -1  -5   67.12    4.06   1
   0  -1  -4   68.40    4.10   1
   0  -1  -4   64.40    3.17   1
   0  -1  -4   54.37    3.19   1
   0  -1  -3  437.48   17.73   1
   0  -1  -3  408.10   16.67   1
   0  -1  -3  333.13   14.67   1
   0  -1  -3  400.45   14.61   1
   0  -1  -3  451.48   17.14   1
   0  -1  -2  129.17    5.69   1
   0  -1  -2  102.77    5.22   1
   0  -1  -2  157.58    6.27   1
   0  -1  -2  155.46    6.48   1
   0  -1  -2  127.99    6.53   1
   0  -1  -1  491.45   14.72   1
   0  -1  -1  304.49   13.66   1
   0  -1  -1  486.40   14.64   1
   0  -1  -1  371.56   13.89   1
   0  -1  -1  366.65   14.32   1
   0  -1   0   86.07    3.45   1
   0  -1   0   91.26    3.74   1
   0  -1   0   94.38    3.60   1
   0  -1   0   93.78    3.79   1
   0  -1   1  670.12   20.27   1
   0  -1   1  601.32   21.24   1
   0  -1   1  496.37   18.86   1
   0  -1   1  606.35   21.33   1
   0  -1   2  401.77   14.08   1
   0  -1   2  387.42   13.82   1
   0  -1   2  385.80   13.79   1
   0  -1   2  316.92   13.59   1
   0  -1   3  134.65    5.99   1
   0  -1   3  139.04    6.08   1
   0  -1   3  138.56    5.83   1
   0  -1   3  140.69    6.12   1
   0  -1   4  194.18    7.76   1
   0  -1   4  214.42    9.38   1
   0  -1   4  211.36    8.69   1
   0  -1   4  210.75    8.68   1
   0  -1   4  221.47   10.45   1
   0  -1   5  186.87    8.76   1
   0  -1   5  193.97    9.21   1
   0  -1   5  187.70    7.63   1
   0  -1   5  173.83    7.88   1
   0  -1   5  159.44    7.03   1
   0  -1   6  283.81   12.88   1
   0  -1   6  292.14   10.92   1
   0  -1   6  278.31   14.84   1
   0  -1   6  249.26   11.73   1
   0  -1   6  285.13   11.84   1
   0  -1   6  295.78   14.23   1
   0  -1   7   15.51    1.71   1
   0  -1   7   10.24    1.92   1
   0  -1   7   12.33    1.60   1
   0  -1   7   13.37    1.74   1
   0  -1   7   15.27    1.77   1
   0  -1   7   16.48    1.93   1
   0  -1   8   54.16    4.10   1
   0  -1   8   69.32    5.86   1
   0  -1   8   74.25    5.53   1
   0  -1   8   77.31    4.53   1
   0  -1   8   68.51    4.61   1
   0  -1   8   46.81    4.94   1
   0  -1   9    3.87    1.63   1
   0  -1   9    4.03    1.70   1
   0  -1   9    5.32    1.38   1
   0  -1   9    2.33    1.38   1
   0  -1   9    2.86    1.50   1
   0  -1  10   40.23    4.46   1
   0  -1  10   35.58    4.55   1
   0  -1  10   33.85    4.19   1
   0  -1  10   38.17    4.21   1
   0  -1  10   29.56    4.03   1
   0  -1  11    0.54    1.71   1
   0  -1  11   -0.21    1.71   1
   0  -1  11   -0.21    2.02   1
   0  -1  11   -0.42    1.81   1
   0  -1  12    7.51    3.16   1
   0  -1  12    3.71    2.22   1
   0  -1  12    4.68    2.14   1
   0  -1  12    7.22    3.71   1
   0   0 -10    2.99    1.93   1
   0   0  -9   49.17    5.09   1
   0   0  -8    0.97    1.19   1
   0   0  -7  100.82    4.98   1
   0   0  -7   73.57    5.49   1
   0   0  -7   89.33    5.31   1
   0   0  -7   87.78    5.61   1
   0   0  -6    0.32    0.54   1
   0   0  -6    0.86    0.75   1
   0   0  -6   -0.75    0.86   1
   0   0  -6    0.63    0.85   1
   0   0  -5   62.41    3.27   1
   0   0  -5   61.10    3.23   1
   0   0  -5   62.64    3.13   1
   0   0  -5   40.41    2.76   1
   0   0  -4  205.82   10.06   1
   0   0  -4  248.56   10.43   1
   0   0  -4  263.49   10.74   1
   0   0  -4  263.02    9.79   1
   0   0  -3   99.74    4.36   1
   0   0  -3   99.51    4.95   1
   0   0  -3  103.69    5.05   1
   0   0  -3   84.92    3.80   1
   0   0  -2 1015.39   33.60   1
   0   0  -2  856.57   31.37   1
   0   0  -2 1021.16   34.36   1
   0   0  -2 1005.22   34.31   1
   0   0  -1    7.51    0.51   1
   0   0  -1    0.32    0.21   1
   0   0   1   -0.22    0.11   1
   0   0   1   -0.32    0.11   1
   0   0   2  956.80   32.68   1
   0   0   2  988.38   32.63   1
   0   0   2  853.77   31.33   1
   0   0   2 1008.30   32.96   1
   0   0   3   99.60    5.17   1
   0   0   3  110.05    4.79   1
   0   0   3   82.36    4.49   1
   0   0   3  122.51    3.71   1
   0   0   3  105.76    4.91   1
   0   0   4  215.04    9.07   1
   0   0   4  251.29   10.83   1
   0   0   4  263.61   10.79   1
   0   0   4  269.77   10.24   1
   0   0   5   54.80    3.37   1
   0   0   5   61.46    3.42   1
   0   0   5   48.03    2.72   1
   0   0   5   65.10    4.02   1
   0   0   6   -0.42    0.84   1
   0   0   6   -0.63    0.74   1
   0   0   6    0.22    0.86   1
   0   0   6    0.54    0.64   1
   0   0   7   97.76    5.30   1
   0   0   7   95.87    7.52   1
   0   0   7   88.18    5.62   1
   0   0   7   85.65    5.54   1
   0   0   7   92.22    6.38   1
   0   0   8    0.96    0.95   1
   0   0   8   -0.42    0.95   1
   0   0   8   -0.22    0.76   1
   0   0   8    0.54    1.18   1
   0   0   8    1.31    1.31   1
   0   0   9   53.77    4.84   1
   0   0   9   63.72    4.44   1
   0   0   9   49.52    5.12   1
   0   0   9   57.46    5.15   1
   0   0   9   59.47    4.81   1
   0   0   9   49.41    5.36   1
   0   0  10    0.00    1.06   1
   0   0  10   -1.06    1.59   1
   0   0  10   -0.54    1.60   1
   0   0  10   -1.08    1.41   1
   0   0  10   -0.75    1.28   1
   0   0  11   11.39    2.46   1
   0   0  11   12.34    3.11   1
   0   0  11   12.55    2.63   1
   0   0  11   13.67    2.51   1
   0   0  11    9.87    3.11   1
   0   0  12    0.00    1.06   1
   0   0  12    0.53    1.81   1
   0   0  12    2.85    2.02   1
   0   1 -11    0.00    1.07   1
   0   1 -10   29.57    3.72   1
   0   1  -9    4.09    1.38   1
   0   1  -8   59.10    5.27   1
   0   1  -7   12.65    1.48   1
   0   1  -6  290.24   12.40   1
   0   1  -6  229.92   11.58   1
   0   1  -5  149.94    8.34   1
   0   1  -5  312.18    8.99   1
   0   1  -5  178.70    8.89   1
   0   1  -4  253.58    9.26   1
   0   1  -4  185.52    9.28   1
   0   1  -3  118.27    5.17   1
   0   1  -2  332.94   11.69   1
   0   1  -1  713.94   22.01   1
   0   1  -1  629.43   23.27   1
   0   1  -1  627.29   22.72   1
   0   1   0   86.60    3.64   1
   0   1   0   92.65    3.57   1
   0   1   0   98.36    3.48   1
   0   1   0   88.39    3.70   1
   0   1   0   87.01    3.46   1
   0   1   1  373.54   14.04   1
   0   1   1  357.00   13.61   1
   0   1   1  437.56   14.33   1
   0   1   1  408.08   13.42   1
   0   1   1  324.13   13.37   1
   0   1   2  133.12    5.51   1
   0   1   2  164.71    6.21   1
   0   1   2  109.48    5.39   1
   0   1   2  165.52    6.76   1
   0   1   2  120.69    5.44   1
   0   1   3  381.64   16.13   1
   0   1   3  366.39   15.79   1
   0   1   3  553.62   17.83   1
   0   1   3  549.82   19.26   1
   0   1   4   79.74    3.76   1
   0   1   4   76.60    3.87   1
   0   1   4   56.92    3.58   1
   0   1   4   60.37    3.53   1
   0   1   5   84.39    4.44   1
   0   1   5   66.90    3.72   1
   0   1   5   87.75    4.72   1
   0   1   5  103.61    4.75   1
   0   1   5   63.97    3.63   1
   0   1   6   36.77    2.21   1
   0   1   6   26.23    1.83   1
   0   1   6   29.35    2.05   1
   0   1   6   19.63    2.11   1
   0   1   6   24.12    2.23   1
   0   1   7    1.54    0.78   1
   0   1   7    1.99    0.77   1
   0   1   7    0.54    1.07   1
   0   1   8    4.74    1.24   1
   0   1   8    6.08    1.93   1
   0   1   8    5.85    1.22   1
   0   1   8    4.78    1.81   1
   0   1   9    8.81    2.14   1
   0   1   9   12.27    2.14   1
   0   1   9    5.87    2.35   1
   0   1   9    9.63    1.76   1
   0   1   9    9.43    1.71   1
   0   1  10   23.43    3.67   1
   0   1  10   21.97    3.09   1
   0   1  10   18.37    2.83   1
   0   1  10   21.63    3.65   1
   0   1  10   19.17    3.07   1
   0   1  11   15.23    2.89   1
   0   1  11   21.09    2.93   1
   0   1  11   14.20    2.95   1
   0   1  11   14.78    3.17   1
   0   1  12   -2.02    3.60   1
   0   2 -11   13.17    3.08   1
   0   2  -8    2.79    1.18   1
   0   2  -7  200.80   12.06   1
   0   2  -7  335.89   12.66   1
   0   2  -6   36.90    2.14   1
   0   2  -3   41.44    2.66   1
   0   2  -2   90.33    4.31   1
   0   2  -2   92.49    4.56   1
   0   2  -1   83.54    3.77   1
   0   2  -1   74.17    4.08   1
   0   2  -1   82.40    4.12   1
   0   2   0  256.35   10.29   1
   0   2   0  259.20    9.96   1
   0   2   0  274.24    9.58   1
   0   2   0  256.44    9.90   1
   0   2   0  266.73   10.43   1
   0   2   0  261.31    8.99   1
   0   2   1  261.29    9.02   1
   0   2   1  250.99   10.18   1
   0   2   1  239.66    9.57   1
   0   2   1  259.29    9.65   1
   0   2   1  239.72    9.25   1
   0   2   2   49.29    2.60   1
   0   2   2   50.67    2.35   1
   0   2   2   58.28    2.54   1
   0   2   2   60.06    6.75   1
   0   2   2   55.00    2.47   1
   0   2   3  122.75    5.56   1
   0   2   3  114.35    4.92   1
   0   2   3  111.83    5.48   1
   0   2   3   98.45    4.91   1
   0   2   3   92.25    4.56   1
   0   2   4   41.30    2.02   1
   0   2   4   30.03    2.26   1
   0   2   4   39.83    2.12   1
   0   2   4   29.51    2.02   1
   0   2   5  137.75    6.54   1
   0   2   5  189.84    7.01   1
   0   2   5  197.82    7.46   1
   0   2   5  145.26    6.47   1
   0   2   6   11.61    1.69   1
   0   2   6    9.59    1.79   1
   0   2   6   11.62    1.24   1
   0   2   6   14.39    1.38   1
   0   2   6   13.82    1.56   1
   0   2   7   39.56    3.25   1
   0   2   7   48.14    4.40   1
   0   2   7   36.78    3.13   1
   0   2   7   44.88    2.60   1
   0   2   8    3.18    0.80   1
   0   2   8    1.82    0.92   1
   0   2   8    2.12    1.38   1
   0   2   8    0.96    1.39   1
   0   2   8    2.05    1.04   1
   0   2   9   30.51    3.53   1
   0   2   9   35.58    4.43   1
   0   2   9   28.48    3.63   1
   0   2   9   37.21    3.52   1
   0   2   9   29.93    3.49   1
   0   2  10    8.28    2.79   1
   0   2  10   11.13    1.79   1
   0   2  10   15.40    3.48   1
   0   2  10    9.87    1.81   1
   0   2  11    1.06    3.07   1
   0   3 -10    2.98    1.71   1
   0   3  -9   -0.56    0.55   1
   0   3  -9   -0.32    1.18   1
   0   3  -9    0.00    1.11   1
   0   3  -8   12.59    1.55   1
   0   3  -8   12.58    1.62   1
   0   3  -7   61.04    3.72   1
   0   3  -3  145.53    7.21   1
   0   3  -2    9.72    1.35   1
   0   3  -2   12.14    1.29   1
   0   3  -2   13.10    1.27   1
   0   3  -1   64.29    3.14   1
   0   3  -1   61.12    3.23   1
   0   3  -1   62.36    3.25   1
   0   3  -1   63.06    3.44   1
   0   3   0  252.83   10.23   1
   0   3   0  257.24    9.95   1
   0   3   0  237.14   10.48   1
   0   3   0  256.41   10.25   1
   0   3   0  256.69   10.25   1
   0   3   1   -0.11    0.43   1
   0   3   1   -0.11    0.53   1
   0   3   1    0.11    0.54   1
   0   3   1    1.18    0.97   1
   0   3   1   -0.11    0.54   1
   0   3   2  296.70   11.36   1
   0   3   2  329.17   12.03   1
   0   3   2  306.18   12.25   1
   0   3   2  335.81   12.92   1
   0   3   2  322.42   12.28   1
   0   3   3   68.56    3.27   1
   0   3   3   82.14    4.32   1
   0   3   3   67.35    3.07   1
   0   3   3   66.92    3.37   1
   0   3   3   60.43    3.53   1
   0   3   4  406.26   14.76   1
   0   3   4  328.47   13.45   1
   0   3   4  371.25   14.51   1
   0   3   4  353.19   14.74   1
   0   3   5   10.05    1.57   1
   0   3   5    9.14    1.08   1
   0   3   5   12.00    1.24   1
   0   3   5    6.18    1.28   1
   0   3   6   57.10    4.68   1
   0   3   6   62.61    4.17   1
   0   3   6   54.14    4.25   1
   0   3   6   67.37    4.33   1
   0   3   7    5.87    1.60   1
   0   3   7   10.42    1.62   1
   0   3   7    4.48    2.14   1
   0   3   7    7.36    1.39   1
   0   3   7    6.68    1.38   1
   0   3   8   18.56    2.84   1
   0   3   8   15.67    3.44   1
   0   3   8   24.94    2.77   1
   0   3   9    3.07    1.80   1
   0   3   9    3.19    2.25   1
   0   3  10    1.79    2.23   1
   0   3  11    3.28    3.40   1
   0   4  -9   13.79    1.92   1
   0   4  -9   15.44    1.96   1
   0   4  -8   10.12    1.32   1
   0   4  -8    7.68    1.26   1
   0   4  -7    9.97    1.18   1
   0   4  -4  117.11    7.81   1
   0   4  -3    2.86    0.42   1
   0   4  -3    0.63    0.85   1
   0   4  -3    1.69    0.97   1
   0   4  -2  351.78   13.90   1
   0   4  -2  336.41   16.66   1
   0   4  -2  339.14   14.83   1
   0   4  -2  338.31   13.30   1
   0   4  -1   46.49    3.23   1
   0   4  -1   48.62    3.31   1
   0   4  -1   52.25    2.84   1
   0   4  -1   49.19    3.19   1
   0   4   0  126.86    6.76   1
   0   4   0  123.75    6.22   1
   0   4   0  123.64    5.96   1
   0   4   0  131.82    6.41   1
   0   4   1   13.43    1.06   1
   0   4   1   11.63    1.27   1
   0   4   1   14.15    1.33   1
   0   4   1   13.99    1.16   1
   0   4   1   15.04    1.61   1
   0   4   2   52.14    3.60   1
   0   4   2   50.21    3.09   1
   0   4   2   53.08    3.00   1
   0   4   2   60.00    3.53   1
   0   4   2   52.92    3.01   1
   0   4   3   69.09    3.98   1
   0   4   3   71.86    4.72   1
   0   4   3   68.65    3.59   1
   0   4   3   73.49    3.57   1
   0   4   4   -0.11    0.66   1
   0   4   4    1.17    1.07   1
   0   4   4   -0.22    0.75   1
   0   4   4    0.00    1.09   1
   0   4   5   42.22    3.68   1
   0   4   5   42.15    3.89   1
   0   4   5   52.50    3.58   1
   0   4   5   57.08    3.80   1
   0   4   6   -0.66    0.77   1
   0   4   6   -0.54    1.40   1
   0   4   6    0.34    0.89   1
   0   4   6   -0.84    1.48   1
   0   4   7   31.97    3.85   1
   0   4   7   32.53    4.12   1
   0   4   7   36.27    2.80   1
   0   4   7   31.16    3.26   1
   0   4   8    1.17    1.50   1
   0   4   8    0.85    2.13   1
   0   4   9    8.09    2.58   1
   0   4  10    2.45    2.23   1
   0   5  -9    2.99    1.83   1
   0   5  -7   35.91    2.48   1
   0   5  -5   58.67    3.00   1
   0   5  -4    4.71    0.76   1
   0   5  -3  151.66    7.14   1
   0   5  -3  144.90    8.21   1
   0   5  -2    1.90    1.28   1
   0   5  -2    1.18    0.97   1
   0   5  -2    2.25    1.27   1
   0   5  -2    3.32    0.76   1
   0   5  -1   59.09    4.14   1
   0   5  -1   52.68    3.76   1
   0   5  -1   59.10    3.82   1
   0   5  -1   64.27    9.42   1
   0   5   0    3.08    1.38   1
   0   5   0    1.50    0.96   1
   0   5   0    3.44    0.96   1
   0   5   0    3.75    0.96   1
   0   5   1   22.14    2.53   1
   0   5   1   23.47    1.81   1
   0   5   1   21.20    1.91   1
   0   5   1   23.05    2.29   1
   0   5   1   27.68    2.40   1
   0   5   2   16.33    1.59   1
   0   5   2   17.70    1.75   1
   0   5   2   16.16    1.75   1
   0   5   3    2.11    1.05   1
   0   5   3    2.47    1.40   1
   0   5   3    2.50    0.99   1
   0   5   3    2.50    0.99   1
   0   5   4   20.43    2.52   1
   0   5   4   23.42    2.20   1
   0   5   4   18.69    2.16   1
   0   5   4   23.37    2.01   1
   0   5   5    2.76    1.61   1
   0   5   5    1.81    2.15   1
   0   5   5    1.09    0.76   1
   0   5   6    3.30    1.61   1
   0   5   6    3.56    2.15   1
   0   5   7   -0.42    1.38   1
   0   5   8   -0.11    2.59   1
   0   5   9    2.12    2.13   1
   0   6  -9   22.45    2.74   1
   0   6  -4   11.62    1.20   1
   0   6  -3   13.23    1.43   1
   0   6  -2   21.12    2.65   1
   0   6  -2   24.77    2.17   1
   0   6  -2   22.61    2.76   1
   0   6  -1   15.76    2.14   1
   0   6  -1   26.05    2.63   1
   0   6  -1   19.41    2.37   1
   0   6  -1   19.96    2.04   1
   0   6   0   14.65    1.91   1
   0   6   0   13.11    1.80   1
   0   6   0   20.82    2.54   1
   0   6   1    6.32    1.92   1
   0   6   1    8.52    1.39   1
   0   6   1    5.17    1.61   1
   0   6   2    2.14    2.15   1
   0   6   2    2.81    0.77   1
   0   6   2    3.47    1.39   1
   0   6   2    2.15    0.98   1
   0   6   3   10.45    1.75   1
   0   6   3   13.27    1.73   1
   0   6   3   12.82    2.91   1
   0   6   4    5.67    1.38   1
   0   6   4    4.59    1.91   1
   0   6   5    3.75    1.80   1
   0   6   5    9.35    2.66   1
   0   6   6    5.67    2.46   1
   0   6   7    4.07    2.25   1
   0   7  -2   16.34    2.58   1
   0   7  -1    1.80    1.69   1
   0   7   0   21.13    3.61   1
   0   7   0   15.79    2.23   1
   0   7   1    6.43    2.89   1
   0   7   2   42.44    5.14   1
   0   7   3    0.76    2.82   1
   0   7   4   11.74    3.14   1
   0   7   5   -2.61    2.50   1
   0   8  -1    3.73    2.55   1
   0   8   0    9.18    2.57   1
   0   8   1    7.71    2.99   1
   1  -8   1    3.19    2.36   1
   1  -8   2    0.84    1.80   1
   1  -8   3    3.62    2.55   1
   1  -8   4    9.61    2.56   1
   1  -7  -2   14.05    2.79   1
   1  -7  -1    5.88    1.30   1
   1  -7  -1    6.13    1.95   1
   1  -7  -1    9.91    1.82   1
   1  -7   0   12.49    2.34   1
   1  -7   0   17.98    2.54   1
   1  -7   0   22.42    2.64   1
   1  -7   1    1.91    1.37   1
   1  -7   1    3.65    1.51   1
   1  -7   1    2.86    1.50   1
   1  -7   1    2.78    1.28   1
   1  -7   2    6.19    1.80   1
   1  -7   2   10.23    2.44   1
   1  -7   2   11.29    2.02   1
   1  -7   3    1.38    1.70   1
   1  -7   3    2.12    1.71   1
   1  -7   3    3.44    1.84   1
   1  -7   4   -0.42    1.49   1
   1  -7   4   -1.59    1.59   1
   1  -7   5    7.06    2.91   1
   1  -7   5    5.75    2.23   1
   1  -7   6    3.22    3.01   1
   1  -7   7    3.65    3.33   1
   1  -7   8    0.54    2.48   1
   1  -6  -3   30.77    2.55   1
   1  -6  -3   26.13    2.43   1
   1  -6  -3   26.30    3.08   1
   1  -6  -3   32.18    2.48   1
   1  -6  -2    5.04    1.72   1
   1  -6  -2    4.73    1.08   1
   1  -6  -2    4.71    1.17   1
   1  -6  -2    3.94    1.19   1
   1  -6  -1   11.65    1.84   1
   1  -6  -1   14.74    2.38   1
   1  -6  -1   18.40    2.12   1
   1  -6  -1   17.36    2.06   1
   1  -6  -1   15.13    1.94   1
   1  -6   0   10.74    1.82   1
   1  -6   0   12.71    1.84   1
   1  -6   0   12.07    1.95   1
   1  -6   0   12.29    2.03   1
   1  -6   0   10.01    1.64   1
   1  -6   1    2.23    1.08   1
   1  -6   1    0.63    1.27   1
   1  -6   1    0.43    1.07   1
   1  -6   1    2.78    1.83   1
   1  -6   1    1.48    1.58   1
   1  -6   2   16.37    2.35   1
   1  -6   2   21.02    3.13   1
   1  -6   2   21.89    2.41   1
   1  -6   2   18.82    2.32   1
   1  -6   2   16.68    1.94   1
   1  -6   3    0.22    2.04   1
   1  -6   3   -0.11    0.65   1
   1  -6   3    0.96    1.70   1
   1  -6   3    0.63    1.16   1
   1  -6   4   30.04    3.17   1
   1  -6   4   29.20    2.57   1
   1  -6   4   28.48    3.31   1
   1  -6   4   25.55    3.34   1
   1  -6   5    8.89    2.59   1
   1  -6   5    9.97    2.22   1
   1  -6   5    7.53    1.31   1
   1  -6   5    6.83    2.05   1
   1  -6   6    7.94    2.80   1
   1  -6   6    5.39    1.92   1
   1  -6   7    4.90    2.02   1
   1  -6   7    4.50    2.98   1
   1  -6   8    6.42    3.20   1
   1  -6   9   11.43    3.64   1
   1  -5  -4    4.72    0.63   1
   1  -5  -4    5.91    0.86   1
   1  -5  -4    4.82    0.73   1
   1  -5  -4    5.24    0.85   1
   1  -5  -3   35.14    2.59   1
   1  -5  -3   37.78    2.43   1
   1  -5  -3   33.93    3.01   1
   1  -5  -3   34.45    2.31   1
   1  -5  -2   10.84    1.29   1
   1  -5  -2    7.60    1.09   1
   1  -5  -2   10.30    1.26   1
   1  -5  -2    8.67    1.52   1
   1  -5  -2   12.34    1.31   1
   1  -5  -1  162.32    8.68   1
   1  -5  -1  145.55    7.00   1
   1  -5  -1  164.64    7.67   1
   1  -5  -1  154.49    7.43   1
   1  -5  -1  153.37    7.44   1
   1  -5   0    8.65    1.52   1
   1  -5   0    8.23    1.49   1
   1  -5   0    8.50    1.38   1
   1  -5   0    6.37    1.25   1
   1  -5   0   10.18    1.39   1
   1  -5   1  107.46    6.22   1
   1  -5   1   96.25    6.26   1
   1  -5   1  106.61    5.77   1
   1  -5   1  101.36    6.65   1
   1  -5   1  104.92    5.90   1
   1  -5   2   22.15    2.04   1
   1  -5   2   27.05    2.46   1
   1  -5   2   24.31    2.34   1
   1  -5   2   21.91    2.03   1
   1  -5   2   27.36    2.38   1
   1  -5   3   80.16    4.62   1
   1  -5   3   75.82    4.32   1
   1  -5   3   74.94    5.01   1
   1  -5   3   85.10    5.53   1
   1  -5   3   74.17    4.97   1
   1  -5   4    4.08    1.84   1
   1  -5   4    3.19    1.48   1
   1  -5   4    4.72    1.39   1
   1  -5   4    2.12    1.92   1
   1  -5   4    3.20    1.59   1
   1  -5   4    3.85    0.85   1
   1  -5   5    7.42    1.52   1
   1  -5   5    8.23    1.84   1
   1  -5   5    7.52    1.08   1
   1  -5   5   10.31    1.79   1
   1  -5   6    9.50    2.23   1
   1  -5   6    7.37    2.13   1
   1  -5   6    9.51    1.09   1
   1  -5   6    6.85    1.95   1
   1  -5   7   11.36    2.44   1
   1  -5   7   15.31    2.91   1
   1  -5   7   17.62    2.95   1
   1  -5   7   12.59    1.55   1
   1  -5   8   26.28    3.50   1
   1  -5   8   19.04    2.46   1
   1  -5   8   17.61    3.64   1
   1  -5   9    2.25    1.92   1
   1  -5  10    4.06    2.58   1
   1  -4  -5   72.51    3.16   1
   1  -4  -4    8.74    0.86   1
   1  -4  -4    8.43    0.72   1
   1  -4  -3  143.11    6.49   1
   1  -4  -3  138.42    6.38   1
   1  -4  -3  103.29    6.50   1
   1  -4  -2   82.85    4.88   1
   1  -4  -2   89.89    4.50   1
   1  -4  -2   92.05    4.36   1
   1  -4  -1    5.56    0.73   1
   1  -4  -1    4.99    0.97   1
   1  -4  -1    5.18    0.75   1
   1  -4  -1    2.86    0.94   1
   1  -4   0  138.79   14.30   1
   1  -4   0  106.80    7.91   1
   1  -4   0   91.29    5.71   1
   1  -4   0  104.24    5.49   1
   1  -4   0  103.33    8.99   1
   1  -4   1    4.45    0.87   1
   1  -4   1    1.90    0.97   1
   1  -4   1    2.56    0.63   1
   1  -4   1    3.31    0.75   1
   1  -4   1    2.34    1.08   1
   1  -4   2  280.89   11.41   1
   1  -4   2  284.77   12.90   1
   1  -4   2  271.70   12.60   1
   1  -4   2  274.98   13.00   1
   1  -4   2  260.16   10.31   1
   1  -4   3    0.85    0.95   1
   1  -4   3    0.00    1.07   1
   1  -4   3    0.00    1.06   1
   1  -4   3    2.03    1.38   1
   1  -4   3    0.75    0.86   1
   1  -4   3    0.63    0.95   1
   1  -4   4  105.83    4.90   1
   1  -4   4   96.36    6.69   1
   1  -4   4  104.39    5.50   1
   1  -4   4  100.62    5.61   1
   1  -4   4   94.95    5.45   1
   1  -4   4  116.56    6.46   1
   1  -4   5    2.47    1.49   1
   1  -4   5    1.93    0.63   1
   1  -4   5    1.91    1.71   1
   1  -4   5    2.86    1.29   1
   1  -4   5    1.61    1.61   1
   1  -4   5    1.49    1.06   1
   1  -4   6   19.37    2.94   1
   1  -4   6   15.63    2.77   1
   1  -4   6   18.97    1.72   1
   1  -4   6   19.65    2.75   1
   1  -4   6   25.73    2.31   1
   1  -4   7    0.54    0.64   1
   1  -4   7    0.32    1.40   1
   1  -4   7    0.42    2.02   1
   1  -4   7    0.54    0.98   1
   1  -4   7    2.12    1.38   1
   1  -4   8    4.27    2.01   1
   1  -4   8   -0.11    2.27   1
   1  -4   8   -0.64    0.86   1
   1  -4   8   -0.54    0.97   1
   1  -4   8    0.75    1.61   1
   1  -4   9    8.01    2.45   1
   1  -4   9    5.87    1.30   1
   1  -4   9    9.79    2.33   1
   1  -4   9    7.45    2.15   1
   1  -4  10    1.31    1.40   1
   1  -4  10   -0.75    1.72   1
   1  -4  11    1.38    3.08   1
   1  -3  -5    0.54    0.32   1
   1  -3  -4  190.06    6.83   1
   1  -3  -4  185.02    7.58   1
   1  -3  -3   48.64    4.03   1
   1  -3  -3   59.45    2.90   1
   1  -3  -3   59.14    3.05   1
   1  -3  -2   19.69    1.37   1
   1  -3  -2   20.42    1.96   1
   1  -3  -2   21.38    1.24   1
   1  -3  -1   46.71    2.39   1
   1  -3  -1   52.53    2.55   1
   1  -3  -1   47.13    2.26   1
   1  -3  -1   45.88    3.21   1
   1  -3  -1   47.98    2.58   1
   1  -3   0   13.94    1.31   1
   1  -3   0   16.00    1.16   1
   1  -3   0   18.94    1.17   1
   1  -3   0   16.60    1.17   1
   1  -3   1  104.44    4.43   1
   1  -3   1  109.89    5.41   1
   1  -3   1  106.00    5.09   1
   1  -3   1  109.45    5.62   1
   1  -3   1  105.91    5.09   1
   1  -3   2    5.61    0.54   1
   1  -3   2    6.40    1.15   1
   1  -3   2    4.57    0.97   1
   1  -3   2    7.79    1.10   1
   1  -3   2    8.30    1.19   1
   1  -3   2    8.20    0.95   1
   1  -3   3   53.80    3.04   1
   1  -3   3   52.51    3.44   1
   1  -3   3   55.80    3.25   1
   1  -3   3   49.61    3.21   1
   1  -3   3   55.85    3.86   1
   1  -3   3   50.68    2.65   1
   1  -3   4   34.85    3.29   1
   1  -3   4   38.68    2.83   1
   1  -3   4   38.03    2.29   1
   1  -3   4   37.16    2.65   1
   1  -3   4   47.76    2.87   1
   1  -3   4   38.86    2.96   1
   1  -3   5   10.86    1.70   1
   1  -3   5   11.65    1.20   1
   1  -3   5   13.20    2.03   1
   1  -3   5   13.96    2.01   1
   1  -3   5   12.42    1.62   1
   1  -3   5   12.63    1.61   1
   1  -3   6   12.46    1.38   1
   1  -3   6   14.05    2.01   1
   1  -3   6   12.26    1.74   1
   1  -3   6   13.90    1.69   1
   1  -3   6   16.01    1.49   1
   1  -3   6   17.23    2.23   1
   1  -3   7    9.93    1.69   1
   1  -3   7   13.70    1.84   1
   1  -3   7    8.17    1.30   1
   1  -3   7   10.66    1.89   1
   1  -3   7   12.63    2.06   1
   1  -3   8   25.65    3.15   1
   1  -3   8   20.17    2.60   1
   1  -3   8   21.46    3.16   1
   1  -3   8   18.80    2.69   1
   1  -3   8   20.19    2.13   1
   1  -3   9    2.87    2.45   1
   1  -3   9    1.58    1.48   1
   1  -3   9   -0.85    1.07   1
   1  -3   9   -0.11    1.61   1
   1  -3   9    0.11    1.40   1
   1  -3  10    3.29    1.79   1
   1  -3  10    2.85    2.12   1
   1  -3  10    0.42    1.79   1
   1  -3  10    2.88    2.25   1
   1  -3  11    1.68    1.90   1
   1  -3  11   -0.22    1.62   1
   1  -3  12    4.46    2.87   1
   1  -2  -9   19.52    3.02   1
   1  -2  -8    5.13    1.92   1
   1  -2  -7   29.22    3.36   1
   1  -2  -6   21.61    2.51   1
   1  -2  -5  179.32    8.04   1
   1  -2  -2   14.67    1.19   1
   1  -2  -2   19.00    1.17   1
   1  -2  -2    0.63    0.21   1
   1  -2  -2    0.76    0.22   1
   1  -2  -1    4.02    0.41   1
   1  -2  -1    4.79    0.54   1
   1  -2  -1    3.42    0.42   1
   1  -2  -1    3.61    0.55   1
   1  -2  -1    4.84    0.41   1
   1  -2   0    2.24    0.31   1
   1  -2   0    3.41    0.65   1
   1  -2   0    3.42    0.65   1
   1  -2   0    2.76    0.41   1
   1  -2   0    2.47    0.42   1
   1  -2   1  311.09   12.76   1
   1  -2   1  321.21   13.31   1
   1  -2   1  331.50   13.57   1
   1  -2   1  307.47   13.05   1
   1  -2   1  337.91   12.94   1
   1  -2   1  311.42   11.63   1
   1  -2   2  103.97    5.69   1
   1  -2   2   92.05    4.36   1
   1  -2   2  105.88    5.10   1
   1  -2   2  101.79    5.01   1
   1  -2   2  110.17    4.99   1
   1  -2   3  456.06   18.53   1
   1  -2   3  447.29   19.23   1
   1  -2   3  459.83   17.74   1
   1  -2   3  421.39   17.36   1
   1  -2   4   55.31    3.53   1
   1  -2   4   57.07    3.59   1
   1  -2   4   63.99    4.63   1
   1  -2   4   63.52    3.46   1
   1  -2   4   52.88    2.70   1
   1  -2   5   71.53    3.67   1
   1  -2   5   71.38    5.59   1
   1  -2   5   83.75    5.49   1
   1  -2   5   65.93    3.69   1
   1  -2   5   80.70    4.46   1
   1  -2   6   69.20    3.78   1
   1  -2   6   67.34    5.94   1
   1  -2   6   77.36    5.28   1
   1  -2   6   71.03    4.87   1
   1  -2   6   66.81    3.89   1
   1  -2   7   46.46    4.51   1
   1  -2   7   45.70    3.35   1
   1  -2   7   41.53    3.60   1
   1  -2   7   44.58    3.59   1
   1  -2   7   40.45    3.54   1
   1  -2   8    0.42    1.28   1
   1  -2   8   -1.80    1.05   1
   1  -2   8   -2.02    1.70   1
   1  -2   8    0.96    1.71   1
   1  -2   8   -0.84    0.74   1
   1  -2   9    5.55    1.70   1
   1  -2   9    5.72    1.68   1
   1  -2   9    5.00    1.80   1
   1  -2   9    3.94    1.72   1
   1  -2   9    4.12    1.59   1
   1  -2  10   -0.75    1.40   1
   1  -2  10    0.75    1.71   1
   1  -2  10    1.06    1.27   1
   1  -2  10    0.84    2.21   1
   1  -2  11    9.67    2.43   1
   1  -2  11    9.71    2.64   1
   1  -2  11    7.34    2.46   1
   1  -2  11    7.96    3.60   1
   1  -2  12    2.75    2.43   1
   1  -2  12    3.19    2.36   1
   1  -1 -10   19.95    3.42   1
   1  -1  -9   -0.42    1.49   1
   1  -1  -8   10.60    1.82   1
   1  -1  -7    5.23    1.61   1
   1  -1  -6    0.54    1.08   1
   1  -1  -5  141.45    5.91   1
   1  -1  -4    0.00    1.07   1
   1  -1  -1  855.71   29.23   1
   1  -1  -1  868.29   28.82   1
   1  -1   0   64.16    3.49   1
   1  -1   0   62.65    3.28   1
   1  -1   1  389.28   14.71   1
   1  -1   1  397.57   14.87   1
   1  -1   1  370.27   13.96   1
   1  -1   2  123.12    5.72   1
   1  -1   2  152.77    6.91   1
   1  -1   2  135.04    5.51   1
   1  -1   2  155.64    6.20   1
   1  -1   3    1.80    0.64   1
   1  -1   3    1.71    0.87   1
   1  -1   3    3.00    0.75   1
   1  -1   3    2.02    0.44   1
   1  -1   4  153.69    7.20   1
   1  -1   4  153.41    8.22   1
   1  -1   4  130.89    5.66   1
   1  -1   4  126.90    6.04   1
   1  -1   5   29.43    1.90   1
   1  -1   5   28.02    2.41   1
   1  -1   5   24.08    1.92   1
   1  -1   5   29.36    2.69   1
   1  -1   6  156.67    8.52   1
   1  -1   6  210.47   11.72   1
   1  -1   6  194.01   11.83   1
   1  -1   6  177.51    9.34   1
   1  -1   7   16.81    2.04   1
   1  -1   7   18.36    1.95   1
   1  -1   7   14.75    2.07   1
   1  -1   7   11.29    1.80   1
   1  -1   8   42.68    4.33   1
   1  -1   8   38.73    2.95   1
   1  -1   8   34.25    3.14   1
   1  -1   9   13.86    2.84   1
   1  -1   9   15.57    2.62   1
   1  -1   9   13.61    2.36   1
   1  -1   9    7.97    1.69   1
   1  -1  10    6.45    2.79   1
   1  -1  10    5.52    2.03   1
   1  -1  10    2.55    1.71   1
   1  -1  10    4.69    2.01   1
   1  -1  11   -2.02    2.75   1
   1  -1  11   -0.42    1.79   1
   1  -1  11   -1.79    2.76   1
   1  -1  11    1.28    1.70   1
   1  -1  12    2.96    3.29   1
   1  -1  12   -0.54    3.30   1
   1   0 -11   12.25    2.75   1
   1   0 -10    0.54    1.50   1
   1   0  -9   25.83    3.15   1
   1   0  -8   16.16    2.16   1
   1   0  -7   18.33    1.95   1
   1   0  -6   98.55    5.34   1
   1   0  -5   81.24    3.92   1
   1   0  -4  673.99   23.59   1
   1   0  -3    1.06    0.42   1
   1   0  -3    0.78    0.33   1
   1   0  -3   36.77    4.62   1
   1   0  -2  327.62   13.03   1
   1   0  -2  579.71   18.48   1
   1   0  -2  334.32   13.16   1
   1   0  -1   90.59    3.74   1
   1   0  -1   97.20    3.88   1
   1   0  -1  159.11    5.80   1
   1   0   0  976.22   36.73   1
   1   0   0  973.66   32.70   1
   1   0   0  986.75   32.91   1
   1   0   1  112.71    4.82   1
   1   0   1  150.90    5.90   1
   1   0   1  108.56    4.95   1
   1   0   1  152.97    5.68   1
   1   0   1  198.30    7.76   1
   1   0   2   91.54    4.13   1
   1   0   2   84.42    4.54   1
   1   0   2  113.85    5.33   1
   1   0   2  117.63    5.19   1
   1   0   2  168.74    5.96   1
   1   0   3    2.85    0.73   1
   1   0   3    4.32    0.86   1
   1   0   3    0.84    0.53   1
   1   0   3    3.39    0.60   1
   1   0   3    1.61    0.53   1
   1   0   4   85.33    3.74   1
   1   0   4   56.14    3.11   1
   1   0   4   40.13    2.61   1
   1   0   4   42.46    2.55   1
   1   0   5   23.75    2.13   1
   1   0   5   22.45    2.17   1
   1   0   5   16.74    1.60   1
   1   0   5   28.44    2.13   1
   1   0   5   17.42    1.46   1
   1   0   6    2.80    0.42   1
   1   0   6    3.02    0.87   1
   1   0   6    1.83    1.07   1
   1   0   6    1.58    0.86   1
   1   0   6    3.72    1.07   1
   1   0   7   18.24    2.20   1
   1   0   7   22.93    2.39   1
   1   0   7   24.65    2.58   1
   1   0   7   12.23    1.80   1
   1   0   8   -0.86    1.08   1
   1   0   8   -0.43    1.52   1
   1   0   8   -1.17    1.27   1
   1   0   8   -0.11    0.97   1
   1   0   9   10.40    2.33   1
   1   0   9   14.84    2.81   1
   1   0   9   14.30    2.65   1
   1   0  10    1.38    1.69   1
   1   0  10   -0.43    1.74   1
   1   0  10    0.84    1.47   1
   1   0  10    2.85    2.44   1
   1   0  11    8.49    3.18   1
   1   0  11   10.80    2.44   1
   1   0  11    4.99    3.17   1
   1   0  11    4.12    2.42   1
   1   0  12   -2.11    3.29   1
   1   0  12    0.96    1.91   1
   1   1 -11    0.84    2.22   1
   1   1 -10   79.71    7.19   1
   1   1  -9    2.12    1.17   1
   1   1  -8   81.34    5.03   1
   1   1  -7    1.49    0.76   1
   1   1  -6   75.70    4.32   1
   1   1  -6  141.36    4.74   1
   1   1  -5   90.51    4.74   1
   1   1  -5   55.92    2.78   1
   1   1  -4   37.12    2.13   1
   1   1  -4   35.93    1.86   1
   1   1  -4   39.93    2.34   1
   1   1  -4   62.74    3.03   1
   1   1  -3  174.51    7.88   1
   1   1  -3  281.51   10.33   1
   1   1  -3  173.70    7.32   1
   1   1  -2    5.85    0.75   1
   1   1  -2    8.63    1.12   1
   1   1  -2    4.85    0.63   1
   1   1  -1  786.83   25.44   1
   1   1  -1  736.42   29.89   1
   1   1  -1  789.36   25.54   1
   1   1  -1  780.76   27.71   1
   1   1   0   20.14    1.81   1
   1   1   0   11.27    0.97   1
   1   1   0   14.80    1.04   1
   1   1   0   11.85    1.00   1
   1   1   1  105.18    4.87   1
   1   1   1  145.61    5.55   1
   1   1   1  142.35    5.73   1
   1   1   1  179.45    7.14   1
   1   1   1  106.94    4.69   1
   1   1   2   71.66    3.79   1
   1   1   2   59.70    2.92   1
   1   1   2   47.11    2.26   1
   1   1   2   39.27    2.58   1
   1   1   2   57.77    2.87   1
   1   1   3   11.97    1.14   1
   1   1   3   15.66    1.69   1
   1   1   3   13.06    1.14   1
   1   1   3   15.35    1.23   1
   1   1   3   11.48    1.26   1
   1   1   4    0.21    1.07   1
   1   1   4    0.63    0.74   1
   1   1   4    0.11    0.56   1
   1   1   4    0.00    1.11   1
   1   1   4    0.46    0.92   1
   1   1   5   22.28    2.45   1
   1   1   5   13.31    1.58   1
   1   1   5   19.05    1.65   1
   1   1   5   22.20    1.88   1
   1   1   5   18.54    2.04   1
   1   1   6   44.04    3.15   1
   1   1   6   60.38    3.93   1
   1   1   6   59.58    4.23   1
   1   1   6   83.39    5.70   1
   1   1   6   44.30    3.15   1
   1   1   7   13.93    2.00   1
   1   1   7   15.18    2.13   1
   1   1   7   10.28    1.92   1
   1   1   7   13.51    2.09   1
   1   1   7   27.50    2.11   1
   1   1   8   23.36    3.09   1
   1   1   8   30.51    3.14   1
   1   1   8   18.23    2.73   1
   1   1   8   19.71    3.08   1
   1   1   9   -2.02    1.50   1
   1   1   9    1.34    1.99   1
   1   1   9    0.32    1.49   1
   1   1  10   14.29    3.51   1
   1   1  10   16.54    3.18   1
   1   1  10   17.23    3.58   1
   1   1  11    2.11    2.54   1
   1   1  11    5.09    2.65   1
   1   2 -11   13.40    2.87   1
   1   2 -10    4.13    1.59   1
   1   2  -9   12.68    2.06   1
   1   2  -8    6.30    1.19   1
   1   2  -7  141.64    6.06   1
   1   2  -7   86.70    5.00   1
   1   2  -6   42.08    3.01   1
   1   2  -6   32.20    1.88   1
   1   2  -5   34.27    1.57   1
   1   2  -5   35.28    2.45   1
   1   2  -5   36.76    2.87   1
   1   2  -4    0.11    0.64   1
   1   2  -4    0.65    0.66   1
   1   2  -3    4.03    0.95   1
   1   2  -3    5.32    0.76   1
   1   2  -2   30.81    1.94   1
   1   2  -2   30.35    2.04   1
   1   2  -2   33.90    1.80   1
   1   2  -1  222.27    9.22   1
   1   2  -1  226.16    9.00   1
   1   2  -1  230.83    8.78   1
   1   2   0   19.85    1.29   1
   1   2   0   23.31    1.50   1
   1   2   0   15.27    1.21   1
   1   2   1  476.53   18.94   1
   1   2   1  488.35   17.35   1
   1   2   1  570.22   20.37   1
   1   2   1  564.34   18.78   1
   1   2   2   25.47    1.47   1
   1   2   2   25.37    2.01   1
   1   2   2   24.74    1.56   1
   1   2   2   21.69    1.44   1
   1   2   2   18.94    1.52   1
   1   2   3   49.73    3.19   1
   1   2   3   52.36    3.43   1
   1   2   3   75.28    4.39   1
   1   2   3   65.42    3.22   1
   1   2   3   65.08    3.04   1
   1   2   4   53.89    3.17   1
   1   2   4   86.12    5.31   1
   1   2   4   74.13    3.63   1
   1   2   4   77.80    3.72   1
   1   2   4   60.37    3.68   1
   1   2   5   49.12    3.13   1
   1   2   5   34.65    3.03   1
   1   2   5   50.01    3.45   1
   1   2   5   56.01    4.28   1
   1   2   5   32.44    3.17   1
   1   2   6    2.45    0.99   1
   1   2   6    2.35    1.23   1
   1   2   6    2.48    1.34   1
   1   2   6    2.85    1.29   1
   1   2   6    1.79    1.05   1
   1   2   7    1.91    1.79   1
   1   2   7    7.69    1.37   1
   1   2   7    2.45    1.39   1
   1   2   7    4.73    1.57   1
   1   2   7    4.73    1.34   1
   1   2   8    1.35    1.35   1
   1   2   8    2.56    1.82   1
   1   2   8    4.03    1.78   1
   1   2   8    1.58    1.58   1
   1   2   8    5.56    1.16   1
   1   2   9   12.15    3.38   1
   1   2   9   21.72    3.44   1
   1   2   9   30.13    4.07   1
   1   2  10   10.25    2.84   1
   1   2  11    2.64    2.75   1
   1   3 -10    4.04    1.16   1
   1   3  -9    5.20    0.94   1
   1   3  -9    6.04    0.89   1
   1   3  -9    5.77    0.75   1
   1   3  -8   19.22    1.90   1
   1   3  -8   34.32    2.59   1
   1   3  -7   31.62    2.71   1
   1   3  -7   22.53    1.57   1
   1   3  -6    8.49    1.92   1
   1   3  -6    7.24    0.67   1
   1   3  -6    9.63    1.43   1
   1   3  -5   43.82    3.54   1
   1   3  -5   37.77    3.29   1
   1   3  -4   17.73    1.73   1
   1   3  -4   17.56    1.81   1
   1   3  -3   30.26    2.27   1
   1   3  -3   32.92    2.36   1
   1   3  -2   38.77    2.57   1
   1   3  -2   33.08    2.13   1
   1   3  -2   35.74    2.09   1
   1   3  -1  126.58    5.57   1
   1   3  -1  128.74    5.62   1
   1   3  -1  122.67    5.72   1
   1   3   0  166.08    7.73   1
   1   3   0  177.87    7.46   1
   1   3   0  176.49    7.43   1
   1   3   1    8.95    0.99   1
   1   3   1   12.77    1.11   1
   1   3   1   12.64    1.10   1
   1   3   2   61.41    3.11   1
   1   3   2   52.99    2.70   1
   1   3   2   57.73    2.98   1
   1   3   2   58.66    3.04   1
   1   3   3   52.97    3.30   1
   1   3   3   58.23    3.03   1
   1   3   3   57.92    2.86   1
   1   3   3   69.63    4.18   1
   1   3   3   48.85    3.17   1
   1   3   4   97.38    5.08   1
   1   3   4  100.45    5.58   1
   1   3   4  110.34    6.38   1
   1   3   4  116.83    4.98   1
   1   3   4  128.49    7.13   1
   1   3   5    7.44    1.09   1
   1   3   5    8.64    1.42   1
   1   3   5    4.55    1.19   1
   1   3   5    6.93    1.47   1
   1   3   5    8.87    1.69   1
   1   3   6   25.93    2.80   1
   1   3   6   29.38    2.87   1
   1   3   6   34.15    3.21   1
   1   3   6   24.84    2.77   1
   1   3   6   27.35    3.13   1
   1   3   7    5.71    2.12   1
   1   3   7    4.04    1.82   1
   1   3   7    6.53    1.37   1
   1   3   7    3.54    1.73   1
   1   3   8   11.15    2.55   1
   1   3   8    6.82    2.53   1
   1   3   8    8.80    1.98   1
   1   3   9    0.21    2.03   1
   1   3  10   -0.42    2.22   1
   1   4  -9    0.22    0.88   1
   1   4  -8   31.50    3.17   1
   1   4  -7    6.11    1.55   1
   1   4  -6  125.37    8.30   1
   1   4  -5    3.71    1.39   1
   1   4  -5    3.59    1.29   1
   1   4  -4   72.80    4.40   1
   1   4  -4   65.76    4.85   1
   1   4  -3   38.52    2.69   1
   1   4  -3   32.99    2.61   1
   1   4  -3   28.64    2.54   1
   1   4  -2   62.69    4.08   1
   1   4  -2   58.37    3.31   1
   1   4  -2   59.96    4.64   1
   1   4  -1   11.81    1.63   1
   1   4  -1    9.29    1.20   1
   1   4  -1   10.60    1.41   1
   1   4   0    7.41    1.18   1
   1   4   0    9.50    1.79   1
   1   4   0    7.93    1.40   1
   1   4   1   23.67    1.82   1
   1   4   1   21.31    1.82   1
   1   4   1   23.91    1.92   1
   1   4   2   38.51    2.18   1
   1   4   2   38.36    2.71   1
   1   4   2   40.98    2.80   1
   1   4   3   35.37    3.68   1
   1   4   3   42.15    2.81   1
   1   4   3   45.74    2.83   1
   1   4   3   38.56    2.86   1
   1   4   4   17.00    2.22   1
   1   4   4   16.70    2.06   1
   1   4   4   20.52    2.55   1
   1   4   4   18.39    2.12   1
   1   4   4   25.63    2.33   1
   1   4   5   10.84    1.80   1
   1   4   5   11.57    1.90   1
   1   4   5   12.65    2.05   1
   1   4   5    8.18    1.68   1
   1   4   5   12.09    2.11   1
   1   4   6    3.42    1.72   1
   1   4   6    6.39    1.55   1
   1   4   6    3.70    1.47   1
   1   4   6    3.91    1.59   1
   1   4   6    0.11    1.46   1
   1   4   7   -0.75    1.72   1
   1   4   7    0.54    1.60   1
   1   4   7    2.48    1.34   1
   1   4   8   -0.63    1.59   1
   1   4   9    3.72    2.98   1
   1   5  -8   12.65    2.08   1
   1   5  -5   21.15    2.37   1
   1   5  -4    0.22    2.36   1
   1   5  -4    2.33    1.26   1
   1   5  -3   71.53    5.07   1
   1   5  -3   91.76    5.93   1
   1   5  -3   81.10    5.02   1
   1   5  -2    1.91    1.17   1
   1   5  -2   -0.54    1.08   1
   1   5  -2    0.22    1.08   1
   1   5  -1   28.67    2.77   1
   1   5  -1   32.13    2.93   1
   1   5  -1   27.56    2.50   1
   1   5   0    3.44    1.31   1
   1   5   0    3.20    1.41   1
   1   5   0    3.64    1.19   1
   1   5   1    1.50    0.97   1
   1   5   1    1.30    1.19   1
   1   5   1    2.59    1.50   1
   1   5   2    0.33    1.09   1
   1   5   2    0.22    0.87   1
   1   5   2   -0.85    0.95   1
   1   5   3    0.22    0.99   1
   1   5   3    0.54    0.86   1
   1   5   3   -0.22    1.21   1
   1   5   4   20.32    2.61   1
   1   5   4   17.61    2.69   1
   1   5   4   12.63    2.02   1
   1   5   4   13.86    2.11   1
   1   5   5    3.54    1.60   1
   1   5   5    2.04    1.92   1
   1   5   5    4.53    1.21   1
   1   5   6    7.27    1.95   1
   1   5   6   10.66    2.78   1
   1   5   7    0.11    1.73   1
   1   5   8    6.30    2.65   1
   1   6  -5    1.07    1.49   1
   1   6  -4    5.46    1.93   1
   1   6  -3    1.18    1.28   1
   1   6  -3    1.58    1.58   1
   1   6  -2    9.27    1.95   1
   1   6  -2    8.06    1.59   1
   1   6  -1   13.91    2.00   1
   1   6  -1   13.04    2.25   1
   1   6   0    1.41    1.73   1
   1   6   0    2.88    1.62   1
   1   6   1    8.28    1.62   1
   1   6   1    8.20    2.68   1
   1   6   2    1.41    1.85   1
   1   6   2    2.39    1.65   1
   1   6   3   17.27    2.70   1
   1   6   3   21.88    2.32   1
   1   6   3   23.38    3.42   1
   1   6   4    1.39    1.71   1
   1   6   5    5.15    1.74   1
   1   6   6    0.22    1.95   1
   1   7  -2   16.82    2.63   1
   1   7  -2   16.09    2.50   1
   1   7  -1   14.09    3.11   1
   1   7  -1    5.20    2.61   1
   1   7   0    3.88    2.24   1
   1   7   0    3.60    1.74   1
   1   7   1   10.17    2.92   1
   1   7   1    8.19    2.09   1
   1   7   2   11.72    2.92   1
   1   7   3    2.50    3.35   1
   1   7   4    1.72    2.59   1
   1   8  -2    1.59    3.18   1
   1   8  -1    0.22    3.35   1
   1   8   0    3.97    2.56   1
   2  -7   0   -0.11    1.50   1
   2  -7   0    0.11    1.18   1
   2  -7   1    1.17    1.38   1
   2  -7   1    0.75    1.82   1
   2  -7   2    1.07    1.49   1
   2  -7   2    1.71    1.60   1
   2  -7   2    1.18    2.04   1
   2  -7   3    6.30    2.33   1
   2  -7   3    5.45    2.03   1
   2  -7   4   -1.59    1.59   1
   2  -7   4   -2.57    2.26   1
   2  -7   5    9.36    2.66   1
   2  -7   6    1.41    2.17   1
   2  -7   7   -0.86    2.25   1
   2  -6  -2    7.18    1.05   1
   2  -6  -2   10.79    1.36   1
   2  -6  -2   11.76    1.42   1
   2  -6  -1   18.95    1.89   1
   2  -6  -1   16.66    1.93   1
   2  -6  -1   14.78    1.90   1
   2  -6   0    8.02    1.52   1
   2  -6   0    7.62    1.48   1
   2  -6   0    9.49    1.59   1
   2  -6   0   10.60    1.68   1
   2  -6   1    3.41    1.29   1
   2  -6   1    2.23    1.48   1
   2  -6   1    1.92    1.29   1
   2  -6   1    2.47    1.92   1
   2  -6   2    4.34    1.50   1
   2  -6   2    1.48    1.71   1
   2  -6   2    1.07    2.14   1
   2  -6   2    1.30    1.30   1
   2  -6   3    0.85    1.60   1
   2  -6   3    0.75    1.18   1
   2  -6   3   -1.81    1.81   1
   2  -6   4   12.05    2.16   1
   2  -6   4    9.83    2.27   1
   2  -6   4   14.07    2.72   1
   2  -6   5    8.41    2.05   1
   2  -6   5   14.55    3.09   1
   2  -6   6    6.26    2.29   1
   2  -6   6    3.01    2.38   1
   2  -6   7    2.36    2.04   1
   2  -6   8   14.03    3.42   1
   2  -5  -2   22.14    1.75   1
   2  -5  -2   23.81    1.91   1
   2  -5  -2   25.03    1.86   1
   2  -5  -2   21.95    1.74   1
   2  -5  -1   58.32    4.10   1
   2  -5  -1   54.13    3.34   1
   2  -5  -1   49.87    3.49   1
   2  -5  -1   54.33    3.49   1
   2  -5   0    2.75    1.06   1
   2  -5   0    3.29    0.86   1
   2  -5   0    2.24    0.96   1
   2  -5   0    2.47    1.30   1
   2  -5   1   39.14    2.97   1
   2  -5   1   34.71    3.41   1
   2  -5   1   33.39    2.87   1
   2  -5   1   27.96    2.51   1
   2  -5   2   15.21    1.94   1
   2  -5   2   15.33    1.78   1
   2  -5   2   12.22    1.81   1
   2  -5   2   14.07    2.17   1
   2  -5   3   43.82    3.70   1
   2  -5   3   58.65    4.13   1
   2  -5   3   50.05    4.68   1
   2  -5   4    1.40    1.30   1
   2  -5   4    0.54    1.82   1
   2  -5   4   -0.22    1.52   1
   2  -5   5   11.29    2.23   1
   2  -5   5    4.09    1.59   1
   2  -5   5    5.91    2.46   1
   2  -5   6    0.64    1.60   1
   2  -5   6    0.32    2.26   1
   2  -5   6    0.97    2.04   1
   2  -5   7    5.15    2.02   1
   2  -5   7    6.55    2.71   1
   2  -5   8    6.45    2.16   1
   2  -5   9    2.13    2.78   1
   2  -5  10    0.96    2.35   1
   2  -4  -2  106.90    5.34   1
   2  -4  -2  110.95    5.44   1
   2  -4  -2   93.67    4.19   1
   2  -4  -2   93.67    4.78   1
   2  -4  -1   23.20    1.78   1
   2  -4  -1   31.87    1.87   1
   2  -4  -1   30.38    2.17   1
   2  -4  -1   23.80    1.71   1
   2  -4   0   47.28    3.26   1
   2  -4   0   45.97    3.22   1
   2  -4   0   38.65    2.69   1
   2  -4   0   48.38    3.16   1
   2  -4   1   68.30    3.93   1
   2  -4   1   72.35    4.57   1
   2  -4   1   73.94    4.98   1
   2  -4   1   67.46    4.07   1
   2  -4   2   34.20    2.79   1
   2  -4   2   27.61    2.50   1
   2  -4   2   28.19    2.09   1
   2  -4   2   28.15    2.63   1
   2  -4   3    7.11    1.27   1
   2  -4   3    8.15    1.71   1
   2  -4   3    9.20    1.38   1
   2  -4   3    8.69    1.40   1
   2  -4   3    9.89    1.70   1
   2  -4   4    2.57    1.19   1
   2  -4   4    2.26    1.09   1
   2  -4   4    2.34    1.27   1
   2  -4   4    5.24    1.28   1
   2  -4   4    3.88    1.63   1
   2  -4   5   -0.63    1.81   1
   2  -4   5    0.00    1.08   1
   2  -4   5    0.54    1.51   1
   2  -4   5    0.43    1.29   1
   2  -4   6    4.18    0.98   1
   2  -4   6    6.84    1.84   1
   2  -4   6    2.58    1.50   1
   2  -4   6    5.58    1.91   1
   2  -4   7    3.32    2.34   1
   2  -4   7    5.53    1.17   1
   2  -4   7    4.58    0.53   1
   2  -4   7    8.35    1.80   1
   2  -4   7    3.42    1.84   1
   2  -4   8    4.64    1.84   1
   2  -4   8    3.74    1.92   1
   2  -4   8    2.25    2.45   1
   2  -4   9    6.71    2.16   1
   2  -4   9    6.82    2.32   1
   2  -4  10    0.00    1.09   1
   2  -4  10   -0.32    2.35   1
   2  -3  -2    1.07    0.32   1
   2  -3  -2    1.18    0.31   1
   2  -3  -2    0.63    0.31   1
   2  -3  -2    0.53    0.32   1
   2  -3  -1    1.69    0.54   1
   2  -3  -1    0.96    0.42   1
   2  -3  -1    0.00    1.07   1
   2  -3  -1    1.39    0.54   1
   2  -3   0   16.77    1.52   1
   2  -3   0   16.19    1.41   1
   2  -3   0   13.72    1.00   1
   2  -3   0   15.96    1.32   1
   2  -3   1   60.52    4.18   1
   2  -3   1   57.98    3.78   1
   2  -3   1   60.83    3.56   1
   2  -3   2   -0.63    0.64   1
   2  -3   2    1.39    0.95   1
   2  -3   2    0.11    0.86   1
   2  -3   3   82.92    4.53   1
   2  -3   3  104.54    4.24   1
   2  -3   3   94.76    6.05   1
   2  -3   3   76.76    5.99   1
   2  -3   4    1.18    0.74   1
   2  -3   4    0.43    1.07   1
   2  -3   4   -0.33    0.76   1
   2  -3   4    0.32    0.86   1
   2  -3   4    0.63    1.27   1
   2  -3   5    9.63    1.60   1
   2  -3   5    4.36    1.38   1
   2  -3   5    6.34    1.10   1
   2  -3   5    5.88    1.62   1
   2  -3   5    5.64    0.54   1
   2  -3   6    3.32    1.28   1
   2  -3   6    0.32    0.43   1
   2  -3   6    0.85    1.39   1
   2  -3   6    0.43    0.86   1
   2  -3   7    1.70    1.26   1
   2  -3   7    1.07    1.39   1
   2  -3   7    0.76    0.97   1
   2  -3   7    1.29    0.87   1
   2  -3   7    0.11    1.51   1
   2  -3   8   14.34    1.72   1
   2  -3   8   17.83    2.70   1
   2  -3   8   13.22    2.55   1
   2  -3   8   13.51    2.43   1
   2  -3   8   11.83    1.92   1
   2  -3   9    1.69    1.80   1
   2  -3   9    1.58    1.58   1
   2  -3   9    1.08    1.51   1
   2  -3  10    6.27    2.50   1
   2  -3  10   11.16    2.96   1
   2  -3  11    0.42    3.28   1
   2  -2  -2   14.03    1.02   1
   2  -2  -2   14.03    0.86   1
   2  -2  -1    7.70    0.75   1
   2  -2  -1    6.86    0.87   1
   2  -2   0    3.54    0.74   1
   2  -2   0    1.70    0.54   1
   2  -2   1    9.42    0.82   1
   2  -2   1   10.82    1.29   1
   2  -2   1    9.82    1.30   1
   2  -2   2   63.28    3.30   1
   2  -2   2   69.97    4.84   1
   2  -2   2   78.72    4.40   1
   2  -2   3   86.45    6.35   1
   2  -2   3  106.99    4.71   1
   2  -2   3   85.57    4.40   1
   2  -2   4   56.34    3.42   1
   2  -2   4   41.99    2.41   1
   2  -2   4   42.40    2.28   1
   2  -2   4   53.12    3.32   1
   2  -2   5   14.11    1.94   1
   2  -2   5   12.85    1.18   1
   2  -2   5   16.72    1.95   1
   2  -2   5   16.71    2.28   1
   2  -2   6   88.79    5.65   1
   2  -2   6   70.20    5.37   1
   2  -2   6   65.22    3.83   1
   2  -2   6   70.99    4.53   1
   2  -2   7   26.52    2.98   1
   2  -2   7   21.13    2.08   1
   2  -2   7   21.12    2.94   1
   2  -2   8    5.36    1.82   1
   2  -2   8    3.52    1.39   1
   2  -2   8    3.20    1.81   1
   2  -2   9   -0.11    1.62   1
   2  -2   9    2.03    1.50   1
   2  -2   9    1.69    1.58   1
   2  -2  10    0.54    2.58   1
   2  -2  10    2.03    2.76   1
   2  -2  10    0.84    2.22   1
   2  -2  11    4.49    2.15   1
   2  -2  11    8.71    2.86   1
   2  -1  -4  131.18    5.19   1
   2  -1  -4  132.63    4.98   1
   2  -1  -3   46.06    1.95   1
   2  -1  -3   44.40    2.19   1
   2  -1  -2    4.28    0.51   1
   2  -1  -2    5.39    0.78   1
   2  -1  -2    3.87    0.53   1
   2  -1  -1    0.44    0.56   1
   2  -1  -1    1.10    0.44   1
   2  -1  -1    1.10    0.55   1
   2  -1   0    0.23    0.89   1
   2  -1   0    0.00    1.08   1
   2  -1   0   -0.33    0.66   1
   2  -1   1  227.40   10.20   1
   2  -1   1  215.47   10.67   1
   2  -1   1  215.77   10.37   1
   2  -1   2   62.72    3.67   1
   2  -1   2   42.76    2.43   1
   2  -1   2   60.43    4.03   1
   2  -1   3  144.74    7.73   1
   2  -1   3  121.41    5.47   1
   2  -1   3  123.97    6.45   1
   2  -1   3  164.68    7.01   1
   2  -1   3  141.28    8.38   1
   2  -1   4    3.10    0.95   1
   2  -1   4    2.99    1.18   1
   2  -1   4    1.81    0.86   1
   2  -1   4    2.39    0.87   1
   2  -1   4    2.65    0.64   1
   2  -1   5  150.74    7.14   1
   2  -1   5  153.03    8.73   1
   2  -1   5  122.16    6.16   1
   2  -1   5  128.09    6.76   1
   2  -1   6    8.38    1.74   1
   2  -1   6    9.23    1.19   1
   2  -1   6    7.35    1.79   1
   2  -1   7   20.49    2.52   1
   2  -1   7   22.94    2.47   1
   2  -1   7   28.55    3.21   1
   2  -1   8    5.73    1.83   1
   2  -1   8    2.96    1.17   1
   2  -1   8    6.16    1.85   1
   2  -1   9    1.80    1.27   1
   2  -1   9    0.63    1.59   1
   2  -1  10    2.45    1.81   1
   2  -1  10    6.09    2.14   1
   2  -1  10    1.59    1.79   1
   2  -1  11    0.42    3.18   1
   2  -1  11    1.29    2.13   1
   2   0  -5   43.65    2.58   1
   2   0  -5   40.59    2.62   1
   2   0  -5   64.85    3.20   1
   2   0  -4  310.38   13.05   1
   2   0  -4  319.87   13.62   1
   2   0  -4  516.12   15.82   1
   2   0  -3   74.71    3.56   1
   2   0  -3  120.12    9.70   1
   2   0  -3  155.14    6.92   1
   2   0  -2  274.13   10.39   1
   2   0  -2  160.98    6.29   1
   2   0  -2  157.30    6.74   1
   2   0  -1  896.70   31.12   1
   2   0  -1  914.78   30.81   1
   2   0  -1 1022.53   38.86   1
   2   0   0   88.47    4.32   1
   2   0   0  119.74    6.71   1
   2   0   0   87.89    3.91   1
   2   0   1  319.38   12.43   1
   2   0   1  186.16    9.03   1
   2   0   1  243.16   10.10   1
   2   0   1  241.19   10.06   1
   2   0   2    7.32    0.96   1
   2   0   2    6.87    0.99   1
   2   0   2    9.47    1.06   1
   2   0   2    4.79    0.95   1
   2   0   3    4.80    1.27   1
   2   0   3    4.47    0.97   1
   2   0   3    4.36    1.03   1
   2   0   3    2.84    1.09   1
   2   0   3    3.19    0.63   1
   2   0   4    9.39    1.41   1
   2   0   4    9.65    1.23   1
   2   0   4   10.02    1.37   1
   2   0   4   16.42    1.47   1
   2   0   4    9.11    1.06   1
   2   0   5   32.00    2.80   1
   2   0   5   35.81    2.71   1
   2   0   5   56.86    3.99   1
   2   0   5   48.04    3.33   1
   2   0   5   34.40    3.43   1
   2   0   6   29.10    3.50   1
   2   0   6   25.06    2.78   1
   2   0   6   27.81    2.61   1
   2   0   6   37.03    3.19   1
   2   0   6   43.13    3.59   1
   2   0   7   35.01    3.54   1
   2   0   7   42.52    4.23   1
   2   0   7   28.03    2.84   1
   2   0   7   38.98    3.00   1
   2   0   8   15.64    3.06   1
   2   0   8    8.16    1.83   1
   2   0   8    6.58    1.80   1
   2   0   9    2.75    2.22   1
   2   0   9    2.53    4.16   1
   2   0   9    1.80    1.80   1
   2   0  10    1.58    2.65   1
   2   0  10    1.06    1.80   1
   2   0  11    2.23    2.65   1
   2   0  11    1.69    2.34   1
   2   1  -7    4.61    0.67   1
   2   1  -6   72.61    4.74   1
   2   1  -6   67.62    4.06   1
   2   1  -6  127.33    6.72   1
   2   1  -5    4.85    1.04   1
   2   1  -5    4.11    0.83   1
   2   1  -5    6.01    0.96   1
   2   1  -4   28.97    1.77   1
   2   1  -4   23.80    1.71   1
   2   1  -4   36.70    3.27   1
   2   1  -3    1.58    0.75   1
   2   1  -3    0.53    0.53   1
   2   1  -3    3.48    1.17   1
   2   1  -2   50.91    2.95   1
   2   1  -2   89.06    5.09   1
   2   1  -2   55.11    3.22   1
   2   1  -1   33.93    1.69   1
   2   1  -1   37.39    2.41   1
   2   1  -1   33.53    1.79   1
   2   1  -1   55.43    3.53   1
   2   1   0   32.95    2.03   1
   2   1   0   32.48    1.90   1
   2   1   0   45.29    3.35   1
   2   1   1  121.05    6.69   1
   2   1   1   65.27    4.01   1
   2   1   1   83.51    3.62   1
   2   1   1   81.43    4.14   1
   2   1   2   19.46    1.94   1
   2   1   2   24.94    2.39   1
   2   1   2   21.55    1.55   1
   2   1   2   16.15    1.58   1
   2   1   3   14.65    1.34   1
   2   1   3   16.48    2.11   1
   2   1   3   16.82    1.89   1
   2   1   3   16.31    1.44   1
   2   1   3   13.73    1.38   1
   2   1   4    0.99    0.88   1
   2   1   4    0.94    1.06   1
   2   1   4    0.00    1.06   1
   2   1   4    0.78    0.78   1
   2   1   4   -0.11    0.96   1
   2   1   5    6.09    1.66   1
   2   1   5    6.26    1.39   1
   2   1   5    4.25    1.06   1
   2   1   5    4.73    1.10   1
   2   1   5    7.91    1.39   1
   2   1   6   66.23    4.84   1
   2   1   6   29.79    3.49   1
   2   1   6   43.10    4.55   1
   2   1   6   32.94    2.96   1
   2   1   6   38.28    3.38   1
   2   1   7    6.13    1.20   1
   2   1   7    1.34    1.22   1
   2   1   7    2.23    1.48   1
   2   1   7    2.23    1.38   1
   2   1   8   36.15    4.30   1
   2   1   8   25.60    3.44   1
   2   1   8   24.68    3.48   1
   2   1   9    2.46    2.78   1
   2   1  10   20.76    3.38   1
   2   1  10   16.15    4.14   1
   2   1  11    2.96    2.45   1
   2   2  -9   22.47    1.58   1
   2   2  -8   19.99    1.90   1
   2   2  -7   31.91    2.67   1
   2   2  -7   16.03    2.14   1
   2   2  -6    4.87    1.46   1
   2   2  -6    4.32    1.28   1
   2   2  -6    2.64    1.07   1
   2   2  -5   -0.32    0.75   1
   2   2  -5    3.73    1.15   1
   2   2  -5    1.17    0.85   1
   2   2  -4    5.61    0.98   1
   2   2  -4   11.57    1.66   1
   2   2  -4    8.25    1.07   1
   2   2  -3   12.86    1.26   1
   2   2  -3   17.13    1.93   1
   2   2  -3   13.15    1.35   1
   2   2  -2   64.53    3.48   1
   2   2  -2   60.46    3.21   1
   2   2  -2   93.82    5.54   1
   2   2  -2   56.97    3.27   1
   2   2  -1    7.58    0.97   1
   2   2  -1    7.58    0.97   1
   2   2  -1    6.82    1.08   1
   2   2  -1   12.63    1.58   1
   2   2   0  160.37    7.10   1
   2   2   0  154.90    6.47   1
   2   2   0  222.05   10.14   1
   2   2   1    7.90    1.28   1
   2   2   1    8.22    1.58   1
   2   2   1    8.71    1.29   1
   2   2   1    7.93    1.12   1
   2   2   2   29.74    2.17   1
   2   2   2   28.80    3.42   1
   2   2   2   24.69    2.05   1
   2   2   2   30.31    2.07   1
   2   2   3    6.27    1.49   1
   2   2   3    4.39    0.96   1
   2   2   3    6.39    1.62   1
   2   2   3    3.30    1.05   1
   2   2   3    6.47    1.33   1
   2   2   4   45.38    3.26   1
   2   2   4   39.92    3.13   1
   2   2   4   67.38    4.39   1
   2   2   4   47.96    3.50   1
   2   2   4   34.98    2.93   1
   2   2   5  120.51    7.53   1
   2   2   5   65.45    4.68   1
   2   2   5   69.14    4.63   1
   2   2   5   79.07    5.61   1
   2   2   5   82.47    5.35   1
   2   2   6   -0.21    1.71   1
   2   2   6    1.28    1.63   1
   2   2   6   -0.33    1.00   1
   2   2   6    2.87    1.21   1
   2   2   6    3.41    1.83   1
   2   2   7   24.86    3.80   1
   2   2   7   30.47    3.61   1
   2   2   7   39.32    3.49   1
   2   2   7   26.89    3.64   1
   2   2   8    4.04    1.91   1
   2   2   8    1.34    1.65   1
   2   2   8    1.69    1.79   1
   2   2   9   19.38    3.90   1
   2   2   9   17.91    3.41   1
   2   2  10    3.40    2.55   1
   2   3  -9   10.41    1.53   1
   2   3  -8   31.85    2.76   1
   2   3  -7    7.44    1.69   1
   2   3  -7   16.47    1.97   1
   2   3  -7    9.22    1.69   1
   2   3  -6   40.74    4.07   1
   2   3  -6   54.03    4.24   1
   2   3  -6   72.23    5.91   1
   2   3  -5   22.17    2.49   1
   2   3  -5   15.72    1.88   1
   2   3  -5   15.08    1.68   1
   2   3  -4    4.55    1.06   1
   2   3  -4    6.12    1.46   1
   2   3  -4    5.19    1.27   1
   2   3  -3    5.85    1.42   1
   2   3  -3    2.97    1.28   1
   2   3  -3    2.24    0.86   1
   2   3  -2    4.80    1.27   1
   2   3  -2    1.69    0.75   1
   2   3  -2    3.66    1.33   1
   2   3  -2    2.87    0.95   1
   2   3  -1  167.68    7.22   1
   2   3  -1  201.39    9.57   1
   2   3  -1  167.46    7.77   1
   2   3  -1  163.97    7.42   1
   2   3   0  102.87    6.20   1
   2   3   0   77.64    4.39   1
   2   3   0   87.67    4.26   1
   2   3   0   83.24    3.98   1
   2   3   1  227.11   12.72   1
   2   3   1  166.25    8.80   1
   2   3   1  190.44    8.62   1
   2   3   1  188.98    8.88   1
   2   3   2    7.93    1.18   1
   2   3   2    5.46    1.07   1
   2   3   2    6.61    1.17   1
   2   3   2    8.51    2.22   1
   2   3   3  171.24    9.72   1
   2   3   3  171.57    9.19   1
   2   3   3  274.46   14.36   1
   2   3   3  200.46   10.07   1
   2   3   3  219.25    9.60   1
   2   3   4   18.37    2.72   1
   2   3   4   14.41    1.92   1
   2   3   4   13.71    1.87   1
   2   3   4   14.05    1.78   1
   2   3   4   10.45    1.74   1
   2   3   5   21.05    2.44   1
   2   3   5   19.05    2.41   1
   2   3   5   23.71    2.61   1
   2   3   5   22.22    2.83   1
   2   3   5   33.18    3.54   1
   2   3   6    5.22    2.03   1
   2   3   6    5.10    1.58   1
   2   3   6    8.86    2.29   1
   2   3   6    4.61    1.83   1
   2   3   7    1.39    1.92   1
   2   3   7    1.59    1.24   1
   2   3   7   -0.42    1.49   1
   2   3   8    2.61    1.82   1
   2   3   8    7.27    2.67   1
   2   3   8    9.07    2.55   1
   2   3   9    1.38    2.23   1
   2   4  -8    4.87    1.90   1
   2   4  -7   25.68    3.13   1
   2   4  -7   46.97    3.32   1
   2   4  -6   43.60    4.08   1
   2   4  -6   59.41    4.38   1
   2   4  -5   16.31    2.29   1
   2   4  -5   12.86    2.22   1
   2   4  -5   15.10    2.00   1
   2   4  -4   39.09    3.48   1
   2   4  -4   36.80    3.38   1
   2   4  -4   43.17    3.85   1
   2   4  -3   52.18    4.53   1
   2   4  -3   57.45    3.91   1
   2   4  -3   48.74    3.75   1
   2   4  -3   39.29    3.88   1
   2   4  -2   98.64    5.13   1
   2   4  -2   95.30    6.33   1
   2   4  -2   79.29    6.63   1
   2   4  -2   90.54    5.90   1
   2   4  -1    1.85    1.54   1
   2   4  -1    4.08    0.96   1
   2   4  -1    3.08    1.81   1
   2   4  -1    3.88    1.51   1
   2   4   0   33.72    2.65   1
   2   4   0   36.14    2.61   1
   2   4   0   35.44    2.72   1
   2   4   0   39.92    3.97   1
   2   4   1    1.33    1.55   1
   2   4   1    0.00    1.09   1
   2   4   1    0.33    0.87   1
   2   4   2   37.16    2.80   1
   2   4   2   35.15    2.69   1
   2   4   2   38.00    3.75   1
   2   4   2   33.19    3.25   1
   2   4   3   20.03    2.45   1
   2   4   3   18.26    2.03   1
   2   4   3   17.99    2.04   1
   2   4   3   17.91    2.21   1
   2   4   4   21.40    2.63   1
   2   4   4   17.68    2.26   1
   2   4   4   18.08    2.41   1
   2   4   4    9.14    1.97   1
   2   4   5   16.76    2.71   1
   2   4   5   19.04    2.53   1
   2   4   5   18.69    2.65   1
   2   4   6    1.36    1.46   1
   2   4   6    2.88    1.82   1
   2   4   6    1.59    2.04   1
   2   4   7    3.31    2.03   1
   2   4   8   -0.54    2.24   1
   2   5  -7   23.07    2.87   1
   2   5  -6   14.95    2.23   1
   2   5  -5    7.03    1.81   1
   2   5  -4   33.34    2.98   1
   2   5  -3   13.98    2.16   1
   2   5  -3   13.80    1.92   1
   2   5  -2    2.88    1.30   1
   2   5  -2    2.24    1.70   1
   2   5  -1    8.25    1.61   1
   2   5  -1    8.49    1.63   1
   2   5  -1   14.08    2.02   1
   2   5   0    4.54    1.42   1
   2   5   0    8.29    2.03   1
   2   5   0    3.63    1.50   1
   2   5   1    8.16    1.61   1
   2   5   1    6.67    1.71   1
   2   5   2    6.90    1.65   1
   2   5   3    8.85    1.60   1
   2   5   3    9.41    2.05   1
   2   5   4   22.29    2.54   1
   2   5   4   20.61    2.86   1
   2   5   5   -0.66    2.11   1
   2   5   5    0.22    2.04   1
   2   5   6    6.54    1.91   1
   2   5   7    1.18    2.13   1
   2   6  -4   21.97    2.91   1
   2   6  -3    0.32    2.47   1
   2   6  -3   -0.85    1.39   1
   2   6  -2   45.15    4.58   1
   2   6  -2   28.31    3.42   1
   2   6  -1   -0.11    2.05   1
   2   6  -1    2.80    1.63   1
   2   6   0    7.09    2.15   1
   2   6   0    1.83    1.72   1
   2   6   1    5.86    2.27   1
   2   6   1    3.65    2.38   1
   2   6   2    1.21    1.75   1
   2   6   2    4.53    2.47   1
   2   6   3   34.98    4.17   1
   2   6   3   25.13    2.84   1
   2   6   5   10.84    2.59   1
   2   7  -3   20.34    3.08   1
   2   7  -2   11.45    2.87   1
   2   7  -1   11.82    3.42   1
   2   7   0    3.96    2.48   1
   2   7   1   18.66    3.23   1
   2   7   2    6.78    3.46   1
   2   7   3    7.33    2.70   1
   2   8  -2   11.48    4.07   1
   3  -7   1   -0.11    1.40   1
   3  -7   2    1.18    1.50   1
   3  -7   2    0.11    1.62   1
   3  -7   3    0.00    1.07   1
   3  -7   3    1.60    2.98   1
   3  -7   4    0.00    1.08   1
   3  -7   5    8.57    3.35   1
   3  -6  -1    6.90    1.19   1
   3  -6  -1    2.85    1.29   1
   3  -6   0   10.40    1.99   1
   3  -6   0   12.93    1.93   1
   3  -6   0   11.01    1.57   1
   3  -6   1    2.03    1.39   1
   3  -6   1    0.32    1.82   1
   3  -6   1    1.39    1.29   1
   3  -6   2   13.73    2.61   1
   3  -6   2   12.75    2.22   1
   3  -6   2   13.39    2.65   1
   3  -6   3    2.34    1.71   1
   3  -6   3    3.97    2.03   1
   3  -6   3    2.49    1.83   1
   3  -6   4   20.36    3.64   1
   3  -6   4   20.11    4.02   1
   3  -6   4   28.95    3.70   1
   3  -6   5    1.20    1.74   1
   3  -6   5    2.07    2.73   1
   3  -6   6   10.08    3.57   1
   3  -6   7    0.00    1.08   1
   3  -5  -2   78.05    4.55   1
   3  -5  -2  105.30    4.91   1
   3  -5  -2   80.62    4.62   1
   3  -5  -2  101.89    4.83   1
   3  -5  -1   17.31    1.88   1
   3  -5  -1   19.54    1.74   1
   3  -5  -1   22.58    2.16   1
   3  -5  -1   21.66    2.01   1
   3  -5   0   38.64    2.95   1
   3  -5   0   49.34    3.05   1
   3  -5   0   49.61    3.78   1
   3  -5   0   43.17    3.26   1
   3  -5   1    2.35    0.95   1
   3  -5   1    1.59    1.17   1
   3  -5   1    0.11    0.86   1
   3  -5   1    0.96    1.07   1
   3  -5   2   14.13    1.80   1
   3  -5   2   14.54    2.21   1
   3  -5   2   13.38    2.27   1
   3  -5   2   20.30    2.15   1
   3  -5   3   15.47    2.63   1
   3  -5   3   21.35    2.77   1
   3  -5   3   27.32    3.16   1
   3  -5   4    3.02    1.96   1
   3  -5   4   -0.54    1.50   1
   3  -5   4    1.61    1.40   1
   3  -5   5   14.42    2.69   1
   3  -5   5   19.96    3.51   1
   3  -5   5   19.18    2.92   1
   3  -5   6    4.64    1.93   1
   3  -5   6    0.22    1.74   1
   3  -5   7   16.85    3.92   1
   3  -5   8    0.76    2.26   1
   3  -4  -2   17.35    1.47   1
   3  -4  -2   17.12    1.45   1
   3  -4  -2   20.05    1.49   1
   3  -4  -2   15.06    1.28   1
   3  -4  -1   49.87    3.07   1
   3  -4  -1   36.36    2.74   1
   3  -4  -1   46.58    3.25   1
   3  -4  -1   38.00    2.93   1
   3  -4   0   33.70    2.64   1
   3  -4   0   23.49    1.91   1
   3  -4   0   29.74    2.37   1
   3  -4   0   26.61    2.24   1
   3  -4   1   73.71    4.44   1
   3  -4   1   63.26    4.31   1
   3  -4   1   65.48    5.22   1
   3  -4   1   67.13    4.74   1
   3  -4   2   31.95    3.04   1
   3  -4   2   39.12    3.26   1
   3  -4   2   38.95    3.35   1
   3  -4   2   38.11    2.83   1
   3  -4   3   12.12    1.95   1
   3  -4   3   18.21    1.87   1
   3  -4   3   19.46    2.46   1
   3  -4   3   17.08    2.05   1
   3  -4   3   15.39    2.20   1
   3  -4   4    9.75    1.82   1
   3  -4   4    7.45    1.64   1
   3  -4   4    6.83    1.63   1
   3  -4   4    8.56    1.94   1
   3  -4   5    1.59    1.49   1
   3  -4   5   -0.43    1.30   1
   3  -4   5    0.00    1.08   1
   3  -4   5   -0.55    1.74   1
   3  -4   6    2.49    1.60   1
   3  -4   6    3.89    2.25   1
   3  -4   6    2.12    1.81   1
   3  -4   7   13.60    2.75   1
   3  -4   7    5.68    2.27   1
   3  -4   8    5.37    2.69   1
   3  -4   8    5.11    2.40   1
   3  -4   9   14.95    3.44   1
   3  -4   9    9.43    2.68   1
   3  -3  -3    8.86    0.62   1
   3  -3  -3   10.66    0.74   1
   3  -3  -3    9.35    0.63   1
   3  -3  -3    8.80    0.61   1
   3  -3  -2   38.80    2.45   1
   3  -3  -2   45.18    2.67   1
   3  -3  -2   42.69    2.45   1
   3  -3  -1   30.80    2.19   1
   3  -3  -1   35.46    2.35   1
   3  -3   0   43.31    3.27   1
   3  -3   0   46.21    3.80   1
   3  -3   1   35.49    2.71   1
   3  -3   1   36.73    2.76   1
   3  -3   2    9.62    1.48   1
   3  -3   2   11.60    1.27   1
   3  -3   3   64.33    4.48   1
   3  -3   3   51.15    3.26   1
   3  -3   3   55.23    4.30   1
   3  -3   4    6.06    1.53   1
   3  -3   4    7.17    2.05   1
   3  -3   4    8.32    1.61   1
   3  -3   5   11.34    1.82   1
   3  -3   5   14.06    1.94   1
   3  -3   5   17.65    2.43   1
   3  -3   6    5.80    1.30   1
   3  -3   6    4.66    1.76   1
   3  -3   6    6.85    1.84   1
   3  -3   7   24.17    3.46   1
   3  -3   7   16.08    2.33   1
   3  -3   8   19.02    3.17   1
   3  -3   8   14.26    2.81   1
   3  -3   9   -0.22    2.39   1
   3  -3   9    1.59    1.91   1
   3  -3  10    6.32    3.64   1
   3  -3  10    4.86    3.26   1
   3  -2  -4    7.44    0.51   1
   3  -2  -4    8.06    0.53   1
   3  -2  -3   12.64    0.96   1
   3  -2  -3   14.86    0.96   1
   3  -2  -2   25.85    1.80   1
   3  -2  -2   27.89    2.09   1
   3  -2  -1    6.73    0.86   1
   3  -2  -1    6.95    1.10   1
   3  -2   0  225.15   10.92   1
   3  -2   0  214.97   10.37   1
   3  -2   1    2.15    0.85   1
   3  -2   1    2.77    0.65   1
   3  -2   1    1.94    0.75   1
   3  -2   2  368.97   21.13   1
   3  -2   2  300.72   12.58   1
   3  -2   2  396.18   20.66   1
   3  -2   3    0.64    1.17   1
   3  -2   3   -1.40    1.40   1
   3  -2   4   80.24    4.82   1
   3  -2   4  100.10    6.01   1
   3  -2   4   86.32    5.77   1
   3  -2   5    0.22    0.98   1
   3  -2   5   -0.54    1.08   1
   3  -2   6   23.27    2.80   1
   3  -2   6   33.25    3.59   1
   3  -2   7   17.25    2.06   1
   3  -2   7   22.18    3.81   1
   3  -2   7   22.07    3.02   1
   3  -2   8    0.32    1.72   1
   3  -2   8    1.30    1.39   1
   3  -2   9   14.40    3.15   1
   3  -2  10    0.54    2.16   1
   3  -2  10    0.43    2.36   1
   3  -1  -5   18.23    1.14   1
   3  -1  -5   18.49    1.15   1
   3  -1  -4  206.03    8.56   1
   3  -1  -4  268.53   12.00   1
   3  -1  -4  197.54    8.09   1
   3  -1  -3  105.33    5.51   1
   3  -1  -3  117.55    5.37   1
   3  -1  -3  145.92    7.12   1
   3  -1  -2  166.79    7.78   1
   3  -1  -2  157.27    7.03   1
   3  -1  -2  202.68    8.45   1
   3  -1  -1   59.91    3.55   1
   3  -1  -1   61.04    3.75   1
   3  -1  -1   78.99    3.62   1
   3  -1   0   94.80    5.07   1
   3  -1   0  100.99    5.86   1
   3  -1   0  103.81    5.49   1
   3  -1   1  242.98   12.34   1
   3  -1   1  268.21   12.34   1
   3  -1   1  245.55   11.42   1
   3  -1   2   15.10    1.59   1
   3  -1   2   17.05    1.81   1
   3  -1   2   15.78    1.74   1
   3  -1   3  185.78   10.24   1
   3  -1   3  133.47    7.16   1
   3  -1   3  205.25   11.59   1
   3  -1   3  184.65    9.36   1
   3  -1   4   11.70    1.81   1
   3  -1   4    9.26    1.97   1
   3  -1   4    9.83    1.69   1
   3  -1   4   13.39    2.06   1
   3  -1   5  143.69    9.75   1
   3  -1   5  108.18    6.68   1
   3  -1   5  141.72    8.00   1
   3  -1   6   12.54    2.27   1
   3  -1   6   11.09    1.52   1
   3  -1   6   13.42    2.60   1
   3  -1   7   23.33    2.92   1
   3  -1   7   19.76    2.39   1
   3  -1   7   18.52    2.14   1
   3  -1   8    2.78    1.93   1
   3  -1   9   -1.70    2.68   1
   3  -1  10    1.60    2.46   1
   3   0  -7   95.77    6.72   1
   3   0  -7   80.50    4.62   1
   3   0  -6    1.97    1.00   1
   3   0  -6    1.28    0.63   1
   3   0  -6    2.23    0.64   1
   3   0  -5  296.93   13.46   1
   3   0  -5  467.19   20.53   1
   3   0  -5  293.76   12.34   1
   3   0  -4   39.40    2.20   1
   3   0  -4   33.20    2.02   1
   3   0  -4   64.08    4.10   1
   3   0  -3  318.43   13.05   1
   3   0  -3  199.89    8.17   1
   3   0  -3  184.19    8.96   1
   3   0  -2   29.34    2.67   1
   3   0  -2   16.86    1.62   1
   3   0  -2   16.77    1.53   1
   3   0  -1  264.16   11.58   1
   3   0  -1  191.41    9.22   1
   3   0  -1  193.13    8.97   1
   3   0   0  193.00    9.55   1
   3   0   0  196.49    9.93   1
   3   0   0  271.12   12.18   1
   3   0   1    7.48    1.42   1
   3   0   1   11.60    1.55   1
   3   0   1    8.01    1.18   1
   3   0   2  131.45    7.41   1
   3   0   2  161.93    9.30   1
   3   0   2  117.50    7.46   1
   3   0   3    3.54    1.52   1
   3   0   3    5.00    1.22   1
   3   0   3    5.70    1.27   1
   3   0   3    6.24    1.62   1
   3   0   4   51.82    4.37   1
   3   0   4   56.44    4.87   1
   3   0   4   47.88    3.86   1
   3   0   4   74.00    4.74   1
   3   0   5   13.24    1.73   1
   3   0   5   17.02    2.13   1
   3   0   5   23.73    2.95   1
   3   0   5   25.14    2.65   1
   3   0   6   17.42    2.88   1
   3   0   6   15.84    2.47   1
   3   0   6   11.77    2.27   1
   3   0   6   19.32    2.59   1
   3   0   7   30.09    4.25   1
   3   0   7   33.28    3.27   1
   3   0   7   27.69    3.70   1
   3   0   7   26.16    3.49   1
   3   0   8   -0.76    1.83   1
   3   0   9    2.88    2.77   1
   3   0   9    5.37    2.45   1
   3   0  10    2.48    3.22   1
   3   1  -8   15.85    2.00   1
   3   1  -8    9.41    1.58   1
   3   1  -7    2.95    1.06   1
   3   1  -7    4.32    1.28   1
   3   1  -7    3.10    1.00   1
   3   1  -6   51.40    3.54   1
   3   1  -6   97.75    6.31   1
   3   1  -6   47.50    3.83   1
   3   1  -5  106.89    7.07   1
   3   1  -5   52.71    3.14   1
   3   1  -5   55.13    3.66   1
   3   1  -4   89.90    4.69   1
   3   1  -4  153.60    9.36   1
   3   1  -4   94.64    4.61   1
   3   1  -3  147.17   10.30   1
   3   1  -3   86.43    4.41   1
   3   1  -3  100.37    4.75   1
   3   1  -2  199.32    9.94   1
   3   1  -2  314.45   17.39   1
   3   1  -2  209.06    8.98   1
   3   1  -1   60.96    2.74   1
   3   1  -1   97.62    7.33   1
   3   1  -1   68.02    3.60   1
   3   1  -1   67.68    3.76   1
   3   1   0   29.61    2.27   1
   3   1   0   32.16    2.01   1
   3   1   0   39.35    3.99   1
   3   1   1   38.56    3.81   1
   3   1   1   29.09    2.47   1
   3   1   1   29.55    2.15   1
   3   1   2   42.20    3.35   1
   3   1   2   68.13    6.50   1
   3   1   2   47.22    3.43   1
   3   1   2   52.06    3.31   1
   3   1   3   10.77    1.85   1
   3   1   3   11.56    1.62   1
   3   1   3   12.84    1.42   1
   3   1   3   11.32    1.97   1
   3   1   4   65.26    4.84   1
   3   1   4   91.38    6.19   1
   3   1   4  137.33    8.54   1
   3   1   4   90.59    6.96   1
   3   1   5   31.37    3.01   1
   3   1   5   45.69    3.88   1
   3   1   5   25.94    2.53   1
   3   1   5   34.45    3.56   1
   3   1   6  128.56    7.18   1
   3   1   6   79.48    6.63   1
   3   1   6  107.75    8.04   1
   3   1   6   82.49    6.76   1
   3   1   7    0.42    2.45   1
   3   1   7   -0.32    1.61   1
   3   1   7    2.64    1.88   1
   3   1   8   13.93    3.01   1
   3   1   8   11.21    2.70   1
   3   1   9   -0.96    2.03   1
   3   1   9    2.47    3.22   1
   3   1  10   12.00    3.01   1
   3   2  -9   27.55    2.87   1
   3   2  -8    1.38    1.16   1
   3   2  -8    1.06    1.59   1
   3   2  -8    2.37    0.78   1
   3   2  -7   72.66    5.14   1
   3   2  -7   34.27    3.37   1
   3   2  -7   31.55    3.24   1
   3   2  -6    1.90    1.16   1
   3   2  -6    0.96    1.27   1
   3   2  -6    4.71    1.26   1
   3   2  -5   15.21    1.61   1
   3   2  -5   22.14    3.03   1
   3   2  -5   16.27    1.66   1
   3   2  -4   54.25    3.79   1
   3   2  -4  100.89    6.04   1
   3   2  -4   52.75    3.44   1
   3   2  -3    1.29    0.87   1
   3   2  -3    1.94    1.94   1
   3   2  -3    1.06    1.17   1
   3   2  -2  181.07    8.91   1
   3   2  -2  186.97    7.92   1
   3   2  -2  277.09   12.85   1
   3   2  -2  181.45    9.18   1
   3   2  -1    0.85    1.07   1
   3   2  -1    0.12    2.11   1
   3   2  -1    0.63    0.74   1
   3   2  -1    0.43    0.85   1
   3   2   0  556.75   20.33   1
   3   2   0  363.40   17.90   1
   3   2   0  373.45   15.73   1
   3   2   0  333.22   14.35   1
   3   2   1   17.83    2.03   1
   3   2   1   30.19    2.72   1
   3   2   1   17.39    2.09   1
   3   2   2   98.61    5.59   1
   3   2   2  146.40    8.60   1
   3   2   2   90.69    6.16   1
   3   2   2   87.60    4.64   1
   3   2   3    8.20    1.62   1
   3   2   3    7.22    1.63   1
   3   2   3    8.87    2.18   1
   3   2   3    7.04    1.81   1
   3   2   4   30.18    3.06   1
   3   2   4   50.04    4.89   1
   3   2   4   33.18    3.49   1
   3   2   5   86.78    6.23   1
   3   2   5   63.96    4.86   1
   3   2   5   58.29    4.73   1
   3   2   6   -0.54    1.61   1
   3   2   6    1.39    2.24   1
   3   2   6   -1.33    1.64   1
   3   2   6   -0.34    1.14   1
   3   2   7   27.99    3.72   1
   3   2   7   31.01    4.37   1
   3   2   8    0.00    1.07   1
   3   2   8    0.96    2.03   1
   3   2   9   13.93    3.63   1
   3   3  -9    1.61    1.61   1
   3   3  -8   28.39    2.62   1
   3   3  -8   20.04    2.67   1
   3   3  -7    9.24    2.27   1
   3   3  -7    7.00    1.58   1
   3   3  -6   47.79    4.12   1
   3   3  -6   31.61    2.89   1
   3   3  -6   28.56    3.08   1
   3   3  -5  140.30    9.05   1
   3   3  -5   87.31    5.97   1
   3   3  -5   75.41    5.55   1
   3   3  -4    2.33    1.38   1
   3   3  -4    3.92    1.68   1
   3   3  -4    2.65    1.18   1
   3   3  -3  119.00    6.75   1
   3   3  -3  184.21   10.05   1
   3   3  -3  128.89    7.73   1
   3   3  -2   10.61    1.62   1
   3   3  -2   16.96    2.27   1
   3   3  -2   13.71    1.84   1
   3   3  -2   13.13    1.57   1
   3   3  -1  211.33   12.66   1
   3   3  -1  331.90   14.70   1
   3   3  -1  249.41   10.81   1
   3   3  -1  221.48    9.84   1
   3   3   0   11.02    1.73   1
   3   3   0   12.89    2.09   1
   3   3   0   12.96    1.49   1
   3   3   0   19.06    2.41   1
   3   3   1   86.02    5.42   1
   3   3   1  133.47    8.10   1
   3   3   1   95.97    6.13   1
   3   3   2   20.96    2.53   1
   3   3   2   12.93    2.11   1
   3   3   2   10.30    1.74   1
   3   3   3   74.76    6.28   1
   3   3   3   76.39    5.50   1
   3   3   3   63.99    4.46   1
   3   3   4   53.79    4.56   1
   3   3   4   39.40    3.44   1
   3   3   4   32.60    2.95   1
   3   3   5   10.26    2.45   1
   3   3   5    6.34    2.23   1
   3   3   6    8.13    2.48   1
   3   3   6   15.74    2.76   1
   3   3   7   -1.39    2.68   1
   3   3   8    5.90    2.46   1
   3   4  -8    2.75    2.53   1
   3   4  -7   72.56    5.97   1
   3   4  -7   95.32    6.19   1
   3   4  -6   33.73    3.19   1
   3   4  -6   21.80    2.89   1
   3   4  -5   25.67    2.72   1
   3   4  -5   36.56    3.57   1
   3   4  -4   12.24    1.81   1
   3   4  -4   13.16    2.22   1
   3   4  -3    6.30    1.30   1
   3   4  -3    8.90    2.33   1
   3   4  -3    8.30    1.61   1
   3   4  -2   85.09    6.43   1
   3   4  -2   60.69    5.00   1
   3   4  -2   75.54    5.40   1
   3   4  -2   78.14    5.29   1
   3   4  -1    9.29    1.95   1
   3   4  -1    3.97    2.56   1
   3   4  -1   10.88    2.05   1
   3   4   0   70.49    4.89   1
   3   4   0   75.00    4.66   1
   3   4   1    5.74    1.40   1
   3   4   1    7.55    1.43   1
   3   4   2   35.77    3.25   1
   3   4   3    3.53    1.51   1
   3   4   3    5.36    1.65   1
   3   4   4    6.37    2.03   1
   3   4   4    5.21    2.22   1
   3   4   5   10.60    2.69   1
   3   4   6    1.92    2.78   1
   3   4   7    2.57    2.25   1
   3   5  -6    6.50    2.26   1
   3   5  -5   19.92    2.95   1
   3   5  -4   13.70    2.45   1
   3   5  -3   25.21    3.11   1
   3   5  -3   22.56    3.14   1
   3   5  -2    1.80    1.50   1
   3   5  -2   -0.97    1.29   1
   3   5  -1   10.91    1.92   1
   3   5  -1   11.22    2.15   1
   3   5   0   14.67    2.14   1
   3   5   0   19.88    2.42   1
   3   5   1    0.22    1.30   1
   3   5   1   -1.51    1.95   1
   3   5   2   24.92    3.10   1
   3   5   2   14.36    2.61   1
   3   5   5    0.97    1.93   1
   3   5   6    0.85    2.14   1
   3   6  -3    0.63    1.91   1
   3   6  -2   23.02    3.27   1
   3   6  -1   18.98    2.98   1
   3   6   0   12.78    2.67   1
   3   6   1    8.73    2.45   1
   3   6   2   10.30    2.59   1
   3   6   3   20.97    3.88   1
   3   6   4   -2.25    2.23   1
   3   7  -2    3.43    2.26   1
   3   7  -1    6.13    2.67   1
   3   7   0    0.43    2.36   1
   3   7   1    6.98    2.90   1
   4  -6   0    6.30    1.92   1
   4  -6   1   -0.11    1.42   1
   4  -6   1   -0.64    2.03   1
   4  -6   2   10.70    2.51   1
   4  -6   2   10.17    2.25   1
   4  -6   3   -1.51    1.62   1
   4  -6   3   -0.64    2.70   1
   4  -6   4   19.74    3.17   1
   4  -6   4   24.04    3.60   1
   4  -6   5    1.63    2.30   1
   4  -5  -2   38.42    2.94   1
   4  -5  -2   39.05    2.70   1
   4  -5  -2   45.74    3.09   1
   4  -5  -1   20.30    2.23   1
   4  -5  -1   24.63    2.27   1
   4  -5  -1   20.67    2.07   1
   4  -5   0   13.53    1.91   1
   4  -5   0   12.93    1.94   1
   4  -5   0    9.47    1.72   1
   4  -5   1   15.11    1.94   1
   4  -5   1   14.08    2.72   1
   4  -5   1   14.40    2.05   1
   4  -5   2    8.87    1.74   1
   4  -5   2    7.10    2.17   1
   4  -5   2   10.90    2.05   1
   4  -5   3   23.23    2.79   1
   4  -5   3   25.90    3.41   1
   4  -5   3   19.60    3.24   1
   4  -5   4   -1.73    1.51   1
   4  -5   4    1.09    2.29   1
   4  -5   5    8.93    2.50   1
   4  -5   6    1.09    2.18   1
   4  -5   7    8.13    3.15   1
   4  -4  -3   94.44    4.60   1
   4  -4  -3  101.26    4.58   1
   4  -4  -3   94.79    4.61   1
   4  -4  -3  101.26    5.00   1
   4  -4  -2   11.45    1.26   1
   4  -4  -2   15.34    1.38   1
   4  -4  -2   12.52    1.32   1
   4  -4  -2   13.68    1.54   1
   4  -4  -1   57.38    3.78   1
   4  -4  -1   49.92    3.53   1
   4  -4  -1   43.18    3.82   1
   4  -4  -1   47.39    3.43   1
   4  -4   0    7.47    1.65   1
   4  -4   0    2.60    1.21   1
   4  -4   0    4.66    1.08   1
   4  -4   1    8.11    2.07   1
   4  -4   1    6.38    1.52   1
   4  -4   1    7.15    1.35   1
   4  -4   2   11.86    1.93   1
   4  -4   2   10.95    2.13   1
   4  -4   2    9.85    1.84   1
   4  -4   3    1.18    2.05   1
   4  -4   3    1.85    1.31   1
   4  -4   4   11.98    2.36   1
   4  -4   4   18.74    2.87   1
   4  -4   4   24.62    2.80   1
   4  -4   5    8.70    2.71   1
   4  -4   6    9.74    2.60   1
   4  -4   7    3.46    2.59   1
   4  -4   8    2.50    2.82   1
   4  -3  -4   16.91    0.93   1
   4  -3  -4   16.58    1.09   1
   4  -3  -4   16.15    0.99   1
   4  -3  -4   15.84    0.99   1
   4  -3  -3   28.66    2.00   1
   4  -3  -3   36.20    1.87   1
   4  -3  -2   11.91    1.51   1
   4  -3  -2   10.58    1.28   1
   4  -3  -1  117.70    7.67   1
   4  -3  -1  117.71    6.09   1
   4  -3   0    8.78    1.72   1
   4  -3   0    9.86    1.50   1
   4  -3   1   62.64    4.77   1
   4  -3   1   68.19    4.81   1
   4  -3   2    6.08    1.95   1
   4  -3   2    4.12    1.52   1
   4  -3   3   26.68    2.88   1
   4  -3   3   34.53    3.79   1
   4  -3   4    7.06    1.48   1
   4  -3   4    9.28    2.41   1
   4  -3   5    2.68    1.59   1
   4  -3   5    4.11    1.85   1
   4  -3   8   24.13    4.50   1
   4  -2  -5   26.03    1.57   1
   4  -2  -5   27.73    1.73   1
   4  -2  -4   41.88    2.67   1
   4  -2  -4   45.71    2.37   1
   4  -2  -3   39.81    2.35   1
   4  -2  -3   40.59    2.64   1
   4  -2  -2  152.17    7.69   1
   4  -2  -2  143.33    7.46   1
   4  -2  -1    3.12    1.17   1
   4  -2  -1    2.05    0.98   1
   4  -2  -1    4.08    1.37   1
   4  -2   0  120.91    7.31   1
   4  -2   0  117.96    6.10   1
   4  -2   0  114.64    6.84   1
   4  -2   1    2.02    1.12   1
   4  -2   1    1.51    1.51   1
   4  -2   1   -0.64    0.87   1
   4  -2   2  148.48    9.65   1
   4  -2   2  126.60    6.51   1
   4  -2   2  165.42    9.11   1
   4  -2   3   14.79    2.72   1
   4  -2   3   13.41    1.52   1
   4  -2   4   40.62    4.51   1
   4  -2   5    2.38    1.83   1
   4  -2   7    9.06    2.81   1
   4  -2   8    2.36    2.04   1
   4  -2   9    3.33    3.33   1
   4  -1  -7    3.91    0.86   1
   4  -1  -7    2.96    0.74   1
   4  -1  -6   76.61    4.32   1
   4  -1  -6   75.36    4.29   1
   4  -1  -5    1.79    0.63   1
   4  -1  -5    3.29    1.44   1
   4  -1  -5    1.79    0.85   1
   4  -1  -4   69.61    4.65   1
   4  -1  -4   86.37    5.49   1
   4  -1  -4   69.08    3.94   1
   4  -1  -3   99.01    5.57   1
   4  -1  -3  119.94    6.07   1
   4  -1  -3  105.92    5.55   1
   4  -1  -2   -0.33    0.76   1
   4  -1  -2    0.00    1.16   1
   4  -1  -2    0.22    1.09   1
   4  -1  -1  158.53    8.39   1
   4  -1  -1  193.56    9.39   1
   4  -1  -1  155.67    9.09   1
   4  -1   0    5.16    1.51   1
   4  -1   0    3.76    1.09   1
   4  -1   0    6.85    1.76   1
   4  -1   1  256.23   12.73   1
   4  -1   1  184.73    7.86   1
   4  -1   1  238.88   13.16   1
   4  -1   1  236.33   12.14   1
   4  -1   2   -0.43    1.63   1
   4  -1   2   -0.33    1.09   1
   4  -1   2   -1.14    1.37   1
   4  -1   3   54.74    4.86   1
   4  -1   3   50.31    4.44   1
   4  -1   4   -0.23    1.79   1
   4  -1   4    0.43    1.30   1
   4  -1   5    7.18    1.75   1
   4  -1   5    8.16    2.20   1
   4  -1   5   10.93    2.26   1
   4  -1   6    5.48    1.94   1
   4  -1   7   -2.25    1.83   1
   4  -1   8    4.16    2.45   1
   4  -1   9   -0.32    3.34   1
   4   0  -8    8.91    1.72   1
   4   0  -8    8.67    1.58   1
   4   0  -8   10.79    1.71   1
   4   0  -7   49.34    3.61   1
   4   0  -7   53.46    3.76   1
   4   0  -7   69.47    5.23   1
   4   0  -6   11.72    1.62   1
   4   0  -6   14.87    1.59   1
   4   0  -6   18.14    2.25   1
   4   0  -5  154.96    8.45   1
   4   0  -5  160.11    8.07   1
   4   0  -5  244.14   13.26   1
   4   0  -4   65.04    4.32   1
   4   0  -4   60.15    4.32   1
   4   0  -4   95.82    6.05   1
   4   0  -3   58.35    4.11   1
   4   0  -3   62.70    3.61   1
   4   0  -3   94.78    7.05   1
   4   0  -2   12.62    1.48   1
   4   0  -2   11.45    1.81   1
   4   0  -2   11.11    1.59   1
   4   0  -1    9.30    1.40   1
   4   0  -1    7.04    1.49   1
   4   0  -1   10.75    1.76   1
   4   0   0   21.97    2.63   1
   4   0   0   26.04    2.44   1
   4   0   0   39.69    3.68   1
   4   0   1   29.73    3.28   1
   4   0   1   48.43    4.34   1
   4   0   1   34.19    3.03   1
   4   0   2   43.03    3.81   1
   4   0   2   35.00    3.81   1
   4   0   2   49.60    4.66   1
   4   0   3   76.86    5.96   1
   4   0   3   51.42    4.78   1
   4   0   4   23.44    3.03   1
   4   0   4   26.50    3.26   1
   4   0   5   10.33    2.44   1
   4   0   5    8.59    2.38   1
   4   0   5    6.85    1.95   1
   4   0   6    7.57    2.22   1
   4   0   7    7.68    2.98   1
   4   0   8    0.63    2.24   1
   4   0   9    1.30    2.36   1
   4   1  -9   -0.96    1.49   1
   4   1  -9    0.22    0.99   1
   4   1  -8   32.05    2.97   1
   4   1  -8   14.72    2.37   1
   4   1  -8   18.39    2.29   1
   4   1  -7    2.22    0.86   1
   4   1  -7    3.00    1.35   1
   4   1  -7    0.63    0.85   1
   4   1  -6   70.94    6.24   1
   4   1  -6   38.33    3.44   1
   4   1  -6   43.59    3.26   1
   4   1  -5   30.78    2.86   1
   4   1  -5   42.15    4.27   1
   4   1  -5   32.88    2.83   1
   4   1  -4   12.76    2.28   1
   4   1  -4    6.81    1.51   1
   4   1  -4    9.38    1.71   1
   4   1  -3   48.02    3.73   1
   4   1  -3   98.76    5.76   1
   4   1  -3   49.91    4.09   1
   4   1  -2    0.33    0.97   1
   4   1  -2    0.97    0.96   1
   4   1  -2    0.58    0.94   1
   4   1  -1   62.00    4.43   1
   4   1  -1   61.23    3.08   1
   4   1  -1  102.59    7.22   1
   4   1  -1   56.54    4.07   1
   4   1   0    3.24    1.42   1
   4   1   0    5.82    1.30   1
   4   1   0    6.40    0.84   1
   4   1   0   13.85    2.09   1
   4   1   1   60.48    5.03   1
   4   1   1   47.78    4.17   1
   4   1   1   40.73    3.98   1
   4   1   2   65.53    5.92   1
   4   1   2   40.20    3.82   1
   4   1   3    0.68    1.25   1
   4   1   3    3.66    1.51   1
   4   1   4   38.46    3.95   1
   4   1   4   26.38    2.76   1
   4   1   4   30.03    3.54   1
   4   1   5    6.00    1.82   1
   4   1   5    8.59    2.20   1
   4   1   6   39.87    4.05   1
   4   1   7    0.22    1.93   1
   4   1   8    5.90    2.56   1
   4   2  -9    8.59    2.23   1
   4   2  -9    6.63    1.90   1
   4   2  -8    3.50    1.93   1
   4   2  -8    5.92    1.34   1
   4   2  -7    3.06    1.58   1
   4   2  -7    5.95    1.91   1
   4   2  -7    3.03    1.48   1
   4   2  -6   50.56    4.39   1
   4   2  -6   49.84    3.92   1
   4   2  -6   85.69    5.95   1
   4   2  -5    7.85    1.67   1
   4   2  -5   18.39    2.41   1
   4   2  -5    7.34    1.78   1
   4   2  -4  120.42    8.60   1
   4   2  -4  137.76    8.72   1
   4   2  -4  215.56   11.47   1
   4   2  -3    2.56    2.11   1
   4   2  -3   -0.54    1.50   1
   4   2  -3    0.85    1.07   1
   4   2  -2   93.85    6.49   1
   4   2  -2   62.82    4.44   1
   4   2  -2   58.61    4.76   1
   4   2  -1   -0.12    1.43   1
   4   2  -1    0.11    1.10   1
   4   2  -1    0.55    1.53   1
   4   2  -1   -0.22    0.86   1
   4   2   0   99.99    6.51   1
   4   2   0   63.35    3.62   1
   4   2   0   65.51    5.06   1
   4   2   0   72.79    5.15   1
   4   2   1   46.63    3.84   1
   4   2   1   68.39    6.30   1
   4   2   2   11.74    1.86   1
   4   2   2   17.31    2.71   1
   4   2   3   24.12    3.27   1
   4   2   4   19.72    2.84   1
   4   2   4   23.80    3.46   1
   4   2   5   27.00    3.44   1
   4   2   6    2.87    1.93   1
   4   2   7    5.89    2.66   1
   4   2   8    2.34    3.51   1
   4   3  -9    2.45    2.64   1
   4   3  -8   11.32    2.35   1
   4   3  -8   20.99    2.46   1
   4   3  -7    5.08    1.72   1
   4   3  -7    8.00    1.82   1
   4   3  -6   15.05    2.41   1
   4   3  -6    9.05    1.92   1
   4   3  -5   70.01    5.92   1
   4   3  -5   56.27    4.64   1
   4   3  -4    2.66    1.48   1
   4   3  -3   68.05    5.29   1
   4   3  -2   -0.32    0.75   1
   4   3  -2    0.54    1.19   1
   4   3  -1  122.17    7.82   1
   4   3  -1  124.99    7.39   1
   4   3   0    2.07    1.41   1
   4   3   0    2.66    1.08   1
   4   3   1   21.96    2.42   1
   4   3   1   23.00    3.00   1
   4   3   2   -0.65    1.85   1
   4   3   3    3.51    2.32   1
   4   3   5    0.00    1.07   1
   4   3   6   10.13    2.96   1
   4   3   7    0.75    2.24   1
   4   4  -7   20.19    4.35   1
   4   4  -6   21.44    3.63   1
   4   4  -5    2.97    1.71   1
   4   4  -4   14.99    2.48   1
   4   4  -3    5.66    2.36   1
   4   4  -2   20.42    2.72   1
   4   4  -2   18.04    2.37   1
   4   4  -1    4.11    1.60   1
   4   4  -1    3.08    1.71   1
   4   4   0    5.64    2.08   1
   4   4   0    6.50    1.47   1
   4   4   1   11.32    2.01   1
   4   4   1    8.35    2.29   1
   4   4   2    2.56    2.01   1
   4   5  -2    8.68    2.44   1
   4   5  -1   12.05    2.65   1
   4   5   0   13.97    2.47   1
   4   5   1    0.42    2.12   1
   4   5   2    3.18    2.02   1
   4   5   3    3.92    2.78   1
   4   5   4   12.37    2.98   1
   4   6  -2   10.68    3.11   1
   4   6  -1    7.27    2.79   1
   4   6   0    0.42    2.66   1
   4   6   1    6.92    3.31   1
   4   6   2    3.07    2.53   1
   5  -6   2    1.73    1.73   1
   5  -5  -1    2.14    1.40   1
   5  -5   0    0.00    1.08   1
   5  -5   0    0.22    1.09   1
   5  -5   1    4.46    2.17   1
   5  -5   1    4.24    1.64   1
   5  -5   2    0.34    2.34   1
   5  -5   2   -1.11    1.55   1
   5  -5   3   12.08    3.00   1
   5  -5   3    9.66    2.75   1
   5  -5   4   -0.56    1.88   1
   5  -5   5    7.06    3.29   1
   5  -4  -3   14.10    1.48   1
   5  -4  -3   11.38    1.40   1
   5  -4  -2    6.66    1.50   1
   5  -4  -2    6.71    1.29   1
   5  -4  -1    3.75    1.81   1
   5  -4  -1    5.68    1.44   1
   5  -4   0    6.27    2.03   1
   5  -4   1    2.06    2.18   1
   5  -4   2    3.02    1.84   1
   5  -4   6    5.61    3.82   1
   5  -3  -4   14.28    1.56   1
   5  -3  -3   10.11    1.58   1
   5  -3  -3   11.40    1.61   1
   5  -3  -2    7.72    1.50   1
   5  -3  -2   12.14    1.95   1
   5  -3  -1   11.40    2.03   1
   5  -3  -1    9.21    1.63   1
   5  -3   0    0.54    1.30   1
   5  -3   0   -0.33    1.41   1
   5  -3   1    5.51    1.71   1
   5  -3   2   -1.41    2.17   1
   5  -3   3   18.66    3.06   1
   5  -2  -6    3.39    0.83   1
   5  -2  -5    1.38    0.85   1
   5  -2  -5    0.96    0.85   1
   5  -2  -4   19.85    2.03   1
   5  -2  -4   17.53    1.90   1
   5  -2  -3    6.44    1.16   1
   5  -2  -3    5.78    1.59   1
   5  -2  -2   87.81    6.42   1
   5  -2  -2   89.96    6.50   1
   5  -2  -1    4.82    1.27   1
   5  -2  -1    3.21    1.48   1
   5  -2   0   33.36    3.23   1
   5  -2   0   23.67    3.02   1
   5  -2   1   16.85    2.98   1
   5  -2   2   20.91    3.23   1
   5  -2   3    1.31    1.62   1
   5  -1  -7    4.32    1.28   1
   5  -1  -6   15.11    1.76   1
   5  -1  -6   13.25    1.87   1
   5  -1  -5    3.40    1.18   1
   5  -1  -5    2.55    1.19   1
   5  -1  -4   32.34    2.94   1
   5  -1  -4   33.42    3.11   1
   5  -1  -3   18.25    2.21   1
   5  -1  -3   17.37    2.25   1
   5  -1  -2    0.97    0.96   1
   5  -1  -2    1.60    1.08   1
   5  -1  -1    8.92    1.92   1
   5  -1  -1    8.25    2.15   1
   5  -1   0    2.34    1.27   1
   5  -1   0    0.97    1.28   1
   5  -1   1   36.16    3.98   1
   5  -1   2    0.76    1.41   1
   5  -1   3   14.46    3.00   1
   5   0  -8   -0.32    1.28   1
   5   0  -7   12.17    2.01   1
   5   0  -7   13.12    1.71   1
   5   0  -6   -1.68    1.25   1
   5   0  -6    0.32    1.39   1
   5   0  -5   11.30    2.01   1
   5   0  -5    8.63    1.58   1
   5   0  -4    4.15    1.39   1
   5   0  -4    3.09    1.60   1
   5   0  -3    0.54    1.51   1
   5   0  -3   -0.85    1.07   1
   5   0  -2    8.22    1.73   1
   5   0  -2   11.89    2.29   1
   5   0  -1   -0.55    1.09   1
   5   0  -1    1.61    1.82   1
   5   0   0   17.15    2.23   1
   5   0   1   -0.22    1.83   1
   5   0   2   16.90    2.90   1
   5   0   3    2.14    1.94   1
   5   1  -9    2.44    1.29   1
   5   1  -8    3.17    1.90   1
   5   1  -7    2.11    1.16   1
   5   1  -7    4.24    2.20   1
   5   1  -6   13.13    2.24   1
   5   1  -6   12.54    2.26   1
   5   1  -5    7.64    1.48   1
   5   1  -5    4.78    1.58   1
   5   1  -4    8.03    1.82   1
   5   1  -4   10.14    1.71   1
   5   1  -3    1.82    1.71   1
   5   1  -3    2.48    1.50   1
   5   1  -2   -0.22    1.74   1
   5   1  -1    1.19    1.18   1
   5   1   0    6.59    0.74   1
   5   1   0    4.40    2.05   1
   5   1   1   19.06    1.98   1
   5   1   1   22.30    3.23   1
   5   1   2   26.71    3.85   1
   5   2  -9    5.60    2.00   1
   5   2  -8    4.03    2.56   1
   5   2  -7    1.79    2.01   1
   5   2  -6    5.61    1.90   1
   5   2  -5    4.04    2.12   1
   5   2  -4   33.17    3.69   1
   5   2  -3    1.40    1.40   1
   5   2  -2   20.55    2.83   1
   5   2  -1    8.10    1.41   1
   5   2  -1    5.83    1.86   1
   5   2   0   26.39    3.53   1
   5   2   0   24.12    2.43   1
   5   2   1    0.11    1.53   1
   5   2   1    1.68    1.15   1
   5   2   2    4.55    1.49   1
   5   3  -7    3.91    1.92   1
   5   3  -6   12.71    2.65   1
   5   3  -5   20.33    2.98   1
   5   3  -4    5.36    1.82   1
   5   3  -3    4.83    1.60   1
   5   3  -2    4.42    1.75   1
   5   3  -1   12.89    2.39   1
   5   3  -1   14.14    2.09   1
   5   3   0   -0.53    0.96   1
   5   3   1    6.06    1.93   1
   5   3   2   -0.11    1.07   1
   5   4  -1    1.68    1.26   1
   5   4   0   10.72    2.23   1
   5   4   1   -0.96    2.02   1
   5   4   2    0.32    1.60   1
   5   4   3    0.00    1.06   1
   5   5  -2    2.02    1.70   1
   5   5  -1    7.12    2.25   1
   5   5   0    7.85    2.89   1
   5   5   1    2.45    2.13   1
   6  -3  -1    4.06    1.83   1
   6  -3   0    1.92    2.35   1
   6  -2  -3   26.53    3.20   1
   6  -2  -2    7.08    2.37   1
   6  -2  -1    6.63    2.45   1
   6  -2   0    6.41    2.14   1
   6  -1  -5    0.11    1.62   1
   6  -1  -4   16.44    2.85   1
   6  -1  -3   10.73    2.72   1
   6  -1  -2   12.51    2.35   1
   6  -1  -1    8.88    2.65   1
   6  -1   0   12.05    3.01   1
   6   0  -6    2.55    1.38   1
   6   0  -5   14.30    2.66   1
   6   0  -4    0.85    2.02   1
   6   0  -3    4.92    1.84   1
   6   0  -2    4.32    1.64   1
   6   0  -1    1.07    1.61   1
   6   1  -7    2.33    1.70   1
   6   1  -6    4.05    1.70   1
   6   1  -5    0.42    2.13   1
   6   1  -4    6.86    2.28   1
   6   1  -3   12.36    2.92   1
   6   1  -2    6.07    2.61   1
   0   0   0    0.00    0.00   0
;
_shelx_hkl_checksum              32800
_shelx_res_file
;
    ethanedisulfonicII.res created by SHELXL-2014/7
TITL Ethane-1,2-Disulfonic acid monohydrate in P-1 at 296(2)K
CELL  0.71073   5.0371   5.5424   8.8188   98.4261  104.5110   91.6629
ZERR    1.000   0.0003   0.0002   0.0004    0.0048    0.0027    0.0032
LATT  1
SFAC C H O S
UNIT 2 10 8 2
TEMP 23
SIZE 0.3 0.12 0.11
L.S. 1
BOND $H
LIST 4
ACTA
rem SHEL 50 0.75
OMIT -4 180
rem OMIT  0   0   1
FMAP 2
HTAB
PLAN 20
EQIV $1 x, y-1, z
EQIV $2 x-1, y, z
EQIV $3 x-1, y-1, z
HTAB O6 O1_$1
HTAB O6 O2_$2
HTAB O6 O3
HTAB O6 O1_$3
CONF
WGHT    0.086900    0.018600
EXTI    0.190783
FVAR       0.72890
O1    3    0.602992    0.988831    0.764173    11.00000    0.04047    0.02641 =
         0.04636   -0.00296    0.01151   -0.00191
O2    3    0.662200    0.576042    0.825179    11.00000    0.04253    0.03955 =
         0.03010    0.00625    0.00590    0.01087
O3    3    0.211909    0.699463    0.708641    11.00000    0.02348    0.04761 =
         0.05378    0.00275    0.01250    0.00090
S4    4    0.504633    0.730869    0.721705    11.00000    0.02286    0.02610 =
         0.02970    0.00135    0.00596    0.00116
C5    1    0.553299    0.632428    0.530152    11.00000    0.02889    0.02974 =
         0.02713    0.00336    0.00586   -0.00250
H5A   2    0.473192    0.749766    0.458853    11.00000    0.04312
H5B   2    0.736582    0.654284    0.526003    11.00000    0.05400
O6    3    0.135976    0.255415    0.844278    11.00000    0.04149    0.04545 =
         0.05347    0.00455    0.00923    0.00461
H61   2    0.318270    0.172659    0.827148    11.00000    0.08265
H62   2    0.113100    0.414769    0.798378    11.00000    0.04926
H63   2   -0.056125    0.172688    0.822158    11.00000    0.05749
HKLF 4
REM  Ethane-1,2-Disulfonic acid monohydrate in P-1 at 296(2)K
REM R1 =  0.0580 for    1192 Fo > 4sig(Fo)  and  0.0888 for all    1708 data
REM     76 parameters refined using      0 restraints
END
WGHT      0.0869      0.0186
REM Instructions for potential hydrogen bonds
EQIV $4 -x+1, -y+2, -z+1
HTAB C5 O1_$4
EQIV $5 x+1, y, z
HTAB C5 O3_$5
HTAB O6 O1_$1
HTAB O6 S4_$1
HTAB O6 O3
HTAB O6 S4
HTAB O6 O1_$3
REM Highest difference peak  0.658,  deepest hole -0.669,  1-sigma level  0.119
Q1    1   0.2064  0.2982  0.9672  11.00000  0.05    0.66
Q2    1   0.5017  0.8889  0.7013  11.00000  0.05    0.53
Q3    1   0.5319  0.5818  0.7570  11.00000  0.05    0.51
Q4    1   0.5650  0.8352  0.7396  11.00000  0.05    0.51
Q5    1   0.7136  0.6210  0.8530  11.00000  0.05    0.49
Q6    1   0.6439  0.9087  0.8194  11.00000  0.05    0.41
Q7    1   0.5362  1.0347  0.7085  11.00000  0.05    0.39
Q8    1   0.5892  0.9008  0.7901  11.00000  0.05    0.38
Q9    1   0.2163  0.8736  0.6856  11.00000  0.05    0.37
Q10   1   0.4872  0.6521  0.5787  11.00000  0.05    0.37
Q11   1   0.5615  0.7934  0.8793  11.00000  0.05    0.36
Q12   1   0.6091  0.6849  0.8063  11.00000  0.05    0.36
Q13   1   0.6633  0.4644  0.8238  11.00000  0.05    0.35
Q14   1   0.5000  0.5000  0.5000  10.50000  0.05    0.31
Q15   1   0.5638  1.1731  0.7315  11.00000  0.05    0.31
Q16   1   0.1517  0.7774  0.6445  11.00000  0.05    0.30
Q17   1   0.3988  1.0308  0.6627  11.00000  0.05    0.30
Q18   1   0.7936  0.8977  0.9007  11.00000  0.05    0.29
Q19   1   0.4841  0.3010  0.7282  11.00000  0.05    0.28
Q20   1   0.7243  0.7725  0.9402  11.00000  0.05    0.27
;
_shelx_res_checksum              46204
loop_
_space_group_symop_operation_xyz
'x, y, z'
'-x, -y, -z'
loop_
_atom_site_type_symbol
_atom_site_label
_atom_site_fract_x
_atom_site_fract_y
_atom_site_fract_z
_atom_site_U_iso_or_equiv
_atom_site_adp_type
_atom_site_calc_flag
_atom_site_occupancy
O O1 0.6030(4) 0.9888(3) 0.7642(2) 0.0387(4) Uani d 1
O O2 0.6622(4) 0.5760(3) 0.8252(2) 0.0378(4) Uani d 1
O O3 0.2119(4) 0.6995(4) 0.7086(3) 0.0417(5) Uani d 1
S S4 0.50463(11) 0.73087(9) 0.72171(6) 0.0267(2) Uani d 1
C C5 0.5533(5) 0.6324(4) 0.5302(3) 0.0290(5) Uani d 1
H H5A 0.473(7) 0.750(6) 0.459(4) 0.043(8) Uiso d 1
H H5B 0.737(7) 0.654(6) 0.526(4) 0.054(9) Uiso d 1
O O6 0.1360(5) 0.2554(4) 0.8443(3) 0.0477(5) Uani d 1
H H61 0.318(10) 0.173(8) 0.827(5) 0.083(13) Uiso d 1
H H62 0.113(7) 0.415(6) 0.798(5) 0.049(9) Uiso d 1
H H63 -0.056(8) 0.173(6) 0.822(5) 0.057(10) Uiso d 1
loop_
_atom_site_aniso_label
_atom_site_aniso_U_11
_atom_site_aniso_U_22
_atom_site_aniso_U_33
_atom_site_aniso_U_12
_atom_site_aniso_U_13
_atom_site_aniso_U_23
O1 0.0405(11) 0.0264(8) 0.0464(10) -0.0019(7) 0.0115(8) -0.0030(7)
O2 0.0425(11) 0.0396(9) 0.0301(8) 0.0109(8) 0.0059(7) 0.0062(7)
O3 0.0235(9) 0.0476(10) 0.0538(11) 0.0009(7) 0.0125(8) 0.0028(8)
S4 0.0229(3) 0.0261(3) 0.0297(3) 0.0012(2) 0.0060(2) 0.0014(2)
C5 0.0289(12) 0.0297(11) 0.0271(10) -0.0025(9) 0.0059(9) 0.0034(8)
O6 0.0415(13) 0.0454(11) 0.0535(12) 0.0046(9) 0.0092(10) 0.0046(9)
loop_
_atom_type_symbol
_atom_type_description
_atom_type_scat_dispersion_real
_atom_type_scat_dispersion_imag
_atom_type_scat_source
C C 0.0033 0.0016 'International Tables Vol C Tables 4.2.6.8 and 6.1.1.4'
H H 0.0000 0.0000 'International Tables Vol C Tables 4.2.6.8 and 6.1.1.4'
O O 0.0106 0.0060 'International Tables Vol C Tables 4.2.6.8 and 6.1.1.4'
S S 0.1246 0.1234 'International Tables Vol C Tables 4.2.6.8 and 6.1.1.4'
loop_
_exptl_crystal_face_index_h
_exptl_crystal_face_index_k
_exptl_crystal_face_index_l
_exptl_crystal_face_perp_dist
-4 -1 16 0.035
1 0 -7 0.082
5 6 4 0.114
-4 -6 -7 0.151
2 0 1 0.107
-2 0 -1 0.032
loop_
_geom_angle_atom_site_label_1
_geom_angle_atom_site_label_2
_geom_angle_atom_site_label_3
_geom_angle_site_symmetry_1
_geom_angle
O2 S4 O3 . 112.00(12)
O2 S4 O1 . 113.45(11)
O3 S4 O1 . 111.31(11)
O2 S4 C5 . 106.21(10)
O3 S4 C5 . 107.20(12)
O1 S4 C5 . 106.16(11)
C5 C5 S4 2_666 111.0(2)
C5 C5 H5A 2_666 114.8(19)
S4 C5 H5A . 109.0(18)
C5 C5 H5B 2_666 110(2)
S4 C5 H5B . 113(2)
H5A C5 H5B . 98(3)
H61 O6 H62 . 111(3)
H61 O6 H63 . 127(3)
H62 O6 H63 . 107(3)
loop_
_geom_bond_atom_site_label_1
_geom_bond_atom_site_label_2
_geom_bond_site_symmetry_2
_geom_bond_distance
O1 S4 . 1.4625(17)
O2 S4 . 1.4509(18)
O3 S4 . 1.4532(19)
S4 C5 . 1.777(2)
C5 C5 2_666 1.519(4)
C5 H5A . 0.99(3)
C5 H5B . 0.94(4)
O6 H61 . 1.07(4)
O6 H62 . 1.02(4)
O6 H63 . 1.02(4)
loop_
_geom_hbond_atom_site_label_D
_geom_hbond_atom_site_label_H
_geom_hbond_atom_site_label_A
_geom_hbond_site_symmetry_A
_geom_hbond_distance_DH
_geom_hbond_distance_HA
_geom_hbond_distance_DA
_geom_hbond_angle_DHA
O6 H61 O1 1_545 1.07(4) 1.93(4) 2.991(3) 170(4)
O6 H62 O2 1_455 1.02(4) 2.52(3) 3.002(3) 108(2)
O6 H62 O3 . 1.02(4) 1.97(4) 2.945(3) 158(3)
O6 H63 O1 1_445 1.02(4) 1.89(4) 2.899(3) 173(3)
loop_
_geom_torsion_atom_site_label_1
_geom_torsion_atom_site_label_2
_geom_torsion_atom_site_label_3
_geom_torsion_atom_site_label_4
_geom_torsion_site_symmetry_4
_geom_torsion
O2 S4 C5 C5 2_666 61.3(3)
O3 S4 C5 C5 2_666 -58.6(3)
O1 S4 C5 C5 2_666 -177.6(2)

_cod_database_fobs_code 2243132
